GVL.pdb
     RDKit          3D

 20 19  0  0  1  0  0  0  0  0999 V2000
    5.6756  -19.2577   21.4580 N   0  0  0  0  0  0  0  0  0  0  0  0
    5.4604  -17.9033   21.8806 C   0  0  0  0  0  0  0  0  0  0  0  0
    6.6700  -17.0596   21.7180 C   0  0  0  0  0  0  0  0  0  0  0  0
    7.8000  -17.5984   21.5582 O   0  0  0  0  0  0  0  0  0  0  0  0
    8.6763  -12.5715   21.0352 C   0  0  0  0  0  0  0  0  0  0  0  0
    7.4352  -13.4420   21.0009 C   0  0  1  0  0  0  0  0  0  0  0  0
    6.8603  -13.5385   19.6079 C   0  0  0  0  0  0  0  0  0  0  0  0
    7.7772  -14.8012   21.5697 C   0  0  2  0  0  0  0  0  0  0  0  0
    6.6332  -15.6425   21.7314 N   0  0  0  0  0  0  0  0  0  0  0  0
    8.4369  -14.6339   22.8887 C   0  0  0  0  0  0  0  0  0  0  0  0
    9.5656  -14.1250   22.9672 O   0  0  0  0  0  0  0  0  0  0  0  0
    5.8339  -12.2524   26.6370 C   0  0  0  0  0  0  0  0  0  0  0  0
    7.0640  -12.7836   25.9281 C   0  0  1  0  0  0  0  0  0  0  0  0
    8.2941  -11.9493   26.3180 C   0  0  0  0  0  0  0  0  0  0  0  0
    7.3226  -14.2284   26.2732 C   0  0  0  0  0  0  0  0  0  0  0  0
    8.4099  -14.8342   25.4155 C   0  0  2  0  0  0  0  0  0  0  0  0
    7.8170  -15.0419   24.1021 N   0  0  0  0  0  0  0  0  0  0  0  0
    8.8157  -16.1674   25.9178 C   0  0  0  0  0  0  0  0  0  0  0  0
    9.4175  -16.3142   27.0356 O   0  0  0  0  0  0  0  0  0  0  0  0
    8.5867  -17.3638   25.2394 O   0  0  0  0  0  0  0  0  0  0  0  0
  2  1  1  0
  3  2  1  0
  4  3  2  0
  6  5  1  6
  6  8  1  0
  7  6  1  0
  8 10  1  0
  8  9  1  1
  9  3  1  0
 10 17  1  0
 11 10  2  0
 13 12  1  1
 13 14  1  0
 15 13  1  0
 16 15  1  1
 17 16  1  0
 18 20  1  0
 18 16  1  0
 19 18  2  0
M  END
$$$$
