GVL.pdb
     RDKit          3D

 20 19  0  0  1  0  0  0  0  0999 V2000
    5.7720  -19.8109   22.9684 N   0  0  0  0  0  0  0  0  0  0  0  0
    5.5424  -18.3944   22.9548 C   0  0  0  0  0  0  0  0  0  0  0  0
    6.7651  -17.6249   22.6166 C   0  0  0  0  0  0  0  0  0  0  0  0
    7.8964  -18.1823   22.6644 O   0  0  0  0  0  0  0  0  0  0  0  0
    6.4854  -13.4732   21.8168 C   0  0  0  0  0  0  0  0  0  0  0  0
    7.5792  -14.2479   21.1078 C   0  0  1  0  0  0  0  0  0  0  0  0
    8.8024  -13.3948   20.8704 C   0  0  0  0  0  0  0  0  0  0  0  0
    7.8989  -15.4877   21.9131 C   0  0  2  0  0  0  0  0  0  0  0  0
    6.7398  -16.2609   22.2315 N   0  0  0  0  0  0  0  0  0  0  0  0
    8.5738  -15.0971   23.1760 C   0  0  0  0  0  0  0  0  0  0  0  0
    9.7253  -14.6359   23.1571 O   0  0  0  0  0  0  0  0  0  0  0  0
    5.6891  -12.5525   26.7041 C   0  0  0  0  0  0  0  0  0  0  0  0
    6.9540  -12.9899   25.9925 C   0  0  1  0  0  0  0  0  0  0  0  0
    8.0267  -11.8959   26.1119 C   0  0  0  0  0  0  0  0  0  0  0  0
    7.4978  -14.2737   26.5665 C   0  0  0  0  0  0  0  0  0  0  0  0
    8.5835  -14.8710   25.7008 C   0  0  2  0  0  0  0  0  0  0  0  0
    7.9430  -15.2310   24.4439 N   0  0  0  0  0  0  0  0  0  0  0  0
    9.1136  -16.1246   26.2856 C   0  0  0  0  0  0  0  0  0  0  0  0
    9.7801  -16.1329   27.3760 O   0  0  0  0  0  0  0  0  0  0  0  0
    8.9420  -17.3874   25.7201 O   0  0  0  0  0  0  0  0  0  0  0  0
  2  1  1  0
  3  2  1  0
  4  3  2  0
  6  5  1  1
  6  8  1  0
  7  6  1  0
  8 10  1  0
  8  9  1  1
  9  3  1  0
 10 17  1  0
 11 10  2  0
 13 12  1  1
 13 14  1  0
 15 13  1  0
 16 15  1  1
 17 16  1  0
 18 20  1  0
 18 16  1  0
 19 18  2  0
M  END
$$$$
