GVL.pdb
     RDKit          3D

 20 19  0  0  1  0  0  0  0  0999 V2000
    8.0373  -12.6972   17.8643 N   0  0  0  0  0  0  0  0  0  0  0  0
    8.9221  -13.2796   18.8323 C   0  0  0  0  0  0  0  0  0  0  0  0
    8.1925  -13.9646   19.9277 C   0  0  0  0  0  0  0  0  0  0  0  0
    6.9349  -13.8844   19.9968 O   0  0  0  0  0  0  0  0  0  0  0  0
    7.6038  -17.3309   20.4206 C   0  0  0  0  0  0  0  0  0  0  0  0
    8.2665  -16.9723   21.7364 C   0  0  1  0  0  0  0  0  0  0  0  0
    9.6962  -17.4554   21.7904 C   0  0  0  0  0  0  0  0  0  0  0  0
    8.1639  -15.4773   21.9424 C   0  0  2  0  0  0  0  0  0  0  0  0
    8.8408  -14.7268   20.9319 N   0  0  0  0  0  0  0  0  0  0  0  0
    8.7345  -15.1199   23.2651 C   0  0  0  0  0  0  0  0  0  0  0  0
    9.9531  -14.9249   23.3924 O   0  0  0  0  0  0  0  0  0  0  0  0
    5.6101  -12.2381   26.5995 C   0  0  0  0  0  0  0  0  0  0  0  0
    6.8199  -12.7931   25.8742 C   0  0  1  0  0  0  0  0  0  0  0  0
    7.9490  -11.7506   25.8658 C   0  0  0  0  0  0  0  0  0  0  0  0
    7.3248  -14.0567   26.5237 C   0  0  0  0  0  0  0  0  0  0  0  0
    8.4602  -14.6831   25.7470 C   0  0  2  0  0  0  0  0  0  0  0  0
    7.9254  -14.9866   24.4274 N   0  0  0  0  0  0  0  0  0  0  0  0
    8.8794  -15.9717   26.3458 C   0  0  0  0  0  0  0  0  0  0  0  0
    8.4227  -17.0905   25.9301 O   0  0  0  0  0  0  0  0  0  0  0  0
    9.7906  -16.0892   27.3945 O   0  0  0  0  0  0  0  0  0  0  0  0
  2  1  1  0
  3  2  1  0
  4  3  2  0
  6  5  1  6
  6  8  1  0
  7  6  1  0
  8 10  1  0
  8  9  1  6
  9  3  1  0
 10 17  1  0
 11 10  2  0
 13 12  1  1
 13 14  1  0
 15 13  1  0
 16 15  1  1
 17 16  1  0
 18 20  1  0
 18 16  1  0
 19 18  2  0
M  END
$$$$
