GVL.pdb
     RDKit          3D

 20 19  0  0  1  0  0  0  0  0999 V2000
   13.9457  -16.8574   20.0109 N   0  0  0  0  0  0  0  0  0  0  0  0
   13.3310  -17.6206   21.0592 C   0  0  0  0  0  0  0  0  0  0  0  0
   12.4198  -16.8025   21.8969 C   0  0  0  0  0  0  0  0  0  0  0  0
   12.5656  -15.5501   21.9524 O   0  0  0  0  0  0  0  0  0  0  0  0
    8.7505  -16.2515   21.6961 C   0  0  0  0  0  0  0  0  0  0  0  0
    9.0012  -16.8374   23.0719 C   0  0  1  0  0  0  0  0  0  0  0  0
    8.6377  -18.3019   23.1289 C   0  0  0  0  0  0  0  0  0  0  0  0
   10.4459  -16.5956   23.4490 C   0  0  2  0  0  0  0  0  0  0  0  0
   11.3634  -17.3580   22.6618 N   0  0  0  0  0  0  0  0  0  0  0  0
   10.6475  -16.9355   24.8797 C   0  0  0  0  0  0  0  0  0  0  0  0
   11.3430  -17.9108   25.2023 O   0  0  0  0  0  0  0  0  0  0  0  0
    9.0059  -12.9567   28.1211 C   0  0  0  0  0  0  0  0  0  0  0  0
   10.0174  -14.0323   27.7777 C   0  0  1  0  0  0  0  0  0  0  0  0
   11.3181  -13.7972   28.5616 C   0  0  0  0  0  0  0  0  0  0  0  0
    9.4938  -15.4092   28.0994 C   0  0  0  0  0  0  0  0  0  0  0  0
   10.2276  -16.4905   27.3396 C   0  0  2  0  0  0  0  0  0  0  0  0
   10.0631  -16.1726   25.9284 N   0  0  0  0  0  0  0  0  0  0  0  0
    9.6075  -17.8187   27.5544 C   0  0  0  0  0  0  0  0  0  0  0  0
    8.6754  -18.2595   26.7995 O   0  0  0  0  0  0  0  0  0  0  0  0
    9.9702  -18.6974   28.5742 O   0  0  0  0  0  0  0  0  0  0  0  0
  2  1  1  0
  3  2  1  0
  4  3  2  0
  6  5  1  6
  6  8  1  0
  7  6  1  0
  8 10  1  0
  8  9  1  6
  9  3  1  0
 10 17  1  0
 11 10  2  0
 13 12  1  1
 13 14  1  0
 15 13  1  0
 16 15  1  1
 17 16  1  0
 18 20  1  0
 18 16  1  0
 19 18  2  0
M  END
$$$$
