GVL.pdb
     RDKit          3D

 20 19  0  0  1  0  0  0  0  0999 V2000
    4.8651  -19.7155   22.9255 N   0  0  0  0  0  0  0  0  0  0  0  0
    4.8688  -18.2868   22.7910 C   0  0  0  0  0  0  0  0  0  0  0  0
    6.2384  -17.7173   22.8282 C   0  0  0  0  0  0  0  0  0  0  0  0
    7.1132  -18.2230   23.5842 O   0  0  0  0  0  0  0  0  0  0  0  0
    8.0926  -16.3922   19.6225 C   0  0  0  0  0  0  0  0  0  0  0  0
    8.3222  -15.3913   20.7382 C   0  0  1  0  0  0  0  0  0  0  0  0
    7.5666  -14.1061   20.4984 C   0  0  0  0  0  0  0  0  0  0  0  0
    7.9463  -16.0341   22.0548 C   0  0  2  0  0  0  0  0  0  0  0  0
    6.6366  -16.6063   22.0428 N   0  0  0  0  0  0  0  0  0  0  0  0
    8.0145  -15.0210   23.1374 C   0  0  0  0  0  0  0  0  0  0  0  0
    7.5748  -13.8753   22.9551 O   0  0  0  0  0  0  0  0  0  0  0  0
    7.8926  -11.6798   26.7002 C   0  0  0  0  0  0  0  0  0  0  0  0
    7.1142  -12.9616   26.9221 C   0  0  1  0  0  0  0  0  0  0  0  0
    5.6324  -12.6381   27.1694 C   0  0  0  0  0  0  0  0  0  0  0  0
    7.2222  -13.8882   25.7375 C   0  0  0  0  0  0  0  0  0  0  0  0
    8.6431  -14.3451   25.4982 C   0  0  2  0  0  0  0  0  0  0  0  0
    8.5771  -15.3112   24.4112 N   0  0  0  0  0  0  0  0  0  0  0  0
    9.1866  -15.0616   26.6754 C   0  0  0  0  0  0  0  0  0  0  0  0
    9.6747  -14.4395   27.6793 O   0  0  0  0  0  0  0  0  0  0  0  0
    9.2182  -16.4497   26.8025 O   0  0  0  0  0  0  0  0  0  0  0  0
  2  1  1  0
  3  2  1  0
  4  3  2  0
  6  5  1  6
  6  8  1  0
  7  6  1  0
  8 10  1  0
  8  9  1  6
  9  3  1  0
 10 17  1  0
 11 10  2  0
 13 12  1  6
 13 14  1  0
 15 13  1  0
 16 15  1  1
 17 16  1  0
 18 20  1  0
 18 16  1  0
 19 18  2  0
M  END
$$$$
