GVL.pdb
     RDKit          3D

 20 19  0  0  1  0  0  0  0  0999 V2000
   12.2189  -16.9283   18.9114 N   0  0  0  0  0  0  0  0  0  0  0  0
   12.1293  -17.0309   20.3400 C   0  0  0  0  0  0  0  0  0  0  0  0
   11.0483  -16.1846   20.9026 C   0  0  0  0  0  0  0  0  0  0  0  0
   11.0381  -14.9421   20.6819 O   0  0  0  0  0  0  0  0  0  0  0  0
    7.3621  -16.0981   20.3364 C   0  0  0  0  0  0  0  0  0  0  0  0
    7.5601  -16.4144   21.8060 C   0  0  1  0  0  0  0  0  0  0  0  0
    7.3773  -17.8864   22.0890 C   0  0  0  0  0  0  0  0  0  0  0  0
    8.9244  -15.9192   22.2318 C   0  0  2  0  0  0  0  0  0  0  0  0
    9.9942  -16.7017   21.6970 N   0  0  0  0  0  0  0  0  0  0  0  0
    9.0161  -15.9344   23.7131 C   0  0  0  0  0  0  0  0  0  0  0  0
    9.8962  -16.5986   24.2819 O   0  0  0  0  0  0  0  0  0  0  0  0
    6.0800  -12.0209   26.2562 C   0  0  0  0  0  0  0  0  0  0  0  0
    7.2795  -12.9087   25.9904 C   0  0  1  0  0  0  0  0  0  0  0  0
    8.5145  -12.3508   26.7151 C   0  0  0  0  0  0  0  0  0  0  0  0
    7.0368  -14.3228   26.4541 C   0  0  0  0  0  0  0  0  0  0  0  0
    8.1194  -15.2695   25.9890 C   0  0  2  0  0  0  0  0  0  0  0  0
    8.1157  -15.2013   24.5347 N   0  0  0  0  0  0  0  0  0  0  0  0
    7.8057  -16.6709   26.3527 C   0  0  0  0  0  0  0  0  0  0  0  0
    8.1855  -17.1832   27.4601 O   0  0  0  0  0  0  0  0  0  0  0  0
    7.0828  -17.5475   25.5446 O   0  0  0  0  0  0  0  0  0  0  0  0
  2  1  1  0
  3  2  1  0
  4  3  2  0
  6  5  1  6
  6  8  1  0
  7  6  1  0
  8 10  1  0
  8  9  1  6
  9  3  1  0
 10 17  1  0
 11 10  2  0
 13 12  1  1
 13 14  1  0
 15 13  1  0
 16 15  1  1
 17 16  1  0
 18 20  1  0
 18 16  1  0
 19 18  2  0
M  END
$$$$
