GVL.pdb
     RDKit          3D

 20 19  0  0  1  0  0  0  0  0999 V2000
    5.2419  -18.8231   21.4289 N   0  0  0  0  0  0  0  0  0  0  0  0
    5.2576  -17.4208   21.7332 C   0  0  0  0  0  0  0  0  0  0  0  0
    6.6140  -16.8307   21.6179 C   0  0  0  0  0  0  0  0  0  0  0  0
    7.6235  -17.5811   21.5147 O   0  0  0  0  0  0  0  0  0  0  0  0
    7.5567  -13.5923   19.5153 C   0  0  0  0  0  0  0  0  0  0  0  0
    8.1391  -13.4671   20.9097 C   0  0  1  0  0  0  0  0  0  0  0  0
    7.3889  -12.4516   21.7380 C   0  0  0  0  0  0  0  0  0  0  0  0
    8.1490  -14.8335   21.5583 C   0  0  2  0  0  0  0  0  0  0  0  0
    6.8530  -15.4333   21.6164 N   0  0  0  0  0  0  0  0  0  0  0  0
    8.6858  -14.7226   22.9376 C   0  0  0  0  0  0  0  0  0  0  0  0
    9.8505  -14.3413   23.1303 O   0  0  0  0  0  0  0  0  0  0  0  0
    5.7537  -12.4296   26.7359 C   0  0  0  0  0  0  0  0  0  0  0  0
    6.9861  -12.9225   26.0038 C   0  0  1  0  0  0  0  0  0  0  0  0
    8.2178  -12.1211   26.4538 C   0  0  0  0  0  0  0  0  0  0  0  0
    7.2347  -14.3875   26.2598 C   0  0  0  0  0  0  0  0  0  0  0  0
    8.3930  -14.9201   25.4478 C   0  0  2  0  0  0  0  0  0  0  0  0
    7.9040  -15.0426   24.0820 N   0  0  0  0  0  0  0  0  0  0  0  0
    8.7816  -16.2805   25.8871 C   0  0  0  0  0  0  0  0  0  0  0  0
    8.4019  -17.3274   25.2604 O   0  0  0  0  0  0  0  0  0  0  0  0
    9.5802  -16.5471   26.9984 O   0  0  0  0  0  0  0  0  0  0  0  0
  2  1  1  0
  3  2  1  0
  4  3  2  0
  6  5  1  6
  6  8  1  0
  7  6  1  0
  8 10  1  0
  8  9  1  1
  9  3  1  0
 10 17  1  0
 11 10  2  0
 13 12  1  1
 13 14  1  0
 15 13  1  0
 16 15  1  1
 17 16  1  0
 18 20  1  0
 18 16  1  0
 19 18  2  0
M  END
$$$$
