DSW.pdb
     RDKit          3D

 29 30  0  0  1  0  0  0  0  0999 V2000
   30.2282  -21.6601  -18.3498 N   0  0  0  0  0  0  0  0  0  0  0  0
   28.8374  -21.5937  -18.0370 C   0  0  1  0  0  0  0  0  0  0  0  0
   28.2549  -22.9998  -18.2085 C   0  0  0  0  0  0  0  0  0  0  0  0
   28.1292  -23.3400  -19.6455 C   0  0  0  0  0  0  0  0  0  0  0  0
   27.8049  -24.5213  -19.9325 O   0  0  0  0  0  0  0  0  0  0  0  0
   28.5999  -21.2435  -16.5955 C   0  0  0  0  0  0  0  0  0  0  0  0
   29.0584  -21.9931  -15.6973 O   0  0  0  0  0  0  0  0  0  0  0  0
   28.3443  -22.4500  -20.6809 O   0  0  0  0  0  0  0  0  0  0  0  0
   25.9077  -18.0599  -15.3040 O   0  0  0  0  0  0  0  0  0  0  0  0
   27.1149  -18.2887  -14.6938 C   0  0  0  0  0  0  0  0  0  0  0  0
   27.6260  -19.6791  -14.8533 C   0  0  2  0  0  0  0  0  0  0  0  0
   27.8766  -20.0972  -16.1901 N   0  0  0  0  0  0  0  0  0  0  0  0
   26.7696  -20.6128  -14.0909 C   0  0  0  0  0  0  0  0  0  0  0  0
   25.9862  -21.3504  -14.7350 O   0  0  0  0  0  0  0  0  0  0  0  0
   26.7766  -20.7274  -12.6770 N   0  0  0  0  0  0  0  0  0  0  0  0
   25.9586  -21.6958  -11.9463 C   0  0  1  0  0  0  0  0  0  0  0  0
   26.6662  -22.1962  -10.7196 C   0  0  0  0  0  0  0  0  0  0  0  0
   26.5558  -21.1836   -9.6550 C   0  0  0  0  0  0  0  0  0  0  0  0
   25.5618  -20.2520   -9.4814 C   0  0  0  0  0  0  0  0  0  0  0  0
   25.8388  -19.5202   -8.3866 N   0  0  0  0  0  0  0  0  0  0  0  0
   27.0030  -19.9526   -7.8301 C   0  0  0  0  0  0  0  0  0  0  0  0
   27.6989  -19.5370   -6.7239 C   0  0  0  0  0  0  0  0  0  0  0  0
   28.8802  -20.1710   -6.3888 C   0  0  0  0  0  0  0  0  0  0  0  0
   29.3458  -21.2048   -7.1593 C   0  0  0  0  0  0  0  0  0  0  0  0
   28.6303  -21.6052   -8.2651 C   0  0  0  0  0  0  0  0  0  0  0  0
   27.4527  -21.0002   -8.6308 C   0  0  0  0  0  0  0  0  0  0  0  0
   24.6673  -21.0780  -11.6460 C   0  0  0  0  0  0  0  0  0  0  0  0
   23.6966  -21.7898  -11.2998 O   0  0  0  0  0  0  0  0  0  0  0  0
   24.4969  -19.7168  -11.7379 O   0  0  0  0  0  0  0  0  0  0  0  0
  2  1  1  1
  3  2  1  0
  4  3  1  0
  5  4  2  0
  6  2  1  0
  6  7  2  0
  8  4  1  0
  9 10  1  0
 11 10  1  6
 11 12  1  0
 11 13  1  0
 12  6  1  0
 13 14  2  0
 13 15  1  0
 15 16  1  0
 16 27  1  0
 16 17  1  1
 18 17  1  0
 19 18  2  0
 20 19  1  0
 21 20  1  0
 21 26  2  0
 22 21  1  0
 23 22  2  0
 23 24  1  0
 24 25  2  0
 25 26  1  0
 26 18  1  0
 27 28  2  0
 27 29  1  0
M  END
$$$$
