DSW.pdb
     RDKit          3D

 29 30  0  0  1  0  0  0  0  0999 V2000
   24.2179  -18.0561  -18.9400 N   0  0  0  0  0  0  0  0  0  0  0  0
   24.4468  -17.7734  -17.5600 C   0  0  1  0  0  0  0  0  0  0  0  0
   23.1004  -17.4000  -16.9326 C   0  0  0  0  0  0  0  0  0  0  0  0
   22.5578  -16.1702  -17.5569 C   0  0  0  0  0  0  0  0  0  0  0  0
   23.1091  -15.7686  -18.6142 O   0  0  0  0  0  0  0  0  0  0  0  0
   24.9087  -18.9872  -16.8050 C   0  0  0  0  0  0  0  0  0  0  0  0
   24.0679  -19.6746  -16.1729 O   0  0  0  0  0  0  0  0  0  0  0  0
   21.4948  -15.4430  -17.0555 O   0  0  0  0  0  0  0  0  0  0  0  0
   29.0116  -20.1996  -16.9071 O   0  0  0  0  0  0  0  0  0  0  0  0
   28.0341  -21.1103  -16.5953 C   0  0  0  0  0  0  0  0  0  0  0  0
   26.7906  -20.5056  -16.0405 C   0  0  2  0  0  0  0  0  0  0  0  0
   26.2603  -19.4033  -16.7675 N   0  0  0  0  0  0  0  0  0  0  0  0
   26.9724  -20.2322  -14.5988 C   0  0  0  0  0  0  0  0  0  0  0  0
   27.4286  -19.1124  -14.2662 O   0  0  0  0  0  0  0  0  0  0  0  0
   26.6647  -21.1559  -13.5671 N   0  0  0  0  0  0  0  0  0  0  0  0
   26.9411  -20.9012  -12.1530 C   0  0  1  0  0  0  0  0  0  0  0  0
   26.2711  -19.6423  -11.6817 C   0  0  0  0  0  0  0  0  0  0  0  0
   24.8305  -19.9000  -11.5112 C   0  0  0  0  0  0  0  0  0  0  0  0
   24.1886  -20.3769  -10.3947 C   0  0  0  0  0  0  0  0  0  0  0  0
   22.8715  -20.4655  -10.6557 N   0  0  0  0  0  0  0  0  0  0  0  0
   22.6290  -20.0540  -11.9300 C   0  0  0  0  0  0  0  0  0  0  0  0
   21.4701  -19.9607  -12.6573 C   0  0  0  0  0  0  0  0  0  0  0  0
   21.5224  -19.5019  -13.9597 C   0  0  0  0  0  0  0  0  0  0  0  0
   22.7249  -19.1451  -14.5129 C   0  0  0  0  0  0  0  0  0  0  0  0
   23.8755  -19.2468  -13.7640 C   0  0  0  0  0  0  0  0  0  0  0  0
   23.8644  -19.6984  -12.4668 C   0  0  0  0  0  0  0  0  0  0  0  0
   26.5431  -22.0798  -11.3839 C   0  0  0  0  0  0  0  0  0  0  0  0
   26.0023  -23.0517  -11.9599 O   0  0  0  0  0  0  0  0  0  0  0  0
   26.7531  -22.1418  -10.0265 O   0  0  0  0  0  0  0  0  0  0  0  0
  2  1  1  6
  3  2  1  0
  4  3  1  0
  5  4  2  0
  6  2  1  0
  6  7  2  0
  8  4  1  0
  9 10  1  0
 11 10  1  6
 11 12  1  0
 11 13  1  0
 12  6  1  0
 13 14  2  0
 13 15  1  0
 15 16  1  0
 16 27  1  0
 16 17  1  1
 18 17  1  0
 19 18  2  0
 20 19  1  0
 21 20  1  0
 21 26  2  0
 22 21  1  0
 23 22  2  0
 23 24  1  0
 24 25  2  0
 25 26  1  0
 26 18  1  0
 27 28  2  0
 27 29  1  0
M  END
$$$$
