DSW.pdb
     RDKit          3D

 29 30  0  0  1  0  0  0  0  0999 V2000
   29.8972  -22.4225  -17.7855 N   0  0  0  0  0  0  0  0  0  0  0  0
   28.6694  -21.7859  -17.4330 C   0  0  1  0  0  0  0  0  0  0  0  0
   27.5389  -22.7905  -17.6750 C   0  0  0  0  0  0  0  0  0  0  0  0
   27.1310  -22.7826  -19.0997 C   0  0  0  0  0  0  0  0  0  0  0  0
   26.1710  -23.5262  -19.4291 O   0  0  0  0  0  0  0  0  0  0  0  0
   28.6018  -21.4642  -15.9672 C   0  0  0  0  0  0  0  0  0  0  0  0
   29.0597  -22.2873  -15.1355 O   0  0  0  0  0  0  0  0  0  0  0  0
   27.7332  -22.0177  -20.0808 O   0  0  0  0  0  0  0  0  0  0  0  0
   26.5783  -17.9303  -14.3916 O   0  0  0  0  0  0  0  0  0  0  0  0
   27.7565  -18.4036  -13.8721 C   0  0  0  0  0  0  0  0  0  0  0  0
   27.9860  -19.8573  -14.1044 C   0  0  2  0  0  0  0  0  0  0  0  0
   28.0415  -20.2656  -15.4663 N   0  0  0  0  0  0  0  0  0  0  0  0
   27.0387  -20.6458  -13.2875 C   0  0  0  0  0  0  0  0  0  0  0  0
   26.0946  -21.2237  -13.8768 O   0  0  0  0  0  0  0  0  0  0  0  0
   27.1287  -20.7899  -11.8791 N   0  0  0  0  0  0  0  0  0  0  0  0
   26.2196  -21.6298  -11.0986 C   0  0  1  0  0  0  0  0  0  0  0  0
   26.8061  -21.9754   -9.7598 C   0  0  0  0  0  0  0  0  0  0  0  0
   26.6853  -20.8095   -8.8672 C   0  0  0  0  0  0  0  0  0  0  0  0
   25.7670  -19.7906   -8.9356 C   0  0  0  0  0  0  0  0  0  0  0  0
   26.0022  -18.9260   -7.9316 N   0  0  0  0  0  0  0  0  0  0  0  0
   27.0639  -19.3560   -7.1969 C   0  0  0  0  0  0  0  0  0  0  0  0
   27.6848  -18.8327   -6.0917 C   0  0  0  0  0  0  0  0  0  0  0  0
   28.7665  -19.4960   -5.5445 C   0  0  0  0  0  0  0  0  0  0  0  0
   29.2092  -20.6655   -6.1063 C   0  0  0  0  0  0  0  0  0  0  0  0
   28.5703  -21.1723   -7.2153 C   0  0  0  0  0  0  0  0  0  0  0  0
   27.4924  -20.5425   -7.7881 C   0  0  0  0  0  0  0  0  0  0  0  0
   24.9309  -20.9458  -10.9958 C   0  0  0  0  0  0  0  0  0  0  0  0
   23.9071  -21.5838  -10.6587 O   0  0  0  0  0  0  0  0  0  0  0  0
   24.8207  -19.6020  -11.2651 O   0  0  0  0  0  0  0  0  0  0  0  0
  2  1  1  1
  3  2  1  0
  4  3  1  0
  5  4  2  0
  6  2  1  0
  6  7  2  0
  8  4  1  0
  9 10  1  0
 11 10  1  6
 11 12  1  0
 11 13  1  0
 12  6  1  0
 13 14  2  0
 13 15  1  0
 15 16  1  0
 16 27  1  0
 16 17  1  1
 18 17  1  0
 19 18  2  0
 20 19  1  0
 21 20  1  0
 21 26  2  0
 22 21  1  0
 23 22  2  0
 23 24  1  0
 24 25  2  0
 25 26  1  0
 26 18  1  0
 27 28  2  0
 27 29  1  0
M  END
$$$$
