DSW.pdb
     RDKit          3D

 29 30  0  0  1  0  0  0  0  0999 V2000
   12.2323  -20.1804    0.5913 N   0  0  0  0  0  0  0  0  0  0  0  0
   12.6663  -20.7378    1.8314 C   0  0  1  0  0  0  0  0  0  0  0  0
   13.9699  -21.4976    1.5685 C   0  0  0  0  0  0  0  0  0  0  0  0
   13.7557  -22.5688    0.5670 C   0  0  0  0  0  0  0  0  0  0  0  0
   14.5624  -22.6271   -0.3969 O   0  0  0  0  0  0  0  0  0  0  0  0
   13.0254  -19.6760    2.8316 C   0  0  0  0  0  0  0  0  0  0  0  0
   13.2667  -18.5100    2.4303 O   0  0  0  0  0  0  0  0  0  0  0  0
   12.7350  -23.4989    0.6238 O   0  0  0  0  0  0  0  0  0  0  0  0
   13.3475  -20.4376    7.1427 O   0  0  0  0  0  0  0  0  0  0  0  0
   12.8381  -19.2892    6.5917 C   0  0  0  0  0  0  0  0  0  0  0  0
   13.3787  -18.9679    5.2410 C   0  0  2  0  0  0  0  0  0  0  0  0
   13.1076  -19.9235    4.2221 N   0  0  0  0  0  0  0  0  0  0  0  0
   14.8089  -18.6090    5.3516 C   0  0  0  0  0  0  0  0  0  0  0  0
   15.6444  -19.3381    4.7659 O   0  0  0  0  0  0  0  0  0  0  0  0
   15.2969  -17.4931    6.0788 N   0  0  0  0  0  0  0  0  0  0  0  0
   16.7197  -17.1736    6.1990 C   0  0  1  0  0  0  0  0  0  0  0  0
   17.3237  -16.8497    4.8626 C   0  0  0  0  0  0  0  0  0  0  0  0
   17.3559  -15.3867    4.6920 C   0  0  0  0  0  0  0  0  0  0  0  0
   16.6105  -14.4463    5.3600 C   0  0  0  0  0  0  0  0  0  0  0  0
   16.9459  -13.2244    4.9069 N   0  0  0  0  0  0  0  0  0  0  0  0
   17.9039  -13.3395    3.9473 C   0  0  0  0  0  0  0  0  0  0  0  0
   18.5607  -12.4020    3.1920 C   0  0  0  0  0  0  0  0  0  0  0  0
   19.5045  -12.8143    2.2707 C   0  0  0  0  0  0  0  0  0  0  0  0
   19.7766  -14.1492    2.1186 C   0  0  0  0  0  0  0  0  0  0  0  0
   19.1051  -15.0725    2.8879 C   0  0  0  0  0  0  0  0  0  0  0  0
   18.1604  -14.7023    3.8136 C   0  0  0  0  0  0  0  0  0  0  0  0
   16.8703  -16.0893    7.1692 C   0  0  0  0  0  0  0  0  0  0  0  0
   15.8593  -15.4898    7.6019 O   0  0  0  0  0  0  0  0  0  0  0  0
   18.1132  -15.7117    7.6195 O   0  0  0  0  0  0  0  0  0  0  0  0
  2  1  1  6
  3  2  1  0
  4  3  1  0
  5  4  2  0
  6  2  1  0
  6  7  2  0
  8  4  1  0
  9 10  1  0
 11 10  1  1
 11 12  1  0
 11 13  1  0
 12  6  1  0
 13 14  2  0
 13 15  1  0
 15 16  1  0
 16 27  1  0
 16 17  1  6
 18 17  1  0
 19 18  2  0
 20 19  1  0
 21 20  1  0
 21 26  2  0
 22 21  1  0
 23 22  2  0
 23 24  1  0
 24 25  2  0
 25 26  1  0
 26 18  1  0
 27 28  2  0
 27 29  1  0
M  END
$$$$
