DSW.pdb
     RDKit          3D

 29 30  0  0  1  0  0  0  0  0999 V2000
   15.0682  -20.7905    5.9788 N   0  0  0  0  0  0  0  0  0  0  0  0
   16.2999  -20.5815    6.6687 C   0  0  1  0  0  0  0  0  0  0  0  0
   17.4364  -20.7818    5.6616 C   0  0  0  0  0  0  0  0  0  0  0  0
   17.4866  -22.1912    5.2062 C   0  0  0  0  0  0  0  0  0  0  0  0
   17.8045  -23.0615    6.0574 O   0  0  0  0  0  0  0  0  0  0  0  0
   16.4446  -19.1649    7.1474 C   0  0  0  0  0  0  0  0  0  0  0  0
   15.4246  -18.4351    7.2246 O   0  0  0  0  0  0  0  0  0  0  0  0
   17.2095  -22.6063    3.9173 O   0  0  0  0  0  0  0  0  0  0  0  0
   17.6035  -17.2019   10.9218 O   0  0  0  0  0  0  0  0  0  0  0  0
   17.5004  -18.1560    9.9415 C   0  0  0  0  0  0  0  0  0  0  0  0
   17.9200  -17.6905    8.5897 C   0  0  2  0  0  0  0  0  0  0  0  0
   17.6870  -18.6010    7.5214 N   0  0  0  0  0  0  0  0  0  0  0  0
   19.3093  -17.1875    8.6474 C   0  0  0  0  0  0  0  0  0  0  0  0
   20.2370  -17.9955    8.4045 O   0  0  0  0  0  0  0  0  0  0  0  0
   19.6604  -15.8493    8.9609 N   0  0  0  0  0  0  0  0  0  0  0  0
   21.0237  -15.3301    8.8488 C   0  0  1  0  0  0  0  0  0  0  0  0
   21.5027  -15.3502    7.4255 C   0  0  0  0  0  0  0  0  0  0  0  0
   20.9125  -14.2092    6.7041 C   0  0  0  0  0  0  0  0  0  0  0  0
   21.2802  -12.8880    6.7770 C   0  0  0  0  0  0  0  0  0  0  0  0
   20.4889  -12.1712    5.9580 N   0  0  0  0  0  0  0  0  0  0  0  0
   19.6004  -12.9975    5.3417 C   0  0  0  0  0  0  0  0  0  0  0  0
   18.6016  -12.7546    4.4338 C   0  0  0  0  0  0  0  0  0  0  0  0
   17.8367  -13.8078    3.9700 C   0  0  0  0  0  0  0  0  0  0  0  0
   18.0795  -15.0806    4.4174 C   0  0  0  0  0  0  0  0  0  0  0  0
   19.0876  -15.3008    5.3286 C   0  0  0  0  0  0  0  0  0  0  0  0
   19.8691  -14.2805    5.8132 C   0  0  0  0  0  0  0  0  0  0  0  0
   21.0604  -13.9938    9.4426 C   0  0  0  0  0  0  0  0  0  0  0  0
   19.9925  -13.4022    9.7226 O   0  0  0  0  0  0  0  0  0  0  0  0
   22.2571  -13.3684    9.7016 O   0  0  0  0  0  0  0  0  0  0  0  0
  2  1  1  6
  3  2  1  0
  4  3  1  0
  5  4  2  0
  6  2  1  0
  6  7  2  0
  8  4  1  0
  9 10  1  0
 11 10  1  1
 11 12  1  0
 11 13  1  0
 12  6  1  0
 13 14  2  0
 13 15  1  0
 15 16  1  0
 16 27  1  0
 16 17  1  6
 18 17  1  0
 19 18  2  0
 20 19  1  0
 21 20  1  0
 21 26  2  0
 22 21  1  0
 23 22  2  0
 23 24  1  0
 24 25  2  0
 25 26  1  0
 26 18  1  0
 27 28  2  0
 27 29  1  0
M  END
$$$$
