DSW.pdb
     RDKit          3D

 29 30  0  0  1  0  0  0  0  0999 V2000
   27.8226  -18.2193  -20.1976 N   0  0  0  0  0  0  0  0  0  0  0  0
   27.3941  -16.9327  -20.6422 C   0  0  1  0  0  0  0  0  0  0  0  0
   26.2176  -16.5042  -19.7601 C   0  0  0  0  0  0  0  0  0  0  0  0
   25.0305  -17.3501  -20.0278 C   0  0  0  0  0  0  0  0  0  0  0  0
   24.2281  -16.9546  -20.9125 O   0  0  0  0  0  0  0  0  0  0  0  0
   28.4474  -15.8829  -20.4291 C   0  0  0  0  0  0  0  0  0  0  0  0
   29.6574  -16.1873  -20.5777 O   0  0  0  0  0  0  0  0  0  0  0  0
   24.7512  -18.5347  -19.3728 O   0  0  0  0  0  0  0  0  0  0  0  0
   29.8700  -12.1883  -22.2976 O   0  0  0  0  0  0  0  0  0  0  0  0
   29.1428  -13.2952  -21.9399 C   0  0  0  0  0  0  0  0  0  0  0  0
   28.8300  -13.3766  -20.4855 C   0  0  2  0  0  0  0  0  0  0  0  0
   28.1443  -14.5501  -20.0643 N   0  0  0  0  0  0  0  0  0  0  0  0
   28.1825  -12.1219  -20.0464 C   0  0  0  0  0  0  0  0  0  0  0  0
   26.9898  -11.9279  -20.3817 O   0  0  0  0  0  0  0  0  0  0  0  0
   28.8243  -11.1226  -19.2705 N   0  0  0  0  0  0  0  0  0  0  0  0
   28.1009  -10.0526  -18.5831 C   0  0  1  0  0  0  0  0  0  0  0  0
   28.5632   -9.9035  -17.1619 C   0  0  0  0  0  0  0  0  0  0  0  0
   30.0222   -9.6985  -17.1506 C   0  0  0  0  0  0  0  0  0  0  0  0
   30.7029   -8.5100  -17.0492 C   0  0  0  0  0  0  0  0  0  0  0  0
   32.0243   -8.7628  -17.0758 N   0  0  0  0  0  0  0  0  0  0  0  0
   32.2314  -10.1027  -17.1933 C   0  0  0  0  0  0  0  0  0  0  0  0
   33.3798  -10.8490  -17.2644 C   0  0  0  0  0  0  0  0  0  0  0  0
   33.2888  -12.2225  -17.3862 C   0  0  0  0  0  0  0  0  0  0  0  0
   32.0591  -12.8264  -17.4349 C   0  0  0  0  0  0  0  0  0  0  0  0
   30.9198  -12.0572  -17.3615 C   0  0  0  0  0  0  0  0  0  0  0  0
   30.9690  -10.6899  -17.2402 C   0  0  0  0  0  0  0  0  0  0  0  0
   28.2458   -8.8222  -19.3606 C   0  0  0  0  0  0  0  0  0  0  0  0
   29.0294   -8.7857  -20.3371 O   0  0  0  0  0  0  0  0  0  0  0  0
   27.5312   -7.6932  -19.0364 O   0  0  0  0  0  0  0  0  0  0  0  0
  2  1  1  1
  3  2  1  0
  4  3  1  0
  5  4  2  0
  6  2  1  0
  6  7  2  0
  8  4  1  0
  9 10  1  0
 11 10  1  6
 11 12  1  0
 11 13  1  0
 12  6  1  0
 13 14  2  0
 13 15  1  0
 15 16  1  0
 16 27  1  0
 16 17  1  1
 18 17  1  0
 19 18  2  0
 20 19  1  0
 21 20  1  0
 21 26  2  0
 22 21  1  0
 23 22  2  0
 23 24  1  0
 24 25  2  0
 25 26  1  0
 26 18  1  0
 27 28  2  0
 27 29  1  0
M  END
$$$$
