DSW.pdb
     RDKit          3D

 29 30  0  0  1  0  0  0  0  0999 V2000
   29.8640  -22.9184  -17.8620 N   0  0  0  0  0  0  0  0  0  0  0  0
   28.8526  -21.9203  -17.7292 C   0  0  1  0  0  0  0  0  0  0  0  0
   27.5385  -22.5198  -18.2389 C   0  0  0  0  0  0  0  0  0  0  0  0
   27.4876  -22.4806  -19.7195 C   0  0  0  0  0  0  0  0  0  0  0  0
   26.6968  -23.2752  -20.2907 O   0  0  0  0  0  0  0  0  0  0  0  0
   28.5926  -21.5691  -16.2919 C   0  0  0  0  0  0  0  0  0  0  0  0
   28.7402  -22.4496  -15.4077 O   0  0  0  0  0  0  0  0  0  0  0  0
   28.2473  -21.6347  -20.5054 O   0  0  0  0  0  0  0  0  0  0  0  0
   26.8739  -17.7797  -15.1551 O   0  0  0  0  0  0  0  0  0  0  0  0
   27.7771  -18.4002  -14.3296 C   0  0  0  0  0  0  0  0  0  0  0  0
   27.8915  -19.8700  -14.5447 C   0  0  2  0  0  0  0  0  0  0  0  0
   28.1842  -20.2802  -15.8754 N   0  0  0  0  0  0  0  0  0  0  0  0
   26.7158  -20.5499  -13.9599 C   0  0  0  0  0  0  0  0  0  0  0  0
   25.7486  -20.8051  -14.7161 O   0  0  0  0  0  0  0  0  0  0  0  0
   26.6113  -20.9315  -12.5976 N   0  0  0  0  0  0  0  0  0  0  0  0
   25.3826  -21.4598  -12.0042 C   0  0  1  0  0  0  0  0  0  0  0  0
   25.6580  -22.1555  -10.7019 C   0  0  0  0  0  0  0  0  0  0  0  0
   26.1354  -21.1657   -9.7204 C   0  0  0  0  0  0  0  0  0  0  0  0
   25.4556  -20.0818   -9.2215 C   0  0  0  0  0  0  0  0  0  0  0  0
   26.2494  -19.4359   -8.3477 N   0  0  0  0  0  0  0  0  0  0  0  0
   27.4472  -20.0756   -8.2588 C   0  0  0  0  0  0  0  0  0  0  0  0
   28.5727  -19.8133   -7.5204 C   0  0  0  0  0  0  0  0  0  0  0  0
   29.6675  -20.6490   -7.6338 C   0  0  0  0  0  0  0  0  0  0  0  0
   29.6217  -21.7280   -8.4781 C   0  0  0  0  0  0  0  0  0  0  0  0
   28.4811  -21.9719   -9.2093 C   0  0  0  0  0  0  0  0  0  0  0  0
   27.3731  -21.1647   -9.1243 C   0  0  0  0  0  0  0  0  0  0  0  0
   24.4237  -20.3633  -11.8720 C   0  0  0  0  0  0  0  0  0  0  0  0
   24.8289  -19.1798  -11.8082 O   0  0  0  0  0  0  0  0  0  0  0  0
   23.0723  -20.6095  -11.8154 O   0  0  0  0  0  0  0  0  0  0  0  0
  2  1  1  1
  3  2  1  0
  4  3  1  0
  5  4  2  0
  6  2  1  0
  6  7  2  0
  8  4  1  0
  9 10  1  0
 11 10  1  6
 11 12  1  0
 11 13  1  0
 12  6  1  0
 13 14  2  0
 13 15  1  0
 15 16  1  0
 16 27  1  0
 16 17  1  1
 18 17  1  0
 19 18  2  0
 20 19  1  0
 21 20  1  0
 21 26  2  0
 22 21  1  0
 23 22  2  0
 23 24  1  0
 24 25  2  0
 25 26  1  0
 26 18  1  0
 27 28  2  0
 27 29  1  0
M  END
$$$$
