DSW.pdb
     RDKit          3D

 29 30  0  0  1  0  0  0  0  0999 V2000
   18.5959  -20.8836  -12.0223 N   0  0  0  0  0  0  0  0  0  0  0  0
   19.5312  -20.2495  -12.8941 C   0  0  1  0  0  0  0  0  0  0  0  0
   19.7345  -18.8162  -12.3941 C   0  0  0  0  0  0  0  0  0  0  0  0
   18.6145  -17.9487  -12.8294 C   0  0  0  0  0  0  0  0  0  0  0  0
   18.4576  -17.7868  -14.0672 O   0  0  0  0  0  0  0  0  0  0  0  0
   20.8898  -20.8867  -12.8227 C   0  0  0  0  0  0  0  0  0  0  0  0
   21.2361  -21.4794  -11.7702 O   0  0  0  0  0  0  0  0  0  0  0  0
   17.7398  -17.3116  -11.9696 O   0  0  0  0  0  0  0  0  0  0  0  0
   24.0176  -20.4843  -15.9108 O   0  0  0  0  0  0  0  0  0  0  0  0
   23.6727  -21.6633  -15.3001 C   0  0  0  0  0  0  0  0  0  0  0  0
   23.0814  -21.4979  -13.9426 C   0  0  2  0  0  0  0  0  0  0  0  0
   21.8135  -20.8541  -13.8938 N   0  0  0  0  0  0  0  0  0  0  0  0
   24.0842  -20.9019  -13.0341 C   0  0  0  0  0  0  0  0  0  0  0  0
   23.8245  -19.7864  -12.5232 O   0  0  0  0  0  0  0  0  0  0  0  0
   25.3222  -21.5105  -12.7035 N   0  0  0  0  0  0  0  0  0  0  0  0
   26.3530  -20.8494  -11.9028 C   0  0  1  0  0  0  0  0  0  0  0  0
   26.1824  -21.1423  -10.4396 C   0  0  0  0  0  0  0  0  0  0  0  0
   27.4542  -20.8763   -9.7451 C   0  0  0  0  0  0  0  0  0  0  0  0
   28.7268  -21.1219  -10.1992 C   0  0  0  0  0  0  0  0  0  0  0  0
   29.6064  -20.7310   -9.2588 N   0  0  0  0  0  0  0  0  0  0  0  0
   28.9362  -20.2288   -8.1862 C   0  0  0  0  0  0  0  0  0  0  0  0
   29.3732  -19.7124   -6.9932 C   0  0  0  0  0  0  0  0  0  0  0  0
   28.4480  -19.2698   -6.0670 C   0  0  0  0  0  0  0  0  0  0  0  0
   27.1080  -19.3493   -6.3448 C   0  0  0  0  0  0  0  0  0  0  0  0
   26.6924  -19.8711   -7.5490 C   0  0  0  0  0  0  0  0  0  0  0  0
   27.5809  -20.3214   -8.4948 C   0  0  0  0  0  0  0  0  0  0  0  0
   27.6638  -21.2494  -12.4140 C   0  0  0  0  0  0  0  0  0  0  0  0
   28.6846  -20.5926  -12.1056 O   0  0  0  0  0  0  0  0  0  0  0  0
   27.7978  -22.3439  -13.2353 O   0  0  0  0  0  0  0  0  0  0  0  0
  2  1  1  1
  3  2  1  0
  4  3  1  0
  5  4  2  0
  6  2  1  0
  6  7  2  0
  8  4  1  0
  9 10  1  0
 11 10  1  6
 11 12  1  0
 11 13  1  0
 12  6  1  0
 13 14  2  0
 13 15  1  0
 15 16  1  0
 16 27  1  0
 16 17  1  1
 18 17  1  0
 19 18  2  0
 20 19  1  0
 21 20  1  0
 21 26  2  0
 22 21  1  0
 23 22  2  0
 23 24  1  0
 24 25  2  0
 25 26  1  0
 26 18  1  0
 27 28  2  0
 27 29  1  0
M  END
$$$$
