DSW.pdb
     RDKit          3D

 29 30  0  0  1  0  0  0  0  0999 V2000
   20.3716  -19.5461  -14.7015 N   0  0  0  0  0  0  0  0  0  0  0  0
   20.3294  -18.7187  -13.5394 C   0  0  1  0  0  0  0  0  0  0  0  0
   18.9172  -18.8120  -12.9536 C   0  0  0  0  0  0  0  0  0  0  0  0
   17.9197  -18.2787  -13.9111 C   0  0  0  0  0  0  0  0  0  0  0  0
   18.3217  -17.4337  -14.7522 O   0  0  0  0  0  0  0  0  0  0  0  0
   21.2384  -19.2231  -12.4549 C   0  0  0  0  0  0  0  0  0  0  0  0
   21.1590  -18.7238  -11.3046 O   0  0  0  0  0  0  0  0  0  0  0  0
   16.5878  -18.6469  -13.9381 O   0  0  0  0  0  0  0  0  0  0  0  0
   23.5172  -22.8771  -12.8120 O   0  0  0  0  0  0  0  0  0  0  0  0
   23.1307  -22.2845  -11.6366 C   0  0  0  0  0  0  0  0  0  0  0  0
   23.0752  -20.7967  -11.6923 C   0  0  2  0  0  0  0  0  0  0  0  0
   22.1934  -20.2458  -12.6638 N   0  0  0  0  0  0  0  0  0  0  0  0
   24.4478  -20.2512  -11.7608 C   0  0  0  0  0  0  0  0  0  0  0  0
   24.8403  -19.7844  -12.8565 O   0  0  0  0  0  0  0  0  0  0  0  0
   25.3501  -20.2229  -10.6665 N   0  0  0  0  0  0  0  0  0  0  0  0
   26.7939  -20.0436  -10.8212 C   0  0  1  0  0  0  0  0  0  0  0  0
   27.3858  -19.3209   -9.6451 C   0  0  0  0  0  0  0  0  0  0  0  0
   26.9762  -20.0044   -8.4059 C   0  0  0  0  0  0  0  0  0  0  0  0
   26.0515  -21.0102   -8.2673 C   0  0  0  0  0  0  0  0  0  0  0  0
   25.9762  -21.3550   -6.9688 N   0  0  0  0  0  0  0  0  0  0  0  0
   26.8380  -20.5925   -6.2423 C   0  0  0  0  0  0  0  0  0  0  0  0
   27.1249  -20.5598   -4.9017 C   0  0  0  0  0  0  0  0  0  0  0  0
   28.0630  -19.6608   -4.4312 C   0  0  0  0  0  0  0  0  0  0  0  0
   28.6968  -18.8127   -5.3021 C   0  0  0  0  0  0  0  0  0  0  0  0
   28.3930  -18.8635   -6.6438 C   0  0  0  0  0  0  0  0  0  0  0  0
   27.4667  -19.7426   -7.1496 C   0  0  0  0  0  0  0  0  0  0  0  0
   27.4015  -21.3546  -11.0479 C   0  0  0  0  0  0  0  0  0  0  0  0
   26.6906  -22.3858  -11.0377 O   0  0  0  0  0  0  0  0  0  0  0  0
   28.7521  -21.4779  -11.2740 O   0  0  0  0  0  0  0  0  0  0  0  0
  2  1  1  6
  3  2  1  0
  4  3  1  0
  5  4  2  0
  6  2  1  0
  6  7  2  0
  8  4  1  0
  9 10  1  0
 11 10  1  6
 11 12  1  0
 11 13  1  0
 12  6  1  0
 13 14  2  0
 13 15  1  0
 15 16  1  0
 16 27  1  0
 16 17  1  1
 18 17  1  0
 19 18  2  0
 20 19  1  0
 21 20  1  0
 21 26  2  0
 22 21  1  0
 23 22  2  0
 23 24  1  0
 24 25  2  0
 25 26  1  0
 26 18  1  0
 27 28  2  0
 27 29  1  0
M  END
$$$$
