DSW.pdb
     RDKit          3D

 29 30  0  0  1  0  0  0  0  0999 V2000
   17.7369  -12.6171  -17.8817 N   0  0  0  0  0  0  0  0  0  0  0  0
   18.6669  -12.0660  -16.9501 C   0  0  1  0  0  0  0  0  0  0  0  0
   19.8794  -13.0003  -16.8960 C   0  0  0  0  0  0  0  0  0  0  0  0
   19.4974  -14.3175  -16.3344 C   0  0  0  0  0  0  0  0  0  0  0  0
   19.0026  -14.3300  -15.1777 O   0  0  0  0  0  0  0  0  0  0  0  0
   19.2104  -10.7436  -17.4115 C   0  0  0  0  0  0  0  0  0  0  0  0
   19.3126  -10.5172  -18.6432 O   0  0  0  0  0  0  0  0  0  0  0  0
   19.6496  -15.5222  -16.9946 O   0  0  0  0  0  0  0  0  0  0  0  0
   17.9587   -7.2564  -16.7111 O   0  0  0  0  0  0  0  0  0  0  0  0
   19.0386   -7.5399  -17.5081 C   0  0  0  0  0  0  0  0  0  0  0  0
   20.0581   -8.4165  -16.8662 C   0  0  2  0  0  0  0  0  0  0  0  0
   19.6194   -9.7249  -16.5191 N   0  0  0  0  0  0  0  0  0  0  0  0
   20.7032   -7.6922  -15.7501 C   0  0  0  0  0  0  0  0  0  0  0  0
   20.2242   -7.8381  -14.6004 O   0  0  0  0  0  0  0  0  0  0  0  0
   21.8290   -6.8416  -15.8966 N   0  0  0  0  0  0  0  0  0  0  0  0
   22.4966   -6.1926  -14.7679 C   0  0  1  0  0  0  0  0  0  0  0  0
   23.9898   -6.3202  -14.8672 C   0  0  0  0  0  0  0  0  0  0  0  0
   24.4449   -5.6783  -16.1128 C   0  0  0  0  0  0  0  0  0  0  0  0
   24.7807   -4.3605  -16.3048 C   0  0  0  0  0  0  0  0  0  0  0  0
   25.1450   -4.1879  -17.5887 N   0  0  0  0  0  0  0  0  0  0  0  0
   25.0561   -5.3725  -18.2526 C   0  0  0  0  0  0  0  0  0  0  0  0
   25.3115   -5.7129  -19.5563 C   0  0  0  0  0  0  0  0  0  0  0  0
   25.1279   -7.0206  -19.9636 C   0  0  0  0  0  0  0  0  0  0  0  0
   24.6944   -7.9632  -19.0676 C   0  0  0  0  0  0  0  0  0  0  0  0
   24.4446   -7.5986  -17.7638 C   0  0  0  0  0  0  0  0  0  0  0  0
   24.6149   -6.3096  -17.3210 C   0  0  0  0  0  0  0  0  0  0  0  0
   22.0476   -4.8021  -14.7018 C   0  0  0  0  0  0  0  0  0  0  0  0
   21.4209   -4.2989  -15.6625 O   0  0  0  0  0  0  0  0  0  0  0  0
   22.3033   -4.0290  -13.5940 O   0  0  0  0  0  0  0  0  0  0  0  0
  2  1  1  6
  3  2  1  0
  4  3  1  0
  5  4  2  0
  6  2  1  0
  6  7  2  0
  8  4  1  0
  9 10  1  0
 11 10  1  1
 11 12  1  0
 11 13  1  0
 12  6  1  0
 13 14  2  0
 13 15  1  0
 15 16  1  0
 16 27  1  0
 16 17  1  6
 18 17  1  0
 19 18  2  0
 20 19  1  0
 21 20  1  0
 21 26  2  0
 22 21  1  0
 23 22  2  0
 23 24  1  0
 24 25  2  0
 25 26  1  0
 26 18  1  0
 27 28  2  0
 27 29  1  0
M  END
$$$$
