DSW.pdb
     RDKit          3D

 29 30  0  0  1  0  0  0  0  0999 V2000
   27.4931  -23.6709  -18.2730 N   0  0  0  0  0  0  0  0  0  0  0  0
   27.1390  -22.9211  -17.1114 C   0  0  1  0  0  0  0  0  0  0  0  0
   27.3850  -21.4414  -17.4207 C   0  0  0  0  0  0  0  0  0  0  0  0
   28.8377  -21.1495  -17.4493 C   0  0  0  0  0  0  0  0  0  0  0  0
   29.6244  -22.1262  -17.3482 O   0  0  0  0  0  0  0  0  0  0  0  0
   25.6720  -23.0192  -16.8028 C   0  0  0  0  0  0  0  0  0  0  0  0
   24.8406  -22.5292  -17.6075 O   0  0  0  0  0  0  0  0  0  0  0  0
   29.3782  -19.8840  -17.5780 O   0  0  0  0  0  0  0  0  0  0  0  0
   23.9383  -25.7004  -13.8001 O   0  0  0  0  0  0  0  0  0  0  0  0
   23.3888  -25.2104  -14.9577 C   0  0  0  0  0  0  0  0  0  0  0  0
   23.8015  -23.8174  -15.2878 C   0  0  2  0  0  0  0  0  0  0  0  0
   25.1700  -23.6433  -15.6366 N   0  0  0  0  0  0  0  0  0  0  0  0
   23.3390  -22.8982  -14.2260 C   0  0  0  0  0  0  0  0  0  0  0  0
   24.0969  -22.7039  -13.2460 O   0  0  0  0  0  0  0  0  0  0  0  0
   22.0919  -22.2223  -14.2440 N   0  0  0  0  0  0  0  0  0  0  0  0
   21.6826  -21.2655  -13.2155 C   0  0  1  0  0  0  0  0  0  0  0  0
   22.6664  -20.1371  -13.0939 C   0  0  0  0  0  0  0  0  0  0  0  0
   22.7813  -19.4580  -14.3963 C   0  0  0  0  0  0  0  0  0  0  0  0
   21.7759  -18.8883  -15.1385 C   0  0  0  0  0  0  0  0  0  0  0  0
   22.3051  -18.3730  -16.2633 N   0  0  0  0  0  0  0  0  0  0  0  0
   23.6481  -18.5920  -16.2790 C   0  0  0  0  0  0  0  0  0  0  0  0
   24.6182  -18.2675  -17.1925 C   0  0  0  0  0  0  0  0  0  0  0  0
   25.9296  -18.6258  -16.9444 C   0  0  0  0  0  0  0  0  0  0  0  0
   26.2504  -19.2991  -15.7942 C   0  0  0  0  0  0  0  0  0  0  0  0
   25.2601  -19.6142  -14.8914 C   0  0  0  0  0  0  0  0  0  0  0  0
   23.9457  -19.2756  -15.1022 C   0  0  0  0  0  0  0  0  0  0  0  0
   20.3274  -20.8084  -13.5215 C   0  0  0  0  0  0  0  0  0  0  0  0
   19.7047  -20.0970  -12.6999 O   0  0  0  0  0  0  0  0  0  0  0  0
   19.7175  -21.1485  -14.7059 O   0  0  0  0  0  0  0  0  0  0  0  0
  2  1  1  6
  3  2  1  0
  4  3  1  0
  5  4  2  0
  6  2  1  0
  6  7  2  0
  8  4  1  0
  9 10  1  0
 11 10  1  1
 11 12  1  0
 11 13  1  0
 12  6  1  0
 13 14  2  0
 13 15  1  0
 15 16  1  0
 16 27  1  0
 16 17  1  6
 18 17  1  0
 19 18  2  0
 20 19  1  0
 21 20  1  0
 21 26  2  0
 22 21  1  0
 23 22  2  0
 23 24  1  0
 24 25  2  0
 25 26  1  0
 26 18  1  0
 27 28  2  0
 27 29  1  0
M  END
$$$$
