DSW.pdb
     RDKit          3D

 29 30  0  0  1  0  0  0  0  0999 V2000
   16.4969  -14.3951   15.7837 N   0  0  0  0  0  0  0  0  0  0  0  0
   16.2109  -15.5465   14.9905 C   0  0  1  0  0  0  0  0  0  0  0  0
   14.9092  -15.2753   14.2302 C   0  0  0  0  0  0  0  0  0  0  0  0
   13.7408  -15.4150   15.1312 C   0  0  0  0  0  0  0  0  0  0  0  0
   13.9736  -15.6364   16.3477 O   0  0  0  0  0  0  0  0  0  0  0  0
   17.2478  -15.7698   13.9266 C   0  0  0  0  0  0  0  0  0  0  0  0
   17.8373  -14.7797   13.4256 O   0  0  0  0  0  0  0  0  0  0  0  0
   12.4237  -15.3191   14.7234 O   0  0  0  0  0  0  0  0  0  0  0  0
   18.3297  -19.7099   12.0606 O   0  0  0  0  0  0  0  0  0  0  0  0
   19.1643  -18.7369   12.5490 C   0  0  0  0  0  0  0  0  0  0  0  0
   18.5995  -17.3596   12.4856 C   0  0  2  0  0  0  0  0  0  0  0  0
   17.6006  -17.0550   13.4521 N   0  0  0  0  0  0  0  0  0  0  0  0
   18.1939  -17.0532   11.0971 C   0  0  0  0  0  0  0  0  0  0  0  0
   16.9768  -16.8523   10.8715 O   0  0  0  0  0  0  0  0  0  0  0  0
   19.0934  -16.9727   10.0031 N   0  0  0  0  0  0  0  0  0  0  0  0
   18.6753  -16.6269    8.6442 C   0  0  1  0  0  0  0  0  0  0  0  0
   18.0044  -15.2838    8.6021 C   0  0  0  0  0  0  0  0  0  0  0  0
   17.8230  -14.8816    7.1964 C   0  0  0  0  0  0  0  0  0  0  0  0
   16.9453  -15.4054    6.2792 C   0  0  0  0  0  0  0  0  0  0  0  0
   17.0978  -14.7545    5.1113 N   0  0  0  0  0  0  0  0  0  0  0  0
   18.0646  -13.8053    5.2396 C   0  0  0  0  0  0  0  0  0  0  0  0
   18.5806  -12.8979    4.3502 C   0  0  0  0  0  0  0  0  0  0  0  0
   19.5805  -12.0380    4.7629 C   0  0  0  0  0  0  0  0  0  0  0  0
   20.0472  -12.0971    6.0505 C   0  0  0  0  0  0  0  0  0  0  0  0
   19.5141  -13.0159    6.9260 C   0  0  0  0  0  0  0  0  0  0  0  0
   18.5198  -13.8873    6.5537 C   0  0  0  0  0  0  0  0  0  0  0  0
   19.8422  -16.7078    7.7662 C   0  0  0  0  0  0  0  0  0  0  0  0
   20.9730  -16.3803    8.1937 O   0  0  0  0  0  0  0  0  0  0  0  0
   19.7202  -17.1408    6.4669 O   0  0  0  0  0  0  0  0  0  0  0  0
  2  1  1  6
  3  2  1  0
  4  3  1  0
  5  4  2  0
  6  2  1  0
  6  7  2  0
  8  4  1  0
  9 10  1  0
 11 10  1  6
 11 12  1  0
 11 13  1  0
 12  6  1  0
 13 14  2  0
 13 15  1  0
 15 16  1  0
 16 27  1  0
 16 17  1  1
 18 17  1  0
 19 18  2  0
 20 19  1  0
 21 20  1  0
 21 26  2  0
 22 21  1  0
 23 22  2  0
 23 24  1  0
 24 25  2  0
 25 26  1  0
 26 18  1  0
 27 28  2  0
 27 29  1  0
M  END
$$$$
