DSW.pdb
     RDKit          3D

 29 30  0  0  1  0  0  0  0  0999 V2000
   26.6257  -21.6876  -18.3453 N   0  0  0  0  0  0  0  0  0  0  0  0
   26.1679  -22.1447  -17.0732 C   0  0  1  0  0  0  0  0  0  0  0  0
   26.4006  -23.6573  -17.0117 C   0  0  0  0  0  0  0  0  0  0  0  0
   25.4481  -24.3675  -17.8976 C   0  0  0  0  0  0  0  0  0  0  0  0
   24.2307  -24.0672  -17.7944 O   0  0  0  0  0  0  0  0  0  0  0  0
   26.9800  -21.5763  -15.9443 C   0  0  0  0  0  0  0  0  0  0  0  0
   28.2279  -21.4940  -16.0656 O   0  0  0  0  0  0  0  0  0  0  0  0
   25.8091  -25.3303  -18.8211 O   0  0  0  0  0  0  0  0  0  0  0  0
   25.9954  -18.3378  -13.9546 O   0  0  0  0  0  0  0  0  0  0  0  0
   27.1943  -18.9836  -13.7888 C   0  0  0  0  0  0  0  0  0  0  0  0
   27.0788  -20.4641  -13.6674 C   0  0  2  0  0  0  0  0  0  0  0  0
   26.4051  -21.1221  -14.7341 N   0  0  0  0  0  0  0  0  0  0  0  0
   26.5535  -20.8126  -12.3299 C   0  0  0  0  0  0  0  0  0  0  0  0
   25.3407  -21.1173  -12.2363 O   0  0  0  0  0  0  0  0  0  0  0  0
   27.3335  -20.8238  -11.1450 N   0  0  0  0  0  0  0  0  0  0  0  0
   26.7645  -21.0214   -9.8116 C   0  0  1  0  0  0  0  0  0  0  0  0
   27.8348  -21.0550   -8.7584 C   0  0  0  0  0  0  0  0  0  0  0  0
   27.2149  -20.8523   -7.4373 C   0  0  0  0  0  0  0  0  0  0  0  0
   25.9756  -21.2695   -7.0177 C   0  0  0  0  0  0  0  0  0  0  0  0
   25.7960  -20.8822   -5.7416 N   0  0  0  0  0  0  0  0  0  0  0  0
   26.8986  -20.2134   -5.3071 C   0  0  0  0  0  0  0  0  0  0  0  0
   27.1999  -19.6285   -4.1038 C   0  0  0  0  0  0  0  0  0  0  0  0
   28.4211  -19.0025   -3.9415 C   0  0  0  0  0  0  0  0  0  0  0  0
   29.3179  -18.9703   -4.9777 C   0  0  0  0  0  0  0  0  0  0  0  0
   28.9942  -19.5643   -6.1767 C   0  0  0  0  0  0  0  0  0  0  0  0
   27.7909  -20.1958   -6.3768 C   0  0  0  0  0  0  0  0  0  0  0  0
   25.7661  -19.9790   -9.5751 C   0  0  0  0  0  0  0  0  0  0  0  0
   26.0732  -18.7728   -9.7150 O   0  0  0  0  0  0  0  0  0  0  0  0
   24.4838  -20.3014   -9.1980 O   0  0  0  0  0  0  0  0  0  0  0  0
  2  1  1  6
  3  2  1  0
  4  3  1  0
  5  4  2  0
  6  2  1  0
  6  7  2  0
  8  4  1  0
  9 10  1  0
 11 10  1  6
 11 12  1  0
 11 13  1  0
 12  6  1  0
 13 14  2  0
 13 15  1  0
 15 16  1  0
 16 27  1  0
 16 17  1  1
 18 17  1  0
 19 18  2  0
 20 19  1  0
 21 20  1  0
 21 26  2  0
 22 21  1  0
 23 22  2  0
 23 24  1  0
 24 25  2  0
 25 26  1  0
 26 18  1  0
 27 28  2  0
 27 29  1  0
M  END
$$$$
