RRM.pdb
     RDKit          3D

 31 30  0  0  1  0  0  0  0  0999 V2000
   19.8656  -22.6492   -7.0719 N   0  0  0  0  0  0  0  0  0  0  0  0
   19.4021  -21.8458   -8.1460 C   0  0  0  0  0  0  0  0  0  0  0  0
   18.1426  -21.5967   -8.3314 N   0  0  0  0  0  0  0  0  0  0  0  0
   20.3104  -21.2566   -9.0981 N   0  0  0  0  0  0  0  0  0  0  0  0
   21.7353  -21.5419   -9.0344 C   0  0  0  0  0  0  0  0  0  0  0  0
   22.4653  -20.2562   -8.7487 C   0  0  0  0  0  0  0  0  0  0  0  0
   23.5034  -19.9013   -9.7623 C   0  0  0  0  0  0  0  0  0  0  0  0
   24.4407  -21.0194  -10.1214 C   0  0  2  0  0  0  0  0  0  0  0  0
   25.1808  -21.5070   -8.9948 N   0  0  0  0  0  0  0  0  0  0  0  0
   25.3505  -20.6686  -11.2317 C   0  0  0  0  0  0  0  0  0  0  0  0
   26.4264  -20.0251  -11.0475 O   0  0  0  0  0  0  0  0  0  0  0  0
   17.8341  -21.0599   -9.1833 N   0  0  0  0  0  0  0  0  0  0  0  0
   27.5304  -24.6379  -18.9346 C   0  0  0  0  0  0  0  0  0  0  0  0
   28.4246  -23.5849  -18.6122 N   0  0  0  0  0  0  0  0  0  0  0  0
   29.5490  -23.4712  -19.2201 N   0  0  0  0  0  0  0  0  0  0  0  0
   28.0961  -22.6284  -17.6085 C   0  0  0  0  0  0  0  0  0  0  0  0
   26.8695  -22.6597  -16.8604 C   0  0  0  0  0  0  0  0  0  0  0  0
   26.9318  -21.5401  -15.8297 C   0  0  0  0  0  0  0  0  0  0  0  0
   26.0534  -21.8222  -14.6582 C   0  0  1  0  0  0  0  0  0  0  0  0
   25.9882  -20.6938  -13.6554 N   0  0  0  0  0  0  0  0  0  0  0  0
   25.0658  -21.0374  -12.5742 C   0  0  0  0  0  0  0  0  0  0  0  0
   25.4862  -19.4829  -14.3426 O   0  0  0  0  0  0  0  0  0  0  0  0
   24.2517  -19.2596  -14.4266 C   0  0  0  0  0  0  0  0  0  0  0  0
   30.2501  -22.7575  -19.0064 S   0  0  0  0  0  0  0  0  0  0  0  0
   28.8139  -14.2171  -15.7400 C   0  0  0  0  0  0  0  0  0  0  0  0
   27.4800  -13.9003  -16.9241 C   0  0  0  0  0  0  0  0  0  0  0  0
   26.1670  -15.1837  -16.6714 C   0  0  1  0  0  0  0  0  0  0  0  0
   26.7749  -16.3752  -16.0009 N   0  0  0  0  0  0  0  0  0  0  0  0
   25.7624  -17.3909  -15.6311 C   0  0  0  0  0  0  0  0  0  0  0  0
   26.3462  -18.5236  -14.9330 O   0  0  0  0  0  0  0  0  0  0  0  0
   25.0761  -17.9252  -16.8042 O   0  0  0  0  0  0  0  0  0  0  0  0
  2  3  2  0
  2  1  1  0
  4  2  1  0
  5  4  1  0
  6  5  1  0
  7  6  1  0
  8 10  1  0
  8  9  1  1
  8  7  1  0
 10 11  2  0
 13 12  1  0
 14 13  2  0
 15 16  1  0
 15 13  1  0
 17 18  1  0
 17 16  1  0
 19 18  1  1
 19 21  1  0
 20 19  1  0
 20 10  1  0
 21 22  2  0
 21 28  1  0
 23 24  1  0
 24 25  1  0
 25 26  1  0
 27 26  1  6
 27 29  1  0
 28 27  1  0
 29 31  2  0
 29 30  1  0
M  END
$$$$
