RRM.pdb
     RDKit          3D

 31 30  0  0  1  0  0  0  0  0999 V2000
   11.8413  -22.7420    0.7177 N   0  0  0  0  0  0  0  0  0  0  0  0
   12.3573  -22.7978   -0.6031 C   0  0  0  0  0  0  0  0  0  0  0  0
   11.5947  -22.7119   -1.6490 N   0  0  0  0  0  0  0  0  0  0  0  0
   13.7675  -22.9538   -0.8595 N   0  0  0  0  0  0  0  0  0  0  0  0
   14.7502  -22.4886    0.1068 C   0  0  0  0  0  0  0  0  0  0  0  0
   14.9756  -21.0164   -0.1154 C   0  0  0  0  0  0  0  0  0  0  0  0
   16.0414  -20.4217    0.7456 C   0  0  0  0  0  0  0  0  0  0  0  0
   15.6464  -20.2089    2.1796 C   0  0  2  0  0  0  0  0  0  0  0  0
   14.4112  -19.4943    2.3151 N   0  0  0  0  0  0  0  0  0  0  0  0
   16.7118  -19.5664    2.9770 C   0  0  0  0  0  0  0  0  0  0  0  0
   17.8855  -20.0391    3.0437 O   0  0  0  0  0  0  0  0  0  0  0  0
   12.0225  -22.7113   -2.6113 N   0  0  0  0  0  0  0  0  0  0  0  0
   19.9357  -12.5961    6.2747 C   0  0  0  0  0  0  0  0  0  0  0  0
   18.9219  -12.5297    5.2848 N   0  0  0  0  0  0  0  0  0  0  0  0
   18.9916  -11.6728    4.3320 N   0  0  0  0  0  0  0  0  0  0  0  0
   17.8039  -13.4124    5.3229 C   0  0  0  0  0  0  0  0  0  0  0  0
   17.5955  -14.3765    6.3680 C   0  0  0  0  0  0  0  0  0  0  0  0
   18.1081  -15.7189    5.8631 C   0  0  0  0  0  0  0  0  0  0  0  0
   17.0792  -16.4297    5.0509 C   0  0  2  0  0  0  0  0  0  0  0  0
   17.5447  -17.7563    4.4971 N   0  0  0  0  0  0  0  0  0  0  0  0
   16.4754  -18.3758    3.7157 C   0  0  0  0  0  0  0  0  0  0  0  0
   17.8827  -18.6460    5.6306 O   0  0  0  0  0  0  0  0  0  0  0  0
   16.9760  -19.1582    6.3352 C   0  0  0  0  0  0  0  0  0  0  0  0
   18.2909  -11.5741    3.5931 S   0  0  0  0  0  0  0  0  0  0  0  0
   21.4144  -24.5709    8.8904 C   0  0  0  0  0  0  0  0  0  0  0  0
   21.2396  -23.4870    7.4494 C   0  0  0  0  0  0  0  0  0  0  0  0
   20.3259  -21.9643    7.9801 C   0  0  2  0  0  0  0  0  0  0  0  0
   20.1765  -21.0525    6.8033 N   0  0  0  0  0  0  0  0  0  0  0  0
   19.4562  -19.8045    7.1456 C   0  0  0  0  0  0  0  0  0  0  0  0
   19.2174  -18.9679    5.9818 O   0  0  0  0  0  0  0  0  0  0  0  0
   20.2019  -18.9930    8.1038 O   0  0  0  0  0  0  0  0  0  0  0  0
  2  3  2  0
  2  1  1  0
  4  2  1  0
  5  4  1  0
  6  5  1  0
  7  6  1  0
  8 10  1  0
  8  9  1  6
  8  7  1  0
 10 11  2  0
 13 12  1  0
 14 13  2  0
 15 16  1  0
 15 13  1  0
 17 18  1  0
 17 16  1  0
 19 18  1  6
 19 21  1  0
 20 19  1  0
 20 10  1  0
 21 22  2  0
 21 28  1  0
 23 24  1  0
 24 25  1  0
 25 26  1  0
 27 26  1  1
 27 29  1  0
 28 27  1  0
 29 31  2  0
 29 30  1  0
M  END
$$$$
