RRM.pdb
     RDKit          3D

 31 30  0  0  1  0  0  0  0  0999 V2000
   19.0212  -21.2810  -16.1737 N   0  0  0  0  0  0  0  0  0  0  0  0
   18.8966  -21.5127  -14.7792 C   0  0  0  0  0  0  0  0  0  0  0  0
   17.7951  -21.9397  -14.2435 N   0  0  0  0  0  0  0  0  0  0  0  0
   19.9945  -21.2857  -13.8725 N   0  0  0  0  0  0  0  0  0  0  0  0
   21.3292  -21.7671  -14.1930 C   0  0  0  0  0  0  0  0  0  0  0  0
   22.1042  -20.6379  -14.8191 C   0  0  0  0  0  0  0  0  0  0  0  0
   23.4125  -20.3507  -14.1581 C   0  0  0  0  0  0  0  0  0  0  0  0
   24.5714  -21.1512  -14.6816 C   0  0  2  0  0  0  0  0  0  0  0  0
   24.1602  -22.2515  -15.5031 N   0  0  0  0  0  0  0  0  0  0  0  0
   25.4799  -21.6101  -13.6103 C   0  0  0  0  0  0  0  0  0  0  0  0
   25.3196  -22.7173  -13.0153 O   0  0  0  0  0  0  0  0  0  0  0  0
   17.7502  -22.1157  -13.2061 N   0  0  0  0  0  0  0  0  0  0  0  0
   32.7062  -23.2952  -11.8505 C   0  0  0  0  0  0  0  0  0  0  0  0
   32.6776  -22.5121  -10.6680 N   0  0  0  0  0  0  0  0  0  0  0  0
   33.1052  -22.9890   -9.5560 N   0  0  0  0  0  0  0  0  0  0  0  0
   32.1759  -21.1786  -10.6862 C   0  0  0  0  0  0  0  0  0  0  0  0
   31.2792  -20.6869  -11.6959 C   0  0  0  0  0  0  0  0  0  0  0  0
   29.8904  -21.2253  -11.3781 C   0  0  0  0  0  0  0  0  0  0  0  0
   28.8711  -20.7192  -12.3416 C   0  0  2  0  0  0  0  0  0  0  0  0
   27.4975  -21.3197  -12.1522 N   0  0  0  0  0  0  0  0  0  0  0  0
   26.5894  -20.8292  -13.1879 C   0  0  0  0  0  0  0  0  0  0  0  0
   26.9807  -20.9025  -10.8296 O   0  0  0  0  0  0  0  0  0  0  0  0
   26.2229  -19.9048  -10.7237 C   0  0  0  0  0  0  0  0  0  0  0  0
   33.1245  -22.4689   -8.6752 S   0  0  0  0  0  0  0  0  0  0  0  0
   29.6384  -19.6541   -5.6032 C   0  0  0  0  0  0  0  0  0  0  0  0
   27.9528  -19.2788   -5.0561 C   0  0  0  0  0  0  0  0  0  0  0  0
   26.7715  -20.1570   -6.1823 C   0  0  2  0  0  0  0  0  0  0  0  0
   27.4842  -20.5188   -7.4472 N   0  0  0  0  0  0  0  0  0  0  0  0
   26.6046  -21.2247   -8.4072 C   0  0  0  0  0  0  0  0  0  0  0  0
   27.3003  -21.5867   -9.6303 O   0  0  0  0  0  0  0  0  0  0  0  0
   25.4604  -20.4057   -8.7982 O   0  0  0  0  0  0  0  0  0  0  0  0
  2  3  2  0
  2  1  1  0
  4  2  1  0
  5  4  1  0
  6  5  1  0
  7  6  1  0
  8 10  1  0
  8  9  1  1
  8  7  1  0
 10 11  2  0
 13 12  1  0
 14 13  2  0
 15 16  1  0
 15 13  1  0
 17 18  1  0
 17 16  1  0
 19 18  1  6
 19 21  1  0
 20 19  1  0
 20 10  1  0
 21 22  2  0
 21 28  1  0
 23 24  1  0
 24 25  1  0
 25 26  1  0
 27 26  1  6
 27 29  1  0
 28 27  1  0
 29 31  2  0
 29 30  1  0
M  END
$$$$
