RRM.pdb
     RDKit          3D

 31 30  0  0  1  0  0  0  0  0999 V2000
   24.7630  -26.5479  -15.2854 N   0  0  0  0  0  0  0  0  0  0  0  0
   23.9320  -25.7560  -16.1198 C   0  0  0  0  0  0  0  0  0  0  0  0
   22.6480  -25.9288  -16.1834 N   0  0  0  0  0  0  0  0  0  0  0  0
   24.4710  -24.7072  -16.9495 N   0  0  0  0  0  0  0  0  0  0  0  0
   25.5059  -23.8207  -16.4407 C   0  0  0  0  0  0  0  0  0  0  0  0
   26.8345  -24.2834  -16.9776 C   0  0  0  0  0  0  0  0  0  0  0  0
   27.5576  -23.2607  -17.7913 C   0  0  0  0  0  0  0  0  0  0  0  0
   28.1056  -22.1033  -17.0053 C   0  0  2  0  0  0  0  0  0  0  0  0
   29.0625  -22.5065  -16.0171 N   0  0  0  0  0  0  0  0  0  0  0  0
   27.0457  -21.2720  -16.3974 C   0  0  0  0  0  0  0  0  0  0  0  0
   27.0069  -21.0273  -15.1547 O   0  0  0  0  0  0  0  0  0  0  0  0
   22.0684  -25.3243  -16.8220 N   0  0  0  0  0  0  0  0  0  0  0  0
   20.0544  -17.9917  -16.6953 C   0  0  0  0  0  0  0  0  0  0  0  0
   20.4566  -16.6688  -17.0119 N   0  0  0  0  0  0  0  0  0  0  0  0
   19.7521  -15.6629  -16.6392 N   0  0  0  0  0  0  0  0  0  0  0  0
   21.6515  -16.4246  -17.7488 C   0  0  0  0  0  0  0  0  0  0  0  0
   22.4606  -17.4718  -18.3090 C   0  0  0  0  0  0  0  0  0  0  0  0
   23.2720  -18.0821  -17.1737 C   0  0  0  0  0  0  0  0  0  0  0  0
   24.2021  -19.1373  -17.6685 C   0  0  2  0  0  0  0  0  0  0  0  0
   25.0643  -19.7495  -16.5892 N   0  0  0  0  0  0  0  0  0  0  0  0
   26.0072  -20.6983  -17.1794 C   0  0  0  0  0  0  0  0  0  0  0  0
   24.1877  -20.4756  -15.6431 O   0  0  0  0  0  0  0  0  0  0  0  0
   24.0084  -21.7148  -15.7584 C   0  0  0  0  0  0  0  0  0  0  0  0
   19.9723  -14.6897  -16.8650 S   0  0  0  0  0  0  0  0  0  0  0  0
   26.8992  -20.6295  -10.6349 C   0  0  0  0  0  0  0  0  0  0  0  0
   25.2955  -20.6265   -9.7923 C   0  0  0  0  0  0  0  0  0  0  0  0
   23.9887  -21.0477  -11.0373 C   0  0  2  0  0  0  0  0  0  0  0  0
   24.2719  -20.3095  -12.3076 N   0  0  0  0  0  0  0  0  0  0  0  0
   23.2593  -20.5799  -13.3540 C   0  0  0  0  0  0  0  0  0  0  0  0
   23.5137  -19.8337  -14.5745 O   0  0  0  0  0  0  0  0  0  0  0  0
   21.9139  -20.2222  -12.9124 O   0  0  0  0  0  0  0  0  0  0  0  0
  2  3  2  0
  2  1  1  0
  4  2  1  0
  5  4  1  0
  6  5  1  0
  7  6  1  0
  8 10  1  0
  8  9  1  1
  8  7  1  0
 10 11  2  0
 13 12  1  0
 14 13  2  0
 15 16  1  0
 15 13  1  0
 17 18  1  0
 17 16  1  0
 19 18  1  6
 19 21  1  0
 20 19  1  0
 20 10  1  0
 21 22  2  0
 21 28  1  0
 23 24  1  0
 24 25  1  0
 25 26  1  0
 27 26  1  1
 27 29  1  0
 28 27  1  0
 29 31  2  0
 29 30  1  0
M  END
$$$$
