RRM.pdb
     RDKit          3D

 31 30  0  0  1  0  0  0  0  0999 V2000
   32.7003  -26.0634  -18.8938 N   0  0  0  0  0  0  0  0  0  0  0  0
   32.8006  -26.3116  -17.5002 C   0  0  0  0  0  0  0  0  0  0  0  0
   33.6111  -27.1984  -17.0109 N   0  0  0  0  0  0  0  0  0  0  0  0
   32.0024  -25.5874  -16.5424 N   0  0  0  0  0  0  0  0  0  0  0  0
   30.8613  -24.7975  -16.9781 C   0  0  0  0  0  0  0  0  0  0  0  0
   30.1710  -24.2465  -15.7585 C   0  0  0  0  0  0  0  0  0  0  0  0
   29.8468  -22.7908  -15.8418 C   0  0  0  0  0  0  0  0  0  0  0  0
   28.5139  -22.4771  -16.4603 C   0  0  2  0  0  0  0  0  0  0  0  0
   28.6118  -22.1423  -17.8506 N   0  0  0  0  0  0  0  0  0  0  0  0
   27.7726  -21.4330  -15.7225 C   0  0  0  0  0  0  0  0  0  0  0  0
   27.9582  -20.1969  -15.9302 O   0  0  0  0  0  0  0  0  0  0  0  0
   33.5960  -27.4103  -15.9794 N   0  0  0  0  0  0  0  0  0  0  0  0
   20.0773  -20.5818  -13.1712 C   0  0  0  0  0  0  0  0  0  0  0  0
   20.8394  -19.5748  -13.8174 N   0  0  0  0  0  0  0  0  0  0  0  0
   20.5115  -18.3383  -13.7154 N   0  0  0  0  0  0  0  0  0  0  0  0
   21.9866  -19.9108  -14.5928 C   0  0  0  0  0  0  0  0  0  0  0  0
   22.3729  -21.2640  -14.8844 C   0  0  0  0  0  0  0  0  0  0  0  0
   23.7172  -21.5124  -14.2130 C   0  0  0  0  0  0  0  0  0  0  0  0
   24.7289  -20.4936  -14.6152 C   0  0  1  0  0  0  0  0  0  0  0  0
   26.0944  -20.7123  -14.0063 N   0  0  0  0  0  0  0  0  0  0  0  0
   26.8053  -21.7619  -14.7349 C   0  0  0  0  0  0  0  0  0  0  0  0
   25.9188  -21.1436  -12.6014 O   0  0  0  0  0  0  0  0  0  0  0  0
   25.4671  -22.2860  -12.3339 C   0  0  0  0  0  0  0  0  0  0  0  0
   21.0183  -17.5690  -14.1603 S   0  0  0  0  0  0  0  0  0  0  0  0
   29.1472  -20.1468   -6.9364 C   0  0  0  0  0  0  0  0  0  0  0  0
   27.4650  -19.6010   -6.5440 C   0  0  0  0  0  0  0  0  0  0  0  0
   26.3007  -20.4207   -7.7306 C   0  0  1  0  0  0  0  0  0  0  0  0
   26.6068  -19.9475   -9.1166 N   0  0  0  0  0  0  0  0  0  0  0  0
   25.9812  -20.7998  -10.1537 C   0  0  0  0  0  0  0  0  0  0  0  0
   26.2423  -20.3148  -11.4982 O   0  0  0  0  0  0  0  0  0  0  0  0
   24.5301  -20.8629  -10.0014 O   0  0  0  0  0  0  0  0  0  0  0  0
  2  3  2  0
  2  1  1  0
  4  2  1  0
  5  4  1  0
  6  5  1  0
  7  6  1  0
  8 10  1  0
  8  9  1  6
  8  7  1  0
 10 11  2  0
 13 12  1  0
 14 13  2  0
 15 16  1  0
 15 13  1  0
 17 18  1  0
 17 16  1  0
 19 18  1  6
 19 21  1  0
 20 19  1  0
 20 10  1  0
 21 22  2  0
 21 28  1  0
 23 24  1  0
 24 25  1  0
 25 26  1  0
 27 26  1  1
 27 29  1  0
 28 27  1  0
 29 31  2  0
 29 30  1  0
M  END
$$$$
