RRM.pdb
     RDKit          3D

 31 30  0  0  1  0  0  0  0  0999 V2000
   13.7249  -12.9494  -12.4399 N   0  0  0  0  0  0  0  0  0  0  0  0
   12.6442  -12.8416  -11.5266 C   0  0  0  0  0  0  0  0  0  0  0  0
   12.1753  -13.8662  -10.8839 N   0  0  0  0  0  0  0  0  0  0  0  0
   12.0018  -11.5789  -11.2589 N   0  0  0  0  0  0  0  0  0  0  0  0
   12.7829  -10.3542  -11.1808 C   0  0  0  0  0  0  0  0  0  0  0  0
   13.2742  -10.1930   -9.7666 C   0  0  0  0  0  0  0  0  0  0  0  0
   14.1359   -8.9925   -9.5492 C   0  0  0  0  0  0  0  0  0  0  0  0
   15.4580   -9.0292  -10.2623 C   0  0  2  0  0  0  0  0  0  0  0  0
   16.2315  -10.1918   -9.9385 N   0  0  0  0  0  0  0  0  0  0  0  0
   16.2522   -7.7999  -10.0580 C   0  0  0  0  0  0  0  0  0  0  0  0
   16.8208   -7.5368   -8.9566 O   0  0  0  0  0  0  0  0  0  0  0  0
   11.3819  -13.7400  -10.2030 N   0  0  0  0  0  0  0  0  0  0  0  0
   21.7010   -8.8509  -11.5542 C   0  0  0  0  0  0  0  0  0  0  0  0
   21.1885   -8.2113  -12.7120 N   0  0  0  0  0  0  0  0  0  0  0  0
   21.2527   -8.7832  -13.8590 N   0  0  0  0  0  0  0  0  0  0  0  0
   20.5896   -6.9210  -12.6297 C   0  0  0  0  0  0  0  0  0  0  0  0
   19.1984   -6.7146  -12.3341 C   0  0  0  0  0  0  0  0  0  0  0  0
   18.9451   -5.2128  -12.3433 C   0  0  0  0  0  0  0  0  0  0  0  0
   17.5138   -4.8954  -12.0712 C   0  0  2  0  0  0  0  0  0  0  0  0
   16.9778   -5.5199  -10.8040 N   0  0  0  0  0  0  0  0  0  0  0  0
   16.4224   -6.8413  -11.0930 C   0  0  0  0  0  0  0  0  0  0  0  0
   15.8993   -4.6559  -10.2742 O   0  0  0  0  0  0  0  0  0  0  0  0
   14.7787   -4.6089  -10.8425 C   0  0  0  0  0  0  0  0  0  0  0  0
   20.9208   -8.3642  -14.7313 S   0  0  0  0  0  0  0  0  0  0  0  0
   12.3544   -1.2077   -4.2417 C   0  0  0  0  0  0  0  0  0  0  0  0
   13.5084   -2.4593   -4.8609 C   0  0  0  0  0  0  0  0  0  0  0  0
   13.7127   -2.2038   -6.6852 C   0  0  2  0  0  0  0  0  0  0  0  0
   14.6866   -3.2108   -7.2107 N   0  0  0  0  0  0  0  0  0  0  0  0
   14.9383   -3.0473   -8.6610 C   0  0  0  0  0  0  0  0  0  0  0  0
   16.0599   -3.8485   -9.1205 O   0  0  0  0  0  0  0  0  0  0  0  0
   15.2396   -1.6607   -9.0066 O   0  0  0  0  0  0  0  0  0  0  0  0
  2  3  2  0
  2  1  1  0
  4  2  1  0
  5  4  1  0
  6  5  1  0
  7  6  1  0
  8 10  1  0
  8  9  1  1
  8  7  1  0
 10 11  2  0
 13 12  1  0
 14 13  2  0
 15 16  1  0
 15 13  1  0
 17 18  1  0
 17 16  1  0
 19 18  1  1
 19 21  1  0
 20 19  1  0
 20 10  1  0
 21 22  2  0
 21 28  1  0
 23 24  1  0
 24 25  1  0
 25 26  1  0
 27 26  1  1
 27 29  1  0
 28 27  1  0
 29 31  2  0
 29 30  1  0
M  END
$$$$
