RRM.pdb
     RDKit          3D

 31 30  0  0  1  0  0  0  0  0999 V2000
   28.2133  -24.3111  -17.3439 N   0  0  0  0  0  0  0  0  0  0  0  0
   28.6469  -24.8261  -18.5931 C   0  0  0  0  0  0  0  0  0  0  0  0
   28.9215  -26.0819  -18.7670 N   0  0  0  0  0  0  0  0  0  0  0  0
   28.8075  -23.9777  -19.7477 N   0  0  0  0  0  0  0  0  0  0  0  0
   28.1939  -22.6594  -19.7871 C   0  0  0  0  0  0  0  0  0  0  0  0
   28.2426  -22.0708  -18.4019 C   0  0  0  0  0  0  0  0  0  0  0  0
   26.9565  -22.1670  -17.6485 C   0  0  0  0  0  0  0  0  0  0  0  0
   26.5400  -20.9035  -16.9501 C   0  0  2  0  0  0  0  0  0  0  0  0
   27.6522  -20.1647  -16.4287 N   0  0  0  0  0  0  0  0  0  0  0  0
   25.5294  -21.1382  -15.8978 C   0  0  0  0  0  0  0  0  0  0  0  0
   24.4678  -21.7954  -16.1137 O   0  0  0  0  0  0  0  0  0  0  0  0
   29.3026  -26.4123  -19.6915 N   0  0  0  0  0  0  0  0  0  0  0  0
   22.3836  -19.4972   -9.1579 C   0  0  0  0  0  0  0  0  0  0  0  0
   22.7873  -20.6598   -8.4526 N   0  0  0  0  0  0  0  0  0  0  0  0
   22.0293  -21.1788   -7.5566 N   0  0  0  0  0  0  0  0  0  0  0  0
   24.0416  -21.2797   -8.7222 C   0  0  0  0  0  0  0  0  0  0  0  0
   24.9645  -20.7952   -9.7115 C   0  0  0  0  0  0  0  0  0  0  0  0
   24.3047  -20.9595  -11.0744 C   0  0  0  0  0  0  0  0  0  0  0  0
   25.2493  -20.6433  -12.1839 C   0  0  2  0  0  0  0  0  0  0  0  0
   24.6664  -20.8499  -13.5626 N   0  0  0  0  0  0  0  0  0  0  0  0
   25.6958  -20.6367  -14.5787 C   0  0  0  0  0  0  0  0  0  0  0  0
   23.5834  -19.8622  -13.7676 O   0  0  0  0  0  0  0  0  0  0  0  0
   23.8429  -18.6346  -13.8480 C   0  0  0  0  0  0  0  0  0  0  0  0
   22.2657  -22.0137   -7.0146 S   0  0  0  0  0  0  0  0  0  0  0  0
   23.2065  -16.8778  -17.8814 C   0  0  0  0  0  0  0  0  0  0  0  0
   21.5197  -17.4631  -18.1878 C   0  0  0  0  0  0  0  0  0  0  0  0
   20.7944  -18.0056  -16.5708 C   0  0  1  0  0  0  0  0  0  0  0  0
   21.7811  -18.8816  -15.8653 N   0  0  0  0  0  0  0  0  0  0  0  0
   21.2970  -19.3176  -14.5352 C   0  0  0  0  0  0  0  0  0  0  0  0
   22.2201  -20.2314  -13.8841 O   0  0  0  0  0  0  0  0  0  0  0  0
   20.0123  -20.0064  -14.6243 O   0  0  0  0  0  0  0  0  0  0  0  0
  2  3  2  0
  2  1  1  0
  4  2  1  0
  5  4  1  0
  6  5  1  0
  7  6  1  0
  8 10  1  0
  8  9  1  1
  8  7  1  0
 10 11  2  0
 13 12  1  0
 14 13  2  0
 15 16  1  0
 15 13  1  0
 17 18  1  0
 17 16  1  0
 19 18  1  1
 19 21  1  0
 20 19  1  0
 20 10  1  0
 21 22  2  0
 21 28  1  0
 23 24  1  0
 24 25  1  0
 25 26  1  0
 27 26  1  6
 27 29  1  0
 28 27  1  0
 29 31  2  0
 29 30  1  0
M  END
$$$$
