RRM.pdb
     RDKit          3D

 31 30  0  0  1  0  0  0  0  0999 V2000
   30.6244  -22.5855  -17.9892 N   0  0  0  0  0  0  0  0  0  0  0  0
   29.5432  -22.3556  -18.8792 C   0  0  0  0  0  0  0  0  0  0  0  0
   29.4734  -22.9202  -20.0450 N   0  0  0  0  0  0  0  0  0  0  0  0
   28.4535  -21.4760  -18.5361 N   0  0  0  0  0  0  0  0  0  0  0  0
   28.0344  -21.3241  -17.1515 C   0  0  0  0  0  0  0  0  0  0  0  0
   27.8529  -22.6954  -16.5565 C   0  0  0  0  0  0  0  0  0  0  0  0
   27.3757  -22.6922  -15.1411 C   0  0  0  0  0  0  0  0  0  0  0  0
   26.0215  -23.3089  -14.9320 C   0  0  2  0  0  0  0  0  0  0  0  0
   25.8677  -24.5572  -15.6196 N   0  0  0  0  0  0  0  0  0  0  0  0
   24.9157  -22.3879  -15.2677 C   0  0  0  0  0  0  0  0  0  0  0  0
   24.5877  -22.1323  -16.4647 O   0  0  0  0  0  0  0  0  0  0  0  0
   28.6236  -22.7725  -20.6492 N   0  0  0  0  0  0  0  0  0  0  0  0
   17.4415  -23.7701  -13.7139 C   0  0  0  0  0  0  0  0  0  0  0  0
   17.8750  -22.5349  -13.1675 N   0  0  0  0  0  0  0  0  0  0  0  0
   17.2522  -22.0002  -12.1810 N   0  0  0  0  0  0  0  0  0  0  0  0
   19.0116  -21.8593  -13.6986 C   0  0  0  0  0  0  0  0  0  0  0  0
   19.4808  -20.5948  -13.2025 C   0  0  0  0  0  0  0  0  0  0  0  0
   20.7016  -20.2034  -14.0247 C   0  0  0  0  0  0  0  0  0  0  0  0
   21.8624  -21.0962  -13.7440 C   0  0  1  0  0  0  0  0  0  0  0  0
   23.0677  -20.8262  -14.6143 N   0  0  0  0  0  0  0  0  0  0  0  0
   24.1557  -21.7361  -14.2594 C   0  0  0  0  0  0  0  0  0  0  0  0
   23.5149  -19.4350  -14.3790 O   0  0  0  0  0  0  0  0  0  0  0  0
   23.9840  -19.0930  -13.2638 C   0  0  0  0  0  0  0  0  0  0  0  0
   17.5152  -21.1122  -11.7464 S   0  0  0  0  0  0  0  0  0  0  0  0
   28.1133  -16.9747  -16.4099 C   0  0  0  0  0  0  0  0  0  0  0  0
   27.5443  -15.3320  -15.9004 C   0  0  0  0  0  0  0  0  0  0  0  0
   25.8037  -15.4898  -15.2836 C   0  0  1  0  0  0  0  0  0  0  0  0
   25.3198  -16.8812  -15.5453 N   0  0  0  0  0  0  0  0  0  0  0  0
   23.9363  -17.0965  -15.0625 C   0  0  0  0  0  0  0  0  0  0  0  0
   23.4439  -18.4277  -15.3734 O   0  0  0  0  0  0  0  0  0  0  0  0
   22.9994  -16.1489  -15.6600 O   0  0  0  0  0  0  0  0  0  0  0  0
  2  3  2  0
  2  1  1  0
  4  2  1  0
  5  4  1  0
  6  5  1  0
  7  6  1  0
  8 10  1  0
  8  9  1  6
  8  7  1  0
 10 11  2  0
 13 12  1  0
 14 13  2  0
 15 16  1  0
 15 13  1  0
 17 18  1  0
 17 16  1  0
 19 18  1  6
 19 21  1  0
 20 19  1  0
 20 10  1  0
 21 22  2  0
 21 28  1  0
 23 24  1  0
 24 25  1  0
 25 26  1  0
 27 26  1  6
 27 29  1  0
 28 27  1  0
 29 31  2  0
 29 30  1  0
M  END
$$$$
