RRM.pdb
     RDKit          3D

 31 30  0  0  1  0  0  0  0  0999 V2000
   27.9760  -17.6604  -20.8340 N   0  0  0  0  0  0  0  0  0  0  0  0
   28.7229  -17.4815  -19.6406 C   0  0  0  0  0  0  0  0  0  0  0  0
   29.3734  -16.3881  -19.3877 N   0  0  0  0  0  0  0  0  0  0  0  0
   28.8013  -18.5114  -18.6346 N   0  0  0  0  0  0  0  0  0  0  0  0
   27.7631  -18.6374  -17.6236 C   0  0  0  0  0  0  0  0  0  0  0  0
   28.3476  -18.2498  -16.2910 C   0  0  0  0  0  0  0  0  0  0  0  0
   28.7062  -19.4074  -15.4179 C   0  0  0  0  0  0  0  0  0  0  0  0
   27.5594  -20.3151  -15.0734 C   0  0  2  0  0  0  0  0  0  0  0  0
   26.6641  -20.5207  -16.1737 N   0  0  0  0  0  0  0  0  0  0  0  0
   26.8194  -19.8714  -13.8737 C   0  0  0  0  0  0  0  0  0  0  0  0
   26.6907  -18.6474  -13.5722 O   0  0  0  0  0  0  0  0  0  0  0  0
   30.1416  -16.3896  -18.6674 N   0  0  0  0  0  0  0  0  0  0  0  0
   18.8249  -21.6954  -12.4724 C   0  0  0  0  0  0  0  0  0  0  0  0
   19.8548  -21.2176  -13.3227 N   0  0  0  0  0  0  0  0  0  0  0  0
   19.6700  -21.1287  -14.5896 N   0  0  0  0  0  0  0  0  0  0  0  0
   21.1172  -20.8238  -12.7920 C   0  0  0  0  0  0  0  0  0  0  0  0
   21.5376  -21.1247  -11.4511 C   0  0  0  0  0  0  0  0  0  0  0  0
   22.8780  -20.4377  -11.2252 C   0  0  0  0  0  0  0  0  0  0  0  0
   23.9056  -20.9040  -12.1998 C   0  0  2  0  0  0  0  0  0  0  0  0
   25.2869  -20.3455  -11.9481 N   0  0  0  0  0  0  0  0  0  0  0  0
   26.2081  -20.8000  -12.9886 C   0  0  0  0  0  0  0  0  0  0  0  0
   25.7641  -20.8445  -10.6390 O   0  0  0  0  0  0  0  0  0  0  0  0
   25.8366  -22.0790  -10.4119 C   0  0  0  0  0  0  0  0  0  0  0  0
   20.3696  -20.7832  -15.2513 S   0  0  0  0  0  0  0  0  0  0  0  0
   29.8655  -18.9480   -5.0789 C   0  0  0  0  0  0  0  0  0  0  0  0
   29.1092  -20.4418   -5.7708 C   0  0  0  0  0  0  0  0  0  0  0  0
   27.2981  -20.1199   -5.9971 C   0  0  1  0  0  0  0  0  0  0  0  0
   27.0714  -19.5603   -7.3661 N   0  0  0  0  0  0  0  0  0  0  0  0
   26.4747  -20.5533   -8.2888 C   0  0  0  0  0  0  0  0  0  0  0  0
   26.1597  -19.9814   -9.5868 O   0  0  0  0  0  0  0  0  0  0  0  0
   25.2323  -21.1087   -7.7587 O   0  0  0  0  0  0  0  0  0  0  0  0
  2  3  2  0
  2  1  1  0
  4  2  1  0
  5  4  1  0
  6  5  1  0
  7  6  1  0
  8 10  1  0
  8  9  1  6
  8  7  1  0
 10 11  2  0
 13 12  1  0
 14 13  2  0
 15 16  1  0
 15 13  1  0
 17 18  1  0
 17 16  1  0
 19 18  1  6
 19 21  1  0
 20 19  1  0
 20 10  1  0
 21 22  2  0
 21 28  1  0
 23 24  1  0
 24 25  1  0
 25 26  1  0
 27 26  1  1
 27 29  1  0
 28 27  1  0
 29 31  2  0
 29 30  1  0
M  END
$$$$
