RRM.pdb
     RDKit          3D

 31 30  0  0  1  0  0  0  0  0999 V2000
   32.0394  -22.0148  -11.7061 N   0  0  0  0  0  0  0  0  0  0  0  0
   31.6925  -21.4461  -10.4531 C   0  0  0  0  0  0  0  0  0  0  0  0
   32.5862  -21.0843   -9.5852 N   0  0  0  0  0  0  0  0  0  0  0  0
   30.3182  -21.2362  -10.0710 N   0  0  0  0  0  0  0  0  0  0  0  0
   29.2352  -21.7388  -10.9018 C   0  0  0  0  0  0  0  0  0  0  0  0
   29.2461  -20.9842  -12.2049 C   0  0  0  0  0  0  0  0  0  0  0  0
   27.8926  -20.7580  -12.7946 C   0  0  0  0  0  0  0  0  0  0  0  0
   27.0412  -21.9909  -12.9079 C   0  0  2  0  0  0  0  0  0  0  0  0
   27.5381  -22.9215  -13.8783 N   0  0  0  0  0  0  0  0  0  0  0  0
   25.6184  -21.6821  -13.1610 C   0  0  0  0  0  0  0  0  0  0  0  0
   25.0686  -21.8963  -14.2823 O   0  0  0  0  0  0  0  0  0  0  0  0
   32.2859  -20.6655   -8.6667 N   0  0  0  0  0  0  0  0  0  0  0  0
   18.9472  -22.7718  -14.0016 C   0  0  0  0  0  0  0  0  0  0  0  0
   18.6077  -21.8425  -12.9851 N   0  0  0  0  0  0  0  0  0  0  0  0
   17.7452  -20.9179  -13.2043 N   0  0  0  0  0  0  0  0  0  0  0  0
   19.2138  -21.9136  -11.6975 C   0  0  0  0  0  0  0  0  0  0  0  0
   20.6320  -22.0338  -11.4988 C   0  0  0  0  0  0  0  0  0  0  0  0
   21.1676  -20.6481  -11.1631 C   0  0  0  0  0  0  0  0  0  0  0  0
   22.6560  -20.6412  -11.0735 C   0  0  2  0  0  0  0  0  0  0  0  0
   23.3499  -20.9604  -12.3773 N   0  0  0  0  0  0  0  0  0  0  0  0
   24.7853  -21.1253  -12.1534 C   0  0  0  0  0  0  0  0  0  0  0  0
   23.1404  -19.8305  -13.3100 O   0  0  0  0  0  0  0  0  0  0  0  0
   23.5747  -18.6833  -13.0340 C   0  0  0  0  0  0  0  0  0  0  0  0
   17.4307  -20.2446  -12.5011 S   0  0  0  0  0  0  0  0  0  0  0  0
   25.3662  -18.0153  -18.9590 C   0  0  0  0  0  0  0  0  0  0  0  0
   23.5818  -18.1500  -19.2409 C   0  0  0  0  0  0  0  0  0  0  0  0
   22.7176  -17.8301  -17.6328 C   0  0  2  0  0  0  0  0  0  0  0  0
   22.9695  -18.9797  -16.7089 N   0  0  0  0  0  0  0  0  0  0  0  0
   22.3024  -18.8055  -15.3981 C   0  0  0  0  0  0  0  0  0  0  0  0
   22.4543  -19.9697  -14.5422 O   0  0  0  0  0  0  0  0  0  0  0  0
   20.8681  -18.5735  -15.5458 O   0  0  0  0  0  0  0  0  0  0  0  0
  2  3  2  0
  2  1  1  0
  4  2  1  0
  5  4  1  0
  6  5  1  0
  7  6  1  0
  8 10  1  0
  8  9  1  6
  8  7  1  0
 10 11  2  0
 13 12  1  0
 14 13  2  0
 15 16  1  0
 15 13  1  0
 17 18  1  0
 17 16  1  0
 19 18  1  1
 19 21  1  0
 20 19  1  0
 20 10  1  0
 21 22  2  0
 21 28  1  0
 23 24  1  0
 24 25  1  0
 25 26  1  0
 27 26  1  6
 27 29  1  0
 28 27  1  0
 29 31  2  0
 29 30  1  0
M  END
$$$$
