RRM.pdb
     RDKit          3D

 31 30  0  0  1  0  0  0  0  0999 V2000
   16.5416  -20.9443  -14.9138 N   0  0  0  0  0  0  0  0  0  0  0  0
   16.7043  -21.2461  -16.2908 C   0  0  0  0  0  0  0  0  0  0  0  0
   15.8134  -20.9305  -17.1792 N   0  0  0  0  0  0  0  0  0  0  0  0
   17.8770  -21.9244  -16.7842 N   0  0  0  0  0  0  0  0  0  0  0  0
   18.9041  -22.3885  -15.8645 C   0  0  0  0  0  0  0  0  0  0  0  0
   19.9622  -23.1088  -16.6577 C   0  0  0  0  0  0  0  0  0  0  0  0
   20.9468  -22.2076  -17.3280 C   0  0  0  0  0  0  0  0  0  0  0  0
   22.0794  -22.9144  -18.0173 C   0  0  2  0  0  0  0  0  0  0  0  0
   21.7934  -23.2151  -19.3894 N   0  0  0  0  0  0  0  0  0  0  0  0
   22.5190  -24.1278  -17.2974 C   0  0  0  0  0  0  0  0  0  0  0  0
   21.7720  -25.1423  -17.1622 O   0  0  0  0  0  0  0  0  0  0  0  0
   15.9390  -21.2357  -18.1794 N   0  0  0  0  0  0  0  0  0  0  0  0
   28.6343  -27.3922  -15.8580 C   0  0  0  0  0  0  0  0  0  0  0  0
   28.1216  -28.4819  -16.6075 N   0  0  0  0  0  0  0  0  0  0  0  0
   28.8508  -29.5090  -16.8531 N   0  0  0  0  0  0  0  0  0  0  0  0
   26.7861  -28.4637  -17.1040 C   0  0  0  0  0  0  0  0  0  0  0  0
   25.8506  -27.4123  -16.8129 C   0  0  0  0  0  0  0  0  0  0  0  0
   26.5341  -26.4406  -15.8598 C   0  0  0  0  0  0  0  0  0  0  0  0
   25.6506  -25.2873  -15.5239 C   0  0  2  0  0  0  0  0  0  0  0  0
   24.2312  -25.4381  -16.0196 N   0  0  0  0  0  0  0  0  0  0  0  0
   23.8118  -24.2223  -16.7151 C   0  0  0  0  0  0  0  0  0  0  0  0
   23.3458  -25.6482  -14.8524 O   0  0  0  0  0  0  0  0  0  0  0  0
   23.0029  -24.6807  -14.1262 C   0  0  0  0  0  0  0  0  0  0  0  0
   28.5350  -30.3276  -17.3791 S   0  0  0  0  0  0  0  0  0  0  0  0
   17.2261  -25.7377  -11.0714 C   0  0  0  0  0  0  0  0  0  0  0  0
   18.3046  -25.4743  -12.5028 C   0  0  0  0  0  0  0  0  0  0  0  0
   19.8166  -26.5242  -12.2873 C   0  0  1  0  0  0  0  0  0  0  0  0
   20.7689  -26.2402  -13.4058 N   0  0  0  0  0  0  0  0  0  0  0  0
   22.0113  -27.0400  -13.3047 C   0  0  0  0  0  0  0  0  0  0  0  0
   22.8417  -26.9225  -14.4912 O   0  0  0  0  0  0  0  0  0  0  0  0
   21.7285  -28.4615  -13.1255 O   0  0  0  0  0  0  0  0  0  0  0  0
  2  3  2  0
  2  1  1  0
  4  2  1  0
  5  4  1  0
  6  5  1  0
  7  6  1  0
  8 10  1  0
  8  9  1  6
  8  7  1  0
 10 11  2  0
 13 12  1  0
 14 13  2  0
 15 16  1  0
 15 13  1  0
 17 18  1  0
 17 16  1  0
 19 18  1  6
 19 21  1  0
 20 19  1  0
 20 10  1  0
 21 22  2  0
 21 28  1  0
 23 24  1  0
 24 25  1  0
 25 26  1  0
 27 26  1  6
 27 29  1  0
 28 27  1  0
 29 31  2  0
 29 30  1  0
M  END
$$$$
