RRM.pdb
     RDKit          3D

 31 30  0  0  1  0  0  0  0  0999 V2000
   23.2918  -14.5434  -19.4342 N   0  0  0  0  0  0  0  0  0  0  0  0
   23.0049  -14.1896  -18.0902 C   0  0  0  0  0  0  0  0  0  0  0  0
   22.4433  -13.0636  -17.7750 N   0  0  0  0  0  0  0  0  0  0  0  0
   23.3230  -15.0673  -16.9914 N   0  0  0  0  0  0  0  0  0  0  0  0
   24.0109  -16.3271  -17.2271 C   0  0  0  0  0  0  0  0  0  0  0  0
   23.0209  -17.4487  -17.0554 C   0  0  0  0  0  0  0  0  0  0  0  0
   23.3883  -18.4348  -15.9954 C   0  0  0  0  0  0  0  0  0  0  0  0
   24.5689  -19.3035  -16.3256 C   0  0  2  0  0  0  0  0  0  0  0  0
   24.3280  -20.1658  -17.4450 N   0  0  0  0  0  0  0  0  0  0  0  0
   25.0516  -20.0785  -15.1636 C   0  0  0  0  0  0  0  0  0  0  0  0
   24.3451  -20.9687  -14.6034 O   0  0  0  0  0  0  0  0  0  0  0  0
   22.2469  -12.8402  -16.7647 N   0  0  0  0  0  0  0  0  0  0  0  0
   33.1133  -21.1738  -10.9640 C   0  0  0  0  0  0  0  0  0  0  0  0
   32.3393  -22.3180  -11.2864 N   0  0  0  0  0  0  0  0  0  0  0  0
   32.8661  -23.4882  -11.2811 N   0  0  0  0  0  0  0  0  0  0  0  0
   30.9598  -22.1966  -11.6220 C   0  0  0  0  0  0  0  0  0  0  0  0
   30.3280  -20.9406  -11.9196 C   0  0  0  0  0  0  0  0  0  0  0  0
   28.8391  -21.2067  -12.0986 C   0  0  0  0  0  0  0  0  0  0  0  0
   28.2869  -20.4722  -13.2728 C   0  0  1  0  0  0  0  0  0  0  0  0
   26.7956  -20.6364  -13.4524 N   0  0  0  0  0  0  0  0  0  0  0  0
   26.3425  -19.8656  -14.6093 C   0  0  0  0  0  0  0  0  0  0  0  0
   26.1171  -20.1213  -12.2421 O   0  0  0  0  0  0  0  0  0  0  0  0
   26.1286  -18.8927  -11.9753 C   0  0  0  0  0  0  0  0  0  0  0  0
   32.3649  -24.3470  -11.5214 S   0  0  0  0  0  0  0  0  0  0  0  0
   22.6772  -23.3170   -7.2592 C   0  0  0  0  0  0  0  0  0  0  0  0
   21.9115  -21.7181   -7.6320 C   0  0  0  0  0  0  0  0  0  0  0  0
   23.2238  -20.5908   -8.2970 C   0  0  2  0  0  0  0  0  0  0  0  0
   23.7443  -21.1555   -9.5811 N   0  0  0  0  0  0  0  0  0  0  0  0
   24.8945  -20.3864  -10.1094 C   0  0  0  0  0  0  0  0  0  0  0  0
   25.4286  -20.9617  -11.3320 O   0  0  0  0  0  0  0  0  0  0  0  0
   25.9959  -20.3308   -9.1519 O   0  0  0  0  0  0  0  0  0  0  0  0
  2  3  2  0
  2  1  1  0
  4  2  1  0
  5  4  1  0
  6  5  1  0
  7  6  1  0
  8 10  1  0
  8  9  1  6
  8  7  1  0
 10 11  2  0
 13 12  1  0
 14 13  2  0
 15 16  1  0
 15 13  1  0
 17 18  1  0
 17 16  1  0
 19 18  1  6
 19 21  1  0
 20 19  1  0
 20 10  1  0
 21 22  2  0
 21 28  1  0
 23 24  1  0
 24 25  1  0
 25 26  1  0
 27 26  1  1
 27 29  1  0
 28 27  1  0
 29 31  2  0
 29 30  1  0
M  END
$$$$
