RRM.pdb
     RDKit          3D

 31 30  0  0  1  0  0  0  0  0999 V2000
   27.7119  -18.5509  -21.1007 N   0  0  0  0  0  0  0  0  0  0  0  0
   26.6311  -17.7280  -20.6900 C   0  0  0  0  0  0  0  0  0  0  0  0
   25.5424  -17.6157  -21.3862 N   0  0  0  0  0  0  0  0  0  0  0  0
   26.6817  -16.9654  -19.4674 N   0  0  0  0  0  0  0  0  0  0  0  0
   27.7819  -17.1407  -18.5321 C   0  0  0  0  0  0  0  0  0  0  0  0
   27.7517  -18.5575  -18.0228 C   0  0  0  0  0  0  0  0  0  0  0  0
   28.7699  -18.8534  -16.9707 C   0  0  0  0  0  0  0  0  0  0  0  0
   28.7521  -20.2653  -16.4569 C   0  0  2  0  0  0  0  0  0  0  0  0
   28.8149  -21.2391  -17.5069 N   0  0  0  0  0  0  0  0  0  0  0  0
   27.6066  -20.5342  -15.5630 C   0  0  0  0  0  0  0  0  0  0  0  0
   26.5979  -21.2031  -15.9381 O   0  0  0  0  0  0  0  0  0  0  0  0
   24.7502  -17.0210  -21.0285 N   0  0  0  0  0  0  0  0  0  0  0  0
   23.3575  -20.7289   -8.6218 C   0  0  0  0  0  0  0  0  0  0  0  0
   22.9685  -21.2510   -9.8821 N   0  0  0  0  0  0  0  0  0  0  0  0
   21.7364  -21.2470  -10.2409 N   0  0  0  0  0  0  0  0  0  0  0  0
   23.9348  -21.7902  -10.7798 C   0  0  0  0  0  0  0  0  0  0  0  0
   25.3488  -21.5757  -10.6386 C   0  0  0  0  0  0  0  0  0  0  0  0
   25.6286  -20.1185  -10.9819 C   0  0  0  0  0  0  0  0  0  0  0  0
   26.7754  -19.9868  -11.9258 C   0  0  1  0  0  0  0  0  0  0  0  0
   26.4368  -20.3426  -13.3548 N   0  0  0  0  0  0  0  0  0  0  0  0
   27.5753  -20.0544  -14.2258 C   0  0  0  0  0  0  0  0  0  0  0  0
   25.2871  -19.5158  -13.7850 O   0  0  0  0  0  0  0  0  0  0  0  0
   25.3198  -18.2641  -13.6704 C   0  0  0  0  0  0  0  0  0  0  0  0
   21.3911  -21.6377  -11.1211 S   0  0  0  0  0  0  0  0  0  0  0  0
   20.7134  -20.6807  -18.3116 C   0  0  0  0  0  0  0  0  0  0  0  0
   20.8186  -18.8809  -18.1347 C   0  0  0  0  0  0  0  0  0  0  0  0
   21.3746  -18.5023  -16.4077 C   0  0  2  0  0  0  0  0  0  0  0  0
   22.5620  -19.3525  -16.0822 N   0  0  0  0  0  0  0  0  0  0  0  0
   23.0053  -19.1873  -14.6787 C   0  0  0  0  0  0  0  0  0  0  0  0
   24.1075  -20.0715  -14.3401 O   0  0  0  0  0  0  0  0  0  0  0  0
   21.9294  -19.4714  -13.7328 O   0  0  0  0  0  0  0  0  0  0  0  0
  2  3  2  0
  2  1  1  0
  4  2  1  0
  5  4  1  0
  6  5  1  0
  7  6  1  0
  8 10  1  0
  8  9  1  6
  8  7  1  0
 10 11  2  0
 13 12  1  0
 14 13  2  0
 15 16  1  0
 15 13  1  0
 17 18  1  0
 17 16  1  0
 19 18  1  1
 19 21  1  0
 20 19  1  0
 20 10  1  0
 21 22  2  0
 21 28  1  0
 23 24  1  0
 24 25  1  0
 25 26  1  0
 27 26  1  1
 27 29  1  0
 28 27  1  0
 29 31  2  0
 29 30  1  0
M  END
$$$$
