DVN.pdb
     RDKit          3D

 24 23  0  0  1  0  0  0  0  0999 V2000
   12.4257  -15.7710   17.5975 N   0  0  0  0  0  0  0  0  0  0  0  0
   13.0978  -15.0040   18.6074 C   0  0  1  0  0  0  0  0  0  0  0  0
   14.0033  -14.0020   17.9745 C   0  0  0  0  0  0  0  0  0  0  0  0
   14.9886  -14.6842   17.1115 C   0  0  0  0  0  0  0  0  0  0  0  0
   15.1757  -15.9127   17.2581 O   0  0  0  0  0  0  0  0  0  0  0  0
   12.1229  -14.3901   19.5461 C   0  0  0  0  0  0  0  0  0  0  0  0
   12.5618  -13.7236   20.5180 O   0  0  0  0  0  0  0  0  0  0  0  0
   15.7250  -14.0305   16.1380 O   0  0  0  0  0  0  0  0  0  0  0  0
    8.5376  -12.6567   18.6939 C   0  0  0  0  0  0  0  0  0  0  0  0
    8.4583  -13.7069   19.7716 C   0  0  2  0  0  0  0  0  0  0  0  0
    7.4285  -13.3123   20.7785 C   0  0  0  0  0  0  0  0  0  0  0  0
    9.7974  -14.0241   20.3844 C   0  0  2  0  0  0  0  0  0  0  0  0
   10.7346  -14.5192   19.3989 N   0  0  0  0  0  0  0  0  0  0  0  0
    9.6638  -14.9773   21.5287 C   0  0  0  0  0  0  0  0  0  0  0  0
    8.9497  -14.7037   22.5256 O   0  0  0  0  0  0  0  0  0  0  0  0
    8.0348  -18.8620   20.7643 N   0  0  0  0  0  0  0  0  0  0  0  0
    9.4571  -18.7774   20.9736 C   0  0  0  0  0  0  0  0  0  0  0  0
   10.1523  -18.9326   19.9524 O   0  0  0  0  0  0  0  0  0  0  0  0
   10.0047  -18.5248   22.3109 C   0  0  0  0  0  0  0  0  0  0  0  0
   10.1882  -17.1119   22.7028 C   0  0  2  0  0  0  0  0  0  0  0  0
   10.3362  -16.2297   21.5382 N   0  0  0  0  0  0  0  0  0  0  0  0
   11.2957  -16.9286   23.6511 C   0  0  0  0  0  0  0  0  0  0  0  0
   12.2946  -16.2515   23.3576 O   0  0  0  0  0  0  0  0  0  0  0  0
   11.2602  -17.5179   24.9282 O   0  0  0  0  0  0  0  0  0  0  0  0
  2  1  1  6
  3  2  1  0
  4  3  1  0
  4  5  2  0
  6  2  1  0
  6  7  2  0
  8  4  1  0
 10  9  1  6
 10 12  1  0
 11 10  1  0
 12 13  1  6
 13  6  1  0
 14 12  1  0
 15 14  2  0
 16 17  1  0
 17 19  1  0
 17 18  2  0
 20 19  1  6
 20 22  1  0
 20 21  1  0
 21 14  1  0
 22 24  1  0
 23 22  2  0
M  END
$$$$
