DVN.pdb
     RDKit          3D

 24 23  0  0  1  0  0  0  0  0999 V2000
    8.6202  -15.0122   20.3796 N   0  0  0  0  0  0  0  0  0  0  0  0
    7.7907  -15.4736   21.4561 C   0  0  1  0  0  0  0  0  0  0  0  0
    7.6019  -16.9501   21.3632 C   0  0  0  0  0  0  0  0  0  0  0  0
    6.8764  -17.2905   20.1227 C   0  0  0  0  0  0  0  0  0  0  0  0
    7.3253  -16.8859   19.0270 O   0  0  0  0  0  0  0  0  0  0  0  0
    8.3352  -15.0422   22.7699 C   0  0  0  0  0  0  0  0  0  0  0  0
    9.5827  -15.0230   22.9268 O   0  0  0  0  0  0  0  0  0  0  0  0
    5.7133  -18.0416   20.1063 O   0  0  0  0  0  0  0  0  0  0  0  0
    6.6639  -12.1502   25.1931 C   0  0  0  0  0  0  0  0  0  0  0  0
    7.0737  -13.4144   25.9035 C   0  0  2  0  0  0  0  0  0  0  0  0
    7.5443  -13.0825   27.2814 C   0  0  0  0  0  0  0  0  0  0  0  0
    8.0635  -14.2360   25.1195 C   0  0  2  0  0  0  0  0  0  0  0  0
    7.5220  -14.6551   23.8444 N   0  0  0  0  0  0  0  0  0  0  0  0
    8.5501  -15.4080   25.9105 C   0  0  0  0  0  0  0  0  0  0  0  0
    7.8089  -16.3978   26.1331 O   0  0  0  0  0  0  0  0  0  0  0  0
   12.1395  -19.6121   26.3061 N   0  0  0  0  0  0  0  0  0  0  0  0
   12.2873  -18.3283   26.9415 C   0  0  0  0  0  0  0  0  0  0  0  0
   12.9903  -18.3243   27.9691 O   0  0  0  0  0  0  0  0  0  0  0  0
   11.6387  -17.1364   26.3839 C   0  0  0  0  0  0  0  0  0  0  0  0
   10.3678  -16.7128   27.0075 C   0  0  2  0  0  0  0  0  0  0  0  0
    9.8674  -15.4530   26.4427 N   0  0  0  0  0  0  0  0  0  0  0  0
   10.4549  -16.6396   28.4726 C   0  0  0  0  0  0  0  0  0  0  0  0
   10.5821  -15.5531   29.0606 O   0  0  0  0  0  0  0  0  0  0  0  0
   10.3975  -17.8040   29.2602 O   0  0  0  0  0  0  0  0  0  0  0  0
  2  1  1  6
  3  2  1  0
  4  3  1  0
  4  5  2  0
  6  2  1  0
  6  7  2  0
  8  4  1  0
 10  9  1  6
 10 12  1  0
 11 10  1  0
 12 13  1  6
 13  6  1  0
 14 12  1  0
 15 14  2  0
 16 17  1  0
 17 19  1  0
 17 18  2  0
 20 19  1  6
 20 22  1  0
 20 21  1  0
 21 14  1  0
 22 24  1  0
 23 22  2  0
M  END
$$$$
