DVN.pdb
     RDKit          3D

 24 23  0  0  1  0  0  0  0  0999 V2000
   10.0825  -16.2082   15.8288 N   0  0  0  0  0  0  0  0  0  0  0  0
    9.8206  -17.0389   16.9695 C   0  0  1  0  0  0  0  0  0  0  0  0
   10.7431  -18.2109   16.9747 C   0  0  0  0  0  0  0  0  0  0  0  0
   10.4070  -19.1245   15.8642 C   0  0  0  0  0  0  0  0  0  0  0  0
    9.2741  -19.0489   15.3382 O   0  0  0  0  0  0  0  0  0  0  0  0
    9.8816  -16.2500   18.2275 C   0  0  0  0  0  0  0  0  0  0  0  0
   10.9590  -16.2342   18.8757 O   0  0  0  0  0  0  0  0  0  0  0  0
   11.2874  -20.0711   15.3680 O   0  0  0  0  0  0  0  0  0  0  0  0
    7.7098  -12.7932   19.0135 C   0  0  0  0  0  0  0  0  0  0  0  0
    7.7155  -13.8212   20.1153 C   0  0  2  0  0  0  0  0  0  0  0  0
    7.6840  -13.1331   21.4403 C   0  0  0  0  0  0  0  0  0  0  0  0
    8.8410  -14.8144   19.9883 C   0  0  2  0  0  0  0  0  0  0  0  0
    8.7926  -15.5214   18.7263 N   0  0  0  0  0  0  0  0  0  0  0  0
    8.8626  -15.7675   21.1403 C   0  0  0  0  0  0  0  0  0  0  0  0
    7.9743  -16.6454   21.2773 O   0  0  0  0  0  0  0  0  0  0  0  0
   12.8802  -17.1905   21.7991 N   0  0  0  0  0  0  0  0  0  0  0  0
   12.2242  -17.3639   23.0693 C   0  0  0  0  0  0  0  0  0  0  0  0
   12.9424  -17.1663   24.0670 O   0  0  0  0  0  0  0  0  0  0  0  0
   10.8096  -17.7465   23.1369 C   0  0  0  0  0  0  0  0  0  0  0  0
    9.8256  -16.6513   23.2620 C   0  0  2  0  0  0  0  0  0  0  0  0
    9.8852  -15.7218   22.1266 N   0  0  0  0  0  0  0  0  0  0  0  0
    9.9379  -15.9350   24.5402 C   0  0  0  0  0  0  0  0  0  0  0  0
   10.1937  -14.7204   24.5819 O   0  0  0  0  0  0  0  0  0  0  0  0
    9.7591  -16.6057   25.7640 O   0  0  0  0  0  0  0  0  0  0  0  0
  2  1  1  6
  3  2  1  0
  4  3  1  0
  4  5  2  0
  6  2  1  0
  6  7  2  0
  8  4  1  0
 10  9  1  6
 10 12  1  0
 11 10  1  0
 12 13  1  6
 13  6  1  0
 14 12  1  0
 15 14  2  0
 16 17  1  0
 17 19  1  0
 17 18  2  0
 20 19  1  6
 20 22  1  0
 20 21  1  0
 21 14  1  0
 22 24  1  0
 23 22  2  0
M  END
$$$$
