DVN.pdb
     RDKit          3D

 24 23  0  0  1  0  0  0  0  0999 V2000
    9.3799  -16.4539   15.9459 N   0  0  0  0  0  0  0  0  0  0  0  0
    8.7956  -16.8811   17.1853 C   0  0  1  0  0  0  0  0  0  0  0  0
    9.1842  -18.2911   17.4779 C   0  0  0  0  0  0  0  0  0  0  0  0
   10.6178  -18.4920   17.1859 C   0  0  0  0  0  0  0  0  0  0  0  0
   11.2202  -17.6431   16.4915 O   0  0  0  0  0  0  0  0  0  0  0  0
    9.1418  -15.9458   18.2871 C   0  0  0  0  0  0  0  0  0  0  0  0
    9.6510  -14.8340   17.9943 O   0  0  0  0  0  0  0  0  0  0  0  0
   11.3396  -19.5812   17.6441 O   0  0  0  0  0  0  0  0  0  0  0  0
    8.2864  -13.3818   19.0738 C   0  0  0  0  0  0  0  0  0  0  0  0
    7.9229  -14.1260   20.3327 C   0  0  2  0  0  0  0  0  0  0  0  0
    7.7274  -13.1532   21.4488 C   0  0  0  0  0  0  0  0  0  0  0  0
    8.8952  -15.2268   20.6676 C   0  0  2  0  0  0  0  0  0  0  0  0
    8.9271  -16.2453   19.6398 N   0  0  0  0  0  0  0  0  0  0  0  0
    8.6072  -15.8223   22.0086 C   0  0  0  0  0  0  0  0  0  0  0  0
    7.6393  -16.6047   22.1807 O   0  0  0  0  0  0  0  0  0  0  0  0
   11.5262  -19.6669   23.2413 N   0  0  0  0  0  0  0  0  0  0  0  0
   11.9961  -18.3059   23.2177 C   0  0  0  0  0  0  0  0  0  0  0  0
   13.1612  -18.1413   23.6249 O   0  0  0  0  0  0  0  0  0  0  0  0
   11.1307  -17.2218   22.7402 C   0  0  0  0  0  0  0  0  0  0  0  0
   10.2312  -16.5974   23.7324 C   0  0  2  0  0  0  0  0  0  0  0  0
    9.4129  -15.5301   23.1427 N   0  0  0  0  0  0  0  0  0  0  0  0
   10.9487  -16.1194   24.9224 C   0  0  0  0  0  0  0  0  0  0  0  0
   11.4876  -16.9094   25.7149 O   0  0  0  0  0  0  0  0  0  0  0  0
   11.0481  -14.7445   25.2042 O   0  0  0  0  0  0  0  0  0  0  0  0
  2  1  1  6
  3  2  1  0
  4  3  1  0
  4  5  2  0
  6  2  1  0
  6  7  2  0
  8  4  1  0
 10  9  1  6
 10 12  1  0
 11 10  1  0
 12 13  1  6
 13  6  1  0
 14 12  1  0
 15 14  2  0
 16 17  1  0
 17 19  1  0
 17 18  2  0
 20 19  1  6
 20 22  1  0
 20 21  1  0
 21 14  1  0
 22 24  1  0
 23 22  2  0
M  END
$$$$
