DVN.pdb
     RDKit          3D

 24 23  0  0  1  0  0  0  0  0999 V2000
    8.3656  -14.9716   20.7052 N   0  0  0  0  0  0  0  0  0  0  0  0
    7.6923  -15.4943   21.8598 C   0  0  1  0  0  0  0  0  0  0  0  0
    7.6942  -16.9854   21.8250 C   0  0  0  0  0  0  0  0  0  0  0  0
    6.8311  -17.4672   20.7279 C   0  0  0  0  0  0  0  0  0  0  0  0
    7.0834  -17.1092   19.5557 O   0  0  0  0  0  0  0  0  0  0  0  0
    8.2768  -14.9448   23.1109 C   0  0  0  0  0  0  0  0  0  0  0  0
    9.5276  -14.8527   23.2003 O   0  0  0  0  0  0  0  0  0  0  0  0
    5.7454  -18.3029   20.9283 O   0  0  0  0  0  0  0  0  0  0  0  0
    6.6198  -11.9840   25.3221 C   0  0  0  0  0  0  0  0  0  0  0  0
    7.1299  -13.1222   26.1678 C   0  0  2  0  0  0  0  0  0  0  0  0
    7.7007  -12.5834   27.4383 C   0  0  0  0  0  0  0  0  0  0  0  0
    8.0791  -14.0272   25.4268 C   0  0  2  0  0  0  0  0  0  0  0  0
    7.4978  -14.5235   24.1978 N   0  0  0  0  0  0  0  0  0  0  0  0
    8.5522  -15.1510   26.2923 C   0  0  0  0  0  0  0  0  0  0  0  0
    7.7704  -16.0615   26.6643 O   0  0  0  0  0  0  0  0  0  0  0  0
   12.4288  -16.5974   24.7644 N   0  0  0  0  0  0  0  0  0  0  0  0
   11.5686  -17.3399   25.6491 C   0  0  0  0  0  0  0  0  0  0  0  0
   10.8933  -18.2328   25.1042 O   0  0  0  0  0  0  0  0  0  0  0  0
   11.5226  -17.0330   27.0829 C   0  0  0  0  0  0  0  0  0  0  0  0
   10.3055  -16.3617   27.5846 C   0  0  2  0  0  0  0  0  0  0  0  0
    9.9018  -15.2376   26.7302 N   0  0  0  0  0  0  0  0  0  0  0  0
   10.4294  -15.9435   28.9878 C   0  0  0  0  0  0  0  0  0  0  0  0
   10.3489  -14.7487   29.3173 O   0  0  0  0  0  0  0  0  0  0  0  0
   10.6452  -16.8877   30.0083 O   0  0  0  0  0  0  0  0  0  0  0  0
  2  1  1  6
  3  2  1  0
  4  3  1  0
  4  5  2  0
  6  2  1  0
  6  7  2  0
  8  4  1  0
 10  9  1  6
 10 12  1  0
 11 10  1  0
 12 13  1  6
 13  6  1  0
 14 12  1  0
 15 14  2  0
 16 17  1  0
 17 19  1  0
 17 18  2  0
 20 19  1  6
 20 22  1  0
 20 21  1  0
 21 14  1  0
 22 24  1  0
 23 22  2  0
M  END
$$$$
