DVN.pdb
     RDKit          3D

 24 23  0  0  1  0  0  0  0  0999 V2000
    8.3180  -15.6745   21.0324 N   0  0  0  0  0  0  0  0  0  0  0  0
    7.4521  -15.8494   22.1634 C   0  0  1  0  0  0  0  0  0  0  0  0
    7.2345  -17.3017   22.4246 C   0  0  0  0  0  0  0  0  0  0  0  0
    7.0115  -18.0169   21.1520 C   0  0  0  0  0  0  0  0  0  0  0  0
    6.4653  -17.4110   20.2032 O   0  0  0  0  0  0  0  0  0  0  0  0
    7.9721  -15.1206   23.3496 C   0  0  0  0  0  0  0  0  0  0  0  0
    9.2170  -15.0417   23.5087 O   0  0  0  0  0  0  0  0  0  0  0  0
    7.3780  -19.3368   20.9497 O   0  0  0  0  0  0  0  0  0  0  0  0
    6.2629  -11.8773   25.0834 C   0  0  0  0  0  0  0  0  0  0  0  0
    6.6945  -12.9107   26.0917 C   0  0  2  0  0  0  0  0  0  0  0  0
    7.2210  -12.2286   27.3115 C   0  0  0  0  0  0  0  0  0  0  0  0
    7.6484  -13.9276   25.5213 C   0  0  2  0  0  0  0  0  0  0  0  0
    7.1387  -14.5159   24.3011 N   0  0  0  0  0  0  0  0  0  0  0  0
    7.9908  -14.9808   26.5261 C   0  0  0  0  0  0  0  0  0  0  0  0
    7.2149  -15.9426   26.7531 O   0  0  0  0  0  0  0  0  0  0  0  0
    9.8273  -19.3654   28.3198 N   0  0  0  0  0  0  0  0  0  0  0  0
   10.7443  -18.3533   27.8631 C   0  0  0  0  0  0  0  0  0  0  0  0
   11.9465  -18.5896   28.0849 O   0  0  0  0  0  0  0  0  0  0  0  0
   10.2541  -17.1459   27.1892 C   0  0  0  0  0  0  0  0  0  0  0  0
    9.6115  -16.1206   28.0374 C   0  0  2  0  0  0  0  0  0  0  0  0
    9.2044  -14.9398   27.2650 N   0  0  0  0  0  0  0  0  0  0  0  0
   10.4407  -15.7407   29.1895 C   0  0  0  0  0  0  0  0  0  0  0  0
   10.7723  -16.5714   30.0512 O   0  0  0  0  0  0  0  0  0  0  0  0
   10.8874  -14.4168   29.3548 O   0  0  0  0  0  0  0  0  0  0  0  0
  2  1  1  6
  3  2  1  0
  4  3  1  0
  4  5  2  0
  6  2  1  0
  6  7  2  0
  8  4  1  0
 10  9  1  6
 10 12  1  0
 11 10  1  0
 12 13  1  6
 13  6  1  0
 14 12  1  0
 15 14  2  0
 16 17  1  0
 17 19  1  0
 17 18  2  0
 20 19  1  6
 20 22  1  0
 20 21  1  0
 21 14  1  0
 22 24  1  0
 23 22  2  0
M  END
$$$$
