DVN.pdb
     RDKit          3D

 24 23  0  0  1  0  0  0  0  0999 V2000
    7.2066  -16.3471   21.8290 N   0  0  0  0  0  0  0  0  0  0  0  0
    8.6059  -16.0382   21.9105 C   0  0  1  0  0  0  0  0  0  0  0  0
    9.0667  -15.4021   20.6427 C   0  0  0  0  0  0  0  0  0  0  0  0
    8.9962  -16.3747   19.5337 C   0  0  0  0  0  0  0  0  0  0  0  0
    8.9465  -17.5962   19.8003 O   0  0  0  0  0  0  0  0  0  0  0  0
    8.8996  -15.2131   23.1111 C   0  0  0  0  0  0  0  0  0  0  0  0
   10.0633  -14.7604   23.2596 O   0  0  0  0  0  0  0  0  0  0  0  0
    8.9823  -16.0039   18.1996 O   0  0  0  0  0  0  0  0  0  0  0  0
    6.5058  -12.4776   24.9366 C   0  0  0  0  0  0  0  0  0  0  0  0
    7.0766  -13.4995   25.8857 C   0  0  2  0  0  0  0  0  0  0  0  0
    7.3535  -12.8561   27.2046 C   0  0  0  0  0  0  0  0  0  0  0  0
    8.2665  -14.2294   25.3193 C   0  0  2  0  0  0  0  0  0  0  0  0
    7.9387  -14.9151   24.0876 N   0  0  0  0  0  0  0  0  0  0  0  0
    8.8585  -15.1702   26.3195 C   0  0  0  0  0  0  0  0  0  0  0  0
    8.2463  -16.2051   26.6836 O   0  0  0  0  0  0  0  0  0  0  0  0
   13.1070  -15.8113   25.2944 N   0  0  0  0  0  0  0  0  0  0  0  0
   12.3569  -16.6777   26.1665 C   0  0  0  0  0  0  0  0  0  0  0  0
   11.9903  -17.7528   25.6566 O   0  0  0  0  0  0  0  0  0  0  0  0
   12.0681  -16.2824   27.5494 C   0  0  0  0  0  0  0  0  0  0  0  0
   10.6733  -15.9065   27.8604 C   0  0  2  0  0  0  0  0  0  0  0  0
   10.1348  -14.9352   26.8995 N   0  0  0  0  0  0  0  0  0  0  0  0
   10.5113  -15.4318   29.2416 C   0  0  0  0  0  0  0  0  0  0  0  0
   10.1771  -14.2616   29.4895 O   0  0  0  0  0  0  0  0  0  0  0  0
   10.7314  -16.2917   30.3331 O   0  0  0  0  0  0  0  0  0  0  0  0
  2  1  1  6
  3  2  1  0
  4  3  1  0
  4  5  2  0
  6  2  1  0
  6  7  2  0
  8  4  1  0
 10  9  1  6
 10 12  1  0
 11 10  1  0
 12 13  1  6
 13  6  1  0
 14 12  1  0
 15 14  2  0
 16 17  1  0
 17 19  1  0
 17 18  2  0
 20 19  1  6
 20 22  1  0
 20 21  1  0
 21 14  1  0
 22 24  1  0
 23 22  2  0
M  END
$$$$
