DVN.pdb
     RDKit          3D

 24 23  0  0  1  0  0  0  0  0999 V2000
    9.4535  -17.0929   15.4266 N   0  0  0  0  0  0  0  0  0  0  0  0
    8.6947  -17.0103   16.6421 C   0  0  1  0  0  0  0  0  0  0  0  0
    8.7172  -18.3216   17.3524 C   0  0  0  0  0  0  0  0  0  0  0  0
    9.4698  -19.3141   16.5590 C   0  0  0  0  0  0  0  0  0  0  0  0
    9.2112  -19.4392   15.3411 O   0  0  0  0  0  0  0  0  0  0  0  0
    9.1689  -15.8856   17.4899 C   0  0  0  0  0  0  0  0  0  0  0  0
   10.2073  -15.2672   17.1429 O   0  0  0  0  0  0  0  0  0  0  0  0
   10.4570  -20.1230   17.0960 O   0  0  0  0  0  0  0  0  0  0  0  0
    6.7807  -13.0456   18.9753 C   0  0  0  0  0  0  0  0  0  0  0  0
    7.7219  -13.6024   20.0122 C   0  0  2  0  0  0  0  0  0  0  0  0
    8.1026  -12.5233   20.9716 C   0  0  0  0  0  0  0  0  0  0  0  0
    8.9088  -14.3090   19.4112 C   0  0  2  0  0  0  0  0  0  0  0  0
    8.5118  -15.4810   18.6605 N   0  0  0  0  0  0  0  0  0  0  0  0
    9.9253  -14.6538   20.4522 C   0  0  0  0  0  0  0  0  0  0  0  0
   10.4728  -13.7635   21.1495 O   0  0  0  0  0  0  0  0  0  0  0  0
   13.0143  -14.6646   18.8273 N   0  0  0  0  0  0  0  0  0  0  0  0
   13.1268  -15.7208   19.7997 C   0  0  0  0  0  0  0  0  0  0  0  0
   13.6343  -16.7766   19.3777 O   0  0  0  0  0  0  0  0  0  0  0  0
   12.6639  -15.5241   21.1778 C   0  0  0  0  0  0  0  0  0  0  0  0
   11.4518  -16.2629   21.5883 C   0  0  2  0  0  0  0  0  0  0  0  0
   10.3147  -15.9988   20.6973 N   0  0  0  0  0  0  0  0  0  0  0  0
   11.0924  -16.0217   22.9926 C   0  0  0  0  0  0  0  0  0  0  0  0
    9.9821  -15.5628   23.3076 O   0  0  0  0  0  0  0  0  0  0  0  0
   11.9993  -16.3035   24.0306 O   0  0  0  0  0  0  0  0  0  0  0  0
  2  1  1  6
  3  2  1  0
  4  3  1  0
  4  5  2  0
  6  2  1  0
  6  7  2  0
  8  4  1  0
 10  9  1  6
 10 12  1  0
 11 10  1  0
 12 13  1  1
 13  6  1  0
 14 12  1  0
 15 14  2  0
 16 17  1  0
 17 19  1  0
 17 18  2  0
 20 19  1  6
 20 22  1  0
 20 21  1  0
 21 14  1  0
 22 24  1  0
 23 22  2  0
M  END
$$$$
