DVN.pdb
     RDKit          3D

 24 23  0  0  1  0  0  0  0  0999 V2000
    8.4756  -14.9567   20.8467 N   0  0  0  0  0  0  0  0  0  0  0  0
    7.8195  -15.4900   22.0065 C   0  0  1  0  0  0  0  0  0  0  0  0
    7.9336  -16.9770   22.0235 C   0  0  0  0  0  0  0  0  0  0  0  0
    7.4685  -17.5350   20.7378 C   0  0  0  0  0  0  0  0  0  0  0  0
    6.4665  -17.0297   20.1842 O   0  0  0  0  0  0  0  0  0  0  0  0
    8.3354  -14.8566   23.2480 C   0  0  0  0  0  0  0  0  0  0  0  0
    9.5677  -14.6224   23.3363 O   0  0  0  0  0  0  0  0  0  0  0  0
    8.0880  -18.5993   20.1046 O   0  0  0  0  0  0  0  0  0  0  0  0
    6.4635  -12.0158   25.4911 C   0  0  0  0  0  0  0  0  0  0  0  0
    7.0040  -13.1627   26.3057 C   0  0  2  0  0  0  0  0  0  0  0  0
    7.4884  -12.6542   27.6236 C   0  0  0  0  0  0  0  0  0  0  0  0
    8.0352  -13.9752   25.5669 C   0  0  2  0  0  0  0  0  0  0  0  0
    7.5113  -14.5074   24.3272 N   0  0  0  0  0  0  0  0  0  0  0  0
    8.5943  -15.0627   26.4275 C   0  0  0  0  0  0  0  0  0  0  0  0
    7.8639  -15.9832   26.8723 O   0  0  0  0  0  0  0  0  0  0  0  0
   10.5947  -17.9595   25.2130 N   0  0  0  0  0  0  0  0  0  0  0  0
   11.6750  -17.1961   25.7823 C   0  0  0  0  0  0  0  0  0  0  0  0
   12.5877  -16.8983   24.9895 O   0  0  0  0  0  0  0  0  0  0  0  0
   11.6606  -16.8179   27.1997 C   0  0  0  0  0  0  0  0  0  0  0  0
   10.4448  -16.1431   27.6997 C   0  0  2  0  0  0  0  0  0  0  0  0
    9.9713  -15.1023   26.7782 N   0  0  0  0  0  0  0  0  0  0  0  0
   10.6133  -15.6111   29.0591 C   0  0  0  0  0  0  0  0  0  0  0  0
   10.5670  -14.3913   29.2879 O   0  0  0  0  0  0  0  0  0  0  0  0
   10.8343  -16.4709   30.1506 O   0  0  0  0  0  0  0  0  0  0  0  0
  2  1  1  6
  3  2  1  0
  4  3  1  0
  4  5  2  0
  6  2  1  0
  6  7  2  0
  8  4  1  0
 10  9  1  6
 10 12  1  0
 11 10  1  0
 12 13  1  6
 13  6  1  0
 14 12  1  0
 15 14  2  0
 16 17  1  0
 17 19  1  0
 17 18  2  0
 20 19  1  6
 20 22  1  0
 20 21  1  0
 21 14  1  0
 22 24  1  0
 23 22  2  0
M  END
$$$$
