DVN.pdb
     RDKit          3D

 24 23  0  0  1  0  0  0  0  0999 V2000
    8.5726  -15.1907   20.6591 N   0  0  0  0  0  0  0  0  0  0  0  0
    7.8688  -15.6616   21.8178 C   0  0  1  0  0  0  0  0  0  0  0  0
    7.8897  -17.1523   21.8615 C   0  0  0  0  0  0  0  0  0  0  0  0
    7.2560  -17.7033   20.6467 C   0  0  0  0  0  0  0  0  0  0  0  0
    7.9079  -17.7243   19.5788 O   0  0  0  0  0  0  0  0  0  0  0  0
    8.4059  -15.0396   23.0560 C   0  0  0  0  0  0  0  0  0  0  0  0
    9.6507  -14.9013   23.1682 O   0  0  0  0  0  0  0  0  0  0  0  0
    5.9649  -18.2033   20.6251 O   0  0  0  0  0  0  0  0  0  0  0  0
    6.5788  -12.0395   25.1453 C   0  0  0  0  0  0  0  0  0  0  0  0
    7.1076  -13.1496   26.0165 C   0  0  2  0  0  0  0  0  0  0  0  0
    7.6050  -12.5798   27.3041 C   0  0  0  0  0  0  0  0  0  0  0  0
    8.1243  -14.0135   25.3171 C   0  0  2  0  0  0  0  0  0  0  0  0
    7.5888  -14.5992   24.1067 N   0  0  0  0  0  0  0  0  0  0  0  0
    8.6696  -15.0650   26.2297 C   0  0  0  0  0  0  0  0  0  0  0  0
    7.9312  -15.9643   26.7036 O   0  0  0  0  0  0  0  0  0  0  0  0
   12.2082  -19.0444   27.7013 N   0  0  0  0  0  0  0  0  0  0  0  0
   12.5074  -17.6529   27.9204 C   0  0  0  0  0  0  0  0  0  0  0  0
   13.3067  -17.4232   28.8470 O   0  0  0  0  0  0  0  0  0  0  0  0
   11.8921  -16.6133   27.0881 C   0  0  0  0  0  0  0  0  0  0  0  0
   10.5293  -16.1790   27.4589 C   0  0  2  0  0  0  0  0  0  0  0  0
   10.0419  -15.0925   26.5994 N   0  0  0  0  0  0  0  0  0  0  0  0
   10.4178  -15.8217   28.8799 C   0  0  0  0  0  0  0  0  0  0  0  0
   10.4134  -14.6367   29.2516 O   0  0  0  0  0  0  0  0  0  0  0  0
   10.3127  -16.8156   29.8701 O   0  0  0  0  0  0  0  0  0  0  0  0
  2  1  1  6
  3  2  1  0
  4  3  1  0
  4  5  2  0
  6  2  1  0
  6  7  2  0
  8  4  1  0
 10  9  1  6
 10 12  1  0
 11 10  1  0
 12 13  1  6
 13  6  1  0
 14 12  1  0
 15 14  2  0
 16 17  1  0
 17 19  1  0
 17 18  2  0
 20 19  1  6
 20 22  1  0
 20 21  1  0
 21 14  1  0
 22 24  1  0
 23 22  2  0
M  END
$$$$
