DVN.pdb
     RDKit          3D

 24 23  0  0  1  0  0  0  0  0999 V2000
    9.7871  -17.3536   15.8642 N   0  0  0  0  0  0  0  0  0  0  0  0
    8.7617  -17.3074   16.8673 C   0  0  1  0  0  0  0  0  0  0  0  0
    8.3647  -18.6903   17.2607 C   0  0  0  0  0  0  0  0  0  0  0  0
    7.8914  -19.4369   16.0778 C   0  0  0  0  0  0  0  0  0  0  0  0
    7.1005  -18.8788   15.2848 O   0  0  0  0  0  0  0  0  0  0  0  0
    9.1860  -16.4768   18.0243 C   0  0  0  0  0  0  0  0  0  0  0  0
   10.4113  -16.4094   18.2988 O   0  0  0  0  0  0  0  0  0  0  0  0
    8.2796  -20.7357   15.7956 O   0  0  0  0  0  0  0  0  0  0  0  0
    7.2525  -12.9798   19.1795 C   0  0  0  0  0  0  0  0  0  0  0  0
    7.6346  -13.9191   20.2941 C   0  0  2  0  0  0  0  0  0  0  0  0
    7.9718  -13.1315   21.5172 C   0  0  0  0  0  0  0  0  0  0  0  0
    8.7132  -14.8938   19.8991 C   0  0  2  0  0  0  0  0  0  0  0  0
    8.2830  -15.7637   18.8254 N   0  0  0  0  0  0  0  0  0  0  0  0
    9.1939  -15.6841   21.0741 C   0  0  0  0  0  0  0  0  0  0  0  0
    8.5369  -16.6590   21.5173 O   0  0  0  0  0  0  0  0  0  0  0  0
   12.3210  -18.0997   24.6415 N   0  0  0  0  0  0  0  0  0  0  0  0
   12.8430  -16.8127   24.2610 C   0  0  0  0  0  0  0  0  0  0  0  0
   13.7584  -16.3781   24.9845 O   0  0  0  0  0  0  0  0  0  0  0  0
   12.3055  -16.0995   23.0971 C   0  0  0  0  0  0  0  0  0  0  0  0
   10.8506  -16.2051   22.8611 C   0  0  2  0  0  0  0  0  0  0  0  0
   10.4103  -15.3677   21.7379 N   0  0  0  0  0  0  0  0  0  0  0  0
   10.0614  -15.9292   24.0696 C   0  0  0  0  0  0  0  0  0  0  0  0
    9.6846  -14.7791   24.3488 O   0  0  0  0  0  0  0  0  0  0  0  0
    9.7061  -16.9640   24.9540 O   0  0  0  0  0  0  0  0  0  0  0  0
  2  1  1  6
  3  2  1  0
  4  3  1  0
  4  5  2  0
  6  2  1  0
  6  7  2  0
  8  4  1  0
 10  9  1  6
 10 12  1  0
 11 10  1  0
 12 13  1  6
 13  6  1  0
 14 12  1  0
 15 14  2  0
 16 17  1  0
 17 19  1  0
 17 18  2  0
 20 19  1  1
 20 22  1  0
 20 21  1  0
 21 14  1  0
 22 24  1  0
 23 22  2  0
M  END
$$$$
