DVN.pdb
     RDKit          3D

 24 23  0  0  1  0  0  0  0  0999 V2000
    8.8920  -17.2315   15.8815 N   0  0  0  0  0  0  0  0  0  0  0  0
    8.3258  -17.5060   17.1714 C   0  0  1  0  0  0  0  0  0  0  0  0
    8.5248  -18.9412   17.5254 C   0  0  0  0  0  0  0  0  0  0  0  0
    7.7162  -19.7987   16.6356 C   0  0  0  0  0  0  0  0  0  0  0  0
    6.6300  -19.3614   16.1944 O   0  0  0  0  0  0  0  0  0  0  0  0
    8.8661  -16.5774   18.1982 C   0  0  0  0  0  0  0  0  0  0  0  0
   10.1118  -16.4224   18.2729 O   0  0  0  0  0  0  0  0  0  0  0  0
    8.0992  -21.0749   16.2590 O   0  0  0  0  0  0  0  0  0  0  0  0
    7.2426  -13.0289   19.5350 C   0  0  0  0  0  0  0  0  0  0  0  0
    7.6078  -14.0096   20.6194 C   0  0  2  0  0  0  0  0  0  0  0  0
    8.0620  -13.2663   21.8324 C   0  0  0  0  0  0  0  0  0  0  0  0
    8.5902  -15.0556   20.1610 C   0  0  2  0  0  0  0  0  0  0  0  0
    8.0510  -15.8648   19.0890 N   0  0  0  0  0  0  0  0  0  0  0  0
    9.0538  -15.9073   21.2993 C   0  0  0  0  0  0  0  0  0  0  0  0
    8.3000  -16.7673   21.8197 O   0  0  0  0  0  0  0  0  0  0  0  0
   11.8481  -18.4350   20.8169 N   0  0  0  0  0  0  0  0  0  0  0  0
   12.7273  -17.6432   21.6378 C   0  0  0  0  0  0  0  0  0  0  0  0
   13.9031  -17.5691   21.2351 O   0  0  0  0  0  0  0  0  0  0  0  0
   12.2312  -16.9881   22.8530 C   0  0  0  0  0  0  0  0  0  0  0  0
   10.7843  -16.6932   22.9109 C   0  0  2  0  0  0  0  0  0  0  0  0
   10.3624  -15.7814   21.8398 N   0  0  0  0  0  0  0  0  0  0  0  0
   10.3620  -16.1960   24.2277 C   0  0  0  0  0  0  0  0  0  0  0  0
   10.1082  -14.9949   24.4158 O   0  0  0  0  0  0  0  0  0  0  0  0
   10.2317  -17.0689   25.3233 O   0  0  0  0  0  0  0  0  0  0  0  0
  2  1  1  6
  3  2  1  0
  4  3  1  0
  4  5  2  0
  6  2  1  0
  6  7  2  0
  8  4  1  0
 10  9  1  6
 10 12  1  0
 11 10  1  0
 12 13  1  6
 13  6  1  0
 14 12  1  0
 15 14  2  0
 16 17  1  0
 17 19  1  0
 17 18  2  0
 20 19  1  1
 20 22  1  0
 20 21  1  0
 21 14  1  0
 22 24  1  0
 23 22  2  0
M  END
$$$$
