DVN.pdb
     RDKit          3D

 24 23  0  0  1  0  0  0  0  0999 V2000
   11.2877  -16.1118   15.4323 N   0  0  0  0  0  0  0  0  0  0  0  0
   10.2459  -16.5765   16.3032 C   0  0  1  0  0  0  0  0  0  0  0  0
   10.3558  -18.0515   16.4951 C   0  0  0  0  0  0  0  0  0  0  0  0
   10.2670  -18.7395   15.1914 C   0  0  0  0  0  0  0  0  0  0  0  0
    9.3394  -18.4372   14.4079 O   0  0  0  0  0  0  0  0  0  0  0  0
   10.2495  -15.8251   17.5854 C   0  0  0  0  0  0  0  0  0  0  0  0
   11.3501  -15.4295   18.0474 O   0  0  0  0  0  0  0  0  0  0  0  0
   11.1647  -19.7121   14.7846 O   0  0  0  0  0  0  0  0  0  0  0  0
    8.0372  -12.7768   18.5634 C   0  0  0  0  0  0  0  0  0  0  0  0
    7.9808  -13.8172   19.6520 C   0  0  2  0  0  0  0  0  0  0  0  0
    7.8971  -13.1438   20.9823 C   0  0  0  0  0  0  0  0  0  0  0  0
    9.0993  -14.8225   19.5643 C   0  0  2  0  0  0  0  0  0  0  0  0
    9.0817  -15.5362   18.3053 N   0  0  0  0  0  0  0  0  0  0  0  0
    9.0763  -15.7692   20.7216 C   0  0  0  0  0  0  0  0  0  0  0  0
    8.4334  -16.8474   20.6697 O   0  0  0  0  0  0  0  0  0  0  0  0
    9.9079  -19.1713   21.5080 N   0  0  0  0  0  0  0  0  0  0  0  0
   11.1625  -18.5404   21.1888 C   0  0  0  0  0  0  0  0  0  0  0  0
   11.9087  -19.1965   20.4385 O   0  0  0  0  0  0  0  0  0  0  0  0
   11.4967  -17.2187   21.7307 C   0  0  0  0  0  0  0  0  0  0  0  0
   10.4912  -16.5807   22.6056 C   0  0  2  0  0  0  0  0  0  0  0  0
    9.7783  -15.4914   21.9261 N   0  0  0  0  0  0  0  0  0  0  0  0
   11.0606  -16.1267   23.8819 C   0  0  0  0  0  0  0  0  0  0  0  0
   11.5007  -16.9326   24.7182 O   0  0  0  0  0  0  0  0  0  0  0  0
   11.1250  -14.7576   24.1997 O   0  0  0  0  0  0  0  0  0  0  0  0
  2  1  1  6
  3  2  1  0
  4  3  1  0
  4  5  2  0
  6  2  1  0
  6  7  2  0
  8  4  1  0
 10  9  1  6
 10 12  1  0
 11 10  1  0
 12 13  1  6
 13  6  1  0
 14 12  1  0
 15 14  2  0
 16 17  1  0
 17 19  1  0
 17 18  2  0
 20 19  1  6
 20 22  1  0
 20 21  1  0
 21 14  1  0
 22 24  1  0
 23 22  2  0
M  END
$$$$
