LVQ.pdb
     RDKit          3D

 25 24  0  0  1  0  0  0  0  0999 V2000
   24.2038  -16.3954  -14.9204 C   0  0  0  0  0  0  0  0  0  0  0  0
   24.9786  -15.4626  -15.8183 C   0  0  2  0  0  0  0  0  0  0  0  0
   26.2882  -15.0507  -15.1827 C   0  0  0  0  0  0  0  0  0  0  0  0
   24.1438  -14.2684  -16.2138 C   0  0  0  0  0  0  0  0  0  0  0  0
   22.8554  -14.7457  -16.8030 C   0  0  2  0  0  0  0  0  0  0  0  0
   23.1082  -15.5667  -17.9540 N   0  0  0  0  0  0  0  0  0  0  0  0
   21.9910  -13.5795  -17.1853 C   0  0  0  0  0  0  0  0  0  0  0  0
   22.2386  -12.8635  -18.1781 O   0  0  0  0  0  0  0  0  0  0  0  0
   18.5697  -13.1568  -18.4790 C   0  0  0  0  0  0  0  0  0  0  0  0
   18.5998  -12.4819  -17.1225 C   0  0  2  0  0  0  0  0  0  0  0  0
   17.6999  -11.2724  -17.2617 C   0  0  0  0  0  0  0  0  0  0  0  0
   20.0078  -12.1283  -16.7442 C   0  0  2  0  0  0  0  0  0  0  0  0
   20.8509  -13.2304  -16.4413 N   0  0  0  0  0  0  0  0  0  0  0  0
   20.0185  -11.1022  -15.6381 C   0  0  0  0  0  0  0  0  0  0  0  0
   19.7047  -11.4134  -14.4635 O   0  0  0  0  0  0  0  0  0  0  0  0
   23.1038   -5.2657  -15.6019 N   0  0  0  0  0  0  0  0  0  0  0  0
   22.3327   -5.4366  -14.4068 C   0  0  0  0  0  0  0  0  0  0  0  0
   22.4309   -4.5048  -13.5781 O   0  0  0  0  0  0  0  0  0  0  0  0
   21.5007   -6.5928  -14.1589 C   0  0  0  0  0  0  0  0  0  0  0  0
   21.3701   -7.6593  -15.1578 C   0  0  0  0  0  0  0  0  0  0  0  0
   20.4397   -8.7802  -14.8456 C   0  0  2  0  0  0  0  0  0  0  0  0
   20.3844   -9.7591  -15.9018 N   0  0  0  0  0  0  0  0  0  0  0  0
   19.0934   -8.4331  -14.3816 C   0  0  0  0  0  0  0  0  0  0  0  0
   18.8323   -8.4193  -13.1556 O   0  0  0  0  0  0  0  0  0  0  0  0
   18.0489   -8.0993  -15.2517 O   0  0  0  0  0  0  0  0  0  0  0  0
  2  1  1  1
  2  3  1  0
  4  2  1  0
  5  4  1  0
  5  6  1  6
  7 13  1  0
  7  5  1  0
  8  7  2  0
 10  9  1  6
 10 12  1  0
 11 10  1  0
 12 14  1  0
 12 13  1  1
 14 15  2  0
 17 16  1  0
 17 19  1  0
 18 17  2  0
 20 19  1  0
 21 20  1  6
 22 21  1  0
 22 14  1  0
 23 21  1  0
 23 25  1  0
 24 23  2  0
M  END
$$$$
