LVQ.pdb
     RDKit          3D

 25 24  0  0  1  0  0  0  0  0999 V2000
   28.6616  -17.7129  -15.5897 C   0  0  0  0  0  0  0  0  0  0  0  0
   27.9266  -18.5172  -16.6335 C   0  0  2  0  0  0  0  0  0  0  0  0
   27.2862  -17.6186  -17.6685 C   0  0  0  0  0  0  0  0  0  0  0  0
   26.9230  -19.4484  -15.9970 C   0  0  0  0  0  0  0  0  0  0  0  0
   27.6034  -20.2470  -14.9321 C   0  0  2  0  0  0  0  0  0  0  0  0
   28.4160  -21.2736  -15.5224 N   0  0  0  0  0  0  0  0  0  0  0  0
   26.5900  -20.8620  -14.0111 C   0  0  0  0  0  0  0  0  0  0  0  0
   25.9882  -21.9194  -14.2930 O   0  0  0  0  0  0  0  0  0  0  0  0
   26.7157  -21.1199   -9.9483 C   0  0  0  0  0  0  0  0  0  0  0  0
   25.4491  -20.4586  -10.4533 C   0  0  2  0  0  0  0  0  0  0  0  0
   24.3417  -21.0013   -9.5751 C   0  0  0  0  0  0  0  0  0  0  0  0
   25.2464  -20.7576  -11.9093 C   0  0  2  0  0  0  0  0  0  0  0  0
   26.2636  -20.2762  -12.7760 N   0  0  0  0  0  0  0  0  0  0  0  0
   23.8778  -20.3081  -12.3580 C   0  0  0  0  0  0  0  0  0  0  0  0
   23.5982  -19.0889  -12.4603 O   0  0  0  0  0  0  0  0  0  0  0  0
   19.2204  -23.0410  -15.7137 N   0  0  0  0  0  0  0  0  0  0  0  0
   19.0648  -21.6674  -15.3377 C   0  0  0  0  0  0  0  0  0  0  0  0
   17.8918  -21.3228  -15.0730 O   0  0  0  0  0  0  0  0  0  0  0  0
   20.1677  -20.7353  -15.2666 C   0  0  0  0  0  0  0  0  0  0  0  0
   21.4385  -21.1131  -14.6382 C   0  0  0  0  0  0  0  0  0  0  0  0
   21.5898  -20.8413  -13.1812 C   0  0  2  0  0  0  0  0  0  0  0  0
   22.8738  -21.2561  -12.6752 N   0  0  0  0  0  0  0  0  0  0  0  0
   20.5094  -21.2826  -12.2945 C   0  0  0  0  0  0  0  0  0  0  0  0
   20.5182  -22.4418  -11.8174 O   0  0  0  0  0  0  0  0  0  0  0  0
   19.4365  -20.4602  -11.9312 O   0  0  0  0  0  0  0  0  0  0  0  0
  2  1  1  1
  2  3  1  0
  4  2  1  0
  5  4  1  0
  5  6  1  6
  7 13  1  0
  7  5  1  0
  8  7  2  0
 10  9  1  1
 10 12  1  0
 11 10  1  0
 12 14  1  0
 12 13  1  6
 14 15  2  0
 17 16  1  0
 17 19  1  0
 18 17  2  0
 20 19  1  0
 21 20  1  6
 22 21  1  0
 22 14  1  0
 23 21  1  0
 23 25  1  0
 24 23  2  0
M  END
$$$$
