LVQ.pdb
     RDKit          3D

 25 24  0  0  1  0  0  0  0  0999 V2000
   23.5121  -18.5160  -19.6212 C   0  0  0  0  0  0  0  0  0  0  0  0
   24.5453  -19.5915  -19.8506 C   0  0  2  0  0  0  0  0  0  0  0  0
   24.1538  -20.4921  -21.0015 C   0  0  0  0  0  0  0  0  0  0  0  0
   24.8072  -20.3741  -18.5863 C   0  0  0  0  0  0  0  0  0  0  0  0
   24.9631  -19.4214  -17.4448 C   0  0  2  0  0  0  0  0  0  0  0  0
   25.9991  -18.4684  -17.7297 N   0  0  0  0  0  0  0  0  0  0  0  0
   25.2852  -20.1662  -16.1819 C   0  0  0  0  0  0  0  0  0  0  0  0
   24.6210  -21.1535  -15.8025 O   0  0  0  0  0  0  0  0  0  0  0  0
   28.8171  -19.2229  -13.6866 C   0  0  0  0  0  0  0  0  0  0  0  0
   28.2357  -20.5932  -13.9708 C   0  0  2  0  0  0  0  0  0  0  0  0
   28.9864  -21.0980  -15.1848 C   0  0  0  0  0  0  0  0  0  0  0  0
   26.7548  -20.4988  -14.1911 C   0  0  2  0  0  0  0  0  0  0  0  0
   26.3575  -19.7890  -15.3555 N   0  0  0  0  0  0  0  0  0  0  0  0
   26.0674  -19.9680  -12.9573 C   0  0  0  0  0  0  0  0  0  0  0  0
   25.8490  -18.7404  -12.8156 O   0  0  0  0  0  0  0  0  0  0  0  0
   20.5713  -21.3429  -10.9866 N   0  0  0  0  0  0  0  0  0  0  0  0
   21.0910  -20.3409  -10.1045 C   0  0  0  0  0  0  0  0  0  0  0  0
   20.2742  -19.9031   -9.2644 O   0  0  0  0  0  0  0  0  0  0  0  0
   22.4524  -19.8585  -10.1675 C   0  0  0  0  0  0  0  0  0  0  0  0
   23.3838  -20.3521  -11.1880 C   0  0  0  0  0  0  0  0  0  0  0  0
   24.8313  -20.3833  -10.8368 C   0  0  2  0  0  0  0  0  0  0  0  0
   25.6515  -20.8473  -11.9271 N   0  0  0  0  0  0  0  0  0  0  0  0
   25.2092  -21.0378   -9.5810 C   0  0  0  0  0  0  0  0  0  0  0  0
   25.5917  -22.2316   -9.5817 O   0  0  0  0  0  0  0  0  0  0  0  0
   25.1737  -20.3886   -8.3414 O   0  0  0  0  0  0  0  0  0  0  0  0
  2  1  1  1
  2  3  1  0
  4  2  1  0
  5  4  1  0
  5  6  1  6
  7 13  1  0
  7  5  1  0
  8  7  2  0
 10  9  1  6
 10 12  1  0
 11 10  1  0
 12 14  1  0
 12 13  1  6
 14 15  2  0
 17 16  1  0
 17 19  1  0
 18 17  2  0
 20 19  1  0
 21 20  1  6
 22 21  1  0
 22 14  1  0
 23 21  1  0
 23 25  1  0
 24 23  2  0
M  END
$$$$
