LVQ.pdb
     RDKit          3D

 25 24  0  0  1  0  0  0  0  0999 V2000
   27.3332  -20.8840   -5.0073 C   0  0  0  0  0  0  0  0  0  0  0  0
   28.1867  -19.9395   -5.8173 C   0  0  2  0  0  0  0  0  0  0  0  0
   28.6872  -18.7894   -4.9714 C   0  0  0  0  0  0  0  0  0  0  0  0
   27.4519  -19.4580   -7.0452 C   0  0  0  0  0  0  0  0  0  0  0  0
   27.1665  -20.6258   -7.9339 C   0  0  2  0  0  0  0  0  0  0  0  0
   28.3588  -21.4007   -8.1358 N   0  0  0  0  0  0  0  0  0  0  0  0
   26.6290  -20.1588   -9.2554 C   0  0  0  0  0  0  0  0  0  0  0  0
   27.0641  -19.1381   -9.8287 O   0  0  0  0  0  0  0  0  0  0  0  0
   25.1720  -22.9651  -11.9342 C   0  0  0  0  0  0  0  0  0  0  0  0
   25.6642  -21.5739  -12.2792 C   0  0  2  0  0  0  0  0  0  0  0  0
   27.1721  -21.6924  -12.3452 C   0  0  0  0  0  0  0  0  0  0  0  0
   25.1954  -20.5832  -11.2550 C   0  0  2  0  0  0  0  0  0  0  0  0
   25.6019  -20.8500   -9.9204 N   0  0  0  0  0  0  0  0  0  0  0  0
   23.7025  -20.3870  -11.3506 C   0  0  0  0  0  0  0  0  0  0  0  0
   22.9392  -20.7693  -10.4307 O   0  0  0  0  0  0  0  0  0  0  0  0
   19.9730  -18.3405  -16.2348 N   0  0  0  0  0  0  0  0  0  0  0  0
   19.2570  -18.1839  -15.0039 C   0  0  0  0  0  0  0  0  0  0  0  0
   18.0267  -17.9969  -15.1297 O   0  0  0  0  0  0  0  0  0  0  0  0
   19.8921  -18.2329  -13.7060 C   0  0  0  0  0  0  0  0  0  0  0  0
   21.3192  -18.5460  -13.5731 C   0  0  0  0  0  0  0  0  0  0  0  0
   21.6984  -19.6197  -12.6124 C   0  0  2  0  0  0  0  0  0  0  0  0
   23.1267  -19.7644  -12.4856 N   0  0  0  0  0  0  0  0  0  0  0  0
   21.0508  -20.9255  -12.7664 C   0  0  0  0  0  0  0  0  0  0  0  0
   21.5990  -21.8258  -13.4451 O   0  0  0  0  0  0  0  0  0  0  0  0
   19.8206  -21.2413  -12.1781 O   0  0  0  0  0  0  0  0  0  0  0  0
  2  1  1  1
  2  3  1  0
  4  2  1  0
  5  4  1  0
  5  6  1  6
  7 13  1  0
  7  5  1  0
  8  7  2  0
 10  9  1  1
 10 12  1  0
 11 10  1  0
 12 14  1  0
 12 13  1  1
 14 15  2  0
 17 16  1  0
 17 19  1  0
 18 17  2  0
 20 19  1  0
 21 20  1  6
 22 21  1  0
 22 14  1  0
 23 21  1  0
 23 25  1  0
 24 23  2  0
M  END
$$$$
