LVQ.pdb
     RDKit          3D

 25 24  0  0  1  0  0  0  0  0999 V2000
   22.5749  -15.9591  -17.6463 C   0  0  0  0  0  0  0  0  0  0  0  0
   21.5461  -17.0627  -17.6303 C   0  0  2  0  0  0  0  0  0  0  0  0
   20.2475  -16.5936  -17.0119 C   0  0  0  0  0  0  0  0  0  0  0  0
   22.0822  -18.2976  -16.9469 C   0  0  0  0  0  0  0  0  0  0  0  0
   23.4389  -18.6086  -17.4924 C   0  0  2  0  0  0  0  0  0  0  0  0
   23.3248  -19.3041  -18.7438 N   0  0  0  0  0  0  0  0  0  0  0  0
   24.2186  -19.4384  -16.5143 C   0  0  0  0  0  0  0  0  0  0  0  0
   23.9603  -20.6426  -16.3070 O   0  0  0  0  0  0  0  0  0  0  0  0
   27.8220  -17.9223  -14.5572 C   0  0  0  0  0  0  0  0  0  0  0  0
   27.5299  -19.3773  -14.8643 C   0  0  2  0  0  0  0  0  0  0  0  0
   28.1460  -19.6263  -16.2247 C   0  0  0  0  0  0  0  0  0  0  0  0
   26.0522  -19.6336  -14.8310 C   0  0  2  0  0  0  0  0  0  0  0  0
   25.2866  -18.9002  -15.7761 N   0  0  0  0  0  0  0  0  0  0  0  0
   25.5154  -19.4631  -13.4313 C   0  0  0  0  0  0  0  0  0  0  0  0
   24.9205  -18.4122  -13.0897 O   0  0  0  0  0  0  0  0  0  0  0  0
   20.8733  -19.1040  -10.9730 N   0  0  0  0  0  0  0  0  0  0  0  0
   21.3184  -20.3802  -11.4479 C   0  0  0  0  0  0  0  0  0  0  0  0
   20.4069  -21.1507  -11.8220 O   0  0  0  0  0  0  0  0  0  0  0  0
   22.7109  -20.7663  -11.4958 C   0  0  0  0  0  0  0  0  0  0  0  0
   23.7693  -19.8329  -11.0947 C   0  0  0  0  0  0  0  0  0  0  0  0
   25.1720  -20.3340  -11.1246 C   0  0  2  0  0  0  0  0  0  0  0  0
   25.6715  -20.4898  -12.4674 N   0  0  0  0  0  0  0  0  0  0  0  0
   25.4886  -21.5091  -10.3079 C   0  0  0  0  0  0  0  0  0  0  0  0
   26.0308  -22.5123  -10.8287 O   0  0  0  0  0  0  0  0  0  0  0  0
   25.2194  -21.5799   -8.9360 O   0  0  0  0  0  0  0  0  0  0  0  0
  2  1  1  1
  2  3  1  0
  4  2  1  0
  5  4  1  0
  5  6  1  6
  7 13  1  0
  7  5  1  0
  8  7  2  0
 10  9  1  6
 10 12  1  0
 11 10  1  0
 12 14  1  0
 12 13  1  6
 14 15  2  0
 17 16  1  0
 17 19  1  0
 18 17  2  0
 20 19  1  0
 21 20  1  6
 22 21  1  0
 22 14  1  0
 23 21  1  0
 23 25  1  0
 24 23  2  0
M  END
$$$$
