LVQ.pdb
     RDKit          3D

 25 24  0  0  1  0  0  0  0  0999 V2000
   23.9391  -12.6785  -14.8513 C   0  0  0  0  0  0  0  0  0  0  0  0
   24.1213  -13.2391  -16.2403 C   0  0  2  0  0  0  0  0  0  0  0  0
   25.5825  -13.2753  -16.6304 C   0  0  0  0  0  0  0  0  0  0  0  0
   23.2878  -12.4829  -17.2468 C   0  0  0  0  0  0  0  0  0  0  0  0
   21.8723  -12.4297  -16.7685 C   0  0  2  0  0  0  0  0  0  0  0  0
   21.1189  -13.5205  -17.3211 N   0  0  0  0  0  0  0  0  0  0  0  0
   21.2392  -11.1237  -17.1516 C   0  0  0  0  0  0  0  0  0  0  0  0
   21.3637  -10.6320  -18.2929 O   0  0  0  0  0  0  0  0  0  0  0  0
   17.6136   -9.8877  -15.7009 C   0  0  0  0  0  0  0  0  0  0  0  0
   18.3574   -9.2668  -16.8662 C   0  0  2  0  0  0  0  0  0  0  0  0
   18.0662  -10.1682  -18.0473 C   0  0  0  0  0  0  0  0  0  0  0  0
   19.8209   -9.1573  -16.5554 C   0  0  2  0  0  0  0  0  0  0  0  0
   20.4686  -10.3815  -16.2403 N   0  0  0  0  0  0  0  0  0  0  0  0
   20.0612   -8.1139  -15.4924 C   0  0  0  0  0  0  0  0  0  0  0  0
   20.7510   -8.3719  -14.4763 O   0  0  0  0  0  0  0  0  0  0  0  0
   21.4755   -2.1307  -13.5959 N   0  0  0  0  0  0  0  0  0  0  0  0
   22.1608   -3.2621  -14.1458 C   0  0  0  0  0  0  0  0  0  0  0  0
   22.9860   -2.9923  -15.0463 O   0  0  0  0  0  0  0  0  0  0  0  0
   21.9275   -4.6200  -13.7074 C   0  0  0  0  0  0  0  0  0  0  0  0
   21.3965   -5.6317  -14.6276 C   0  0  0  0  0  0  0  0  0  0  0  0
   19.9152   -5.7454  -14.7400 C   0  0  2  0  0  0  0  0  0  0  0  0
   19.5111   -6.8142  -15.6182 N   0  0  0  0  0  0  0  0  0  0  0  0
   19.1619   -4.5206  -15.0237 C   0  0  0  0  0  0  0  0  0  0  0  0
   18.9429   -4.1744  -16.2085 O   0  0  0  0  0  0  0  0  0  0  0  0
   18.6500   -3.6898  -14.0201 O   0  0  0  0  0  0  0  0  0  0  0  0
  2  1  1  1
  2  3  1  0
  4  2  1  0
  5  4  1  0
  5  6  1  6
  7 13  1  0
  7  5  1  0
  8  7  2  0
 10  9  1  1
 10 12  1  0
 11 10  1  0
 12 14  1  0
 12 13  1  1
 14 15  2  0
 17 16  1  0
 17 19  1  0
 18 17  2  0
 20 19  1  0
 21 20  1  6
 22 21  1  0
 22 14  1  0
 23 21  1  0
 23 25  1  0
 24 23  2  0
M  END
$$$$
