LVQ.pdb
     RDKit          3D

 25 24  0  0  1  0  0  0  0  0999 V2000
   26.0873  -20.5979   -9.4104 C   0  0  0  0  0  0  0  0  0  0  0  0
   25.5639  -21.1644  -10.7073 C   0  0  2  0  0  0  0  0  0  0  0  0
   26.4448  -22.2863  -11.2114 C   0  0  0  0  0  0  0  0  0  0  0  0
   25.3843  -20.0802  -11.7424 C   0  0  0  0  0  0  0  0  0  0  0  0
   26.5439  -20.1074  -12.6856 C   0  0  2  0  0  0  0  0  0  0  0  0
   27.7683  -19.8615  -11.9762 N   0  0  0  0  0  0  0  0  0  0  0  0
   26.3633  -19.0818  -13.7668 C   0  0  0  0  0  0  0  0  0  0  0  0
   26.2862  -17.8600  -13.5202 O   0  0  0  0  0  0  0  0  0  0  0  0
   28.4735  -18.3117  -16.7752 C   0  0  0  0  0  0  0  0  0  0  0  0
   27.0805  -18.6041  -17.2957 C   0  0  2  0  0  0  0  0  0  0  0  0
   26.8428  -17.5818  -18.3869 C   0  0  0  0  0  0  0  0  0  0  0  0
   26.0775  -18.5224  -16.1832 C   0  0  2  0  0  0  0  0  0  0  0  0
   26.2711  -19.4454  -15.1212 N   0  0  0  0  0  0  0  0  0  0  0  0
   24.6726  -18.5925  -16.7289 C   0  0  0  0  0  0  0  0  0  0  0  0
   24.2074  -19.6660  -17.1829 O   0  0  0  0  0  0  0  0  0  0  0  0
   19.4075  -18.3377  -14.9548 N   0  0  0  0  0  0  0  0  0  0  0  0
   19.1180  -17.5517  -16.1169 C   0  0  0  0  0  0  0  0  0  0  0  0
   17.9223  -17.5731  -16.4835 O   0  0  0  0  0  0  0  0  0  0  0  0
   20.1194  -16.7875  -16.8264 C   0  0  0  0  0  0  0  0  0  0  0  0
   21.5218  -16.7933  -16.3955 C   0  0  0  0  0  0  0  0  0  0  0  0
   22.5036  -17.4962  -17.2682 C   0  0  2  0  0  0  0  0  0  0  0  0
   23.8439  -17.4434  -16.7410 N   0  0  0  0  0  0  0  0  0  0  0  0
   22.4897  -17.1750  -18.6982 C   0  0  0  0  0  0  0  0  0  0  0  0
   21.9846  -17.9756  -19.5200 O   0  0  0  0  0  0  0  0  0  0  0  0
   23.0176  -15.9877  -19.2187 O   0  0  0  0  0  0  0  0  0  0  0  0
  2  1  1  1
  2  3  1  0
  4  2  1  0
  5  4  1  0
  5  6  1  1
  7 13  1  0
  7  5  1  0
  8  7  2  0
 10  9  1  1
 10 12  1  0
 11 10  1  0
 12 14  1  0
 12 13  1  1
 14 15  2  0
 17 16  1  0
 17 19  1  0
 18 17  2  0
 20 19  1  0
 21 20  1  1
 22 21  1  0
 22 14  1  0
 23 21  1  0
 23 25  1  0
 24 23  2  0
M  END
$$$$
