LVQ.pdb
     RDKit          3D

 25 24  0  0  1  0  0  0  0  0999 V2000
   28.7978  -20.1237  -16.5060 C   0  0  0  0  0  0  0  0  0  0  0  0
   27.6765  -20.6796  -17.3487 C   0  0  2  0  0  0  0  0  0  0  0  0
   27.2935  -19.7208  -18.4544 C   0  0  0  0  0  0  0  0  0  0  0  0
   26.4900  -21.0590  -16.4955 C   0  0  0  0  0  0  0  0  0  0  0  0
   26.9558  -21.9183  -15.3643 C   0  0  2  0  0  0  0  0  0  0  0  0
   27.3526  -23.2099  -15.8510 N   0  0  0  0  0  0  0  0  0  0  0  0
   25.8692  -22.0686  -14.3395 C   0  0  0  0  0  0  0  0  0  0  0  0
   24.9925  -22.9542  -14.4227 O   0  0  0  0  0  0  0  0  0  0  0  0
   25.4379  -19.4414  -10.7409 C   0  0  0  0  0  0  0  0  0  0  0  0
   25.1920  -20.9331  -10.8461 C   0  0  2  0  0  0  0  0  0  0  0  0
   26.4983  -21.5798  -10.4370 C   0  0  0  0  0  0  0  0  0  0  0  0
   24.7649  -21.2970  -12.2374 C   0  0  2  0  0  0  0  0  0  0  0  0
   25.7813  -21.2154  -13.2262 N   0  0  0  0  0  0  0  0  0  0  0  0
   23.5384  -20.5147  -12.6379 C   0  0  0  0  0  0  0  0  0  0  0  0
   23.6013  -19.2809  -12.8589 O   0  0  0  0  0  0  0  0  0  0  0  0
   19.3843  -21.4117  -17.1516 N   0  0  0  0  0  0  0  0  0  0  0  0
   18.9068  -20.3413  -16.3279 C   0  0  0  0  0  0  0  0  0  0  0  0
   17.9245  -19.7191  -16.7888 O   0  0  0  0  0  0  0  0  0  0  0  0
   19.5042  -19.9908  -15.0588 C   0  0  0  0  0  0  0  0  0  0  0  0
   20.6741  -20.7136  -14.5477 C   0  0  0  0  0  0  0  0  0  0  0  0
   21.1045  -20.4204  -13.1519 C   0  0  2  0  0  0  0  0  0  0  0  0
   22.2835  -21.1581  -12.7739 N   0  0  0  0  0  0  0  0  0  0  0  0
   20.0850  -20.4872  -12.1010 C   0  0  0  0  0  0  0  0  0  0  0  0
   19.9686  -21.5194  -11.3992 O   0  0  0  0  0  0  0  0  0  0  0  0
   19.2088  -19.4324  -11.8198 O   0  0  0  0  0  0  0  0  0  0  0  0
  2  1  1  1
  2  3  1  0
  4  2  1  0
  5  4  1  0
  5  6  1  6
  7 13  1  0
  7  5  1  0
  8  7  2  0
 10  9  1  6
 10 12  1  0
 11 10  1  0
 12 14  1  0
 12 13  1  6
 14 15  2  0
 17 16  1  0
 17 19  1  0
 18 17  2  0
 20 19  1  0
 21 20  1  6
 22 21  1  0
 22 14  1  0
 23 21  1  0
 23 25  1  0
 24 23  2  0
M  END
$$$$
