LVQ.pdb
     RDKit          3D

 25 24  0  0  1  0  0  0  0  0999 V2000
   24.6491  -21.1101   -8.2116 C   0  0  0  0  0  0  0  0  0  0  0  0
   25.9581  -20.4050   -8.4685 C   0  0  2  0  0  0  0  0  0  0  0  0
   26.2178  -19.3346   -7.4314 C   0  0  0  0  0  0  0  0  0  0  0  0
   26.0139  -19.8543   -9.8732 C   0  0  0  0  0  0  0  0  0  0  0  0
   25.9166  -20.9851  -10.8462 C   0  0  2  0  0  0  0  0  0  0  0  0
   27.0644  -21.8407  -10.7316 N   0  0  0  0  0  0  0  0  0  0  0  0
   25.8063  -20.4609  -12.2485 C   0  0  0  0  0  0  0  0  0  0  0  0
   26.4101  -19.4349  -12.6259 O   0  0  0  0  0  0  0  0  0  0  0  0
   25.5357  -20.9502  -16.9531 C   0  0  0  0  0  0  0  0  0  0  0  0
   25.7592  -21.4545  -15.5416 C   0  0  2  0  0  0  0  0  0  0  0  0
   25.4166  -22.9285  -15.5888 C   0  0  0  0  0  0  0  0  0  0  0  0
   24.9148  -20.6842  -14.5699 C   0  0  2  0  0  0  0  0  0  0  0  0
   25.0128  -21.1012  -13.2157 N   0  0  0  0  0  0  0  0  0  0  0  0
   23.4796  -20.6392  -15.0332 C   0  0  0  0  0  0  0  0  0  0  0  0
   22.6701  -21.5459  -14.7212 O   0  0  0  0  0  0  0  0  0  0  0  0
   17.7049  -17.1739  -14.4380 N   0  0  0  0  0  0  0  0  0  0  0  0
   18.7747  -17.0079  -15.3761 C   0  0  0  0  0  0  0  0  0  0  0  0
   19.0221  -15.8224  -15.6893 O   0  0  0  0  0  0  0  0  0  0  0  0
   19.5210  -18.1148  -15.9313 C   0  0  0  0  0  0  0  0  0  0  0  0
   20.9410  -18.3045  -15.6150 C   0  0  0  0  0  0  0  0  0  0  0  0
   21.6277  -19.4778  -16.2243 C   0  0  2  0  0  0  0  0  0  0  0  0
   23.0121  -19.5680  -15.8341 N   0  0  0  0  0  0  0  0  0  0  0  0
   21.4761  -19.6760  -17.6686 C   0  0  0  0  0  0  0  0  0  0  0  0
   22.3307  -19.2157  -18.4620 O   0  0  0  0  0  0  0  0  0  0  0  0
   20.4040  -20.3758  -18.2344 O   0  0  0  0  0  0  0  0  0  0  0  0
  2  1  1  1
  2  3  1  0
  4  2  1  0
  5  4  1  0
  5  6  1  6
  7 13  1  0
  7  5  1  0
  8  7  2  0
 10  9  1  6
 10 12  1  0
 11 10  1  0
 12 14  1  0
 12 13  1  1
 14 15  2  0
 17 16  1  0
 17 19  1  0
 18 17  2  0
 20 19  1  0
 21 20  1  6
 22 21  1  0
 22 14  1  0
 23 21  1  0
 23 25  1  0
 24 23  2  0
M  END
$$$$
