LVQ.pdb
     RDKit          3D

 25 24  0  0  1  0  0  0  0  0999 V2000
   27.7143  -18.7838  -17.0105 C   0  0  0  0  0  0  0  0  0  0  0  0
   27.2634  -20.0380  -17.7178 C   0  0  2  0  0  0  0  0  0  0  0  0
   26.7568  -19.7311  -19.1100 C   0  0  0  0  0  0  0  0  0  0  0  0
   26.2409  -20.7881  -16.8985 C   0  0  0  0  0  0  0  0  0  0  0  0
   26.8581  -21.1947  -15.5990 C   0  0  2  0  0  0  0  0  0  0  0  0
   27.9657  -22.0794  -15.8293 N   0  0  0  0  0  0  0  0  0  0  0  0
   25.8400  -21.8655  -14.7233 C   0  0  0  0  0  0  0  0  0  0  0  0
   25.5719  -23.0811  -14.8237 O   0  0  0  0  0  0  0  0  0  0  0  0
   23.9470  -19.8092  -11.3351 C   0  0  0  0  0  0  0  0  0  0  0  0
   24.2456  -21.2913  -11.4389 C   0  0  2  0  0  0  0  0  0  0  0  0
   25.6214  -21.4617  -10.8304 C   0  0  0  0  0  0  0  0  0  0  0  0
   24.1737  -21.7416  -12.8681 C   0  0  2  0  0  0  0  0  0  0  0  0
   25.1310  -21.1561  -13.7388 N   0  0  0  0  0  0  0  0  0  0  0  0
   22.7713  -21.5881  -13.4031 C   0  0  0  0  0  0  0  0  0  0  0  0
   22.4588  -20.6138  -14.1297 O   0  0  0  0  0  0  0  0  0  0  0  0
   17.7054  -25.8741  -12.9225 N   0  0  0  0  0  0  0  0  0  0  0  0
   17.2736  -24.6248  -13.4748 C   0  0  0  0  0  0  0  0  0  0  0  0
   16.0636  -24.5768  -13.7880 O   0  0  0  0  0  0  0  0  0  0  0  0
   18.1560  -23.4954  -13.6655 C   0  0  0  0  0  0  0  0  0  0  0  0
   19.5821  -23.5846  -13.3329 C   0  0  0  0  0  0  0  0  0  0  0  0
   20.4065  -22.3574  -13.5170 C   0  0  2  0  0  0  0  0  0  0  0  0
   21.7720  -22.5443  -13.0958 N   0  0  0  0  0  0  0  0  0  0  0  0
   19.8670  -21.0958  -13.0017 C   0  0  0  0  0  0  0  0  0  0  0  0
   20.1205  -20.7332  -11.8288 O   0  0  0  0  0  0  0  0  0  0  0  0
   19.0647  -20.2403  -13.7658 O   0  0  0  0  0  0  0  0  0  0  0  0
  2  1  1  1
  2  3  1  0
  4  2  1  0
  5  4  1  0
  5  6  1  6
  7 13  1  0
  7  5  1  0
  8  7  2  0
 10  9  1  6
 10 12  1  0
 11 10  1  0
 12 14  1  0
 12 13  1  6
 14 15  2  0
 17 16  1  0
 17 19  1  0
 18 17  2  0
 20 19  1  0
 21 20  1  1
 22 21  1  0
 22 14  1  0
 23 21  1  0
 23 25  1  0
 24 23  2  0
M  END
$$$$
