LVQ.pdb
     RDKit          3D

 25 24  0  0  1  0  0  0  0  0999 V2000
   26.7604  -26.5361  -18.2771 C   0  0  0  0  0  0  0  0  0  0  0  0
   27.3949  -26.2980  -16.9290 C   0  0  2  0  0  0  0  0  0  0  0  0
   27.1686  -27.4711  -16.0009 C   0  0  0  0  0  0  0  0  0  0  0  0
   26.9172  -25.0000  -16.3236 C   0  0  0  0  0  0  0  0  0  0  0  0
   27.2868  -23.8714  -17.2317 C   0  0  2  0  0  0  0  0  0  0  0  0
   28.7116  -23.6906  -17.2465 N   0  0  0  0  0  0  0  0  0  0  0  0
   26.6141  -22.6037  -16.7916 C   0  0  0  0  0  0  0  0  0  0  0  0
   27.0941  -21.8678  -15.9040 O   0  0  0  0  0  0  0  0  0  0  0  0
   25.5428  -19.5725  -18.8595 C   0  0  0  0  0  0  0  0  0  0  0  0
   24.3200  -20.0974  -18.1342 C   0  0  2  0  0  0  0  0  0  0  0  0
   23.5626  -18.8638  -17.6907 C   0  0  0  0  0  0  0  0  0  0  0  0
   24.7272  -20.9810  -16.9923 C   0  0  2  0  0  0  0  0  0  0  0  0
   25.4014  -22.1761  -17.3589 N   0  0  0  0  0  0  0  0  0  0  0  0
   23.5489  -21.2632  -16.0931 C   0  0  0  0  0  0  0  0  0  0  0  0
   22.6604  -22.0834  -16.4289 O   0  0  0  0  0  0  0  0  0  0  0  0
   22.7989  -19.8477   -9.6796 N   0  0  0  0  0  0  0  0  0  0  0  0
   21.5607  -20.2921  -10.2468 C   0  0  0  0  0  0  0  0  0  0  0  0
   20.6066  -20.3618   -9.4410 O   0  0  0  0  0  0  0  0  0  0  0  0
   21.4077  -20.6403  -11.6417 C   0  0  0  0  0  0  0  0  0  0  0  0
   22.5327  -20.5307  -12.5769 C   0  0  0  0  0  0  0  0  0  0  0  0
   22.2571  -20.8042  -14.0152 C   0  0  2  0  0  0  0  0  0  0  0  0
   23.4187  -20.6058  -14.8448 N   0  0  0  0  0  0  0  0  0  0  0  0
   21.0746  -20.1743  -14.6096 C   0  0  0  0  0  0  0  0  0  0  0  0
   19.9832  -20.7899  -14.6470 O   0  0  0  0  0  0  0  0  0  0  0  0
   21.0883  -18.8832  -15.1502 O   0  0  0  0  0  0  0  0  0  0  0  0
  2  1  1  6
  2  3  1  0
  4  2  1  0
  5  4  1  0
  5  6  1  1
  7 13  1  0
  7  5  1  0
  8  7  2  0
 10  9  1  1
 10 12  1  0
 11 10  1  0
 12 14  1  0
 12 13  1  6
 14 15  2  0
 17 16  1  0
 17 19  1  0
 18 17  2  0
 20 19  1  0
 21 20  1  1
 22 21  1  0
 22 14  1  0
 23 21  1  0
 23 25  1  0
 24 23  2  0
M  END
$$$$
