LVQ.pdb
     RDKit          3D

 25 24  0  0  1  0  0  0  0  0999 V2000
   25.8910  -14.4700  -15.4179 C   0  0  0  0  0  0  0  0  0  0  0  0
   26.3871  -15.3767  -16.5171 C   0  0  2  0  0  0  0  0  0  0  0  0
   26.0867  -14.7990  -17.8827 C   0  0  0  0  0  0  0  0  0  0  0  0
   25.8352  -16.7735  -16.3621 C   0  0  0  0  0  0  0  0  0  0  0  0
   26.0371  -17.2255  -14.9515 C   0  0  2  0  0  0  0  0  0  0  0  0
   27.4391  -17.3384  -14.6608 N   0  0  0  0  0  0  0  0  0  0  0  0
   25.3585  -18.5447  -14.7225 C   0  0  0  0  0  0  0  0  0  0  0  0
   24.5984  -19.0591  -15.5694 O   0  0  0  0  0  0  0  0  0  0  0  0
   25.3660  -20.6551  -10.8288 C   0  0  0  0  0  0  0  0  0  0  0  0
   25.5648  -21.3305  -12.1708 C   0  0  2  0  0  0  0  0  0  0  0  0
   27.0646  -21.4640  -12.3287 C   0  0  0  0  0  0  0  0  0  0  0  0
   24.9269  -20.5240  -13.2631 C   0  0  2  0  0  0  0  0  0  0  0  0
   25.5443  -19.2743  -13.5357 N   0  0  0  0  0  0  0  0  0  0  0  0
   23.4472  -20.3679  -13.0127 C   0  0  0  0  0  0  0  0  0  0  0  0
   23.0174  -19.5538  -12.1599 O   0  0  0  0  0  0  0  0  0  0  0  0
   18.9752  -19.5586  -11.7045 N   0  0  0  0  0  0  0  0  0  0  0  0
   18.5832  -19.0231  -12.9741 C   0  0  0  0  0  0  0  0  0  0  0  0
   17.3826  -18.6817  -13.0543 O   0  0  0  0  0  0  0  0  0  0  0  0
   19.4919  -18.8829  -14.0898 C   0  0  0  0  0  0  0  0  0  0  0  0
   20.8817  -19.3435  -13.9963 C   0  0  0  0  0  0  0  0  0  0  0  0
   21.1071  -20.7949  -13.7467 C   0  0  2  0  0  0  0  0  0  0  0  0
   22.5063  -21.1402  -13.7377 N   0  0  0  0  0  0  0  0  0  0  0  0
   20.3372  -21.7477  -14.5514 C   0  0  0  0  0  0  0  0  0  0  0  0
   20.8894  -22.3765  -15.4848 O   0  0  0  0  0  0  0  0  0  0  0  0
   18.9804  -22.0116  -14.3306 O   0  0  0  0  0  0  0  0  0  0  0  0
  2  1  1  1
  2  3  1  0
  4  2  1  0
  5  4  1  0
  5  6  1  6
  7 13  1  0
  7  5  1  0
  8  7  2  0
 10  9  1  1
 10 12  1  0
 11 10  1  0
 12 14  1  0
 12 13  1  1
 14 15  2  0
 17 16  1  0
 17 19  1  0
 18 17  2  0
 20 19  1  0
 21 20  1  6
 22 21  1  0
 22 14  1  0
 23 21  1  0
 23 25  1  0
 24 23  2  0
M  END
$$$$
