HDD.pdb
     RDKit          3D

 27 27  0  0  1  0  0  0  0  0999 V2000
   10.7678  -14.9256   18.2751 N   0  0  0  0  0  0  0  0  0  0  0  0
   10.5224  -14.3423   19.5761 C   0  0  1  0  0  0  0  0  0  0  0  0
    9.0355  -14.4895   19.9052 C   0  0  0  0  0  0  0  0  0  0  0  0
    8.2567  -14.0913   18.7050 C   0  0  0  0  0  0  0  0  0  0  0  0
    7.8476  -12.8128   18.3891 C   0  0  0  0  0  0  0  0  0  0  0  0
    7.1667  -12.8188   17.2362 N   0  0  0  0  0  0  0  0  0  0  0  0
    7.1384  -14.0942   16.8135 C   0  0  0  0  0  0  0  0  0  0  0  0
    7.8028  -14.8645   17.7103 N   0  0  0  0  0  0  0  0  0  0  0  0
   11.2891  -15.0801   20.5982 C   0  0  0  0  0  0  0  0  0  0  0  0
   11.1518  -14.7928   21.8051 O   0  0  0  0  0  0  0  0  0  0  0  0
   12.1628  -16.1006   20.1534 N   0  0  0  0  0  0  0  0  0  0  0  0
   12.9621  -16.8601   21.0643 C   0  0  1  0  0  0  0  0  0  0  0  0
   12.8013  -18.3339   20.9007 C   0  0  0  0  0  0  0  0  0  0  0  0
   11.3804  -18.7184   21.1895 C   0  0  0  0  0  0  0  0  0  0  0  0
   10.8222  -18.2290   22.1931 O   0  0  0  0  0  0  0  0  0  0  0  0
   14.4180  -16.5047   21.0231 C   0  0  0  0  0  0  0  0  0  0  0  0
   15.0407  -16.3607   19.9220 O   0  0  0  0  0  0  0  0  0  0  0  0
   10.7119  -19.6032   20.3471 O   0  0  0  0  0  0  0  0  0  0  0  0
   15.0862  -16.3316   22.2582 N   0  0  0  0  0  0  0  0  0  0  0  0
   16.5045  -16.0743   22.2663 C   0  0  1  0  0  0  0  0  0  0  0  0
   16.7214  -14.5887   22.4080 C   0  0  0  0  0  0  0  0  0  0  0  0
   18.1250  -14.1657   22.3959 C   0  0  0  0  0  0  0  0  0  0  0  0
   18.7803  -14.0706   23.4478 O   0  0  0  0  0  0  0  0  0  0  0  0
   17.1882  -16.8413   23.3227 C   0  0  0  0  0  0  0  0  0  0  0  0
   16.6650  -16.8992   24.5946 O   0  0  0  0  0  0  0  0  0  0  0  0
   18.7411  -13.8647   21.1985 O   0  0  0  0  0  0  0  0  0  0  0  0
   18.2498  -17.4461   23.0730 O   0  0  0  0  0  0  0  0  0  0  0  0
  2  1  1  6
  2  3  1  0
  3  4  1  0
  4  8  1  0
  4  5  2  0
  5  6  1  0
  7  6  1  0
  8  7  2  0
  9  2  1  0
  9 11  1  0
 10  9  2  0
 12 11  1  0
 12 16  1  0
 12 13  1  6
 14 13  1  0
 15 14  2  0
 16 19  1  0
 17 16  2  0
 18 14  1  0
 19 20  1  0
 20 21  1  1
 20 24  1  0
 22 26  1  0
 22 21  1  0
 23 22  2  0
 24 25  1  0
 27 24  2  0
M  END
$$$$
