HDD.pdb
     RDKit          3D

 27 27  0  0  1  0  0  0  0  0999 V2000
    8.0680  -17.4030   18.7344 N   0  0  0  0  0  0  0  0  0  0  0  0
    9.1981  -16.6312   19.2039 C   0  0  1  0  0  0  0  0  0  0  0  0
    8.7035  -15.6222   20.2422 C   0  0  0  0  0  0  0  0  0  0  0  0
    8.0291  -14.5128   19.5211 C   0  0  0  0  0  0  0  0  0  0  0  0
    7.8614  -14.4143   18.1558 C   0  0  0  0  0  0  0  0  0  0  0  0
    7.2105  -13.2843   17.8522 N   0  0  0  0  0  0  0  0  0  0  0  0
    6.9614  -12.6599   19.0159 C   0  0  0  0  0  0  0  0  0  0  0  0
    7.4612  -13.4111   20.0282 N   0  0  0  0  0  0  0  0  0  0  0  0
   10.1645  -17.5280   19.8664 C   0  0  0  0  0  0  0  0  0  0  0  0
    9.8988  -18.7407   19.9956 O   0  0  0  0  0  0  0  0  0  0  0  0
   11.3730  -16.9595   20.3344 N   0  0  0  0  0  0  0  0  0  0  0  0
   12.4391  -17.7657   20.8433 C   0  0  1  0  0  0  0  0  0  0  0  0
   13.7636  -17.4390   20.2401 C   0  0  0  0  0  0  0  0  0  0  0  0
   14.7991  -18.3933   20.7572 C   0  0  0  0  0  0  0  0  0  0  0  0
   14.5178  -19.6084   20.8086 O   0  0  0  0  0  0  0  0  0  0  0  0
   12.5469  -17.7416   22.3384 C   0  0  0  0  0  0  0  0  0  0  0  0
   13.2097  -16.8408   22.9470 O   0  0  0  0  0  0  0  0  0  0  0  0
   16.0426  -17.9188   21.1671 O   0  0  0  0  0  0  0  0  0  0  0  0
   11.8820  -18.7605   23.0605 N   0  0  0  0  0  0  0  0  0  0  0  0
   11.9687  -18.7810   24.4993 C   0  0  1  0  0  0  0  0  0  0  0  0
   13.4178  -18.6462   24.8941 C   0  0  0  0  0  0  0  0  0  0  0  0
   14.0643  -19.8959   25.3061 C   0  0  0  0  0  0  0  0  0  0  0  0
   14.0510  -20.9016   24.5758 O   0  0  0  0  0  0  0  0  0  0  0  0
   11.1252  -17.7371   25.1078 C   0  0  0  0  0  0  0  0  0  0  0  0
   10.5239  -16.7788   24.3236 O   0  0  0  0  0  0  0  0  0  0  0  0
   14.7032  -19.9683   26.5270 O   0  0  0  0  0  0  0  0  0  0  0  0
   10.9483  -17.7126   26.3420 O   0  0  0  0  0  0  0  0  0  0  0  0
  2  1  1  1
  2  3  1  0
  3  4  1  0
  4  8  1  0
  4  5  2  0
  5  6  1  0
  7  6  1  0
  8  7  2  0
  9  2  1  0
  9 11  1  0
 10  9  2  0
 12 11  1  0
 12 16  1  0
 12 13  1  6
 14 13  1  0
 15 14  2  0
 16 19  1  0
 17 16  2  0
 18 14  1  0
 19 20  1  0
 20 21  1  6
 20 24  1  0
 22 26  1  0
 22 21  1  0
 23 22  2  0
 24 25  1  0
 27 24  2  0
M  END
$$$$
