HDD.pdb
     RDKit          3D

 27 27  0  0  1  0  0  0  0  0999 V2000
    7.3299  -19.6819   19.2337 N   0  0  0  0  0  0  0  0  0  0  0  0
    8.5390  -19.4324   19.9878 C   0  0  1  0  0  0  0  0  0  0  0  0
    9.0533  -18.0344   19.6386 C   0  0  0  0  0  0  0  0  0  0  0  0
    9.4025  -18.0197   18.1952 C   0  0  0  0  0  0  0  0  0  0  0  0
   10.3732  -18.7868   17.5860 C   0  0  0  0  0  0  0  0  0  0  0  0
   10.4179  -18.5171   16.2753 N   0  0  0  0  0  0  0  0  0  0  0  0
    9.4812  -17.5818   16.0434 C   0  0  0  0  0  0  0  0  0  0  0  0
    8.8662  -17.2824   17.2142 N   0  0  0  0  0  0  0  0  0  0  0  0
    8.2321  -19.4562   21.4308 C   0  0  0  0  0  0  0  0  0  0  0  0
    7.6073  -18.5077   21.9486 O   0  0  0  0  0  0  0  0  0  0  0  0
    8.6695  -20.5767   22.1763 N   0  0  0  0  0  0  0  0  0  0  0  0
    8.4323  -20.6871   23.5824 C   0  0  1  0  0  0  0  0  0  0  0  0
    7.4369  -21.7419   23.9303 C   0  0  0  0  0  0  0  0  0  0  0  0
    7.1027  -21.6541   25.3901 C   0  0  0  0  0  0  0  0  0  0  0  0
    7.5902  -20.7193   26.0585 O   0  0  0  0  0  0  0  0  0  0  0  0
    9.6816  -20.8888   24.3862 C   0  0  0  0  0  0  0  0  0  0  0  0
   10.2963  -22.0038   24.3990 O   0  0  0  0  0  0  0  0  0  0  0  0
    6.2652  -22.6022   25.9725 O   0  0  0  0  0  0  0  0  0  0  0  0
   10.1625  -19.7908   25.1378 N   0  0  0  0  0  0  0  0  0  0  0  0
   11.3968  -19.9206   25.8712 C   0  0  1  0  0  0  0  0  0  0  0  0
   12.3014  -18.7745   25.4937 C   0  0  0  0  0  0  0  0  0  0  0  0
   13.6163  -19.1694   24.9795 C   0  0  0  0  0  0  0  0  0  0  0  0
   14.0015  -20.3501   25.0290 O   0  0  0  0  0  0  0  0  0  0  0  0
   11.1592  -19.9887   27.3240 C   0  0  0  0  0  0  0  0  0  0  0  0
   12.1660  -20.3741   28.1798 O   0  0  0  0  0  0  0  0  0  0  0  0
   14.4511  -18.2195   24.4275 O   0  0  0  0  0  0  0  0  0  0  0  0
   10.0407  -19.6969   27.7920 O   0  0  0  0  0  0  0  0  0  0  0  0
  2  1  1  6
  2  3  1  0
  3  4  1  0
  4  8  1  0
  4  5  2  0
  5  6  1  0
  7  6  1  0
  8  7  2  0
  9  2  1  0
  9 11  1  0
 10  9  2  0
 12 11  1  0
 12 16  1  0
 12 13  1  6
 14 13  1  0
 15 14  2  0
 16 19  1  0
 17 16  2  0
 18 14  1  0
 19 20  1  0
 20 21  1  1
 20 24  1  0
 22 26  1  0
 22 21  1  0
 23 22  2  0
 24 25  1  0
 27 24  2  0
M  END
$$$$
