HDD.pdb
     RDKit          3D

 27 27  0  0  1  0  0  0  0  0999 V2000
    9.8137  -15.6080   20.3298 N   0  0  0  0  0  0  0  0  0  0  0  0
    9.0054  -16.7462   19.9501 C   0  0  1  0  0  0  0  0  0  0  0  0
    8.3778  -16.4660   18.5832 C   0  0  0  0  0  0  0  0  0  0  0  0
    7.8528  -15.0768   18.5937 C   0  0  0  0  0  0  0  0  0  0  0  0
    8.0283  -14.1494   19.5991 C   0  0  0  0  0  0  0  0  0  0  0  0
    7.4197  -13.0009   19.2775 N   0  0  0  0  0  0  0  0  0  0  0  0
    6.8562  -13.1892   18.0720 C   0  0  0  0  0  0  0  0  0  0  0  0
    7.1224  -14.4535   17.6602 N   0  0  0  0  0  0  0  0  0  0  0  0
    9.8653  -17.9380   19.8194 C   0  0  0  0  0  0  0  0  0  0  0  0
    9.3793  -19.0127   19.4109 O   0  0  0  0  0  0  0  0  0  0  0  0
   11.2296  -17.8046   20.1708 N   0  0  0  0  0  0  0  0  0  0  0  0
   12.0970  -18.9372   20.2729 C   0  0  1  0  0  0  0  0  0  0  0  0
   13.2417  -18.8897   19.3179 C   0  0  0  0  0  0  0  0  0  0  0  0
   12.7488  -19.1737   17.9298 C   0  0  0  0  0  0  0  0  0  0  0  0
   11.9442  -20.1135   17.7631 O   0  0  0  0  0  0  0  0  0  0  0  0
   12.6093  -19.1756   21.6615 C   0  0  0  0  0  0  0  0  0  0  0  0
   13.6383  -18.5730   22.1078 O   0  0  0  0  0  0  0  0  0  0  0  0
   13.1882  -18.3969   16.8607 O   0  0  0  0  0  0  0  0  0  0  0  0
   11.9067  -20.0999   22.4702 N   0  0  0  0  0  0  0  0  0  0  0  0
   12.3530  -20.3433   23.8191 C   0  0  1  0  0  0  0  0  0  0  0  0
   11.2533  -21.0545   24.5668 C   0  0  0  0  0  0  0  0  0  0  0  0
   11.5686  -21.3872   25.9593 C   0  0  0  0  0  0  0  0  0  0  0  0
   12.6804  -21.1264   26.4501 O   0  0  0  0  0  0  0  0  0  0  0  0
   13.6204  -21.0948   23.8431 C   0  0  0  0  0  0  0  0  0  0  0  0
   14.7396  -20.5592   24.4392 O   0  0  0  0  0  0  0  0  0  0  0  0
   10.6197  -22.0022   26.7501 O   0  0  0  0  0  0  0  0  0  0  0  0
   13.6902  -22.2257   23.3223 O   0  0  0  0  0  0  0  0  0  0  0  0
  2  1  1  6
  2  3  1  0
  3  4  1  0
  4  8  1  0
  4  5  2  0
  5  6  1  0
  7  6  1  0
  8  7  2  0
  9  2  1  0
  9 11  1  0
 10  9  2  0
 12 11  1  0
 12 16  1  0
 12 13  1  6
 14 13  1  0
 15 14  2  0
 16 19  1  0
 17 16  2  0
 18 14  1  0
 19 20  1  0
 20 21  1  1
 20 24  1  0
 22 26  1  0
 22 21  1  0
 23 22  2  0
 24 25  1  0
 27 24  2  0
M  END
$$$$
