HDD.pdb
     RDKit          3D

 27 27  0  0  1  0  0  0  0  0999 V2000
    8.7734  -21.4230   15.8860 N   0  0  0  0  0  0  0  0  0  0  0  0
    9.8344  -21.1688   16.8360 C   0  0  1  0  0  0  0  0  0  0  0  0
   10.0073  -19.6557   16.9826 C   0  0  0  0  0  0  0  0  0  0  0  0
    8.6817  -19.0703   17.3075 C   0  0  0  0  0  0  0  0  0  0  0  0
    7.7036  -18.7201   16.4006 C   0  0  0  0  0  0  0  0  0  0  0  0
    6.6385  -18.2224   17.0414 N   0  0  0  0  0  0  0  0  0  0  0  0
    6.9304  -18.2525   18.3528 C   0  0  0  0  0  0  0  0  0  0  0  0
    8.1744  -18.7691   18.5097 N   0  0  0  0  0  0  0  0  0  0  0  0
    9.4548  -21.7125   18.1540 C   0  0  0  0  0  0  0  0  0  0  0  0
    8.2488  -21.8302   18.4533 O   0  0  0  0  0  0  0  0  0  0  0  0
   10.4976  -22.0829   19.0361 N   0  0  0  0  0  0  0  0  0  0  0  0
   10.2336  -22.5706   20.3545 C   0  0  1  0  0  0  0  0  0  0  0  0
   10.6174  -23.9998   20.5410 C   0  0  0  0  0  0  0  0  0  0  0  0
   12.0431  -24.1956   20.1172 C   0  0  0  0  0  0  0  0  0  0  0  0
   12.8213  -23.2212   20.1736 O   0  0  0  0  0  0  0  0  0  0  0  0
   10.8529  -21.7376   21.4361 C   0  0  0  0  0  0  0  0  0  0  0  0
   11.8991  -21.0420   21.2290 O   0  0  0  0  0  0  0  0  0  0  0  0
   12.4739  -25.4431   19.6729 O   0  0  0  0  0  0  0  0  0  0  0  0
   10.2327  -21.7471   22.7077 N   0  0  0  0  0  0  0  0  0  0  0  0
   10.8002  -20.9666   23.7786 C   0  0  1  0  0  0  0  0  0  0  0  0
    9.6791  -20.4730   24.6582 C   0  0  0  0  0  0  0  0  0  0  0  0
    8.6049  -19.7682   23.9522 C   0  0  0  0  0  0  0  0  0  0  0  0
    8.8519  -18.8530   23.1481 O   0  0  0  0  0  0  0  0  0  0  0  0
   11.8058  -21.7341   24.5344 C   0  0  0  0  0  0  0  0  0  0  0  0
   12.5187  -21.1408   25.5517 O   0  0  0  0  0  0  0  0  0  0  0  0
    7.2896  -20.1195   24.1770 O   0  0  0  0  0  0  0  0  0  0  0  0
   12.0204  -22.9311   24.2583 O   0  0  0  0  0  0  0  0  0  0  0  0
  2  1  1  6
  2  3  1  0
  3  4  1  0
  4  8  1  0
  4  5  2  0
  5  6  1  0
  7  6  1  0
  8  7  2  0
  9  2  1  0
  9 11  1  0
 10  9  2  0
 12 11  1  0
 12 16  1  0
 12 13  1  6
 14 13  1  0
 15 14  2  0
 16 19  1  0
 17 16  2  0
 18 14  1  0
 19 20  1  0
 20 21  1  1
 20 24  1  0
 22 26  1  0
 22 21  1  0
 23 22  2  0
 24 25  1  0
 27 24  2  0
M  END
$$$$
