HDD.pdb
     RDKit          3D

 27 27  0  0  1  0  0  0  0  0999 V2000
    8.9243  -17.0811   18.6951 N   0  0  0  0  0  0  0  0  0  0  0  0
    9.7426  -16.4511   19.7083 C   0  0  1  0  0  0  0  0  0  0  0  0
    8.8267  -15.7184   20.6906 C   0  0  0  0  0  0  0  0  0  0  0  0
    8.1259  -14.6391   19.9492 C   0  0  0  0  0  0  0  0  0  0  0  0
    8.2686  -14.3492   18.6086 C   0  0  0  0  0  0  0  0  0  0  0  0
    7.4873  -13.3141   18.2756 N   0  0  0  0  0  0  0  0  0  0  0  0
    6.8461  -12.9408   19.3961 C   0  0  0  0  0  0  0  0  0  0  0  0
    7.2379  -13.7497   20.4115 N   0  0  0  0  0  0  0  0  0  0  0  0
   10.4788  -17.4861   20.4592 C   0  0  0  0  0  0  0  0  0  0  0  0
    9.9061  -18.5488   20.7763 O   0  0  0  0  0  0  0  0  0  0  0  0
   11.8283  -17.2201   20.7918 N   0  0  0  0  0  0  0  0  0  0  0  0
   12.8065  -18.2609   20.8669 C   0  0  1  0  0  0  0  0  0  0  0  0
   12.8437  -19.1225   19.6499 C   0  0  0  0  0  0  0  0  0  0  0  0
   13.8590  -20.2109   19.8370 C   0  0  0  0  0  0  0  0  0  0  0  0
   15.0137  -19.8951   20.1907 O   0  0  0  0  0  0  0  0  0  0  0  0
   14.1870  -17.7639   21.1744 C   0  0  0  0  0  0  0  0  0  0  0  0
   14.7927  -16.9511   20.4040 O   0  0  0  0  0  0  0  0  0  0  0  0
   13.5058  -21.5399   19.6170 O   0  0  0  0  0  0  0  0  0  0  0  0
   14.8030  -18.2298   22.3599 N   0  0  0  0  0  0  0  0  0  0  0  0
   15.6820  -17.3535   23.0931 C   0  0  1  0  0  0  0  0  0  0  0  0
   15.6035  -17.7104   24.5562 C   0  0  0  0  0  0  0  0  0  0  0  0
   15.7939  -16.5856   25.4770 C   0  0  0  0  0  0  0  0  0  0  0  0
   16.0667  -15.4473   25.0590 O   0  0  0  0  0  0  0  0  0  0  0  0
   17.0611  -17.4140   22.5772 C   0  0  0  0  0  0  0  0  0  0  0  0
   17.4947  -18.5110   21.8676 O   0  0  0  0  0  0  0  0  0  0  0  0
   15.6701  -16.7832   26.8370 O   0  0  0  0  0  0  0  0  0  0  0  0
   17.8495  -16.4693   22.7796 O   0  0  0  0  0  0  0  0  0  0  0  0
  2  1  1  6
  2  3  1  0
  3  4  1  0
  4  8  1  0
  4  5  2  0
  5  6  1  0
  7  6  1  0
  8  7  2  0
  9  2  1  0
  9 11  1  0
 10  9  2  0
 12 11  1  0
 12 16  1  0
 12 13  1  6
 14 13  1  0
 15 14  2  0
 16 19  1  0
 17 16  2  0
 18 14  1  0
 19 20  1  0
 20 21  1  1
 20 24  1  0
 22 26  1  0
 22 21  1  0
 23 22  2  0
 24 25  1  0
 27 24  2  0
M  END
$$$$
