HDD.pdb
     RDKit          3D

 27 27  0  0  1  0  0  0  0  0999 V2000
   13.7739  -14.0314   16.8787 N   0  0  0  0  0  0  0  0  0  0  0  0
   14.5794  -14.4946   17.9875 C   0  0  1  0  0  0  0  0  0  0  0  0
   15.6787  -13.4651   18.2570 C   0  0  0  0  0  0  0  0  0  0  0  0
   16.6731  -13.5551   17.1577 C   0  0  0  0  0  0  0  0  0  0  0  0
   17.1159  -12.5097   16.3749 C   0  0  0  0  0  0  0  0  0  0  0  0
   18.0111  -12.9503   15.4818 N   0  0  0  0  0  0  0  0  0  0  0  0
   18.1427  -14.2714   15.6895 C   0  0  0  0  0  0  0  0  0  0  0  0
   17.3268  -14.6348   16.7099 N   0  0  0  0  0  0  0  0  0  0  0  0
   13.7408  -14.5910   19.1977 C   0  0  0  0  0  0  0  0  0  0  0  0
   12.7137  -13.8891   19.2991 O   0  0  0  0  0  0  0  0  0  0  0  0
   14.1486  -15.4938   20.2083 N   0  0  0  0  0  0  0  0  0  0  0  0
   13.3173  -15.7936   21.3329 C   0  0  1  0  0  0  0  0  0  0  0  0
   11.9367  -16.2085   20.9503 C   0  0  0  0  0  0  0  0  0  0  0  0
   11.1387  -16.4967   22.1875 C   0  0  0  0  0  0  0  0  0  0  0  0
   11.1149  -15.6398   23.0950 O   0  0  0  0  0  0  0  0  0  0  0  0
   13.9099  -16.8109   22.2611 C   0  0  0  0  0  0  0  0  0  0  0  0
   13.8225  -18.0597   22.0289 O   0  0  0  0  0  0  0  0  0  0  0  0
   10.4450  -17.6984   22.3062 O   0  0  0  0  0  0  0  0  0  0  0  0
   14.5770  -16.3362   23.4150 N   0  0  0  0  0  0  0  0  0  0  0  0
   15.3441  -17.2552   24.2181 C   0  0  1  0  0  0  0  0  0  0  0  0
   16.6091  -16.5640   24.6611 C   0  0  0  0  0  0  0  0  0  0  0  0
   17.4679  -16.0904   23.5715 C   0  0  0  0  0  0  0  0  0  0  0  0
   17.3580  -16.5427   22.4189 O   0  0  0  0  0  0  0  0  0  0  0  0
   14.5593  -17.7655   25.3562 C   0  0  0  0  0  0  0  0  0  0  0  0
   15.0700  -18.7490   26.1728 O   0  0  0  0  0  0  0  0  0  0  0  0
   18.4207  -15.1236   23.8189 O   0  0  0  0  0  0  0  0  0  0  0  0
   13.4224  -17.3096   25.5901 O   0  0  0  0  0  0  0  0  0  0  0  0
  2  1  1  6
  2  3  1  0
  3  4  1  0
  4  8  1  0
  4  5  2  0
  5  6  1  0
  7  6  1  0
  8  7  2  0
  9  2  1  0
  9 11  1  0
 10  9  2  0
 12 11  1  0
 12 16  1  0
 12 13  1  6
 14 13  1  0
 15 14  2  0
 16 19  1  0
 17 16  2  0
 18 14  1  0
 19 20  1  0
 20 21  1  1
 20 24  1  0
 22 26  1  0
 22 21  1  0
 23 22  2  0
 24 25  1  0
 27 24  2  0
M  END
$$$$
