HDD.pdb
     RDKit          3D

 27 27  0  0  1  0  0  0  0  0999 V2000
   10.1625  -15.9290   18.0591 N   0  0  0  0  0  0  0  0  0  0  0  0
   11.0343  -14.8089   18.3386 C   0  0  1  0  0  0  0  0  0  0  0  0
   10.4823  -14.0491   19.5465 C   0  0  0  0  0  0  0  0  0  0  0  0
    9.1322  -13.5412   19.1931 C   0  0  0  0  0  0  0  0  0  0  0  0
    8.5018  -13.6880   17.9754 C   0  0  0  0  0  0  0  0  0  0  0  0
    7.2960  -13.1069   18.0082 N   0  0  0  0  0  0  0  0  0  0  0  0
    7.1523  -12.5895   19.2401 C   0  0  0  0  0  0  0  0  0  0  0  0
    8.2718  -12.8563   19.9573 N   0  0  0  0  0  0  0  0  0  0  0  0
   12.3776  -15.3074   18.6907 C   0  0  0  0  0  0  0  0  0  0  0  0
   12.4993  -16.3991   19.2834 O   0  0  0  0  0  0  0  0  0  0  0  0
   13.4889  -14.5078   18.3324 N   0  0  0  0  0  0  0  0  0  0  0  0
   14.8315  -14.9099   18.6180 C   0  0  1  0  0  0  0  0  0  0  0  0
   15.8474  -14.2009   17.7874 C   0  0  0  0  0  0  0  0  0  0  0  0
   15.7280  -14.6471   16.3601 C   0  0  0  0  0  0  0  0  0  0  0  0
   15.5653  -13.7810   15.4760 O   0  0  0  0  0  0  0  0  0  0  0  0
   15.1958  -14.7932   20.0675 C   0  0  0  0  0  0  0  0  0  0  0  0
   15.2169  -13.6684   20.6638 O   0  0  0  0  0  0  0  0  0  0  0  0
   15.7992  -16.0016   16.0442 O   0  0  0  0  0  0  0  0  0  0  0  0
   15.5183  -15.9837   20.7607 N   0  0  0  0  0  0  0  0  0  0  0  0
   15.8638  -15.9180   22.1587 C   0  0  1  0  0  0  0  0  0  0  0  0
   15.2024  -17.0713   22.8706 C   0  0  0  0  0  0  0  0  0  0  0  0
   15.5278  -17.1856   24.2955 C   0  0  0  0  0  0  0  0  0  0  0  0
   14.7405  -16.7891   25.1719 O   0  0  0  0  0  0  0  0  0  0  0  0
   17.3242  -15.9043   22.3558 C   0  0  0  0  0  0  0  0  0  0  0  0
   17.8878  -15.1428   23.3545 O   0  0  0  0  0  0  0  0  0  0  0  0
   16.7292  -17.7428   24.6829 O   0  0  0  0  0  0  0  0  0  0  0  0
   18.0642  -16.5842   21.6175 O   0  0  0  0  0  0  0  0  0  0  0  0
  2  1  1  1
  2  3  1  0
  3  4  1  0
  4  8  1  0
  4  5  2  0
  5  6  1  0
  7  6  1  0
  8  7  2  0
  9  2  1  0
  9 11  1  0
 10  9  2  0
 12 11  1  0
 12 16  1  0
 12 13  1  6
 14 13  1  0
 15 14  2  0
 16 19  1  0
 17 16  2  0
 18 14  1  0
 19 20  1  0
 20 21  1  1
 20 24  1  0
 22 26  1  0
 22 21  1  0
 23 22  2  0
 24 25  1  0
 27 24  2  0
M  END
$$$$
