HDD.pdb
     RDKit          3D

 27 27  0  0  1  0  0  0  0  0999 V2000
    8.2330  -17.4040   19.3635 N   0  0  0  0  0  0  0  0  0  0  0  0
    9.3783  -16.5605   19.6275 C   0  0  1  0  0  0  0  0  0  0  0  0
    8.9467  -15.4284   20.5619 C   0  0  0  0  0  0  0  0  0  0  0  0
    8.0732  -14.5052   19.7937 C   0  0  0  0  0  0  0  0  0  0  0  0
    7.6843  -14.6594   18.4797 C   0  0  0  0  0  0  0  0  0  0  0  0
    6.8980  -13.6407   18.1097 N   0  0  0  0  0  0  0  0  0  0  0  0
    6.7824  -12.8363   19.1800 C   0  0  0  0  0  0  0  0  0  0  0  0
    7.4990  -13.3663   20.2019 N   0  0  0  0  0  0  0  0  0  0  0  0
   10.4193  -17.3466   20.3169 C   0  0  0  0  0  0  0  0  0  0  0  0
   10.0903  -18.2578   21.1039 O   0  0  0  0  0  0  0  0  0  0  0  0
   11.7708  -17.0242   20.0481 N   0  0  0  0  0  0  0  0  0  0  0  0
   12.8520  -17.7338   20.6589 C   0  0  1  0  0  0  0  0  0  0  0  0
   14.1012  -17.7179   19.8442 C   0  0  0  0  0  0  0  0  0  0  0  0
   13.8372  -18.3491   18.5092 C   0  0  0  0  0  0  0  0  0  0  0  0
   13.1400  -19.3837   18.4659 O   0  0  0  0  0  0  0  0  0  0  0  0
   13.1550  -17.2774   22.0544 C   0  0  0  0  0  0  0  0  0  0  0  0
   12.8610  -16.1047   22.4537 O   0  0  0  0  0  0  0  0  0  0  0  0
   14.3653  -17.7815   17.3523 O   0  0  0  0  0  0  0  0  0  0  0  0
   13.7839  -18.1995   22.9241 N   0  0  0  0  0  0  0  0  0  0  0  0
   14.1516  -17.7815   24.2538 C   0  0  1  0  0  0  0  0  0  0  0  0
   15.0188  -16.5523   24.1472 C   0  0  0  0  0  0  0  0  0  0  0  0
   16.4429  -16.7764   24.4137 C   0  0  0  0  0  0  0  0  0  0  0  0
   16.9987  -17.8433   24.1008 O   0  0  0  0  0  0  0  0  0  0  0  0
   12.9653  -17.5559   25.0983 C   0  0  0  0  0  0  0  0  0  0  0  0
   13.0935  -17.4196   26.4621 O   0  0  0  0  0  0  0  0  0  0  0  0
   17.1908  -15.7902   25.0235 O   0  0  0  0  0  0  0  0  0  0  0  0
   11.8316  -17.4864   24.5835 O   0  0  0  0  0  0  0  0  0  0  0  0
  2  1  1  1
  2  3  1  0
  3  4  1  0
  4  8  1  0
  4  5  2  0
  5  6  1  0
  7  6  1  0
  8  7  2  0
  9  2  1  0
  9 11  1  0
 10  9  2  0
 12 11  1  0
 12 16  1  0
 12 13  1  6
 14 13  1  0
 15 14  2  0
 16 19  1  0
 17 16  2  0
 18 14  1  0
 19 20  1  0
 20 21  1  6
 20 24  1  0
 22 26  1  0
 22 21  1  0
 23 22  2  0
 24 25  1  0
 27 24  2  0
M  END
$$$$
