HDD.pdb
     RDKit          3D

 27 27  0  0  1  0  0  0  0  0999 V2000
    9.7461  -15.5228   18.1883 N   0  0  0  0  0  0  0  0  0  0  0  0
    9.6417  -14.1703   18.6910 C   0  0  1  0  0  0  0  0  0  0  0  0
    8.1828  -13.7213   18.5872 C   0  0  0  0  0  0  0  0  0  0  0  0
    7.7488  -13.8891   17.1768 C   0  0  0  0  0  0  0  0  0  0  0  0
    8.3421  -13.3181   16.0706 C   0  0  0  0  0  0  0  0  0  0  0  0
    7.6907  -13.6828   14.9591 N   0  0  0  0  0  0  0  0  0  0  0  0
    6.6843  -14.4836   15.3488 C   0  0  0  0  0  0  0  0  0  0  0  0
    6.7238  -14.6062   16.6987 N   0  0  0  0  0  0  0  0  0  0  0  0
   10.0246  -14.1445   20.1157 C   0  0  0  0  0  0  0  0  0  0  0  0
    9.9976  -13.0678   20.7467 O   0  0  0  0  0  0  0  0  0  0  0  0
   10.4129  -15.3672   20.7131 N   0  0  0  0  0  0  0  0  0  0  0  0
   10.9471  -15.4236   22.0386 C   0  0  1  0  0  0  0  0  0  0  0  0
   10.0428  -16.1056   23.0090 C   0  0  0  0  0  0  0  0  0  0  0  0
   10.6554  -16.0668   24.3779 C   0  0  0  0  0  0  0  0  0  0  0  0
   11.7379  -15.4640   24.5301 O   0  0  0  0  0  0  0  0  0  0  0  0
   12.3138  -16.0360   22.1078 C   0  0  0  0  0  0  0  0  0  0  0  0
   12.5208  -17.2491   21.7811 O   0  0  0  0  0  0  0  0  0  0  0  0
   10.0183  -16.6943   25.4455 O   0  0  0  0  0  0  0  0  0  0  0  0
   13.3783  -15.2162   22.5510 N   0  0  0  0  0  0  0  0  0  0  0  0
   14.7258  -15.7275   22.5219 C   0  0  1  0  0  0  0  0  0  0  0  0
   15.6523  -14.6134   22.1039 C   0  0  0  0  0  0  0  0  0  0  0  0
   17.0635  -14.9940   21.9902 C   0  0  0  0  0  0  0  0  0  0  0  0
   17.8833  -14.7089   22.8799 O   0  0  0  0  0  0  0  0  0  0  0  0
   15.1100  -16.3163   23.8170 C   0  0  0  0  0  0  0  0  0  0  0  0
   16.1066  -17.2633   23.8864 O   0  0  0  0  0  0  0  0  0  0  0  0
   17.5013  -15.6826   20.8775 O   0  0  0  0  0  0  0  0  0  0  0  0
   14.5338  -15.9609   24.8643 O   0  0  0  0  0  0  0  0  0  0  0  0
  2  1  1  1
  2  3  1  0
  3  4  1  0
  4  8  1  0
  4  5  2  0
  5  6  1  0
  7  6  1  0
  8  7  2  0
  9  2  1  0
  9 11  1  0
 10  9  2  0
 12 11  1  0
 12 16  1  0
 12 13  1  1
 14 13  1  0
 15 14  2  0
 16 19  1  0
 17 16  2  0
 18 14  1  0
 19 20  1  0
 20 21  1  1
 20 24  1  0
 22 26  1  0
 22 21  1  0
 23 22  2  0
 24 25  1  0
 27 24  2  0
M  END
$$$$
