HDD.pdb
     RDKit          3D

 27 27  0  0  1  0  0  0  0  0999 V2000
    8.5502  -14.1438   17.5057 N   0  0  0  0  0  0  0  0  0  0  0  0
    9.6492  -15.0632   17.7055 C   0  0  1  0  0  0  0  0  0  0  0  0
   10.6088  -14.9431   16.5199 C   0  0  0  0  0  0  0  0  0  0  0  0
    9.9225  -15.4775   15.3162 C   0  0  0  0  0  0  0  0  0  0  0  0
   10.0201  -16.7640   14.8292 C   0  0  0  0  0  0  0  0  0  0  0  0
    9.2689  -16.8980   13.7289 N   0  0  0  0  0  0  0  0  0  0  0  0
    8.6918  -15.7042   13.5101 C   0  0  0  0  0  0  0  0  0  0  0  0
    9.0924  -14.8434   14.4782 N   0  0  0  0  0  0  0  0  0  0  0  0
   10.3872  -14.6889   18.9270 C   0  0  0  0  0  0  0  0  0  0  0  0
   10.3996  -13.4995   19.3053 O   0  0  0  0  0  0  0  0  0  0  0  0
   11.0610  -15.7174   19.6276 N   0  0  0  0  0  0  0  0  0  0  0  0
   11.7697  -15.4635   20.8437 C   0  0  1  0  0  0  0  0  0  0  0  0
   11.1481  -16.1130   22.0338 C   0  0  0  0  0  0  0  0  0  0  0  0
   11.9431  -15.7771   23.2608 C   0  0  0  0  0  0  0  0  0  0  0  0
   12.8873  -14.9672   23.1566 O   0  0  0  0  0  0  0  0  0  0  0  0
   13.2235  -15.8232   20.7756 C   0  0  0  0  0  0  0  0  0  0  0  0
   13.6153  -17.0343   20.8057 O   0  0  0  0  0  0  0  0  0  0  0  0
   11.6225  -16.3640   24.4823 O   0  0  0  0  0  0  0  0  0  0  0  0
   14.1571  -14.7648   20.6751 N   0  0  0  0  0  0  0  0  0  0  0  0
   15.5590  -15.0681   20.5312 C   0  0  1  0  0  0  0  0  0  0  0  0
   16.2173  -13.9434   19.7723 C   0  0  0  0  0  0  0  0  0  0  0  0
   15.8558  -13.8610   18.3539 C   0  0  0  0  0  0  0  0  0  0  0  0
   15.5302  -14.8733   17.7102 O   0  0  0  0  0  0  0  0  0  0  0  0
   16.1980  -15.3091   21.8370 C   0  0  0  0  0  0  0  0  0  0  0  0
   17.5406  -15.6027   21.9149 O   0  0  0  0  0  0  0  0  0  0  0  0
   15.8739  -12.6405   17.7106 O   0  0  0  0  0  0  0  0  0  0  0  0
   15.5261  -15.2491   22.8858 O   0  0  0  0  0  0  0  0  0  0  0  0
  2  1  1  6
  2  3  1  0
  3  4  1  0
  4  8  1  0
  4  5  2  0
  5  6  1  0
  7  6  1  0
  8  7  2  0
  9  2  1  0
  9 11  1  0
 10  9  2  0
 12 11  1  0
 12 16  1  0
 12 13  1  1
 14 13  1  0
 15 14  2  0
 16 19  1  0
 17 16  2  0
 18 14  1  0
 19 20  1  0
 20 21  1  1
 20 24  1  0
 22 26  1  0
 22 21  1  0
 23 22  2  0
 24 25  1  0
 27 24  2  0
M  END
$$$$
