HDD.pdb
     RDKit          3D

 27 27  0  0  1  0  0  0  0  0999 V2000
    8.6936  -16.5090   18.7213 N   0  0  0  0  0  0  0  0  0  0  0  0
    9.3782  -16.1903   19.9553 C   0  0  1  0  0  0  0  0  0  0  0  0
    8.4284  -15.3900   20.8488 C   0  0  0  0  0  0  0  0  0  0  0  0
    8.1376  -14.1002   20.1725 C   0  0  0  0  0  0  0  0  0  0  0  0
    6.9103  -13.6920   19.6942 C   0  0  0  0  0  0  0  0  0  0  0  0
    7.0120  -12.4758   19.1436 N   0  0  0  0  0  0  0  0  0  0  0  0
    8.2975  -12.1043   19.2674 C   0  0  0  0  0  0  0  0  0  0  0  0
    8.9784  -13.0957   19.8939 N   0  0  0  0  0  0  0  0  0  0  0  0
    9.7234  -17.4384   20.6624 C   0  0  0  0  0  0  0  0  0  0  0  0
    8.9308  -18.4024   20.6437 O   0  0  0  0  0  0  0  0  0  0  0  0
   10.9632  -17.4855   21.3432 N   0  0  0  0  0  0  0  0  0  0  0  0
   11.8086  -18.6380   21.2930 C   0  0  1  0  0  0  0  0  0  0  0  0
   12.0936  -19.0988   19.9034 C   0  0  0  0  0  0  0  0  0  0  0  0
   12.9131  -20.3545   19.9497 C   0  0  0  0  0  0  0  0  0  0  0  0
   12.5472  -21.2781   20.7056 O   0  0  0  0  0  0  0  0  0  0  0  0
   13.0965  -18.4687   22.0415 C   0  0  0  0  0  0  0  0  0  0  0  0
   14.0417  -17.7439   21.5916 O   0  0  0  0  0  0  0  0  0  0  0  0
   14.0546  -20.4722   19.1607 O   0  0  0  0  0  0  0  0  0  0  0  0
   13.2312  -19.1454   23.2768 N   0  0  0  0  0  0  0  0  0  0  0  0
   14.1530  -18.6414   24.2638 C   0  0  1  0  0  0  0  0  0  0  0  0
   13.8276  -19.2768   25.5922 C   0  0  0  0  0  0  0  0  0  0  0  0
   12.5315  -18.8925   26.1594 C   0  0  0  0  0  0  0  0  0  0  0  0
   11.8668  -17.9590   25.6780 O   0  0  0  0  0  0  0  0  0  0  0  0
   15.5530  -18.8696   23.8642 C   0  0  0  0  0  0  0  0  0  0  0  0
   16.5875  -18.4071   24.6457 O   0  0  0  0  0  0  0  0  0  0  0  0
   12.0300  -19.5737   27.2495 O   0  0  0  0  0  0  0  0  0  0  0  0
   15.8134  -19.4854   22.8115 O   0  0  0  0  0  0  0  0  0  0  0  0
  2  1  1  6
  2  3  1  0
  3  4  1  0
  4  8  1  0
  4  5  2  0
  5  6  1  0
  7  6  1  0
  8  7  2  0
  9  2  1  0
  9 11  1  0
 10  9  2  0
 12 11  1  0
 12 16  1  0
 12 13  1  6
 14 13  1  0
 15 14  2  0
 16 19  1  0
 17 16  2  0
 18 14  1  0
 19 20  1  0
 20 21  1  1
 20 24  1  0
 22 26  1  0
 22 21  1  0
 23 22  2  0
 24 25  1  0
 27 24  2  0
M  END
$$$$
