HDD.pdb
     RDKit          3D

 27 27  0  0  1  0  0  0  0  0999 V2000
    8.8335  -16.1107   20.4989 N   0  0  0  0  0  0  0  0  0  0  0  0
    8.4295  -15.2539   21.5924 C   0  0  1  0  0  0  0  0  0  0  0  0
    7.2269  -14.4217   21.1429 C   0  0  0  0  0  0  0  0  0  0  0  0
    7.5509  -13.8193   19.8247 C   0  0  0  0  0  0  0  0  0  0  0  0
    8.7169  -14.0031   19.1117 C   0  0  0  0  0  0  0  0  0  0  0  0
    8.6704  -13.3106   17.9667 N   0  0  0  0  0  0  0  0  0  0  0  0
    7.4811  -12.6853   17.9439 C   0  0  0  0  0  0  0  0  0  0  0  0
    6.8036  -12.9978   19.0763 N   0  0  0  0  0  0  0  0  0  0  0  0
    8.0056  -16.0837   22.7364 C   0  0  0  0  0  0  0  0  0  0  0  0
    7.6626  -15.5387   23.8056 O   0  0  0  0  0  0  0  0  0  0  0  0
    8.0078  -17.4884   22.5646 N   0  0  0  0  0  0  0  0  0  0  0  0
    7.7778  -18.3828   23.6567 C   0  0  1  0  0  0  0  0  0  0  0  0
    6.8285  -19.4844   23.3252 C   0  0  0  0  0  0  0  0  0  0  0  0
    5.5270  -18.9017   22.8595 C   0  0  0  0  0  0  0  0  0  0  0  0
    5.0651  -17.9131   23.4658 O   0  0  0  0  0  0  0  0  0  0  0  0
    9.0358  -18.9587   24.2339 C   0  0  0  0  0  0  0  0  0  0  0  0
    9.2658  -20.2110   24.2213 O   0  0  0  0  0  0  0  0  0  0  0  0
    4.8604  -19.4625   21.7729 O   0  0  0  0  0  0  0  0  0  0  0  0
    9.9703  -18.0589   24.7987 N   0  0  0  0  0  0  0  0  0  0  0  0
   11.1443  -18.5766   25.4557 C   0  0  1  0  0  0  0  0  0  0  0  0
   12.3437  -17.7968   24.9786 C   0  0  0  0  0  0  0  0  0  0  0  0
   12.5649  -17.8295   23.5297 C   0  0  0  0  0  0  0  0  0  0  0  0
   12.8064  -18.8949   22.9368 O   0  0  0  0  0  0  0  0  0  0  0  0
   11.0039  -18.5425   26.9222 C   0  0  0  0  0  0  0  0  0  0  0  0
   11.9357  -19.1565   27.7283 O   0  0  0  0  0  0  0  0  0  0  0  0
   12.5061  -16.6600   22.7997 O   0  0  0  0  0  0  0  0  0  0  0  0
   10.0371  -17.9554   27.4473 O   0  0  0  0  0  0  0  0  0  0  0  0
  2  1  1  6
  2  3  1  0
  3  4  1  0
  4  8  1  0
  4  5  2  0
  5  6  1  0
  7  6  1  0
  8  7  2  0
  9  2  1  0
  9 11  1  0
 10  9  2  0
 12 11  1  0
 12 16  1  0
 12 13  1  6
 14 13  1  0
 15 14  2  0
 16 19  1  0
 17 16  2  0
 18 14  1  0
 19 20  1  0
 20 21  1  1
 20 24  1  0
 22 26  1  0
 22 21  1  0
 23 22  2  0
 24 25  1  0
 27 24  2  0
M  END
$$$$
