SKE.pdb
     RDKit          3D

 25 24  0  0  1  0  0  0  0  0999 V2000
    8.8443  -21.2215   17.5627 O   0  0  0  0  0  0  0  0  0  0  0  0
    9.5162  -20.2998   18.3655 C   0  0  0  0  0  0  0  0  0  0  0  0
    9.5539  -18.9294   17.7274 C   0  0  2  0  0  0  0  0  0  0  0  0
   10.4136  -18.8684   16.5624 N   0  0  0  0  0  0  0  0  0  0  0  0
   10.0231  -17.9570   18.7475 C   0  0  0  0  0  0  0  0  0  0  0  0
   11.2683  -17.6673   18.7432 O   0  0  0  0  0  0  0  0  0  0  0  0
    9.1621  -17.3602   19.6932 N   0  0  0  0  0  0  0  0  0  0  0  0
    9.6710  -16.4065   20.6250 C   0  0  1  0  0  0  0  0  0  0  0  0
    8.6827  -15.2912   20.9157 C   0  0  0  0  0  0  0  0  0  0  0  0
    8.4115  -14.4718   19.6724 C   0  0  0  0  0  0  0  0  0  0  0  0
    7.3601  -13.4412   20.0225 C   0  0  0  0  0  0  0  0  0  0  0  0
    7.1082  -12.6165   18.7604 C   0  0  0  0  0  0  0  0  0  0  0  0
    6.1055  -11.6277   19.0288 N   0  0  0  0  0  0  0  0  0  0  0  0
   10.0451  -17.0758   21.9013 C   0  0  0  0  0  0  0  0  0  0  0  0
    9.2896  -17.9499   22.3621 O   0  0  0  0  0  0  0  0  0  0  0  0
   11.2200  -16.7342   22.5744 N   0  0  0  0  0  0  0  0  0  0  0  0
   11.6593  -17.5915   23.7051 C   0  0  1  0  0  0  0  0  0  0  0  0
   13.0591  -17.9864   23.3848 C   0  0  0  0  0  0  0  0  0  0  0  0
   13.8319  -18.7400   24.3827 C   0  0  0  0  0  0  0  0  0  0  0  0
   15.1832  -19.1460   24.0644 C   0  0  0  0  0  0  0  0  0  0  0  0
   16.1046  -18.2848   23.8376 O   0  0  0  0  0  0  0  0  0  0  0  0
   11.5240  -16.7187   24.8858 C   0  0  0  0  0  0  0  0  0  0  0  0
   11.4795  -15.4737   24.8290 O   0  0  0  0  0  0  0  0  0  0  0  0
   15.6001  -20.4757   23.9795 O   0  0  0  0  0  0  0  0  0  0  0  0
   11.4348  -17.2539   26.1787 O   0  0  0  0  0  0  0  0  0  0  0  0
  1  2  1  0
  3  5  1  0
  3  2  1  0
  3  4  1  6
  5  6  2  0
  7  5  1  0
  8  7  1  0
  8  9  1  1
 10  9  1  0
 11 10  1  0
 12 11  1  0
 13 12  1  0
 14  8  1  0
 15 14  2  0
 16 14  1  0
 17 16  1  0
 17 22  1  0
 17 18  1  6
 19 18  1  0
 20 19  1  0
 20 24  1  0
 21 20  2  0
 22 25  1  0
 23 22  2  0
M  END
$$$$
