SKE.pdb
     RDKit          3D

 25 24  0  0  1  0  0  0  0  0999 V2000
    8.6745  -15.8218   18.2249 O   0  0  0  0  0  0  0  0  0  0  0  0
    7.4130  -15.2407   18.3516 C   0  0  0  0  0  0  0  0  0  0  0  0
    7.5066  -13.8000   18.8015 C   0  0  2  0  0  0  0  0  0  0  0  0
    8.3224  -12.9830   17.9257 N   0  0  0  0  0  0  0  0  0  0  0  0
    8.0715  -13.7801   20.1750 C   0  0  0  0  0  0  0  0  0  0  0  0
    9.3312  -13.5897   20.2814 O   0  0  0  0  0  0  0  0  0  0  0  0
    7.2837  -13.9593   21.3322 N   0  0  0  0  0  0  0  0  0  0  0  0
    7.8673  -13.8140   22.6266 C   0  0  1  0  0  0  0  0  0  0  0  0
    6.8374  -13.5068   23.6990 C   0  0  0  0  0  0  0  0  0  0  0  0
    7.5043  -13.2708   25.0370 C   0  0  0  0  0  0  0  0  0  0  0  0
    6.4235  -12.8998   26.0292 C   0  0  0  0  0  0  0  0  0  0  0  0
    7.1218  -12.5966   27.3548 C   0  0  0  0  0  0  0  0  0  0  0  0
    6.1452  -12.2130   28.3317 N   0  0  0  0  0  0  0  0  0  0  0  0
    8.6133  -15.0468   23.0014 C   0  0  0  0  0  0  0  0  0  0  0  0
    8.0796  -16.1527   22.8021 O   0  0  0  0  0  0  0  0  0  0  0  0
    9.8880  -14.9716   23.5665 N   0  0  0  0  0  0  0  0  0  0  0  0
   10.5994  -16.2392   23.8725 C   0  0  1  0  0  0  0  0  0  0  0  0
   12.0329  -15.9750   23.5670 C   0  0  0  0  0  0  0  0  0  0  0  0
   13.0394  -16.9721   23.9587 C   0  0  0  0  0  0  0  0  0  0  0  0
   14.4391  -16.6815   23.7380 C   0  0  0  0  0  0  0  0  0  0  0  0
   14.8130  -15.7979   22.8885 O   0  0  0  0  0  0  0  0  0  0  0  0
   10.3103  -16.4730   25.2994 C   0  0  0  0  0  0  0  0  0  0  0  0
    9.8695  -15.5990   26.0721 O   0  0  0  0  0  0  0  0  0  0  0  0
   15.4845  -17.3154   24.4119 O   0  0  0  0  0  0  0  0  0  0  0  0
   10.5202  -17.7286   25.8871 O   0  0  0  0  0  0  0  0  0  0  0  0
  1  2  1  0
  3  5  1  0
  3  2  1  0
  3  4  1  6
  5  6  2  0
  7  5  1  0
  8  7  1  0
  8  9  1  1
 10  9  1  0
 11 10  1  0
 12 11  1  0
 13 12  1  0
 14  8  1  0
 15 14  2  0
 16 14  1  0
 17 16  1  0
 17 22  1  0
 17 18  1  1
 19 18  1  0
 20 19  1  0
 20 24  1  0
 21 20  2  0
 22 25  1  0
 23 22  2  0
M  END
$$$$
