SKE.pdb
     RDKit          3D

 25 24  0  0  1  0  0  0  0  0999 V2000
    7.6772  -18.1064   18.8548 O   0  0  0  0  0  0  0  0  0  0  0  0
    8.3432  -17.5471   19.9452 C   0  0  0  0  0  0  0  0  0  0  0  0
    8.4511  -16.0439   19.8200 C   0  0  2  0  0  0  0  0  0  0  0  0
    9.4681  -15.6238   18.8771 N   0  0  0  0  0  0  0  0  0  0  0  0
    8.7539  -15.4885   21.1639 C   0  0  0  0  0  0  0  0  0  0  0  0
    9.9861  -15.4143   21.4967 O   0  0  0  0  0  0  0  0  0  0  0  0
    7.7530  -15.0525   22.0582 N   0  0  0  0  0  0  0  0  0  0  0  0
    8.1084  -14.5782   23.3566 C   0  0  1  0  0  0  0  0  0  0  0  0
    6.9525  -13.8931   24.0633 C   0  0  0  0  0  0  0  0  0  0  0  0
    7.3636  -13.4248   25.4426 C   0  0  0  0  0  0  0  0  0  0  0  0
    6.1934  -12.6735   26.0397 C   0  0  0  0  0  0  0  0  0  0  0  0
    6.6606  -12.1198   27.3857 C   0  0  0  0  0  0  0  0  0  0  0  0
    5.5983  -11.3681   27.9870 N   0  0  0  0  0  0  0  0  0  0  0  0
    8.6049  -15.6994   24.2012 C   0  0  0  0  0  0  0  0  0  0  0  0
    7.9002  -16.7178   24.3179 O   0  0  0  0  0  0  0  0  0  0  0  0
    9.8370  -15.6169   24.8533 N   0  0  0  0  0  0  0  0  0  0  0  0
   10.3892  -16.8476   25.4752 C   0  0  1  0  0  0  0  0  0  0  0  0
   11.6199  -17.1677   24.7000 C   0  0  0  0  0  0  0  0  0  0  0  0
   12.8145  -16.3310   24.8840 C   0  0  0  0  0  0  0  0  0  0  0  0
   14.0004  -16.6195   24.1078 C   0  0  0  0  0  0  0  0  0  0  0  0
   14.6319  -17.7270   24.2376 O   0  0  0  0  0  0  0  0  0  0  0  0
   10.6318  -16.4590   26.8768 C   0  0  0  0  0  0  0  0  0  0  0  0
   11.0523  -17.2409   27.7525 O   0  0  0  0  0  0  0  0  0  0  0  0
   14.5516  -15.7455   23.1690 O   0  0  0  0  0  0  0  0  0  0  0  0
   10.3971  -15.1492   27.3187 O   0  0  0  0  0  0  0  0  0  0  0  0
  1  2  1  0
  3  5  1  0
  3  2  1  0
  3  4  1  6
  5  6  2  0
  7  5  1  0
  8  7  1  0
  8  9  1  1
 10  9  1  0
 11 10  1  0
 12 11  1  0
 13 12  1  0
 14  8  1  0
 15 14  2  0
 16 14  1  0
 17 16  1  0
 17 22  1  0
 17 18  1  6
 19 18  1  0
 20 19  1  0
 20 24  1  0
 21 20  2  0
 22 25  1  0
 23 22  2  0
M  END
$$$$
