SKE.pdb
     RDKit          3D

 25 24  0  0  1  0  0  0  0  0999 V2000
    8.5348  -16.0439   18.7517 O   0  0  0  0  0  0  0  0  0  0  0  0
    7.3016  -15.3928   18.7259 C   0  0  0  0  0  0  0  0  0  0  0  0
    7.4432  -13.9200   19.0383 C   0  0  2  0  0  0  0  0  0  0  0  0
    8.3005  -13.2205   18.1025 N   0  0  0  0  0  0  0  0  0  0  0  0
    7.9905  -13.7894   20.4129 C   0  0  0  0  0  0  0  0  0  0  0  0
    9.2476  -13.5825   20.5196 O   0  0  0  0  0  0  0  0  0  0  0  0
    7.1891  -13.8834   21.5708 N   0  0  0  0  0  0  0  0  0  0  0  0
    7.7749  -13.7275   22.8630 C   0  0  1  0  0  0  0  0  0  0  0  0
    6.7614  -13.3177   23.9166 C   0  0  0  0  0  0  0  0  0  0  0  0
    7.4361  -13.0736   25.2493 C   0  0  0  0  0  0  0  0  0  0  0  0
    6.3664  -12.6568   26.2353 C   0  0  0  0  0  0  0  0  0  0  0  0
    7.0655  -12.4115   27.5724 C   0  0  0  0  0  0  0  0  0  0  0  0
    6.0949  -12.0262   28.5546 N   0  0  0  0  0  0  0  0  0  0  0  0
    8.4407  -14.9899   23.2872 C   0  0  0  0  0  0  0  0  0  0  0  0
    7.8289  -16.0642   23.1495 O   0  0  0  0  0  0  0  0  0  0  0  0
    9.7271  -14.9765   23.8303 N   0  0  0  0  0  0  0  0  0  0  0  0
   10.4066  -16.2762   24.0654 C   0  0  1  0  0  0  0  0  0  0  0  0
   11.8288  -16.0572   23.6813 C   0  0  0  0  0  0  0  0  0  0  0  0
   12.8305  -17.0657   24.0560 C   0  0  0  0  0  0  0  0  0  0  0  0
   14.2146  -16.8482   23.6969 C   0  0  0  0  0  0  0  0  0  0  0  0
   15.1400  -16.8251   24.5831 O   0  0  0  0  0  0  0  0  0  0  0  0
   10.1927  -16.5341   25.5014 C   0  0  0  0  0  0  0  0  0  0  0  0
   10.1669  -17.6738   26.0070 O   0  0  0  0  0  0  0  0  0  0  0  0
   14.6609  -16.6516   22.3888 O   0  0  0  0  0  0  0  0  0  0  0  0
   10.0006  -15.4818   26.4079 O   0  0  0  0  0  0  0  0  0  0  0  0
  1  2  1  0
  3  5  1  0
  3  2  1  0
  3  4  1  6
  5  6  2  0
  7  5  1  0
  8  7  1  0
  8  9  1  1
 10  9  1  0
 11 10  1  0
 12 11  1  0
 13 12  1  0
 14  8  1  0
 15 14  2  0
 16 14  1  0
 17 16  1  0
 17 22  1  0
 17 18  1  1
 19 18  1  0
 20 19  1  0
 20 24  1  0
 21 20  2  0
 22 25  1  0
 23 22  2  0
M  END
$$$$
