SKE.pdb
     RDKit          3D

 25 24  0  0  1  0  0  0  0  0999 V2000
    8.4253  -13.5904   27.2711 O   0  0  0  0  0  0  0  0  0  0  0  0
    7.6314  -12.6886   26.5627 C   0  0  0  0  0  0  0  0  0  0  0  0
    6.4494  -13.3759   25.9168 C   0  0  2  0  0  0  0  0  0  0  0  0
    5.7433  -14.2615   26.8207 N   0  0  0  0  0  0  0  0  0  0  0  0
    6.9446  -14.1454   24.7468 C   0  0  0  0  0  0  0  0  0  0  0  0
    7.0256  -15.4144   24.8793 O   0  0  0  0  0  0  0  0  0  0  0  0
    7.3170  -13.5369   23.5291 N   0  0  0  0  0  0  0  0  0  0  0  0
    7.8359  -14.3287   22.4609 C   0  0  1  0  0  0  0  0  0  0  0  0
    7.8402  -13.5882   21.1355 C   0  0  0  0  0  0  0  0  0  0  0  0
    8.2992  -14.4931   20.0125 C   0  0  0  0  0  0  0  0  0  0  0  0
    8.3164  -13.6732   18.7406 C   0  0  0  0  0  0  0  0  0  0  0  0
    8.7801  -14.6022   17.6188 C   0  0  0  0  0  0  0  0  0  0  0  0
    8.8305  -13.8730   16.3856 N   0  0  0  0  0  0  0  0  0  0  0  0
    9.2191  -14.7817   22.7746 C   0  0  0  0  0  0  0  0  0  0  0  0
   10.0413  -13.9472   23.1929 O   0  0  0  0  0  0  0  0  0  0  0  0
    9.5942  -16.1160   22.6049 N   0  0  0  0  0  0  0  0  0  0  0  0
   10.9974  -16.4978   22.9075 C   0  0  1  0  0  0  0  0  0  0  0  0
   10.9030  -17.6439   23.8538 C   0  0  0  0  0  0  0  0  0  0  0  0
   10.4413  -17.3964   25.2273 C   0  0  0  0  0  0  0  0  0  0  0  0
   10.2563  -18.5199   26.1193 C   0  0  0  0  0  0  0  0  0  0  0  0
   11.0401  -19.5333   26.0904 O   0  0  0  0  0  0  0  0  0  0  0  0
   11.5652  -16.8368   21.5896 C   0  0  0  0  0  0  0  0  0  0  0  0
   12.7884  -16.8946   21.3533 O   0  0  0  0  0  0  0  0  0  0  0  0
    9.2379  -18.6029   27.0706 O   0  0  0  0  0  0  0  0  0  0  0  0
   10.7384  -17.1223   20.4938 O   0  0  0  0  0  0  0  0  0  0  0  0
  1  2  1  0
  3  5  1  0
  3  2  1  0
  3  4  1  1
  5  6  2  0
  7  5  1  0
  8  7  1  0
  8  9  1  6
 10  9  1  0
 11 10  1  0
 12 11  1  0
 13 12  1  0
 14  8  1  0
 15 14  2  0
 16 14  1  0
 17 16  1  0
 17 22  1  0
 17 18  1  1
 19 18  1  0
 20 19  1  0
 20 24  1  0
 21 20  2  0
 22 25  1  0
 23 22  2  0
M  END
$$$$
