SKE.pdb
     RDKit          3D

 25 24  0  0  1  0  0  0  0  0999 V2000
   10.1109  -14.6606   17.5754 O   0  0  0  0  0  0  0  0  0  0  0  0
    8.7746  -14.7456   17.1848 C   0  0  0  0  0  0  0  0  0  0  0  0
    7.8553  -14.1119   18.2046 C   0  0  2  0  0  0  0  0  0  0  0  0
    8.0895  -12.6921   18.3760 N   0  0  0  0  0  0  0  0  0  0  0  0
    8.0496  -14.8116   19.5003 C   0  0  0  0  0  0  0  0  0  0  0  0
    8.7989  -14.2378   20.3628 O   0  0  0  0  0  0  0  0  0  0  0  0
    7.4499  -16.0535   19.8001 N   0  0  0  0  0  0  0  0  0  0  0  0
    7.5806  -16.6166   21.1051 C   0  0  1  0  0  0  0  0  0  0  0  0
    6.6111  -17.7598   21.3462 C   0  0  0  0  0  0  0  0  0  0  0  0
    5.1782  -17.2892   21.2184 C   0  0  0  0  0  0  0  0  0  0  0  0
    4.2831  -18.5012   21.3594 C   0  0  0  0  0  0  0  0  0  0  0  0
    2.8414  -18.0038   21.2552 C   0  0  0  0  0  0  0  0  0  0  0  0
    1.9451  -19.1204   21.3261 N   0  0  0  0  0  0  0  0  0  0  0  0
    8.9720  -17.0982   21.3261 C   0  0  0  0  0  0  0  0  0  0  0  0
    9.4667  -17.8937   20.5075 O   0  0  0  0  0  0  0  0  0  0  0  0
    9.7142  -16.6700   22.4287 N   0  0  0  0  0  0  0  0  0  0  0  0
   11.0989  -17.1831   22.5888 C   0  0  1  0  0  0  0  0  0  0  0  0
   11.8880  -16.5462   21.4980 C   0  0  0  0  0  0  0  0  0  0  0  0
   12.1337  -15.0978   21.5499 C   0  0  0  0  0  0  0  0  0  0  0  0
   13.0723  -14.5108   20.6190 C   0  0  0  0  0  0  0  0  0  0  0  0
   13.7639  -15.2355   19.8198 O   0  0  0  0  0  0  0  0  0  0  0  0
   11.4798  -16.7587   23.9485 C   0  0  0  0  0  0  0  0  0  0  0  0
   10.7494  -16.0765   24.6944 O   0  0  0  0  0  0  0  0  0  0  0  0
   13.3047  -13.1390   20.5043 O   0  0  0  0  0  0  0  0  0  0  0  0
   12.7218  -17.1081   24.4976 O   0  0  0  0  0  0  0  0  0  0  0  0
  1  2  1  0
  3  5  1  0
  3  2  1  0
  3  4  1  1
  5  6  2  0
  7  5  1  0
  8  7  1  0
  8  9  1  6
 10  9  1  0
 11 10  1  0
 12 11  1  0
 13 12  1  0
 14  8  1  0
 15 14  2  0
 16 14  1  0
 17 16  1  0
 17 22  1  0
 17 18  1  6
 19 18  1  0
 20 19  1  0
 20 24  1  0
 21 20  2  0
 22 25  1  0
 23 22  2  0
M  END
$$$$
