SKE.pdb
     RDKit          3D

 25 24  0  0  1  0  0  0  0  0999 V2000
   14.0481  -19.1664   18.1841 O   0  0  0  0  0  0  0  0  0  0  0  0
   13.6566  -20.4932   18.0056 C   0  0  0  0  0  0  0  0  0  0  0  0
   12.1600  -20.6557   18.1478 C   0  0  2  0  0  0  0  0  0  0  0  0
   11.5099  -19.4805   18.6921 N   0  0  0  0  0  0  0  0  0  0  0  0
   11.9032  -21.8235   19.0291 C   0  0  0  0  0  0  0  0  0  0  0  0
   11.3450  -21.5888   20.1550 O   0  0  0  0  0  0  0  0  0  0  0  0
   12.2460  -23.1452   18.6721 N   0  0  0  0  0  0  0  0  0  0  0  0
   11.9142  -24.2307   19.5373 C   0  0  1  0  0  0  0  0  0  0  0  0
   11.8978  -25.5666   18.8162 C   0  0  0  0  0  0  0  0  0  0  0  0
   11.3760  -26.6625   19.7205 C   0  0  0  0  0  0  0  0  0  0  0  0
   11.4935  -27.9713   18.9700 C   0  0  0  0  0  0  0  0  0  0  0  0
   10.9115  -29.0568   19.8752 C   0  0  0  0  0  0  0  0  0  0  0  0
   10.9487  -30.3173   19.1933 N   0  0  0  0  0  0  0  0  0  0  0  0
   12.8716  -24.2990   20.6756 C   0  0  0  0  0  0  0  0  0  0  0  0
   14.0703  -24.0416   20.4651 O   0  0  0  0  0  0  0  0  0  0  0  0
   12.4402  -24.6450   21.9578 N   0  0  0  0  0  0  0  0  0  0  0  0
   13.4276  -24.6110   23.0669 C   0  0  1  0  0  0  0  0  0  0  0  0
   12.9344  -23.5665   24.0071 C   0  0  0  0  0  0  0  0  0  0  0  0
   13.3337  -22.1685   23.7906 C   0  0  0  0  0  0  0  0  0  0  0  0
   12.8566  -21.1523   24.7027 C   0  0  0  0  0  0  0  0  0  0  0  0
   11.9469  -20.3181   24.3583 O   0  0  0  0  0  0  0  0  0  0  0  0
   13.4021  -25.9827   23.6072 C   0  0  0  0  0  0  0  0  0  0  0  0
   12.3923  -26.7145   23.5997 O   0  0  0  0  0  0  0  0  0  0  0  0
   13.3261  -20.9907   26.0075 O   0  0  0  0  0  0  0  0  0  0  0  0
   14.5454  -26.5606   24.1771 O   0  0  0  0  0  0  0  0  0  0  0  0
  1  2  1  0
  3  5  1  0
  3  2  1  0
  3  4  1  1
  5  6  2  0
  7  5  1  0
  8  7  1  0
  8  9  1  6
 10  9  1  0
 11 10  1  0
 12 11  1  0
 13 12  1  0
 14  8  1  0
 15 14  2  0
 16 14  1  0
 17 16  1  0
 17 22  1  0
 17 18  1  1
 19 18  1  0
 20 19  1  0
 20 24  1  0
 21 20  2  0
 22 25  1  0
 23 22  2  0
M  END
$$$$
