SKE.pdb
     RDKit          3D

 25 24  0  0  1  0  0  0  0  0999 V2000
    7.1289  -21.1241   16.5793 O   0  0  0  0  0  0  0  0  0  0  0  0
    7.1330  -21.2682   17.9666 C   0  0  0  0  0  0  0  0  0  0  0  0
    6.4256  -20.1183   18.6476 C   0  0  2  0  0  0  0  0  0  0  0  0
    7.1893  -18.8870   18.6237 N   0  0  0  0  0  0  0  0  0  0  0  0
    6.1525  -20.5110   20.0539 C   0  0  0  0  0  0  0  0  0  0  0  0
    6.7597  -19.8548   20.9677 O   0  0  0  0  0  0  0  0  0  0  0  0
    5.2691  -21.5551   20.4020 N   0  0  0  0  0  0  0  0  0  0  0  0
    4.9649  -21.8100   21.7730 C   0  0  1  0  0  0  0  0  0  0  0  0
    3.7246  -22.6685   21.9448 C   0  0  0  0  0  0  0  0  0  0  0  0
    3.4349  -22.9123   23.4103 C   0  0  0  0  0  0  0  0  0  0  0  0
    2.2073  -23.7931   23.4948 C   0  0  0  0  0  0  0  0  0  0  0  0
    1.8345  -23.8957   24.9737 C   0  0  0  0  0  0  0  0  0  0  0  0
    0.6837  -24.7383   25.1184 N   0  0  0  0  0  0  0  0  0  0  0  0
    6.1166  -22.4711   22.4464 C   0  0  0  0  0  0  0  0  0  0  0  0
    6.6572  -23.4433   21.8898 O   0  0  0  0  0  0  0  0  0  0  0  0
    6.5869  -22.0145   23.6795 N   0  0  0  0  0  0  0  0  0  0  0  0
    7.8249  -22.6225   24.2308 C   0  0  1  0  0  0  0  0  0  0  0  0
    8.9188  -21.6673   23.9006 C   0  0  0  0  0  0  0  0  0  0  0  0
   10.2420  -21.8624   24.5104 C   0  0  0  0  0  0  0  0  0  0  0  0
   11.2835  -20.8919   24.2544 C   0  0  0  0  0  0  0  0  0  0  0  0
   11.4735  -20.4078   23.0831 O   0  0  0  0  0  0  0  0  0  0  0  0
    7.5431  -22.7566   25.6719 C   0  0  0  0  0  0  0  0  0  0  0  0
    6.7332  -22.0391   26.2920 O   0  0  0  0  0  0  0  0  0  0  0  0
   12.1528  -20.4026   25.2309 O   0  0  0  0  0  0  0  0  0  0  0  0
    8.1884  -23.7273   26.4513 O   0  0  0  0  0  0  0  0  0  0  0  0
  1  2  1  0
  3  5  1  0
  3  2  1  0
  3  4  1  1
  5  6  2  0
  7  5  1  0
  8  7  1  0
  8  9  1  6
 10  9  1  0
 11 10  1  0
 12 11  1  0
 13 12  1  0
 14  8  1  0
 15 14  2  0
 16 14  1  0
 17 16  1  0
 17 22  1  0
 17 18  1  1
 19 18  1  0
 20 19  1  0
 20 24  1  0
 21 20  2  0
 22 25  1  0
 23 22  2  0
M  END
$$$$
