SKE.pdb
     RDKit          3D

 25 24  0  0  1  0  0  0  0  0999 V2000
    8.1475  -18.4011   19.7660 O   0  0  0  0  0  0  0  0  0  0  0  0
    7.0242  -17.6229   19.4863 C   0  0  0  0  0  0  0  0  0  0  0  0
    7.3947  -16.1763   19.2485 C   0  0  2  0  0  0  0  0  0  0  0  0
    8.3326  -16.0017   18.1577 N   0  0  0  0  0  0  0  0  0  0  0  0
    7.9790  -15.6363   20.5028 C   0  0  0  0  0  0  0  0  0  0  0  0
    9.2458  -15.4654   20.5259 O   0  0  0  0  0  0  0  0  0  0  0  0
    7.2018  -15.3151   21.6361 N   0  0  0  0  0  0  0  0  0  0  0  0
    7.8170  -14.7379   22.7875 C   0  0  1  0  0  0  0  0  0  0  0  0
    6.8061  -14.1457   23.7531 C   0  0  0  0  0  0  0  0  0  0  0  0
    7.5008  -13.4734   24.9176 C   0  0  0  0  0  0  0  0  0  0  0  0
    6.4313  -12.8858   25.8126 C   0  0  0  0  0  0  0  0  0  0  0  0
    7.1508  -12.1960   26.9715 C   0  0  0  0  0  0  0  0  0  0  0  0
    6.1843  -11.5948   27.8431 N   0  0  0  0  0  0  0  0  0  0  0  0
    8.6403  -15.7532   23.5004 C   0  0  0  0  0  0  0  0  0  0  0  0
    8.1853  -16.9027   23.6379 O   0  0  0  0  0  0  0  0  0  0  0  0
    9.9001  -15.4290   24.0081 N   0  0  0  0  0  0  0  0  0  0  0  0
   10.7817  -16.5337   24.4650 C   0  0  1  0  0  0  0  0  0  0  0  0
   12.1378  -16.2012   23.9467 C   0  0  0  0  0  0  0  0  0  0  0  0
   13.2850  -17.0086   24.3857 C   0  0  0  0  0  0  0  0  0  0  0  0
   14.6076  -16.6667   23.9103 C   0  0  0  0  0  0  0  0  0  0  0  0
   15.2325  -15.6390   24.3527 O   0  0  0  0  0  0  0  0  0  0  0  0
   10.6620  -16.4990   25.9342 C   0  0  0  0  0  0  0  0  0  0  0  0
   10.2501  -15.5119   26.5753 O   0  0  0  0  0  0  0  0  0  0  0  0
   15.3093  -17.4038   22.9548 O   0  0  0  0  0  0  0  0  0  0  0  0
   11.0146  -17.6066   26.7183 O   0  0  0  0  0  0  0  0  0  0  0  0
  1  2  1  0
  3  5  1  0
  3  2  1  0
  3  4  1  6
  5  6  2  0
  7  5  1  0
  8  7  1  0
  8  9  1  1
 10  9  1  0
 11 10  1  0
 12 11  1  0
 13 12  1  0
 14  8  1  0
 15 14  2  0
 16 14  1  0
 17 16  1  0
 17 22  1  0
 17 18  1  1
 19 18  1  0
 20 19  1  0
 20 24  1  0
 21 20  2  0
 22 25  1  0
 23 22  2  0
M  END
$$$$
