SKE.pdb
     RDKit          3D

 25 24  0  0  1  0  0  0  0  0999 V2000
   15.5417  -16.7207   17.4367 O   0  0  0  0  0  0  0  0  0  0  0  0
   14.4064  -16.1558   16.8559 C   0  0  0  0  0  0  0  0  0  0  0  0
   14.2781  -14.6884   17.1974 C   0  0  2  0  0  0  0  0  0  0  0  0
   15.5468  -13.9883   17.1820 N   0  0  0  0  0  0  0  0  0  0  0  0
   13.6622  -14.5792   18.5447 C   0  0  0  0  0  0  0  0  0  0  0  0
   14.4178  -14.1853   19.4977 O   0  0  0  0  0  0  0  0  0  0  0  0
   12.3083  -14.8874   18.7975 N   0  0  0  0  0  0  0  0  0  0  0  0
   11.7627  -14.7033   20.1035 C   0  0  1  0  0  0  0  0  0  0  0  0
   10.2454  -14.7560   20.1138 C   0  0  0  0  0  0  0  0  0  0  0  0
    9.6604  -13.6446   19.2692 C   0  0  0  0  0  0  0  0  0  0  0  0
    8.1578  -13.8235   19.2525 C   0  0  0  0  0  0  0  0  0  0  0  0
    7.5951  -12.7700   18.2986 C   0  0  0  0  0  0  0  0  0  0  0  0
    6.1733  -12.9254   18.2011 N   0  0  0  0  0  0  0  0  0  0  0  0
   12.2959  -15.7317   21.0389 C   0  0  0  0  0  0  0  0  0  0  0  0
   12.4398  -16.8969   20.6278 O   0  0  0  0  0  0  0  0  0  0  0  0
   12.6303  -15.4025   22.3541 N   0  0  0  0  0  0  0  0  0  0  0  0
   13.3143  -16.4263   23.1850 C   0  0  1  0  0  0  0  0  0  0  0  0
   14.6604  -15.8629   23.4827 C   0  0  0  0  0  0  0  0  0  0  0  0
   15.8531  -16.6528   23.1441 C   0  0  0  0  0  0  0  0  0  0  0  0
   17.1597  -16.0498   23.2903 C   0  0  0  0  0  0  0  0  0  0  0  0
   17.7540  -16.0081   24.4248 O   0  0  0  0  0  0  0  0  0  0  0  0
   12.4375  -16.5724   24.3615 C   0  0  0  0  0  0  0  0  0  0  0  0
   11.4813  -15.8130   24.6149 O   0  0  0  0  0  0  0  0  0  0  0  0
   17.8773  -15.4757   22.2395 O   0  0  0  0  0  0  0  0  0  0  0  0
   12.6341  -17.6040   25.2905 O   0  0  0  0  0  0  0  0  0  0  0  0
  1  2  1  0
  3  5  1  0
  3  2  1  0
  3  4  1  1
  5  6  2  0
  7  5  1  0
  8  7  1  0
  8  9  1  6
 10  9  1  0
 11 10  1  0
 12 11  1  0
 13 12  1  0
 14  8  1  0
 15 14  2  0
 16 14  1  0
 17 16  1  0
 17 22  1  0
 17 18  1  1
 19 18  1  0
 20 19  1  0
 20 24  1  0
 21 20  2  0
 22 25  1  0
 23 22  2  0
M  END
$$$$
