SKE.pdb
     RDKit          3D

 25 24  0  0  1  0  0  0  0  0999 V2000
   13.9906  -17.7895   15.8058 O   0  0  0  0  0  0  0  0  0  0  0  0
   13.0765  -17.3090   14.8683 C   0  0  0  0  0  0  0  0  0  0  0  0
   13.1118  -15.7999   14.7794 C   0  0  2  0  0  0  0  0  0  0  0  0
   14.4166  -15.2821   14.4196 N   0  0  0  0  0  0  0  0  0  0  0  0
   12.7001  -15.2493   16.0961 C   0  0  0  0  0  0  0  0  0  0  0  0
   13.6181  -14.7362   16.8229 O   0  0  0  0  0  0  0  0  0  0  0  0
   11.3659  -15.2740   16.5557 N   0  0  0  0  0  0  0  0  0  0  0  0
   11.0362  -14.7227   17.8303 C   0  0  1  0  0  0  0  0  0  0  0  0
    9.5436  -14.5047   18.0023 C   0  0  0  0  0  0  0  0  0  0  0  0
    9.2431  -13.8493   19.3331 C   0  0  0  0  0  0  0  0  0  0  0  0
    7.7391  -13.8126   19.4971 C   0  0  0  0  0  0  0  0  0  0  0  0
    7.4550  -13.1562   20.8481 C   0  0  0  0  0  0  0  0  0  0  0  0
    6.0426  -13.1620   21.0937 N   0  0  0  0  0  0  0  0  0  0  0  0
   11.5324  -15.6051   18.9220 C   0  0  0  0  0  0  0  0  0  0  0  0
   11.4894  -16.8378   18.7608 O   0  0  0  0  0  0  0  0  0  0  0  0
   12.0378  -15.0670   20.1074 N   0  0  0  0  0  0  0  0  0  0  0  0
   12.4709  -16.0016   21.1775 C   0  0  1  0  0  0  0  0  0  0  0  0
   13.7914  -15.4919   21.6409 C   0  0  0  0  0  0  0  0  0  0  0  0
   14.9654  -15.6657   20.7735 C   0  0  0  0  0  0  0  0  0  0  0  0
   16.2542  -15.1976   21.2337 C   0  0  0  0  0  0  0  0  0  0  0  0
   16.4730  -13.9554   21.4600 O   0  0  0  0  0  0  0  0  0  0  0  0
   11.3944  -15.9153   22.1814 C   0  0  0  0  0  0  0  0  0  0  0  0
   10.4652  -15.0848   22.1351 O   0  0  0  0  0  0  0  0  0  0  0  0
   17.3490  -16.0307   21.4710 O   0  0  0  0  0  0  0  0  0  0  0  0
   11.3520  -16.7877   23.2783 O   0  0  0  0  0  0  0  0  0  0  0  0
  1  2  1  0
  3  5  1  0
  3  2  1  0
  3  4  1  1
  5  6  2  0
  7  5  1  0
  8  7  1  0
  8  9  1  6
 10  9  1  0
 11 10  1  0
 12 11  1  0
 13 12  1  0
 14  8  1  0
 15 14  2  0
 16 14  1  0
 17 16  1  0
 17 22  1  0
 17 18  1  1
 19 18  1  0
 20 19  1  0
 20 24  1  0
 21 20  2  0
 22 25  1  0
 23 22  2  0
M  END
$$$$
