SKE.pdb
     RDKit          3D

 25 24  0  0  1  0  0  0  0  0999 V2000
    8.2633  -18.4709   20.3168 O   0  0  0  0  0  0  0  0  0  0  0  0
    7.4400  -17.4397   19.8649 C   0  0  0  0  0  0  0  0  0  0  0  0
    8.1976  -16.1370   19.7397 C   0  0  2  0  0  0  0  0  0  0  0  0
    9.3747  -16.2424   18.9010 N   0  0  0  0  0  0  0  0  0  0  0  0
    8.5917  -15.6983   21.1030 C   0  0  0  0  0  0  0  0  0  0  0  0
    9.8357  -15.7526   21.3929 O   0  0  0  0  0  0  0  0  0  0  0  0
    7.6626  -15.2367   22.0599 N   0  0  0  0  0  0  0  0  0  0  0  0
    8.1178  -14.7164   23.3086 C   0  0  1  0  0  0  0  0  0  0  0  0
    7.0147  -14.0227   24.0876 C   0  0  0  0  0  0  0  0  0  0  0  0
    7.5506  -13.4333   25.3746 C   0  0  0  0  0  0  0  0  0  0  0  0
    6.3806  -12.8414   26.1302 C   0  0  0  0  0  0  0  0  0  0  0  0
    6.9398  -12.2515   27.4247 C   0  0  0  0  0  0  0  0  0  0  0  0
    5.8605  -11.7619   28.2313 N   0  0  0  0  0  0  0  0  0  0  0  0
    8.6992  -15.8036   24.1434 C   0  0  0  0  0  0  0  0  0  0  0  0
    8.1010  -16.8923   24.2088 O   0  0  0  0  0  0  0  0  0  0  0  0
    9.8927  -15.6127   24.8427 N   0  0  0  0  0  0  0  0  0  0  0  0
   10.4408  -16.7498   25.6255 C   0  0  1  0  0  0  0  0  0  0  0  0
   11.8887  -16.8088   25.2816 C   0  0  0  0  0  0  0  0  0  0  0  0
   12.2862  -17.3165   23.9606 C   0  0  0  0  0  0  0  0  0  0  0  0
   13.6873  -17.3186   23.6014 C   0  0  0  0  0  0  0  0  0  0  0  0
   14.3505  -16.2280   23.4881 O   0  0  0  0  0  0  0  0  0  0  0  0
   10.1582  -16.3857   27.0261 C   0  0  0  0  0  0  0  0  0  0  0  0
    9.7328  -15.2687   27.3820 O   0  0  0  0  0  0  0  0  0  0  0  0
   14.4289  -18.4753   23.3542 O   0  0  0  0  0  0  0  0  0  0  0  0
   10.3570  -17.3012   28.0692 O   0  0  0  0  0  0  0  0  0  0  0  0
  1  2  1  0
  3  5  1  0
  3  2  1  0
  3  4  1  6
  5  6  2  0
  7  5  1  0
  8  7  1  0
  8  9  1  1
 10  9  1  0
 11 10  1  0
 12 11  1  0
 13 12  1  0
 14  8  1  0
 15 14  2  0
 16 14  1  0
 17 16  1  0
 17 22  1  0
 17 18  1  1
 19 18  1  0
 20 19  1  0
 20 24  1  0
 21 20  2  0
 22 25  1  0
 23 22  2  0
M  END
$$$$
