SKE.pdb
     RDKit          3D

 25 24  0  0  1  0  0  0  0  0999 V2000
    9.2826  -18.6798   20.4510 O   0  0  0  0  0  0  0  0  0  0  0  0
    8.2374  -17.8829   19.9843 C   0  0  0  0  0  0  0  0  0  0  0  0
    8.6786  -16.4513   19.7777 C   0  0  2  0  0  0  0  0  0  0  0  0
    9.8430  -16.3332   18.9232 N   0  0  0  0  0  0  0  0  0  0  0  0
    8.9721  -15.8612   21.1088 C   0  0  0  0  0  0  0  0  0  0  0  0
   10.2006  -15.7976   21.4569 O   0  0  0  0  0  0  0  0  0  0  0  0
    7.9664  -15.3822   21.9753 N   0  0  0  0  0  0  0  0  0  0  0  0
    8.3181  -14.8050   23.2324 C   0  0  1  0  0  0  0  0  0  0  0  0
    7.1341  -14.1570   23.9277 C   0  0  0  0  0  0  0  0  0  0  0  0
    7.5690  -13.4605   25.1991 C   0  0  0  0  0  0  0  0  0  0  0  0
    6.3658  -12.7321   25.7577 C   0  0  0  0  0  0  0  0  0  0  0  0
    6.8543  -11.9222   26.9585 C   0  0  0  0  0  0  0  0  0  0  0  0
    5.7547  -11.1964   27.5236 N   0  0  0  0  0  0  0  0  0  0  0  0
    8.9105  -15.8351   24.1295 C   0  0  0  0  0  0  0  0  0  0  0  0
    8.4424  -16.9874   24.1079 O   0  0  0  0  0  0  0  0  0  0  0  0
    9.9713  -15.5217   24.9817 N   0  0  0  0  0  0  0  0  0  0  0  0
   10.7056  -16.6366   25.6329 C   0  0  1  0  0  0  0  0  0  0  0  0
   12.1419  -16.4088   25.3117 C   0  0  0  0  0  0  0  0  0  0  0  0
   12.9548  -17.5410   24.8445 C   0  0  0  0  0  0  0  0  0  0  0  0
   14.3518  -17.3239   24.5389 C   0  0  0  0  0  0  0  0  0  0  0  0
   14.9373  -17.9632   23.5951 O   0  0  0  0  0  0  0  0  0  0  0  0
   10.3678  -16.4976   27.0615 C   0  0  0  0  0  0  0  0  0  0  0  0
   10.4339  -17.4311   27.8858 O   0  0  0  0  0  0  0  0  0  0  0  0
   15.1699  -16.4215   25.2210 O   0  0  0  0  0  0  0  0  0  0  0  0
    9.9405  -15.2717   27.5912 O   0  0  0  0  0  0  0  0  0  0  0  0
  1  2  1  0
  3  5  1  0
  3  2  1  0
  3  4  1  6
  5  6  2  0
  7  5  1  0
  8  7  1  0
  8  9  1  1
 10  9  1  0
 11 10  1  0
 12 11  1  0
 13 12  1  0
 14  8  1  0
 15 14  2  0
 16 14  1  0
 17 16  1  0
 17 22  1  0
 17 18  1  1
 19 18  1  0
 20 19  1  0
 20 24  1  0
 21 20  2  0
 22 25  1  0
 23 22  2  0
M  END
$$$$
