SKE.pdb
     RDKit          3D

 25 24  0  0  1  0  0  0  0  0999 V2000
    7.0097  -21.4390   23.3352 O   0  0  0  0  0  0  0  0  0  0  0  0
    5.7744  -20.7914   23.3494 C   0  0  0  0  0  0  0  0  0  0  0  0
    5.4640  -20.1558   22.0129 C   0  0  2  0  0  0  0  0  0  0  0  0
    5.3157  -21.1234   20.9443 N   0  0  0  0  0  0  0  0  0  0  0  0
    6.5616  -19.2107   21.6841 C   0  0  0  0  0  0  0  0  0  0  0  0
    7.5987  -19.7002   21.1191 O   0  0  0  0  0  0  0  0  0  0  0  0
    6.4966  -17.8296   21.9674 N   0  0  0  0  0  0  0  0  0  0  0  0
    7.5772  -16.9712   21.6030 C   0  0  1  0  0  0  0  0  0  0  0  0
    7.1320  -15.5370   21.3796 C   0  0  0  0  0  0  0  0  0  0  0  0
    8.2628  -14.7013   20.8192 C   0  0  0  0  0  0  0  0  0  0  0  0
    7.6838  -13.3669   20.4020 C   0  0  0  0  0  0  0  0  0  0  0  0
    8.7930  -12.6095   19.6722 C   0  0  0  0  0  0  0  0  0  0  0  0
    8.3349  -11.2912   19.3446 N   0  0  0  0  0  0  0  0  0  0  0  0
    8.6376  -16.9989   22.6477 C   0  0  0  0  0  0  0  0  0  0  0  0
    8.2996  -17.1016   23.8404 O   0  0  0  0  0  0  0  0  0  0  0  0
    9.9881  -16.9117   22.3034 N   0  0  0  0  0  0  0  0  0  0  0  0
   10.9988  -16.9880   23.3892 C   0  0  1  0  0  0  0  0  0  0  0  0
   12.3214  -16.9312   22.7067 C   0  0  0  0  0  0  0  0  0  0  0  0
   12.7068  -15.6994   22.0032 C   0  0  0  0  0  0  0  0  0  0  0  0
   13.9913  -15.6413   21.3408 C   0  0  0  0  0  0  0  0  0  0  0  0
   15.0855  -15.5954   22.0062 O   0  0  0  0  0  0  0  0  0  0  0  0
   10.6969  -15.8207   24.2379 C   0  0  0  0  0  0  0  0  0  0  0  0
    9.9453  -14.8867   23.8943 O   0  0  0  0  0  0  0  0  0  0  0  0
   14.1560  -15.6330   19.9546 O   0  0  0  0  0  0  0  0  0  0  0  0
   11.2537  -15.6895   25.5181 O   0  0  0  0  0  0  0  0  0  0  0  0
  1  2  1  0
  3  5  1  0
  3  2  1  0
  3  4  1  6
  5  6  2  0
  7  5  1  0
  8  7  1  0
  8  9  1  1
 10  9  1  0
 11 10  1  0
 12 11  1  0
 13 12  1  0
 14  8  1  0
 15 14  2  0
 16 14  1  0
 17 16  1  0
 17 22  1  0
 17 18  1  6
 19 18  1  0
 20 19  1  0
 20 24  1  0
 21 20  2  0
 22 25  1  0
 23 22  2  0
M  END
$$$$
