FPM.pdb
     RDKit          3D

 27 28  0  0  1  0  0  0  0  0999 V2000
   25.0413  -17.8267  -16.2827 N   0  0  0  0  0  0  0  0  0  0  0  0
   26.2647  -18.0388  -15.4982 C   0  0  1  0  0  0  0  0  0  0  0  0
   26.6065  -16.7776  -14.7326 C   0  0  0  0  0  0  0  0  0  0  0  0
   27.0079  -15.6550  -15.5979 C   0  0  0  0  0  0  0  0  0  0  0  0
   26.2832  -14.4800  -15.5922 C   0  0  0  0  0  0  0  0  0  0  0  0
   26.6365  -13.4011  -16.3926 C   0  0  0  0  0  0  0  0  0  0  0  0
   27.7254  -13.4964  -17.2078 C   0  0  0  0  0  0  0  0  0  0  0  0
   28.4581  -14.6540  -17.2283 C   0  0  0  0  0  0  0  0  0  0  0  0
   28.1045  -15.7088  -16.4394 C   0  0  0  0  0  0  0  0  0  0  0  0
   26.1538  -19.2402  -14.6768 C   0  0  0  0  0  0  0  0  0  0  0  0
   25.1229  -19.3476  -13.9239 O   0  0  0  0  0  0  0  0  0  0  0  0
   27.0847  -20.3240  -14.6248 N   0  0  0  0  0  0  0  0  0  0  0  0
   28.1483  -20.4744  -15.6070 C   0  0  0  0  0  0  0  0  0  0  0  0
   28.5562  -21.9409  -15.4974 C   0  0  0  0  0  0  0  0  0  0  0  0
   28.4543  -22.0903  -13.9714 C   0  0  0  0  0  0  0  0  0  0  0  0
   27.1529  -21.4002  -13.6914 C   0  0  1  0  0  0  0  0  0  0  0  0
   27.1856  -20.9460  -12.2766 C   0  0  0  0  0  0  0  0  0  0  0  0
   28.2365  -20.6547  -11.6730 O   0  0  0  0  0  0  0  0  0  0  0  0
   29.3473  -19.4921   -6.9832 C   0  0  0  0  0  0  0  0  0  0  0  0
   27.7411  -18.7338   -7.3323 S   0  0  0  0  0  0  0  0  0  0  0  0
   26.5691  -19.9859   -7.9794 C   0  0  0  0  0  0  0  0  0  0  0  0
   26.6681  -20.0418   -9.4638 C   0  0  0  0  0  0  0  0  0  0  0  0
   25.8348  -21.0728  -10.1421 C   0  0  2  0  0  0  0  0  0  0  0  0
   25.9501  -20.8458  -11.5998 N   0  0  0  0  0  0  0  0  0  0  0  0
   24.4117  -20.9632   -9.7981 C   0  0  0  0  0  0  0  0  0  0  0  0
   23.5812  -20.6022  -10.6572 O   0  0  0  0  0  0  0  0  0  0  0  0
   23.9728  -21.2567   -8.5277 O   0  0  0  0  0  0  0  0  0  0  0  0
  2  1  1  1
  3  4  1  0
  3  2  1  0
  4  9  2  0
  5  6  2  0
  5  4  1  0
  6  7  1  0
  7  8  2  0
  9  8  1  0
 10  2  1  0
 10 11  2  0
 12 10  1  0
 13 12  1  0
 14 15  1  0
 14 13  1  0
 15 16  1  0
 16 12  1  0
 16 17  1  1
 18 17  2  0
 20 19  1  0
 21 20  1  0
 22 21  1  0
 23 22  1  1
 23 24  1  0
 24 17  1  0
 25 23  1  0
 26 25  2  0
 27 25  1  0
M  END
$$$$
