FPM.pdb
     RDKit          3D

 27 28  0  0  1  0  0  0  0  0999 V2000
   23.4335  -19.6890  -17.5086 N   0  0  0  0  0  0  0  0  0  0  0  0
   24.2001  -18.8316  -16.5951 C   0  0  1  0  0  0  0  0  0  0  0  0
   23.3871  -17.6033  -16.2432 C   0  0  0  0  0  0  0  0  0  0  0  0
   23.1691  -16.6960  -17.3832 C   0  0  0  0  0  0  0  0  0  0  0  0
   24.1830  -15.8627  -17.8116 C   0  0  0  0  0  0  0  0  0  0  0  0
   24.0122  -14.9982  -18.8852 C   0  0  0  0  0  0  0  0  0  0  0  0
   22.8158  -14.9652  -19.5386 C   0  0  0  0  0  0  0  0  0  0  0  0
   21.7965  -15.7843  -19.1291 C   0  0  0  0  0  0  0  0  0  0  0  0
   21.9724  -16.6303  -18.0739 C   0  0  0  0  0  0  0  0  0  0  0  0
   24.6815  -19.5941  -15.4475 C   0  0  0  0  0  0  0  0  0  0  0  0
   23.8196  -20.2726  -14.7858 O   0  0  0  0  0  0  0  0  0  0  0  0
   26.0305  -19.6662  -14.9794 N   0  0  0  0  0  0  0  0  0  0  0  0
   27.1480  -19.1702  -15.7691 C   0  0  0  0  0  0  0  0  0  0  0  0
   28.3678  -19.8669  -15.1729 C   0  0  0  0  0  0  0  0  0  0  0  0
   27.9660  -19.7974  -13.6912 C   0  0  0  0  0  0  0  0  0  0  0  0
   26.5244  -20.2053  -13.7548 C   0  0  1  0  0  0  0  0  0  0  0  0
   25.8501  -19.6446  -12.5548 C   0  0  0  0  0  0  0  0  0  0  0  0
   25.3809  -18.4908  -12.5071 O   0  0  0  0  0  0  0  0  0  0  0  0
   20.7944  -19.4776  -11.5145 C   0  0  0  0  0  0  0  0  0  0  0  0
   20.9870  -19.8265   -9.7487 S   0  0  0  0  0  0  0  0  0  0  0  0
   22.7492  -19.7015   -9.2598 C   0  0  0  0  0  0  0  0  0  0  0  0
   23.6136  -20.1116  -10.4004 C   0  0  0  0  0  0  0  0  0  0  0  0
   25.0835  -20.0316  -10.1759 C   0  0  2  0  0  0  0  0  0  0  0  0
   25.7461  -20.4798  -11.4208 N   0  0  0  0  0  0  0  0  0  0  0  0
   25.5387  -20.9199   -9.0992 C   0  0  0  0  0  0  0  0  0  0  0  0
   25.7802  -22.1220   -9.3331 O   0  0  0  0  0  0  0  0  0  0  0  0
   25.7063  -20.4423   -7.8200 O   0  0  0  0  0  0  0  0  0  0  0  0
  2  1  1  6
  3  4  1  0
  3  2  1  0
  4  9  2  0
  5  6  2  0
  5  4  1  0
  6  7  1  0
  7  8  2  0
  9  8  1  0
 10  2  1  0
 10 11  2  0
 12 10  1  0
 13 12  1  0
 14 15  1  0
 14 13  1  0
 15 16  1  0
 16 12  1  0
 16 17  1  1
 18 17  2  0
 20 19  1  0
 21 20  1  0
 22 21  1  0
 23 22  1  6
 23 24  1  0
 24 17  1  0
 25 23  1  0
 26 25  2  0
 27 25  1  0
M  END
$$$$
