FPM.pdb
     RDKit          3D

 27 28  0  0  1  0  0  0  0  0999 V2000
   28.3341  -20.9096   -9.5218 N   0  0  0  0  0  0  0  0  0  0  0  0
   26.8902  -20.6791   -9.3832 C   0  0  1  0  0  0  0  0  0  0  0  0
   26.6427  -19.5755   -8.3760 C   0  0  0  0  0  0  0  0  0  0  0  0
   27.3267  -19.7898   -7.0890 C   0  0  0  0  0  0  0  0  0  0  0  0
   28.3754  -18.9733   -6.7153 C   0  0  0  0  0  0  0  0  0  0  0  0
   29.0393  -19.1454   -5.5074 C   0  0  0  0  0  0  0  0  0  0  0  0
   28.6519  -20.1436   -4.6632 C   0  0  0  0  0  0  0  0  0  0  0  0
   27.6133  -20.9651   -5.0153 C   0  0  0  0  0  0  0  0  0  0  0  0
   26.9667  -20.7894   -6.2033 C   0  0  0  0  0  0  0  0  0  0  0  0
   26.2703  -20.4655  -10.6872 C   0  0  0  0  0  0  0  0  0  0  0  0
   26.2855  -19.2751  -11.1603 O   0  0  0  0  0  0  0  0  0  0  0  0
   25.6420  -21.4573  -11.5031 N   0  0  0  0  0  0  0  0  0  0  0  0
   25.8130  -22.8812  -11.2547 C   0  0  0  0  0  0  0  0  0  0  0  0
   25.4276  -23.5418  -12.5752 C   0  0  0  0  0  0  0  0  0  0  0  0
   24.2425  -22.6356  -12.9438 C   0  0  0  0  0  0  0  0  0  0  0  0
   24.8016  -21.2775  -12.6413 C   0  0  1  0  0  0  0  0  0  0  0  0
   23.6526  -20.3709  -12.3825 C   0  0  0  0  0  0  0  0  0  0  0  0
   23.5326  -19.6940  -11.3428 O   0  0  0  0  0  0  0  0  0  0  0  0
   22.1420  -13.9895  -15.5314 C   0  0  0  0  0  0  0  0  0  0  0  0
   23.0231  -15.4937  -15.0437 S   0  0  0  0  0  0  0  0  0  0  0  0
   21.8474  -16.7445  -14.4009 C   0  0  0  0  0  0  0  0  0  0  0  0
   22.5790  -18.0030  -14.0888 C   0  0  0  0  0  0  0  0  0  0  0  0
   21.7702  -19.1084  -13.5047 C   0  0  2  0  0  0  0  0  0  0  0  0
   22.6565  -20.2868  -13.3801 N   0  0  0  0  0  0  0  0  0  0  0  0
   20.6468  -19.5007  -14.3649 C   0  0  0  0  0  0  0  0  0  0  0  0
   19.4737  -19.2384  -14.0288 O   0  0  0  0  0  0  0  0  0  0  0  0
   20.8693  -20.1605  -15.5513 O   0  0  0  0  0  0  0  0  0  0  0  0
  2  1  1  6
  3  4  1  0
  3  2  1  0
  4  9  2  0
  5  6  2  0
  5  4  1  0
  6  7  1  0
  7  8  2  0
  9  8  1  0
 10  2  1  0
 10 11  2  0
 12 10  1  0
 13 12  1  0
 14 15  1  0
 14 13  1  0
 15 16  1  0
 16 12  1  0
 16 17  1  1
 18 17  2  0
 20 19  1  0
 21 20  1  0
 22 21  1  0
 23 22  1  6
 23 24  1  0
 24 17  1  0
 25 23  1  0
 26 25  2  0
 27 25  1  0
M  END
$$$$
