FPM.pdb
     RDKit          3D

 27 28  0  0  1  0  0  0  0  0999 V2000
   25.5256  -22.2756  -16.3838 N   0  0  0  0  0  0  0  0  0  0  0  0
   26.1597  -21.1163  -15.7425 C   0  0  1  0  0  0  0  0  0  0  0  0
   25.3975  -19.8562  -16.0954 C   0  0  0  0  0  0  0  0  0  0  0  0
   26.0631  -18.6211  -15.6461 C   0  0  0  0  0  0  0  0  0  0  0  0
   27.1171  -18.0979  -16.3681 C   0  0  0  0  0  0  0  0  0  0  0  0
   27.7640  -16.9335  -15.9747 C   0  0  0  0  0  0  0  0  0  0  0  0
   27.3542  -16.2841  -14.8480 C   0  0  0  0  0  0  0  0  0  0  0  0
   26.3100  -16.7868  -14.1171 C   0  0  0  0  0  0  0  0  0  0  0  0
   25.6801  -17.9309  -14.5102 C   0  0  0  0  0  0  0  0  0  0  0  0
   26.3327  -21.3442  -14.3112 C   0  0  0  0  0  0  0  0  0  0  0  0
   25.2948  -21.6717  -13.6357 O   0  0  0  0  0  0  0  0  0  0  0  0
   27.5540  -21.2410  -13.5751 N   0  0  0  0  0  0  0  0  0  0  0  0
   28.8379  -21.0518  -14.2343 C   0  0  0  0  0  0  0  0  0  0  0  0
   29.8633  -21.4882  -13.1918 C   0  0  0  0  0  0  0  0  0  0  0  0
   29.1824  -20.9011  -11.9455 C   0  0  0  0  0  0  0  0  0  0  0  0
   27.7567  -21.3106  -12.1650 C   0  0  1  0  0  0  0  0  0  0  0  0
   26.8998  -20.3646  -11.4036 C   0  0  0  0  0  0  0  0  0  0  0  0
   26.5862  -19.2331  -11.8220 O   0  0  0  0  0  0  0  0  0  0  0  0
   21.6287  -18.8888  -11.1271 C   0  0  0  0  0  0  0  0  0  0  0  0
   21.8302  -20.6754  -10.9168 S   0  0  0  0  0  0  0  0  0  0  0  0
   23.4107  -21.0458  -10.0655 C   0  0  0  0  0  0  0  0  0  0  0  0
   24.2462  -19.8150  -10.0072 C   0  0  0  0  0  0  0  0  0  0  0  0
   25.5537  -19.9382   -9.3053 C   0  0  2  0  0  0  0  0  0  0  0  0
   26.4268  -20.7902  -10.1429 N   0  0  0  0  0  0  0  0  0  0  0  0
   25.4323  -20.5957   -7.9981 C   0  0  0  0  0  0  0  0  0  0  0  0
   25.7167  -21.8044   -7.8714 O   0  0  0  0  0  0  0  0  0  0  0  0
   25.0053  -19.8915   -6.8961 O   0  0  0  0  0  0  0  0  0  0  0  0
  2  1  1  1
  3  4  1  0
  3  2  1  0
  4  9  2  0
  5  6  2  0
  5  4  1  0
  6  7  1  0
  7  8  2  0
  9  8  1  0
 10  2  1  0
 10 11  2  0
 12 10  1  0
 13 12  1  0
 14 15  1  0
 14 13  1  0
 15 16  1  0
 16 12  1  0
 16 17  1  1
 18 17  2  0
 20 19  1  0
 21 20  1  0
 22 21  1  0
 23 22  1  6
 23 24  1  0
 24 17  1  0
 25 23  1  0
 26 25  2  0
 27 25  1  0
M  END
$$$$
