FPM.pdb
     RDKit          3D

 27 28  0  0  1  0  0  0  0  0999 V2000
   18.0076  -11.6313  -14.9438 N   0  0  0  0  0  0  0  0  0  0  0  0
   17.9180  -10.1654  -14.9265 C   0  0  1  0  0  0  0  0  0  0  0  0
   16.6495   -9.7222  -15.6250 C   0  0  0  0  0  0  0  0  0  0  0  0
   16.6417  -10.0117  -17.0694 C   0  0  0  0  0  0  0  0  0  0  0  0
   17.6740   -9.5694  -17.8722 C   0  0  0  0  0  0  0  0  0  0  0  0
   17.6996   -9.8283  -19.2365 C   0  0  0  0  0  0  0  0  0  0  0  0
   16.6832  -10.5368  -19.8059 C   0  0  0  0  0  0  0  0  0  0  0  0
   15.6491  -10.9849  -19.0267 C   0  0  0  0  0  0  0  0  0  0  0  0
   15.6315  -10.7263  -17.6877 C   0  0  0  0  0  0  0  0  0  0  0  0
   18.0795   -9.6507  -13.5702 C   0  0  0  0  0  0  0  0  0  0  0  0
   17.3441  -10.1607  -12.6536 O   0  0  0  0  0  0  0  0  0  0  0  0
   18.9845   -8.6263  -13.1514 N   0  0  0  0  0  0  0  0  0  0  0  0
   20.0726   -8.1644  -14.0007 C   0  0  0  0  0  0  0  0  0  0  0  0
   21.0412   -7.4872  -13.0353 C   0  0  0  0  0  0  0  0  0  0  0  0
   20.0103   -6.8075  -12.1205 C   0  0  0  0  0  0  0  0  0  0  0  0
   19.0191   -7.9139  -11.9162 C   0  0  1  0  0  0  0  0  0  0  0  0
   17.7180   -7.2866  -11.5663 C   0  0  0  0  0  0  0  0  0  0  0  0
   16.8887   -6.9060  -12.4155 O   0  0  0  0  0  0  0  0  0  0  0  0
   11.7483   -8.0037   -6.9332 C   0  0  0  0  0  0  0  0  0  0  0  0
   13.3186   -8.5131   -7.6759 S   0  0  0  0  0  0  0  0  0  0  0  0
   14.4075   -7.0606   -7.9304 C   0  0  0  0  0  0  0  0  0  0  0  0
   15.6493   -7.4851   -8.6332 C   0  0  0  0  0  0  0  0  0  0  0  0
   16.1248   -6.5946   -9.7279 C   0  0  2  0  0  0  0  0  0  0  0  0
   17.4259   -7.1231  -10.1943 N   0  0  0  0  0  0  0  0  0  0  0  0
   16.3544   -5.2171   -9.2747 C   0  0  0  0  0  0  0  0  0  0  0  0
   15.3893   -4.4727   -9.0054 O   0  0  0  0  0  0  0  0  0  0  0  0
   17.6329   -4.7274   -9.1395 O   0  0  0  0  0  0  0  0  0  0  0  0
  2  1  1  1
  3  4  1  0
  3  2  1  0
  4  9  2  0
  5  6  2  0
  5  4  1  0
  6  7  1  0
  7  8  2  0
  9  8  1  0
 10  2  1  0
 10 11  2  0
 12 10  1  0
 13 12  1  0
 14 15  1  0
 14 13  1  0
 15 16  1  0
 16 12  1  0
 16 17  1  6
 18 17  2  0
 20 19  1  0
 21 20  1  0
 22 21  1  0
 23 22  1  1
 23 24  1  0
 24 17  1  0
 25 23  1  0
 26 25  2  0
 27 25  1  0
M  END
$$$$
