FPM.pdb
     RDKit          3D

 27 28  0  0  1  0  0  0  0  0999 V2000
   25.6990  -21.6125  -17.0468 N   0  0  0  0  0  0  0  0  0  0  0  0
   26.2436  -20.4713  -16.2998 C   0  0  1  0  0  0  0  0  0  0  0  0
   25.4350  -19.2276  -16.6044 C   0  0  0  0  0  0  0  0  0  0  0  0
   26.1273  -17.9755  -16.2538 C   0  0  0  0  0  0  0  0  0  0  0  0
   25.7919  -17.2958  -15.0999 C   0  0  0  0  0  0  0  0  0  0  0  0
   26.4274  -16.1150  -14.7378 C   0  0  0  0  0  0  0  0  0  0  0  0
   27.4088  -15.6070  -15.5366 C   0  0  0  0  0  0  0  0  0  0  0  0
   27.7567  -16.2662  -16.6863 C   0  0  0  0  0  0  0  0  0  0  0  0
   27.1277  -17.4252  -17.0347 C   0  0  0  0  0  0  0  0  0  0  0  0
   26.3635  -20.7887  -14.8802 C   0  0  0  0  0  0  0  0  0  0  0  0
   25.3326  -21.2739  -14.2946 O   0  0  0  0  0  0  0  0  0  0  0  0
   27.5249  -20.6150  -14.0648 N   0  0  0  0  0  0  0  0  0  0  0  0
   28.8079  -20.2172  -14.6255 C   0  0  0  0  0  0  0  0  0  0  0  0
   29.8251  -20.6286  -13.5649 C   0  0  0  0  0  0  0  0  0  0  0  0
   29.0168  -20.2446  -12.3156 C   0  0  0  0  0  0  0  0  0  0  0  0
   27.6638  -20.7936  -12.6567 C   0  0  1  0  0  0  0  0  0  0  0  0
   26.6619  -20.0293  -11.8686 C   0  0  0  0  0  0  0  0  0  0  0  0
   26.1945  -18.9323  -12.2317 O   0  0  0  0  0  0  0  0  0  0  0  0
   19.5948  -19.8633  -10.8144 C   0  0  0  0  0  0  0  0  0  0  0  0
   21.2130  -20.3676  -11.4500 S   0  0  0  0  0  0  0  0  0  0  0  0
   22.5322  -19.9463  -10.2491 C   0  0  0  0  0  0  0  0  0  0  0  0
   23.8554  -20.3485  -10.8001 C   0  0  0  0  0  0  0  0  0  0  0  0
   25.0372  -20.0918   -9.9313 C   0  0  2  0  0  0  0  0  0  0  0  0
   26.2305  -20.5937  -10.6481 N   0  0  0  0  0  0  0  0  0  0  0  0
   24.9649  -20.8116   -8.6537 C   0  0  0  0  0  0  0  0  0  0  0  0
   24.5835  -20.2250   -7.6200 O   0  0  0  0  0  0  0  0  0  0  0  0
   25.3147  -22.1399   -8.5766 O   0  0  0  0  0  0  0  0  0  0  0  0
  2  1  1  6
  3  4  1  0
  3  2  1  0
  4  9  2  0
  5  6  2  0
  5  4  1  0
  6  7  1  0
  7  8  2  0
  9  8  1  0
 10  2  1  0
 10 11  2  0
 12 10  1  0
 13 12  1  0
 14 15  1  0
 14 13  1  0
 15 16  1  0
 16 12  1  0
 16 17  1  1
 18 17  2  0
 20 19  1  0
 21 20  1  0
 22 21  1  0
 23 22  1  6
 23 24  1  0
 24 17  1  0
 25 23  1  0
 26 25  2  0
 27 25  1  0
M  END
$$$$
