FPM.pdb
     RDKit          3D

 27 28  0  0  1  0  0  0  0  0999 V2000
   25.8894  -18.5306   -8.2257 N   0  0  0  0  0  0  0  0  0  0  0  0
   26.7532  -19.5825   -8.7775 C   0  0  1  0  0  0  0  0  0  0  0  0
   26.8557  -20.7289   -7.7932 C   0  0  0  0  0  0  0  0  0  0  0  0
   27.4879  -20.3533   -6.5168 C   0  0  0  0  0  0  0  0  0  0  0  0
   28.6353  -19.5857   -6.5093 C   0  0  0  0  0  0  0  0  0  0  0  0
   29.2545  -19.2107   -5.3238 C   0  0  0  0  0  0  0  0  0  0  0  0
   28.7221  -19.6064   -4.1325 C   0  0  0  0  0  0  0  0  0  0  0  0
   27.5836  -20.3687   -4.1180 C   0  0  0  0  0  0  0  0  0  0  0  0
   26.9818  -20.7327   -5.2866 C   0  0  0  0  0  0  0  0  0  0  0  0
   26.3159  -19.9650  -10.1164 C   0  0  0  0  0  0  0  0  0  0  0  0
   25.0695  -19.8456  -10.3872 O   0  0  0  0  0  0  0  0  0  0  0  0
   27.1425  -20.4631  -11.1713 N   0  0  0  0  0  0  0  0  0  0  0  0
   28.5498  -20.7737  -10.9668 C   0  0  0  0  0  0  0  0  0  0  0  0
   29.1419  -20.7770  -12.3732 C   0  0  0  0  0  0  0  0  0  0  0  0
   27.9737  -21.4522  -13.1087 C   0  0  0  0  0  0  0  0  0  0  0  0
   26.7976  -20.7236  -12.5305 C   0  0  1  0  0  0  0  0  0  0  0  0
   25.6119  -21.6082  -12.6738 C   0  0  0  0  0  0  0  0  0  0  0  0
   25.2519  -22.4209  -11.7999 O   0  0  0  0  0  0  0  0  0  0  0  0
   20.9932  -20.8202  -10.1241 C   0  0  0  0  0  0  0  0  0  0  0  0
   20.3576  -20.4438  -11.7767 S   0  0  0  0  0  0  0  0  0  0  0  0
   21.1885  -21.4859  -13.0350 C   0  0  0  0  0  0  0  0  0  0  0  0
   22.6551  -21.2320  -13.0037 C   0  0  0  0  0  0  0  0  0  0  0  0
   23.4790  -22.0047  -13.9739 C   0  0  2  0  0  0  0  0  0  0  0  0
   24.8684  -21.5060  -13.8700 N   0  0  0  0  0  0  0  0  0  0  0  0
   23.0498  -21.8042  -15.3636 C   0  0  0  0  0  0  0  0  0  0  0  0
   23.5299  -20.8744  -16.0440 O   0  0  0  0  0  0  0  0  0  0  0  0
   22.1152  -22.6360  -15.9357 O   0  0  0  0  0  0  0  0  0  0  0  0
  2  1  1  1
  3  4  1  0
  3  2  1  0
  4  9  2  0
  5  6  2  0
  5  4  1  0
  6  7  1  0
  7  8  2  0
  9  8  1  0
 10  2  1  0
 10 11  2  0
 12 10  1  0
 13 12  1  0
 14 15  1  0
 14 13  1  0
 15 16  1  0
 16 12  1  0
 16 17  1  1
 18 17  2  0
 20 19  1  0
 21 20  1  0
 22 21  1  0
 23 22  1  1
 23 24  1  0
 24 17  1  0
 25 23  1  0
 26 25  2  0
 27 25  1  0
M  END
$$$$
