FPM.pdb
     RDKit          3D

 27 28  0  0  1  0  0  0  0  0999 V2000
   16.2160  -15.9299    5.7169 N   0  0  0  0  0  0  0  0  0  0  0  0
   17.5826  -15.8982    6.2539 C   0  0  1  0  0  0  0  0  0  0  0  0
   17.7544  -14.6853    7.1444 C   0  0  0  0  0  0  0  0  0  0  0  0
   18.7844  -13.7466    6.6671 C   0  0  0  0  0  0  0  0  0  0  0  0
   19.9206  -13.5212    7.4184 C   0  0  0  0  0  0  0  0  0  0  0  0
   20.9127  -12.6458    6.9959 C   0  0  0  0  0  0  0  0  0  0  0  0
   20.7692  -11.9880    5.8101 C   0  0  0  0  0  0  0  0  0  0  0  0
   19.6490  -12.1977    5.0494 C   0  0  0  0  0  0  0  0  0  0  0  0
   18.6793  -13.0589    5.4715 C   0  0  0  0  0  0  0  0  0  0  0  0
   17.9236  -17.1703    6.8831 C   0  0  0  0  0  0  0  0  0  0  0  0
   17.0194  -17.7413    7.5885 O   0  0  0  0  0  0  0  0  0  0  0  0
   19.1749  -17.8558    6.7923 N   0  0  0  0  0  0  0  0  0  0  0  0
   20.1820  -17.4946    5.8054 C   0  0  0  0  0  0  0  0  0  0  0  0
   21.0791  -18.7258    5.7162 C   0  0  0  0  0  0  0  0  0  0  0  0
   21.1001  -19.0987    7.2069 C   0  0  0  0  0  0  0  0  0  0  0  0
   19.6528  -18.9514    7.5704 C   0  0  1  0  0  0  0  0  0  0  0  0
   19.5849  -18.7028    9.0342 C   0  0  0  0  0  0  0  0  0  0  0  0
   19.8625  -17.6063    9.5581 O   0  0  0  0  0  0  0  0  0  0  0  0
   15.3230  -19.7454   13.7051 C   0  0  0  0  0  0  0  0  0  0  0  0
   15.1980  -19.3729   11.9380 S   0  0  0  0  0  0  0  0  0  0  0  0
   16.7475  -19.8354   11.0750 C   0  0  0  0  0  0  0  0  0  0  0  0
   17.9163  -19.3067   11.8305 C   0  0  0  0  0  0  0  0  0  0  0  0
   19.2605  -19.7088   11.3319 C   0  0  2  0  0  0  0  0  0  0  0  0
   19.1821  -19.7785    9.8558 N   0  0  0  0  0  0  0  0  0  0  0  0
   19.6640  -21.0381   11.8072 C   0  0  0  0  0  0  0  0  0  0  0  0
   19.8064  -21.9799   11.0005 O   0  0  0  0  0  0  0  0  0  0  0  0
   19.8912  -21.2652   13.1449 O   0  0  0  0  0  0  0  0  0  0  0  0
  2  1  1  1
  3  4  1  0
  3  2  1  0
  4  9  2  0
  5  6  2  0
  5  4  1  0
  6  7  1  0
  7  8  2  0
  9  8  1  0
 10  2  1  0
 10 11  2  0
 12 10  1  0
 13 12  1  0
 14 15  1  0
 14 13  1  0
 15 16  1  0
 16 12  1  0
 16 17  1  1
 18 17  2  0
 20 19  1  0
 21 20  1  0
 22 21  1  0
 23 22  1  1
 23 24  1  0
 24 17  1  0
 25 23  1  0
 26 25  2  0
 27 25  1  0
M  END
$$$$
