FPM.pdb
     RDKit          3D

 27 28  0  0  1  0  0  0  0  0999 V2000
   25.5515  -19.3434   -7.7339 N   0  0  0  0  0  0  0  0  0  0  0  0
   26.7528  -19.7930   -8.4494 C   0  0  1  0  0  0  0  0  0  0  0  0
   27.4387  -20.8881   -7.6597 C   0  0  0  0  0  0  0  0  0  0  0  0
   28.0933  -20.4055   -6.4314 C   0  0  0  0  0  0  0  0  0  0  0  0
   27.4417  -20.4913   -5.2173 C   0  0  0  0  0  0  0  0  0  0  0  0
   28.0314  -20.0494   -4.0400 C   0  0  0  0  0  0  0  0  0  0  0  0
   29.2858  -19.5159   -4.0750 C   0  0  0  0  0  0  0  0  0  0  0  0
   29.9498  -19.4217   -5.2699 C   0  0  0  0  0  0  0  0  0  0  0  0
   29.3635  -19.8579   -6.4215 C   0  0  0  0  0  0  0  0  0  0  0  0
   26.4347  -20.1438   -9.8300 C   0  0  0  0  0  0  0  0  0  0  0  0
   25.1969  -20.1922  -10.1568 O   0  0  0  0  0  0  0  0  0  0  0  0
   27.3704  -20.4409  -10.8694 N   0  0  0  0  0  0  0  0  0  0  0  0
   28.7857  -20.6444  -10.5974 C   0  0  0  0  0  0  0  0  0  0  0  0
   29.4621  -20.4329  -11.9490 C   0  0  0  0  0  0  0  0  0  0  0  0
   28.4139  -21.1222  -12.8365 C   0  0  0  0  0  0  0  0  0  0  0  0
   27.1383  -20.5740  -12.2703 C   0  0  1  0  0  0  0  0  0  0  0  0
   26.0562  -21.5399  -12.5947 C   0  0  0  0  0  0  0  0  0  0  0  0
   25.9390  -22.6509  -12.0418 O   0  0  0  0  0  0  0  0  0  0  0  0
   19.8705  -22.1126  -11.7900 C   0  0  0  0  0  0  0  0  0  0  0  0
   20.4507  -20.4859  -12.3325 S   0  0  0  0  0  0  0  0  0  0  0  0
   21.8254  -20.6637  -13.5319 C   0  0  0  0  0  0  0  0  0  0  0  0
   22.8483  -21.5961  -12.9837 C   0  0  0  0  0  0  0  0  0  0  0  0
   23.9443  -21.9917  -13.9109 C   0  0  2  0  0  0  0  0  0  0  0  0
   25.1228  -21.1588  -13.5836 N   0  0  0  0  0  0  0  0  0  0  0  0
   23.6118  -21.7374  -15.3182 C   0  0  0  0  0  0  0  0  0  0  0  0
   22.8048  -22.4762  -15.9189 O   0  0  0  0  0  0  0  0  0  0  0  0
   24.1823  -20.6836  -15.9940 O   0  0  0  0  0  0  0  0  0  0  0  0
  2  1  1  1
  3  4  1  0
  3  2  1  0
  4  9  2  0
  5  6  2  0
  5  4  1  0
  6  7  1  0
  7  8  2  0
  9  8  1  0
 10  2  1  0
 10 11  2  0
 12 10  1  0
 13 12  1  0
 14 15  1  0
 14 13  1  0
 15 16  1  0
 16 12  1  0
 16 17  1  1
 18 17  2  0
 20 19  1  0
 21 20  1  0
 22 21  1  0
 23 22  1  1
 23 24  1  0
 24 17  1  0
 25 23  1  0
 26 25  2  0
 27 25  1  0
M  END
$$$$
