FPM.pdb
     RDKit          3D

 27 28  0  0  1  0  0  0  0  0999 V2000
   13.0355  -18.8220    3.0048 N   0  0  0  0  0  0  0  0  0  0  0  0
   14.5037  -18.8597    2.9936 C   0  0  1  0  0  0  0  0  0  0  0  0
   15.0248  -18.1311    1.7725 C   0  0  0  0  0  0  0  0  0  0  0  0
   16.4951  -18.1052    1.6861 C   0  0  0  0  0  0  0  0  0  0  0  0
   17.1925  -16.9707    2.0500 C   0  0  0  0  0  0  0  0  0  0  0  0
   18.5788  -16.9140    1.9843 C   0  0  0  0  0  0  0  0  0  0  0  0
   19.2767  -18.0022    1.5506 C   0  0  0  0  0  0  0  0  0  0  0  0
   18.6035  -19.1381    1.1847 C   0  0  0  0  0  0  0  0  0  0  0  0
   17.2421  -19.1855    1.2521 C   0  0  0  0  0  0  0  0  0  0  0  0
   15.0455  -18.3869    4.2637 C   0  0  0  0  0  0  0  0  0  0  0  0
   14.7380  -17.1989    4.6313 O   0  0  0  0  0  0  0  0  0  0  0  0
   15.8921  -19.1197    5.1528 N   0  0  0  0  0  0  0  0  0  0  0  0
   16.1197  -20.5490    4.9978 C   0  0  0  0  0  0  0  0  0  0  0  0
   16.6273  -20.9990    6.3648 C   0  0  0  0  0  0  0  0  0  0  0  0
   17.5116  -19.7845    6.6885 C   0  0  0  0  0  0  0  0  0  0  0  0
   16.6165  -18.6500    6.2880 C   0  0  1  0  0  0  0  0  0  0  0  0
   17.4858  -17.4831    5.9853 C   0  0  0  0  0  0  0  0  0  0  0  0
   18.0155  -17.2915    4.8734 O   0  0  0  0  0  0  0  0  0  0  0  0
   15.3482  -12.0234    5.5483 C   0  0  0  0  0  0  0  0  0  0  0  0
   16.9128  -12.1440    4.6458 S   0  0  0  0  0  0  0  0  0  0  0  0
   18.1475  -13.0783    5.6269 C   0  0  0  0  0  0  0  0  0  0  0  0
   17.6464  -14.4579    5.8758 C   0  0  0  0  0  0  0  0  0  0  0  0
   18.4540  -15.2952    6.8054 C   0  0  2  0  0  0  0  0  0  0  0  0
   17.7096  -16.5550    7.0260 N   0  0  0  0  0  0  0  0  0  0  0  0
   18.6361  -14.6644    8.1186 C   0  0  0  0  0  0  0  0  0  0  0  0
   17.9646  -15.0448    9.0996 O   0  0  0  0  0  0  0  0  0  0  0  0
   19.5476  -13.6479    8.2878 O   0  0  0  0  0  0  0  0  0  0  0  0
  2  1  1  1
  3  4  1  0
  3  2  1  0
  4  9  2  0
  5  6  2  0
  5  4  1  0
  6  7  1  0
  7  8  2  0
  9  8  1  0
 10  2  1  0
 10 11  2  0
 12 10  1  0
 13 12  1  0
 14 15  1  0
 14 13  1  0
 15 16  1  0
 16 12  1  0
 16 17  1  6
 18 17  2  0
 20 19  1  0
 21 20  1  0
 22 21  1  0
 23 22  1  6
 23 24  1  0
 24 17  1  0
 25 23  1  0
 26 25  2  0
 27 25  1  0
M  END
$$$$
