FPM.pdb
     RDKit          3D

 27 28  0  0  1  0  0  0  0  0999 V2000
   23.5797  -21.8650  -14.0238 N   0  0  0  0  0  0  0  0  0  0  0  0
   24.3967  -20.7608  -13.5038 C   0  0  1  0  0  0  0  0  0  0  0  0
   23.5108  -19.5739  -13.1876 C   0  0  0  0  0  0  0  0  0  0  0  0
   22.8927  -18.9675  -14.3794 C   0  0  0  0  0  0  0  0  0  0  0  0
   21.5221  -18.9971  -14.5423 C   0  0  0  0  0  0  0  0  0  0  0  0
   20.9069  -18.4316  -15.6518 C   0  0  0  0  0  0  0  0  0  0  0  0
   21.6685  -17.8298  -16.6094 C   0  0  0  0  0  0  0  0  0  0  0  0
   23.0306  -17.7896  -16.4668 C   0  0  0  0  0  0  0  0  0  0  0  0
   23.6269  -18.3474  -15.3743 C   0  0  0  0  0  0  0  0  0  0  0  0
   25.2333  -21.2102  -12.3954 C   0  0  0  0  0  0  0  0  0  0  0  0
   24.6485  -21.7757  -11.4058 O   0  0  0  0  0  0  0  0  0  0  0  0
   26.6542  -21.0862  -12.2975 N   0  0  0  0  0  0  0  0  0  0  0  0
   27.4884  -20.8360  -13.4638 C   0  0  0  0  0  0  0  0  0  0  0  0
   28.8855  -21.2661  -13.0256 C   0  0  0  0  0  0  0  0  0  0  0  0
   28.8430  -20.7366  -11.5835 C   0  0  0  0  0  0  0  0  0  0  0  0
   27.4831  -21.1876  -11.1413 C   0  0  1  0  0  0  0  0  0  0  0  0
   27.0554  -20.2922  -10.0348 C   0  0  0  0  0  0  0  0  0  0  0  0
   26.2669  -19.3392  -10.1884 O   0  0  0  0  0  0  0  0  0  0  0  0
   23.4051  -20.5229   -5.2654 C   0  0  0  0  0  0  0  0  0  0  0  0
   24.2875  -22.0214   -5.7679 S   0  0  0  0  0  0  0  0  0  0  0  0
   25.9530  -21.5998   -6.4069 C   0  0  0  0  0  0  0  0  0  0  0  0
   25.9129  -20.2629   -7.0606 C   0  0  0  0  0  0  0  0  0  0  0  0
   27.2099  -19.7394   -7.5716 C   0  0  2  0  0  0  0  0  0  0  0  0
   27.5816  -20.5530   -8.7504 N   0  0  0  0  0  0  0  0  0  0  0  0
   28.2966  -19.8729   -6.5934 C   0  0  0  0  0  0  0  0  0  0  0  0
   29.1207  -20.8054   -6.6896 O   0  0  0  0  0  0  0  0  0  0  0  0
   28.4234  -18.9744   -5.5593 O   0  0  0  0  0  0  0  0  0  0  0  0
  2  1  1  1
  3  4  1  0
  3  2  1  0
  4  9  2  0
  5  6  2  0
  5  4  1  0
  6  7  1  0
  7  8  2  0
  9  8  1  0
 10  2  1  0
 10 11  2  0
 12 10  1  0
 13 12  1  0
 14 15  1  0
 14 13  1  0
 15 16  1  0
 16 12  1  0
 16 17  1  1
 18 17  2  0
 20 19  1  0
 21 20  1  0
 22 21  1  0
 23 22  1  1
 23 24  1  0
 24 17  1  0
 25 23  1  0
 26 25  2  0
 27 25  1  0
M  END
$$$$
