FPM.pdb
     RDKit          3D

 27 28  0  0  1  0  0  0  0  0999 V2000
   22.8631  -18.1809  -17.0348 N   0  0  0  0  0  0  0  0  0  0  0  0
   24.0003  -17.4885  -16.4147 C   0  0  1  0  0  0  0  0  0  0  0  0
   23.4945  -16.4472  -15.4383 C   0  0  0  0  0  0  0  0  0  0  0  0
   22.7315  -15.3619  -16.0788 C   0  0  0  0  0  0  0  0  0  0  0  0
   21.3802  -15.2235  -15.8324 C   0  0  0  0  0  0  0  0  0  0  0  0
   20.6322  -14.2094  -16.4167 C   0  0  0  0  0  0  0  0  0  0  0  0
   21.2400  -13.3236  -17.2565 C   0  0  0  0  0  0  0  0  0  0  0  0
   22.5804  -13.4436  -17.5143 C   0  0  0  0  0  0  0  0  0  0  0  0
   23.3077  -14.4423  -16.9365 C   0  0  0  0  0  0  0  0  0  0  0  0
   24.9467  -18.4456  -15.8502 C   0  0  0  0  0  0  0  0  0  0  0  0
   24.4693  -19.4002  -15.1417 O   0  0  0  0  0  0  0  0  0  0  0  0
   26.3675  -18.4310  -16.0082 N   0  0  0  0  0  0  0  0  0  0  0  0
   27.0377  -17.4662  -16.8677 C   0  0  0  0  0  0  0  0  0  0  0  0
   28.4038  -18.0900  -17.1388 C   0  0  0  0  0  0  0  0  0  0  0  0
   28.6683  -18.6712  -15.7410 C   0  0  0  0  0  0  0  0  0  0  0  0
   27.3414  -19.2919  -15.4213 C   0  0  1  0  0  0  0  0  0  0  0  0
   27.2336  -19.3737  -13.9412 C   0  0  0  0  0  0  0  0  0  0  0  0
   27.7570  -18.5480  -13.1679 O   0  0  0  0  0  0  0  0  0  0  0  0
   26.4809  -19.4568   -6.8080 C   0  0  0  0  0  0  0  0  0  0  0  0
   26.1700  -19.0239   -8.5379 S   0  0  0  0  0  0  0  0  0  0  0  0
   26.5848  -20.4326   -9.6350 C   0  0  0  0  0  0  0  0  0  0  0  0
   26.5250  -19.9927  -11.0560 C   0  0  0  0  0  0  0  0  0  0  0  0
   26.8096  -21.0344  -12.0813 C   0  0  2  0  0  0  0  0  0  0  0  0
   26.4946  -20.4507  -13.4041 N   0  0  0  0  0  0  0  0  0  0  0  0
   25.9677  -22.2267  -11.9227 C   0  0  0  0  0  0  0  0  0  0  0  0
   25.0795  -22.4876  -12.7600 O   0  0  0  0  0  0  0  0  0  0  0  0
   26.1447  -23.0727  -10.8523 O   0  0  0  0  0  0  0  0  0  0  0  0
  2  1  1  1
  3  4  1  0
  3  2  1  0
  4  9  2  0
  5  6  2  0
  5  4  1  0
  6  7  1  0
  7  8  2  0
  9  8  1  0
 10  2  1  0
 10 11  2  0
 12 10  1  0
 13 12  1  0
 14 15  1  0
 14 13  1  0
 15 16  1  0
 16 12  1  0
 16 17  1  1
 18 17  2  0
 20 19  1  0
 21 20  1  0
 22 21  1  0
 23 22  1  1
 23 24  1  0
 24 17  1  0
 25 23  1  0
 26 25  2  0
 27 25  1  0
M  END
$$$$
