FPM.pdb
     RDKit          3D

 27 28  0  0  1  0  0  0  0  0999 V2000
   20.7681  -19.3560  -13.0792 N   0  0  0  0  0  0  0  0  0  0  0  0
   21.6362  -20.3746  -12.4743 C   0  0  1  0  0  0  0  0  0  0  0  0
   21.2210  -21.7502  -12.9527 C   0  0  0  0  0  0  0  0  0  0  0  0
   19.8768  -22.1490  -12.5007 C   0  0  0  0  0  0  0  0  0  0  0  0
   19.6293  -22.3600  -11.1590 C   0  0  0  0  0  0  0  0  0  0  0  0
   18.3729  -22.7328  -10.6987 C   0  0  0  0  0  0  0  0  0  0  0  0
   17.3522  -22.8967  -11.5879 C   0  0  0  0  0  0  0  0  0  0  0  0
   17.5770  -22.6922  -12.9239 C   0  0  0  0  0  0  0  0  0  0  0  0
   18.8137  -22.3264  -13.3677 C   0  0  0  0  0  0  0  0  0  0  0  0
   23.0435  -20.0527  -12.6898 C   0  0  0  0  0  0  0  0  0  0  0  0
   23.3349  -19.3295  -13.7062 O   0  0  0  0  0  0  0  0  0  0  0  0
   24.1443  -20.4627  -11.8748 N   0  0  0  0  0  0  0  0  0  0  0  0
   23.9501  -21.1321  -10.5969 C   0  0  0  0  0  0  0  0  0  0  0  0
   25.2752  -20.9371   -9.8656 C   0  0  0  0  0  0  0  0  0  0  0  0
   26.2228  -21.1258  -11.0607 C   0  0  0  0  0  0  0  0  0  0  0  0
   25.5414  -20.3032  -12.1130 C   0  0  1  0  0  0  0  0  0  0  0  0
   25.9727  -20.8267  -13.4354 C   0  0  0  0  0  0  0  0  0  0  0  0
   25.4770  -21.8386  -13.9682 O   0  0  0  0  0  0  0  0  0  0  0  0
   30.3029  -18.2431  -19.5936 C   0  0  0  0  0  0  0  0  0  0  0  0
   29.4893  -17.9921  -17.9962 S   0  0  0  0  0  0  0  0  0  0  0  0
   28.8637  -19.5847  -17.3390 C   0  0  0  0  0  0  0  0  0  0  0  0
   28.1445  -19.3475  -16.0573 C   0  0  0  0  0  0  0  0  0  0  0  0
   27.4774  -20.5305  -15.4466 C   0  0  2  0  0  0  0  0  0  0  0  0
   26.9987  -20.1255  -14.1063 N   0  0  0  0  0  0  0  0  0  0  0  0
   28.3963  -21.6596  -15.2552 C   0  0  0  0  0  0  0  0  0  0  0  0
   28.5681  -22.4944  -16.1672 O   0  0  0  0  0  0  0  0  0  0  0  0
   29.0805  -21.8140  -14.0717 O   0  0  0  0  0  0  0  0  0  0  0  0
  2  1  1  6
  3  4  1  0
  3  2  1  0
  4  9  2  0
  5  6  2  0
  5  4  1  0
  6  7  1  0
  7  8  2  0
  9  8  1  0
 10  2  1  0
 10 11  2  0
 12 10  1  0
 13 12  1  0
 14 15  1  0
 14 13  1  0
 15 16  1  0
 16 12  1  0
 16 17  1  6
 18 17  2  0
 20 19  1  0
 21 20  1  0
 22 21  1  0
 23 22  1  1
 23 24  1  0
 24 17  1  0
 25 23  1  0
 26 25  2  0
 27 25  1  0
M  END
$$$$
