AVM.pdb
     RDKit          3D

 21 20  0  0  1  0  0  0  0  0999 V2000
    8.7454  -19.4027   20.5098 C   0  0  0  0  0  0  0  0  0  0  0  0
    9.0336  -18.4315   19.3959 C   0  0  2  0  0  0  0  0  0  0  0  0
   10.2366  -18.8208   18.6785 N   0  0  0  0  0  0  0  0  0  0  0  0
    9.2773  -17.0978   20.0023 C   0  0  0  0  0  0  0  0  0  0  0  0
   10.3950  -16.9265   20.5217 O   0  0  0  0  0  0  0  0  0  0  0  0
    6.3481  -13.8234   20.0948 C   0  0  0  0  0  0  0  0  0  0  0  0
    7.8480  -13.6221   20.1446 C   0  0  1  0  0  0  0  0  0  0  0  0
    8.1936  -12.3123   20.7685 C   0  0  0  0  0  0  0  0  0  0  0  0
    8.4658  -14.8226   20.7518 C   0  0  2  0  0  0  0  0  0  0  0  0
    8.3196  -16.0474   20.0133 N   0  0  0  0  0  0  0  0  0  0  0  0
    8.1789  -14.9961   22.1997 C   0  0  0  0  0  0  0  0  0  0  0  0
    7.2103  -15.7146   22.6272 O   0  0  0  0  0  0  0  0  0  0  0  0
    6.7863  -11.4253   27.6710 C   0  0  0  0  0  0  0  0  0  0  0  0
    5.7976  -12.5178   26.6142 S   0  0  0  0  0  0  0  0  0  0  0  0
    6.7172  -14.0732   26.2832 C   0  0  0  0  0  0  0  0  0  0  0  0
    7.1849  -14.0045   24.8766 C   0  0  0  0  0  0  0  0  0  0  0  0
    8.5915  -14.4794   24.6423 C   0  0  2  0  0  0  0  0  0  0  0  0
    8.9400  -14.3897   23.2376 N   0  0  0  0  0  0  0  0  0  0  0  0
    8.8641  -15.8117   25.2032 C   0  0  0  0  0  0  0  0  0  0  0  0
    8.6836  -16.8932   24.6205 O   0  0  0  0  0  0  0  0  0  0  0  0
    9.3737  -15.8932   26.5108 O   0  0  0  0  0  0  0  0  0  0  0  0
  2  1  1  1
  3  2  1  0
  4  5  2  0
  4  2  1  0
  7  6  1  1
  7  9  1  0
  8  7  1  0
  9 11  1  0
  9 10  1  6
 10  4  1  0
 11 18  1  0
 12 11  2  0
 14 13  1  0
 15 14  1  0
 17 16  1  6
 16 15  1  0
 18 17  1  0
 19 21  1  0
 19 17  1  0
 20 19  2  0
M  END
$$$$
