AVM.pdb
     RDKit          3D

 21 20  0  0  1  0  0  0  0  0999 V2000
   11.1986  -16.7777   19.5868 C   0  0  0  0  0  0  0  0  0  0  0  0
    9.8036  -17.3376   19.4987 C   0  0  2  0  0  0  0  0  0  0  0  0
    9.1319  -16.8476   18.3062 N   0  0  0  0  0  0  0  0  0  0  0  0
    9.0417  -16.8573   20.6796 C   0  0  0  0  0  0  0  0  0  0  0  0
    8.7773  -15.6416   20.7054 O   0  0  0  0  0  0  0  0  0  0  0  0
    6.2880  -18.9815   21.9958 C   0  0  0  0  0  0  0  0  0  0  0  0
    6.6888  -18.1796   23.2161 C   0  0  1  0  0  0  0  0  0  0  0  0
    6.9313  -19.0699   24.3877 C   0  0  0  0  0  0  0  0  0  0  0  0
    7.7954  -17.2705   22.8413 C   0  0  2  0  0  0  0  0  0  0  0  0
    8.6182  -17.6998   21.7433 N   0  0  0  0  0  0  0  0  0  0  0  0
    8.5970  -16.7718   23.9891 C   0  0  0  0  0  0  0  0  0  0  0  0
    9.8424  -17.0330   24.1227 O   0  0  0  0  0  0  0  0  0  0  0  0
    5.9604  -10.8964   25.8442 C   0  0  0  0  0  0  0  0  0  0  0  0
    6.2817  -12.4758   26.6748 S   0  0  0  0  0  0  0  0  0  0  0  0
    7.9234  -13.1284   26.1712 C   0  0  0  0  0  0  0  0  0  0  0  0
    8.1197  -14.4059   26.9003 C   0  0  0  0  0  0  0  0  0  0  0  0
    8.8622  -15.4711   26.1435 C   0  0  2  0  0  0  0  0  0  0  0  0
    8.0677  -15.9680   25.0369 N   0  0  0  0  0  0  0  0  0  0  0  0
    9.3711  -16.5545   26.9987 C   0  0  0  0  0  0  0  0  0  0  0  0
    8.9544  -17.7241   27.0103 O   0  0  0  0  0  0  0  0  0  0  0  0
   10.4202  -16.2648   27.8885 O   0  0  0  0  0  0  0  0  0  0  0  0
  2  1  1  1
  3  2  1  0
  4  5  2  0
  4  2  1  0
  7  6  1  6
  7  9  1  0
  8  7  1  0
  9 11  1  0
  9 10  1  6
 10  4  1  0
 11 18  1  0
 12 11  2  0
 14 13  1  0
 15 14  1  0
 17 16  1  1
 16 15  1  0
 18 17  1  0
 19 21  1  0
 19 17  1  0
 20 19  2  0
M  END
$$$$
