AVM.pdb
     RDKit          3D

 21 20  0  0  1  0  0  0  0  0999 V2000
    8.6806  -19.2445   19.8762 C   0  0  0  0  0  0  0  0  0  0  0  0
    8.9176  -18.0252   19.0251 C   0  0  2  0  0  0  0  0  0  0  0  0
   10.0685  -18.2236   18.1594 N   0  0  0  0  0  0  0  0  0  0  0  0
    9.2198  -16.8867   19.9296 C   0  0  0  0  0  0  0  0  0  0  0  0
   10.3913  -16.8087   20.3419 O   0  0  0  0  0  0  0  0  0  0  0  0
    8.2407  -13.1828   19.3479 C   0  0  0  0  0  0  0  0  0  0  0  0
    7.8773  -13.5153   20.7797 C   0  0  1  0  0  0  0  0  0  0  0  0
    6.4009  -13.4649   20.9845 C   0  0  0  0  0  0  0  0  0  0  0  0
    8.5503  -14.7788   21.1566 C   0  0  2  0  0  0  0  0  0  0  0  0
    8.2594  -15.9179   20.3292 N   0  0  0  0  0  0  0  0  0  0  0  0
    8.4874  -15.1004   22.6062 C   0  0  0  0  0  0  0  0  0  0  0  0
    7.6348  -15.9216   23.0917 O   0  0  0  0  0  0  0  0  0  0  0  0
    6.3763  -11.0210   26.6853 C   0  0  0  0  0  0  0  0  0  0  0  0
    7.5949  -12.1503   27.4116 S   0  0  0  0  0  0  0  0  0  0  0  0
    7.3718  -13.8404   26.7273 C   0  0  0  0  0  0  0  0  0  0  0  0
    7.8141  -13.7924   25.3117 C   0  0  0  0  0  0  0  0  0  0  0  0
    9.0751  -14.5506   25.0054 C   0  0  2  0  0  0  0  0  0  0  0  0
    9.3545  -14.5355   23.5826 N   0  0  0  0  0  0  0  0  0  0  0  0
    9.0951  -15.9106   25.5659 C   0  0  0  0  0  0  0  0  0  0  0  0
    8.8324  -16.9534   24.9451 O   0  0  0  0  0  0  0  0  0  0  0  0
    9.4385  -16.0687   26.9199 O   0  0  0  0  0  0  0  0  0  0  0  0
  2  1  1  1
  3  2  1  0
  4  5  2  0
  4  2  1  0
  7  6  1  6
  7  9  1  0
  8  7  1  0
  9 11  1  0
  9 10  1  6
 10  4  1  0
 11 18  1  0
 12 11  2  0
 14 13  1  0
 15 14  1  0
 17 16  1  6
 16 15  1  0
 18 17  1  0
 19 21  1  0
 19 17  1  0
 20 19  2  0
M  END
$$$$
