AVM.pdb
     RDKit          3D

 21 20  0  0  1  0  0  0  0  0999 V2000
    6.6523  -19.1564   23.2246 C   0  0  0  0  0  0  0  0  0  0  0  0
    6.5430  -18.7799   21.7708 C   0  0  2  0  0  0  0  0  0  0  0  0
    6.9932  -19.8736   20.9256 N   0  0  0  0  0  0  0  0  0  0  0  0
    7.4387  -17.6201   21.5293 C   0  0  0  0  0  0  0  0  0  0  0  0
    8.6606  -17.8533   21.5633 O   0  0  0  0  0  0  0  0  0  0  0  0
    5.9929  -13.5651   20.8895 C   0  0  0  0  0  0  0  0  0  0  0  0
    7.3279  -14.0332   20.3497 C   0  0  1  0  0  0  0  0  0  0  0  0
    8.2603  -12.8857   20.1543 C   0  0  0  0  0  0  0  0  0  0  0  0
    7.8187  -15.1415   21.1997 C   0  0  2  0  0  0  0  0  0  0  0  0
    6.9734  -16.3021   21.2706 N   0  0  0  0  0  0  0  0  0  0  0  0
    8.3144  -14.7188   22.5355 C   0  0  0  0  0  0  0  0  0  0  0  0
    8.5138  -13.4916   22.8379 O   0  0  0  0  0  0  0  0  0  0  0  0
    8.1352  -11.2920   27.3087 C   0  0  0  0  0  0  0  0  0  0  0  0
    6.7446  -12.2953   26.7192 S   0  0  0  0  0  0  0  0  0  0  0  0
    7.1985  -14.0752   26.7439 C   0  0  0  0  0  0  0  0  0  0  0  0
    7.3263  -14.5054   25.3295 C   0  0  0  0  0  0  0  0  0  0  0  0
    8.5886  -15.2491   24.9946 C   0  0  2  0  0  0  0  0  0  0  0  0
    8.6125  -15.6220   23.5935 N   0  0  0  0  0  0  0  0  0  0  0  0
    8.8521  -16.3915   25.8830 C   0  0  0  0  0  0  0  0  0  0  0  0
    8.5678  -17.5761   25.6428 O   0  0  0  0  0  0  0  0  0  0  0  0
    9.4795  -16.1459   27.1168 O   0  0  0  0  0  0  0  0  0  0  0  0
  2  1  1  1
  3  2  1  0
  4  5  2  0
  4  2  1  0
  7  6  1  1
  7  9  1  0
  8  7  1  0
  9 11  1  0
  9 10  1  1
 10  4  1  0
 11 18  1  0
 12 11  2  0
 14 13  1  0
 15 14  1  0
 17 16  1  1
 16 15  1  0
 18 17  1  0
 19 21  1  0
 19 17  1  0
 20 19  2  0
M  END
$$$$
