AVM.pdb
     RDKit          3D

 21 20  0  0  1  0  0  0  0  0999 V2000
    8.2294  -19.4924   20.4225 C   0  0  0  0  0  0  0  0  0  0  0  0
    8.5405  -18.4747   19.3573 C   0  0  2  0  0  0  0  0  0  0  0  0
    9.7166  -18.8718   18.6007 N   0  0  0  0  0  0  0  0  0  0  0  0
    8.8460  -17.1862   20.0298 C   0  0  0  0  0  0  0  0  0  0  0  0
   10.0030  -17.0568   20.4693 O   0  0  0  0  0  0  0  0  0  0  0  0
    7.9960  -12.4586   20.9934 C   0  0  0  0  0  0  0  0  0  0  0  0
    7.5974  -13.6781   20.1892 C   0  0  1  0  0  0  0  0  0  0  0  0
    7.8908  -13.4849   18.7398 C   0  0  0  0  0  0  0  0  0  0  0  0
    8.1885  -14.8772   20.8252 C   0  0  2  0  0  0  0  0  0  0  0  0
    7.9040  -16.1333   20.1865 N   0  0  0  0  0  0  0  0  0  0  0  0
    8.0155  -14.9393   22.3000 C   0  0  0  0  0  0  0  0  0  0  0  0
    7.0234  -15.5299   22.8514 O   0  0  0  0  0  0  0  0  0  0  0  0
    7.0216  -11.6166   28.3213 C   0  0  0  0  0  0  0  0  0  0  0  0
    6.1644  -12.3854   26.9205 S   0  0  0  0  0  0  0  0  0  0  0  0
    6.9963  -13.9572   26.4603 C   0  0  0  0  0  0  0  0  0  0  0  0
    7.3636  -13.8450   25.0270 C   0  0  0  0  0  0  0  0  0  0  0  0
    8.7197  -14.3832   24.6662 C   0  0  2  0  0  0  0  0  0  0  0  0
    8.9208  -14.3569   23.2303 N   0  0  0  0  0  0  0  0  0  0  0  0
    9.0022  -15.7047   25.2473 C   0  0  0  0  0  0  0  0  0  0  0  0
    9.1632  -16.7572   24.6084 O   0  0  0  0  0  0  0  0  0  0  0  0
    9.1035  -15.8104   26.6455 O   0  0  0  0  0  0  0  0  0  0  0  0
  2  1  1  1
  3  2  1  0
  4  5  2  0
  4  2  1  0
  7  6  1  1
  7  9  1  0
  8  7  1  0
  9 11  1  0
  9 10  1  6
 10  4  1  0
 11 18  1  0
 12 11  2  0
 14 13  1  0
 15 14  1  0
 17 16  1  6
 16 15  1  0
 18 17  1  0
 19 21  1  0
 19 17  1  0
 20 19  2  0
M  END
$$$$
