AVM.pdb
     RDKit          3D

 21 20  0  0  1  0  0  0  0  0999 V2000
    7.8080  -19.4256   21.4666 C   0  0  0  0  0  0  0  0  0  0  0  0
    8.2687  -18.6819   20.2411 C   0  0  2  0  0  0  0  0  0  0  0  0
    9.3866  -19.3705   19.6170 N   0  0  0  0  0  0  0  0  0  0  0  0
    8.7424  -17.3412   20.6698 C   0  0  0  0  0  0  0  0  0  0  0  0
    9.8909  -17.2909   21.1462 O   0  0  0  0  0  0  0  0  0  0  0  0
    6.1897  -13.9161   20.8712 C   0  0  0  0  0  0  0  0  0  0  0  0
    7.6157  -13.7118   20.4047 C   0  0  1  0  0  0  0  0  0  0  0  0
    8.1004  -12.3427   20.7432 C   0  0  0  0  0  0  0  0  0  0  0  0
    8.4391  -14.8404   20.8944 C   0  0  2  0  0  0  0  0  0  0  0  0
    7.9648  -16.1562   20.5622 N   0  0  0  0  0  0  0  0  0  0  0  0
    8.8504  -14.7289   22.3182 C   0  0  0  0  0  0  0  0  0  0  0  0
    9.5839  -13.7731   22.7489 O   0  0  0  0  0  0  0  0  0  0  0  0
    6.7389  -11.1074   27.5620 C   0  0  0  0  0  0  0  0  0  0  0  0
    7.4056  -11.9570   26.1055 S   0  0  0  0  0  0  0  0  0  0  0  0
    6.6746  -13.6367   25.9681 C   0  0  0  0  0  0  0  0  0  0  0  0
    7.0721  -14.1708   24.6419 C   0  0  0  0  0  0  0  0  0  0  0  0
    8.0951  -15.2714   24.6717 C   0  0  2  0  0  0  0  0  0  0  0  0
    8.4762  -15.6593   23.3274 N   0  0  0  0  0  0  0  0  0  0  0  0
    7.6968  -16.4232   25.4955 C   0  0  0  0  0  0  0  0  0  0  0  0
    6.8941  -17.3096   25.1609 O   0  0  0  0  0  0  0  0  0  0  0  0
    8.2604  -16.5534   26.7767 O   0  0  0  0  0  0  0  0  0  0  0  0
  2  1  1  1
  3  2  1  0
  4  5  2  0
  4  2  1  0
  7  6  1  1
  7  9  1  0
  8  7  1  0
  9 11  1  0
  9 10  1  1
 10  4  1  0
 11 18  1  0
 12 11  2  0
 14 13  1  0
 15 14  1  0
 17 16  1  6
 16 15  1  0
 18 17  1  0
 19 21  1  0
 19 17  1  0
 20 19  2  0
M  END
$$$$
