AVM.pdb
     RDKit          3D

 21 20  0  0  1  0  0  0  0  0999 V2000
    8.1536  -12.1084   19.5333 C   0  0  0  0  0  0  0  0  0  0  0  0
    8.4735  -13.4349   18.8966 C   0  0  2  0  0  0  0  0  0  0  0  0
    7.5914  -13.6848   17.7684 N   0  0  0  0  0  0  0  0  0  0  0  0
    8.2331  -14.4975   19.9060 C   0  0  0  0  0  0  0  0  0  0  0  0
    7.0638  -14.9129   19.9984 O   0  0  0  0  0  0  0  0  0  0  0  0
   11.1163  -17.2239   20.9437 C   0  0  0  0  0  0  0  0  0  0  0  0
    9.6434  -17.4328   21.2264 C   0  0  1  0  0  0  0  0  0  0  0  0
    9.4319  -18.5858   22.1483 C   0  0  0  0  0  0  0  0  0  0  0  0
    9.0548  -16.1404   21.6445 C   0  0  2  0  0  0  0  0  0  0  0  0
    9.2481  -15.0391   20.7408 N   0  0  0  0  0  0  0  0  0  0  0  0
    9.3278  -15.7688   23.0573 C   0  0  0  0  0  0  0  0  0  0  0  0
   10.4245  -15.2215   23.4245 O   0  0  0  0  0  0  0  0  0  0  0  0
    6.2978  -10.8828   26.4420 C   0  0  0  0  0  0  0  0  0  0  0  0
    6.3018  -12.6718   26.7371 S   0  0  0  0  0  0  0  0  0  0  0  0
    7.7077  -13.4523   25.8489 C   0  0  0  0  0  0  0  0  0  0  0  0
    7.6697  -14.8999   26.1727 C   0  0  0  0  0  0  0  0  0  0  0  0
    8.7340  -15.7342   25.5170 C   0  0  2  0  0  0  0  0  0  0  0  0
    8.4120  -15.9820   24.1250 N   0  0  0  0  0  0  0  0  0  0  0  0
    9.0462  -16.9716   26.2487 C   0  0  0  0  0  0  0  0  0  0  0  0
    8.6608  -18.1112   25.9414 O   0  0  0  0  0  0  0  0  0  0  0  0
    9.8490  -16.8814   27.3992 O   0  0  0  0  0  0  0  0  0  0  0  0
  2  1  1  1
  3  2  1  0
  4  5  2  0
  4  2  1  0
  7  6  1  1
  7  9  1  0
  8  7  1  0
  9 11  1  0
  9 10  1  6
 10  4  1  0
 11 18  1  0
 12 11  2  0
 14 13  1  0
 15 14  1  0
 17 16  1  1
 16 15  1  0
 18 17  1  0
 19 21  1  0
 19 17  1  0
 20 19  2  0
M  END
$$$$
