AVM.pdb
     RDKit          3D

 21 20  0  0  1  0  0  0  0  0999 V2000
    8.2160  -19.2092   21.4191 C   0  0  0  0  0  0  0  0  0  0  0  0
    8.1699  -18.4427   20.1239 C   0  0  2  0  0  0  0  0  0  0  0  0
    9.0080  -19.0822   19.1229 N   0  0  0  0  0  0  0  0  0  0  0  0
    8.7170  -17.0850   20.3752 C   0  0  0  0  0  0  0  0  0  0  0  0
    9.9515  -16.9635   20.2772 O   0  0  0  0  0  0  0  0  0  0  0  0
    8.0694  -12.2163   20.9152 C   0  0  0  0  0  0  0  0  0  0  0  0
    7.5294  -13.5353   20.4039 C   0  0  1  0  0  0  0  0  0  0  0  0
    7.2684  -13.4760   18.9367 C   0  0  0  0  0  0  0  0  0  0  0  0
    8.4198  -14.6225   20.8696 C   0  0  2  0  0  0  0  0  0  0  0  0
    7.9162  -15.9597   20.7114 N   0  0  0  0  0  0  0  0  0  0  0  0
    9.0159  -14.3965   22.2121 C   0  0  0  0  0  0  0  0  0  0  0  0
    9.6355  -13.3192   22.5165 O   0  0  0  0  0  0  0  0  0  0  0  0
    6.5049  -11.5469   27.7445 C   0  0  0  0  0  0  0  0  0  0  0  0
    7.1166  -12.1568   26.1502 S   0  0  0  0  0  0  0  0  0  0  0  0
    6.6802  -13.9295   25.9459 C   0  0  0  0  0  0  0  0  0  0  0  0
    7.1898  -14.3466   24.6161 C   0  0  0  0  0  0  0  0  0  0  0  0
    8.5413  -15.0042   24.6223 C   0  0  2  0  0  0  0  0  0  0  0  0
    8.9585  -15.3406   23.2749 N   0  0  0  0  0  0  0  0  0  0  0  0
    8.6343  -16.1500   25.5401 C   0  0  0  0  0  0  0  0  0  0  0  0
    8.7032  -16.0823   26.7780 O   0  0  0  0  0  0  0  0  0  0  0  0
    8.6480  -17.4443   24.9915 O   0  0  0  0  0  0  0  0  0  0  0  0
  2  1  1  1
  3  2  1  0
  4  5  2  0
  4  2  1  0
  7  6  1  6
  7  9  1  0
  8  7  1  0
  9 11  1  0
  9 10  1  1
 10  4  1  0
 11 18  1  0
 12 11  2  0
 14 13  1  0
 15 14  1  0
 17 16  1  6
 16 15  1  0
 18 17  1  0
 19 21  1  0
 19 17  1  0
 20 19  2  0
M  END
$$$$
