AVM.pdb
     RDKit          3D

 21 20  0  0  1  0  0  0  0  0999 V2000
    8.2160  -12.4329   19.1541 C   0  0  0  0  0  0  0  0  0  0  0  0
    8.5508  -13.7744   18.5580 C   0  0  2  0  0  0  0  0  0  0  0  0
    7.7115  -14.0424   17.4017 N   0  0  0  0  0  0  0  0  0  0  0  0
    8.2638  -14.8141   19.5791 C   0  0  0  0  0  0  0  0  0  0  0  0
    7.1050  -15.2673   19.5908 O   0  0  0  0  0  0  0  0  0  0  0  0
    9.1666  -18.2424   20.1286 C   0  0  0  0  0  0  0  0  0  0  0  0
    9.6482  -17.5660   21.3948 C   0  0  1  0  0  0  0  0  0  0  0  0
   11.1380  -17.5252   21.4486 C   0  0  0  0  0  0  0  0  0  0  0  0
    8.9498  -16.2678   21.5317 C   0  0  2  0  0  0  0  0  0  0  0  0
    9.2246  -15.2945   20.5100 N   0  0  0  0  0  0  0  0  0  0  0  0
    8.9983  -15.6846   22.8978 C   0  0  0  0  0  0  0  0  0  0  0  0
   10.0575  -15.1545   23.3816 O   0  0  0  0  0  0  0  0  0  0  0  0
    7.7116  -11.0780   27.1578 C   0  0  0  0  0  0  0  0  0  0  0  0
    6.4008  -12.0111   26.3217 S   0  0  0  0  0  0  0  0  0  0  0  0
    6.5090  -13.7886   26.7725 C   0  0  0  0  0  0  0  0  0  0  0  0
    6.5632  -14.5515   25.5008 C   0  0  0  0  0  0  0  0  0  0  0  0
    7.9287  -15.0318   25.0963 C   0  0  2  0  0  0  0  0  0  0  0  0
    7.8898  -15.6587   23.7893 N   0  0  0  0  0  0  0  0  0  0  0  0
    8.5767  -15.8824   26.1066 C   0  0  0  0  0  0  0  0  0  0  0  0
    8.4268  -17.1094   26.2238 O   0  0  0  0  0  0  0  0  0  0  0  0
    9.4456  -15.2761   27.0305 O   0  0  0  0  0  0  0  0  0  0  0  0
  2  1  1  1
  3  2  1  0
  4  5  2  0
  4  2  1  0
  7  6  1  6
  7  9  1  0
  8  7  1  0
  9 11  1  0
  9 10  1  6
 10  4  1  0
 11 18  1  0
 12 11  2  0
 14 13  1  0
 15 14  1  0
 17 16  1  1
 16 15  1  0
 18 17  1  0
 19 21  1  0
 19 17  1  0
 20 19  2  0
M  END
$$$$
