AVM.pdb
     RDKit          3D

 21 20  0  0  1  0  0  0  0  0999 V2000
    5.9239  -19.0460   21.1618 C   0  0  0  0  0  0  0  0  0  0  0  0
    6.5158  -18.4381   19.9178 C   0  0  2  0  0  0  0  0  0  0  0  0
    7.3191  -19.4174   19.2044 N   0  0  0  0  0  0  0  0  0  0  0  0
    7.4126  -17.3290   20.3319 C   0  0  0  0  0  0  0  0  0  0  0  0
    8.5631  -17.6530   20.6783 O   0  0  0  0  0  0  0  0  0  0  0  0
    6.4238  -13.1916   19.7406 C   0  0  0  0  0  0  0  0  0  0  0  0
    7.8509  -13.6933   19.8087 C   0  0  1  0  0  0  0  0  0  0  0  0
    8.7950  -12.5847   20.1307 C   0  0  0  0  0  0  0  0  0  0  0  0
    7.8944  -14.8737   20.7011 C   0  0  2  0  0  0  0  0  0  0  0  0
    7.0236  -15.9619   20.3483 N   0  0  0  0  0  0  0  0  0  0  0  0
    7.8394  -14.5509   22.1508 C   0  0  0  0  0  0  0  0  0  0  0  0
    7.0097  -13.7064   22.6359 O   0  0  0  0  0  0  0  0  0  0  0  0
    7.2190  -11.5774   27.9067 C   0  0  0  0  0  0  0  0  0  0  0  0
    7.2462  -12.3490   26.2660 S   0  0  0  0  0  0  0  0  0  0  0  0
    7.1248  -14.1748   26.4280 C   0  0  0  0  0  0  0  0  0  0  0  0
    7.2741  -14.7378   25.0632 C   0  0  0  0  0  0  0  0  0  0  0  0
    8.6784  -14.7655   24.5285 C   0  0  2  0  0  0  0  0  0  0  0  0
    8.6907  -15.1389   23.1274 N   0  0  0  0  0  0  0  0  0  0  0  0
    9.5991  -15.5824   25.3341 C   0  0  0  0  0  0  0  0  0  0  0  0
   10.3432  -15.1601   26.2340 O   0  0  0  0  0  0  0  0  0  0  0  0
    9.6593  -16.9640   25.0817 O   0  0  0  0  0  0  0  0  0  0  0  0
  2  1  1  1
  3  2  1  0
  4  5  2  0
  4  2  1  0
  7  6  1  1
  7  9  1  0
  8  7  1  0
  9 11  1  0
  9 10  1  6
 10  4  1  0
 11 18  1  0
 12 11  2  0
 14 13  1  0
 15 14  1  0
 17 16  1  1
 16 15  1  0
 18 17  1  0
 19 21  1  0
 19 17  1  0
 20 19  2  0
M  END
$$$$
