AVM.pdb
     RDKit          3D

 21 20  0  0  1  0  0  0  0  0999 V2000
    7.3241  -19.0259   21.3103 C   0  0  0  0  0  0  0  0  0  0  0  0
    7.2447  -18.0714   20.1484 C   0  0  2  0  0  0  0  0  0  0  0  0
    7.7063  -18.7134   18.9286 N   0  0  0  0  0  0  0  0  0  0  0  0
    8.1500  -16.9286   20.4316 C   0  0  0  0  0  0  0  0  0  0  0  0
    9.3681  -17.1476   20.3018 O   0  0  0  0  0  0  0  0  0  0  0  0
    7.4992  -13.2947   19.2322 C   0  0  0  0  0  0  0  0  0  0  0  0
    8.0124  -13.1939   20.6532 C   0  0  1  0  0  0  0  0  0  0  0  0
    6.9829  -12.6021   21.5552 C   0  0  0  0  0  0  0  0  0  0  0  0
    8.5575  -14.5111   21.0529 C   0  0  2  0  0  0  0  0  0  0  0  0
    7.6976  -15.6416   20.8310 N   0  0  0  0  0  0  0  0  0  0  0  0
    9.1867  -14.5332   22.3992 C   0  0  0  0  0  0  0  0  0  0  0  0
    9.9328  -13.5849   22.8248 O   0  0  0  0  0  0  0  0  0  0  0  0
    6.1127  -11.4425   26.0733 C   0  0  0  0  0  0  0  0  0  0  0  0
    7.3988  -12.5964   26.6229 S   0  0  0  0  0  0  0  0  0  0  0  0
    6.9177  -14.3194   26.2054 C   0  0  0  0  0  0  0  0  0  0  0  0
    7.3959  -14.5761   24.8243 C   0  0  0  0  0  0  0  0  0  0  0  0
    8.6552  -15.3898   24.7202 C   0  0  2  0  0  0  0  0  0  0  0  0
    9.0253  -15.5942   23.3331 N   0  0  0  0  0  0  0  0  0  0  0  0
    8.6066  -16.6494   25.4785 C   0  0  0  0  0  0  0  0  0  0  0  0
    8.0480  -17.6953   25.1099 O   0  0  0  0  0  0  0  0  0  0  0  0
    9.2405  -16.6977   26.7324 O   0  0  0  0  0  0  0  0  0  0  0  0
  2  1  1  1
  3  2  1  0
  4  5  2  0
  4  2  1  0
  7  6  1  6
  7  9  1  0
  8  7  1  0
  9 11  1  0
  9 10  1  1
 10  4  1  0
 11 18  1  0
 12 11  2  0
 14 13  1  0
 15 14  1  0
 17 16  1  6
 16 15  1  0
 18 17  1  0
 19 21  1  0
 19 17  1  0
 20 19  2  0
M  END
$$$$
