AVM.pdb
     RDKit          3D

 21 20  0  0  1  0  0  0  0  0999 V2000
   10.5806  -18.4531   19.5118 C   0  0  0  0  0  0  0  0  0  0  0  0
   10.7154  -17.0543   18.9710 C   0  0  2  0  0  0  0  0  0  0  0  0
   12.0936  -16.7831   18.5964 N   0  0  0  0  0  0  0  0  0  0  0  0
   10.3432  -16.1070   20.0526 C   0  0  0  0  0  0  0  0  0  0  0  0
   11.2580  -15.7690   20.8256 O   0  0  0  0  0  0  0  0  0  0  0  0
    7.9392  -12.8611   20.0545 C   0  0  0  0  0  0  0  0  0  0  0  0
    7.5069  -13.8517   21.1149 C   0  0  1  0  0  0  0  0  0  0  0  0
    6.1864  -14.4572   20.7775 C   0  0  0  0  0  0  0  0  0  0  0  0
    8.6198  -14.7967   21.3602 C   0  0  2  0  0  0  0  0  0  0  0  0
    9.0316  -15.5899   20.2341 N   0  0  0  0  0  0  0  0  0  0  0  0
    8.4795  -15.6032   22.6006 C   0  0  0  0  0  0  0  0  0  0  0  0
    8.2608  -16.8637   22.5798 O   0  0  0  0  0  0  0  0  0  0  0  0
    9.2380  -13.1922   28.9662 C   0  0  0  0  0  0  0  0  0  0  0  0
    9.8054  -12.7931   27.2909 S   0  0  0  0  0  0  0  0  0  0  0  0
   10.0095  -14.3343   26.3124 C   0  0  0  0  0  0  0  0  0  0  0  0
    8.7032  -15.0377   26.3417 C   0  0  0  0  0  0  0  0  0  0  0  0
    8.3808  -15.8475   25.1174 C   0  0  2  0  0  0  0  0  0  0  0  0
    8.5722  -15.0624   23.9133 N   0  0  0  0  0  0  0  0  0  0  0  0
    7.0561  -16.4854   25.1656 C   0  0  0  0  0  0  0  0  0  0  0  0
    6.0466  -16.1051   24.5507 O   0  0  0  0  0  0  0  0  0  0  0  0
    6.8943  -17.6262   25.9709 O   0  0  0  0  0  0  0  0  0  0  0  0
  2  1  1  1
  3  2  1  0
  4  5  2  0
  4  2  1  0
  7  6  1  6
  7  9  1  0
  8  7  1  0
  9 11  1  0
  9 10  1  6
 10  4  1  0
 11 18  1  0
 12 11  2  0
 14 13  1  0
 15 14  1  0
 17 16  1  1
 16 15  1  0
 18 17  1  0
 19 21  1  0
 19 17  1  0
 20 19  2  0
M  END
$$$$
