AVM.pdb
     RDKit          3D

 21 20  0  0  1  0  0  0  0  0999 V2000
    7.1856  -19.5857   23.4171 C   0  0  0  0  0  0  0  0  0  0  0  0
    7.0632  -19.0889   22.0010 C   0  0  2  0  0  0  0  0  0  0  0  0
    7.6192  -20.0580   21.0709 N   0  0  0  0  0  0  0  0  0  0  0  0
    7.8566  -17.8389   21.8837 C   0  0  0  0  0  0  0  0  0  0  0  0
    9.0801  -17.9440   22.0853 O   0  0  0  0  0  0  0  0  0  0  0  0
    6.0449  -13.9589   21.2403 C   0  0  0  0  0  0  0  0  0  0  0  0
    7.4560  -14.2361   20.7663 C   0  0  1  0  0  0  0  0  0  0  0  0
    8.2565  -12.9796   20.6992 C   0  0  0  0  0  0  0  0  0  0  0  0
    8.0219  -15.3331   21.5838 C   0  0  2  0  0  0  0  0  0  0  0  0
    7.2950  -16.5732   21.5626 N   0  0  0  0  0  0  0  0  0  0  0  0
    8.4200  -14.9329   22.9586 C   0  0  0  0  0  0  0  0  0  0  0  0
    8.6116  -13.7122   23.2908 O   0  0  0  0  0  0  0  0  0  0  0  0
    6.9222  -10.6236   27.1832 C   0  0  0  0  0  0  0  0  0  0  0  0
    6.6715  -12.4168   27.0857 S   0  0  0  0  0  0  0  0  0  0  0  0
    7.7807  -13.1382   25.8114 C   0  0  0  0  0  0  0  0  0  0  0  0
    7.5154  -14.5980   25.7879 C   0  0  0  0  0  0  0  0  0  0  0  0
    8.6901  -15.4597   25.4189 C   0  0  2  0  0  0  0  0  0  0  0  0
    8.6252  -15.8526   24.0246 N   0  0  0  0  0  0  0  0  0  0  0  0
    8.8819  -16.6093   26.3165 C   0  0  0  0  0  0  0  0  0  0  0  0
    9.3870  -16.5664   27.4500 O   0  0  0  0  0  0  0  0  0  0  0  0
    8.4649  -17.8770   25.8747 O   0  0  0  0  0  0  0  0  0  0  0  0
  2  1  1  1
  3  2  1  0
  4  5  2  0
  4  2  1  0
  7  6  1  1
  7  9  1  0
  8  7  1  0
  9 11  1  0
  9 10  1  1
 10  4  1  0
 11 18  1  0
 12 11  2  0
 14 13  1  0
 15 14  1  0
 17 16  1  1
 16 15  1  0
 18 17  1  0
 19 21  1  0
 19 17  1  0
 20 19  2  0
M  END
$$$$
