TIS.pdb
     RDKit          3D

 22 21  0  0  1  0  0  0  0  0999 V2000
   20.9749   -5.6209  -13.2677 C   0  0  0  0  0  0  0  0  0  0  0  0
   21.7278   -4.7282  -14.2456 C   0  0  1  0  0  0  0  0  0  0  0  0
   22.2786   -3.6498  -13.5719 O   0  0  0  0  0  0  0  0  0  0  0  0
   22.8157   -5.5102  -14.9474 C   0  0  2  0  0  0  0  0  0  0  0  0
   23.5724   -4.6363  -15.7880 N   0  0  0  0  0  0  0  0  0  0  0  0
   22.2188   -6.6512  -15.6927 C   0  0  0  0  0  0  0  0  0  0  0  0
   21.7927   -6.4507  -16.8592 O   0  0  0  0  0  0  0  0  0  0  0  0
   24.0297  -11.6746  -14.7140 C   0  0  0  0  0  0  0  0  0  0  0  0
   23.3875  -10.7087  -15.6542 C   0  0  0  0  0  0  0  0  0  0  0  0
   21.9564  -10.4114  -15.4020 C   0  0  2  0  0  0  0  0  0  0  0  0
   21.0691  -11.5350  -15.9797 C   0  0  0  0  0  0  0  0  0  0  0  0
   21.4532   -9.0707  -15.8375 C   0  0  2  0  0  0  0  0  0  0  0  0
   22.1047   -7.9497  -15.1598 N   0  0  0  0  0  0  0  0  0  0  0  0
   19.9713   -8.9847  -15.5529 C   0  0  0  0  0  0  0  0  0  0  0  0
   19.5559   -9.0496  -14.3819 O   0  0  0  0  0  0  0  0  0  0  0  0
   17.4713   -6.6711  -17.4401 O   0  0  0  0  0  0  0  0  0  0  0  0
   16.8847   -7.9170  -17.3647 C   0  0  0  0  0  0  0  0  0  0  0  0
   17.5954   -8.7072  -16.2910 C   0  0  2  0  0  0  0  0  0  0  0  0
   19.0271   -8.8299  -16.5993 N   0  0  0  0  0  0  0  0  0  0  0  0
   16.9822  -10.0540  -16.1843 C   0  0  0  0  0  0  0  0  0  0  0  0
   17.5718  -10.9961  -16.7711 O   0  0  0  0  0  0  0  0  0  0  0  0
   15.8166  -10.2924  -15.4791 O   0  0  0  0  0  0  0  0  0  0  0  0
  2  1  1  1
  2  3  1  0
  4  2  1  0
  4  6  1  0
  4  5  1  6
  6 13  1  0
  7  6  2  0
  8  9  1  0
  9 10  1  0
 10 11  1  6
 10 12  1  0
 12 14  1  0
 12 13  1  1
 14 15  2  0
 14 19  1  0
 17 16  1  0
 18 17  1  6
 19 18  1  0
 20 18  1  0
 20 22  1  0
 21 20  2  0
M  END
$$$$
