TIS.pdb
     RDKit          3D

 22 21  0  0  1  0  0  0  0  0999 V2000
   26.4689  -18.1686  -16.2261 C   0  0  0  0  0  0  0  0  0  0  0  0
   27.3193  -19.1970  -16.9603 C   0  0  1  0  0  0  0  0  0  0  0  0
   28.1997  -18.5561  -17.8173 O   0  0  0  0  0  0  0  0  0  0  0  0
   28.0860  -20.0513  -15.9754 C   0  0  2  0  0  0  0  0  0  0  0  0
   28.9889  -20.9070  -16.6793 N   0  0  0  0  0  0  0  0  0  0  0  0
   27.1366  -20.8032  -15.1110 C   0  0  0  0  0  0  0  0  0  0  0  0
   26.6206  -21.8587  -15.5605 O   0  0  0  0  0  0  0  0  0  0  0  0
   25.4127  -21.2786   -9.0831 C   0  0  0  0  0  0  0  0  0  0  0  0
   25.1459  -21.5187  -10.5324 C   0  0  0  0  0  0  0  0  0  0  0  0
   26.0716  -20.8540  -11.4817 C   0  0  2  0  0  0  0  0  0  0  0  0
   26.1207  -19.3362  -11.2033 C   0  0  0  0  0  0  0  0  0  0  0  0
   25.8518  -21.1120  -12.9396 C   0  0  2  0  0  0  0  0  0  0  0  0
   26.7832  -20.3947  -13.8105 N   0  0  0  0  0  0  0  0  0  0  0  0
   24.4502  -20.6841  -13.3096 C   0  0  0  0  0  0  0  0  0  0  0  0
   24.1743  -19.4756  -13.4164 O   0  0  0  0  0  0  0  0  0  0  0  0
   20.1259  -21.7790  -15.0747 O   0  0  0  0  0  0  0  0  0  0  0  0
   21.3877  -22.2402  -14.7633 C   0  0  0  0  0  0  0  0  0  0  0  0
   22.0762  -21.1928  -13.9198 C   0  0  2  0  0  0  0  0  0  0  0  0
   23.4255  -21.6362  -13.5418 N   0  0  0  0  0  0  0  0  0  0  0  0
   21.2684  -20.9323  -12.7029 C   0  0  0  0  0  0  0  0  0  0  0  0
   21.5782  -21.5715  -11.6662 O   0  0  0  0  0  0  0  0  0  0  0  0
   20.2174  -20.0336  -12.6801 O   0  0  0  0  0  0  0  0  0  0  0  0
  2  1  1  1
  2  3  1  0
  4  2  1  0
  4  6  1  0
  4  5  1  6
  6 13  1  0
  7  6  2  0
  8  9  1  0
  9 10  1  0
 10 11  1  6
 10 12  1  0
 12 14  1  0
 12 13  1  6
 14 15  2  0
 14 19  1  0
 17 16  1  0
 18 17  1  6
 19 18  1  0
 20 18  1  0
 20 22  1  0
 21 20  2  0
M  END
$$$$
