TIS.pdb
     RDKit          3D

 22 21  0  0  1  0  0  0  0  0999 V2000
   21.9997  -10.6255  -21.1649 C   0  0  0  0  0  0  0  0  0  0  0  0
   21.3810  -10.0687  -19.8894 C   0  0  1  0  0  0  0  0  0  0  0  0
   20.0711   -9.6848  -20.1288 O   0  0  0  0  0  0  0  0  0  0  0  0
   21.4237  -11.1011  -18.7849 C   0  0  2  0  0  0  0  0  0  0  0  0
   20.6800  -12.2573  -19.1761 N   0  0  0  0  0  0  0  0  0  0  0  0
   20.9320  -10.5037  -17.5140 C   0  0  0  0  0  0  0  0  0  0  0  0
   19.7524  -10.7477  -17.1515 O   0  0  0  0  0  0  0  0  0  0  0  0
   22.2249   -9.7552  -11.7175 C   0  0  0  0  0  0  0  0  0  0  0  0
   21.5602   -9.1333  -12.9010 C   0  0  0  0  0  0  0  0  0  0  0  0
   21.9128   -9.7104  -14.2211 C   0  0  2  0  0  0  0  0  0  0  0  0
   23.4467   -9.7563  -14.3898 C   0  0  0  0  0  0  0  0  0  0  0  0
   21.2718   -9.0951  -15.4255 C   0  0  2  0  0  0  0  0  0  0  0  0
   21.7200   -9.6759  -16.6914 N   0  0  0  0  0  0  0  0  0  0  0  0
   21.5940   -7.6187  -15.4547 C   0  0  0  0  0  0  0  0  0  0  0  0
   22.7030   -7.2298  -15.8631 O   0  0  0  0  0  0  0  0  0  0  0  0
   20.0311   -3.0705  -15.2656 O   0  0  0  0  0  0  0  0  0  0  0  0
   19.6856   -4.4023  -15.1713 C   0  0  0  0  0  0  0  0  0  0  0  0
   20.9574   -5.2173  -15.1462 C   0  0  2  0  0  0  0  0  0  0  0  0
   20.6529   -6.6498  -15.0230 N   0  0  0  0  0  0  0  0  0  0  0  0
   21.8006   -4.7782  -14.0070 C   0  0  0  0  0  0  0  0  0  0  0  0
   21.5933   -5.3325  -12.8983 O   0  0  0  0  0  0  0  0  0  0  0  0
   22.7770   -3.8063  -14.1292 O   0  0  0  0  0  0  0  0  0  0  0  0
  2  1  1  6
  2  3  1  0
  4  2  1  0
  4  6  1  0
  4  5  1  6
  6 13  1  0
  7  6  2  0
  8  9  1  0
  9 10  1  0
 10 11  1  6
 10 12  1  0
 12 14  1  0
 12 13  1  6
 14 15  2  0
 14 19  1  0
 17 16  1  0
 18 17  1  1
 19 18  1  0
 20 18  1  0
 20 22  1  0
 21 20  2  0
M  END
$$$$
