TIS.pdb
     RDKit          3D

 22 21  0  0  1  0  0  0  0  0999 V2000
   21.5047   -8.8129  -19.8281 C   0  0  0  0  0  0  0  0  0  0  0  0
   21.2350  -10.3119  -19.8430 C   0  0  1  0  0  0  0  0  0  0  0  0
   21.8158  -10.8848  -20.9632 O   0  0  0  0  0  0  0  0  0  0  0  0
   21.7785  -10.9607  -18.5895 C   0  0  2  0  0  0  0  0  0  0  0  0
   21.5604  -12.3723  -18.6433 N   0  0  0  0  0  0  0  0  0  0  0  0
   21.1692  -10.3298  -17.3877 C   0  0  0  0  0  0  0  0  0  0  0  0
   19.9253  -10.4229  -17.2249 O   0  0  0  0  0  0  0  0  0  0  0  0
   21.7879   -9.5484  -11.4249 C   0  0  0  0  0  0  0  0  0  0  0  0
   21.3335   -8.9198  -12.7008 C   0  0  0  0  0  0  0  0  0  0  0  0
   21.7332   -9.6181  -13.9467 C   0  0  2  0  0  0  0  0  0  0  0  0
   23.2486   -9.9130  -13.9295 C   0  0  0  0  0  0  0  0  0  0  0  0
   21.3390   -8.9787  -15.2413 C   0  0  2  0  0  0  0  0  0  0  0  0
   21.9138   -9.6308  -16.4182 N   0  0  0  0  0  0  0  0  0  0  0  0
   21.7993   -7.5390  -15.2397 C   0  0  0  0  0  0  0  0  0  0  0  0
   22.9730   -7.2586  -15.5428 O   0  0  0  0  0  0  0  0  0  0  0  0
   20.6998   -2.8754  -15.3382 O   0  0  0  0  0  0  0  0  0  0  0  0
   20.2137   -4.1639  -15.2656 C   0  0  0  0  0  0  0  0  0  0  0  0
   21.3718   -5.0874  -14.9684 C   0  0  2  0  0  0  0  0  0  0  0  0
   20.9171   -6.4831  -14.8971 N   0  0  0  0  0  0  0  0  0  0  0  0
   21.9989   -4.6919  -13.6832 C   0  0  0  0  0  0  0  0  0  0  0  0
   21.5649   -5.2478  -12.6430 O   0  0  0  0  0  0  0  0  0  0  0  0
   23.0157   -3.7578  -13.6024 O   0  0  0  0  0  0  0  0  0  0  0  0
  2  1  1  1
  2  3  1  0
  4  2  1  0
  4  6  1  0
  4  5  1  6
  6 13  1  0
  7  6  2  0
  8  9  1  0
  9 10  1  0
 10 11  1  6
 10 12  1  0
 12 14  1  0
 12 13  1  6
 14 15  2  0
 14 19  1  0
 17 16  1  0
 18 17  1  1
 19 18  1  0
 20 18  1  0
 20 22  1  0
 21 20  2  0
M  END
$$$$
