TIS.pdb
     RDKit          3D

 22 21  0  0  1  0  0  0  0  0999 V2000
   26.9454  -22.8598  -17.3134 C   0  0  0  0  0  0  0  0  0  0  0  0
   25.7558  -22.4714  -16.4451 C   0  0  1  0  0  0  0  0  0  0  0  0
   25.8746  -23.0547  -15.1937 O   0  0  0  0  0  0  0  0  0  0  0  0
   25.6678  -20.9676  -16.3085 C   0  0  2  0  0  0  0  0  0  0  0  0
   26.8944  -20.4584  -15.7802 N   0  0  0  0  0  0  0  0  0  0  0  0
   24.4883  -20.6028  -15.4782 C   0  0  0  0  0  0  0  0  0  0  0  0
   24.6832  -20.1761  -14.3110 O   0  0  0  0  0  0  0  0  0  0  0  0
   19.2657  -17.5916  -15.5912 C   0  0  0  0  0  0  0  0  0  0  0  0
   19.9705  -18.7829  -15.0316 C   0  0  0  0  0  0  0  0  0  0  0  0
   21.1935  -19.2117  -15.7529 C   0  0  2  0  0  0  0  0  0  0  0  0
   20.8607  -19.5210  -17.2285 C   0  0  0  0  0  0  0  0  0  0  0  0
   21.9826  -20.3307  -15.1486 C   0  0  2  0  0  0  0  0  0  0  0  0
   23.1593  -20.7099  -15.9311 N   0  0  0  0  0  0  0  0  0  0  0  0
   21.0962  -21.5489  -15.0271 C   0  0  0  0  0  0  0  0  0  0  0  0
   21.0399  -22.3750  -15.9557 O   0  0  0  0  0  0  0  0  0  0  0  0
   18.7761  -24.6979  -12.3258 O   0  0  0  0  0  0  0  0  0  0  0  0
   19.5550  -23.5604  -12.3629 C   0  0  0  0  0  0  0  0  0  0  0  0
   19.4884  -22.9903  -13.7604 C   0  0  2  0  0  0  0  0  0  0  0  0
   20.3149  -21.7797  -13.8665 N   0  0  0  0  0  0  0  0  0  0  0  0
   18.0784  -22.6728  -14.0954 C   0  0  0  0  0  0  0  0  0  0  0  0
   17.7297  -21.4685  -14.0085 O   0  0  0  0  0  0  0  0  0  0  0  0
   17.1669  -23.6361  -14.4881 O   0  0  0  0  0  0  0  0  0  0  0  0
  2  1  1  6
  2  3  1  0
  4  2  1  0
  4  6  1  0
  4  5  1  1
  6 13  1  0
  7  6  2  0
  8  9  1  0
  9 10  1  0
 10 11  1  6
 10 12  1  0
 12 14  1  0
 12 13  1  6
 14 15  2  0
 14 19  1  0
 17 16  1  0
 18 17  1  1
 19 18  1  0
 20 18  1  0
 20 22  1  0
 21 20  2  0
M  END
$$$$
