TIS.pdb
     RDKit          3D

 22 21  0  0  1  0  0  0  0  0999 V2000
   27.7345  -10.2189  -16.8806 C   0  0  0  0  0  0  0  0  0  0  0  0
   27.9258  -11.4830  -17.7085 C   0  0  1  0  0  0  0  0  0  0  0  0
   29.2773  -11.7549  -17.8494 O   0  0  0  0  0  0  0  0  0  0  0  0
   27.2278  -12.6551  -17.0553 C   0  0  2  0  0  0  0  0  0  0  0  0
   27.5942  -13.8664  -17.7198 N   0  0  0  0  0  0  0  0  0  0  0  0
   25.7576  -12.4270  -17.0443 C   0  0  0  0  0  0  0  0  0  0  0  0
   25.1047  -12.6615  -18.0937 O   0  0  0  0  0  0  0  0  0  0  0  0
   22.1703  -14.8797  -14.1658 C   0  0  0  0  0  0  0  0  0  0  0  0
   22.8872  -14.0355  -15.1671 C   0  0  0  0  0  0  0  0  0  0  0  0
   22.8739  -12.5744  -14.9125 C   0  0  2  0  0  0  0  0  0  0  0  0
   21.4225  -12.0766  -14.7418 C   0  0  0  0  0  0  0  0  0  0  0  0
   23.6137  -11.7080  -15.8832 C   0  0  2  0  0  0  0  0  0  0  0  0
   25.0545  -11.9604  -15.9170 N   0  0  0  0  0  0  0  0  0  0  0  0
   23.4071  -10.2589  -15.5066 C   0  0  0  0  0  0  0  0  0  0  0  0
   23.9274   -9.8023  -14.4728 O   0  0  0  0  0  0  0  0  0  0  0  0
   21.9132   -5.8460  -16.7281 O   0  0  0  0  0  0  0  0  0  0  0  0
   21.9956   -7.1655  -17.1207 C   0  0  0  0  0  0  0  0  0  0  0  0
   22.4667   -7.9793  -15.9383 C   0  0  2  0  0  0  0  0  0  0  0  0
   22.6247   -9.3921  -16.3111 N   0  0  0  0  0  0  0  0  0  0  0  0
   21.4858   -7.8532  -14.8323 C   0  0  0  0  0  0  0  0  0  0  0  0
   20.5045   -8.6381  -14.8493 O   0  0  0  0  0  0  0  0  0  0  0  0
   21.6187   -6.9247  -13.8159 O   0  0  0  0  0  0  0  0  0  0  0  0
  2  1  1  1
  2  3  1  0
  4  2  1  0
  4  6  1  0
  4  5  1  6
  6 13  1  0
  7  6  2  0
  8  9  1  0
  9 10  1  0
 10 11  1  6
 10 12  1  0
 12 14  1  0
 12 13  1  1
 14 15  2  0
 14 19  1  0
 17 16  1  0
 18 17  1  6
 19 18  1  0
 20 18  1  0
 20 22  1  0
 21 20  2  0
M  END
$$$$
