TIS.pdb
     RDKit          3D

 22 21  0  0  1  0  0  0  0  0999 V2000
   21.0009   -9.1364  -20.2026 C   0  0  0  0  0  0  0  0  0  0  0  0
   20.4524  -10.5430  -20.0011 C   0  0  1  0  0  0  0  0  0  0  0  0
   20.3368  -11.1841  -21.2242 O   0  0  0  0  0  0  0  0  0  0  0  0
   21.3552  -11.3376  -19.0839 C   0  0  2  0  0  0  0  0  0  0  0  0
   20.8852  -12.6843  -18.9923 N   0  0  0  0  0  0  0  0  0  0  0  0
   21.4456  -10.6684  -17.7581 C   0  0  0  0  0  0  0  0  0  0  0  0
   20.4567  -10.7325  -16.9833 O   0  0  0  0  0  0  0  0  0  0  0  0
   26.5438   -9.9926  -15.3667 C   0  0  0  0  0  0  0  0  0  0  0  0
   25.2843   -9.6060  -16.0692 C   0  0  0  0  0  0  0  0  0  0  0  0
   24.0269   -9.8207  -15.3123 C   0  0  2  0  0  0  0  0  0  0  0  0
   23.9361  -11.2861  -14.8350 C   0  0  0  0  0  0  0  0  0  0  0  0
   22.7524   -9.4074  -15.9795 C   0  0  2  0  0  0  0  0  0  0  0  0
   22.5843   -9.9640  -17.3221 N   0  0  0  0  0  0  0  0  0  0  0  0
   22.7240   -7.9008  -16.0969 C   0  0  0  0  0  0  0  0  0  0  0  0
   23.4120   -7.3290  -16.9616 O   0  0  0  0  0  0  0  0  0  0  0  0
   20.5371   -3.7923  -15.8101 O   0  0  0  0  0  0  0  0  0  0  0  0
   20.4888   -5.1540  -15.5973 C   0  0  0  0  0  0  0  0  0  0  0  0
   21.9007   -5.6469  -15.3834 C   0  0  2  0  0  0  0  0  0  0  0  0
   21.9228   -7.1090  -15.2356 N   0  0  0  0  0  0  0  0  0  0  0  0
   22.4670   -5.0060  -14.1709 C   0  0  0  0  0  0  0  0  0  0  0  0
   22.7278   -3.7789  -14.2447 O   0  0  0  0  0  0  0  0  0  0  0  0
   22.7075   -5.7010  -12.9996 O   0  0  0  0  0  0  0  0  0  0  0  0
  2  1  1  6
  2  3  1  0
  4  2  1  0
  4  6  1  0
  4  5  1  1
  6 13  1  0
  7  6  2  0
  8  9  1  0
  9 10  1  0
 10 11  1  6
 10 12  1  0
 12 14  1  0
 12 13  1  6
 14 15  2  0
 14 19  1  0
 17 16  1  0
 18 17  1  1
 19 18  1  0
 20 18  1  0
 20 22  1  0
 21 20  2  0
M  END
$$$$
