TIS.pdb
     RDKit          3D

 22 21  0  0  1  0  0  0  0  0999 V2000
   26.9986   -6.3300  -19.0407 C   0  0  0  0  0  0  0  0  0  0  0  0
   25.5262   -6.5195  -18.7005 C   0  0  1  0  0  0  0  0  0  0  0  0
   24.7403   -6.1346  -19.7750 O   0  0  0  0  0  0  0  0  0  0  0  0
   25.2456   -7.9626  -18.3452 C   0  0  2  0  0  0  0  0  0  0  0  0
   25.4919   -8.7957  -19.4803 N   0  0  0  0  0  0  0  0  0  0  0  0
   23.8583   -8.0954  -17.8243 C   0  0  0  0  0  0  0  0  0  0  0  0
   22.9652   -8.5308  -18.5958 O   0  0  0  0  0  0  0  0  0  0  0  0
   23.2396  -10.5546  -13.2873 C   0  0  0  0  0  0  0  0  0  0  0  0
   22.7014  -10.0725  -14.5940 C   0  0  0  0  0  0  0  0  0  0  0  0
   22.1887   -8.6809  -14.6111 C   0  0  2  0  0  0  0  0  0  0  0  0
   20.8005   -8.6163  -13.9384 C   0  0  0  0  0  0  0  0  0  0  0  0
   22.1623   -7.9819  -15.9343 C   0  0  2  0  0  0  0  0  0  0  0  0
   23.4896   -7.7583  -16.5077 N   0  0  0  0  0  0  0  0  0  0  0  0
   21.4985   -6.6344  -15.7663 C   0  0  0  0  0  0  0  0  0  0  0  0
   21.9196   -5.8333  -14.9125 O   0  0  0  0  0  0  0  0  0  0  0  0
   18.6453   -3.2014  -17.5135 O   0  0  0  0  0  0  0  0  0  0  0  0
   19.1579   -4.4671  -17.7063 C   0  0  0  0  0  0  0  0  0  0  0  0
   19.7936   -4.9190  -16.4125 C   0  0  2  0  0  0  0  0  0  0  0  0
   20.3923   -6.2523  -16.5668 N   0  0  0  0  0  0  0  0  0  0  0  0
   18.7661   -4.9452  -15.3425 C   0  0  0  0  0  0  0  0  0  0  0  0
   18.1619   -6.0319  -15.1597 O   0  0  0  0  0  0  0  0  0  0  0  0
   18.4654   -3.8409  -14.5660 O   0  0  0  0  0  0  0  0  0  0  0  0
  2  1  1  6
  2  3  1  0
  4  2  1  0
  4  6  1  0
  4  5  1  6
  6 13  1  0
  7  6  2  0
  8  9  1  0
  9 10  1  0
 10 11  1  6
 10 12  1  0
 12 14  1  0
 12 13  1  1
 14 15  2  0
 14 19  1  0
 17 16  1  0
 18 17  1  6
 19 18  1  0
 20 18  1  0
 20 22  1  0
 21 20  2  0
M  END
$$$$
