TIS.pdb
     RDKit          3D

 22 21  0  0  1  0  0  0  0  0999 V2000
   24.5995   -5.9740  -19.3309 C   0  0  0  0  0  0  0  0  0  0  0  0
   24.7616   -7.3696  -19.9191 C   0  0  1  0  0  0  0  0  0  0  0  0
   25.9085   -7.4245  -20.6949 O   0  0  0  0  0  0  0  0  0  0  0  0
   24.8320   -8.4041  -18.8179 C   0  0  2  0  0  0  0  0  0  0  0  0
   25.1274   -9.6855  -19.3778 N   0  0  0  0  0  0  0  0  0  0  0  0
   23.5673   -8.3964  -18.0342 C   0  0  0  0  0  0  0  0  0  0  0  0
   22.5283   -8.8675  -18.5644 O   0  0  0  0  0  0  0  0  0  0  0  0
   22.9798  -10.4074  -13.2404 C   0  0  0  0  0  0  0  0  0  0  0  0
   22.6451   -9.8565  -14.5872 C   0  0  0  0  0  0  0  0  0  0  0  0
   22.2662   -8.4231  -14.6263 C   0  0  2  0  0  0  0  0  0  0  0  0
   20.9358   -8.2031  -13.8745 C   0  0  0  0  0  0  0  0  0  0  0  0
   22.2223   -7.7675  -15.9711 C   0  0  2  0  0  0  0  0  0  0  0  0
   23.4705   -7.8876  -16.7248 N   0  0  0  0  0  0  0  0  0  0  0  0
   21.9304   -6.2953  -15.7919 C   0  0  0  0  0  0  0  0  0  0  0  0
   22.5383   -5.6392  -14.9271 O   0  0  0  0  0  0  0  0  0  0  0  0
   20.9397   -3.8200  -18.7184 O   0  0  0  0  0  0  0  0  0  0  0  0
   20.0888   -3.6037  -17.6549 C   0  0  0  0  0  0  0  0  0  0  0  0
   20.7239   -4.1929  -16.4172 C   0  0  2  0  0  0  0  0  0  0  0  0
   20.9683   -5.6312  -16.5944 N   0  0  0  0  0  0  0  0  0  0  0  0
   19.8317   -3.9697  -15.2529 C   0  0  0  0  0  0  0  0  0  0  0  0
   18.9083   -4.8034  -15.0750 O   0  0  0  0  0  0  0  0  0  0  0  0
   19.9847   -2.9029  -14.3861 O   0  0  0  0  0  0  0  0  0  0  0  0
  2  1  1  1
  2  3  1  0
  4  2  1  0
  4  6  1  0
  4  5  1  6
  6 13  1  0
  7  6  2  0
  8  9  1  0
  9 10  1  0
 10 11  1  6
 10 12  1  0
 12 14  1  0
 12 13  1  1
 14 15  2  0
 14 19  1  0
 17 16  1  0
 18 17  1  6
 19 18  1  0
 20 18  1  0
 20 22  1  0
 21 20  2  0
M  END
$$$$
