TIS.pdb
     RDKit          3D

 22 21  0  0  1  0  0  0  0  0999 V2000
   21.9675   -4.6107  -19.2588 C   0  0  0  0  0  0  0  0  0  0  0  0
   22.1641   -5.6996  -20.3055 C   0  0  1  0  0  0  0  0  0  0  0  0
   22.9159   -5.2091  -21.3612 O   0  0  0  0  0  0  0  0  0  0  0  0
   22.8501   -6.9023  -19.6968 C   0  0  2  0  0  0  0  0  0  0  0  0
   23.0707   -7.8927  -20.7034 N   0  0  0  0  0  0  0  0  0  0  0  0
   22.0514   -7.4147  -18.5508 C   0  0  0  0  0  0  0  0  0  0  0  0
   20.9753   -8.0204  -18.7907 O   0  0  0  0  0  0  0  0  0  0  0  0
   23.8631  -10.4062  -14.4476 C   0  0  0  0  0  0  0  0  0  0  0  0
   23.0337   -9.7012  -15.4696 C   0  0  0  0  0  0  0  0  0  0  0  0
   22.3941   -8.4381  -15.0276 C   0  0  2  0  0  0  0  0  0  0  0  0
   21.5184   -8.6920  -13.7817 C   0  0  0  0  0  0  0  0  0  0  0  0
   21.6290   -7.6665  -16.0569 C   0  0  2  0  0  0  0  0  0  0  0  0
   22.4373   -7.2572  -17.2057 N   0  0  0  0  0  0  0  0  0  0  0  0
   21.0669   -6.4171  -15.4186 C   0  0  0  0  0  0  0  0  0  0  0  0
   21.8336   -5.5341  -14.9938 O   0  0  0  0  0  0  0  0  0  0  0  0
   19.1065   -2.6548  -15.7647 O   0  0  0  0  0  0  0  0  0  0  0  0
   19.6429   -3.8919  -16.0539 C   0  0  0  0  0  0  0  0  0  0  0  0
   19.1321   -4.8772  -15.0289 C   0  0  2  0  0  0  0  0  0  0  0  0
   19.6687   -6.2206  -15.2884 N   0  0  0  0  0  0  0  0  0  0  0  0
   17.6492   -4.9065  -15.0711 C   0  0  0  0  0  0  0  0  0  0  0  0
   17.1183   -5.7145  -15.8739 O   0  0  0  0  0  0  0  0  0  0  0  0
   16.8614   -4.0941  -14.2760 O   0  0  0  0  0  0  0  0  0  0  0  0
  2  1  1  1
  2  3  1  0
  4  2  1  0
  4  6  1  0
  4  5  1  6
  6 13  1  0
  7  6  2  0
  8  9  1  0
  9 10  1  0
 10 11  1  1
 10 12  1  0
 12 14  1  0
 12 13  1  6
 14 15  2  0
 14 19  1  0
 17 16  1  0
 18 17  1  6
 19 18  1  0
 20 18  1  0
 20 22  1  0
 21 20  2  0
M  END
$$$$
