TIS.pdb
     RDKit          3D

 22 21  0  0  1  0  0  0  0  0999 V2000
   14.9571  -12.6583  -12.2246 C   0  0  0  0  0  0  0  0  0  0  0  0
   13.5266  -12.9256  -11.7751 C   0  0  1  0  0  0  0  0  0  0  0  0
   13.3653  -14.2722  -11.4902 O   0  0  0  0  0  0  0  0  0  0  0  0
   13.1900  -12.0952  -10.5566 C   0  0  2  0  0  0  0  0  0  0  0  0
   11.8402  -12.3466  -10.1592 N   0  0  0  0  0  0  0  0  0  0  0  0
   13.4489  -10.6570  -10.8366 C   0  0  0  0  0  0  0  0  0  0  0  0
   12.6981  -10.0577  -11.6488 O   0  0  0  0  0  0  0  0  0  0  0  0
   16.0684   -5.6120   -8.6997 C   0  0  0  0  0  0  0  0  0  0  0  0
   14.9530   -6.1937   -9.5038 C   0  0  0  0  0  0  0  0  0  0  0  0
   14.6954   -7.6407   -9.3048 C   0  0  2  0  0  0  0  0  0  0  0  0
   15.5853   -8.1889   -8.1685 C   0  0  0  0  0  0  0  0  0  0  0  0
   14.7871   -8.5204  -10.5123 C   0  0  2  0  0  0  0  0  0  0  0  0
   14.4942   -9.9274  -10.2383 N   0  0  0  0  0  0  0  0  0  0  0  0
   16.1880   -8.4408  -11.0743 C   0  0  0  0  0  0  0  0  0  0  0  0
   17.1521   -8.8597  -10.4088 O   0  0  0  0  0  0  0  0  0  0  0  0
   19.1885   -8.4223  -14.6843 O   0  0  0  0  0  0  0  0  0  0  0  0
   17.8887   -8.5170  -14.2330 C   0  0  0  0  0  0  0  0  0  0  0  0
   17.8085   -7.8395  -12.8851 C   0  0  2  0  0  0  0  0  0  0  0  0
   16.4375   -7.8936  -12.3583 N   0  0  0  0  0  0  0  0  0  0  0  0
   18.2456   -6.4278  -13.0174 C   0  0  0  0  0  0  0  0  0  0  0  0
   17.3474   -5.5685  -13.2020 O   0  0  0  0  0  0  0  0  0  0  0  0
   19.5727   -6.0451  -12.9453 O   0  0  0  0  0  0  0  0  0  0  0  0
  2  1  1  1
  2  3  1  0
  4  2  1  0
  4  6  1  0
  4  5  1  6
  6 13  1  0
  7  6  2  0
  8  9  1  0
  9 10  1  0
 10 11  1  1
 10 12  1  0
 12 14  1  0
 12 13  1  1
 14 15  2  0
 14 19  1  0
 17 16  1  0
 18 17  1  6
 19 18  1  0
 20 18  1  0
 20 22  1  0
 21 20  2  0
M  END
$$$$
