TIS.pdb
     RDKit          3D

 22 21  0  0  1  0  0  0  0  0999 V2000
   26.3503  -17.0885  -15.0387 C   0  0  0  0  0  0  0  0  0  0  0  0
   27.0411  -18.0159  -16.0300 C   0  0  1  0  0  0  0  0  0  0  0  0
   28.0029  -17.3153  -16.7402 O   0  0  0  0  0  0  0  0  0  0  0  0
   27.6782  -19.1827  -15.3088 C   0  0  2  0  0  0  0  0  0  0  0  0
   28.4957  -19.9236  -16.2176 N   0  0  0  0  0  0  0  0  0  0  0  0
   26.6263  -20.0182  -14.6691 C   0  0  0  0  0  0  0  0  0  0  0  0
   26.1307  -20.9691  -15.3269 O   0  0  0  0  0  0  0  0  0  0  0  0
   26.5888  -20.7130   -9.0857 C   0  0  0  0  0  0  0  0  0  0  0  0
   26.4989  -20.9418  -10.5584 C   0  0  0  0  0  0  0  0  0  0  0  0
   25.2153  -20.5620  -11.1972 C   0  0  2  0  0  0  0  0  0  0  0  0
   24.0517  -21.3598  -10.5701 C   0  0  0  0  0  0  0  0  0  0  0  0
   25.1522  -20.6310  -12.6910 C   0  0  2  0  0  0  0  0  0  0  0  0
   26.1534  -19.8005  -13.3607 N   0  0  0  0  0  0  0  0  0  0  0  0
   23.7877  -20.1689  -13.1481 C   0  0  0  0  0  0  0  0  0  0  0  0
   23.3853  -19.0281  -12.8573 O   0  0  0  0  0  0  0  0  0  0  0  0
   21.5532  -22.4175  -15.7436 O   0  0  0  0  0  0  0  0  0  0  0  0
   21.3088  -21.0602  -15.7394 C   0  0  0  0  0  0  0  0  0  0  0  0
   21.6279  -20.5292  -14.3616 C   0  0  2  0  0  0  0  0  0  0  0  0
   22.9406  -21.0124  -13.9108 N   0  0  0  0  0  0  0  0  0  0  0  0
   20.5742  -20.9627  -13.4112 C   0  0  0  0  0  0  0  0  0  0  0  0
   20.9211  -21.7539  -12.4985 O   0  0  0  0  0  0  0  0  0  0  0  0
   19.2626  -20.5329  -13.5004 O   0  0  0  0  0  0  0  0  0  0  0  0
  2  1  1  1
  2  3  1  0
  4  2  1  0
  4  6  1  0
  4  5  1  6
  6 13  1  0
  7  6  2  0
  8  9  1  0
  9 10  1  0
 10 11  1  1
 10 12  1  0
 12 14  1  0
 12 13  1  6
 14 15  2  0
 14 19  1  0
 17 16  1  0
 18 17  1  6
 19 18  1  0
 20 18  1  0
 20 22  1  0
 21 20  2  0
M  END
$$$$
