TIS.pdb
     RDKit          3D

 22 21  0  0  1  0  0  0  0  0999 V2000
   33.2064  -39.1605   -6.7267 C   0  0  0  0  0  0  0  0  0  0  0  0
   34.6497  -39.0168   -7.1916 C   0  0  1  0  0  0  0  0  0  0  0  0
   34.9211  -39.9469   -8.1823 O   0  0  0  0  0  0  0  0  0  0  0  0
   34.9026  -37.6190   -7.7111 C   0  0  2  0  0  0  0  0  0  0  0  0
   36.2269  -37.5338   -8.2421 N   0  0  0  0  0  0  0  0  0  0  0  0
   34.6498  -36.6248   -6.6334 C   0  0  0  0  0  0  0  0  0  0  0  0
   35.5661  -36.3910   -5.8037 O   0  0  0  0  0  0  0  0  0  0  0  0
   30.5269  -32.5753   -7.0428 C   0  0  0  0  0  0  0  0  0  0  0  0
   31.2549  -33.8390   -6.7231 C   0  0  0  0  0  0  0  0  0  0  0  0
   32.5216  -33.6849   -5.9670 C   0  0  2  0  0  0  0  0  0  0  0  0
   33.5343  -32.8571   -6.7872 C   0  0  0  0  0  0  0  0  0  0  0  0
   33.1628  -34.9354   -5.4519 C   0  0  2  0  0  0  0  0  0  0  0  0
   33.4342  -35.9282   -6.4917 N   0  0  0  0  0  0  0  0  0  0  0  0
   32.2485  -35.5733   -4.4313 C   0  0  0  0  0  0  0  0  0  0  0  0
   31.5574  -36.5599   -4.7427 O   0  0  0  0  0  0  0  0  0  0  0  0
   28.8245  -35.9866   -1.9590 O   0  0  0  0  0  0  0  0  0  0  0  0
   29.7486  -35.4430   -2.8264 C   0  0  0  0  0  0  0  0  0  0  0  0
   31.1165  -35.5735   -2.1985 C   0  0  2  0  0  0  0  0  0  0  0  0
   32.1551  -35.0707   -3.1087 N   0  0  0  0  0  0  0  0  0  0  0  0
   31.3741  -36.9978   -1.8724 C   0  0  0  0  0  0  0  0  0  0  0  0
   31.6788  -37.2634   -0.6824 O   0  0  0  0  0  0  0  0  0  0  0  0
   31.2905  -38.0082   -2.8131 O   0  0  0  0  0  0  0  0  0  0  0  0
  2  1  1  6
  2  3  1  0
  4  2  1  0
  4  6  1  0
  4  5  1  1
  6 13  1  0
  7  6  2  0
  8  9  1  0
  9 10  1  0
 10 11  1  6
 10 12  1  0
 12 14  1  0
 12 13  1  6
 14 15  2  0
 14 19  1  0
 17 16  1  0
 18 17  1  6
 19 18  1  0
 20 18  1  0
 20 22  1  0
 21 20  2  0
M  END
$$$$
