TIS.pdb
     RDKit          3D

 22 21  0  0  1  0  0  0  0  0999 V2000
   18.3412   -9.5415  -21.0936 C   0  0  0  0  0  0  0  0  0  0  0  0
   18.8490   -9.2208  -19.6939 C   0  0  1  0  0  0  0  0  0  0  0  0
   17.9210   -8.4408  -19.0224 O   0  0  0  0  0  0  0  0  0  0  0  0
   19.1109  -10.4939  -18.9204 C   0  0  2  0  0  0  0  0  0  0  0  0
   17.8999  -11.2435  -18.8005 N   0  0  0  0  0  0  0  0  0  0  0  0
   19.7195  -10.1693  -17.6021 C   0  0  0  0  0  0  0  0  0  0  0  0
   18.9633  -10.0474  -16.6042 O   0  0  0  0  0  0  0  0  0  0  0  0
   24.0387  -12.6650  -15.4878 C   0  0  0  0  0  0  0  0  0  0  0  0
   22.7848  -11.8835  -15.7031 C   0  0  0  0  0  0  0  0  0  0  0  0
   22.9468  -10.4130  -15.8097 C   0  0  2  0  0  0  0  0  0  0  0  0
   23.6262   -9.8584  -14.5391 C   0  0  0  0  0  0  0  0  0  0  0  0
   21.7236   -9.6160  -16.1396 C   0  0  2  0  0  0  0  0  0  0  0  0
   21.1031   -9.9904  -17.4106 N   0  0  0  0  0  0  0  0  0  0  0  0
   22.0958   -8.1533  -16.2201 C   0  0  0  0  0  0  0  0  0  0  0  0
   22.5167   -7.6743  -17.2883 O   0  0  0  0  0  0  0  0  0  0  0  0
   21.0740   -3.9782  -16.2842 O   0  0  0  0  0  0  0  0  0  0  0  0
   20.9567   -5.3478  -16.1723 C   0  0  0  0  0  0  0  0  0  0  0  0
   22.0565   -5.8411  -15.2615 C   0  0  2  0  0  0  0  0  0  0  0  0
   21.9766   -7.2990  -15.0946 N   0  0  0  0  0  0  0  0  0  0  0  0
   21.9395   -5.1724  -13.9422 C   0  0  0  0  0  0  0  0  0  0  0  0
   21.2606   -5.7611  -13.0637 O   0  0  0  0  0  0  0  0  0  0  0  0
   22.5386   -3.9575  -13.6628 O   0  0  0  0  0  0  0  0  0  0  0  0
  2  1  1  6
  2  3  1  0
  4  2  1  0
  4  6  1  0
  4  5  1  1
  6 13  1  0
  7  6  2  0
  8  9  1  0
  9 10  1  0
 10 11  1  1
 10 12  1  0
 12 14  1  0
 12 13  1  6
 14 15  2  0
 14 19  1  0
 17 16  1  0
 18 17  1  6
 19 18  1  0
 20 18  1  0
 20 22  1  0
 21 20  2  0
M  END
$$$$
