TIS.pdb
     RDKit          3D

 22 21  0  0  1  0  0  0  0  0999 V2000
   17.9125   -8.4234  -19.0949 C   0  0  0  0  0  0  0  0  0  0  0  0
   17.1199   -9.7004  -18.8478 C   0  0  1  0  0  0  0  0  0  0  0  0
   16.4889  -10.0975  -20.0159 O   0  0  0  0  0  0  0  0  0  0  0  0
   18.0302  -10.8016  -18.3515 C   0  0  2  0  0  0  0  0  0  0  0  0
   17.2800  -12.0054  -18.1760 N   0  0  0  0  0  0  0  0  0  0  0  0
   18.7193  -10.3664  -17.1067 C   0  0  0  0  0  0  0  0  0  0  0  0
   18.0666  -10.3522  -16.0314 O   0  0  0  0  0  0  0  0  0  0  0  0
   23.9087  -10.8877  -13.9997 C   0  0  0  0  0  0  0  0  0  0  0  0
   22.7696   -9.9881  -14.3498 C   0  0  0  0  0  0  0  0  0  0  0  0
   21.9335  -10.4162  -15.4976 C   0  0  2  0  0  0  0  0  0  0  0  0
   22.8198  -10.6757  -16.7348 C   0  0  0  0  0  0  0  0  0  0  0  0
   20.7740   -9.5412  -15.8584 C   0  0  2  0  0  0  0  0  0  0  0  0
   20.0693   -9.9678  -17.0675 N   0  0  0  0  0  0  0  0  0  0  0  0
   21.2725   -8.1326  -16.0867 C   0  0  0  0  0  0  0  0  0  0  0  0
   21.7364   -7.8066  -17.1941 O   0  0  0  0  0  0  0  0  0  0  0  0
   20.8503   -3.7448  -16.2689 O   0  0  0  0  0  0  0  0  0  0  0  0
   20.4375   -5.0297  -15.9852 C   0  0  0  0  0  0  0  0  0  0  0  0
   21.5917   -5.7635  -15.3436 C   0  0  2  0  0  0  0  0  0  0  0  0
   21.2253   -7.1578  -15.0581 N   0  0  0  0  0  0  0  0  0  0  0  0
   21.9766   -5.0729  -14.0881 C   0  0  0  0  0  0  0  0  0  0  0  0
   21.5227   -5.5459  -13.0159 O   0  0  0  0  0  0  0  0  0  0  0  0
   22.7953   -3.9584  -14.0673 O   0  0  0  0  0  0  0  0  0  0  0  0
  2  1  1  6
  2  3  1  0
  4  2  1  0
  4  6  1  0
  4  5  1  1
  6 13  1  0
  7  6  2  0
  8  9  1  0
  9 10  1  0
 10 11  1  6
 10 12  1  0
 12 14  1  0
 12 13  1  6
 14 15  2  0
 14 19  1  0
 17 16  1  0
 18 17  1  1
 19 18  1  0
 20 18  1  0
 20 22  1  0
 21 20  2  0
M  END
$$$$
