HIR.pdb
     RDKit          3D

 30 30  0  0  1  0  0  0  0  0999 V2000
   26.1452  -21.1146  -14.0166 N   0  0  0  0  0  0  0  0  0  0  0  0
   25.1155  -20.4960  -13.2249 C   0  0  1  0  0  0  0  0  0  0  0  0
   23.7707  -20.5101  -13.9165 C   0  0  0  0  0  0  0  0  0  0  0  0
   23.7799  -19.7093  -15.1558 C   0  0  0  0  0  0  0  0  0  0  0  0
   23.4297  -18.3974  -15.3348 C   0  0  0  0  0  0  0  0  0  0  0  0
   23.6052  -18.1240  -16.6377 N   0  0  0  0  0  0  0  0  0  0  0  0
   24.0571  -19.2345  -17.2789 C   0  0  0  0  0  0  0  0  0  0  0  0
   24.1525  -20.1812  -16.3478 N   0  0  0  0  0  0  0  0  0  0  0  0
   25.0382  -21.1000  -11.8714 C   0  0  0  0  0  0  0  0  0  0  0  0
   25.0278  -22.3455  -11.6966 O   0  0  0  0  0  0  0  0  0  0  0  0
   26.9226  -20.2475   -6.0744 C   0  0  0  0  0  0  0  0  0  0  0  0
   25.9657  -20.8412   -7.0438 C   0  0  0  0  0  0  0  0  0  0  0  0
   25.8903  -20.2259   -8.3874 C   0  0  2  0  0  0  0  0  0  0  0  0
   25.6540  -18.7256   -8.3384 C   0  0  0  0  0  0  0  0  0  0  0  0
   24.9521  -20.8202   -9.3712 C   0  0  2  0  0  0  0  0  0  0  0  0
   24.9711  -20.2680  -10.6893 N   0  0  0  0  0  0  0  0  0  0  0  0
   23.5520  -20.8907   -8.8752 C   0  0  0  0  0  0  0  0  0  0  0  0
   22.7640  -19.9279   -9.0899 O   0  0  0  0  0  0  0  0  0  0  0  0
   16.4920  -24.4426   -8.5519 N   0  0  0  0  0  0  0  0  0  0  0  0
   16.4964  -24.3638   -7.1091 C   0  0  0  0  0  0  0  0  0  0  0  0
   15.3958  -24.4666   -6.4844 N   0  0  0  0  0  0  0  0  0  0  0  0
   17.7510  -24.1735   -6.4952 N   0  0  0  0  0  0  0  0  0  0  0  0
   18.8900  -23.7683   -7.3724 C   0  0  0  0  0  0  0  0  0  0  0  0
   20.1080  -23.7540   -6.5198 C   0  0  0  0  0  0  0  0  0  0  0  0
   21.4081  -23.3275   -7.0069 C   0  0  0  0  0  0  0  0  0  0  0  0
   21.6359  -22.0556   -7.6716 C   0  0  2  0  0  0  0  0  0  0  0  0
   23.0412  -21.9914   -8.1640 N   0  0  0  0  0  0  0  0  0  0  0  0
   21.3867  -20.8015   -6.9994 C   0  0  0  0  0  0  0  0  0  0  0  0
   22.0273  -20.2201   -6.1102 O   0  0  0  0  0  0  0  0  0  0  0  0
   20.2188  -20.0665   -7.3874 O   0  0  0  0  0  0  0  0  0  0  0  0
  2  1  1  6
  3  4  1  0
  3  2  1  0
  4  5  2  0
  6  5  1  0
  7  6  1  0
  8  7  2  0
  8  4  1  0
  9 10  2  0
  9  2  1  0
 11 12  1  0
 12 13  1  0
 13 15  1  0
 13 14  1  1
 15 16  1  6
 16  9  1  0
 17 15  1  0
 18 17  2  0
 19 20  1  0
 20 22  1  0
 21 20  2  0
 22 23  1  0
 23 24  1  0
 24 25  1  0
 26 25  1  1
 26 28  1  0
 26 27  1  0
 27 17  1  0
 28 30  1  0
 29 28  2  0
M  END
$$$$
