HIR.pdb
     RDKit          3D

 30 30  0  0  1  0  0  0  0  0999 V2000
   18.5558  -15.5334  -18.5336 N   0  0  0  0  0  0  0  0  0  0  0  0
   19.0021  -14.1959  -18.2479 C   0  0  1  0  0  0  0  0  0  0  0  0
   19.7058  -13.5596  -19.4257 C   0  0  0  0  0  0  0  0  0  0  0  0
   20.8863  -14.3373  -19.8481 C   0  0  0  0  0  0  0  0  0  0  0  0
   21.0550  -15.1033  -20.9709 C   0  0  0  0  0  0  0  0  0  0  0  0
   22.2964  -15.6115  -20.9102 N   0  0  0  0  0  0  0  0  0  0  0  0
   22.9092  -15.1816  -19.7752 C   0  0  0  0  0  0  0  0  0  0  0  0
   22.0232  -14.4079  -19.1517 N   0  0  0  0  0  0  0  0  0  0  0  0
   17.8879  -13.3478  -17.7561 C   0  0  0  0  0  0  0  0  0  0  0  0
   16.7872  -13.2766  -18.3605 O   0  0  0  0  0  0  0  0  0  0  0  0
   15.1762  -14.1985  -13.5614 C   0  0  0  0  0  0  0  0  0  0  0  0
   15.6606  -13.6211  -14.8419 C   0  0  0  0  0  0  0  0  0  0  0  0
   16.3074  -12.2914  -14.7860 C   0  0  2  0  0  0  0  0  0  0  0  0
   15.3904  -11.2104  -14.2386 C   0  0  0  0  0  0  0  0  0  0  0  0
   16.9546  -11.7820  -16.0199 C   0  0  2  0  0  0  0  0  0  0  0  0
   18.0289  -12.5622  -16.5490 N   0  0  0  0  0  0  0  0  0  0  0  0
   17.3701  -10.3579  -15.9171 C   0  0  0  0  0  0  0  0  0  0  0  0
   18.4996  -10.0702  -15.4319 O   0  0  0  0  0  0  0  0  0  0  0  0
   20.1018   -3.7521  -19.8409 N   0  0  0  0  0  0  0  0  0  0  0  0
   19.0192   -3.0269  -19.2163 C   0  0  0  0  0  0  0  0  0  0  0  0
   19.0351   -1.7576  -19.2401 N   0  0  0  0  0  0  0  0  0  0  0  0
   18.0082   -3.8041  -18.6153 N   0  0  0  0  0  0  0  0  0  0  0  0
   18.2156   -5.2825  -18.5682 C   0  0  0  0  0  0  0  0  0  0  0  0
   17.0204   -5.8654  -17.9031 C   0  0  0  0  0  0  0  0  0  0  0  0
   16.8797   -7.2859  -17.6355 C   0  0  0  0  0  0  0  0  0  0  0  0
   17.0174   -7.8685  -16.3114 C   0  0  2  0  0  0  0  0  0  0  0  0
   16.5609   -9.2870  -16.3374 N   0  0  0  0  0  0  0  0  0  0  0  0
   16.3932   -7.2652  -15.1567 C   0  0  0  0  0  0  0  0  0  0  0  0
   16.7740   -6.3398  -14.4235 O   0  0  0  0  0  0  0  0  0  0  0  0
   15.1209   -7.7845  -14.7487 O   0  0  0  0  0  0  0  0  0  0  0  0
  2  1  1  6
  3  4  1  0
  3  2  1  0
  4  5  2  0
  6  5  1  0
  7  6  1  0
  8  7  2  0
  8  4  1  0
  9 10  2  0
  9  2  1  0
 11 12  1  0
 12 13  1  0
 13 15  1  0
 13 14  1  6
 15 16  1  1
 16  9  1  0
 17 15  1  0
 18 17  2  0
 19 20  1  0
 20 22  1  0
 21 20  2  0
 22 23  1  0
 23 24  1  0
 24 25  1  0
 26 25  1  6
 26 28  1  0
 26 27  1  0
 27 17  1  0
 28 30  1  0
 29 28  2  0
M  END
$$$$
