HIR.pdb
     RDKit          3D

 30 30  0  0  1  0  0  0  0  0999 V2000
   29.4728  -22.4697  -16.3687 N   0  0  0  0  0  0  0  0  0  0  0  0
   28.2198  -22.0903  -16.9651 C   0  0  1  0  0  0  0  0  0  0  0  0
   27.3574  -23.2858  -17.3032 C   0  0  0  0  0  0  0  0  0  0  0  0
   28.0482  -24.2257  -18.2068 C   0  0  0  0  0  0  0  0  0  0  0  0
   28.4049  -24.0535  -19.5179 C   0  0  0  0  0  0  0  0  0  0  0  0
   29.0079  -25.1882  -19.9075 N   0  0  0  0  0  0  0  0  0  0  0  0
   29.0370  -26.0673  -18.8707 C   0  0  0  0  0  0  0  0  0  0  0  0
   28.4447  -25.4498  -17.8508 N   0  0  0  0  0  0  0  0  0  0  0  0
   27.4905  -21.1152  -16.1166 C   0  0  0  0  0  0  0  0  0  0  0  0
   27.4829  -21.1982  -14.8617 O   0  0  0  0  0  0  0  0  0  0  0  0
   28.7303  -16.6724  -17.0940 C   0  0  0  0  0  0  0  0  0  0  0  0
   28.0697  -17.3926  -15.9747 C   0  0  0  0  0  0  0  0  0  0  0  0
   26.6124  -17.6259  -16.0832 C   0  0  2  0  0  0  0  0  0  0  0  0
   25.7985  -16.7110  -15.1834 C   0  0  0  0  0  0  0  0  0  0  0  0
   26.1177  -19.0147  -15.9168 C   0  0  2  0  0  0  0  0  0  0  0  0
   26.7527  -20.0205  -16.7092 N   0  0  0  0  0  0  0  0  0  0  0  0
   24.6408  -19.1289  -16.0477 C   0  0  0  0  0  0  0  0  0  0  0  0
   24.1007  -18.9815  -17.1793 O   0  0  0  0  0  0  0  0  0  0  0  0
   18.4245  -23.2090  -11.1589 N   0  0  0  0  0  0  0  0  0  0  0  0
   17.6547  -22.5160  -12.1665 C   0  0  0  0  0  0  0  0  0  0  0  0
   16.4006  -22.7068  -12.2212 N   0  0  0  0  0  0  0  0  0  0  0  0
   18.3737  -21.6644  -13.0296 N   0  0  0  0  0  0  0  0  0  0  0  0
   19.8597  -21.6336  -12.8825 C   0  0  0  0  0  0  0  0  0  0  0  0
   20.3768  -20.6978  -13.9156 C   0  0  0  0  0  0  0  0  0  0  0  0
   21.7867  -20.3794  -14.0580 C   0  0  0  0  0  0  0  0  0  0  0  0
   22.3102  -19.5124  -15.1001 C   0  0  2  0  0  0  0  0  0  0  0  0
   23.7895  -19.3971  -14.9606 N   0  0  0  0  0  0  0  0  0  0  0  0
   21.8158  -18.1666  -15.2763 C   0  0  0  0  0  0  0  0  0  0  0  0
   22.1708  -17.1002  -14.7511 O   0  0  0  0  0  0  0  0  0  0  0  0
   20.7370  -17.9765  -16.2008 O   0  0  0  0  0  0  0  0  0  0  0  0
  2  1  1  1
  3  4  1  0
  3  2  1  0
  4  5  2  0
  6  5  1  0
  7  6  1  0
  8  7  2  0
  8  4  1  0
  9 10  2  0
  9  2  1  0
 11 12  1  0
 12 13  1  0
 13 15  1  0
 13 14  1  1
 15 16  1  6
 16  9  1  0
 17 15  1  0
 18 17  2  0
 19 20  1  0
 20 22  1  0
 21 20  2  0
 22 23  1  0
 23 24  1  0
 24 25  1  0
 26 25  1  1
 26 28  1  0
 26 27  1  0
 27 17  1  0
 28 30  1  0
 29 28  2  0
M  END
$$$$
