HIR.pdb
     RDKit          3D

 30 30  0  0  1  0  0  0  0  0999 V2000
   22.7991  -20.8956  -16.7665 N   0  0  0  0  0  0  0  0  0  0  0  0
   21.4650  -20.8415  -16.2309 C   0  0  1  0  0  0  0  0  0  0  0  0
   20.4632  -21.5601  -17.1067 C   0  0  0  0  0  0  0  0  0  0  0  0
   20.3785  -20.9614  -18.4526 C   0  0  0  0  0  0  0  0  0  0  0  0
   20.5698  -21.5552  -19.6718 C   0  0  0  0  0  0  0  0  0  0  0  0
   20.3854  -20.6025  -20.5999 N   0  0  0  0  0  0  0  0  0  0  0  0
   20.0829  -19.4255  -19.9901 C   0  0  0  0  0  0  0  0  0  0  0  0
   20.0869  -19.6790  -18.6832 N   0  0  0  0  0  0  0  0  0  0  0  0
   21.4230  -21.3398  -14.8335 C   0  0  0  0  0  0  0  0  0  0  0  0
   22.1940  -22.2457  -14.4253 O   0  0  0  0  0  0  0  0  0  0  0  0
   21.3269  -19.0378   -9.2614 C   0  0  0  0  0  0  0  0  0  0  0  0
   20.9565  -20.1812  -10.1351 C   0  0  0  0  0  0  0  0  0  0  0  0
   20.9058  -19.9335  -11.5931 C   0  0  2  0  0  0  0  0  0  0  0  0
   20.0179  -18.7569  -11.9624 C   0  0  0  0  0  0  0  0  0  0  0  0
   20.5709  -21.0749  -12.4797 C   0  0  2  0  0  0  0  0  0  0  0  0
   20.4821  -20.7953  -13.8785 N   0  0  0  0  0  0  0  0  0  0  0  0
   19.3641  -21.8236  -12.0385 C   0  0  0  0  0  0  0  0  0  0  0  0
   18.2492  -21.5870  -12.5815 O   0  0  0  0  0  0  0  0  0  0  0  0
   16.4003  -26.4910   -5.4375 N   0  0  0  0  0  0  0  0  0  0  0  0
   17.8064  -26.1583   -5.4336 C   0  0  0  0  0  0  0  0  0  0  0  0
   18.5622  -26.6927   -4.5644 N   0  0  0  0  0  0  0  0  0  0  0  0
   18.2376  -25.2450   -6.4170 N   0  0  0  0  0  0  0  0  0  0  0  0
   17.2061  -24.7074   -7.3539 C   0  0  0  0  0  0  0  0  0  0  0  0
   17.5658  -25.1877   -8.7143 C   0  0  0  0  0  0  0  0  0  0  0  0
   18.5241  -24.5045   -9.5652 C   0  0  0  0  0  0  0  0  0  0  0  0
   18.1590  -23.4497  -10.4956 C   0  0  2  0  0  0  0  0  0  0  0  0
   19.3911  -22.8020  -11.0285 N   0  0  0  0  0  0  0  0  0  0  0  0
   17.2759  -22.3755  -10.1045 C   0  0  0  0  0  0  0  0  0  0  0  0
   17.5141  -21.3028   -9.5286 O   0  0  0  0  0  0  0  0  0  0  0  0
   15.8832  -22.5230  -10.4100 O   0  0  0  0  0  0  0  0  0  0  0  0
  2  1  1  6
  3  4  1  0
  3  2  1  0
  4  5  2  0
  6  5  1  0
  7  6  1  0
  8  7  2  0
  8  4  1  0
  9 10  2  0
  9  2  1  0
 11 12  1  0
 12 13  1  0
 13 15  1  0
 13 14  1  1
 15 16  1  6
 16  9  1  0
 17 15  1  0
 18 17  2  0
 19 20  1  0
 20 22  1  0
 21 20  2  0
 22 23  1  0
 23 24  1  0
 24 25  1  0
 26 25  1  1
 26 28  1  0
 26 27  1  0
 27 17  1  0
 28 30  1  0
 29 28  2  0
M  END
$$$$
