HIR.pdb
     RDKit          3D

 30 30  0  0  1  0  0  0  0  0999 V2000
   28.6673  -22.3790  -16.6526 N   0  0  0  0  0  0  0  0  0  0  0  0
   27.9681  -21.2668  -16.0663 C   0  0  1  0  0  0  0  0  0  0  0  0
   27.3024  -20.3925  -17.1054 C   0  0  0  0  0  0  0  0  0  0  0  0
   28.2879  -19.6451  -17.9100 C   0  0  0  0  0  0  0  0  0  0  0  0
   29.6533  -19.6324  -17.8032 C   0  0  0  0  0  0  0  0  0  0  0  0
   30.1084  -18.8006  -18.7540 N   0  0  0  0  0  0  0  0  0  0  0  0
   29.0596  -18.2919  -19.4538 C   0  0  0  0  0  0  0  0  0  0  0  0
   27.9662  -18.8265  -18.9144 N   0  0  0  0  0  0  0  0  0  0  0  0
   27.0014  -21.7190  -15.0349 C   0  0  0  0  0  0  0  0  0  0  0  0
   26.3524  -22.7898  -15.1533 O   0  0  0  0  0  0  0  0  0  0  0  0
   25.7186  -21.1802   -8.9471 C   0  0  0  0  0  0  0  0  0  0  0  0
   25.3499  -21.5327  -10.3427 C   0  0  0  0  0  0  0  0  0  0  0  0
   26.2220  -21.0246  -11.4248 C   0  0  2  0  0  0  0  0  0  0  0  0
   26.4735  -19.5291  -11.3285 C   0  0  0  0  0  0  0  0  0  0  0  0
   25.8546  -21.3530  -12.8241 C   0  0  2  0  0  0  0  0  0  0  0  0
   26.7675  -20.9351  -13.8413 N   0  0  0  0  0  0  0  0  0  0  0  0
   24.4747  -20.9290  -13.1813 C   0  0  0  0  0  0  0  0  0  0  0  0
   24.2694  -19.7534  -13.5932 O   0  0  0  0  0  0  0  0  0  0  0  0
   18.6466  -24.6507  -18.2847 N   0  0  0  0  0  0  0  0  0  0  0  0
   17.9253  -23.4913  -17.8121 C   0  0  0  0  0  0  0  0  0  0  0  0
   16.8613  -23.1428  -18.4110 N   0  0  0  0  0  0  0  0  0  0  0  0
   18.4730  -22.8228  -16.6984 N   0  0  0  0  0  0  0  0  0  0  0  0
   19.8035  -23.2884  -16.2045 C   0  0  0  0  0  0  0  0  0  0  0  0
   20.1857  -22.3915  -15.0820 C   0  0  0  0  0  0  0  0  0  0  0  0
   21.4750  -22.4636  -14.4173 C   0  0  0  0  0  0  0  0  0  0  0  0
   22.0059  -21.3991  -13.5828 C   0  0  2  0  0  0  0  0  0  0  0  0
   23.3583  -21.7791  -13.0848 N   0  0  0  0  0  0  0  0  0  0  0  0
   21.2770  -20.9093  -12.4358 C   0  0  0  0  0  0  0  0  0  0  0  0
   21.4007  -21.1683  -11.2289 O   0  0  0  0  0  0  0  0  0  0  0  0
   20.2265  -19.9643  -12.6770 O   0  0  0  0  0  0  0  0  0  0  0  0
  2  1  1  6
  3  4  1  0
  3  2  1  0
  4  5  2  0
  6  5  1  0
  7  6  1  0
  8  7  2  0
  8  4  1  0
  9 10  2  0
  9  2  1  0
 11 12  1  0
 12 13  1  0
 13 15  1  0
 13 14  1  6
 15 16  1  6
 16  9  1  0
 17 15  1  0
 18 17  2  0
 19 20  1  0
 20 22  1  0
 21 20  2  0
 22 23  1  0
 23 24  1  0
 24 25  1  0
 26 25  1  1
 26 28  1  0
 26 27  1  0
 27 17  1  0
 28 30  1  0
 29 28  2  0
M  END
$$$$
