HIR.pdb
     RDKit          3D

 30 30  0  0  1  0  0  0  0  0999 V2000
   20.7384  -21.3534  -11.2850 N   0  0  0  0  0  0  0  0  0  0  0  0
   21.3393  -21.4622  -12.5876 C   0  0  1  0  0  0  0  0  0  0  0  0
   20.3690  -21.1299  -13.6991 C   0  0  0  0  0  0  0  0  0  0  0  0
   19.3816  -22.2060  -13.9086 C   0  0  0  0  0  0  0  0  0  0  0  0
   19.2625  -23.4035  -13.2547 C   0  0  0  0  0  0  0  0  0  0  0  0
   18.2140  -24.0405  -13.8007 N   0  0  0  0  0  0  0  0  0  0  0  0
   17.6737  -23.2695  -14.7817 C   0  0  0  0  0  0  0  0  0  0  0  0
   18.4081  -22.1599  -14.8213 N   0  0  0  0  0  0  0  0  0  0  0  0
   22.5758  -20.6470  -12.6822 C   0  0  0  0  0  0  0  0  0  0  0  0
   22.6735  -19.5180  -12.1365 O   0  0  0  0  0  0  0  0  0  0  0  0
   27.1762  -22.0580  -10.7697 C   0  0  0  0  0  0  0  0  0  0  0  0
   26.0135  -21.3754  -11.3941 C   0  0  0  0  0  0  0  0  0  0  0  0
   26.1314  -21.0007  -12.8208 C   0  0  2  0  0  0  0  0  0  0  0  0
   27.3469  -20.1345  -13.1061 C   0  0  0  0  0  0  0  0  0  0  0  0
   24.9502  -20.3887  -13.4775 C   0  0  2  0  0  0  0  0  0  0  0  0
   23.7279  -21.1268  -13.4146 N   0  0  0  0  0  0  0  0  0  0  0  0
   25.2129  -19.9688  -14.8797 C   0  0  0  0  0  0  0  0  0  0  0  0
   25.3834  -20.8449  -15.7726 O   0  0  0  0  0  0  0  0  0  0  0  0
   24.5281  -14.4838  -20.6896 N   0  0  0  0  0  0  0  0  0  0  0  0
   23.1670  -14.9645  -20.7553 C   0  0  0  0  0  0  0  0  0  0  0  0
   22.5588  -14.9381  -21.8696 N   0  0  0  0  0  0  0  0  0  0  0  0
   22.6089  -15.4345  -19.5492 N   0  0  0  0  0  0  0  0  0  0  0  0
   23.4390  -15.3087  -18.3138 C   0  0  0  0  0  0  0  0  0  0  0  0
   24.0630  -16.6370  -18.0756 C   0  0  0  0  0  0  0  0  0  0  0  0
   24.9186  -16.9146  -16.9353 C   0  0  0  0  0  0  0  0  0  0  0  0
   25.5313  -18.2093  -16.6907 C   0  0  2  0  0  0  0  0  0  0  0  0
   25.2851  -18.6224  -15.2800 N   0  0  0  0  0  0  0  0  0  0  0  0
   26.9369  -18.4336  -16.9369 C   0  0  0  0  0  0  0  0  0  0  0  0
   27.9370  -18.0724  -16.2978 O   0  0  0  0  0  0  0  0  0  0  0  0
   27.2891  -19.1951  -18.0992 O   0  0  0  0  0  0  0  0  0  0  0  0
  2  1  1  1
  3  4  1  0
  3  2  1  0
  4  5  2  0
  6  5  1  0
  7  6  1  0
  8  7  2  0
  8  4  1  0
  9 10  2  0
  9  2  1  0
 11 12  1  0
 12 13  1  0
 13 15  1  0
 13 14  1  1
 15 16  1  6
 16  9  1  0
 17 15  1  0
 18 17  2  0
 19 20  1  0
 20 22  1  0
 21 20  2  0
 22 23  1  0
 23 24  1  0
 24 25  1  0
 26 25  1  1
 26 28  1  0
 26 27  1  0
 27 17  1  0
 28 30  1  0
 29 28  2  0
M  END
$$$$
