HIR.pdb
     RDKit          3D

 30 30  0  0  1  0  0  0  0  0999 V2000
   23.2803   -8.0806  -17.0072 N   0  0  0  0  0  0  0  0  0  0  0  0
   23.5399   -9.2587  -16.2233 C   0  0  1  0  0  0  0  0  0  0  0  0
   22.2718   -9.8857  -15.6886 C   0  0  0  0  0  0  0  0  0  0  0  0
   21.5631   -8.9873  -14.7573 C   0  0  0  0  0  0  0  0  0  0  0  0
   21.8261   -8.7359  -13.4369 C   0  0  0  0  0  0  0  0  0  0  0  0
   20.9067   -7.8501  -13.0206 N   0  0  0  0  0  0  0  0  0  0  0  0
   20.0738   -7.5409  -14.0499 C   0  0  0  0  0  0  0  0  0  0  0  0
   20.5013   -8.2503  -15.0921 N   0  0  0  0  0  0  0  0  0  0  0  0
   24.3569  -10.2411  -16.9784 C   0  0  0  0  0  0  0  0  0  0  0  0
   24.2223  -10.4077  -18.2177 O   0  0  0  0  0  0  0  0  0  0  0  0
   29.7954  -10.6588  -16.5416 C   0  0  0  0  0  0  0  0  0  0  0  0
   28.3499  -10.6783  -16.8851 C   0  0  0  0  0  0  0  0  0  0  0  0
   27.6251  -11.9552  -16.7011 C   0  0  2  0  0  0  0  0  0  0  0  0
   28.2945  -13.1222  -17.4076 C   0  0  0  0  0  0  0  0  0  0  0  0
   26.1752  -11.9816  -17.0147 C   0  0  2  0  0  0  0  0  0  0  0  0
   25.3497  -11.0530  -16.3082 N   0  0  0  0  0  0  0  0  0  0  0  0
   25.5840  -13.3437  -16.9332 C   0  0  0  0  0  0  0  0  0  0  0  0
   25.1065  -13.7529  -15.8384 O   0  0  0  0  0  0  0  0  0  0  0  0
   19.1360  -15.8792  -15.7882 N   0  0  0  0  0  0  0  0  0  0  0  0
   19.0568  -16.8519  -16.8538 C   0  0  0  0  0  0  0  0  0  0  0  0
   18.3319  -17.8819  -16.6932 N   0  0  0  0  0  0  0  0  0  0  0  0
   19.8087  -16.5746  -18.0134 N   0  0  0  0  0  0  0  0  0  0  0  0
   20.6799  -15.3615  -17.9928 C   0  0  0  0  0  0  0  0  0  0  0  0
   22.0871  -15.8407  -17.9676 C   0  0  0  0  0  0  0  0  0  0  0  0
   23.2278  -14.9417  -17.9753 C   0  0  0  0  0  0  0  0  0  0  0  0
   24.6044  -15.3960  -18.0756 C   0  0  2  0  0  0  0  0  0  0  0  0
   25.5242  -14.2243  -18.0283 N   0  0  0  0  0  0  0  0  0  0  0  0
   25.0475  -16.2119  -19.1822 C   0  0  0  0  0  0  0  0  0  0  0  0
   25.6401  -15.9030  -20.2274 O   0  0  0  0  0  0  0  0  0  0  0  0
   24.7843  -17.6191  -19.1104 O   0  0  0  0  0  0  0  0  0  0  0  0
  2  1  1  6
  3  4  1  0
  3  2  1  0
  4  5  2  0
  6  5  1  0
  7  6  1  0
  8  7  2  0
  8  4  1  0
  9 10  2  0
  9  2  1  0
 11 12  1  0
 12 13  1  0
 13 15  1  0
 13 14  1  6
 15 16  1  1
 16  9  1  0
 17 15  1  0
 18 17  2  0
 19 20  1  0
 20 22  1  0
 21 20  2  0
 22 23  1  0
 23 24  1  0
 24 25  1  0
 26 25  1  6
 26 28  1  0
 26 27  1  0
 27 17  1  0
 28 30  1  0
 29 28  2  0
M  END
$$$$
