HIR.pdb
     RDKit          3D

 30 30  0  0  1  0  0  0  0  0999 V2000
   27.6338  -22.9544  -17.6316 N   0  0  0  0  0  0  0  0  0  0  0  0
   26.2484  -22.7376  -17.9531 C   0  0  1  0  0  0  0  0  0  0  0  0
   25.5587  -24.0030  -18.4116 C   0  0  0  0  0  0  0  0  0  0  0  0
   26.1860  -24.5646  -19.6233 C   0  0  0  0  0  0  0  0  0  0  0  0
   26.8108  -25.7722  -19.7875 C   0  0  0  0  0  0  0  0  0  0  0  0
   27.2177  -25.8271  -21.0659 N   0  0  0  0  0  0  0  0  0  0  0  0
   26.8622  -24.6816  -21.7063 C   0  0  0  0  0  0  0  0  0  0  0  0
   26.2359  -23.9348  -20.7995 N   0  0  0  0  0  0  0  0  0  0  0  0
   25.5248  -22.1011  -16.8244 C   0  0  0  0  0  0  0  0  0  0  0  0
   25.6633  -22.4937  -15.6376 O   0  0  0  0  0  0  0  0  0  0  0  0
   25.7940  -16.8990  -15.9010 C   0  0  0  0  0  0  0  0  0  0  0  0
   25.5847  -18.3700  -15.8876 C   0  0  0  0  0  0  0  0  0  0  0  0
   24.1875  -18.8573  -15.8693 C   0  0  2  0  0  0  0  0  0  0  0  0
   23.3931  -18.3307  -14.6858 C   0  0  0  0  0  0  0  0  0  0  0  0
   23.9610  -20.3195  -15.9776 C   0  0  2  0  0  0  0  0  0  0  0  0
   24.6226  -20.9927  -17.0509 N   0  0  0  0  0  0  0  0  0  0  0  0
   22.5212  -20.6909  -15.9620 C   0  0  0  0  0  0  0  0  0  0  0  0
   21.7835  -20.3732  -16.9361 O   0  0  0  0  0  0  0  0  0  0  0  0
   18.6319  -25.8128  -10.1131 N   0  0  0  0  0  0  0  0  0  0  0  0
   17.5473  -25.0105  -10.6307 C   0  0  0  0  0  0  0  0  0  0  0  0
   16.3876  -25.1498  -10.1329 N   0  0  0  0  0  0  0  0  0  0  0  0
   17.8697  -24.1169  -11.6722 N   0  0  0  0  0  0  0  0  0  0  0  0
   18.8003  -24.6062  -12.7331 C   0  0  0  0  0  0  0  0  0  0  0  0
   18.9888  -23.4862  -13.6925 C   0  0  0  0  0  0  0  0  0  0  0  0
   20.2747  -22.8516  -13.9228 C   0  0  0  0  0  0  0  0  0  0  0  0
   20.4906  -21.8205  -14.9238 C   0  0  2  0  0  0  0  0  0  0  0  0
   21.9176  -21.3909  -14.9018 N   0  0  0  0  0  0  0  0  0  0  0  0
   19.7049  -20.6085  -14.9353 C   0  0  0  0  0  0  0  0  0  0  0  0
   19.8662  -19.5352  -14.3344 O   0  0  0  0  0  0  0  0  0  0  0  0
   18.5344  -20.5897  -15.7627 O   0  0  0  0  0  0  0  0  0  0  0  0
  2  1  1  1
  3  4  1  0
  3  2  1  0
  4  5  2  0
  6  5  1  0
  7  6  1  0
  8  7  2  0
  8  4  1  0
  9 10  2  0
  9  2  1  0
 11 12  1  0
 12 13  1  0
 13 15  1  0
 13 14  1  1
 15 16  1  6
 16  9  1  0
 17 15  1  0
 18 17  2  0
 19 20  1  0
 20 22  1  0
 21 20  2  0
 22 23  1  0
 23 24  1  0
 24 25  1  0
 26 25  1  1
 26 28  1  0
 26 27  1  0
 27 17  1  0
 28 30  1  0
 29 28  2  0
M  END
$$$$
