HIR.pdb
     RDKit          3D

 30 30  0  0  1  0  0  0  0  0999 V2000
   28.4257  -21.0159  -15.7196 N   0  0  0  0  0  0  0  0  0  0  0  0
   27.5708  -20.0411  -15.0963 C   0  0  1  0  0  0  0  0  0  0  0  0
   26.9401  -19.1023  -16.1002 C   0  0  0  0  0  0  0  0  0  0  0  0
   27.9522  -18.3141  -16.8291 C   0  0  0  0  0  0  0  0  0  0  0  0
   28.6301  -17.1965  -16.4204 C   0  0  0  0  0  0  0  0  0  0  0  0
   29.4408  -16.8438  -17.4312 N   0  0  0  0  0  0  0  0  0  0  0  0
   29.2861  -17.7149  -18.4637 C   0  0  0  0  0  0  0  0  0  0  0  0
   28.3729  -18.5973  -18.0642 N   0  0  0  0  0  0  0  0  0  0  0  0
   26.5473  -20.6893  -14.2389 C   0  0  0  0  0  0  0  0  0  0  0  0
   25.8037  -21.6087  -14.6675 O   0  0  0  0  0  0  0  0  0  0  0  0
   27.4765  -20.8922   -8.8020 C   0  0  0  0  0  0  0  0  0  0  0  0
   26.9306  -21.4204  -10.0790 C   0  0  0  0  0  0  0  0  0  0  0  0
   25.6511  -20.8517  -10.5577 C   0  0  2  0  0  0  0  0  0  0  0  0
   24.4432  -21.4182   -9.8303 C   0  0  0  0  0  0  0  0  0  0  0  0
   25.3811  -20.8810  -12.0163 C   0  0  2  0  0  0  0  0  0  0  0  0
   26.3651  -20.2821  -12.8623 N   0  0  0  0  0  0  0  0  0  0  0  0
   24.0317  -20.3670  -12.3716 C   0  0  0  0  0  0  0  0  0  0  0  0
   23.7756  -19.1383  -12.2356 O   0  0  0  0  0  0  0  0  0  0  0  0
   19.7566  -18.5904  -18.5401 N   0  0  0  0  0  0  0  0  0  0  0  0
   20.0774  -19.9952  -18.6480 C   0  0  0  0  0  0  0  0  0  0  0  0
   20.3139  -20.4855  -19.7951 N   0  0  0  0  0  0  0  0  0  0  0  0
   20.1017  -20.7273  -17.4436 N   0  0  0  0  0  0  0  0  0  0  0  0
   19.7296  -20.0022  -16.1919 C   0  0  0  0  0  0  0  0  0  0  0  0
   19.9160  -20.9572  -15.0678 C   0  0  0  0  0  0  0  0  0  0  0  0
   21.2115  -21.2319  -14.4714 C   0  0  0  0  0  0  0  0  0  0  0  0
   21.6459  -20.6664  -13.2053 C   0  0  2  0  0  0  0  0  0  0  0  0
   22.9993  -21.1872  -12.8612 N   0  0  0  0  0  0  0  0  0  0  0  0
   20.8466  -20.7999  -12.0094 C   0  0  0  0  0  0  0  0  0  0  0  0
   20.8438  -21.6783  -11.1333 O   0  0  0  0  0  0  0  0  0  0  0  0
   19.8821  -19.7735  -11.7434 O   0  0  0  0  0  0  0  0  0  0  0  0
  2  1  1  6
  3  4  1  0
  3  2  1  0
  4  5  2  0
  6  5  1  0
  7  6  1  0
  8  7  2  0
  8  4  1  0
  9 10  2  0
  9  2  1  0
 11 12  1  0
 12 13  1  0
 13 15  1  0
 13 14  1  1
 15 16  1  6
 16  9  1  0
 17 15  1  0
 18 17  2  0
 19 20  1  0
 20 22  1  0
 21 20  2  0
 22 23  1  0
 23 24  1  0
 24 25  1  0
 26 25  1  6
 26 28  1  0
 26 27  1  0
 27 17  1  0
 28 30  1  0
 29 28  2  0
M  END
$$$$
