HIR.pdb
     RDKit          3D

 30 30  0  0  1  0  0  0  0  0999 V2000
   16.4035  -14.1140  -17.0637 N   0  0  0  0  0  0  0  0  0  0  0  0
   17.3521  -13.4632  -16.2000 C   0  0  1  0  0  0  0  0  0  0  0  0
   18.5911  -14.2997  -15.9710 C   0  0  0  0  0  0  0  0  0  0  0  0
   18.2740  -15.5900  -15.3294 C   0  0  0  0  0  0  0  0  0  0  0  0
   18.4640  -16.8588  -15.8089 C   0  0  0  0  0  0  0  0  0  0  0  0
   18.0176  -17.7011  -14.8632 N   0  0  0  0  0  0  0  0  0  0  0  0
   17.5522  -16.9892  -13.8025 C   0  0  0  0  0  0  0  0  0  0  0  0
   17.7231  -15.7074  -14.1189 N   0  0  0  0  0  0  0  0  0  0  0  0
   17.6946  -12.1075  -16.6974 C   0  0  0  0  0  0  0  0  0  0  0  0
   17.8579  -11.8679  -17.9213 O   0  0  0  0  0  0  0  0  0  0  0  0
   16.0093   -6.3670  -16.2910 C   0  0  0  0  0  0  0  0  0  0  0  0
   17.1206   -7.3230  -16.5334 C   0  0  0  0  0  0  0  0  0  0  0  0
   16.9524   -8.7030  -16.0261 C   0  0  2  0  0  0  0  0  0  0  0  0
   16.5451   -8.7496  -14.5629 C   0  0  0  0  0  0  0  0  0  0  0  0
   18.0657   -9.6605  -16.2376 C   0  0  2  0  0  0  0  0  0  0  0  0
   17.8553  -10.9987  -15.7816 N   0  0  0  0  0  0  0  0  0  0  0  0
   19.3725   -9.1578  -15.7366 C   0  0  0  0  0  0  0  0  0  0  0  0
   19.7780   -9.5045  -14.5923 O   0  0  0  0  0  0  0  0  0  0  0  0
   27.0162   -8.5267  -19.8366 N   0  0  0  0  0  0  0  0  0  0  0  0
   27.2965   -7.7969  -18.6214 C   0  0  0  0  0  0  0  0  0  0  0  0
   28.4789   -7.3853  -18.4102 N   0  0  0  0  0  0  0  0  0  0  0  0
   26.2102   -7.5960  -17.7457 N   0  0  0  0  0  0  0  0  0  0  0  0
   24.8687   -8.0750  -18.1950 C   0  0  0  0  0  0  0  0  0  0  0  0
   23.9297   -7.8533  -17.0638 C   0  0  0  0  0  0  0  0  0  0  0  0
   22.5098   -8.1470  -17.1470 C   0  0  0  0  0  0  0  0  0  0  0  0
   21.5830   -7.9356  -16.0479 C   0  0  2  0  0  0  0  0  0  0  0  0
   20.2030   -8.2986  -16.4784 N   0  0  0  0  0  0  0  0  0  0  0  0
   21.4762   -6.6533  -15.3914 C   0  0  0  0  0  0  0  0  0  0  0  0
   20.8682   -5.6240  -15.7229 O   0  0  0  0  0  0  0  0  0  0  0  0
   22.1681   -6.4906  -14.1466 O   0  0  0  0  0  0  0  0  0  0  0  0
  2  1  1  6
  3  4  1  0
  3  2  1  0
  4  5  2  0
  6  5  1  0
  7  6  1  0
  8  7  2  0
  8  4  1  0
  9 10  2  0
  9  2  1  0
 11 12  1  0
 12 13  1  0
 13 15  1  0
 13 14  1  1
 15 16  1  1
 16  9  1  0
 17 15  1  0
 18 17  2  0
 19 20  1  0
 20 22  1  0
 21 20  2  0
 22 23  1  0
 23 24  1  0
 24 25  1  0
 26 25  1  6
 26 28  1  0
 26 27  1  0
 27 17  1  0
 28 30  1  0
 29 28  2  0
M  END
$$$$
