HIR.pdb
     RDKit          3D

 30 30  0  0  1  0  0  0  0  0999 V2000
   25.2388  -20.9875  -15.1986 N   0  0  0  0  0  0  0  0  0  0  0  0
   24.2874  -20.2671  -14.3952 C   0  0  1  0  0  0  0  0  0  0  0  0
   23.0081  -19.9702  -15.1451 C   0  0  0  0  0  0  0  0  0  0  0  0
   23.2470  -19.1210  -16.3279 C   0  0  0  0  0  0  0  0  0  0  0  0
   23.5918  -17.7966  -16.3804 C   0  0  0  0  0  0  0  0  0  0  0  0
   23.6944  -17.4742  -17.6798 N   0  0  0  0  0  0  0  0  0  0  0  0
   23.4216  -18.5663  -18.4425 C   0  0  0  0  0  0  0  0  0  0  0  0
   23.1534  -19.5514  -17.5883 N   0  0  0  0  0  0  0  0  0  0  0  0
   24.0183  -20.9697  -13.1160 C   0  0  0  0  0  0  0  0  0  0  0  0
   23.9078  -22.2210  -13.0530 O   0  0  0  0  0  0  0  0  0  0  0  0
   26.6114  -19.5450   -8.5199 C   0  0  0  0  0  0  0  0  0  0  0  0
   25.8819  -20.3412   -9.5406 C   0  0  0  0  0  0  0  0  0  0  0  0
   24.4043  -20.3560   -9.4619 C   0  0  2  0  0  0  0  0  0  0  0  0
   23.8859  -21.0328   -8.2041 C   0  0  0  0  0  0  0  0  0  0  0  0
   23.6526  -20.8841  -10.6269 C   0  0  2  0  0  0  0  0  0  0  0  0
   23.8713  -20.2321  -11.8797 N   0  0  0  0  0  0  0  0  0  0  0  0
   22.1927  -21.0093  -10.3728 C   0  0  0  0  0  0  0  0  0  0  0  0
   21.3976  -20.1630  -10.8683 O   0  0  0  0  0  0  0  0  0  0  0  0
   17.4614  -25.6478   -4.7503 N   0  0  0  0  0  0  0  0  0  0  0  0
   16.4203  -25.3769   -5.7151 C   0  0  0  0  0  0  0  0  0  0  0  0
   15.2082  -25.5382   -5.3733 N   0  0  0  0  0  0  0  0  0  0  0  0
   16.8426  -24.9462   -6.9892 N   0  0  0  0  0  0  0  0  0  0  0  0
   18.3131  -24.9087   -7.2486 C   0  0  0  0  0  0  0  0  0  0  0  0
   18.5888  -23.6505   -7.9912 C   0  0  0  0  0  0  0  0  0  0  0  0
   19.9125  -23.2875   -8.4659 C   0  0  0  0  0  0  0  0  0  0  0  0
   20.1757  -22.1172   -9.2861 C   0  0  2  0  0  0  0  0  0  0  0  0
   21.6316  -22.0379   -9.5947 N   0  0  0  0  0  0  0  0  0  0  0  0
   19.7820  -20.7952   -8.8569 C   0  0  0  0  0  0  0  0  0  0  0  0
   20.3648  -19.9740   -8.1323 O   0  0  0  0  0  0  0  0  0  0  0  0
   18.5171  -20.3023   -9.3171 O   0  0  0  0  0  0  0  0  0  0  0  0
  2  1  1  6
  3  4  1  0
  3  2  1  0
  4  5  2  0
  6  5  1  0
  7  6  1  0
  8  7  2  0
  8  4  1  0
  9 10  2  0
  9  2  1  0
 11 12  1  0
 12 13  1  0
 13 15  1  0
 13 14  1  1
 15 16  1  6
 16  9  1  0
 17 15  1  0
 18 17  2  0
 19 20  1  0
 20 22  1  0
 21 20  2  0
 22 23  1  0
 23 24  1  0
 24 25  1  0
 26 25  1  1
 26 28  1  0
 26 27  1  0
 27 17  1  0
 28 30  1  0
 29 28  2  0
M  END
$$$$
