HIR.pdb
     RDKit          3D

 30 30  0  0  1  0  0  0  0  0999 V2000
   28.8378  -20.6816  -15.3797 N   0  0  0  0  0  0  0  0  0  0  0  0
   28.1731  -19.8866  -14.3819 C   0  0  1  0  0  0  0  0  0  0  0  0
   27.2893  -18.8205  -14.9896 C   0  0  0  0  0  0  0  0  0  0  0  0
   28.0633  -17.8555  -15.7939 C   0  0  0  0  0  0  0  0  0  0  0  0
   28.5965  -18.0113  -17.0457 C   0  0  0  0  0  0  0  0  0  0  0  0
   29.2112  -16.8573  -17.3513 N   0  0  0  0  0  0  0  0  0  0  0  0
   29.0754  -15.9822  -16.3196 C   0  0  0  0  0  0  0  0  0  0  0  0
   28.3715  -16.6215  -15.3879 N   0  0  0  0  0  0  0  0  0  0  0  0
   27.4215  -20.7371  -13.4256 C   0  0  0  0  0  0  0  0  0  0  0  0
   26.9673  -21.8641  -13.7503 O   0  0  0  0  0  0  0  0  0  0  0  0
   26.1657  -19.8354   -7.5447 C   0  0  0  0  0  0  0  0  0  0  0  0
   26.4787  -19.7263   -8.9931 C   0  0  0  0  0  0  0  0  0  0  0  0
   26.6925  -20.9865   -9.7387 C   0  0  2  0  0  0  0  0  0  0  0  0
   28.1035  -21.5302   -9.5887 C   0  0  0  0  0  0  0  0  0  0  0  0
   26.3260  -21.0132  -11.1761 C   0  0  2  0  0  0  0  0  0  0  0  0
   27.1808  -20.2955  -12.0688 N   0  0  0  0  0  0  0  0  0  0  0  0
   24.9089  -20.6375  -11.4253 C   0  0  0  0  0  0  0  0  0  0  0  0
   24.6338  -19.4766  -11.8382 O   0  0  0  0  0  0  0  0  0  0  0  0
   20.2390  -26.3461  -15.8430 N   0  0  0  0  0  0  0  0  0  0  0  0
   19.3688  -25.1930  -15.8723 C   0  0  0  0  0  0  0  0  0  0  0  0
   18.2786  -25.2617  -16.5195 N   0  0  0  0  0  0  0  0  0  0  0  0
   19.8097  -24.0563  -15.1647 N   0  0  0  0  0  0  0  0  0  0  0  0
   21.1142  -24.1595  -14.4444 C   0  0  0  0  0  0  0  0  0  0  0  0
   21.3082  -22.8778  -13.7163 C   0  0  0  0  0  0  0  0  0  0  0  0
   22.4466  -22.6259  -12.8503 C   0  0  0  0  0  0  0  0  0  0  0  0
   22.5678  -21.4463  -12.0104 C   0  0  2  0  0  0  0  0  0  0  0  0
   23.8314  -21.5187  -11.2233 N   0  0  0  0  0  0  0  0  0  0  0  0
   21.5301  -21.0808  -11.0744 C   0  0  0  0  0  0  0  0  0  0  0  0
   21.5010  -21.1425   -9.8356 O   0  0  0  0  0  0  0  0  0  0  0  0
   20.3116  -20.5530  -11.6142 O   0  0  0  0  0  0  0  0  0  0  0  0
  2  1  1  6
  3  4  1  0
  3  2  1  0
  4  5  2  0
  6  5  1  0
  7  6  1  0
  8  7  2  0
  8  4  1  0
  9 10  2  0
  9  2  1  0
 11 12  1  0
 12 13  1  0
 13 15  1  0
 13 14  1  6
 15 16  1  6
 16  9  1  0
 17 15  1  0
 18 17  2  0
 19 20  1  0
 20 22  1  0
 21 20  2  0
 22 23  1  0
 23 24  1  0
 24 25  1  0
 26 25  1  1
 26 28  1  0
 26 27  1  0
 27 17  1  0
 28 30  1  0
 29 28  2  0
M  END
$$$$
