HIR.pdb
     RDKit          3D

 30 30  0  0  1  0  0  0  0  0999 V2000
   26.4965  -20.5217  -20.3552 N   0  0  0  0  0  0  0  0  0  0  0  0
   25.8819  -19.2209  -20.3494 C   0  0  1  0  0  0  0  0  0  0  0  0
   25.0079  -18.9915  -21.5621 C   0  0  0  0  0  0  0  0  0  0  0  0
   25.7948  -18.9562  -22.8098 C   0  0  0  0  0  0  0  0  0  0  0  0
   26.3065  -17.8731  -23.4737 C   0  0  0  0  0  0  0  0  0  0  0  0
   26.9435  -18.3478  -24.5562 N   0  0  0  0  0  0  0  0  0  0  0  0
   26.8426  -19.7034  -24.5857 C   0  0  0  0  0  0  0  0  0  0  0  0
   26.1373  -20.0412  -23.5084 N   0  0  0  0  0  0  0  0  0  0  0  0
   25.1375  -18.9804  -19.0882 C   0  0  0  0  0  0  0  0  0  0  0  0
   24.4095  -19.8627  -18.5651 O   0  0  0  0  0  0  0  0  0  0  0  0
   27.2894  -15.9430  -14.9579 C   0  0  0  0  0  0  0  0  0  0  0  0
   26.5644  -16.9130  -15.8188 C   0  0  0  0  0  0  0  0  0  0  0  0
   25.1750  -16.5762  -16.2008 C   0  0  2  0  0  0  0  0  0  0  0  0
   24.2546  -16.4158  -15.0024 C   0  0  0  0  0  0  0  0  0  0  0  0
   24.5016  -17.4399  -17.2016 C   0  0  2  0  0  0  0  0  0  0  0  0
   25.2228  -17.7070  -18.4063 N   0  0  0  0  0  0  0  0  0  0  0  0
   23.1230  -16.9892  -17.5298 C   0  0  0  0  0  0  0  0  0  0  0  0
   22.9455  -15.8570  -18.0595 O   0  0  0  0  0  0  0  0  0  0  0  0
   15.6964  -20.9838  -20.0581 N   0  0  0  0  0  0  0  0  0  0  0  0
   15.2269  -19.6621  -19.7107 C   0  0  0  0  0  0  0  0  0  0  0  0
   14.0198  -19.3542  -19.9563 N   0  0  0  0  0  0  0  0  0  0  0  0
   16.1681  -18.7989  -19.1139 N   0  0  0  0  0  0  0  0  0  0  0  0
   17.5239  -19.3555  -18.8257 C   0  0  0  0  0  0  0  0  0  0  0  0
   18.3577  -18.2279  -18.3319 C   0  0  0  0  0  0  0  0  0  0  0  0
   19.7541  -18.3808  -17.9628 C   0  0  0  0  0  0  0  0  0  0  0  0
   20.5942  -17.2756  -17.5337 C   0  0  2  0  0  0  0  0  0  0  0  0
   21.9781  -17.7668  -17.2791 N   0  0  0  0  0  0  0  0  0  0  0  0
   20.2398  -16.4608  -16.3947 C   0  0  0  0  0  0  0  0  0  0  0  0
   19.6089  -15.3946  -16.3290 O   0  0  0  0  0  0  0  0  0  0  0  0
   20.6623  -16.9149  -15.1025 O   0  0  0  0  0  0  0  0  0  0  0  0
  2  1  1  1
  3  4  1  0
  3  2  1  0
  4  5  2  0
  6  5  1  0
  7  6  1  0
  8  7  2  0
  8  4  1  0
  9 10  2  0
  9  2  1  0
 11 12  1  0
 12 13  1  0
 13 15  1  0
 13 14  1  1
 15 16  1  6
 16  9  1  0
 17 15  1  0
 18 17  2  0
 19 20  1  0
 20 22  1  0
 21 20  2  0
 22 23  1  0
 23 24  1  0
 24 25  1  0
 26 25  1  1
 26 28  1  0
 26 27  1  0
 27 17  1  0
 28 30  1  0
 29 28  2  0
M  END
$$$$
