QPG.pdb
     RDKit          3D

 21 21  0  0  1  0  0  0  0  0999 V2000
    6.7354  -18.8342   16.5612 N   0  0  0  0  0  0  0  0  0  0  0  0
    7.0352  -18.4633   15.2132 C   0  0  0  0  0  0  0  0  0  0  0  0
    6.7459  -19.3042   14.3256 O   0  0  0  0  0  0  0  0  0  0  0  0
    7.6537  -17.1609   14.8664 C   0  0  0  0  0  0  0  0  0  0  0  0
    7.8081  -16.3631   16.1281 C   0  0  0  0  0  0  0  0  0  0  0  0
    8.7125  -15.1498   15.9162 C   0  0  2  0  0  0  0  0  0  0  0  0
    9.6016  -15.3580   14.8084 N   0  0  0  0  0  0  0  0  0  0  0  0
    9.3582  -14.8941   17.2020 C   0  0  0  0  0  0  0  0  0  0  0  0
   10.6203  -15.1899   17.2213 O   0  0  0  0  0  0  0  0  0  0  0  0
    8.8271  -14.3878   18.3885 N   0  0  0  0  0  0  0  0  0  0  0  0
    7.4191  -14.1571   18.6309 C   0  0  0  0  0  0  0  0  0  0  0  0
    7.4395  -12.8219   19.3398 C   0  0  0  0  0  0  0  0  0  0  0  0
    8.8054  -12.7105   19.9694 C   0  0  0  0  0  0  0  0  0  0  0  0
    9.5140  -14.0165   19.5774 C   0  0  1  0  0  0  0  0  0  0  0  0
    9.2680  -14.9549   20.7208 C   0  0  0  0  0  0  0  0  0  0  0  0
    8.2292  -14.9507   21.4171 O   0  0  0  0  0  0  0  0  0  0  0  0
   10.3140  -15.8891   20.9886 N   0  0  0  0  0  0  0  0  0  0  0  0
   10.4614  -16.4620   22.2973 C   0  0  0  0  0  0  0  0  0  0  0  0
   11.8486  -16.2378   22.7810 C   0  0  0  0  0  0  0  0  0  0  0  0
   12.1231  -15.1178   23.3110 O   0  0  0  0  0  0  0  0  0  0  0  0
   12.8417  -17.1853   22.6800 O   0  0  0  0  0  0  0  0  0  0  0  0
  2  1  1  0
  3  2  2  0
  4  2  1  0
  5  4  1  0
  6  5  1  0
  6  7  1  6
  6  8  1  0
  8  9  2  0
 10  8  1  0
 10 14  1  0
 11 10  1  0
 12 11  1  0
 12 13  1  0
 13 14  1  0
 14 15  1  1
 15 16  2  0
 15 17  1  0
 17 18  1  0
 18 19  1  0
 19 21  1  0
 20 19  2  0
M  END
$$$$
