QPG.pdb
     RDKit          3D

 21 21  0  0  1  0  0  0  0  0999 V2000
    8.8184  -14.3802   25.1223 N   0  0  0  0  0  0  0  0  0  0  0  0
    9.3955  -15.5423   24.5213 C   0  0  0  0  0  0  0  0  0  0  0  0
   10.4367  -15.9914   25.0624 O   0  0  0  0  0  0  0  0  0  0  0  0
    8.8086  -16.1926   23.3249 C   0  0  0  0  0  0  0  0  0  0  0  0
    7.5970  -15.4096   22.9111 C   0  0  0  0  0  0  0  0  0  0  0  0
    6.9906  -15.9571   21.6197 C   0  0  2  0  0  0  0  0  0  0  0  0
    6.6124  -17.3337   21.7722 N   0  0  0  0  0  0  0  0  0  0  0  0
    7.9654  -15.6853   20.5654 C   0  0  0  0  0  0  0  0  0  0  0  0
    8.3162  -16.7374   19.8938 O   0  0  0  0  0  0  0  0  0  0  0  0
    8.5618  -14.4839   20.1821 N   0  0  0  0  0  0  0  0  0  0  0  0
    8.3751  -13.2170   20.8563 C   0  0  0  0  0  0  0  0  0  0  0  0
    8.2306  -12.2629   19.6926 C   0  0  0  0  0  0  0  0  0  0  0  0
    8.9361  -12.9185   18.5320 C   0  0  0  0  0  0  0  0  0  0  0  0
    9.4581  -14.2462   19.1035 C   0  0  1  0  0  0  0  0  0  0  0  0
   10.8596  -13.9565   19.5512 C   0  0  0  0  0  0  0  0  0  0  0  0
   11.1456  -13.2138   20.5159 O   0  0  0  0  0  0  0  0  0  0  0  0
   11.8922  -14.5917   18.7969 N   0  0  0  0  0  0  0  0  0  0  0  0
   13.2736  -14.3189   19.0797 C   0  0  0  0  0  0  0  0  0  0  0  0
   14.1318  -15.1358   18.1827 C   0  0  0  0  0  0  0  0  0  0  0  0
   13.8992  -15.0984   16.9357 O   0  0  0  0  0  0  0  0  0  0  0  0
   15.1609  -15.9258   18.6423 O   0  0  0  0  0  0  0  0  0  0  0  0
  2  1  1  0
  3  2  2  0
  4  2  1  0
  5  4  1  0
  6  5  1  0
  6  7  1  1
  6  8  1  0
  8  9  2  0
 10  8  1  0
 10 14  1  0
 11 10  1  0
 12 11  1  0
 12 13  1  0
 13 14  1  0
 14 15  1  1
 15 16  2  0
 15 17  1  0
 17 18  1  0
 18 19  1  0
 19 21  1  0
 20 19  2  0
M  END
$$$$
