QPG.pdb
     RDKit          3D

 21 21  0  0  1  0  0  0  0  0999 V2000
    6.9834  -15.2490   26.3072 N   0  0  0  0  0  0  0  0  0  0  0  0
    7.8351  -15.9493   25.3969 C   0  0  0  0  0  0  0  0  0  0  0  0
    9.0715  -15.7922   25.5564 O   0  0  0  0  0  0  0  0  0  0  0  0
    7.3029  -16.8170   24.3185 C   0  0  0  0  0  0  0  0  0  0  0  0
    6.4377  -15.9781   23.4241 C   0  0  0  0  0  0  0  0  0  0  0  0
    6.2937  -16.6035   22.0374 C   0  0  2  0  0  0  0  0  0  0  0  0
    6.0342  -18.0123   22.1327 N   0  0  0  0  0  0  0  0  0  0  0  0
    7.4986  -16.2342   21.2973 C   0  0  0  0  0  0  0  0  0  0  0  0
    8.1135  -17.2426   20.7627 O   0  0  0  0  0  0  0  0  0  0  0  0
    8.0729  -14.9807   21.0851 N   0  0  0  0  0  0  0  0  0  0  0  0
    7.6430  -13.7560   21.7252 C   0  0  0  0  0  0  0  0  0  0  0  0
    7.6927  -12.7712   20.5792 C   0  0  0  0  0  0  0  0  0  0  0  0
    8.6898  -13.3324   19.5966 C   0  0  0  0  0  0  0  0  0  0  0  0
    9.1688  -14.6411   20.2442 C   0  0  1  0  0  0  0  0  0  0  0  0
   10.4068  -14.2719   21.0054 C   0  0  0  0  0  0  0  0  0  0  0  0
   10.3994  -13.6815   22.1079 O   0  0  0  0  0  0  0  0  0  0  0  0
   11.6420  -14.6392   20.3905 N   0  0  0  0  0  0  0  0  0  0  0  0
   12.4174  -15.7311   20.9093 C   0  0  0  0  0  0  0  0  0  0  0  0
   13.7163  -15.7997   20.1903 C   0  0  0  0  0  0  0  0  0  0  0  0
   13.8793  -15.0518   19.1781 O   0  0  0  0  0  0  0  0  0  0  0  0
   14.7428  -16.6333   20.5717 O   0  0  0  0  0  0  0  0  0  0  0  0
  2  1  1  0
  3  2  2  0
  4  2  1  0
  5  4  1  0
  6  5  1  0
  6  7  1  1
  6  8  1  0
  8  9  2  0
 10  8  1  0
 10 14  1  0
 11 10  1  0
 12 11  1  0
 12 13  1  0
 13 14  1  0
 14 15  1  1
 15 16  2  0
 15 17  1  0
 17 18  1  0
 18 19  1  0
 19 21  1  0
 20 19  2  0
M  END
$$$$
