QPG.pdb
     RDKit          3D

 21 21  0  0  1  0  0  0  0  0999 V2000
    6.8521  -19.4930   16.7797 N   0  0  0  0  0  0  0  0  0  0  0  0
    6.8117  -19.5127   18.2088 C   0  0  0  0  0  0  0  0  0  0  0  0
    6.5140  -20.6100   18.7435 O   0  0  0  0  0  0  0  0  0  0  0  0
    7.1028  -18.3117   19.0285 C   0  0  0  0  0  0  0  0  0  0  0  0
    6.6663  -17.0999   18.2582 C   0  0  0  0  0  0  0  0  0  0  0  0
    7.8560  -16.3823   17.6221 C   0  0  2  0  0  0  0  0  0  0  0  0
    8.5561  -17.2496   16.7172 N   0  0  0  0  0  0  0  0  0  0  0  0
    8.6508  -15.8530   18.7283 C   0  0  0  0  0  0  0  0  0  0  0  0
    9.8851  -16.2497   18.7220 O   0  0  0  0  0  0  0  0  0  0  0  0
    8.2844  -14.9999   19.7694 N   0  0  0  0  0  0  0  0  0  0  0  0
    6.9369  -14.5365   20.0222 C   0  0  0  0  0  0  0  0  0  0  0  0
    7.1655  -13.0797   20.3556 C   0  0  0  0  0  0  0  0  0  0  0  0
    8.5853  -12.9895   20.8563 C   0  0  0  0  0  0  0  0  0  0  0  0
    9.1094  -14.4322   20.7795 C   0  0  1  0  0  0  0  0  0  0  0  0
    8.8630  -15.0120   22.1402 C   0  0  0  0  0  0  0  0  0  0  0  0
    7.7609  -15.4675   22.5167 O   0  0  0  0  0  0  0  0  0  0  0  0
    9.9874  -15.0206   23.0202 N   0  0  0  0  0  0  0  0  0  0  0  0
   10.2754  -16.1764   23.8227 C   0  0  0  0  0  0  0  0  0  0  0  0
   11.6830  -16.5962   23.5965 C   0  0  0  0  0  0  0  0  0  0  0  0
   11.9000  -17.7974   23.2492 O   0  0  0  0  0  0  0  0  0  0  0  0
   12.7539  -15.7449   23.7464 O   0  0  0  0  0  0  0  0  0  0  0  0
  2  1  1  0
  3  2  2  0
  4  2  1  0
  5  4  1  0
  6  5  1  0
  6  7  1  1
  6  8  1  0
  8  9  2  0
 10  8  1  0
 10 14  1  0
 11 10  1  0
 12 11  1  0
 12 13  1  0
 13 14  1  0
 14 15  1  1
 15 16  2  0
 15 17  1  0
 17 18  1  0
 18 19  1  0
 19 21  1  0
 20 19  2  0
M  END
$$$$
