QPG.pdb
     RDKit          3D

 21 21  0  0  1  0  0  0  0  0999 V2000
    6.3016  -19.2334   23.0827 N   0  0  0  0  0  0  0  0  0  0  0  0
    7.1786  -18.1635   22.7213 C   0  0  0  0  0  0  0  0  0  0  0  0
    8.4095  -18.3881   22.8359 O   0  0  0  0  0  0  0  0  0  0  0  0
    6.6774  -16.8548   22.2362 C   0  0  0  0  0  0  0  0  0  0  0  0
    6.7435  -15.8759   23.3718 C   0  0  0  0  0  0  0  0  0  0  0  0
    7.4606  -14.5903   22.9618 C   0  0  2  0  0  0  0  0  0  0  0  0
    8.2787  -14.8051   21.8017 N   0  0  0  0  0  0  0  0  0  0  0  0
    8.1670  -14.1212   24.1520 C   0  0  0  0  0  0  0  0  0  0  0  0
    9.4567  -14.2240   24.0690 O   0  0  0  0  0  0  0  0  0  0  0  0
    7.6677  -13.5887   25.3408 N   0  0  0  0  0  0  0  0  0  0  0  0
    6.2661  -13.3586   25.6184 C   0  0  0  0  0  0  0  0  0  0  0  0
    6.3000  -12.0066   26.2941 C   0  0  0  0  0  0  0  0  0  0  0  0
    7.6829  -11.8737   26.8809 C   0  0  0  0  0  0  0  0  0  0  0  0
    8.3868  -13.1857   26.5000 C   0  0  1  0  0  0  0  0  0  0  0  0
    8.1788  -14.0971   27.6724 C   0  0  0  0  0  0  0  0  0  0  0  0
    7.1671  -14.8156   27.8282 O   0  0  0  0  0  0  0  0  0  0  0  0
    9.2289  -14.1077   28.6398 N   0  0  0  0  0  0  0  0  0  0  0  0
   10.5978  -14.2443   28.2273 C   0  0  0  0  0  0  0  0  0  0  0  0
   10.9264  -15.6858   28.0762 C   0  0  0  0  0  0  0  0  0  0  0  0
   10.6220  -16.2570   26.9846 O   0  0  0  0  0  0  0  0  0  0  0  0
   11.5421  -16.4232   29.0618 O   0  0  0  0  0  0  0  0  0  0  0  0
  2  1  1  0
  3  2  2  0
  4  2  1  0
  5  4  1  0
  6  5  1  0
  6  7  1  6
  6  8  1  0
  8  9  2  0
 10  8  1  0
 10 14  1  0
 11 10  1  0
 12 11  1  0
 12 13  1  0
 13 14  1  0
 14 15  1  1
 15 16  2  0
 15 17  1  0
 17 18  1  0
 18 19  1  0
 19 21  1  0
 20 19  2  0
M  END
$$$$
