QPG.pdb
     RDKit          3D

 21 21  0  0  1  0  0  0  0  0999 V2000
    8.4083  -19.8627   17.7333 N   0  0  0  0  0  0  0  0  0  0  0  0
    7.6561  -19.0070   16.8694 C   0  0  0  0  0  0  0  0  0  0  0  0
    6.4255  -19.2449   16.7817 O   0  0  0  0  0  0  0  0  0  0  0  0
    8.2804  -17.8954   16.1120 C   0  0  0  0  0  0  0  0  0  0  0  0
    7.6050  -16.6164   16.5121 C   0  0  0  0  0  0  0  0  0  0  0  0
    8.2439  -15.4082   15.8285 C   0  0  2  0  0  0  0  0  0  0  0  0
    8.7703  -15.7643   14.5411 N   0  0  0  0  0  0  0  0  0  0  0  0
    9.2149  -14.8696   16.7785 C   0  0  0  0  0  0  0  0  0  0  0  0
   10.4451  -14.9681   16.3812 O   0  0  0  0  0  0  0  0  0  0  0  0
    9.0170  -14.2760   18.0253 N   0  0  0  0  0  0  0  0  0  0  0  0
    7.7518  -14.2291   18.7263 C   0  0  0  0  0  0  0  0  0  0  0  0
    7.7431  -12.8145   19.2595 C   0  0  0  0  0  0  0  0  0  0  0  0
    9.1903  -12.4011   19.3549 C   0  0  0  0  0  0  0  0  0  0  0  0
    9.9711  -13.6277   18.8576 C   0  0  1  0  0  0  0  0  0  0  0  0
   10.3053  -14.4078   20.0938 C   0  0  0  0  0  0  0  0  0  0  0  0
    9.6043  -15.3415   20.5419 O   0  0  0  0  0  0  0  0  0  0  0  0
   11.5066  -14.0210   20.7617 N   0  0  0  0  0  0  0  0  0  0  0  0
   12.7758  -14.1283   20.0981 C   0  0  0  0  0  0  0  0  0  0  0  0
   13.4797  -15.3479   20.5733 C   0  0  0  0  0  0  0  0  0  0  0  0
   12.8919  -16.0844   21.4232 O   0  0  0  0  0  0  0  0  0  0  0  0
   14.7328  -15.7107   20.1347 O   0  0  0  0  0  0  0  0  0  0  0  0
  2  1  1  0
  3  2  2  0
  4  2  1  0
  5  4  1  0
  6  5  1  0
  6  7  1  6
  6  8  1  0
  8  9  2  0
 10  8  1  0
 10 14  1  0
 11 10  1  0
 12 11  1  0
 12 13  1  0
 13 14  1  0
 14 15  1  1
 15 16  2  0
 15 17  1  0
 17 18  1  0
 18 19  1  0
 19 21  1  0
 20 19  2  0
M  END
$$$$
