QPG.pdb
     RDKit          3D

 21 21  0  0  1  0  0  0  0  0999 V2000
   10.7533  -17.1198   24.8949 N   0  0  0  0  0  0  0  0  0  0  0  0
   10.7787  -16.1764   23.8207 C   0  0  0  0  0  0  0  0  0  0  0  0
   11.9044  -15.9332   23.3183 O   0  0  0  0  0  0  0  0  0  0  0  0
    9.5520  -15.5132   23.3165 C   0  0  0  0  0  0  0  0  0  0  0  0
    8.3854  -16.0096   24.1197 C   0  0  0  0  0  0  0  0  0  0  0  0
    7.0662  -15.4361   23.6043 C   0  0  2  0  0  0  0  0  0  0  0  0
    5.9494  -16.0035   24.3058 N   0  0  0  0  0  0  0  0  0  0  0  0
    7.0708  -15.6417   22.1574 C   0  0  0  0  0  0  0  0  0  0  0  0
    6.4347  -16.7059   21.7784 O   0  0  0  0  0  0  0  0  0  0  0  0
    7.6472  -14.8760   21.1437 N   0  0  0  0  0  0  0  0  0  0  0  0
    8.4411  -13.6851   21.3578 C   0  0  0  0  0  0  0  0  0  0  0  0
    7.9261  -12.7677   20.2722 C   0  0  0  0  0  0  0  0  0  0  0  0
    7.3719  -13.6702   19.1985 C   0  0  0  0  0  0  0  0  0  0  0  0
    7.6010  -15.0907   19.7383 C   0  0  1  0  0  0  0  0  0  0  0  0
    8.9164  -15.5220   19.1618 C   0  0  0  0  0  0  0  0  0  0  0  0
   10.0141  -15.0021   19.4597 O   0  0  0  0  0  0  0  0  0  0  0  0
    8.8560  -16.5945   18.2212 N   0  0  0  0  0  0  0  0  0  0  0  0
    9.8678  -17.6138   18.2130 C   0  0  0  0  0  0  0  0  0  0  0  0
   10.9025  -17.2742   17.2017 C   0  0  0  0  0  0  0  0  0  0  0  0
   10.6195  -17.4449   15.9765 O   0  0  0  0  0  0  0  0  0  0  0  0
   12.1458  -16.7862   17.5339 O   0  0  0  0  0  0  0  0  0  0  0  0
  2  1  1  0
  3  2  2  0
  4  2  1  0
  5  4  1  0
  6  5  1  0
  6  7  1  1
  6  8  1  0
  8  9  2  0
 10  8  1  0
 10 14  1  0
 11 10  1  0
 12 11  1  0
 12 13  1  0
 13 14  1  0
 14 15  1  6
 15 16  2  0
 15 17  1  0
 17 18  1  0
 18 19  1  0
 19 21  1  0
 20 19  2  0
M  END
$$$$
