QPG.pdb
     RDKit          3D

 21 21  0  0  1  0  0  0  0  0999 V2000
    6.0455  -13.5107   20.0619 N   0  0  0  0  0  0  0  0  0  0  0  0
    6.8716  -14.6763   20.1204 C   0  0  0  0  0  0  0  0  0  0  0  0
    6.4883  -15.6662   19.4483 O   0  0  0  0  0  0  0  0  0  0  0  0
    8.1156  -14.7287   20.9259 C   0  0  0  0  0  0  0  0  0  0  0  0
    8.2739  -13.4142   21.6324 C   0  0  0  0  0  0  0  0  0  0  0  0
    9.4790  -13.4250   22.5719 C   0  0  2  0  0  0  0  0  0  0  0  0
   10.6631  -13.8574   21.8848 N   0  0  0  0  0  0  0  0  0  0  0  0
    9.0891  -14.2345   23.7244 C   0  0  0  0  0  0  0  0  0  0  0  0
    9.9190  -15.1931   23.9949 O   0  0  0  0  0  0  0  0  0  0  0  0
    7.9774  -14.1293   24.5606 N   0  0  0  0  0  0  0  0  0  0  0  0
    6.8010  -13.3364   24.2749 C   0  0  0  0  0  0  0  0  0  0  0  0
    6.5167  -12.7048   25.6187 C   0  0  0  0  0  0  0  0  0  0  0  0
    7.1311  -13.6241   26.6443 C   0  0  0  0  0  0  0  0  0  0  0  0
    7.7521  -14.7596   25.8157 C   0  0  1  0  0  0  0  0  0  0  0  0
    6.7000  -15.8267   25.7618 C   0  0  0  0  0  0  0  0  0  0  0  0
    5.7932  -15.8712   24.9017 O   0  0  0  0  0  0  0  0  0  0  0  0
    6.7839  -16.8280   26.7762 N   0  0  0  0  0  0  0  0  0  0  0  0
    6.8957  -18.2155   26.4224 C   0  0  0  0  0  0  0  0  0  0  0  0
    8.1303  -18.7810   27.0262 C   0  0  0  0  0  0  0  0  0  0  0  0
    8.8672  -18.0094   27.7133 O   0  0  0  0  0  0  0  0  0  0  0  0
    8.5066  -20.0961   26.8737 O   0  0  0  0  0  0  0  0  0  0  0  0
  2  1  1  0
  3  2  2  0
  4  2  1  0
  5  4  1  0
  6  5  1  0
  6  7  1  6
  6  8  1  0
  8  9  2  0
 10  8  1  0
 10 14  1  0
 11 10  1  0
 12 11  1  0
 12 13  1  0
 13 14  1  0
 14 15  1  6
 15 16  2  0
 15 17  1  0
 17 18  1  0
 18 19  1  0
 19 21  1  0
 20 19  2  0
M  END
$$$$
