QPG.pdb
     RDKit          3D

 21 21  0  0  1  0  0  0  0  0999 V2000
    7.9099  -13.2424   27.3859 N   0  0  0  0  0  0  0  0  0  0  0  0
    8.5654  -14.4263   27.8476 C   0  0  0  0  0  0  0  0  0  0  0  0
    9.4605  -14.2663   28.7147 O   0  0  0  0  0  0  0  0  0  0  0  0
    8.2186  -15.7758   27.3401 C   0  0  0  0  0  0  0  0  0  0  0  0
    7.1652  -15.6237   26.2820 C   0  0  0  0  0  0  0  0  0  0  0  0
    6.8096  -16.9681   25.6487 C   0  0  2  0  0  0  0  0  0  0  0  0
    7.1262  -18.0535   26.5336 N   0  0  0  0  0  0  0  0  0  0  0  0
    7.4817  -16.9972   24.3514 C   0  0  0  0  0  0  0  0  0  0  0  0
    7.7919  -18.1903   23.9499 O   0  0  0  0  0  0  0  0  0  0  0  0
    7.8312  -15.9508   23.4976 N   0  0  0  0  0  0  0  0  0  0  0  0
    7.5471  -14.5533   23.7445 C   0  0  0  0  0  0  0  0  0  0  0  0
    7.1031  -14.0795   22.3793 C   0  0  0  0  0  0  0  0  0  0  0  0
    7.7365  -15.0244   21.3891 C   0  0  0  0  0  0  0  0  0  0  0  0
    8.5267  -16.0151   22.2585 C   0  0  1  0  0  0  0  0  0  0  0  0
    9.9154  -15.4539   22.3292 C   0  0  0  0  0  0  0  0  0  0  0  0
   10.1749  -14.2651   22.6182 O   0  0  0  0  0  0  0  0  0  0  0  0
   10.9683  -16.3740   22.0405 N   0  0  0  0  0  0  0  0  0  0  0  0
   12.3414  -15.9681   22.1531 C   0  0  0  0  0  0  0  0  0  0  0  0
   13.2244  -17.1171   21.8233 C   0  0  0  0  0  0  0  0  0  0  0  0
   14.4800  -16.9423   21.8827 O   0  0  0  0  0  0  0  0  0  0  0  0
   12.7431  -18.3540   21.4589 O   0  0  0  0  0  0  0  0  0  0  0  0
  2  1  1  0
  3  2  2  0
  4  2  1  0
  5  4  1  0
  6  5  1  0
  6  7  1  1
  6  8  1  0
  8  9  2  0
 10  8  1  0
 10 14  1  0
 11 10  1  0
 12 11  1  0
 12 13  1  0
 13 14  1  0
 14 15  1  1
 15 16  2  0
 15 17  1  0
 17 18  1  0
 18 19  1  0
 19 21  1  0
 20 19  2  0
M  END
$$$$
