QPG.pdb
     RDKit          3D

 21 21  0  0  1  0  0  0  0  0999 V2000
    7.9967  -14.5592   25.4855 N   0  0  0  0  0  0  0  0  0  0  0  0
    8.9758  -15.3443   24.8003 C   0  0  0  0  0  0  0  0  0  0  0  0
   10.0796  -15.4917   25.3822 O   0  0  0  0  0  0  0  0  0  0  0  0
    8.7172  -15.9574   23.4751 C   0  0  0  0  0  0  0  0  0  0  0  0
    7.3393  -15.5587   23.0337 C   0  0  0  0  0  0  0  0  0  0  0  0
    7.0347  -16.0644   21.6243 C   0  0  2  0  0  0  0  0  0  0  0  0
    6.6937  -17.4590   21.6405 N   0  0  0  0  0  0  0  0  0  0  0  0
    8.1918  -15.7089   20.8055 C   0  0  0  0  0  0  0  0  0  0  0  0
    8.8703  -16.7314   20.3872 O   0  0  0  0  0  0  0  0  0  0  0  0
    8.6642  -14.4558   20.4147 N   0  0  0  0  0  0  0  0  0  0  0  0
    8.2245  -13.1959   20.9748 C   0  0  0  0  0  0  0  0  0  0  0  0
    8.1006  -12.3322   19.7402 C   0  0  0  0  0  0  0  0  0  0  0  0
    9.0289  -12.9387   18.7181 C   0  0  0  0  0  0  0  0  0  0  0  0
    9.6491  -14.1479   19.4357 C   0  0  1  0  0  0  0  0  0  0  0  0
   10.9308  -13.6395   20.0250 C   0  0  0  0  0  0  0  0  0  0  0  0
   11.0899  -13.3871   21.2394 O   0  0  0  0  0  0  0  0  0  0  0  0
   12.0023  -13.4494   19.1007 N   0  0  0  0  0  0  0  0  0  0  0  0
   12.7688  -14.5706   18.6338 C   0  0  0  0  0  0  0  0  0  0  0  0
   13.7311  -14.9843   19.6881 C   0  0  0  0  0  0  0  0  0  0  0  0
   14.9452  -14.6387   19.5581 O   0  0  0  0  0  0  0  0  0  0  0  0
   13.3652  -15.7208   20.7917 O   0  0  0  0  0  0  0  0  0  0  0  0
  2  1  1  0
  3  2  2  0
  4  2  1  0
  5  4  1  0
  6  5  1  0
  6  7  1  1
  6  8  1  0
  8  9  2  0
 10  8  1  0
 10 14  1  0
 11 10  1  0
 12 11  1  0
 12 13  1  0
 13 14  1  0
 14 15  1  1
 15 16  2  0
 15 17  1  0
 17 18  1  0
 18 19  1  0
 19 21  1  0
 20 19  2  0
M  END
$$$$
