QPG.pdb
     RDKit          3D

 21 21  0  0  1  0  0  0  0  0999 V2000
    6.6718  -17.0094   26.2897 N   0  0  0  0  0  0  0  0  0  0  0  0
    7.2189  -18.2515   25.8398 C   0  0  0  0  0  0  0  0  0  0  0  0
    8.0006  -18.8360   26.6309 O   0  0  0  0  0  0  0  0  0  0  0  0
    6.8909  -18.8305   24.5146 C   0  0  0  0  0  0  0  0  0  0  0  0
    6.0150  -17.8578   23.7804 C   0  0  0  0  0  0  0  0  0  0  0  0
    6.0903  -18.0672   22.2686 C   0  0  2  0  0  0  0  0  0  0  0  0
    5.8859  -19.4472   21.9295 N   0  0  0  0  0  0  0  0  0  0  0  0
    7.3662  -17.4965   21.8419 C   0  0  0  0  0  0  0  0  0  0  0  0
    8.1623  -18.3545   21.2842 O   0  0  0  0  0  0  0  0  0  0  0  0
    7.8441  -16.1899   21.9437 N   0  0  0  0  0  0  0  0  0  0  0  0
    7.1475  -15.1043   22.6000 C   0  0  0  0  0  0  0  0  0  0  0  0
    7.3764  -13.9605   21.6384 C   0  0  0  0  0  0  0  0  0  0  0  0
    8.6362  -14.3028   20.8832 C   0  0  0  0  0  0  0  0  0  0  0  0
    9.0724  -15.6576   21.4628 C   0  0  1  0  0  0  0  0  0  0  0  0
   10.0412  -15.3224   22.5572 C   0  0  0  0  0  0  0  0  0  0  0  0
    9.7248  -15.2170   23.7625 O   0  0  0  0  0  0  0  0  0  0  0  0
   11.3932  -15.1215   22.1445 N   0  0  0  0  0  0  0  0  0  0  0  0
   12.2255  -16.2419   21.8059 C   0  0  0  0  0  0  0  0  0  0  0  0
   12.9277  -16.7214   23.0248 C   0  0  0  0  0  0  0  0  0  0  0  0
   13.9485  -16.0785   23.4184 O   0  0  0  0  0  0  0  0  0  0  0  0
   12.5218  -17.8248   23.7404 O   0  0  0  0  0  0  0  0  0  0  0  0
  2  1  1  0
  3  2  2  0
  4  2  1  0
  5  4  1  0
  6  5  1  0
  6  7  1  1
  6  8  1  0
  8  9  2  0
 10  8  1  0
 10 14  1  0
 11 10  1  0
 12 11  1  0
 12 13  1  0
 13 14  1  0
 14 15  1  1
 15 16  2  0
 15 17  1  0
 17 18  1  0
 18 19  1  0
 19 21  1  0
 20 19  2  0
M  END
$$$$
