QPG.pdb
     RDKit          3D

 21 21  0  0  1  0  0  0  0  0999 V2000
   11.7402  -15.8564   28.9438 N   0  0  0  0  0  0  0  0  0  0  0  0
   10.5368  -15.5831   29.6659 C   0  0  0  0  0  0  0  0  0  0  0  0
   10.6044  -14.6870   30.5441 O   0  0  0  0  0  0  0  0  0  0  0  0
    9.2706  -16.3091   29.4038 C   0  0  0  0  0  0  0  0  0  0  0  0
    8.8758  -16.0652   27.9766 C   0  0  0  0  0  0  0  0  0  0  0  0
    7.5776  -16.7897   27.6232 C   0  0  2  0  0  0  0  0  0  0  0  0
    7.7248  -18.2103   27.7700 N   0  0  0  0  0  0  0  0  0  0  0  0
    7.2061  -16.3303   26.2866 C   0  0  0  0  0  0  0  0  0  0  0  0
    6.7281  -17.2654   25.5263 O   0  0  0  0  0  0  0  0  0  0  0  0
    7.2878  -15.0583   25.7195 N   0  0  0  0  0  0  0  0  0  0  0  0
    7.6517  -13.8556   26.4375 C   0  0  0  0  0  0  0  0  0  0  0  0
    6.6627  -12.8531   25.8877 C   0  0  0  0  0  0  0  0  0  0  0  0
    6.2621  -13.3717   24.5294 C   0  0  0  0  0  0  0  0  0  0  0  0
    7.0587  -14.6760   24.3687 C   0  0  1  0  0  0  0  0  0  0  0  0
    8.3115  -14.2838   23.6439 C   0  0  0  0  0  0  0  0  0  0  0  0
    9.2678  -13.6801   24.1777 O   0  0  0  0  0  0  0  0  0  0  0  0
    8.3646  -14.6448   22.2635 N   0  0  0  0  0  0  0  0  0  0  0  0
    9.5970  -14.5483   21.5324 C   0  0  0  0  0  0  0  0  0  0  0  0
   10.3902  -15.7885   21.7360 C   0  0  0  0  0  0  0  0  0  0  0  0
   11.2629  -15.7953   22.6573 O   0  0  0  0  0  0  0  0  0  0  0  0
   10.2206  -16.9222   20.9743 O   0  0  0  0  0  0  0  0  0  0  0  0
  2  1  1  0
  3  2  2  0
  4  2  1  0
  5  4  1  0
  6  5  1  0
  6  7  1  6
  6  8  1  0
  8  9  2  0
 10  8  1  0
 10 14  1  0
 11 10  1  0
 12 11  1  0
 12 13  1  0
 13 14  1  0
 14 15  1  1
 15 16  2  0
 15 17  1  0
 17 18  1  0
 18 19  1  0
 19 21  1  0
 20 19  2  0
M  END
$$$$
