QPG.pdb
     RDKit          3D

 21 21  0  0  1  0  0  0  0  0999 V2000
    3.4586  -17.7407   21.4157 N   0  0  0  0  0  0  0  0  0  0  0  0
    4.6454  -18.5368   21.3680 C   0  0  0  0  0  0  0  0  0  0  0  0
    4.7326  -19.4597   22.2162 O   0  0  0  0  0  0  0  0  0  0  0  0
    5.7229  -18.2982   20.3775 C   0  0  0  0  0  0  0  0  0  0  0  0
    5.3632  -17.0817   19.5757 C   0  0  0  0  0  0  0  0  0  0  0  0
    6.4229  -16.7746   18.5185 C   0  0  2  0  0  0  0  0  0  0  0  0
    6.6579  -17.9153   17.6789 N   0  0  0  0  0  0  0  0  0  0  0  0
    7.5894  -16.2763   19.2443 C   0  0  0  0  0  0  0  0  0  0  0  0
    8.6699  -16.9600   19.0299 O   0  0  0  0  0  0  0  0  0  0  0  0
    7.7093  -15.1941   20.1164 N   0  0  0  0  0  0  0  0  0  0  0  0
    6.5989  -14.4246   20.6354 C   0  0  0  0  0  0  0  0  0  0  0  0
    7.1257  -13.0111   20.5359 C   0  0  0  0  0  0  0  0  0  0  0  0
    8.6290  -13.1286   20.5644 C   0  0  0  0  0  0  0  0  0  0  0  0
    8.8917  -14.6384   20.6787 C   0  0  1  0  0  0  0  0  0  0  0  0
    9.0290  -14.9025   22.1484 C   0  0  0  0  0  0  0  0  0  0  0  0
    8.0932  -14.7862   22.9697 O   0  0  0  0  0  0  0  0  0  0  0  0
   10.3268  -15.3084   22.5839 N   0  0  0  0  0  0  0  0  0  0  0  0
   10.5304  -15.7803   23.9250 C   0  0  0  0  0  0  0  0  0  0  0  0
   11.9716  -16.0800   24.1295 C   0  0  0  0  0  0  0  0  0  0  0  0
   12.5578  -16.8100   23.2727 O   0  0  0  0  0  0  0  0  0  0  0  0
   12.6933  -15.6035   25.2002 O   0  0  0  0  0  0  0  0  0  0  0  0
  2  1  1  0
  3  2  2  0
  4  2  1  0
  5  4  1  0
  6  5  1  0
  6  7  1  1
  6  8  1  0
  8  9  2  0
 10  8  1  0
 10 14  1  0
 11 10  1  0
 12 11  1  0
 12 13  1  0
 13 14  1  0
 14 15  1  1
 15 16  2  0
 15 17  1  0
 17 18  1  0
 18 19  1  0
 19 21  1  0
 20 19  2  0
M  END
$$$$
