QPG.pdb
     RDKit          3D

 21 21  0  0  1  0  0  0  0  0999 V2000
    7.2335  -17.9746   18.0283 N   0  0  0  0  0  0  0  0  0  0  0  0
    8.2321  -18.3849   17.0909 C   0  0  0  0  0  0  0  0  0  0  0  0
    8.7730  -19.4988   17.3037 O   0  0  0  0  0  0  0  0  0  0  0  0
    8.6187  -17.5521   15.9264 C   0  0  0  0  0  0  0  0  0  0  0  0
    7.8019  -16.2935   15.9568 C   0  0  0  0  0  0  0  0  0  0  0  0
    8.6508  -15.0669   15.6255 C   0  0  2  0  0  0  0  0  0  0  0  0
    9.4212  -15.2812   14.4331 N   0  0  0  0  0  0  0  0  0  0  0  0
    9.4241  -14.7700   16.8295 C   0  0  0  0  0  0  0  0  0  0  0  0
   10.6877  -15.0381   16.7188 O   0  0  0  0  0  0  0  0  0  0  0  0
    9.0109  -14.2501   18.0563 N   0  0  0  0  0  0  0  0  0  0  0  0
    7.6318  -14.1139   18.4735 C   0  0  0  0  0  0  0  0  0  0  0  0
    7.6363  -12.7494   19.1244 C   0  0  0  0  0  0  0  0  0  0  0  0
    9.0584  -12.5073   19.5642 C   0  0  0  0  0  0  0  0  0  0  0  0
    9.8130  -13.7737   19.1301 C   0  0  1  0  0  0  0  0  0  0  0  0
    9.7916  -14.6735   20.3294 C   0  0  0  0  0  0  0  0  0  0  0  0
    8.7509  -15.1745   20.8088 O   0  0  0  0  0  0  0  0  0  0  0  0
   11.0626  -14.9427   20.9218 N   0  0  0  0  0  0  0  0  0  0  0  0
   12.2740  -14.5580   20.2529 C   0  0  0  0  0  0  0  0  0  0  0  0
   13.4433  -14.9910   21.0615 C   0  0  0  0  0  0  0  0  0  0  0  0
   14.6041  -14.7175   20.6278 O   0  0  0  0  0  0  0  0  0  0  0  0
   13.3228  -15.6711   22.2520 O   0  0  0  0  0  0  0  0  0  0  0  0
  2  1  1  0
  3  2  2  0
  4  2  1  0
  5  4  1  0
  6  5  1  0
  6  7  1  6
  6  8  1  0
  8  9  2  0
 10  8  1  0
 10 14  1  0
 11 10  1  0
 12 11  1  0
 12 13  1  0
 13 14  1  0
 14 15  1  1
 15 16  2  0
 15 17  1  0
 17 18  1  0
 18 19  1  0
 19 21  1  0
 20 19  2  0
M  END
$$$$
