QPG.pdb
     RDKit          3D

 21 21  0  0  1  0  0  0  0  0999 V2000
    3.4437  -17.6825   21.3882 N   0  0  0  0  0  0  0  0  0  0  0  0
    4.6782  -18.3811   21.5685 C   0  0  0  0  0  0  0  0  0  0  0  0
    4.7405  -19.1588   22.5534 O   0  0  0  0  0  0  0  0  0  0  0  0
    5.8306  -18.2073   20.6516 C   0  0  0  0  0  0  0  0  0  0  0  0
    5.4805  -17.1431   19.6531 C   0  0  0  0  0  0  0  0  0  0  0  0
    6.6424  -16.8652   18.7003 C   0  0  2  0  0  0  0  0  0  0  0  0
    7.0079  -18.0494   17.9755 N   0  0  0  0  0  0  0  0  0  0  0  0
    7.7024  -16.2726   19.5133 C   0  0  0  0  0  0  0  0  0  0  0  0
    8.8188  -16.9309   19.4774 O   0  0  0  0  0  0  0  0  0  0  0  0
    7.6905  -15.1250   20.3063 N   0  0  0  0  0  0  0  0  0  0  0  0
    6.5330  -14.2841   20.5250 C   0  0  0  0  0  0  0  0  0  0  0  0
    7.1313  -12.8991   20.4289 C   0  0  0  0  0  0  0  0  0  0  0  0
    8.5906  -13.0555   20.7756 C   0  0  0  0  0  0  0  0  0  0  0  0
    8.7573  -14.5572   21.0564 C   0  0  1  0  0  0  0  0  0  0  0  0
    8.5811  -14.7011   22.5385 C   0  0  0  0  0  0  0  0  0  0  0  0
    7.6104  -14.2362   23.1753 O   0  0  0  0  0  0  0  0  0  0  0  0
    9.6118  -15.4208   23.2156 N   0  0  0  0  0  0  0  0  0  0  0  0
   10.3731  -14.7933   24.2594 C   0  0  0  0  0  0  0  0  0  0  0  0
   11.2444  -15.8054   24.9115 C   0  0  0  0  0  0  0  0  0  0  0  0
   12.1191  -16.3884   24.2004 O   0  0  0  0  0  0  0  0  0  0  0  0
   11.1447  -16.1356   26.2439 O   0  0  0  0  0  0  0  0  0  0  0  0
  2  1  1  0
  3  2  2  0
  4  2  1  0
  5  4  1  0
  6  5  1  0
  6  7  1  1
  6  8  1  0
  8  9  2  0
 10  8  1  0
 10 14  1  0
 11 10  1  0
 12 11  1  0
 12 13  1  0
 13 14  1  0
 14 15  1  1
 15 16  2  0
 15 17  1  0
 17 18  1  0
 18 19  1  0
 19 21  1  0
 20 19  2  0
M  END
$$$$
