QPG.pdb
     RDKit          3D

 21 21  0  0  1  0  0  0  0  0999 V2000
    7.8379  -19.8171   20.7334 N   0  0  0  0  0  0  0  0  0  0  0  0
    7.1749  -18.9026   19.8567 C   0  0  0  0  0  0  0  0  0  0  0  0
    5.9650  -18.6707   20.1037 O   0  0  0  0  0  0  0  0  0  0  0  0
    7.8644  -18.2555   18.7144 C   0  0  0  0  0  0  0  0  0  0  0  0
    6.9809  -17.1612   18.1908 C   0  0  0  0  0  0  0  0  0  0  0  0
    7.6642  -16.3774   17.0712 C   0  0  2  0  0  0  0  0  0  0  0  0
    7.9683  -17.2306   15.9572 N   0  0  0  0  0  0  0  0  0  0  0  0
    8.8106  -15.7091   17.6834 C   0  0  0  0  0  0  0  0  0  0  0  0
    9.9563  -16.1742   17.2938 O   0  0  0  0  0  0  0  0  0  0  0  0
    8.8528  -14.6642   18.6067 N   0  0  0  0  0  0  0  0  0  0  0  0
    7.7011  -14.1257   19.2980 C   0  0  0  0  0  0  0  0  0  0  0  0
    7.9664  -12.6387   19.2345 C   0  0  0  0  0  0  0  0  0  0  0  0
    9.4600  -12.4927   19.0852 C   0  0  0  0  0  0  0  0  0  0  0  0
    9.9849  -13.9369   19.0680 C   0  0  1  0  0  0  0  0  0  0  0  0
   10.3438  -14.2409   20.4919 C   0  0  0  0  0  0  0  0  0  0  0  0
    9.5363  -14.6872   21.3361 O   0  0  0  0  0  0  0  0  0  0  0  0
   11.7017  -13.9878   20.8536 N   0  0  0  0  0  0  0  0  0  0  0  0
   12.7293  -14.9399   20.5369 C   0  0  0  0  0  0  0  0  0  0  0  0
   13.0859  -15.7063   21.7592 C   0  0  0  0  0  0  0  0  0  0  0  0
   14.1931  -16.3264   21.7741 O   0  0  0  0  0  0  0  0  0  0  0  0
   12.2734  -15.7723   22.8681 O   0  0  0  0  0  0  0  0  0  0  0  0
  2  1  1  0
  3  2  2  0
  4  2  1  0
  5  4  1  0
  6  5  1  0
  6  7  1  6
  6  8  1  0
  8  9  2  0
 10  8  1  0
 10 14  1  0
 11 10  1  0
 12 11  1  0
 12 13  1  0
 13 14  1  0
 14 15  1  1
 15 16  2  0
 15 17  1  0
 17 18  1  0
 18 19  1  0
 19 21  1  0
 20 19  2  0
M  END
$$$$
