TRP.pdb
     RDKit          3D

 26 26  0  0  1  0  0  0  0  0999 V2000
   23.2186  -28.1576  -16.9093 C   0  0  0  0  0  0  0  0  0  0  0  0
   23.3102  -26.6714  -16.7841 C   0  0  1  0  0  0  0  0  0  0  0  0
   22.7200  -26.0312  -17.8776 O   0  0  0  0  0  0  0  0  0  0  0  0
   22.5927  -26.2179  -15.5321 C   0  0  2  0  0  0  0  0  0  0  0  0
   21.1900  -26.4996  -15.7288 N   0  0  0  0  0  0  0  0  0  0  0  0
   22.7877  -24.7440  -15.3360 C   0  0  0  0  0  0  0  0  0  0  0  0
   21.8482  -23.9484  -15.5801 O   0  0  0  0  0  0  0  0  0  0  0  0
   26.5086  -19.2849   -9.5724 N   0  0  0  0  0  0  0  0  0  0  0  0
   25.6927  -20.4483   -9.5756 C   0  0  0  0  0  0  0  0  0  0  0  0
   24.9538  -20.7607   -8.5434 N   0  0  0  0  0  0  0  0  0  0  0  0
   25.6356  -21.3172  -10.6900 N   0  0  0  0  0  0  0  0  0  0  0  0
   26.3706  -21.0967  -11.9255 C   0  0  0  0  0  0  0  0  0  0  0  0
   25.5424  -21.2721  -13.1571 C   0  0  0  0  0  0  0  0  0  0  0  0
   25.0942  -22.6831  -13.3924 C   0  0  0  0  0  0  0  0  0  0  0  0
   24.2447  -22.8453  -14.6416 C   0  0  2  0  0  0  0  0  0  0  0  0
   24.0462  -24.2872  -14.8739 N   0  0  0  0  0  0  0  0  0  0  0  0
   24.9527  -22.2425  -15.7993 C   0  0  0  0  0  0  0  0  0  0  0  0
   25.8602  -22.9053  -16.3518 O   0  0  0  0  0  0  0  0  0  0  0  0
   24.3579  -21.6301   -8.5652 N   0  0  0  0  0  0  0  0  0  0  0  0
   24.6370  -20.9529  -16.2960 C   0  0  0  0  0  0  0  0  0  0  0  0
   23.7849  -19.9388  -15.7104 C   0  0  0  0  0  0  0  0  0  0  0  0
   23.1155  -19.2753  -16.9093 C   0  0  0  0  0  0  0  0  0  0  0  0
   23.8749  -19.7392  -18.1084 C   0  0  1  0  0  0  0  0  0  0  0  0
   25.1240  -20.3625  -17.5469 C   0  0  0  0  0  0  0  0  0  0  0  0
   26.1862  -19.3901  -17.2492 O   0  0  0  0  0  0  0  0  0  0  0  0
   26.9342  -18.7550  -18.2206 O   0  0  0  0  0  0  0  0  0  0  0  0
  2  4  1  0
  2  1  1  6
  3  2  1  0
  4  5  1  6
  6  4  1  0
  6  7  2  0
  9  8  1  0
 10  9  2  0
 11  9  1  0
 12 11  1  0
 12 13  1  0
 13 14  1  0
 15 14  1  1
 15 16  1  0
 16  6  1  0
 17 15  1  0
 18 17  2  0
 19 17  1  0
 19 20  1  0
 21 20  1  0
 22 21  1  0
 22 23  1  0
 23 19  1  0
 23 24  1  1
 25 24  1  0
 26 24  2  0
M  END
$$$$
