TRP.pdb
     RDKit          3D

 26 26  0  0  1  0  0  0  0  0999 V2000
   16.6963  -13.3411  -18.6391 C   0  0  0  0  0  0  0  0  0  0  0  0
   17.0471  -12.4814  -17.4685 C   0  0  1  0  0  0  0  0  0  0  0  0
   15.9172  -12.1763  -16.7042 O   0  0  0  0  0  0  0  0  0  0  0  0
   18.0333  -13.2053  -16.5787 C   0  0  2  0  0  0  0  0  0  0  0  0
   17.3790  -14.4090  -16.1222 N   0  0  0  0  0  0  0  0  0  0  0  0
   18.3864  -12.3463  -15.4013 C   0  0  0  0  0  0  0  0  0  0  0  0
   17.7100  -12.4182  -14.3465 O   0  0  0  0  0  0  0  0  0  0  0  0
   26.4244  -10.0224  -15.0637 N   0  0  0  0  0  0  0  0  0  0  0  0
   25.3687  -10.0513  -16.0143 C   0  0  0  0  0  0  0  0  0  0  0  0
   25.5749   -9.7355  -17.2660 N   0  0  0  0  0  0  0  0  0  0  0  0
   24.0524  -10.4257  -15.6573 N   0  0  0  0  0  0  0  0  0  0  0  0
   23.6765  -10.8949  -14.3329 C   0  0  0  0  0  0  0  0  0  0  0  0
   22.2386  -11.2861  -14.2195 C   0  0  0  0  0  0  0  0  0  0  0  0
   21.2803  -10.1737  -14.5219 C   0  0  0  0  0  0  0  0  0  0  0  0
   19.8226  -10.5805  -14.3869 C   0  0  2  0  0  0  0  0  0  0  0  0
   19.4900  -11.4662  -15.5171 N   0  0  0  0  0  0  0  0  0  0  0  0
   18.9676   -9.3673  -14.4306 C   0  0  0  0  0  0  0  0  0  0  0  0
   18.5753   -8.9565  -15.5466 O   0  0  0  0  0  0  0  0  0  0  0  0
   24.7838   -9.7891  -17.9607 N   0  0  0  0  0  0  0  0  0  0  0  0
   18.5831   -8.6656  -13.2604 C   0  0  0  0  0  0  0  0  0  0  0  0
   18.9010   -8.9626  -11.8791 C   0  0  0  0  0  0  0  0  0  0  0  0
   17.6458   -8.5602  -11.1120 C   0  0  0  0  0  0  0  0  0  0  0  0
   16.8221   -7.7622  -12.0682 C   0  0  1  0  0  0  0  0  0  0  0  0
   17.7562   -7.4557  -13.2074 C   0  0  0  0  0  0  0  0  0  0  0  0
   18.6142   -6.2855  -12.9684 O   0  0  0  0  0  0  0  0  0  0  0  0
   18.1551   -4.9837  -12.9957 O   0  0  0  0  0  0  0  0  0  0  0  0
  2  4  1  0
  2  1  1  6
  3  2  1  0
  4  5  1  1
  6  4  1  0
  6  7  2  0
  9  8  1  0
 10  9  2  0
 11  9  1  0
 12 11  1  0
 12 13  1  0
 13 14  1  0
 15 14  1  6
 15 16  1  0
 16  6  1  0
 17 15  1  0
 18 17  2  0
 19 17  1  0
 19 20  1  0
 21 20  1  0
 22 21  1  0
 22 23  1  0
 23 19  1  0
 23 24  1  1
 25 24  1  0
 26 24  2  0
M  END
$$$$
