TRP.pdb
     RDKit          3D

 26 26  0  0  1  0  0  0  0  0999 V2000
   17.6671  -22.1827    1.8958 C   0  0  0  0  0  0  0  0  0  0  0  0
   17.3382  -22.4180    3.3343 C   0  0  1  0  0  0  0  0  0  0  0  0
   17.8303  -23.6503    3.7739 O   0  0  0  0  0  0  0  0  0  0  0  0
   17.9608  -21.3339    4.1859 C   0  0  2  0  0  0  0  0  0  0  0  0
   17.4305  -21.4937    5.5196 N   0  0  0  0  0  0  0  0  0  0  0  0
   17.5835  -19.9841    3.6523 C   0  0  0  0  0  0  0  0  0  0  0  0
   18.1382  -19.5407    2.6175 O   0  0  0  0  0  0  0  0  0  0  0  0
   11.6606  -17.3602    0.3684 N   0  0  0  0  0  0  0  0  0  0  0  0
   11.3816  -18.6398    0.9197 C   0  0  0  0  0  0  0  0  0  0  0  0
   10.8760  -19.5975    0.1875 N   0  0  0  0  0  0  0  0  0  0  0  0
   11.6400  -18.9405    2.2772 N   0  0  0  0  0  0  0  0  0  0  0  0
   12.4617  -18.1128    3.1463 C   0  0  0  0  0  0  0  0  0  0  0  0
   13.9258  -18.3899    3.0319 C   0  0  0  0  0  0  0  0  0  0  0  0
   14.7598  -17.6863    4.0598 C   0  0  0  0  0  0  0  0  0  0  0  0
   16.2532  -17.8878    3.8652 C   0  0  2  0  0  0  0  0  0  0  0  0
   16.5969  -19.2390    4.3433 N   0  0  0  0  0  0  0  0  0  0  0  0
   16.9934  -16.8716    4.6554 C   0  0  0  0  0  0  0  0  0  0  0  0
   17.5107  -17.2234    5.7402 O   0  0  0  0  0  0  0  0  0  0  0  0
   10.7297  -20.5562    0.6010 N   0  0  0  0  0  0  0  0  0  0  0  0
   17.1336  -15.5282    4.2251 C   0  0  0  0  0  0  0  0  0  0  0  0
   16.5820  -14.8906    3.0475 C   0  0  0  0  0  0  0  0  0  0  0  0
   17.6618  -13.9038    2.6165 C   0  0  0  0  0  0  0  0  0  0  0  0
   18.6151  -13.8166    3.7625 C   0  0  1  0  0  0  0  0  0  0  0  0
   17.8921  -14.4743    4.9065 C   0  0  0  0  0  0  0  0  0  0  0  0
   16.9626  -13.5781    5.6104 O   0  0  0  0  0  0  0  0  0  0  0  0
   17.3668  -12.6148    6.5131 O   0  0  0  0  0  0  0  0  0  0  0  0
  2  4  1  0
  2  1  1  6
  3  2  1  0
  4  5  1  1
  6  4  1  0
  6  7  2  0
  9  8  1  0
 10  9  2  0
 11  9  1  0
 12 11  1  0
 12 13  1  0
 13 14  1  0
 15 14  1  1
 15 16  1  0
 16  6  1  0
 17 15  1  0
 18 17  2  0
 19 17  1  0
 19 20  1  0
 21 20  1  0
 22 21  1  0
 22 23  1  0
 23 19  1  0
 23 24  1  1
 25 24  1  0
 26 24  2  0
M  END
$$$$
