TRP.pdb
     RDKit          3D

 26 26  0  0  1  0  0  0  0  0999 V2000
   26.3454  -26.2870  -15.8248 C   0  0  0  0  0  0  0  0  0  0  0  0
   27.4657  -26.1291  -16.8010 C   0  0  1  0  0  0  0  0  0  0  0  0
   27.7629  -27.3391  -17.4347 O   0  0  0  0  0  0  0  0  0  0  0  0
   27.0802  -25.1252  -17.8648 C   0  0  2  0  0  0  0  0  0  0  0  0
   28.2108  -25.0048  -18.7552 N   0  0  0  0  0  0  0  0  0  0  0  0
   26.7925  -23.7957  -17.2335 C   0  0  0  0  0  0  0  0  0  0  0  0
   27.7373  -23.0744  -16.8305 O   0  0  0  0  0  0  0  0  0  0  0  0
   20.2047  -22.6919  -14.5514 N   0  0  0  0  0  0  0  0  0  0  0  0
   20.3692  -21.4402  -13.8993 C   0  0  0  0  0  0  0  0  0  0  0  0
   19.8345  -21.2104  -12.7288 N   0  0  0  0  0  0  0  0  0  0  0  0
   21.1189  -20.3897  -14.4777 N   0  0  0  0  0  0  0  0  0  0  0  0
   21.7033  -20.4510  -15.8082 C   0  0  0  0  0  0  0  0  0  0  0  0
   23.1852  -20.6445  -15.8055 C   0  0  0  0  0  0  0  0  0  0  0  0
   23.6375  -21.8857  -16.5143 C   0  0  0  0  0  0  0  0  0  0  0  0
   25.1359  -22.1202  -16.4223 C   0  0  2  0  0  0  0  0  0  0  0  0
   25.4419  -23.3878  -17.1092 N   0  0  0  0  0  0  0  0  0  0  0  0
   25.5320  -22.2140  -14.9943 C   0  0  0  0  0  0  0  0  0  0  0  0
   25.3852  -23.3105  -14.4075 O   0  0  0  0  0  0  0  0  0  0  0  0
   19.9361  -20.2621  -12.2795 N   0  0  0  0  0  0  0  0  0  0  0  0
   26.0674  -21.1127  -14.2799 C   0  0  0  0  0  0  0  0  0  0  0  0
   26.2916  -19.7572  -14.7376 C   0  0  0  0  0  0  0  0  0  0  0  0
   27.5723  -19.3303  -14.0282 C   0  0  0  0  0  0  0  0  0  0  0  0
   27.8118  -20.3544  -12.9682 C   0  0  2  0  0  0  0  0  0  0  0  0
   26.5200  -21.1216  -12.8851 C   0  0  0  0  0  0  0  0  0  0  0  0
   25.5056  -20.4790  -12.0364 O   0  0  0  0  0  0  0  0  0  0  0  0
   25.5129  -20.5416  -10.6571 O   0  0  0  0  0  0  0  0  0  0  0  0
  2  4  1  0
  2  1  1  1
  3  2  1  0
  4  5  1  6
  6  4  1  0
  6  7  2  0
  9  8  1  0
 10  9  2  0
 11  9  1  0
 12 11  1  0
 12 13  1  0
 13 14  1  0
 15 14  1  1
 15 16  1  0
 16  6  1  0
 17 15  1  0
 18 17  2  0
 19 17  1  0
 19 20  1  0
 21 20  1  0
 22 21  1  0
 22 23  1  0
 23 19  1  0
 23 24  1  1
 25 24  1  0
 26 24  2  0
M  END
$$$$
