TRP.pdb
     RDKit          3D

 26 26  0  0  1  0  0  0  0  0999 V2000
   23.6624  -19.2853  -17.0843 C   0  0  0  0  0  0  0  0  0  0  0  0
   23.4917  -20.5019  -17.9348 C   0  0  1  0  0  0  0  0  0  0  0  0
   23.0449  -20.1683  -19.2166 O   0  0  0  0  0  0  0  0  0  0  0  0
   24.8156  -21.2206  -18.0722 C   0  0  2  0  0  0  0  0  0  0  0  0
   24.5786  -22.3783  -18.9023 N   0  0  0  0  0  0  0  0  0  0  0  0
   25.3021  -21.6592  -16.7232 C   0  0  0  0  0  0  0  0  0  0  0  0
   24.6573  -22.5163  -16.0714 O   0  0  0  0  0  0  0  0  0  0  0  0
   29.2839  -22.3869  -10.5774 N   0  0  0  0  0  0  0  0  0  0  0  0
   30.5278  -21.7510  -10.8375 C   0  0  0  0  0  0  0  0  0  0  0  0
   31.6488  -22.2411  -10.3768 N   0  0  0  0  0  0  0  0  0  0  0  0
   30.6150  -20.5676  -11.6069 N   0  0  0  0  0  0  0  0  0  0  0  0
   30.1607  -20.4638  -12.9846 C   0  0  0  0  0  0  0  0  0  0  0  0
   28.7706  -20.9688  -13.1988 C   0  0  0  0  0  0  0  0  0  0  0  0
   28.3008  -20.8723  -14.6192 C   0  0  0  0  0  0  0  0  0  0  0  0
   26.8594  -21.3142  -14.8087 C   0  0  2  0  0  0  0  0  0  0  0  0
   26.4935  -21.0839  -16.2177 N   0  0  0  0  0  0  0  0  0  0  0  0
   25.9786  -20.5114  -13.9230 C   0  0  0  0  0  0  0  0  0  0  0  0
   25.7668  -19.3141  -14.2224 O   0  0  0  0  0  0  0  0  0  0  0  0
   32.5609  -21.7536  -10.5812 N   0  0  0  0  0  0  0  0  0  0  0  0
   25.3738  -21.0516  -12.7602 C   0  0  0  0  0  0  0  0  0  0  0  0
   25.5443  -22.3659  -12.1763 C   0  0  0  0  0  0  0  0  0  0  0  0
   24.1653  -22.7111  -11.6240 C   0  0  0  0  0  0  0  0  0  0  0  0
   23.3872  -21.4369  -11.6452 C   0  0  2  0  0  0  0  0  0  0  0  0
   24.4191  -20.3677  -11.8821 C   0  0  0  0  0  0  0  0  0  0  0  0
   25.1060  -19.9290  -10.6581 O   0  0  0  0  0  0  0  0  0  0  0  0
   24.5201  -19.1264   -9.6995 O   0  0  0  0  0  0  0  0  0  0  0  0
  2  4  1  0
  2  1  1  1
  3  2  1  0
  4  5  1  6
  6  4  1  0
  6  7  2  0
  9  8  1  0
 10  9  2  0
 11  9  1  0
 12 11  1  0
 12 13  1  0
 13 14  1  0
 15 14  1  6
 15 16  1  0
 16  6  1  0
 17 15  1  0
 18 17  2  0
 19 17  1  0
 19 20  1  0
 21 20  1  0
 22 21  1  0
 22 23  1  0
 23 19  1  0
 23 24  1  1
 25 24  1  0
 26 24  2  0
M  END
$$$$
