TRP.pdb
     RDKit          3D

 26 26  0  0  1  0  0  0  0  0999 V2000
   28.0680  -20.3187  -17.7021 C   0  0  0  0  0  0  0  0  0  0  0  0
   28.5157  -21.7306  -17.8993 C   0  0  1  0  0  0  0  0  0  0  0  0
   29.8586  -21.7898  -18.2828 O   0  0  0  0  0  0  0  0  0  0  0  0
   28.3629  -22.5016  -16.6069 C   0  0  2  0  0  0  0  0  0  0  0  0
   28.7643  -23.8614  -16.8814 N   0  0  0  0  0  0  0  0  0  0  0  0
   26.9304  -22.4789  -16.1638 C   0  0  0  0  0  0  0  0  0  0  0  0
   26.0370  -22.9588  -16.9031 O   0  0  0  0  0  0  0  0  0  0  0  0
   24.2416  -21.3007   -7.9632 N   0  0  0  0  0  0  0  0  0  0  0  0
   25.2235  -20.8751   -8.8981 C   0  0  0  0  0  0  0  0  0  0  0  0
   26.3652  -20.3766   -8.5021 N   0  0  0  0  0  0  0  0  0  0  0  0
   25.0180  -20.9738  -10.2938 N   0  0  0  0  0  0  0  0  0  0  0  0
   23.7882  -21.4626  -10.8973 C   0  0  0  0  0  0  0  0  0  0  0  0
   23.8255  -21.5009  -12.3908 C   0  0  0  0  0  0  0  0  0  0  0  0
   25.2061  -21.6254  -12.9616 C   0  0  0  0  0  0  0  0  0  0  0  0
   25.2191  -21.8543  -14.4636 C   0  0  2  0  0  0  0  0  0  0  0  0
   26.6245  -21.9075  -14.9045 N   0  0  0  0  0  0  0  0  0  0  0  0
   24.5228  -20.7296  -15.1383 C   0  0  0  0  0  0  0  0  0  0  0  0
   25.1373  -19.6472  -15.2761 O   0  0  0  0  0  0  0  0  0  0  0  0
   27.0427  -19.9842   -9.2081 N   0  0  0  0  0  0  0  0  0  0  0  0
   23.1973  -20.8405  -15.6284 C   0  0  0  0  0  0  0  0  0  0  0  0
   22.2680  -21.9425  -15.4894 C   0  0  0  0  0  0  0  0  0  0  0  0
   21.5023  -21.9541  -16.8083 C   0  0  0  0  0  0  0  0  0  0  0  0
   21.8245  -20.6590  -17.4780 C   0  0  1  0  0  0  0  0  0  0  0  0
   22.4721  -19.8285  -16.4032 C   0  0  0  0  0  0  0  0  0  0  0  0
   21.5102  -19.1390  -15.5304 O   0  0  0  0  0  0  0  0  0  0  0  0
   20.8038  -18.0151  -15.9101 O   0  0  0  0  0  0  0  0  0  0  0  0
  2  4  1  0
  2  1  1  1
  3  2  1  0
  4  5  1  6
  6  4  1  0
  6  7  2  0
  9  8  1  0
 10  9  2  0
 11  9  1  0
 12 11  1  0
 12 13  1  0
 13 14  1  0
 15 14  1  1
 15 16  1  0
 16  6  1  0
 17 15  1  0
 18 17  2  0
 19 17  1  0
 19 20  1  0
 21 20  1  0
 22 21  1  0
 22 23  1  0
 23 19  1  0
 23 24  1  1
 25 24  1  0
 26 24  2  0
M  END
$$$$
