TRP.pdb
     RDKit          3D

 26 26  0  0  1  0  0  0  0  0999 V2000
   18.8116  -18.6087  -17.8227 C   0  0  0  0  0  0  0  0  0  0  0  0
   20.2631  -18.5175  -17.4795 C   0  0  1  0  0  0  0  0  0  0  0  0
   20.9920  -17.9121  -18.5072 O   0  0  0  0  0  0  0  0  0  0  0  0
   20.4420  -17.6887  -16.2268 C   0  0  2  0  0  0  0  0  0  0  0  0
   19.9113  -16.3768  -16.5142 N   0  0  0  0  0  0  0  0  0  0  0  0
   21.8991  -17.5798  -15.8892 C   0  0  0  0  0  0  0  0  0  0  0  0
   22.5591  -16.5827  -16.2707 O   0  0  0  0  0  0  0  0  0  0  0  0
   22.8711  -24.3660  -14.0593 N   0  0  0  0  0  0  0  0  0  0  0  0
   24.2511  -24.0302  -14.0171 C   0  0  0  0  0  0  0  0  0  0  0  0
   25.1480  -24.7738  -14.6102 N   0  0  0  0  0  0  0  0  0  0  0  0
   24.7194  -22.8798  -13.3407 N   0  0  0  0  0  0  0  0  0  0  0  0
   23.8481  -21.8419  -12.8126 C   0  0  0  0  0  0  0  0  0  0  0  0
   23.4442  -20.8222  -13.8277 C   0  0  0  0  0  0  0  0  0  0  0  0
   24.2762  -19.5755  -13.8015 C   0  0  0  0  0  0  0  0  0  0  0  0
   23.9551  -18.6125  -14.9321 C   0  0  2  0  0  0  0  0  0  0  0  0
   22.4957  -18.6218  -15.1381 N   0  0  0  0  0  0  0  0  0  0  0  0
   24.6403  -19.0621  -16.1704 C   0  0  0  0  0  0  0  0  0  0  0  0
   23.9693  -19.6753  -17.0318 O   0  0  0  0  0  0  0  0  0  0  0  0
   26.1654  -24.4995  -14.5780 N   0  0  0  0  0  0  0  0  0  0  0  0
   26.0169  -18.8211  -16.4078 C   0  0  0  0  0  0  0  0  0  0  0  0
   26.9825  -18.1603  -15.5544 C   0  0  0  0  0  0  0  0  0  0  0  0
   27.8923  -17.4160  -16.5259 C   0  0  0  0  0  0  0  0  0  0  0  0
   27.5789  -17.9643  -17.8790 C   0  0  2  0  0  0  0  0  0  0  0  0
   26.7698  -19.2034  -17.6067 C   0  0  0  0  0  0  0  0  0  0  0  0
   27.5878  -20.3899  -17.3145 O   0  0  0  0  0  0  0  0  0  0  0  0
   27.6483  -20.9885  -16.0718 O   0  0  0  0  0  0  0  0  0  0  0  0
  2  4  1  0
  2  1  1  6
  3  2  1  0
  4  5  1  6
  6  4  1  0
  6  7  2  0
  9  8  1  0
 10  9  2  0
 11  9  1  0
 12 11  1  0
 12 13  1  0
 13 14  1  0
 15 14  1  1
 15 16  1  0
 16  6  1  0
 17 15  1  0
 18 17  2  0
 19 17  1  0
 19 20  1  0
 21 20  1  0
 22 21  1  0
 22 23  1  0
 23 19  1  0
 23 24  1  6
 25 24  1  0
 26 24  2  0
M  END
$$$$
