TRP.pdb
     RDKit          3D

 26 26  0  0  1  0  0  0  0  0999 V2000
   16.8522   -8.3116  -16.6929 C   0  0  0  0  0  0  0  0  0  0  0  0
   16.3722   -9.1318  -15.5398 C   0  0  1  0  0  0  0  0  0  0  0  0
   15.1787   -9.7916  -15.8464 O   0  0  0  0  0  0  0  0  0  0  0  0
   17.4082  -10.1763  -15.1879 C   0  0  2  0  0  0  0  0  0  0  0  0
   16.8775  -10.9347  -14.0795 N   0  0  0  0  0  0  0  0  0  0  0  0
   18.6871   -9.5102  -14.7761 C   0  0  0  0  0  0  0  0  0  0  0  0
   18.7364   -8.8512  -13.7090 O   0  0  0  0  0  0  0  0  0  0  0  0
   27.0624  -11.1233  -17.3913 N   0  0  0  0  0  0  0  0  0  0  0  0
   26.1270  -11.6685  -16.4709 C   0  0  0  0  0  0  0  0  0  0  0  0
   26.2683  -12.8791  -15.9981 N   0  0  0  0  0  0  0  0  0  0  0  0
   25.0074  -10.9318  -16.0194 N   0  0  0  0  0  0  0  0  0  0  0  0
   24.6624   -9.6056  -16.5068 C   0  0  0  0  0  0  0  0  0  0  0  0
   23.5358   -8.9657  -15.7620 C   0  0  0  0  0  0  0  0  0  0  0  0
   22.2195   -9.6620  -15.9349 C   0  0  0  0  0  0  0  0  0  0  0  0
   21.0625   -8.9387  -15.2665 C   0  0  2  0  0  0  0  0  0  0  0  0
   19.8185   -9.6471  -15.6171 N   0  0  0  0  0  0  0  0  0  0  0  0
   21.0027   -7.5412  -15.7649 C   0  0  0  0  0  0  0  0  0  0  0  0
   20.3896   -7.3170  -16.8335 O   0  0  0  0  0  0  0  0  0  0  0  0
   25.5113  -13.3031  -15.3993 N   0  0  0  0  0  0  0  0  0  0  0  0
   21.6106   -6.4617  -15.0760 C   0  0  0  0  0  0  0  0  0  0  0  0
   22.4441   -6.4954  -13.8922 C   0  0  0  0  0  0  0  0  0  0  0  0
   22.0673   -5.2272  -13.1336 C   0  0  0  0  0  0  0  0  0  0  0  0
   21.2813   -4.3964  -14.0937 C   0  0  1  0  0  0  0  0  0  0  0  0
   21.5156   -5.0424  -15.4324 C   0  0  0  0  0  0  0  0  0  0  0  0
   22.7633   -4.6157  -16.0832 O   0  0  0  0  0  0  0  0  0  0  0  0
   23.8841   -5.4157  -16.1845 O   0  0  0  0  0  0  0  0  0  0  0  0
  2  4  1  0
  2  1  1  6
  3  2  1  0
  4  5  1  1
  6  4  1  0
  6  7  2  0
  9  8  1  0
 10  9  2  0
 11  9  1  0
 12 11  1  0
 12 13  1  0
 13 14  1  0
 15 14  1  6
 15 16  1  0
 16  6  1  0
 17 15  1  0
 18 17  2  0
 19 17  1  0
 19 20  1  0
 21 20  1  0
 22 21  1  0
 22 23  1  0
 23 19  1  0
 23 24  1  6
 25 24  1  0
 26 24  2  0
M  END
$$$$
