TRP.pdb
     RDKit          3D

 26 26  0  0  1  0  0  0  0  0999 V2000
   22.5405  -22.1662  -15.9740 C   0  0  0  0  0  0  0  0  0  0  0  0
   21.3651  -21.2509  -15.8575 C   0  0  1  0  0  0  0  0  0  0  0  0
   20.1702  -21.9681  -15.7498 O   0  0  0  0  0  0  0  0  0  0  0  0
   21.5076  -20.3892  -14.6225 C   0  0  2  0  0  0  0  0  0  0  0  0
   20.2886  -19.6240  -14.5037 N   0  0  0  0  0  0  0  0  0  0  0  0
   22.6731  -19.4587  -14.7794 C   0  0  0  0  0  0  0  0  0  0  0  0
   22.5487  -18.4039  -15.4482 O   0  0  0  0  0  0  0  0  0  0  0  0
   27.0950  -21.3746   -8.8286 N   0  0  0  0  0  0  0  0  0  0  0  0
   25.8448  -21.0618   -9.4271 C   0  0  0  0  0  0  0  0  0  0  0  0
   24.7642  -20.9208   -8.7052 N   0  0  0  0  0  0  0  0  0  0  0  0
   25.7094  -20.8832  -10.8235 N   0  0  0  0  0  0  0  0  0  0  0  0
   26.7805  -21.1255  -11.7771 C   0  0  0  0  0  0  0  0  0  0  0  0
   26.4604  -20.6787  -13.1669 C   0  0  0  0  0  0  0  0  0  0  0  0
   26.0770  -19.2329  -13.2675 C   0  0  0  0  0  0  0  0  0  0  0  0
   25.0792  -18.9498  -14.3779 C   0  0  2  0  0  0  0  0  0  0  0  0
   23.8983  -19.8038  -14.1582 N   0  0  0  0  0  0  0  0  0  0  0  0
   25.6972  -19.2740  -15.6886 C   0  0  0  0  0  0  0  0  0  0  0  0
   25.3324  -20.3182  -16.2756 O   0  0  0  0  0  0  0  0  0  0  0  0
   23.8495  -20.6739   -9.1675 N   0  0  0  0  0  0  0  0  0  0  0  0
   26.6773  -18.4467  -16.2924 C   0  0  0  0  0  0  0  0  0  0  0  0
   27.4531  -17.3779  -15.6983 C   0  0  0  0  0  0  0  0  0  0  0  0
   27.5936  -16.3515  -16.8175 C   0  0  0  0  0  0  0  0  0  0  0  0
   27.1658  -17.0493  -18.0664 C   0  0  1  0  0  0  0  0  0  0  0  0
   27.1200  -18.5052  -17.6892 C   0  0  0  0  0  0  0  0  0  0  0  0
   28.4271  -19.1749  -17.7616 O   0  0  0  0  0  0  0  0  0  0  0  0
   29.0861  -19.4374  -18.9462 O   0  0  0  0  0  0  0  0  0  0  0  0
  2  4  1  0
  2  1  1  1
  3  2  1  0
  4  5  1  6
  6  4  1  0
  6  7  2  0
  9  8  1  0
 10  9  2  0
 11  9  1  0
 12 11  1  0
 12 13  1  0
 13 14  1  0
 15 14  1  1
 15 16  1  0
 16  6  1  0
 17 15  1  0
 18 17  2  0
 19 17  1  0
 19 20  1  0
 21 20  1  0
 22 21  1  0
 22 23  1  0
 23 19  1  0
 23 24  1  1
 25 24  1  0
 26 24  2  0
M  END
$$$$
