TRP.pdb
     RDKit          3D

 26 26  0  0  1  0  0  0  0  0999 V2000
   26.7047  -17.7246  -16.1414 C   0  0  0  0  0  0  0  0  0  0  0  0
   27.1972  -19.0760  -16.5463 C   0  0  1  0  0  0  0  0  0  0  0  0
   28.5915  -19.1504  -16.4801 O   0  0  0  0  0  0  0  0  0  0  0  0
   26.6273  -20.1274  -15.6201 C   0  0  2  0  0  0  0  0  0  0  0  0
   27.2318  -21.3849  -15.9929 N   0  0  0  0  0  0  0  0  0  0  0  0
   25.1403  -20.2119  -15.7953 C   0  0  0  0  0  0  0  0  0  0  0  0
   24.6586  -20.6726  -16.8588 O   0  0  0  0  0  0  0  0  0  0  0  0
   18.6590  -21.3850   -9.8576 N   0  0  0  0  0  0  0  0  0  0  0  0
   19.9410  -21.8262  -10.2828 C   0  0  0  0  0  0  0  0  0  0  0  0
   20.6397  -22.6682   -9.5674 N   0  0  0  0  0  0  0  0  0  0  0  0
   20.5188  -21.3838  -11.4955 N   0  0  0  0  0  0  0  0  0  0  0  0
   20.1095  -20.1743  -12.1920 C   0  0  0  0  0  0  0  0  0  0  0  0
   20.7308  -20.0187  -13.5422 C   0  0  0  0  0  0  0  0  0  0  0  0
   22.2295  -19.9907  -13.5222 C   0  0  0  0  0  0  0  0  0  0  0  0
   22.8477  -19.8221  -14.9000 C   0  0  2  0  0  0  0  0  0  0  0  0
   24.3115  -19.7621  -14.7386 N   0  0  0  0  0  0  0  0  0  0  0  0
   22.3568  -18.5594  -15.5079 C   0  0  0  0  0  0  0  0  0  0  0  0
   22.8549  -17.4789  -15.1174 O   0  0  0  0  0  0  0  0  0  0  0  0
   21.5985  -22.9653   -9.8896 N   0  0  0  0  0  0  0  0  0  0  0  0
   21.3523  -18.5373  -16.5079 C   0  0  0  0  0  0  0  0  0  0  0  0
   20.5580  -19.6346  -17.0202 C   0  0  0  0  0  0  0  0  0  0  0  0
   20.3835  -19.3105  -18.5001 C   0  0  0  0  0  0  0  0  0  0  0  0
   20.8151  -17.8900  -18.6599 C   0  0  1  0  0  0  0  0  0  0  0  0
   20.8977  -17.3596  -17.2541 C   0  0  0  0  0  0  0  0  0  0  0  0
   19.6056  -16.9076  -16.7171 O   0  0  0  0  0  0  0  0  0  0  0  0
   19.0123  -15.7095  -17.0620 O   0  0  0  0  0  0  0  0  0  0  0  0
  2  4  1  0
  2  1  1  1
  3  2  1  0
  4  5  1  6
  6  4  1  0
  6  7  2  0
  9  8  1  0
 10  9  2  0
 11  9  1  0
 12 11  1  0
 12 13  1  0
 13 14  1  0
 15 14  1  1
 15 16  1  0
 16  6  1  0
 17 15  1  0
 18 17  2  0
 19 17  1  0
 19 20  1  0
 21 20  1  0
 22 21  1  0
 22 23  1  0
 23 19  1  0
 23 24  1  1
 25 24  1  0
 26 24  2  0
M  END
$$$$
