TRP.pdb
     RDKit          3D

 26 26  0  0  1  0  0  0  0  0999 V2000
   26.3987  -15.3890  -16.1571 C   0  0  0  0  0  0  0  0  0  0  0  0
   27.1637  -15.7142  -17.3988 C   0  0  1  0  0  0  0  0  0  0  0  0
   27.9367  -14.6282  -17.8195 O   0  0  0  0  0  0  0  0  0  0  0  0
   28.0937  -16.8782  -17.1372 C   0  0  2  0  0  0  0  0  0  0  0  0
   28.8257  -17.1114  -18.3601 N   0  0  0  0  0  0  0  0  0  0  0  0
   27.2982  -18.0998  -16.7856 C   0  0  0  0  0  0  0  0  0  0  0  0
   26.6715  -18.7195  -17.6792 O   0  0  0  0  0  0  0  0  0  0  0  0
   26.1220  -20.1716   -8.5719 N   0  0  0  0  0  0  0  0  0  0  0  0
   25.0094  -20.7146   -9.2694 C   0  0  0  0  0  0  0  0  0  0  0  0
   23.7991  -20.6348   -8.7818 N   0  0  0  0  0  0  0  0  0  0  0  0
   25.1543  -21.3592  -10.5199 N   0  0  0  0  0  0  0  0  0  0  0  0
   26.2262  -21.0695  -11.4593 C   0  0  0  0  0  0  0  0  0  0  0  0
   25.7521  -20.4854  -12.7507 C   0  0  0  0  0  0  0  0  0  0  0  0
   26.8534  -20.1831  -13.7218 C   0  0  0  0  0  0  0  0  0  0  0  0
   26.3565  -19.6027  -15.0351 C   0  0  2  0  0  0  0  0  0  0  0  0
   27.2780  -18.5239  -15.4344 N   0  0  0  0  0  0  0  0  0  0  0  0
   24.9908  -19.0520  -14.8438 C   0  0  0  0  0  0  0  0  0  0  0  0
   24.8652  -17.9833  -14.2033 O   0  0  0  0  0  0  0  0  0  0  0  0
   22.9781  -20.9725   -9.3504 N   0  0  0  0  0  0  0  0  0  0  0  0
   23.8347  -19.6903  -15.3590 C   0  0  0  0  0  0  0  0  0  0  0  0
   23.7266  -20.9720  -16.0245 C   0  0  0  0  0  0  0  0  0  0  0  0
   22.6372  -20.7593  -17.0703 C   0  0  0  0  0  0  0  0  0  0  0  0
   21.9755  -19.4694  -16.7129 C   0  0  2  0  0  0  0  0  0  0  0  0
   22.4659  -19.1652  -15.3233 C   0  0  0  0  0  0  0  0  0  0  0  0
   21.7058  -19.8490  -14.2664 O   0  0  0  0  0  0  0  0  0  0  0  0
   20.5133  -19.3763  -13.7556 O   0  0  0  0  0  0  0  0  0  0  0  0
  2  4  1  0
  2  1  1  1
  3  2  1  0
  4  5  1  6
  6  4  1  0
  6  7  2  0
  9  8  1  0
 10  9  2  0
 11  9  1  0
 12 11  1  0
 12 13  1  0
 13 14  1  0
 15 14  1  1
 15 16  1  0
 16  6  1  0
 17 15  1  0
 18 17  2  0
 19 17  1  0
 19 20  1  0
 21 20  1  0
 22 21  1  0
 22 23  1  0
 23 19  1  0
 23 24  1  1
 25 24  1  0
 26 24  2  0
M  END
$$$$
