TRP.pdb
     RDKit          3D

 26 26  0  0  1  0  0  0  0  0999 V2000
   23.2698  -15.6169  -18.8603 C   0  0  0  0  0  0  0  0  0  0  0  0
   23.0288  -14.4121  -18.0099 C   0  0  1  0  0  0  0  0  0  0  0  0
   22.2729  -13.4524  -18.6894 O   0  0  0  0  0  0  0  0  0  0  0  0
   22.2705  -14.8090  -16.7627 C   0  0  2  0  0  0  0  0  0  0  0  0
   22.0611  -13.6015  -15.9987 N   0  0  0  0  0  0  0  0  0  0  0  0
   23.0818  -15.7800  -15.9578 C   0  0  0  0  0  0  0  0  0  0  0  0
   24.0978  -15.3849  -15.3357 O   0  0  0  0  0  0  0  0  0  0  0  0
   21.4432  -24.4425  -13.9595 N   0  0  0  0  0  0  0  0  0  0  0  0
   22.8448  -24.2456  -14.0859 C   0  0  0  0  0  0  0  0  0  0  0  0
   23.6720  -25.2576  -14.1084 N   0  0  0  0  0  0  0  0  0  0  0  0
   23.4103  -22.9542  -14.1982 N   0  0  0  0  0  0  0  0  0  0  0  0
   22.6380  -21.7241  -14.1220 C   0  0  0  0  0  0  0  0  0  0  0  0
   23.4477  -20.4905  -14.3586 C   0  0  0  0  0  0  0  0  0  0  0  0
   22.6784  -19.3705  -14.9920 C   0  0  0  0  0  0  0  0  0  0  0  0
   23.5131  -18.1227  -15.2261 C   0  0  2  0  0  0  0  0  0  0  0  0
   22.6704  -17.1348  -15.9235 N   0  0  0  0  0  0  0  0  0  0  0  0
   24.6861  -18.4669  -16.0690 C   0  0  0  0  0  0  0  0  0  0  0  0
   24.5218  -18.5598  -17.3069 O   0  0  0  0  0  0  0  0  0  0  0  0
   24.7121  -25.0881  -14.1358 N   0  0  0  0  0  0  0  0  0  0  0  0
   25.9751  -18.6908  -15.5229 C   0  0  0  0  0  0  0  0  0  0  0  0
   26.3774  -18.7263  -14.1322 C   0  0  0  0  0  0  0  0  0  0  0  0
   27.7735  -18.1125  -14.1313 C   0  0  0  0  0  0  0  0  0  0  0  0
   28.1994  -18.0666  -15.5618 C   0  0  2  0  0  0  0  0  0  0  0  0
   27.2061  -18.9393  -16.2801 C   0  0  0  0  0  0  0  0  0  0  0  0
   27.5331  -20.3721  -16.2278 O   0  0  0  0  0  0  0  0  0  0  0  0
   28.5649  -20.9465  -16.9432 O   0  0  0  0  0  0  0  0  0  0  0  0
  2  4  1  0
  2  1  1  6
  3  2  1  0
  4  5  1  1
  6  4  1  0
  6  7  2  0
  9  8  1  0
 10  9  2  0
 11  9  1  0
 12 11  1  0
 12 13  1  0
 13 14  1  0
 15 14  1  6
 15 16  1  0
 16  6  1  0
 17 15  1  0
 18 17  2  0
 19 17  1  0
 19 20  1  0
 21 20  1  0
 22 21  1  0
 22 23  1  0
 23 19  1  0
 23 24  1  1
 25 24  1  0
 26 24  2  0
M  END
$$$$
