TRP.pdb
     RDKit          3D

 26 26  0  0  1  0  0  0  0  0999 V2000
   29.0767  -25.2827  -17.9506 C   0  0  0  0  0  0  0  0  0  0  0  0
   27.7951  -24.5969  -17.6046 C   0  0  1  0  0  0  0  0  0  0  0  0
   26.8907  -24.6407  -18.6696 O   0  0  0  0  0  0  0  0  0  0  0  0
   27.1536  -25.2793  -16.4167 C   0  0  2  0  0  0  0  0  0  0  0  0
   26.6530  -26.5504  -16.8849 N   0  0  0  0  0  0  0  0  0  0  0  0
   26.0160  -24.4485  -15.9022 C   0  0  0  0  0  0  0  0  0  0  0  0
   24.8335  -24.7589  -16.1859 O   0  0  0  0  0  0  0  0  0  0  0  0
   25.6647  -20.9800   -8.4750 N   0  0  0  0  0  0  0  0  0  0  0  0
   24.3418  -20.7759   -8.9519 C   0  0  0  0  0  0  0  0  0  0  0  0
   23.3118  -20.8643   -8.1517 N   0  0  0  0  0  0  0  0  0  0  0  0
   24.0758  -20.4639  -10.3054 N   0  0  0  0  0  0  0  0  0  0  0  0
   25.1019  -20.3823  -11.3329 C   0  0  0  0  0  0  0  0  0  0  0  0
   24.6807  -20.9502  -12.6495 C   0  0  0  0  0  0  0  0  0  0  0  0
   25.6565  -21.9294  -13.2294 C   0  0  0  0  0  0  0  0  0  0  0  0
   25.2088  -22.5103  -14.5601 C   0  0  2  0  0  0  0  0  0  0  0  0
   26.3154  -23.3211  -15.0989 N   0  0  0  0  0  0  0  0  0  0  0  0
   24.8934  -21.4035  -15.4984 C   0  0  0  0  0  0  0  0  0  0  0  0
   25.8442  -20.7897  -16.0345 O   0  0  0  0  0  0  0  0  0  0  0  0
   22.3346  -20.7842   -8.5391 N   0  0  0  0  0  0  0  0  0  0  0  0
   23.5628  -21.0230  -15.8055 C   0  0  0  0  0  0  0  0  0  0  0  0
   22.3261  -21.4937  -15.2171 C   0  0  0  0  0  0  0  0  0  0  0  0
   21.3408  -21.5093  -16.3810 C   0  0  0  0  0  0  0  0  0  0  0  0
   21.9965  -20.7403  -17.4803 C   0  0  2  0  0  0  0  0  0  0  0  0
   23.1528  -20.0430  -16.8163 C   0  0  0  0  0  0  0  0  0  0  0  0
   22.7812  -18.7830  -16.1553 O   0  0  0  0  0  0  0  0  0  0  0  0
   22.4847  -17.6206  -16.8389 O   0  0  0  0  0  0  0  0  0  0  0  0
  2  4  1  0
  2  1  1  6
  3  2  1  0
  4  5  1  6
  6  4  1  0
  6  7  2  0
  9  8  1  0
 10  9  2  0
 11  9  1  0
 12 11  1  0
 12 13  1  0
 13 14  1  0
 15 14  1  1
 15 16  1  0
 16  6  1  0
 17 15  1  0
 18 17  2  0
 19 17  1  0
 19 20  1  0
 21 20  1  0
 22 21  1  0
 22 23  1  0
 23 19  1  0
 23 24  1  1
 25 24  1  0
 26 24  2  0
M  END
$$$$
