TRP.pdb
     RDKit          3D

 26 26  0  0  1  0  0  0  0  0999 V2000
   29.4282  -24.3807  -16.9040 C   0  0  0  0  0  0  0  0  0  0  0  0
   28.1002  -23.7216  -17.0899 C   0  0  1  0  0  0  0  0  0  0  0  0
   27.5158  -24.0880  -18.3057 O   0  0  0  0  0  0  0  0  0  0  0  0
   27.1633  -24.1343  -15.9763 C   0  0  2  0  0  0  0  0  0  0  0  0
   26.8857  -25.5392  -16.1628 N   0  0  0  0  0  0  0  0  0  0  0  0
   25.8867  -23.3525  -16.0655 C   0  0  0  0  0  0  0  0  0  0  0  0
   24.8393  -23.9058  -16.4803 O   0  0  0  0  0  0  0  0  0  0  0  0
   22.6836  -20.2316   -9.8684 N   0  0  0  0  0  0  0  0  0  0  0  0
   24.0017  -20.7523   -9.7662 C   0  0  0  0  0  0  0  0  0  0  0  0
   24.4293  -21.3022   -8.6600 N   0  0  0  0  0  0  0  0  0  0  0  0
   24.9087  -20.7067  -10.8504 N   0  0  0  0  0  0  0  0  0  0  0  0
   24.6250  -20.0456  -12.1145 C   0  0  0  0  0  0  0  0  0  0  0  0
   24.6731  -20.9603  -13.2953 C   0  0  0  0  0  0  0  0  0  0  0  0
   24.5870  -20.2544  -14.6150 C   0  0  0  0  0  0  0  0  0  0  0  0
   24.6708  -21.1927  -15.8071 C   0  0  2  0  0  0  0  0  0  0  0  0
   25.9020  -21.9918  -15.6726 N   0  0  0  0  0  0  0  0  0  0  0  0
   24.7239  -20.3946  -17.0582 C   0  0  0  0  0  0  0  0  0  0  0  0
   25.8449  -20.0436  -17.4922 O   0  0  0  0  0  0  0  0  0  0  0  0
   25.3741  -21.7693   -8.6342 N   0  0  0  0  0  0  0  0  0  0  0  0
   23.5573  -20.0212  -17.7718 C   0  0  0  0  0  0  0  0  0  0  0  0
   22.1695  -20.2215  -17.4097 C   0  0  0  0  0  0  0  0  0  0  0  0
   21.4715  -20.4897  -18.7389 C   0  0  0  0  0  0  0  0  0  0  0  0
   22.4507  -20.1045  -19.7984 C   0  0  1  0  0  0  0  0  0  0  0  0
   23.5159  -19.3338  -19.0665 C   0  0  0  0  0  0  0  0  0  0  0  0
   23.1817  -17.9169  -18.8589 O   0  0  0  0  0  0  0  0  0  0  0  0
   23.2335  -16.9657  -19.8583 O   0  0  0  0  0  0  0  0  0  0  0  0
  2  4  1  0
  2  1  1  1
  3  2  1  0
  4  5  1  6
  6  4  1  0
  6  7  2  0
  9  8  1  0
 10  9  2  0
 11  9  1  0
 12 11  1  0
 12 13  1  0
 13 14  1  0
 15 14  1  1
 15 16  1  0
 16  6  1  0
 17 15  1  0
 18 17  2  0
 19 17  1  0
 19 20  1  0
 21 20  1  0
 22 21  1  0
 22 23  1  0
 23 19  1  0
 23 24  1  1
 25 24  1  0
 26 24  2  0
M  END
$$$$
