TRP.pdb
     RDKit          3D

 26 26  0  0  1  0  0  0  0  0999 V2000
   41.7177   -7.7957   -7.9689 C   0  0  0  0  0  0  0  0  0  0  0  0
   42.9459   -8.5416   -7.5591 C   0  0  1  0  0  0  0  0  0  0  0  0
   42.7271   -9.2807   -6.3930 O   0  0  0  0  0  0  0  0  0  0  0  0
   43.3504   -9.5031   -8.6545 C   0  0  2  0  0  0  0  0  0  0  0  0
   42.3200  -10.5122   -8.7266 N   0  0  0  0  0  0  0  0  0  0  0  0
   44.6617  -10.1456   -8.3128 C   0  0  0  0  0  0  0  0  0  0  0  0
   45.6805   -9.4354   -8.1315 O   0  0  0  0  0  0  0  0  0  0  0  0
   43.9211  -18.3543   -6.5881 N   0  0  0  0  0  0  0  0  0  0  0  0
   43.9367  -17.5136   -7.7336 C   0  0  0  0  0  0  0  0  0  0  0  0
   43.5815  -17.9627   -8.9087 N   0  0  0  0  0  0  0  0  0  0  0  0
   44.3294  -16.1570   -7.6588 N   0  0  0  0  0  0  0  0  0  0  0  0
   44.8954  -15.5437   -6.4677 C   0  0  0  0  0  0  0  0  0  0  0  0
   45.1756  -14.0836   -6.6187 C   0  0  0  0  0  0  0  0  0  0  0  0
   45.7805  -13.7140   -7.9396 C   0  0  0  0  0  0  0  0  0  0  0  0
   46.0221  -12.2221   -8.0957 C   0  0  2  0  0  0  0  0  0  0  0  0
   44.7113  -11.5568   -8.2033 N   0  0  0  0  0  0  0  0  0  0  0  0
   46.8122  -11.9784   -9.3291 C   0  0  0  0  0  0  0  0  0  0  0  0
   46.1952  -11.7754  -10.3997 O   0  0  0  0  0  0  0  0  0  0  0  0
   43.6773  -17.3476   -9.7595 N   0  0  0  0  0  0  0  0  0  0  0  0
   48.2297  -11.9670   -9.3341 C   0  0  0  0  0  0  0  0  0  0  0  0
   49.1422  -12.1430   -8.2233 C   0  0  0  0  0  0  0  0  0  0  0  0
   50.3064  -11.2119   -8.5450 C   0  0  0  0  0  0  0  0  0  0  0  0
   50.1271  -10.8137   -9.9729 C   0  0  1  0  0  0  0  0  0  0  0  0
   49.0909  -11.7668  -10.5040 C   0  0  0  0  0  0  0  0  0  0  0  0
   49.6436  -13.0602  -10.9331 O   0  0  0  0  0  0  0  0  0  0  0  0
   50.3453  -13.2385  -12.1087 O   0  0  0  0  0  0  0  0  0  0  0  0
  2  4  1  0
  2  1  1  6
  3  2  1  0
  4  5  1  1
  6  4  1  0
  6  7  2  0
  9  8  1  0
 10  9  2  0
 11  9  1  0
 12 11  1  0
 12 13  1  0
 13 14  1  0
 15 14  1  6
 15 16  1  0
 16  6  1  0
 17 15  1  0
 18 17  2  0
 19 17  1  0
 19 20  1  0
 21 20  1  0
 22 21  1  0
 22 23  1  0
 23 19  1  0
 23 24  1  6
 25 24  1  0
 26 24  2  0
M  END
$$$$
