TRP.pdb
     RDKit          3D

 26 26  0  0  1  0  0  0  0  0999 V2000
   21.7814  -19.8182  -18.7087 C   0  0  0  0  0  0  0  0  0  0  0  0
   20.8159  -18.7274  -18.3762 C   0  0  1  0  0  0  0  0  0  0  0  0
   19.5371  -19.0138  -18.8626 O   0  0  0  0  0  0  0  0  0  0  0  0
   20.7213  -18.5672  -16.8750 C   0  0  2  0  0  0  0  0  0  0  0  0
   19.7408  -17.5368  -16.6254 N   0  0  0  0  0  0  0  0  0  0  0  0
   22.0490  -18.1439  -16.3209 C   0  0  0  0  0  0  0  0  0  0  0  0
   22.4864  -16.9904  -16.5512 O   0  0  0  0  0  0  0  0  0  0  0  0
   26.6763  -21.7519   -9.7379 N   0  0  0  0  0  0  0  0  0  0  0  0
   25.4792  -21.0576  -10.0600 C   0  0  0  0  0  0  0  0  0  0  0  0
   24.4667  -21.0327   -9.2334 N   0  0  0  0  0  0  0  0  0  0  0  0
   25.3263  -20.3590  -11.2802 N   0  0  0  0  0  0  0  0  0  0  0  0
   26.2947  -20.4044  -12.3645 C   0  0  0  0  0  0  0  0  0  0  0  0
   25.9377  -19.5343  -13.5259 C   0  0  0  0  0  0  0  0  0  0  0  0
   24.4878  -19.5882  -13.9029 C   0  0  0  0  0  0  0  0  0  0  0  0
   24.1459  -18.7279  -15.1078 C   0  0  2  0  0  0  0  0  0  0  0  0
   22.7805  -19.0736  -15.5420 N   0  0  0  0  0  0  0  0  0  0  0  0
   25.1082  -19.0108  -16.2027 C   0  0  0  0  0  0  0  0  0  0  0  0
   24.8444  -19.9389  -17.0009 O   0  0  0  0  0  0  0  0  0  0  0  0
   23.5755  -20.5398   -9.5056 N   0  0  0  0  0  0  0  0  0  0  0  0
   26.3049  -18.2703  -16.3733 C   0  0  0  0  0  0  0  0  0  0  0  0
   26.8823  -17.2665  -15.5036 C   0  0  0  0  0  0  0  0  0  0  0  0
   27.5125  -16.2605  -16.4609 C   0  0  0  0  0  0  0  0  0  0  0  0
   27.5315  -16.9264  -17.7973 C   0  0  1  0  0  0  0  0  0  0  0  0
   27.2335  -18.3717  -17.5038 C   0  0  0  0  0  0  0  0  0  0  0  0
   28.4154  -19.1476  -17.0994 O   0  0  0  0  0  0  0  0  0  0  0  0
   28.6226  -19.6098  -15.8149 O   0  0  0  0  0  0  0  0  0  0  0  0
  2  4  1  0
  2  1  1  1
  3  2  1  0
  4  5  1  6
  6  4  1  0
  6  7  2  0
  9  8  1  0
 10  9  2  0
 11  9  1  0
 12 11  1  0
 12 13  1  0
 13 14  1  0
 15 14  1  1
 15 16  1  0
 16  6  1  0
 17 15  1  0
 18 17  2  0
 19 17  1  0
 19 20  1  0
 21 20  1  0
 22 21  1  0
 22 23  1  0
 23 19  1  0
 23 24  1  1
 25 24  1  0
 26 24  2  0
M  END
$$$$
