TRP.pdb
     RDKit          3D

 26 26  0  0  1  0  0  0  0  0999 V2000
   15.1193   -5.1003  -10.7086 C   0  0  0  0  0  0  0  0  0  0  0  0
   15.2717   -5.5321   -9.2863 C   0  0  1  0  0  0  0  0  0  0  0  0
   14.1090   -5.2832   -8.5514 O   0  0  0  0  0  0  0  0  0  0  0  0
   15.5532   -7.0173   -9.2293 C   0  0  2  0  0  0  0  0  0  0  0  0
   15.7058   -7.3607   -7.8349 N   0  0  0  0  0  0  0  0  0  0  0  0
   16.8224   -7.3261   -9.9659 C   0  0  0  0  0  0  0  0  0  0  0  0
   17.9227   -6.9212   -9.5180 O   0  0  0  0  0  0  0  0  0  0  0  0
   17.1819  -13.5010  -15.8024 N   0  0  0  0  0  0  0  0  0  0  0  0
   16.8976  -12.1326  -16.0590 C   0  0  0  0  0  0  0  0  0  0  0  0
   16.2214  -11.7677  -17.1166 N   0  0  0  0  0  0  0  0  0  0  0  0
   17.3244  -11.1049  -15.1863 N   0  0  0  0  0  0  0  0  0  0  0  0
   18.6584  -11.0349  -14.6111 C   0  0  0  0  0  0  0  0  0  0  0  0
   18.8762   -9.8388  -13.7420 C   0  0  0  0  0  0  0  0  0  0  0  0
   17.7223   -9.5262  -12.8375 C   0  0  0  0  0  0  0  0  0  0  0  0
   17.9666   -8.3229  -11.9425 C   0  0  2  0  0  0  0  0  0  0  0  0
   16.7396   -8.0774  -11.1638 N   0  0  0  0  0  0  0  0  0  0  0  0
   18.2733   -7.1385  -12.7841 C   0  0  0  0  0  0  0  0  0  0  0  0
   17.3201   -6.4356  -13.1909 O   0  0  0  0  0  0  0  0  0  0  0  0
   15.9061  -10.7672  -17.2217 N   0  0  0  0  0  0  0  0  0  0  0  0
   19.5983   -6.7799  -13.1380 C   0  0  0  0  0  0  0  0  0  0  0  0
   20.8334   -7.4830  -12.8596 C   0  0  0  0  0  0  0  0  0  0  0  0
   21.8506   -6.3718  -12.6226 C   0  0  0  0  0  0  0  0  0  0  0  0
   21.2002   -5.1152  -13.0997 C   0  0  2  0  0  0  0  0  0  0  0  0
   20.0030   -5.5829  -13.8822 C   0  0  0  0  0  0  0  0  0  0  0  0
   20.3132   -5.9510  -15.2717 O   0  0  0  0  0  0  0  0  0  0  0  0
   20.5108   -5.0288  -16.2800 O   0  0  0  0  0  0  0  0  0  0  0  0
  2  4  1  0
  2  1  1  6
  3  2  1  0
  4  5  1  1
  6  4  1  0
  6  7  2  0
  9  8  1  0
 10  9  2  0
 11  9  1  0
 12 11  1  0
 12 13  1  0
 13 14  1  0
 15 14  1  6
 15 16  1  0
 16  6  1  0
 17 15  1  0
 18 17  2  0
 19 17  1  0
 19 20  1  0
 21 20  1  0
 22 21  1  0
 22 23  1  0
 23 19  1  0
 23 24  1  6
 25 24  1  0
 26 24  2  0
M  END
$$$$
