TRP.pdb
     RDKit          3D

 26 26  0  0  1  0  0  0  0  0999 V2000
224596.7344392750.7812-286775.2500 C   0  0  0  0  0  0  0  0  0  0  0  0
224597.6250392751.3438-286776.4062 C   0  0  1  0  0  0  0  0  0  0  0  0
224598.9531392751.1562-286776.1250 O   0  0  0  0  0  0  0  0  0  0  0  0
224597.2188392750.6250-286777.6562 C   0  0  2  0  0  0  0  0  0  0  0  0
224596.2500392749.6250-286777.5312 N   0  0  0  0  0  0  0  0  0  0  0  0
224598.4375392749.9062-286778.1875 C   0  0  0  0  0  0  0  0  0  0  0  0
224599.0000392750.2188-286779.2500 O   0  0  0  0  0  0  0  0  0  0  0  0
224597.5625392749.8125-286772.8125 N   0  0  0  0  0  0  0  0  0  0  0  0
224598.4844392750.6250-286772.0000 C   0  0  0  0  0  0  0  0  0  0  0  0
224598.0625392750.7812-286770.6875 N   0  0  0  0  0  0  0  0  0  0  0  0
224599.7188392750.8438-286772.2812 N   0  0  0  0  0  0  0  0  0  0  0  0
224600.3281392750.6875-286773.6250 C   0  0  0  0  0  0  0  0  0  0  0  0
224600.6250392749.1875-286773.9062 C   0  0  0  0  0  0  0  0  0  0  0  0
224599.7656392748.7500-286775.0625 C   0  0  0  0  0  0  0  0  0  0  0  0
224600.2188392749.2812-286776.4688 C   0  0  2  0  0  0  0  0  0  0  0  0
224599.0938392748.8750-286777.4375 N   0  0  0  0  0  0  0  0  0  0  0  0
224601.4531392748.5625-286776.8438 C   0  0  0  0  0  0  0  0  0  0  0  0
224601.6406392748.3750-286778.0938 O   0  0  0  0  0  0  0  0  0  0  0  0
224598.7656392751.1562-286770.0000 N   0  0  0  0  0  0  0  0  0  0  0  0
224602.3125392748.0938-286775.9062 C   0  0  0  0  0  0  0  0  0  0  0  0
224603.4844392748.8750-286775.1250 C   0  0  0  0  0  0  0  0  0  0  0  0
224604.6406392747.8438-286775.0625 C   0  0  0  0  0  0  0  0  0  0  0  0
224603.9375392746.5312-286775.4062 C   0  0  2  0  0  0  0  0  0  0  0  0
224602.5312392746.6562-286775.3750 C   0  0  0  0  0  0  0  0  0  0  0  0
224601.9062392746.6562-286774.0000 O   0  0  0  0  0  0  0  0  0  0  0  0
224602.7344392746.7812-286772.8750 O   0  0  0  0  0  0  0  0  0  0  0  0
  2  4  1  0
  2  1  1  1
  3  2  1  0
  4  5  1  1
  6  4  1  0
  6  7  2  0
  9  8  1  0
 10  9  2  0
 11  9  1  0
 12 11  1  0
 12 13  1  0
 13 14  1  0
 15 14  1  1
 15 16  1  0
 16  6  1  0
 17 15  1  0
 18 17  2  0
 19 17  1  0
 19 20  1  0
 21 20  1  0
 22 21  1  0
 22 23  1  0
 23 19  1  0
 23 24  1  1
 25 24  1  0
 26 24  2  0
M  END
$$$$
