SRN.pdb
     RDKit          3D

 26 25  0  0  1  0  0  0  0  0999 V2000
   22.5138   -7.9528  -12.0651 O   0  0  0  0  0  0  0  0  0  0  0  0
   21.1822   -7.8665  -11.7288 C   0  0  0  0  0  0  0  0  0  0  0  0
   20.2520   -7.8732  -12.9038 C   0  0  2  0  0  0  0  0  0  0  0  0
   20.5315   -6.7177  -13.7229 N   0  0  0  0  0  0  0  0  0  0  0  0
   18.8338   -7.9238  -12.5420 C   0  0  0  0  0  0  0  0  0  0  0  0
   18.1363   -6.8830  -12.6504 O   0  0  0  0  0  0  0  0  0  0  0  0
   12.7729  -13.5235   -9.5285 N   0  0  0  0  0  0  0  0  0  0  0  0
   12.0463  -12.7643  -10.4830 C   0  0  0  0  0  0  0  0  0  0  0  0
   10.7469  -12.7571  -10.5073 N   0  0  0  0  0  0  0  0  0  0  0  0
   12.7696  -11.9881  -11.4420 N   0  0  0  0  0  0  0  0  0  0  0  0
   14.2074  -11.9474  -11.4348 C   0  0  0  0  0  0  0  0  0  0  0  0
   14.7202  -10.5319  -11.5000 C   0  0  0  0  0  0  0  0  0  0  0  0
   16.2179  -10.5393  -11.6866 C   0  0  0  0  0  0  0  0  0  0  0  0
   16.7549   -9.1088  -11.7634 C   0  0  2  0  0  0  0  0  0  0  0  0
   18.1665   -9.0851  -12.0660 N   0  0  0  0  0  0  0  0  0  0  0  0
   16.4493   -8.4739  -10.4617 C   0  0  0  0  0  0  0  0  0  0  0  0
   17.2938   -8.5651   -9.5284 O   0  0  0  0  0  0  0  0  0  0  0  0
   10.2442  -12.2105  -11.2399 N   0  0  0  0  0  0  0  0  0  0  0  0
   14.7519   -5.1224   -6.9147 C   0  0  0  0  0  0  0  0  0  0  0  0
   15.8623   -4.9467   -7.7899 O   0  0  0  0  0  0  0  0  0  0  0  0
   16.6168   -3.9870   -7.5344 C   0  0  0  0  0  0  0  0  0  0  0  0
   16.1350   -5.8230   -8.9356 C   0  0  1  0  0  0  0  0  0  0  0  0
   15.1264   -6.9130   -9.0010 N   0  0  0  0  0  0  0  0  0  0  0  0
   15.2721   -7.7623  -10.1696 C   0  0  0  0  0  0  0  0  0  0  0  0
   13.7799   -6.2758   -9.1525 O   0  0  0  0  0  0  0  0  0  0  0  0
   13.2300   -5.5196   -8.3473 O   0  0  0  0  0  0  0  0  0  0  0  0
  2  1  1  0
  3  2  1  0
  3  4  1  1
  5  3  1  0
  5  6  2  0
  7  8  1  0
  8 10  1  0
  8  9  2  0
 10 11  1  0
 11 12  1  0
 12 13  1  0
 14 13  1  1
 14 15  1  0
 15  5  1  0
 16 14  1  0
 17 16  2  0
 18 19  1  0
 19 20  2  0
 19 21  1  0
 22 21  1  1
 22 23  1  0
 22 24  1  0
 23 16  1  0
 24 26  1  0
 25 24  2  0
M  END
$$$$
