SRN.pdb
     RDKit          3D

 26 25  0  0  1  0  0  0  0  0999 V2000
   22.3293  -19.0188  -20.1659 O   0  0  0  0  0  0  0  0  0  0  0  0
   23.5828  -19.5290  -20.4150 C   0  0  0  0  0  0  0  0  0  0  0  0
   23.7944  -20.9170  -19.8912 C   0  0  2  0  0  0  0  0  0  0  0  0
   23.1431  -21.8515  -20.7782 N   0  0  0  0  0  0  0  0  0  0  0  0
   23.3438  -21.1092  -18.5110 C   0  0  0  0  0  0  0  0  0  0  0  0
   22.3951  -21.9019  -18.2810 O   0  0  0  0  0  0  0  0  0  0  0  0
   25.9930  -22.0167  -10.9923 N   0  0  0  0  0  0  0  0  0  0  0  0
   25.0253  -21.1481  -10.4225 C   0  0  0  0  0  0  0  0  0  0  0  0
   24.6573  -21.2530   -9.1804 N   0  0  0  0  0  0  0  0  0  0  0  0
   24.4427  -20.1317  -11.2428 N   0  0  0  0  0  0  0  0  0  0  0  0
   24.9016  -19.9063  -12.5871 C   0  0  0  0  0  0  0  0  0  0  0  0
   23.9349  -20.4614  -13.6011 C   0  0  0  0  0  0  0  0  0  0  0  0
   24.4302  -20.1637  -14.9954 C   0  0  0  0  0  0  0  0  0  0  0  0
   23.4229  -20.6538  -16.0374 C   0  0  2  0  0  0  0  0  0  0  0  0
   23.9081  -20.4543  -17.3826 N   0  0  0  0  0  0  0  0  0  0  0  0
   22.1621  -19.9218  -15.7812 C   0  0  0  0  0  0  0  0  0  0  0  0
   22.1481  -18.6681  -15.9243 O   0  0  0  0  0  0  0  0  0  0  0  0
   24.0342  -20.5294   -8.7606 N   0  0  0  0  0  0  0  0  0  0  0  0
   17.1294  -18.5182  -17.4811 C   0  0  0  0  0  0  0  0  0  0  0  0
   17.6665  -19.0390  -16.2686 O   0  0  0  0  0  0  0  0  0  0  0  0
   17.2223  -18.5439  -15.2135 C   0  0  0  0  0  0  0  0  0  0  0  0
   18.6841  -20.0961  -16.2237 C   0  0  2  0  0  0  0  0  0  0  0  0
   19.7191  -19.7707  -15.2076 N   0  0  0  0  0  0  0  0  0  0  0  0
   20.9521  -20.5173  -15.3829 C   0  0  0  0  0  0  0  0  0  0  0  0
   19.1945  -20.2003  -13.8727 O   0  0  0  0  0  0  0  0  0  0  0  0
   19.6653  -21.0798  -13.1465 O   0  0  0  0  0  0  0  0  0  0  0  0
  2  1  1  0
  3  2  1  0
  3  4  1  6
  5  3  1  0
  5  6  2  0
  7  8  1  0
  8 10  1  0
  8  9  2  0
 10 11  1  0
 11 12  1  0
 12 13  1  0
 14 13  1  1
 14 15  1  0
 15  5  1  0
 16 14  1  0
 17 16  2  0
 18 19  1  0
 19 20  2  0
 19 21  1  0
 22 21  1  6
 22 23  1  0
 22 24  1  0
 23 16  1  0
 24 26  1  0
 25 24  2  0
M  END
$$$$
