SRN.pdb
     RDKit          3D

 26 25  0  0  1  0  0  0  0  0999 V2000
   26.8713  -15.2031  -15.3560 O   0  0  0  0  0  0  0  0  0  0  0  0
   26.2846  -16.4227  -15.1065 C   0  0  0  0  0  0  0  0  0  0  0  0
   27.1993  -17.5937  -15.3012 C   0  0  2  0  0  0  0  0  0  0  0  0
   27.5333  -17.6932  -16.7021 N   0  0  0  0  0  0  0  0  0  0  0  0
   26.6602  -18.8613  -14.8035 C   0  0  0  0  0  0  0  0  0  0  0  0
   25.9730  -19.5794  -15.5739 O   0  0  0  0  0  0  0  0  0  0  0  0
   30.8262  -22.3668   -8.6591 N   0  0  0  0  0  0  0  0  0  0  0  0
   31.2529  -22.3634  -10.0131 C   0  0  0  0  0  0  0  0  0  0  0  0
   32.3115  -23.0109  -10.3996 N   0  0  0  0  0  0  0  0  0  0  0  0
   30.4932  -21.6251  -10.9739 N   0  0  0  0  0  0  0  0  0  0  0  0
   29.1182  -21.2806  -10.7299 C   0  0  0  0  0  0  0  0  0  0  0  0
   28.2593  -21.5460  -11.9393 C   0  0  0  0  0  0  0  0  0  0  0  0
   26.8587  -21.0411  -11.6919 C   0  0  0  0  0  0  0  0  0  0  0  0
   26.2246  -20.5594  -12.9983 C   0  0  2  0  0  0  0  0  0  0  0  0
   26.8571  -19.3565  -13.4857 N   0  0  0  0  0  0  0  0  0  0  0  0
   24.7842  -20.3628  -12.7198 C   0  0  0  0  0  0  0  0  0  0  0  0
   24.4476  -19.6130  -11.7622 O   0  0  0  0  0  0  0  0  0  0  0  0
   32.5949  -22.9908  -11.4032 N   0  0  0  0  0  0  0  0  0  0  0  0
   19.6338  -20.1964  -12.7675 C   0  0  0  0  0  0  0  0  0  0  0  0
   20.2304  -19.7861  -13.9946 O   0  0  0  0  0  0  0  0  0  0  0  0
   19.4784  -19.2091  -14.8052 C   0  0  0  0  0  0  0  0  0  0  0  0
   21.6435  -20.0119  -14.3215 C   0  0  2  0  0  0  0  0  0  0  0  0
   22.3340  -20.6781  -13.1862 N   0  0  0  0  0  0  0  0  0  0  0  0
   23.7356  -20.9536  -13.4471 C   0  0  0  0  0  0  0  0  0  0  0  0
   21.7045  -22.0238  -12.9998 O   0  0  0  0  0  0  0  0  0  0  0  0
   22.2190  -23.1169  -13.2515 O   0  0  0  0  0  0  0  0  0  0  0  0
  2  1  1  0
  3  2  1  0
  3  4  1  6
  5  3  1  0
  5  6  2  0
  7  8  1  0
  8 10  1  0
  8  9  2  0
 10 11  1  0
 11 12  1  0
 12 13  1  0
 14 13  1  1
 14 15  1  0
 15  5  1  0
 16 14  1  0
 17 16  2  0
 18 19  1  0
 19 20  2  0
 19 21  1  0
 22 21  1  1
 22 23  1  0
 22 24  1  0
 23 16  1  0
 24 26  1  0
 25 24  2  0
M  END
$$$$
