SRN.pdb
     RDKit          3D

 26 25  0  0  1  0  0  0  0  0999 V2000
   27.8917  -22.1222  -11.9645 O   0  0  0  0  0  0  0  0  0  0  0  0
   26.7502  -21.3593  -12.0584 C   0  0  0  0  0  0  0  0  0  0  0  0
   26.2647  -21.1533  -13.4611 C   0  0  2  0  0  0  0  0  0  0  0  0
   27.3031  -20.4966  -14.2193 N   0  0  0  0  0  0  0  0  0  0  0  0
   25.0050  -20.4121  -13.5537 C   0  0  0  0  0  0  0  0  0  0  0  0
   24.9076  -19.2955  -12.9833 O   0  0  0  0  0  0  0  0  0  0  0  0
   22.2419  -16.3304  -19.1389 N   0  0  0  0  0  0  0  0  0  0  0  0
   21.2007  -16.9405  -18.3911 C   0  0  0  0  0  0  0  0  0  0  0  0
   19.9891  -17.0327  -18.8523 N   0  0  0  0  0  0  0  0  0  0  0  0
   21.4991  -17.4662  -17.0950 N   0  0  0  0  0  0  0  0  0  0  0  0
   22.6822  -17.0638  -16.3829 C   0  0  0  0  0  0  0  0  0  0  0  0
   23.4205  -18.2519  -15.8224 C   0  0  0  0  0  0  0  0  0  0  0  0
   22.4811  -19.4273  -15.7036 C   0  0  0  0  0  0  0  0  0  0  0  0
   22.6343  -20.0992  -14.3376 C   0  0  2  0  0  0  0  0  0  0  0  0
   23.8548  -20.8661  -14.2549 N   0  0  0  0  0  0  0  0  0  0  0  0
   21.4302  -20.9378  -14.1434 C   0  0  0  0  0  0  0  0  0  0  0  0
   21.3913  -22.0783  -14.6820 O   0  0  0  0  0  0  0  0  0  0  0  0
   19.2440  -17.4733  -18.2704 N   0  0  0  0  0  0  0  0  0  0  0  0
   17.0140  -23.0959  -12.5817 C   0  0  0  0  0  0  0  0  0  0  0  0
   17.8538  -22.6676  -11.5134 O   0  0  0  0  0  0  0  0  0  0  0  0
   17.5754  -23.1143  -10.3826 C   0  0  0  0  0  0  0  0  0  0  0  0
   18.9892  -21.7549  -11.6939 C   0  0  2  0  0  0  0  0  0  0  0  0
   19.1859  -21.4578  -13.1370 N   0  0  0  0  0  0  0  0  0  0  0  0
   20.3009  -20.5638  -13.3936 C   0  0  0  0  0  0  0  0  0  0  0  0
   17.9774  -20.7145  -13.6155 O   0  0  0  0  0  0  0  0  0  0  0  0
   16.8097  -21.1119  -13.5829 O   0  0  0  0  0  0  0  0  0  0  0  0
  2  1  1  0
  3  2  1  0
  3  4  1  6
  5  3  1  0
  5  6  2  0
  7  8  1  0
  8 10  1  0
  8  9  2  0
 10 11  1  0
 11 12  1  0
 12 13  1  0
 14 13  1  6
 14 15  1  0
 15  5  1  0
 16 14  1  0
 17 16  2  0
 18 19  1  0
 19 20  2  0
 19 21  1  0
 22 21  1  6
 22 23  1  0
 22 24  1  0
 23 16  1  0
 24 26  1  0
 25 24  2  0
M  END
$$$$
