SRN.pdb
     RDKit          3D

 26 25  0  0  1  0  0  0  0  0999 V2000
   20.8505  -27.2337  -11.9069 O   0  0  0  0  0  0  0  0  0  0  0  0
   21.2020  -28.1085  -10.9044 C   0  0  0  0  0  0  0  0  0  0  0  0
   20.0647  -28.9352  -10.3861 C   0  0  2  0  0  0  0  0  0  0  0  0
   19.6746  -29.8787  -11.4067 N   0  0  0  0  0  0  0  0  0  0  0  0
   18.9131  -28.1503   -9.9356 C   0  0  0  0  0  0  0  0  0  0  0  0
   17.8754  -28.1222  -10.6454 O   0  0  0  0  0  0  0  0  0  0  0  0
   18.8853  -28.5529   -3.0455 N   0  0  0  0  0  0  0  0  0  0  0  0
   18.1881  -27.3163   -3.0549 C   0  0  0  0  0  0  0  0  0  0  0  0
   18.1853  -26.5234   -2.0251 N   0  0  0  0  0  0  0  0  0  0  0  0
   17.4707  -26.9378   -4.2329 N   0  0  0  0  0  0  0  0  0  0  0  0
   16.6289  -27.8762   -4.9254 C   0  0  0  0  0  0  0  0  0  0  0  0
   16.9460  -27.9206   -6.3979 C   0  0  0  0  0  0  0  0  0  0  0  0
   17.5228  -26.5966   -6.8363 C   0  0  0  0  0  0  0  0  0  0  0  0
   17.7448  -26.5842   -8.3500 C   0  0  2  0  0  0  0  0  0  0  0  0
   18.8746  -27.3990   -8.7295 N   0  0  0  0  0  0  0  0  0  0  0  0
   17.9194  -25.1666   -8.7384 C   0  0  0  0  0  0  0  0  0  0  0  0
   19.0823  -24.6763   -8.7400 O   0  0  0  0  0  0  0  0  0  0  0  0
   17.6368  -25.6366   -2.0540 N   0  0  0  0  0  0  0  0  0  0  0  0
   18.9126  -21.7050  -12.7661 C   0  0  0  0  0  0  0  0  0  0  0  0
   17.8141  -22.0113  -11.9119 O   0  0  0  0  0  0  0  0  0  0  0  0
   16.9516  -21.1194  -11.7847 C   0  0  0  0  0  0  0  0  0  0  0  0
   17.6713  -23.2905  -11.2061 C   0  0  1  0  0  0  0  0  0  0  0  0
   17.0944  -23.0701   -9.8539 N   0  0  0  0  0  0  0  0  0  0  0  0
   16.8773  -24.3002   -9.1137 C   0  0  0  0  0  0  0  0  0  0  0  0
   15.7292  -22.4822  -10.0341 O   0  0  0  0  0  0  0  0  0  0  0  0
   14.7059  -23.0880  -10.3635 O   0  0  0  0  0  0  0  0  0  0  0  0
  2  1  1  0
  3  2  1  0
  3  4  1  6
  5  3  1  0
  5  6  2  0
  7  8  1  0
  8 10  1  0
  8  9  2  0
 10 11  1  0
 11 12  1  0
 12 13  1  0
 14 13  1  1
 14 15  1  0
 15  5  1  0
 16 14  1  0
 17 16  2  0
 18 19  1  0
 19 20  2  0
 19 21  1  0
 22 21  1  1
 22 23  1  0
 22 24  1  0
 23 16  1  0
 24 26  1  0
 25 24  2  0
M  END
$$$$
