SRN.pdb
     RDKit          3D

 26 25  0  0  1  0  0  0  0  0999 V2000
   26.4152  -16.7965  -18.2385 O   0  0  0  0  0  0  0  0  0  0  0  0
   25.8202  -18.0340  -18.3287 C   0  0  0  0  0  0  0  0  0  0  0  0
   26.3991  -19.0609  -17.4034 C   0  0  2  0  0  0  0  0  0  0  0  0
   27.4139  -19.8039  -18.1120 N   0  0  0  0  0  0  0  0  0  0  0  0
   25.4059  -19.9645  -16.8183 C   0  0  0  0  0  0  0  0  0  0  0  0
   25.0719  -20.9993  -17.4499 O   0  0  0  0  0  0  0  0  0  0  0  0
   27.3406  -21.6422  -10.4175 N   0  0  0  0  0  0  0  0  0  0  0  0
   26.0151  -21.1460  -10.3068 C   0  0  0  0  0  0  0  0  0  0  0  0
   25.6704  -20.3155   -9.3684 N   0  0  0  0  0  0  0  0  0  0  0  0
   25.0362  -21.5755  -11.2569 N   0  0  0  0  0  0  0  0  0  0  0  0
   25.3499  -22.5640  -12.2536 C   0  0  0  0  0  0  0  0  0  0  0  0
   25.1420  -22.0288  -13.6469 C   0  0  0  0  0  0  0  0  0  0  0  0
   23.9562  -21.0952  -13.6637 C   0  0  0  0  0  0  0  0  0  0  0  0
   23.6935  -20.5889  -15.0834 C   0  0  2  0  0  0  0  0  0  0  0  0
   24.7740  -19.7592  -15.5616 N   0  0  0  0  0  0  0  0  0  0  0  0
   22.4048  -19.8621  -15.0396 C   0  0  0  0  0  0  0  0  0  0  0  0
   22.3124  -18.8331  -14.3149 O   0  0  0  0  0  0  0  0  0  0  0  0
   24.7037  -19.9243   -9.3505 N   0  0  0  0  0  0  0  0  0  0  0  0
   20.5182  -18.7941  -19.3662 C   0  0  0  0  0  0  0  0  0  0  0  0
   20.2995  -18.4983  -17.9898 O   0  0  0  0  0  0  0  0  0  0  0  0
   20.8940  -17.4977  -17.5416 C   0  0  0  0  0  0  0  0  0  0  0  0
   19.4324  -19.3008  -17.1185 C   0  0  2  0  0  0  0  0  0  0  0  0
   20.0377  -19.4280  -15.7668 N   0  0  0  0  0  0  0  0  0  0  0  0
   21.2491  -20.2285  -15.7520 C   0  0  0  0  0  0  0  0  0  0  0  0
   19.0693  -20.1777  -14.9054 O   0  0  0  0  0  0  0  0  0  0  0  0
   19.2513  -21.2813  -14.3841 O   0  0  0  0  0  0  0  0  0  0  0  0
  2  1  1  0
  3  2  1  0
  3  4  1  6
  5  3  1  0
  5  6  2  0
  7  8  1  0
  8 10  1  0
  8  9  2  0
 10 11  1  0
 11 12  1  0
 12 13  1  0
 14 13  1  1
 14 15  1  0
 15  5  1  0
 16 14  1  0
 17 16  2  0
 18 19  1  0
 19 20  2  0
 19 21  1  0
 22 21  1  6
 22 23  1  0
 22 24  1  0
 23 16  1  0
 24 26  1  0
 25 24  2  0
M  END
$$$$
