SRN.pdb
     RDKit          3D

 26 25  0  0  1  0  0  0  0  0999 V2000
   17.0908  -12.0435  -11.7758 O   0  0  0  0  0  0  0  0  0  0  0  0
   16.3885  -12.1148  -10.5946 C   0  0  0  0  0  0  0  0  0  0  0  0
   15.1185  -11.3192  -10.5879 C   0  0  2  0  0  0  0  0  0  0  0  0
   14.2371  -11.8446  -11.6035 N   0  0  0  0  0  0  0  0  0  0  0  0
   15.3157   -9.8788  -10.7646 C   0  0  0  0  0  0  0  0  0  0  0  0
   15.3232   -9.3995  -11.9272 O   0  0  0  0  0  0  0  0  0  0  0  0
   11.2655   -5.9829   -5.3172 N   0  0  0  0  0  0  0  0  0  0  0  0
   12.2405   -5.0478   -5.7535 C   0  0  0  0  0  0  0  0  0  0  0  0
   12.5034   -3.9674   -5.0805 N   0  0  0  0  0  0  0  0  0  0  0  0
   12.9498   -5.3070   -6.9681 N   0  0  0  0  0  0  0  0  0  0  0  0
   12.7793   -6.5451   -7.6800 C   0  0  0  0  0  0  0  0  0  0  0  0
   13.5169   -6.5328   -8.9940 C   0  0  0  0  0  0  0  0  0  0  0  0
   14.9920   -6.7432   -8.7537 C   0  0  0  0  0  0  0  0  0  0  0  0
   15.6152   -7.5321   -9.9070 C   0  0  2  0  0  0  0  0  0  0  0  0
   15.5041   -8.9566   -9.6994 N   0  0  0  0  0  0  0  0  0  0  0  0
   17.0234   -7.0878  -10.0087 C   0  0  0  0  0  0  0  0  0  0  0  0
   17.8139   -7.3536   -9.0616 O   0  0  0  0  0  0  0  0  0  0  0  0
   13.2135   -3.2925   -5.4386 N   0  0  0  0  0  0  0  0  0  0  0  0
   21.6399   -5.4491  -11.7143 C   0  0  0  0  0  0  0  0  0  0  0  0
   21.2092   -6.8046  -11.7991 O   0  0  0  0  0  0  0  0  0  0  0  0
   22.0925   -7.6467  -12.0565 C   0  0  0  0  0  0  0  0  0  0  0  0
   19.8164   -7.2240  -11.6013 C   0  0  1  0  0  0  0  0  0  0  0  0
   18.9798   -6.0602  -11.2074 N   0  0  0  0  0  0  0  0  0  0  0  0
   17.5677   -6.3788  -11.0943 C   0  0  0  0  0  0  0  0  0  0  0  0
   19.0603   -5.0504  -12.3100 O   0  0  0  0  0  0  0  0  0  0  0  0
   18.1532   -4.7343  -13.0846 O   0  0  0  0  0  0  0  0  0  0  0  0
  2  1  1  0
  3  2  1  0
  3  4  1  6
  5  3  1  0
  5  6  2  0
  7  8  1  0
  8 10  1  0
  8  9  2  0
 10 11  1  0
 11 12  1  0
 12 13  1  0
 14 13  1  1
 14 15  1  0
 15  5  1  0
 16 14  1  0
 17 16  2  0
 18 19  1  0
 19 20  2  0
 19 21  1  0
 22 21  1  1
 22 23  1  0
 22 24  1  0
 23 16  1  0
 24 26  1  0
 25 24  2  0
M  END
$$$$
