SRN.pdb
     RDKit          3D

 26 25  0  0  1  0  0  0  0  0999 V2000
   18.8991  -24.9935  -10.7092 O   0  0  0  0  0  0  0  0  0  0  0  0
   18.7427  -24.6051   -9.3984 C   0  0  0  0  0  0  0  0  0  0  0  0
   18.2972  -23.1843   -9.2294 C   0  0  2  0  0  0  0  0  0  0  0  0
   16.8863  -23.1028   -9.5242 N   0  0  0  0  0  0  0  0  0  0  0  0
   19.0533  -22.2221  -10.0340 C   0  0  0  0  0  0  0  0  0  0  0  0
   18.4293  -21.3710  -10.7178 O   0  0  0  0  0  0  0  0  0  0  0  0
   25.6108  -23.3268  -13.8035 N   0  0  0  0  0  0  0  0  0  0  0  0
   25.8805  -21.9715  -14.1290 C   0  0  0  0  0  0  0  0  0  0  0  0
   26.3815  -21.6295  -15.2784 N   0  0  0  0  0  0  0  0  0  0  0  0
   25.5908  -20.9590  -13.1614 N   0  0  0  0  0  0  0  0  0  0  0  0
   24.8860  -21.2700  -11.9468 C   0  0  0  0  0  0  0  0  0  0  0  0
   23.3937  -21.1808  -12.1359 C   0  0  0  0  0  0  0  0  0  0  0  0
   22.6975  -21.3979  -10.8145 C   0  0  0  0  0  0  0  0  0  0  0  0
   21.1819  -21.2705  -10.9805 C   0  0  2  0  0  0  0  0  0  0  0  0
   20.4722  -22.1728  -10.1049 N   0  0  0  0  0  0  0  0  0  0  0  0
   20.8915  -21.5299  -12.4086 C   0  0  0  0  0  0  0  0  0  0  0  0
   20.9202  -22.7199  -12.8276 O   0  0  0  0  0  0  0  0  0  0  0  0
   26.5961  -20.6276  -15.4739 N   0  0  0  0  0  0  0  0  0  0  0  0
   19.2463  -21.3819  -17.2816 C   0  0  0  0  0  0  0  0  0  0  0  0
   18.6851  -20.2842  -16.5674 O   0  0  0  0  0  0  0  0  0  0  0  0
   17.7872  -19.6481  -17.1547 C   0  0  0  0  0  0  0  0  0  0  0  0
   19.1124  -19.8944  -15.2183 C   0  0  2  0  0  0  0  0  0  0  0  0
   20.1309  -20.8481  -14.7057 N   0  0  0  0  0  0  0  0  0  0  0  0
   20.5797  -20.5417  -13.3592 C   0  0  0  0  0  0  0  0  0  0  0  0
   21.3524  -20.7093  -15.5605 O   0  0  0  0  0  0  0  0  0  0  0  0
   22.3021  -19.9457  -15.3665 O   0  0  0  0  0  0  0  0  0  0  0  0
  2  1  1  0
  3  2  1  0
  3  4  1  6
  5  3  1  0
  5  6  2  0
  7  8  1  0
  8 10  1  0
  8  9  2  0
 10 11  1  0
 11 12  1  0
 12 13  1  0
 14 13  1  6
 14 15  1  0
 15  5  1  0
 16 14  1  0
 17 16  2  0
 18 19  1  0
 19 20  2  0
 19 21  1  0
 22 21  1  1
 22 23  1  0
 22 24  1  0
 23 16  1  0
 24 26  1  0
 25 24  2  0
M  END
$$$$
