SRN.pdb
     RDKit          3D

 26 25  0  0  1  0  0  0  0  0999 V2000
   20.9012  -25.7419  -14.6300 O   0  0  0  0  0  0  0  0  0  0  0  0
   21.6551  -26.5193  -13.7809 C   0  0  0  0  0  0  0  0  0  0  0  0
   20.8674  -27.5542  -13.0363 C   0  0  2  0  0  0  0  0  0  0  0  0
   20.4115  -28.5529  -13.9737 N   0  0  0  0  0  0  0  0  0  0  0  0
   19.7452  -27.0111  -12.2677 C   0  0  0  0  0  0  0  0  0  0  0  0
   18.5701  -27.2639  -12.6374 O   0  0  0  0  0  0  0  0  0  0  0  0
   17.1005  -26.4808   -4.6259 N   0  0  0  0  0  0  0  0  0  0  0  0
   16.4725  -25.3108   -5.1281 C   0  0  0  0  0  0  0  0  0  0  0  0
   15.2025  -25.0898   -4.9622 N   0  0  0  0  0  0  0  0  0  0  0  0
   17.2642  -24.3524   -5.8353 N   0  0  0  0  0  0  0  0  0  0  0  0
   18.3840  -24.7607   -6.6404 C   0  0  0  0  0  0  0  0  0  0  0  0
   17.9848  -24.9639   -8.0792 C   0  0  0  0  0  0  0  0  0  0  0  0
   19.1711  -25.4522   -8.8743 C   0  0  0  0  0  0  0  0  0  0  0  0
   18.7559  -25.7771  -10.3105 C   0  0  2  0  0  0  0  0  0  0  0  0
   19.8825  -26.2007  -11.1080 N   0  0  0  0  0  0  0  0  0  0  0  0
   18.1139  -24.5571  -10.8495 C   0  0  0  0  0  0  0  0  0  0  0  0
   18.8345  -23.5519  -11.1000 O   0  0  0  0  0  0  0  0  0  0  0  0
   14.7817  -24.1982   -5.3028 N   0  0  0  0  0  0  0  0  0  0  0  0
   15.0614  -21.0072  -12.9557 C   0  0  0  0  0  0  0  0  0  0  0  0
   14.4827  -22.2882  -13.1888 O   0  0  0  0  0  0  0  0  0  0  0  0
   13.4898  -22.3135  -13.9433 C   0  0  0  0  0  0  0  0  0  0  0  0
   14.9966  -23.5277  -12.5935 C   0  0  2  0  0  0  0  0  0  0  0  0
   16.1608  -23.2334  -11.7175 N   0  0  0  0  0  0  0  0  0  0  0  0
   16.7392  -24.4194  -11.1116 C   0  0  0  0  0  0  0  0  0  0  0  0
   15.6658  -22.4142  -10.5660 O   0  0  0  0  0  0  0  0  0  0  0  0
   15.2505  -22.8412   -9.4854 O   0  0  0  0  0  0  0  0  0  0  0  0
  2  1  1  0
  3  2  1  0
  3  4  1  6
  5  3  1  0
  5  6  2  0
  7  8  1  0
  8 10  1  0
  8  9  2  0
 10 11  1  0
 11 12  1  0
 12 13  1  0
 14 13  1  1
 14 15  1  0
 15  5  1  0
 16 14  1  0
 17 16  2  0
 18 19  1  0
 19 20  2  0
 19 21  1  0
 22 21  1  6
 22 23  1  0
 22 24  1  0
 23 16  1  0
 24 26  1  0
 25 24  2  0
M  END
$$$$
