SRN.pdb
     RDKit          3D

 26 25  0  0  1  0  0  0  0  0999 V2000
   29.4632  -10.3369  -16.7634 O   0  0  0  0  0  0  0  0  0  0  0  0
   28.2070   -9.7768  -16.8081 C   0  0  0  0  0  0  0  0  0  0  0  0
   27.2679  -10.4538  -17.7598 C   0  0  2  0  0  0  0  0  0  0  0  0
   27.7778  -10.3007  -19.1017 N   0  0  0  0  0  0  0  0  0  0  0  0
   25.8848   -9.9803  -17.6715 C   0  0  0  0  0  0  0  0  0  0  0  0
   25.4962   -9.0747  -18.4527 O   0  0  0  0  0  0  0  0  0  0  0  0
   18.1177  -13.4994  -14.9704 N   0  0  0  0  0  0  0  0  0  0  0  0
   17.8308  -12.4657  -15.9001 C   0  0  0  0  0  0  0  0  0  0  0  0
   16.6501  -12.3240  -16.4245 N   0  0  0  0  0  0  0  0  0  0  0  0
   18.8738  -11.5581  -16.2661 N   0  0  0  0  0  0  0  0  0  0  0  0
   20.2548  -11.8699  -16.0124 C   0  0  0  0  0  0  0  0  0  0  0  0
   21.1635  -10.7517  -16.4535 C   0  0  0  0  0  0  0  0  0  0  0  0
   22.6038  -11.1871  -16.3352 C   0  0  0  0  0  0  0  0  0  0  0  0
   23.5419  -10.0543  -16.7563 C   0  0  2  0  0  0  0  0  0  0  0  0
   24.9228  -10.4758  -16.7497 N   0  0  0  0  0  0  0  0  0  0  0  0
   23.2930   -8.9326  -15.8231 C   0  0  0  0  0  0  0  0  0  0  0  0
   23.7467   -9.0083  -14.6480 O   0  0  0  0  0  0  0  0  0  0  0  0
   16.4722  -11.5512  -17.1022 N   0  0  0  0  0  0  0  0  0  0  0  0
   21.4650   -4.5837  -13.6038 C   0  0  0  0  0  0  0  0  0  0  0  0
   22.2547   -4.3136  -14.7585 O   0  0  0  0  0  0  0  0  0  0  0  0
   22.5809   -3.1227  -14.9348 C   0  0  0  0  0  0  0  0  0  0  0  0
   22.6790   -5.3496  -15.7080 C   0  0  1  0  0  0  0  0  0  0  0  0
   22.3333   -6.6979  -15.1864 N   0  0  0  0  0  0  0  0  0  0  0  0
   22.5781   -7.7642  -16.1411 C   0  0  0  0  0  0  0  0  0  0  0  0
   20.8556   -6.7260  -14.9470 O   0  0  0  0  0  0  0  0  0  0  0  0
   19.9850   -7.0426  -15.7622 O   0  0  0  0  0  0  0  0  0  0  0  0
  2  1  1  0
  3  2  1  0
  3  4  1  6
  5  3  1  0
  5  6  2  0
  7  8  1  0
  8 10  1  0
  8  9  2  0
 10 11  1  0
 11 12  1  0
 12 13  1  0
 14 13  1  1
 14 15  1  0
 15  5  1  0
 16 14  1  0
 17 16  2  0
 18 19  1  0
 19 20  2  0
 19 21  1  0
 22 21  1  1
 22 23  1  0
 22 24  1  0
 23 16  1  0
 24 26  1  0
 25 24  2  0
M  END
$$$$
