SRN.pdb
     RDKit          3D

 26 25  0  0  1  0  0  0  0  0999 V2000
   27.2257  -12.4707  -15.6465 O   0  0  0  0  0  0  0  0  0  0  0  0
   26.3214  -11.4599  -15.8797 C   0  0  0  0  0  0  0  0  0  0  0  0
   25.1365  -11.8748  -16.6980 C   0  0  2  0  0  0  0  0  0  0  0  0
   25.5995  -12.3245  -17.9893 N   0  0  0  0  0  0  0  0  0  0  0  0
   24.1180  -10.8326  -16.8445 C   0  0  0  0  0  0  0  0  0  0  0  0
   24.0563  -10.1829  -17.9194 O   0  0  0  0  0  0  0  0  0  0  0  0
   16.5023  -12.7071  -14.4532 N   0  0  0  0  0  0  0  0  0  0  0  0
   17.0553  -13.1985  -15.6648 C   0  0  0  0  0  0  0  0  0  0  0  0
   16.5084  -14.1791  -16.3196 N   0  0  0  0  0  0  0  0  0  0  0  0
   18.2472  -12.5941  -16.1741 N   0  0  0  0  0  0  0  0  0  0  0  0
   18.8593  -11.4770  -15.5062 C   0  0  0  0  0  0  0  0  0  0  0  0
   20.1409  -11.0636  -16.1826 C   0  0  0  0  0  0  0  0  0  0  0  0
   20.8083   -9.9686  -15.3867 C   0  0  0  0  0  0  0  0  0  0  0  0
   22.1101   -9.5331  -16.0623 C   0  0  2  0  0  0  0  0  0  0  0  0
   23.1699  -10.4887  -15.8427 N   0  0  0  0  0  0  0  0  0  0  0  0
   22.4390   -8.1957  -15.5200 C   0  0  0  0  0  0  0  0  0  0  0  0
   23.0147   -8.1196  -14.3996 O   0  0  0  0  0  0  0  0  0  0  0  0
   16.9488  -14.5254  -17.1995 N   0  0  0  0  0  0  0  0  0  0  0  0
   23.5935   -2.3434  -16.6631 C   0  0  0  0  0  0  0  0  0  0  0  0
   22.8016   -3.3021  -15.9675 O   0  0  0  0  0  0  0  0  0  0  0  0
   22.5029   -3.0179  -14.7904 C   0  0  0  0  0  0  0  0  0  0  0  0
   22.3453   -4.5617  -16.5676 C   0  0  1  0  0  0  0  0  0  0  0  0
   22.5383   -5.6854  -15.6138 N   0  0  0  0  0  0  0  0  0  0  0  0
   22.1583   -6.9757  -16.1605 C   0  0  0  0  0  0  0  0  0  0  0  0
   21.6085   -5.4659  -14.4609 O   0  0  0  0  0  0  0  0  0  0  0  0
   20.4108   -5.7593  -14.4167 O   0  0  0  0  0  0  0  0  0  0  0  0
  2  1  1  0
  3  2  1  0
  3  4  1  6
  5  3  1  0
  5  6  2  0
  7  8  1  0
  8 10  1  0
  8  9  2  0
 10 11  1  0
 11 12  1  0
 12 13  1  0
 14 13  1  1
 14 15  1  0
 15  5  1  0
 16 14  1  0
 17 16  2  0
 18 19  1  0
 19 20  2  0
 19 21  1  0
 22 21  1  6
 22 23  1  0
 22 24  1  0
 23 16  1  0
 24 26  1  0
 25 24  2  0
M  END
$$$$
