SRN.pdb
     RDKit          3D

 26 25  0  0  1  0  0  0  0  0999 V2000
   19.7458  -29.4565  -16.0071 O   0  0  0  0  0  0  0  0  0  0  0  0
   20.9823  -30.0240  -16.2142 C   0  0  0  0  0  0  0  0  0  0  0  0
   21.9331  -29.8558  -15.0681 C   0  0  2  0  0  0  0  0  0  0  0  0
   21.5444  -30.7549  -14.0076 N   0  0  0  0  0  0  0  0  0  0  0  0
   22.0346  -28.4810  -14.5737 C   0  0  0  0  0  0  0  0  0  0  0  0
   21.5203  -28.1895  -13.4637 O   0  0  0  0  0  0  0  0  0  0  0  0
   27.6076  -22.3400  -16.6466 N   0  0  0  0  0  0  0  0  0  0  0  0
   27.4966  -23.7160  -16.3150 C   0  0  0  0  0  0  0  0  0  0  0  0
   28.4398  -24.5660  -16.5924 N   0  0  0  0  0  0  0  0  0  0  0  0
   26.3117  -24.1736  -15.6577 N   0  0  0  0  0  0  0  0  0  0  0  0
   25.3034  -23.2495  -15.2124 C   0  0  0  0  0  0  0  0  0  0  0  0
   24.1004  -23.9691  -14.6592 C   0  0  0  0  0  0  0  0  0  0  0  0
   24.0220  -25.3579  -15.2448 C   0  0  0  0  0  0  0  0  0  0  0  0
   22.7702  -26.0805  -14.7433 C   0  0  2  0  0  0  0  0  0  0  0  0
   22.6847  -27.4235  -15.2664 N   0  0  0  0  0  0  0  0  0  0  0  0
   21.6141  -25.2474  -15.1441 C   0  0  0  0  0  0  0  0  0  0  0  0
   21.2546  -25.2494  -16.3537 O   0  0  0  0  0  0  0  0  0  0  0  0
   28.3165  -25.5742  -16.3551 N   0  0  0  0  0  0  0  0  0  0  0  0
   16.4473  -22.3319  -13.3224 C   0  0  0  0  0  0  0  0  0  0  0  0
   17.5265  -22.7690  -14.1434 O   0  0  0  0  0  0  0  0  0  0  0  0
   17.4410  -22.4924  -15.3566 C   0  0  0  0  0  0  0  0  0  0  0  0
   18.6878  -23.5044  -13.6280 C   0  0  2  0  0  0  0  0  0  0  0  0
   19.7063  -23.6724  -14.6976 N   0  0  0  0  0  0  0  0  0  0  0  0
   20.8660  -24.4359  -14.2729 C   0  0  0  0  0  0  0  0  0  0  0  0
   20.2400  -22.3141  -15.0324 O   0  0  0  0  0  0  0  0  0  0  0  0
   21.2807  -21.8076  -14.6045 O   0  0  0  0  0  0  0  0  0  0  0  0
  2  1  1  0
  3  2  1  0
  3  4  1  1
  5  3  1  0
  5  6  2  0
  7  8  1  0
  8 10  1  0
  8  9  2  0
 10 11  1  0
 11 12  1  0
 12 13  1  0
 14 13  1  6
 14 15  1  0
 15  5  1  0
 16 14  1  0
 17 16  2  0
 18 19  1  0
 19 20  2  0
 19 21  1  0
 22 21  1  6
 22 23  1  0
 22 24  1  0
 23 16  1  0
 24 26  1  0
 25 24  2  0
M  END
$$$$
