SRN.pdb
     RDKit          3D

 26 25  0  0  1  0  0  0  0  0999 V2000
   23.1820  -21.3946  -11.1419 O   0  0  0  0  0  0  0  0  0  0  0  0
   24.4592  -21.8271  -10.8672 C   0  0  0  0  0  0  0  0  0  0  0  0
   25.5004  -20.7524  -10.9475 C   0  0  2  0  0  0  0  0  0  0  0  0
   25.3122  -19.8411   -9.8438 N   0  0  0  0  0  0  0  0  0  0  0  0
   25.5156  -20.0303  -12.2216 C   0  0  0  0  0  0  0  0  0  0  0  0
   24.8915  -18.9427  -12.3169 O   0  0  0  0  0  0  0  0  0  0  0  0
   30.5743  -23.3259  -18.0429 N   0  0  0  0  0  0  0  0  0  0  0  0
   29.7917  -24.1593  -17.2011 C   0  0  0  0  0  0  0  0  0  0  0  0
   29.9344  -25.4510  -17.1915 N   0  0  0  0  0  0  0  0  0  0  0  0
   28.8209  -23.5549  -16.3422 N   0  0  0  0  0  0  0  0  0  0  0  0
   28.5801  -22.1372  -16.3723 C   0  0  0  0  0  0  0  0  0  0  0  0
   27.4030  -21.7585  -15.5112 C   0  0  0  0  0  0  0  0  0  0  0  0
   27.1097  -20.2860  -15.6659 C   0  0  0  0  0  0  0  0  0  0  0  0
   26.0248  -19.8497  -14.6793 C   0  0  2  0  0  0  0  0  0  0  0  0
   26.1970  -20.4724  -13.3882 N   0  0  0  0  0  0  0  0  0  0  0  0
   24.7267  -20.1958  -15.3007 C   0  0  0  0  0  0  0  0  0  0  0  0
   24.0349  -21.1183  -14.7880 O   0  0  0  0  0  0  0  0  0  0  0  0
   29.2963  -26.0397  -16.6133 N   0  0  0  0  0  0  0  0  0  0  0  0
   20.0175  -19.4790  -16.7204 C   0  0  0  0  0  0  0  0  0  0  0  0
   20.6286  -19.2503  -15.4538 O   0  0  0  0  0  0  0  0  0  0  0  0
   19.8568  -19.1735  -14.4771 C   0  0  0  0  0  0  0  0  0  0  0  0
   22.0780  -19.1080  -15.2697 C   0  0  2  0  0  0  0  0  0  0  0  0
   22.7781  -19.2457  -16.5737 N   0  0  0  0  0  0  0  0  0  0  0  0
   24.1868  -19.5709  -16.4389 C   0  0  0  0  0  0  0  0  0  0  0  0
   22.7536  -17.9074  -17.2447 O   0  0  0  0  0  0  0  0  0  0  0  0
   22.0462  -17.5775  -18.2004 O   0  0  0  0  0  0  0  0  0  0  0  0
  2  1  1  0
  3  2  1  0
  3  4  1  1
  5  3  1  0
  5  6  2  0
  7  8  1  0
  8 10  1  0
  8  9  2  0
 10 11  1  0
 11 12  1  0
 12 13  1  0
 14 13  1  6
 14 15  1  0
 15  5  1  0
 16 14  1  0
 17 16  2  0
 18 19  1  0
 19 20  2  0
 19 21  1  0
 22 21  1  6
 22 23  1  0
 22 24  1  0
 23 16  1  0
 24 26  1  0
 25 24  2  0
M  END
$$$$
