VTP.pdb
     RDKit          3D

 22 22  0  0  1  0  0  0  0  0999 V2000
   13.6469  -17.1273   21.8538 C   0  0  0  0  0  0  0  0  0  0  0  0
   12.4997  -18.0969   21.6963 C   0  0  2  0  0  0  0  0  0  0  0  0
   12.9162  -19.3116   20.9289 C   0  0  0  0  0  0  0  0  0  0  0  0
   11.3360  -17.4429   21.0110 C   0  0  2  0  0  0  0  0  0  0  0  0
   11.7785  -16.8388   19.7501 N   0  0  0  0  0  0  0  0  0  0  0  0
   10.7666  -16.3307   21.8275 C   0  0  0  0  0  0  0  0  0  0  0  0
   11.3617  -15.2288   21.7810 O   0  0  0  0  0  0  0  0  0  0  0  0
    7.2820  -14.7179   21.7438 C   0  0  0  0  0  0  0  0  0  0  0  0
    7.5393  -15.2453   23.1423 C   0  0  1  0  0  0  0  0  0  0  0  0
    6.8382  -16.3935   23.4166 O   0  0  0  0  0  0  0  0  0  0  0  0
    9.0145  -15.3503   23.3620 C   0  0  2  0  0  0  0  0  0  0  0  0
    9.6295  -16.4348   22.6295 N   0  0  0  0  0  0  0  0  0  0  0  0
    9.3516  -15.4152   24.8053 C   0  0  0  0  0  0  0  0  0  0  0  0
    9.9555  -16.4724   25.1985 O   0  0  0  0  0  0  0  0  0  0  0  0
    9.0876  -14.4538   25.7811 N   0  0  0  0  0  0  0  0  0  0  0  0
    8.4306  -13.1808   25.5897 C   0  0  0  0  0  0  0  0  0  0  0  0
    9.0791  -12.2676   26.6389 C   0  0  0  0  0  0  0  0  0  0  0  0
    9.1075  -13.2267   27.8264 C   0  0  0  0  0  0  0  0  0  0  0  0
    9.4464  -14.5374   27.1807 C   0  0  1  0  0  0  0  0  0  0  0  0
    8.6745  -15.6081   27.8622 C   0  0  0  0  0  0  0  0  0  0  0  0
    9.0809  -16.0075   29.1251 O   0  0  0  0  0  0  0  0  0  0  0  0
    7.6892  -16.1495   27.3426 O   0  0  0  0  0  0  0  0  0  0  0  0
  2  1  1  6
  2  3  1  0
  4  2  1  0
  4  6  1  0
  4  5  1  6
  6  7  2  0
  9  8  1  6
  9 11  1  0
 10  9  1  0
 11 13  1  0
 11 12  1  6
 12  6  1  0
 13 14  2  0
 13 15  1  0
 15 19  1  0
 16 15  1  0
 17 16  1  0
 18 17  1  0
 18 19  1  0
 19 20  1  1
 20 22  2  0
 20 21  1  0
M  END
$$$$
