VTP.pdb
     RDKit          3D

 22 22  0  0  1  0  0  0  0  0999 V2000
    7.4761  -26.2758   17.6537 C   0  0  0  0  0  0  0  0  0  0  0  0
    8.8837  -25.7650   17.8506 C   0  0  2  0  0  0  0  0  0  0  0  0
    9.1445  -25.4299   19.2850 C   0  0  0  0  0  0  0  0  0  0  0  0
    9.1396  -24.5578   16.9969 C   0  0  2  0  0  0  0  0  0  0  0  0
    9.0863  -24.9320   15.5801 N   0  0  0  0  0  0  0  0  0  0  0  0
   10.5030  -23.9957   17.2276 C   0  0  0  0  0  0  0  0  0  0  0  0
   11.4768  -24.7336   16.9487 O   0  0  0  0  0  0  0  0  0  0  0  0
   12.4052  -21.3914   15.5270 C   0  0  0  0  0  0  0  0  0  0  0  0
   12.2581  -20.9231   16.9620 C   0  0  1  0  0  0  0  0  0  0  0  0
   11.3053  -19.9453   17.1087 O   0  0  0  0  0  0  0  0  0  0  0  0
   12.0696  -22.1125   17.8481 C   0  0  2  0  0  0  0  0  0  0  0  0
   10.7624  -22.7189   17.7269 N   0  0  0  0  0  0  0  0  0  0  0  0
   12.3898  -21.8000   19.2626 C   0  0  0  0  0  0  0  0  0  0  0  0
   11.4116  -21.4173   19.9931 O   0  0  0  0  0  0  0  0  0  0  0  0
   13.6351  -21.8786   19.8867 N   0  0  0  0  0  0  0  0  0  0  0  0
   14.8634  -22.3787   19.3125 C   0  0  0  0  0  0  0  0  0  0  0  0
   15.6156  -22.9764   20.5093 C   0  0  0  0  0  0  0  0  0  0  0  0
   15.3491  -21.8871   21.5454 C   0  0  0  0  0  0  0  0  0  0  0  0
   13.9323  -21.4936   21.2498 C   0  0  1  0  0  0  0  0  0  0  0  0
   13.8091  -20.0235   21.4236 C   0  0  0  0  0  0  0  0  0  0  0  0
   13.8758  -19.5066   22.7074 O   0  0  0  0  0  0  0  0  0  0  0  0
   13.6503  -19.2529   20.4670 O   0  0  0  0  0  0  0  0  0  0  0  0
  2  1  1  1
  2  3  1  0
  4  2  1  0
  4  6  1  0
  4  5  1  6
  6  7  2  0
  9  8  1  6
  9 11  1  0
 10  9  1  0
 11 13  1  0
 11 12  1  1
 12  6  1  0
 13 14  2  0
 13 15  1  0
 15 19  1  0
 16 15  1  0
 17 16  1  0
 18 17  1  0
 18 19  1  0
 19 20  1  6
 20 22  2  0
 20 21  1  0
M  END
$$$$
