VTP.pdb
     RDKit          3D

 22 22  0  0  1  0  0  0  0  0999 V2000
   12.6048  -13.6396   20.5722 C   0  0  0  0  0  0  0  0  0  0  0  0
   12.2714  -15.1122   20.5388 C   0  0  2  0  0  0  0  0  0  0  0  0
   13.2320  -15.8677   19.6760 C   0  0  0  0  0  0  0  0  0  0  0  0
   10.8712  -15.3332   20.0464 C   0  0  2  0  0  0  0  0  0  0  0  0
   10.7483  -14.8498   18.6675 N   0  0  0  0  0  0  0  0  0  0  0  0
    9.8748  -14.5628   20.8475 C   0  0  0  0  0  0  0  0  0  0  0  0
    9.6217  -13.3952   20.4690 O   0  0  0  0  0  0  0  0  0  0  0  0
    6.4473  -14.5478   20.9088 C   0  0  0  0  0  0  0  0  0  0  0  0
    6.7860  -14.9174   22.3401 C   0  0  1  0  0  0  0  0  0  0  0  0
    6.6215  -16.2558   22.5985 O   0  0  0  0  0  0  0  0  0  0  0  0
    8.1406  -14.3813   22.6765 C   0  0  2  0  0  0  0  0  0  0  0  0
    9.2143  -15.0501   21.9759 N   0  0  0  0  0  0  0  0  0  0  0  0
    8.3782  -14.3685   24.1409 C   0  0  0  0  0  0  0  0  0  0  0  0
    9.3259  -15.1151   24.5671 O   0  0  0  0  0  0  0  0  0  0  0  0
    7.6879  -13.6332   25.1048 N   0  0  0  0  0  0  0  0  0  0  0  0
    6.6201  -12.6870   24.8743 C   0  0  0  0  0  0  0  0  0  0  0  0
    6.7834  -11.6613   26.0041 C   0  0  0  0  0  0  0  0  0  0  0  0
    7.0664  -12.6089   27.1673 C   0  0  0  0  0  0  0  0  0  0  0  0
    7.9281  -13.6592   26.5317 C   0  0  1  0  0  0  0  0  0  0  0  0
    7.5589  -14.9781   27.1070 C   0  0  0  0  0  0  0  0  0  0  0  0
    8.0688  -15.3180   28.3496 O   0  0  0  0  0  0  0  0  0  0  0  0
    6.8173  -15.7755   26.5169 O   0  0  0  0  0  0  0  0  0  0  0  0
  2  1  1  6
  2  3  1  0
  4  2  1  0
  4  6  1  0
  4  5  1  6
  6  7  2  0
  9  8  1  6
  9 11  1  0
 10  9  1  0
 11 13  1  0
 11 12  1  6
 12  6  1  0
 13 14  2  0
 13 15  1  0
 15 19  1  0
 16 15  1  0
 17 16  1  0
 18 17  1  0
 18 19  1  0
 19 20  1  1
 20 22  2  0
 20 21  1  0
M  END
$$$$
