VTP.pdb
     RDKit          3D

 22 22  0  0  1  0  0  0  0  0999 V2000
   12.0744  -17.3330   26.2260 C   0  0  0  0  0  0  0  0  0  0  0  0
   11.3642  -18.3453   25.3590 C   0  0  2  0  0  0  0  0  0  0  0  0
   12.0358  -19.6805   25.4208 C   0  0  0  0  0  0  0  0  0  0  0  0
   11.3006  -17.8791   23.9341 C   0  0  2  0  0  0  0  0  0  0  0  0
   12.6568  -17.7700   23.3870 N   0  0  0  0  0  0  0  0  0  0  0  0
   10.6968  -16.5186   23.8232 C   0  0  0  0  0  0  0  0  0  0  0  0
   11.4779  -15.5417   23.9028 O   0  0  0  0  0  0  0  0  0  0  0  0
    6.8019  -15.8512   22.3046 C   0  0  0  0  0  0  0  0  0  0  0  0
    7.8904  -14.7952   22.2997 C   0  0  1  0  0  0  0  0  0  0  0  0
    7.4019  -13.5267   22.1055 O   0  0  0  0  0  0  0  0  0  0  0  0
    8.7337  -14.9558   23.5239 C   0  0  2  0  0  0  0  0  0  0  0  0
    9.3372  -16.2648   23.6391 N   0  0  0  0  0  0  0  0  0  0  0  0
    7.9888  -14.5953   24.7552 C   0  0  0  0  0  0  0  0  0  0  0  0
    7.6413  -15.5672   25.5114 O   0  0  0  0  0  0  0  0  0  0  0  0
    7.6271  -13.3177   25.1832 N   0  0  0  0  0  0  0  0  0  0  0  0
    7.8057  -12.0780   24.4620 C   0  0  0  0  0  0  0  0  0  0  0  0
    8.0168  -11.0338   25.5667 C   0  0  0  0  0  0  0  0  0  0  0  0
    6.9441  -11.4886   26.5533 C   0  0  0  0  0  0  0  0  0  0  0  0
    7.0203  -12.9833   26.4538 C   0  0  1  0  0  0  0  0  0  0  0  0
    5.6415  -13.5289   26.5421 C   0  0  0  0  0  0  0  0  0  0  0  0
    4.9947  -13.4827   27.7665 O   0  0  0  0  0  0  0  0  0  0  0  0
    5.0577  -14.0189   25.5658 O   0  0  0  0  0  0  0  0  0  0  0  0
  2  1  1  1
  2  3  1  0
  4  2  1  0
  4  6  1  0
  4  5  1  1
  6  7  2  0
  9  8  1  1
  9 11  1  0
 10  9  1  0
 11 13  1  0
 11 12  1  1
 12  6  1  0
 13 14  2  0
 13 15  1  0
 15 19  1  0
 16 15  1  0
 17 16  1  0
 18 17  1  0
 18 19  1  0
 19 20  1  6
 20 22  2  0
 20 21  1  0
M  END
$$$$
