VTP.pdb
     RDKit          3D

 22 22  0  0  1  0  0  0  0  0999 V2000
   13.1253  -19.3869   23.5544 C   0  0  0  0  0  0  0  0  0  0  0  0
   12.3473  -18.1137   23.7881 C   0  0  2  0  0  0  0  0  0  0  0  0
   11.3892  -18.2635   24.9271 C   0  0  0  0  0  0  0  0  0  0  0  0
   11.6001  -17.7081   22.5516 C   0  0  2  0  0  0  0  0  0  0  0  0
   12.5490  -17.4115   21.4736 N   0  0  0  0  0  0  0  0  0  0  0  0
   10.8112  -16.4593   22.7663 C   0  0  0  0  0  0  0  0  0  0  0  0
   11.4568  -15.4153   23.0190 O   0  0  0  0  0  0  0  0  0  0  0  0
    6.8557  -13.6641   22.2123 C   0  0  0  0  0  0  0  0  0  0  0  0
    7.5080  -15.0129   21.9771 C   0  0  1  0  0  0  0  0  0  0  0  0
    7.8466  -15.2195   20.6625 O   0  0  0  0  0  0  0  0  0  0  0  0
    8.6353  -15.1866   22.9439 C   0  0  2  0  0  0  0  0  0  0  0  0
    9.4196  -16.3778   22.7051 N   0  0  0  0  0  0  0  0  0  0  0  0
    8.1676  -15.1220   24.3503 C   0  0  0  0  0  0  0  0  0  0  0  0
    8.0748  -16.2388   24.9678 O   0  0  0  0  0  0  0  0  0  0  0  0
    7.8205  -13.9823   25.0763 N   0  0  0  0  0  0  0  0  0  0  0  0
    7.7923  -12.6207   24.5927 C   0  0  0  0  0  0  0  0  0  0  0  0
    8.1459  -11.7813   25.8279 C   0  0  0  0  0  0  0  0  0  0  0  0
    7.3023  -12.5042   26.8751 C   0  0  0  0  0  0  0  0  0  0  0  0
    7.4425  -13.9423   26.4726 C   0  0  1  0  0  0  0  0  0  0  0  0
    6.1368  -14.6175   26.6874 C   0  0  0  0  0  0  0  0  0  0  0  0
    5.7855  -14.9707   27.9802 O   0  0  0  0  0  0  0  0  0  0  0  0
    5.3602  -14.8722   25.7567 O   0  0  0  0  0  0  0  0  0  0  0  0
  2  1  1  6
  2  3  1  0
  4  2  1  0
  4  6  1  0
  4  5  1  6
  6  7  2  0
  9  8  1  6
  9 11  1  0
 10  9  1  0
 11 13  1  0
 11 12  1  6
 12  6  1  0
 13 14  2  0
 13 15  1  0
 15 19  1  0
 16 15  1  0
 17 16  1  0
 18 17  1  0
 18 19  1  0
 19 20  1  6
 20 22  2  0
 20 21  1  0
M  END
$$$$
