VTP.pdb
     RDKit          3D

 22 22  0  0  1  0  0  0  0  0999 V2000
   13.0305  -16.8938   23.3972 C   0  0  0  0  0  0  0  0  0  0  0  0
   12.0953  -17.9664   22.8914 C   0  0  2  0  0  0  0  0  0  0  0  0
   12.8518  -19.1599   22.4006 C   0  0  0  0  0  0  0  0  0  0  0  0
   11.2195  -17.4388   21.7930 C   0  0  2  0  0  0  0  0  0  0  0  0
   12.0465  -17.0247   20.6550 N   0  0  0  0  0  0  0  0  0  0  0  0
   10.4647  -16.2246   22.2220 C   0  0  0  0  0  0  0  0  0  0  0  0
   11.0783  -15.1323   22.1885 O   0  0  0  0  0  0  0  0  0  0  0  0
    7.2061  -14.5436   20.9519 C   0  0  0  0  0  0  0  0  0  0  0  0
    7.0354  -14.9746   22.3959 C   0  0  1  0  0  0  0  0  0  0  0  0
    6.2681  -16.1056   22.5277 O   0  0  0  0  0  0  0  0  0  0  0  0
    8.3801  -15.0567   23.0444 C   0  0  2  0  0  0  0  0  0  0  0  0
    9.1374  -16.2246   22.6526 N   0  0  0  0  0  0  0  0  0  0  0  0
    8.2857  -14.9458   24.5208 C   0  0  0  0  0  0  0  0  0  0  0  0
    8.8549  -15.8720   25.1955 O   0  0  0  0  0  0  0  0  0  0  0  0
    7.6495  -13.9456   25.2564 N   0  0  0  0  0  0  0  0  0  0  0  0
    6.9753  -12.7793   24.7330 C   0  0  0  0  0  0  0  0  0  0  0  0
    7.1847  -11.7128   25.8166 C   0  0  0  0  0  0  0  0  0  0  0  0
    6.9280  -12.5611   27.0597 C   0  0  0  0  0  0  0  0  0  0  0  0
    7.5634  -13.8711   26.6991 C   0  0  1  0  0  0  0  0  0  0  0  0
    6.7153  -14.9660   27.2363 C   0  0  0  0  0  0  0  0  0  0  0  0
    6.8541  -15.3088   28.5715 O   0  0  0  0  0  0  0  0  0  0  0  0
    5.8962  -15.5760   26.5355 O   0  0  0  0  0  0  0  0  0  0  0  0
  2  1  1  6
  2  3  1  0
  4  2  1  0
  4  6  1  0
  4  5  1  6
  6  7  2  0
  9  8  1  6
  9 11  1  0
 10  9  1  0
 11 13  1  0
 11 12  1  1
 12  6  1  0
 13 14  2  0
 13 15  1  0
 15 19  1  0
 16 15  1  0
 17 16  1  0
 18 17  1  0
 18 19  1  0
 19 20  1  6
 20 22  2  0
 20 21  1  0
M  END
$$$$
