VTP.pdb
     RDKit          3D

 22 22  0  0  1  0  0  0  0  0999 V2000
    7.6131  -12.7067   20.4776 C   0  0  0  0  0  0  0  0  0  0  0  0
    8.6158  -13.5791   19.7606 C   0  0  2  0  0  0  0  0  0  0  0  0
    8.4530  -13.4872   18.2764 C   0  0  0  0  0  0  0  0  0  0  0  0
    8.4869  -15.0101   20.1936 C   0  0  2  0  0  0  0  0  0  0  0  0
    7.6294  -15.7377   19.2525 N   0  0  0  0  0  0  0  0  0  0  0  0
    7.8312  -15.1272   21.5294 C   0  0  0  0  0  0  0  0  0  0  0  0
    6.5979  -14.9101   21.5784 O   0  0  0  0  0  0  0  0  0  0  0  0
    6.0319  -17.0383   23.3694 C   0  0  0  0  0  0  0  0  0  0  0  0
    7.2394  -16.8865   24.2744 C   0  0  1  0  0  0  0  0  0  0  0  0
    8.0969  -17.9565   24.2034 O   0  0  0  0  0  0  0  0  0  0  0  0
    7.8789  -15.5594   24.0187 C   0  0  2  0  0  0  0  0  0  0  0  0
    8.4919  -15.4583   22.7130 N   0  0  0  0  0  0  0  0  0  0  0  0
    8.8350  -15.1943   25.0928 C   0  0  0  0  0  0  0  0  0  0  0  0
   10.0364  -15.6089   24.9461 O   0  0  0  0  0  0  0  0  0  0  0  0
    8.5733  -14.4483   26.2423 N   0  0  0  0  0  0  0  0  0  0  0  0
    7.2978  -13.9082   26.6547 C   0  0  0  0  0  0  0  0  0  0  0  0
    7.6659  -12.6245   27.4108 C   0  0  0  0  0  0  0  0  0  0  0  0
    8.8586  -13.1371   28.2143 C   0  0  0  0  0  0  0  0  0  0  0  0
    9.5433  -14.0478   27.2389 C   0  0  1  0  0  0  0  0  0  0  0  0
   10.0573  -15.2272   27.9816 C   0  0  0  0  0  0  0  0  0  0  0  0
   11.1594  -15.0558   28.8035 O   0  0  0  0  0  0  0  0  0  0  0  0
    9.5371  -16.3476   27.8903 O   0  0  0  0  0  0  0  0  0  0  0  0
  2  1  1  1
  2  3  1  0
  4  2  1  0
  4  6  1  0
  4  5  1  6
  6  7  2  0
  9  8  1  6
  9 11  1  0
 10  9  1  0
 11 13  1  0
 11 12  1  6
 12  6  1  0
 13 14  2  0
 13 15  1  0
 15 19  1  0
 16 15  1  0
 17 16  1  0
 18 17  1  0
 18 19  1  0
 19 20  1  1
 20 22  2  0
 20 21  1  0
M  END
$$$$
