VTP.pdb
     RDKit          3D

 22 22  0  0  1  0  0  0  0  0999 V2000
    8.3941  -18.3899   28.0334 C   0  0  0  0  0  0  0  0  0  0  0  0
    7.7350  -19.3737   27.0962 C   0  0  2  0  0  0  0  0  0  0  0  0
    7.7953  -20.7662   27.6396 C   0  0  0  0  0  0  0  0  0  0  0  0
    8.3767  -19.3341   25.7404 C   0  0  2  0  0  0  0  0  0  0  0  0
    9.6932  -19.9776   25.7958 N   0  0  0  0  0  0  0  0  0  0  0  0
    8.6173  -17.9339   25.2826 C   0  0  0  0  0  0  0  0  0  0  0  0
    9.6422  -17.3608   25.7204 O   0  0  0  0  0  0  0  0  0  0  0  0
    7.5234  -13.9479   22.5749 C   0  0  0  0  0  0  0  0  0  0  0  0
    7.4352  -15.4521   22.7473 C   0  0  1  0  0  0  0  0  0  0  0  0
    8.0801  -16.1417   21.7504 O   0  0  0  0  0  0  0  0  0  0  0  0
    7.8680  -15.8122   24.1324 C   0  0  2  0  0  0  0  0  0  0  0  0
    7.7871  -17.2290   24.4103 N   0  0  0  0  0  0  0  0  0  0  0  0
    7.1452  -15.0196   25.1573 C   0  0  0  0  0  0  0  0  0  0  0  0
    6.0860  -15.5506   25.6401 O   0  0  0  0  0  0  0  0  0  0  0  0
    7.4907  -13.7633   25.6558 N   0  0  0  0  0  0  0  0  0  0  0  0
    8.6028  -12.9400   25.2386 C   0  0  0  0  0  0  0  0  0  0  0  0
    8.9949  -12.1749   26.5098 C   0  0  0  0  0  0  0  0  0  0  0  0
    7.6044  -11.8157   27.0281 C   0  0  0  0  0  0  0  0  0  0  0  0
    6.8094  -13.0480   26.7135 C   0  0  1  0  0  0  0  0  0  0  0  0
    5.4510  -12.6305   26.2807 C   0  0  0  0  0  0  0  0  0  0  0  0
    4.5621  -12.1870   27.2465 O   0  0  0  0  0  0  0  0  0  0  0  0
    5.0916  -12.6660   25.0960 O   0  0  0  0  0  0  0  0  0  0  0  0
  2  1  1  1
  2  3  1  0
  4  2  1  0
  4  6  1  0
  4  5  1  1
  6  7  2  0
  9  8  1  6
  9 11  1  0
 10  9  1  0
 11 13  1  0
 11 12  1  1
 12  6  1  0
 13 14  2  0
 13 15  1  0
 15 19  1  0
 16 15  1  0
 17 16  1  0
 18 17  1  0
 18 19  1  0
 19 20  1  6
 20 22  2  0
 20 21  1  0
M  END
$$$$
