VTP.pdb
     RDKit          3D

 22 22  0  0  1  0  0  0  0  0999 V2000
    7.2614  -12.6427   19.6796 C   0  0  0  0  0  0  0  0  0  0  0  0
    8.6073  -13.3269   19.7174 C   0  0  2  0  0  0  0  0  0  0  0  0
    9.3264  -13.1841   18.4134 C   0  0  0  0  0  0  0  0  0  0  0  0
    8.4592  -14.7816   20.0542 C   0  0  2  0  0  0  0  0  0  0  0  0
    7.6799  -15.4555   19.0107 N   0  0  0  0  0  0  0  0  0  0  0  0
    7.7078  -14.9810   21.3284 C   0  0  0  0  0  0  0  0  0  0  0  0
    6.4574  -15.0155   21.2517 O   0  0  0  0  0  0  0  0  0  0  0  0
    6.4412  -17.3946   23.1250 C   0  0  0  0  0  0  0  0  0  0  0  0
    7.3780  -16.7869   24.1512 C   0  0  1  0  0  0  0  0  0  0  0  0
    8.5338  -17.5104   24.3126 O   0  0  0  0  0  0  0  0  0  0  0  0
    7.5891  -15.3427   23.8266 C   0  0  2  0  0  0  0  0  0  0  0  0
    8.2977  -15.1299   22.5842 N   0  0  0  0  0  0  0  0  0  0  0  0
    8.2357  -14.6166   24.9471 C   0  0  0  0  0  0  0  0  0  0  0  0
    9.5116  -14.6898   25.0077 O   0  0  0  0  0  0  0  0  0  0  0  0
    7.6109  -13.8613   25.9399 N   0  0  0  0  0  0  0  0  0  0  0  0
    6.2155  -13.4898   25.9986 C   0  0  0  0  0  0  0  0  0  0  0  0
    6.2233  -12.1319   26.7135 C   0  0  0  0  0  0  0  0  0  0  0  0
    7.2414  -12.4297   27.8116 C   0  0  0  0  0  0  0  0  0  0  0  0
    8.2519  -13.2791   27.0995 C   0  0  1  0  0  0  0  0  0  0  0  0
    8.7167  -14.3359   28.0342 C   0  0  0  0  0  0  0  0  0  0  0  0
    9.6074  -13.9817   29.0346 O   0  0  0  0  0  0  0  0  0  0  0  0
    8.3369  -15.5118   27.9485 O   0  0  0  0  0  0  0  0  0  0  0  0
  2  1  1  6
  2  3  1  0
  4  2  1  0
  4  6  1  0
  4  5  1  6
  6  7  2  0
  9  8  1  6
  9 11  1  0
 10  9  1  0
 11 13  1  0
 11 12  1  6
 12  6  1  0
 13 14  2  0
 13 15  1  0
 15 19  1  0
 16 15  1  0
 17 16  1  0
 18 17  1  0
 18 19  1  0
 19 20  1  1
 20 22  2  0
 20 21  1  0
M  END
$$$$
