VTP.pdb
     RDKit          3D

 22 22  0  0  1  0  0  0  0  0999 V2000
   12.3540  -17.7047   24.6294 C   0  0  0  0  0  0  0  0  0  0  0  0
   11.6906  -18.4776   23.5143 C   0  0  2  0  0  0  0  0  0  0  0  0
   12.4685  -19.7075   23.1678 C   0  0  0  0  0  0  0  0  0  0  0  0
   11.5301  -17.6224   22.2918 C   0  0  2  0  0  0  0  0  0  0  0  0
   12.8439  -17.1568   21.8361 N   0  0  0  0  0  0  0  0  0  0  0  0
   10.7298  -16.3949   22.5762 C   0  0  0  0  0  0  0  0  0  0  0  0
   11.3635  -15.3702   22.9209 O   0  0  0  0  0  0  0  0  0  0  0  0
    6.5843  -13.7438   22.5231 C   0  0  0  0  0  0  0  0  0  0  0  0
    7.3018  -15.0010   22.0708 C   0  0  1  0  0  0  0  0  0  0  0  0
    7.5133  -15.0357   20.7146 O   0  0  0  0  0  0  0  0  0  0  0  0
    8.5344  -15.1852   22.8969 C   0  0  2  0  0  0  0  0  0  0  0  0
    9.3398  -16.3134   22.4850 N   0  0  0  0  0  0  0  0  0  0  0  0
    8.2206  -15.2472   24.3456 C   0  0  0  0  0  0  0  0  0  0  0  0
    8.3787  -16.3841   24.9108 O   0  0  0  0  0  0  0  0  0  0  0  0
    7.7756  -14.2066   25.1614 N   0  0  0  0  0  0  0  0  0  0  0  0
    7.6266  -12.8173   24.7920 C   0  0  0  0  0  0  0  0  0  0  0  0
    7.9070  -12.0555   26.0944 C   0  0  0  0  0  0  0  0  0  0  0  0
    7.1321  -12.9341   27.0734 C   0  0  0  0  0  0  0  0  0  0  0  0
    7.3978  -14.3160   26.5541 C   0  0  1  0  0  0  0  0  0  0  0  0
    6.1571  -15.1189   26.7048 C   0  0  0  0  0  0  0  0  0  0  0  0
    5.3719  -15.3301   25.5831 O   0  0  0  0  0  0  0  0  0  0  0  0
    5.8060  -15.6006   27.7906 O   0  0  0  0  0  0  0  0  0  0  0  0
  2  1  1  1
  2  3  1  0
  4  2  1  0
  4  6  1  0
  4  5  1  1
  6  7  2  0
  9  8  1  6
  9 11  1  0
 10  9  1  0
 11 13  1  0
 11 12  1  6
 12  6  1  0
 13 14  2  0
 13 15  1  0
 15 19  1  0
 16 15  1  0
 17 16  1  0
 18 17  1  0
 18 19  1  0
 19 20  1  6
 20 22  2  0
 20 21  1  0
M  END
$$$$
