VTP.pdb
     RDKit          3D

 22 22  0  0  1  0  0  0  0  0999 V2000
   12.9461  -15.8575   21.9906 C   0  0  0  0  0  0  0  0  0  0  0  0
   12.3540  -17.2465   22.0212 C   0  0  2  0  0  0  0  0  0  0  0  0
   13.2591  -18.2379   21.3612 C   0  0  0  0  0  0  0  0  0  0  0  0
   11.0097  -17.2704   21.3549 C   0  0  2  0  0  0  0  0  0  0  0  0
   11.1740  -17.1546   19.9024 N   0  0  0  0  0  0  0  0  0  0  0  0
   10.1649  -16.1125   21.7714 C   0  0  0  0  0  0  0  0  0  0  0  0
   10.4448  -14.9966   21.2745 O   0  0  0  0  0  0  0  0  0  0  0  0
    6.6680  -15.1122   21.2096 C   0  0  0  0  0  0  0  0  0  0  0  0
    6.8217  -15.2573   22.7114 C   0  0  1  0  0  0  0  0  0  0  0  0
    6.2458  -16.4049   23.1979 O   0  0  0  0  0  0  0  0  0  0  0  0
    8.2612  -15.0818   23.0752 C   0  0  2  0  0  0  0  0  0  0  0  0
    9.0971  -16.1887   22.6665 N   0  0  0  0  0  0  0  0  0  0  0  0
    8.4306  -14.7827   24.5184 C   0  0  0  0  0  0  0  0  0  0  0  0
    9.2611  -15.5187   25.1553 O   0  0  0  0  0  0  0  0  0  0  0  0
    7.7895  -13.7890   25.2587 N   0  0  0  0  0  0  0  0  0  0  0  0
    6.8397  -12.8170   24.7668 C   0  0  0  0  0  0  0  0  0  0  0  0
    7.0722  -11.5885   25.6567 C   0  0  0  0  0  0  0  0  0  0  0  0
    7.2082  -12.2793   27.0114 C   0  0  0  0  0  0  0  0  0  0  0  0
    7.9734  -13.5231   26.6693 C   0  0  1  0  0  0  0  0  0  0  0  0
    7.4426  -14.6401   27.4923 C   0  0  0  0  0  0  0  0  0  0  0  0
    6.6586  -15.5984   26.8706 O   0  0  0  0  0  0  0  0  0  0  0  0
    7.6764  -14.7409   28.7045 O   0  0  0  0  0  0  0  0  0  0  0  0
  2  1  1  6
  2  3  1  0
  4  2  1  0
  4  6  1  0
  4  5  1  6
  6  7  2  0
  9  8  1  6
  9 11  1  0
 10  9  1  0
 11 13  1  0
 11 12  1  1
 12  6  1  0
 13 14  2  0
 13 15  1  0
 15 19  1  0
 16 15  1  0
 17 16  1  0
 18 17  1  0
 18 19  1  0
 19 20  1  1
 20 22  2  0
 20 21  1  0
M  END
$$$$
