SAQ.pdb
     RDKit          3D

 21 20  0  0  1  0  0  0  0  0999 V2000
    2.4959  -18.5239   21.5856 O   0  0  0  0  0  0  0  0  0  0  0  0
    3.7859  -18.1982   21.9475 C   0  0  0  0  0  0  0  0  0  0  0  0
    4.5752  -17.8352   20.7334 C   0  0  2  0  0  0  0  0  0  0  0  0
    4.8741  -18.9745   19.8955 N   0  0  0  0  0  0  0  0  0  0  0  0
    5.8585  -17.1343   21.1174 C   0  0  0  0  0  0  0  0  0  0  0  0
    6.8472  -17.8104   21.4921 O   0  0  0  0  0  0  0  0  0  0  0  0
    6.9350  -13.4836   21.3912 C   0  0  0  0  0  0  0  0  0  0  0  0
    7.0701  -14.9720   21.5630 C   0  0  2  0  0  0  0  0  0  0  0  0
    5.9637  -15.7241   21.0613 N   0  0  0  0  0  0  0  0  0  0  0  0
    7.3474  -15.3502   22.9973 C   0  0  0  0  0  0  0  0  0  0  0  0
    6.4559  -15.4838   23.8636 O   0  0  0  0  0  0  0  0  0  0  0  0
    8.1542  -19.5735   28.2052 N   0  0  0  0  0  0  0  0  0  0  0  0
    7.7714  -18.9128   26.9788 C   0  0  0  0  0  0  0  0  0  0  0  0
    6.7585  -19.3585   26.4227 O   0  0  0  0  0  0  0  0  0  0  0  0
    8.5541  -17.8112   26.4795 C   0  0  0  0  0  0  0  0  0  0  0  0
    8.2439  -17.1906   25.1824 C   0  0  0  0  0  0  0  0  0  0  0  0
    9.0578  -16.0443   24.7198 C   0  0  2  0  0  0  0  0  0  0  0  0
    8.6910  -15.5719   23.4082 N   0  0  0  0  0  0  0  0  0  0  0  0
   10.5071  -16.1172   24.8753 C   0  0  0  0  0  0  0  0  0  0  0  0
   11.0034  -16.5167   25.9888 O   0  0  0  0  0  0  0  0  0  0  0  0
   11.4469  -15.7874   23.9088 O   0  0  0  0  0  0  0  0  0  0  0  0
  1  2  1  0
  3  4  1  1
  3  2  1  0
  5  3  1  0
  6  5  2  0
  8  7  1  1
  8  9  1  0
  8 10  1  0
  9  5  1  0
 10 11  2  0
 12 13  1  0
 13 14  2  0
 15 13  1  0
 15 16  1  0
 17 16  1  6
 18 10  1  0
 18 17  1  0
 19 21  1  0
 19 17  1  0
 20 19  2  0
M  END
$$$$
