SAQ.pdb
     RDKit          3D

 21 20  0  0  1  0  0  0  0  0999 V2000
    8.9506  -17.3588   15.3991 O   0  0  0  0  0  0  0  0  0  0  0  0
    7.6685  -16.8548   15.3429 C   0  0  0  0  0  0  0  0  0  0  0  0
    7.7149  -15.3680   15.2150 C   0  0  2  0  0  0  0  0  0  0  0  0
    8.2601  -14.9291   13.9502 N   0  0  0  0  0  0  0  0  0  0  0  0
    8.5044  -14.7563   16.3500 C   0  0  0  0  0  0  0  0  0  0  0  0
    9.7559  -14.6991   16.2759 O   0  0  0  0  0  0  0  0  0  0  0  0
    7.5948  -13.0761   19.6517 C   0  0  0  0  0  0  0  0  0  0  0  0
    8.5195  -13.6321   18.6034 C   0  0  2  0  0  0  0  0  0  0  0  0
    7.8535  -14.2455   17.4981 N   0  0  0  0  0  0  0  0  0  0  0  0
    9.5316  -14.5836   19.1929 C   0  0  0  0  0  0  0  0  0  0  0  0
    9.4297  -15.8282   19.1330 O   0  0  0  0  0  0  0  0  0  0  0  0
   15.7461  -13.5494   18.9586 N   0  0  0  0  0  0  0  0  0  0  0  0
   15.6143  -14.6354   19.9022 C   0  0  0  0  0  0  0  0  0  0  0  0
   16.6768  -15.1113   20.3246 O   0  0  0  0  0  0  0  0  0  0  0  0
   14.3061  -15.0961   20.2918 C   0  0  0  0  0  0  0  0  0  0  0  0
   13.0947  -14.3766   19.8693 C   0  0  0  0  0  0  0  0  0  0  0  0
   11.7727  -14.8654   20.3209 C   0  0  2  0  0  0  0  0  0  0  0  0
   10.6729  -14.0564   19.8584 N   0  0  0  0  0  0  0  0  0  0  0  0
   11.6130  -15.2320   21.7245 C   0  0  0  0  0  0  0  0  0  0  0  0
   10.8402  -14.5355   22.4750 O   0  0  0  0  0  0  0  0  0  0  0  0
   12.2325  -16.2973   22.3629 O   0  0  0  0  0  0  0  0  0  0  0  0
  1  2  1  0
  3  4  1  6
  3  2  1  0
  5  3  1  0
  6  5  2  0
  8  7  1  1
  8  9  1  0
  8 10  1  0
  9  5  1  0
 10 11  2  0
 12 13  1  0
 13 14  2  0
 15 13  1  0
 15 16  1  0
 17 16  1  1
 18 10  1  0
 18 17  1  0
 19 21  1  0
 19 17  1  0
 20 19  2  0
M  END
$$$$
