SAQ.pdb
     RDKit          3D

 21 20  0  0  1  0  0  0  0  0999 V2000
    7.4063  -17.3909   14.4733 O   0  0  0  0  0  0  0  0  0  0  0  0
    8.3700  -16.8957   15.3260 C   0  0  0  0  0  0  0  0  0  0  0  0
    8.4252  -15.4077   15.2170 C   0  0  2  0  0  0  0  0  0  0  0  0
    9.1316  -14.9560   14.0396 N   0  0  0  0  0  0  0  0  0  0  0  0
    9.0532  -14.8022   16.4518 C   0  0  0  0  0  0  0  0  0  0  0  0
   10.2976  -14.8563   16.6058 O   0  0  0  0  0  0  0  0  0  0  0  0
    7.7368  -12.8607   19.4588 C   0  0  0  0  0  0  0  0  0  0  0  0
    8.7684  -13.5857   18.6383 C   0  0  2  0  0  0  0  0  0  0  0  0
    8.2587  -14.1735   17.4398 N   0  0  0  0  0  0  0  0  0  0  0  0
    9.5080  -14.6204   19.4504 C   0  0  0  0  0  0  0  0  0  0  0  0
    9.1743  -15.8239   19.5087 O   0  0  0  0  0  0  0  0  0  0  0  0
   15.7555  -14.1812   20.7338 N   0  0  0  0  0  0  0  0  0  0  0  0
   14.9413  -14.1714   19.5405 C   0  0  0  0  0  0  0  0  0  0  0  0
   15.5329  -13.8898   18.4895 O   0  0  0  0  0  0  0  0  0  0  0  0
   13.5360  -14.4766   19.6249 C   0  0  0  0  0  0  0  0  0  0  0  0
   12.9123  -14.8146   20.9136 C   0  0  0  0  0  0  0  0  0  0  0  0
   11.4699  -15.1445   20.9506 C   0  0  2  0  0  0  0  0  0  0  0  0
   10.6515  -14.2262   20.1989 N   0  0  0  0  0  0  0  0  0  0  0  0
   10.8664  -15.4654   22.2401 C   0  0  0  0  0  0  0  0  0  0  0  0
   11.4165  -16.3463   22.9930 O   0  0  0  0  0  0  0  0  0  0  0  0
    9.7130  -14.8972   22.7628 O   0  0  0  0  0  0  0  0  0  0  0  0
  1  2  1  0
  3  4  1  6
  3  2  1  0
  5  3  1  0
  6  5  2  0
  8  7  1  1
  8  9  1  0
  8 10  1  0
  9  5  1  0
 10 11  2  0
 12 13  1  0
 13 14  2  0
 15 13  1  0
 15 16  1  0
 17 16  1  1
 18 10  1  0
 18 17  1  0
 19 21  1  0
 19 17  1  0
 20 19  2  0
M  END
$$$$
