SAQ.pdb
     RDKit          3D

 21 20  0  0  1  0  0  0  0  0999 V2000
    4.6732  -16.6220   20.3408 O   0  0  0  0  0  0  0  0  0  0  0  0
    5.3781  -15.4931   20.7011 C   0  0  0  0  0  0  0  0  0  0  0  0
    6.7429  -15.8771   21.1687 C   0  0  2  0  0  0  0  0  0  0  0  0
    7.3480  -16.9057   20.3531 N   0  0  0  0  0  0  0  0  0  0  0  0
    6.7093  -16.3253   22.6122 C   0  0  0  0  0  0  0  0  0  0  0  0
    6.2665  -15.5490   23.4933 O   0  0  0  0  0  0  0  0  0  0  0  0
    6.7708  -19.5886   24.4002 C   0  0  0  0  0  0  0  0  0  0  0  0
    7.1296  -18.1301   24.3175 C   0  0  2  0  0  0  0  0  0  0  0  0
    7.1702  -17.6096   22.9874 N   0  0  0  0  0  0  0  0  0  0  0  0
    8.4230  -17.8269   25.0334 C   0  0  0  0  0  0  0  0  0  0  0  0
    9.5488  -17.9117   24.4962 O   0  0  0  0  0  0  0  0  0  0  0  0
    9.2126  -13.1702   29.1166 N   0  0  0  0  0  0  0  0  0  0  0  0
    8.8885  -13.3246   27.7173 C   0  0  0  0  0  0  0  0  0  0  0  0
    8.5068  -12.2985   27.1384 O   0  0  0  0  0  0  0  0  0  0  0  0
    9.0186  -14.6129   27.0857 C   0  0  0  0  0  0  0  0  0  0  0  0
    9.4714  -15.7862   27.8487 C   0  0  0  0  0  0  0  0  0  0  0  0
    9.5553  -17.0983   27.1691 C   0  0  2  0  0  0  0  0  0  0  0  0
    8.3821  -17.4203   26.3958 N   0  0  0  0  0  0  0  0  0  0  0  0
   10.0198  -18.2479   27.9389 C   0  0  0  0  0  0  0  0  0  0  0  0
   11.1286  -18.1724   28.5797 O   0  0  0  0  0  0  0  0  0  0  0  0
    9.3649  -19.4657   28.0584 O   0  0  0  0  0  0  0  0  0  0  0  0
  1  2  1  0
  3  4  1  6
  3  2  1  0
  5  3  1  0
  6  5  2  0
  8  7  1  6
  8  9  1  0
  8 10  1  0
  9  5  1  0
 10 11  2  0
 12 13  1  0
 13 14  2  0
 15 13  1  0
 15 16  1  0
 17 16  1  1
 18 10  1  0
 18 17  1  0
 19 21  1  0
 19 17  1  0
 20 19  2  0
M  END
$$$$
