SAQ.pdb
     RDKit          3D

 21 20  0  0  1  0  0  0  0  0999 V2000
   10.2442  -15.2386   16.9124 O   0  0  0  0  0  0  0  0  0  0  0  0
   10.1793  -14.7513   18.2006 C   0  0  0  0  0  0  0  0  0  0  0  0
    8.8481  -14.1171   18.4347 C   0  0  2  0  0  0  0  0  0  0  0  0
    8.7611  -12.7778   17.8977 N   0  0  0  0  0  0  0  0  0  0  0  0
    8.5150  -14.0976   19.9092 C   0  0  0  0  0  0  0  0  0  0  0  0
    9.0337  -13.2288   20.6517 O   0  0  0  0  0  0  0  0  0  0  0  0
    5.9503  -15.8339   22.0944 C   0  0  0  0  0  0  0  0  0  0  0  0
    7.2211  -15.0708   21.8382 C   0  0  2  0  0  0  0  0  0  0  0  0
    7.6251  -15.0457   20.4679 N   0  0  0  0  0  0  0  0  0  0  0  0
    8.3556  -15.5590   22.7053 C   0  0  0  0  0  0  0  0  0  0  0  0
    9.2802  -16.2908   22.2896 O   0  0  0  0  0  0  0  0  0  0  0  0
    9.7539  -13.4146   28.7467 N   0  0  0  0  0  0  0  0  0  0  0  0
   10.3851  -14.7069   28.6109 C   0  0  0  0  0  0  0  0  0  0  0  0
   11.0159  -15.1027   29.6005 O   0  0  0  0  0  0  0  0  0  0  0  0
   10.2573  -15.4452   27.3805 C   0  0  0  0  0  0  0  0  0  0  0  0
    9.3872  -14.9629   26.2969 C   0  0  0  0  0  0  0  0  0  0  0  0
    9.3220  -15.7280   25.0315 C   0  0  2  0  0  0  0  0  0  0  0  0
    8.3948  -15.1774   24.0749 N   0  0  0  0  0  0  0  0  0  0  0  0
    9.2122  -17.1813   25.1065 C   0  0  0  0  0  0  0  0  0  0  0  0
    8.0517  -17.7280   25.1006 O   0  0  0  0  0  0  0  0  0  0  0  0
   10.2715  -18.0744   25.1869 O   0  0  0  0  0  0  0  0  0  0  0  0
  1  2  1  0
  3  4  1  1
  3  2  1  0
  5  3  1  0
  6  5  2  0
  8  7  1  6
  8  9  1  0
  8 10  1  0
  9  5  1  0
 10 11  2  0
 12 13  1  0
 13 14  2  0
 15 13  1  0
 15 16  1  0
 17 16  1  1
 18 10  1  0
 18 17  1  0
 19 21  1  0
 19 17  1  0
 20 19  2  0
M  END
$$$$
