SAQ.pdb
     RDKit          3D

 21 20  0  0  1  0  0  0  0  0999 V2000
    9.0811  -12.4079   17.9447 O   0  0  0  0  0  0  0  0  0  0  0  0
    8.8006  -12.9439   19.1837 C   0  0  0  0  0  0  0  0  0  0  0  0
    8.2836  -14.3357   19.0271 C   0  0  2  0  0  0  0  0  0  0  0  0
    6.9542  -14.3815   18.4615 N   0  0  0  0  0  0  0  0  0  0  0  0
    8.2998  -15.0661   20.3508 C   0  0  0  0  0  0  0  0  0  0  0  0
    7.3189  -14.9660   21.1273 O   0  0  0  0  0  0  0  0  0  0  0  0
   10.6403  -17.5583   22.0240 C   0  0  0  0  0  0  0  0  0  0  0  0
    9.5175  -16.5585   21.9731 C   0  0  2  0  0  0  0  0  0  0  0  0
    9.4060  -15.8632   20.7298 N   0  0  0  0  0  0  0  0  0  0  0  0
    9.5884  -15.5737   23.1142 C   0  0  0  0  0  0  0  0  0  0  0  0
    9.7056  -14.3388   22.9576 O   0  0  0  0  0  0  0  0  0  0  0  0
    6.4939  -11.2836   27.0910 N   0  0  0  0  0  0  0  0  0  0  0  0
    6.5896  -12.4762   26.2814 C   0  0  0  0  0  0  0  0  0  0  0  0
    5.6666  -12.6528   25.4747 O   0  0  0  0  0  0  0  0  0  0  0  0
    7.7085  -13.3690   26.4436 C   0  0  0  0  0  0  0  0  0  0  0  0
    8.1240  -14.2655   25.3539 C   0  0  0  0  0  0  0  0  0  0  0  0
    9.2323  -15.2180   25.5883 C   0  0  2  0  0  0  0  0  0  0  0  0
    9.5198  -16.0555   24.4507 N   0  0  0  0  0  0  0  0  0  0  0  0
    9.2350  -15.9845   26.8302 C   0  0  0  0  0  0  0  0  0  0  0  0
    9.1900  -15.3667   27.9536 O   0  0  0  0  0  0  0  0  0  0  0  0
    9.2829  -17.3677   26.9328 O   0  0  0  0  0  0  0  0  0  0  0  0
  1  2  1  0
  3  4  1  1
  3  2  1  0
  5  3  1  0
  6  5  2  0
  8  7  1  6
  8  9  1  0
  8 10  1  0
  9  5  1  0
 10 11  2  0
 12 13  1  0
 13 14  2  0
 15 13  1  0
 15 16  1  0
 17 16  1  6
 18 10  1  0
 18 17  1  0
 19 21  1  0
 19 17  1  0
 20 19  2  0
M  END
$$$$
