SAQ.pdb
     RDKit          3D

 21 20  0  0  1  0  0  0  0  0999 V2000
    7.3751  -18.0451   20.6819 O   0  0  0  0  0  0  0  0  0  0  0  0
    8.0133  -18.7463   19.6808 C   0  0  0  0  0  0  0  0  0  0  0  0
    9.2652  -18.0357   19.2849 C   0  0  2  0  0  0  0  0  0  0  0  0
   10.0131  -18.7388   18.2672 N   0  0  0  0  0  0  0  0  0  0  0  0
   10.1471  -17.7917   20.4884 C   0  0  0  0  0  0  0  0  0  0  0  0
   10.6273  -18.7677   21.1145 O   0  0  0  0  0  0  0  0  0  0  0  0
   11.8825  -14.8236   22.0446 C   0  0  0  0  0  0  0  0  0  0  0  0
   11.1898  -16.1579   22.0963 C   0  0  2  0  0  0  0  0  0  0  0  0
   10.4411  -16.4771   20.9219 N   0  0  0  0  0  0  0  0  0  0  0  0
   10.3179  -16.2925   23.3206 C   0  0  0  0  0  0  0  0  0  0  0  0
    9.2210  -15.7085   23.4578 O   0  0  0  0  0  0  0  0  0  0  0  0
    6.1900  -19.3590   25.5745 N   0  0  0  0  0  0  0  0  0  0  0  0
    7.0979  -19.5451   24.4664 C   0  0  0  0  0  0  0  0  0  0  0  0
    6.7688  -20.4090   23.6422 O   0  0  0  0  0  0  0  0  0  0  0  0
    8.2958  -18.7500   24.3753 C   0  0  0  0  0  0  0  0  0  0  0  0
    8.5917  -17.7124   25.3751 C   0  0  0  0  0  0  0  0  0  0  0  0
    9.9989  -17.3161   25.6064 C   0  0  2  0  0  0  0  0  0  0  0  0
   10.7488  -17.1253   24.3901 N   0  0  0  0  0  0  0  0  0  0  0  0
   10.7715  -18.0547   26.6000 C   0  0  0  0  0  0  0  0  0  0  0  0
   11.8736  -18.6133   26.2553 O   0  0  0  0  0  0  0  0  0  0  0  0
   10.4292  -18.2259   27.9341 O   0  0  0  0  0  0  0  0  0  0  0  0
  1  2  1  0
  3  4  1  6
  3  2  1  0
  5  3  1  0
  6  5  2  0
  8  7  1  6
  8  9  1  0
  8 10  1  0
  9  5  1  0
 10 11  2  0
 12 13  1  0
 13 14  2  0
 15 13  1  0
 15 16  1  0
 17 16  1  6
 18 10  1  0
 18 17  1  0
 19 21  1  0
 19 17  1  0
 20 19  2  0
M  END
$$$$
