SAQ.pdb
     RDKit          3D

 21 20  0  0  1  0  0  0  0  0999 V2000
    8.5996  -16.9795   15.9907 O   0  0  0  0  0  0  0  0  0  0  0  0
    7.8296  -16.0376   15.3416 C   0  0  0  0  0  0  0  0  0  0  0  0
    8.4753  -14.6958   15.4490 C   0  0  2  0  0  0  0  0  0  0  0  0
    9.6082  -14.5444   14.5642 N   0  0  0  0  0  0  0  0  0  0  0  0
    8.9000  -14.4172   16.8730 C   0  0  0  0  0  0  0  0  0  0  0  0
   10.0508  -14.7435   17.2530 O   0  0  0  0  0  0  0  0  0  0  0  0
    7.2523  -12.7717   19.8951 C   0  0  0  0  0  0  0  0  0  0  0  0
    8.3296  -13.5158   19.1543 C   0  0  2  0  0  0  0  0  0  0  0  0
    8.0188  -13.7926   17.7873 N   0  0  0  0  0  0  0  0  0  0  0  0
    8.7258  -14.7871   19.8643 C   0  0  0  0  0  0  0  0  0  0  0  0
    8.5638  -15.9293   19.3826 O   0  0  0  0  0  0  0  0  0  0  0  0
   13.3730  -17.2416   19.1363 N   0  0  0  0  0  0  0  0  0  0  0  0
   13.5376  -16.0063   19.8669 C   0  0  0  0  0  0  0  0  0  0  0  0
   14.6248  -15.4331   19.7141 O   0  0  0  0  0  0  0  0  0  0  0  0
   12.4729  -15.5183   20.7058 C   0  0  0  0  0  0  0  0  0  0  0  0
   11.1894  -16.2321   20.7896 C   0  0  0  0  0  0  0  0  0  0  0  0
   10.1500  -15.7373   21.7199 C   0  0  2  0  0  0  0  0  0  0  0  0
    9.3185  -14.7042   21.1547 N   0  0  0  0  0  0  0  0  0  0  0  0
   10.5419  -15.4182   23.0890 C   0  0  0  0  0  0  0  0  0  0  0  0
   11.1740  -16.2913   23.7846 O   0  0  0  0  0  0  0  0  0  0  0  0
   10.2948  -14.2224   23.7486 O   0  0  0  0  0  0  0  0  0  0  0  0
  1  2  1  0
  3  4  1  6
  3  2  1  0
  5  3  1  0
  6  5  2  0
  8  7  1  1
  8  9  1  0
  8 10  1  0
  9  5  1  0
 10 11  2  0
 12 13  1  0
 13 14  2  0
 15 13  1  0
 15 16  1  0
 17 16  1  6
 18 10  1  0
 18 17  1  0
 19 21  1  0
 19 17  1  0
 20 19  2  0
M  END
$$$$
