SAQ.pdb
     RDKit          3D

 21 20  0  0  1  0  0  0  0  0999 V2000
    6.6855  -18.1359   15.9164 O   0  0  0  0  0  0  0  0  0  0  0  0
    7.5965  -17.4534   16.6944 C   0  0  0  0  0  0  0  0  0  0  0  0
    7.8472  -16.1021   16.1112 C   0  0  2  0  0  0  0  0  0  0  0  0
    8.5253  -16.1570   14.8358 N   0  0  0  0  0  0  0  0  0  0  0  0
    8.6365  -15.2413   17.0713 C   0  0  0  0  0  0  0  0  0  0  0  0
    9.8858  -15.3507   17.1203 O   0  0  0  0  0  0  0  0  0  0  0  0
    7.7300  -12.6127   19.6846 C   0  0  0  0  0  0  0  0  0  0  0  0
    8.6417  -13.5388   18.9269 C   0  0  2  0  0  0  0  0  0  0  0  0
    7.9880  -14.3114   17.9183 N   0  0  0  0  0  0  0  0  0  0  0  0
    9.4200  -14.4431   19.8509 C   0  0  0  0  0  0  0  0  0  0  0  0
    9.1660  -15.6571   20.0084 O   0  0  0  0  0  0  0  0  0  0  0  0
   10.5306  -18.1598   25.0249 N   0  0  0  0  0  0  0  0  0  0  0  0
   10.3271  -16.7796   24.6502 C   0  0  0  0  0  0  0  0  0  0  0  0
    9.4884  -16.1601   25.3185 O   0  0  0  0  0  0  0  0  0  0  0  0
   11.0784  -16.2108   23.5604 C   0  0  0  0  0  0  0  0  0  0  0  0
   10.4459  -15.2838   22.6094 C   0  0  0  0  0  0  0  0  0  0  0  0
   11.2734  -14.6627   21.5511 C   0  0  2  0  0  0  0  0  0  0  0  0
   10.5071  -13.9049   20.5937 N   0  0  0  0  0  0  0  0  0  0  0  0
   12.2873  -15.4822   20.8952 C   0  0  0  0  0  0  0  0  0  0  0  0
   13.0790  -16.1973   21.6076 O   0  0  0  0  0  0  0  0  0  0  0  0
   12.4973  -15.5763   19.5265 O   0  0  0  0  0  0  0  0  0  0  0  0
  1  2  1  0
  3  4  1  6
  3  2  1  0
  5  3  1  0
  6  5  2  0
  8  7  1  1
  8  9  1  0
  8 10  1  0
  9  5  1  0
 10 11  2  0
 12 13  1  0
 13 14  2  0
 15 13  1  0
 15 16  1  0
 17 16  1  6
 18 10  1  0
 18 17  1  0
 19 21  1  0
 19 17  1  0
 20 19  2  0
M  END
$$$$
