SAQ.pdb
     RDKit          3D

 21 20  0  0  1  0  0  0  0  0999 V2000
    8.6983  -18.2440   20.6812 O   0  0  0  0  0  0  0  0  0  0  0  0
    7.9277  -18.0460   19.5551 C   0  0  0  0  0  0  0  0  0  0  0  0
    8.5919  -17.0568   18.6555 C   0  0  2  0  0  0  0  0  0  0  0  0
    9.8074  -17.5651   18.0607 N   0  0  0  0  0  0  0  0  0  0  0  0
    8.8854  -15.7713   19.3951 C   0  0  0  0  0  0  0  0  0  0  0  0
   10.0656  -15.4998   19.7243 O   0  0  0  0  0  0  0  0  0  0  0  0
    6.8527  -12.7019   20.3532 C   0  0  0  0  0  0  0  0  0  0  0  0
    8.0390  -13.6255   20.4056 C   0  0  2  0  0  0  0  0  0  0  0  0
    7.8480  -14.8664   19.7235 N   0  0  0  0  0  0  0  0  0  0  0  0
    8.4950  -13.8764   21.8221 C   0  0  0  0  0  0  0  0  0  0  0  0
    8.7548  -12.9655   22.6381 O   0  0  0  0  0  0  0  0  0  0  0  0
    6.6903  -19.3077   23.9614 N   0  0  0  0  0  0  0  0  0  0  0  0
    5.9751  -18.0537   24.0127 C   0  0  0  0  0  0  0  0  0  0  0  0
    4.7396  -18.1402   24.0155 O   0  0  0  0  0  0  0  0  0  0  0  0
    6.7024  -16.8109   24.0559 C   0  0  0  0  0  0  0  0  0  0  0  0
    8.1732  -16.7966   24.0775 C   0  0  0  0  0  0  0  0  0  0  0  0
    8.8875  -15.5726   23.6505 C   0  0  2  0  0  0  0  0  0  0  0  0
    8.6443  -15.2165   22.2750 N   0  0  0  0  0  0  0  0  0  0  0  0
   10.2993  -15.4396   23.9952 C   0  0  0  0  0  0  0  0  0  0  0  0
   10.6770  -15.6500   25.2029 O   0  0  0  0  0  0  0  0  0  0  0  0
   11.3214  -15.0955   23.1216 O   0  0  0  0  0  0  0  0  0  0  0  0
  1  2  1  0
  3  4  1  1
  3  2  1  0
  5  3  1  0
  6  5  2  0
  8  7  1  1
  8  9  1  0
  8 10  1  0
  9  5  1  0
 10 11  2  0
 12 13  1  0
 13 14  2  0
 15 13  1  0
 15 16  1  0
 17 16  1  6
 18 10  1  0
 18 17  1  0
 19 21  1  0
 19 17  1  0
 20 19  2  0
M  END
$$$$
