QCN.pdb
     RDKit          3D

 24 23  0  0  1  0  0  0  0  0999 V2000
    4.4120  -17.8457   21.2236 N   0  0  0  0  0  0  0  0  0  0  0  0
    5.8183  -17.9531   21.0256 C   0  0  0  0  0  0  0  0  0  0  0  0
    6.2684  -19.0788   20.7316 O   0  0  0  0  0  0  0  0  0  0  0  0
    6.6868  -16.8002   21.1635 C   0  0  0  0  0  0  0  0  0  0  0  0
    6.0777  -15.4745   21.3864 C   0  0  0  0  0  0  0  0  0  0  0  0
    6.9662  -14.2839   21.3727 C   0  0  2  0  0  0  0  0  0  0  0  0
    7.8788  -14.1695   20.2879 N   0  0  0  0  0  0  0  0  0  0  0  0
    7.7360  -14.3097   22.6510 C   0  0  0  0  0  0  0  0  0  0  0  0
    8.9316  -14.7486   22.5430 O   0  0  0  0  0  0  0  0  0  0  0  0
    7.2675  -13.9078   23.9033 N   0  0  0  0  0  0  0  0  0  0  0  0
    8.1748  -14.0009   25.0479 C   0  0  1  0  0  0  0  0  0  0  0  0
    7.4906  -13.1747   26.1451 C   0  0  0  0  0  0  0  0  0  0  0  0
    5.7825  -13.7564   26.2391 S   0  0  0  0  0  0  0  0  0  0  0  0
    8.2877  -15.3840   25.5360 C   0  0  0  0  0  0  0  0  0  0  0  0
    7.3259  -16.0247   26.0466 O   0  0  0  0  0  0  0  0  0  0  0  0
   11.3049  -17.2561   22.8612 N   0  0  0  0  0  0  0  0  0  0  0  0
   10.5951  -18.0236   23.7868 C   0  0  0  0  0  0  0  0  0  0  0  0
    9.6852  -18.7984   23.3670 O   0  0  0  0  0  0  0  0  0  0  0  0
   10.8285  -18.0018   25.2285 C   0  0  0  0  0  0  0  0  0  0  0  0
    9.7805  -17.3468   26.0632 C   0  0  2  0  0  0  0  0  0  0  0  0
    9.5258  -16.0376   25.4343 N   0  0  0  0  0  0  0  0  0  0  0  0
   10.1429  -17.0931   27.4619 C   0  0  0  0  0  0  0  0  0  0  0  0
   10.4177  -15.9326   27.8385 O   0  0  0  0  0  0  0  0  0  0  0  0
   10.1874  -18.1140   28.3792 O   0  0  0  0  0  0  0  0  0  0  0  0
  1  2  1  0
  2  4  1  0
  3  2  2  0
  5  4  1  0
  6  7  1  6
  6  5  1  0
  8  9  2  0
  8  6  1  0
 10  8  1  0
 11 10  1  0
 11 14  1  0
 11 12  1  1
 13 12  1  0
 14 21  1  0
 15 14  2  0
 16 17  1  0
 17 19  1  0
 18 17  2  0
 20 19  1  6
 20 22  1  0
 21 20  1  0
 22 23  2  0
 22 24  1  0
M  END
$$$$
