QCN.pdb
     RDKit          3D

 24 23  0  0  1  0  0  0  0  0999 V2000
    9.0099  -13.2575   17.4078 N   0  0  0  0  0  0  0  0  0  0  0  0
    7.8052  -13.7773   17.9618 C   0  0  0  0  0  0  0  0  0  0  0  0
    7.2233  -14.6750   17.3201 O   0  0  0  0  0  0  0  0  0  0  0  0
    7.2797  -13.2794   19.2182 C   0  0  0  0  0  0  0  0  0  0  0  0
    8.1203  -13.3746   20.4275 C   0  0  0  0  0  0  0  0  0  0  0  0
    7.9785  -14.5785   21.2864 C   0  0  2  0  0  0  0  0  0  0  0  0
    6.7936  -15.3495   21.1300 N   0  0  0  0  0  0  0  0  0  0  0  0
    8.0660  -14.1084   22.7001 C   0  0  0  0  0  0  0  0  0  0  0  0
    7.8519  -12.8583   22.8589 O   0  0  0  0  0  0  0  0  0  0  0  0
    8.3527  -14.8984   23.8149 N   0  0  0  0  0  0  0  0  0  0  0  0
    8.3022  -14.2770   25.1391 C   0  0  1  0  0  0  0  0  0  0  0  0
    6.8270  -13.8991   25.3272 C   0  0  0  0  0  0  0  0  0  0  0  0
    6.7132  -13.0379   26.9116 S   0  0  0  0  0  0  0  0  0  0  0  0
    8.6559  -15.2345   26.1983 C   0  0  0  0  0  0  0  0  0  0  0  0
    8.7361  -14.9251   27.4207 O   0  0  0  0  0  0  0  0  0  0  0  0
    6.2343  -18.4180   26.0691 N   0  0  0  0  0  0  0  0  0  0  0  0
    7.2468  -18.6298   27.0070 C   0  0  0  0  0  0  0  0  0  0  0  0
    6.9360  -18.7137   28.2321 O   0  0  0  0  0  0  0  0  0  0  0  0
    8.6628  -18.7666   26.6758 C   0  0  0  0  0  0  0  0  0  0  0  0
    9.4967  -17.5360   26.7946 C   0  0  2  0  0  0  0  0  0  0  0  0
    8.9208  -16.5667   25.8441 N   0  0  0  0  0  0  0  0  0  0  0  0
   10.9150  -17.6889   26.4524 C   0  0  0  0  0  0  0  0  0  0  0  0
   11.3980  -17.0624   25.4836 O   0  0  0  0  0  0  0  0  0  0  0  0
   11.7352  -18.5145   27.1812 O   0  0  0  0  0  0  0  0  0  0  0  0
  1  2  1  0
  2  4  1  0
  3  2  2  0
  5  4  1  0
  6  7  1  1
  6  5  1  0
  8  9  2  0
  8  6  1  0
 10  8  1  0
 11 10  1  0
 11 14  1  0
 11 12  1  1
 13 12  1  0
 14 21  1  0
 15 14  2  0
 16 17  1  0
 17 19  1  0
 18 17  2  0
 20 19  1  6
 20 22  1  0
 21 20  1  0
 22 23  2  0
 22 24  1  0
M  END
$$$$
