QCN.pdb
     RDKit          3D

 24 23  0  0  1  0  0  0  0  0999 V2000
    7.0658  -17.4767   18.4771 N   0  0  0  0  0  0  0  0  0  0  0  0
    7.2814  -17.0824   17.1257 C   0  0  0  0  0  0  0  0  0  0  0  0
    6.6270  -17.6783   16.2465 O   0  0  0  0  0  0  0  0  0  0  0  0
    8.2248  -16.0335   16.7903 C   0  0  0  0  0  0  0  0  0  0  0  0
    8.8778  -15.2889   17.8846 C   0  0  0  0  0  0  0  0  0  0  0  0
    8.1704  -14.1114   18.4505 C   0  0  2  0  0  0  0  0  0  0  0  0
    8.4391  -12.8475   17.8562 N   0  0  0  0  0  0  0  0  0  0  0  0
    8.5301  -14.0510   19.8977 C   0  0  0  0  0  0  0  0  0  0  0  0
    9.7609  -13.7959   20.1296 O   0  0  0  0  0  0  0  0  0  0  0  0
    7.6595  -14.2448   20.9718 N   0  0  0  0  0  0  0  0  0  0  0  0
    8.2222  -14.3005   22.3217 C   0  0  1  0  0  0  0  0  0  0  0  0
    7.0087  -14.1438   23.2477 C   0  0  0  0  0  0  0  0  0  0  0  0
    7.6456  -14.1537   24.9386 S   0  0  0  0  0  0  0  0  0  0  0  0
    8.8290  -15.6114   22.5997 C   0  0  0  0  0  0  0  0  0  0  0  0
    8.3661  -16.7021   22.1609 O   0  0  0  0  0  0  0  0  0  0  0  0
   13.8201  -18.3253   22.3657 N   0  0  0  0  0  0  0  0  0  0  0  0
   13.1196  -17.6838   23.3891 C   0  0  0  0  0  0  0  0  0  0  0  0
   13.3382  -18.0296   24.5879 O   0  0  0  0  0  0  0  0  0  0  0  0
   12.1377  -16.6233   23.1780 C   0  0  0  0  0  0  0  0  0  0  0  0
   10.7390  -16.9160   23.6043 C   0  0  2  0  0  0  0  0  0  0  0  0
    9.9849  -15.6663   23.3942 N   0  0  0  0  0  0  0  0  0  0  0  0
   10.5652  -17.2964   25.0104 C   0  0  0  0  0  0  0  0  0  0  0  0
   10.4073  -16.4155   25.8841 O   0  0  0  0  0  0  0  0  0  0  0  0
   10.5716  -18.6149   25.3943 O   0  0  0  0  0  0  0  0  0  0  0  0
  1  2  1  0
  2  4  1  0
  3  2  2  0
  5  4  1  0
  6  7  1  6
  6  5  1  0
  8  9  2  0
  8  6  1  0
 10  8  1  0
 11 10  1  0
 11 14  1  0
 11 12  1  1
 13 12  1  0
 14 21  1  0
 15 14  2  0
 16 17  1  0
 17 19  1  0
 18 17  2  0
 20 19  1  1
 20 22  1  0
 21 20  1  0
 22 23  2  0
 22 24  1  0
M  END
$$$$
