QCN.pdb
     RDKit          3D

 24 23  0  0  1  0  0  0  0  0999 V2000
    8.3480  -12.6260   15.2224 N   0  0  0  0  0  0  0  0  0  0  0  0
    8.0848  -13.9873   14.8969 C   0  0  0  0  0  0  0  0  0  0  0  0
    8.1075  -14.2994   13.6893 O   0  0  0  0  0  0  0  0  0  0  0  0
    7.8005  -14.9654   15.9289 C   0  0  0  0  0  0  0  0  0  0  0  0
    8.9295  -15.6033   16.6335 C   0  0  0  0  0  0  0  0  0  0  0  0
    8.6223  -16.6071   17.6848 C   0  0  2  0  0  0  0  0  0  0  0  0
    7.3234  -17.1864   17.6669 N   0  0  0  0  0  0  0  0  0  0  0  0
    8.8310  -15.9292   18.9978 C   0  0  0  0  0  0  0  0  0  0  0  0
   10.0301  -15.5416   19.2115 O   0  0  0  0  0  0  0  0  0  0  0  0
    7.8557  -15.6969   19.9694 N   0  0  0  0  0  0  0  0  0  0  0  0
    8.2834  -15.2090   21.2813 C   0  0  1  0  0  0  0  0  0  0  0  0
    6.9774  -14.8273   21.9907 C   0  0  0  0  0  0  0  0  0  0  0  0
    7.4466  -14.0751   23.5651 S   0  0  0  0  0  0  0  0  0  0  0  0
    8.9247  -16.2725   22.0697 C   0  0  0  0  0  0  0  0  0  0  0  0
    8.5637  -17.4827   22.0335 O   0  0  0  0  0  0  0  0  0  0  0  0
   12.2177  -19.4714   23.3461 N   0  0  0  0  0  0  0  0  0  0  0  0
   12.7401  -18.2719   22.8582 C   0  0  0  0  0  0  0  0  0  0  0  0
   13.8190  -18.3011   22.1952 O   0  0  0  0  0  0  0  0  0  0  0  0
   12.1238  -16.9626   23.0562 C   0  0  0  0  0  0  0  0  0  0  0  0
   10.7601  -16.9526   23.6597 C   0  0  2  0  0  0  0  0  0  0  0  0
    9.9968  -15.9368   22.9115 N   0  0  0  0  0  0  0  0  0  0  0  0
   10.6915  -16.5884   25.0792 C   0  0  0  0  0  0  0  0  0  0  0  0
   10.6715  -15.3847   25.4181 O   0  0  0  0  0  0  0  0  0  0  0  0
   10.6477  -17.5516   26.0570 O   0  0  0  0  0  0  0  0  0  0  0  0
  1  2  1  0
  2  4  1  0
  3  2  2  0
  5  4  1  0
  6  7  1  1
  6  5  1  0
  8  9  2  0
  8  6  1  0
 10  8  1  0
 11 10  1  0
 11 14  1  0
 11 12  1  1
 13 12  1  0
 14 21  1  0
 15 14  2  0
 16 17  1  0
 17 19  1  0
 18 17  2  0
 20 19  1  6
 20 22  1  0
 21 20  1  0
 22 23  2  0
 22 24  1  0
M  END
$$$$
