QCN.pdb
     RDKit          3D

 24 23  0  0  1  0  0  0  0  0999 V2000
    3.6883  -17.9383   22.2865 N   0  0  0  0  0  0  0  0  0  0  0  0
    4.3805  -18.3709   21.1194 C   0  0  0  0  0  0  0  0  0  0  0  0
    3.7220  -18.9985   20.2657 O   0  0  0  0  0  0  0  0  0  0  0  0
    5.7920  -18.0935   20.9365 C   0  0  0  0  0  0  0  0  0  0  0  0
    6.4909  -17.2726   21.9444 C   0  0  0  0  0  0  0  0  0  0  0  0
    6.9781  -15.9291   21.5383 C   0  0  2  0  0  0  0  0  0  0  0  0
    7.9208  -15.8764   20.4746 N   0  0  0  0  0  0  0  0  0  0  0  0
    7.5845  -15.3087   22.7526 C   0  0  0  0  0  0  0  0  0  0  0  0
    8.7965  -15.6487   22.9745 O   0  0  0  0  0  0  0  0  0  0  0  0
    6.9535  -14.4226   23.6277 N   0  0  0  0  0  0  0  0  0  0  0  0
    7.5962  -14.1367   24.9111 C   0  0  1  0  0  0  0  0  0  0  0  0
    6.7144  -13.0535   25.5465 C   0  0  0  0  0  0  0  0  0  0  0  0
    7.4161  -12.7071   27.1751 S   0  0  0  0  0  0  0  0  0  0  0  0
    7.5724  -15.3089   25.7995 C   0  0  0  0  0  0  0  0  0  0  0  0
    6.5163  -15.9309   26.1064 O   0  0  0  0  0  0  0  0  0  0  0  0
   10.4595  -20.2300   26.0904 N   0  0  0  0  0  0  0  0  0  0  0  0
    9.3940  -19.4415   26.5292 C   0  0  0  0  0  0  0  0  0  0  0  0
    8.6127  -19.9072   27.4107 O   0  0  0  0  0  0  0  0  0  0  0  0
    9.1088  -18.0946   26.0414 C   0  0  0  0  0  0  0  0  0  0  0  0
    8.8815  -17.0454   27.0764 C   0  0  2  0  0  0  0  0  0  0  0  0
    8.7821  -15.7707   26.3417 N   0  0  0  0  0  0  0  0  0  0  0  0
    9.9460  -16.8895   28.0737 C   0  0  0  0  0  0  0  0  0  0  0  0
   10.2627  -17.8503   28.8091 O   0  0  0  0  0  0  0  0  0  0  0  0
   10.6117  -15.6973   28.2198 O   0  0  0  0  0  0  0  0  0  0  0  0
  1  2  1  0
  2  4  1  0
  3  2  2  0
  5  4  1  0
  6  7  1  6
  6  5  1  0
  8  9  2  0
  8  6  1  0
 10  8  1  0
 11 10  1  0
 11 14  1  0
 11 12  1  1
 13 12  1  0
 14 21  1  0
 15 14  2  0
 16 17  1  0
 17 19  1  0
 18 17  2  0
 20 19  1  6
 20 22  1  0
 21 20  1  0
 22 23  2  0
 22 24  1  0
M  END
$$$$
