QCN.pdb
     RDKit          3D

 24 23  0  0  1  0  0  0  0  0999 V2000
   -1.4332  -20.8791   19.8956 N   0  0  0  0  0  0  0  0  0  0  0  0
   -1.0277  -22.0966   19.2780 C   0  0  0  0  0  0  0  0  0  0  0  0
   -0.5722  -22.0239   18.1189 O   0  0  0  0  0  0  0  0  0  0  0  0
   -1.1436  -23.3655   19.9703 C   0  0  0  0  0  0  0  0  0  0  0  0
   -1.6779  -23.3779   21.3460 C   0  0  0  0  0  0  0  0  0  0  0  0
   -3.1518  -23.3272   21.5257 C   0  0  2  0  0  0  0  0  0  0  0  0
   -3.9053  -22.6716   20.5131 N   0  0  0  0  0  0  0  0  0  0  0  0
   -3.4007  -22.6466   22.8303 C   0  0  0  0  0  0  0  0  0  0  0  0
   -2.8199  -23.1881   23.8319 O   0  0  0  0  0  0  0  0  0  0  0  0
   -4.1876  -21.5109   23.0302 N   0  0  0  0  0  0  0  0  0  0  0  0
   -4.3305  -20.9948   24.3922 C   0  0  1  0  0  0  0  0  0  0  0  0
   -4.6766  -19.5118   24.2039 C   0  0  0  0  0  0  0  0  0  0  0  0
   -3.2077  -18.7240   23.5064 S   0  0  0  0  0  0  0  0  0  0  0  0
   -5.4564  -21.6297   25.0946 C   0  0  0  0  0  0  0  0  0  0  0  0
   -6.6246  -21.7019   24.6187 O   0  0  0  0  0  0  0  0  0  0  0  0
   -7.9012  -24.7174   28.7089 N   0  0  0  0  0  0  0  0  0  0  0  0
   -6.8455  -25.1694   27.9145 C   0  0  0  0  0  0  0  0  0  0  0  0
   -6.5964  -26.4108   27.8793 O   0  0  0  0  0  0  0  0  0  0  0  0
   -5.9929  -24.3031   27.1046 C   0  0  0  0  0  0  0  0  0  0  0  0
   -6.3041  -22.8450   27.1351 C   0  0  2  0  0  0  0  0  0  0  0  0
   -5.2330  -22.1891   26.3625 N   0  0  0  0  0  0  0  0  0  0  0  0
   -6.3243  -22.2229   28.4635 C   0  0  0  0  0  0  0  0  0  0  0  0
   -5.2950  -21.6749   28.9156 O   0  0  0  0  0  0  0  0  0  0  0  0
   -7.4625  -22.2282   29.2317 O   0  0  0  0  0  0  0  0  0  0  0  0
  1  2  1  0
  2  4  1  0
  3  2  2  0
  5  4  1  0
  6  7  1  6
  6  5  1  0
  8  9  2  0
  8  6  1  0
 10  8  1  0
 11 10  1  0
 11 14  1  0
 11 12  1  6
 13 12  1  0
 14 21  1  0
 15 14  2  0
 16 17  1  0
 17 19  1  0
 18 17  2  0
 20 19  1  1
 20 22  1  0
 21 20  1  0
 22 23  2  0
 22 24  1  0
M  END
$$$$
