QCN.pdb
     RDKit          3D

 24 23  0  0  1  0  0  0  0  0999 V2000
    8.1042  -12.5354   16.7856 N   0  0  0  0  0  0  0  0  0  0  0  0
    7.7827  -13.9158   16.6458 C   0  0  0  0  0  0  0  0  0  0  0  0
    7.4989  -14.3220   15.5010 O   0  0  0  0  0  0  0  0  0  0  0  0
    7.7840  -14.8073   17.7894 C   0  0  0  0  0  0  0  0  0  0  0  0
    8.8451  -15.8278   17.8933 C   0  0  0  0  0  0  0  0  0  0  0  0
    8.7286  -16.8534   18.9619 C   0  0  2  0  0  0  0  0  0  0  0  0
    7.4494  -17.4439   19.1559 N   0  0  0  0  0  0  0  0  0  0  0  0
    9.1559  -16.1978   20.2326 C   0  0  0  0  0  0  0  0  0  0  0  0
   10.3304  -15.6944   20.2025 O   0  0  0  0  0  0  0  0  0  0  0  0
    8.4008  -16.0978   21.4026 N   0  0  0  0  0  0  0  0  0  0  0  0
    9.0701  -15.6553   22.6266 C   0  0  1  0  0  0  0  0  0  0  0  0
    7.9228  -15.3096   23.5852 C   0  0  0  0  0  0  0  0  0  0  0  0
    7.0926  -13.8609   22.8945 S   0  0  0  0  0  0  0  0  0  0  0  0
    9.8501  -16.7422   23.2383 C   0  0  0  0  0  0  0  0  0  0  0  0
    9.4232  -17.9253   23.3592 O   0  0  0  0  0  0  0  0  0  0  0  0
   14.1191  -18.9972   20.8599 N   0  0  0  0  0  0  0  0  0  0  0  0
   13.3010  -18.9626   21.9909 C   0  0  0  0  0  0  0  0  0  0  0  0
   13.3971  -19.8954   22.8423 O   0  0  0  0  0  0  0  0  0  0  0  0
   12.3267  -17.9114   22.2725 C   0  0  0  0  0  0  0  0  0  0  0  0
   12.2250  -17.4598   23.6901 C   0  0  2  0  0  0  0  0  0  0  0  0
   11.1395  -16.4621   23.7173 N   0  0  0  0  0  0  0  0  0  0  0  0
   13.4209  -16.8150   24.2434 C   0  0  0  0  0  0  0  0  0  0  0  0
   14.0208  -17.3308   25.2121 O   0  0  0  0  0  0  0  0  0  0  0  0
   13.9034  -15.6430   23.7148 O   0  0  0  0  0  0  0  0  0  0  0  0
  1  2  1  0
  2  4  1  0
  3  2  2  0
  5  4  1  0
  6  7  1  1
  6  5  1  0
  8  9  2  0
  8  6  1  0
 10  8  1  0
 11 10  1  0
 11 14  1  0
 11 12  1  1
 13 12  1  0
 14 21  1  0
 15 14  2  0
 16 17  1  0
 17 19  1  0
 18 17  2  0
 20 19  1  6
 20 22  1  0
 21 20  1  0
 22 23  2  0
 22 24  1  0
M  END
$$$$
