QCN.pdb
     RDKit          3D

 24 23  0  0  1  0  0  0  0  0999 V2000
    9.8097  -13.4550   17.5684 N   0  0  0  0  0  0  0  0  0  0  0  0
    8.3896  -13.5490   17.5165 C   0  0  0  0  0  0  0  0  0  0  0  0
    7.8545  -13.4831   16.3914 O   0  0  0  0  0  0  0  0  0  0  0  0
    7.6025  -13.7119   18.7234 C   0  0  0  0  0  0  0  0  0  0  0  0
    8.2953  -13.7279   20.0264 C   0  0  0  0  0  0  0  0  0  0  0  0
    7.9080  -14.7688   21.0132 C   0  0  2  0  0  0  0  0  0  0  0  0
    6.5322  -15.1246   21.0726 N   0  0  0  0  0  0  0  0  0  0  0  0
    8.3361  -14.2690   22.3527 C   0  0  0  0  0  0  0  0  0  0  0  0
    9.5895  -14.0426   22.4601 O   0  0  0  0  0  0  0  0  0  0  0  0
    7.5051  -14.0405   23.4510 N   0  0  0  0  0  0  0  0  0  0  0  0
    8.1064  -14.0178   24.7852 C   0  0  1  0  0  0  0  0  0  0  0  0
    7.2703  -12.9929   25.5631 C   0  0  0  0  0  0  0  0  0  0  0  0
    5.7960  -13.8627   26.1416 S   0  0  0  0  0  0  0  0  0  0  0  0
    7.9647  -15.3156   25.4631 C   0  0  0  0  0  0  0  0  0  0  0  0
    7.1258  -16.1953   25.1184 O   0  0  0  0  0  0  0  0  0  0  0  0
   10.3749  -19.2762   25.2126 N   0  0  0  0  0  0  0  0  0  0  0  0
   10.8700  -18.0321   24.8167 C   0  0  0  0  0  0  0  0  0  0  0  0
   11.6397  -17.9732   23.8124 O   0  0  0  0  0  0  0  0  0  0  0  0
   10.5598  -16.7704   25.4839 C   0  0  0  0  0  0  0  0  0  0  0  0
    9.6039  -16.8384   26.6265 C   0  0  2  0  0  0  0  0  0  0  0  0
    8.8010  -15.6037   26.5530 N   0  0  0  0  0  0  0  0  0  0  0  0
   10.2069  -16.8850   27.9630 C   0  0  0  0  0  0  0  0  0  0  0  0
   10.3118  -17.9754   28.5666 O   0  0  0  0  0  0  0  0  0  0  0  0
   10.6652  -15.7440   28.5744 O   0  0  0  0  0  0  0  0  0  0  0  0
  1  2  1  0
  2  4  1  0
  3  2  2  0
  5  4  1  0
  6  7  1  1
  6  5  1  0
  8  9  2  0
  8  6  1  0
 10  8  1  0
 11 10  1  0
 11 14  1  0
 11 12  1  1
 13 12  1  0
 14 21  1  0
 15 14  2  0
 16 17  1  0
 17 19  1  0
 18 17  2  0
 20 19  1  6
 20 22  1  0
 21 20  1  0
 22 23  2  0
 22 24  1  0
M  END
$$$$
