TKL.pdb
     RDKit          3D

 25 24  0  0  1  0  0  0  0  0999 V2000
   28.2350  -19.1649  -18.0251 C   0  0  0  0  0  0  0  0  0  0  0  0
   27.1509  -19.6332  -17.0828 C   0  0  1  0  0  0  0  0  0  0  0  0
   25.9721  -19.9250  -17.7326 O   0  0  0  0  0  0  0  0  0  0  0  0
   27.6518  -20.8388  -16.3413 C   0  0  2  0  0  0  0  0  0  0  0  0
   27.7999  -21.9881  -17.2181 N   0  0  0  0  0  0  0  0  0  0  0  0
   26.7033  -21.2214  -15.2571 C   0  0  0  0  0  0  0  0  0  0  0  0
   25.8027  -22.0828  -15.4505 O   0  0  0  0  0  0  0  0  0  0  0  0
   26.7621  -20.6414  -13.9593 N   0  0  0  0  0  0  0  0  0  0  0  0
   25.8099  -21.0236  -12.9445 C   0  0  1  0  0  0  0  0  0  0  0  0
   26.2016  -20.4949  -11.5798 C   0  0  0  0  0  0  0  0  0  0  0  0
   25.2120  -21.0302  -10.5501 C   0  0  0  0  0  0  0  0  0  0  0  0
   25.6493  -20.4627   -9.2100 C   0  0  0  0  0  0  0  0  0  0  0  0
   24.8126  -21.0359   -8.0785 C   0  0  0  0  0  0  0  0  0  0  0  0
   25.3444  -20.4591   -6.8462 N   0  0  0  0  0  0  0  0  0  0  0  0
   24.4964  -20.3698  -13.2836 C   0  0  0  0  0  0  0  0  0  0  0  0
   24.5482  -19.3005  -13.9368 O   0  0  0  0  0  0  0  0  0  0  0  0
   21.1690  -19.1823  -16.6490 C   0  0  0  0  0  0  0  0  0  0  0  0
   21.2662  -20.5410  -16.0410 C   0  0  1  0  0  0  0  0  0  0  0  0
   21.3072  -21.5340  -17.1986 C   0  0  0  0  0  0  0  0  0  0  0  0
   22.2494  -20.8020  -15.0030 C   0  0  0  0  0  0  0  0  0  0  0  0
   22.0338  -20.4642  -13.5802 C   0  0  2  0  0  0  0  0  0  0  0  0
   23.2670  -20.9394  -12.8818 N   0  0  0  0  0  0  0  0  0  0  0  0
   20.8934  -21.1065  -12.9208 C   0  0  0  0  0  0  0  0  0  0  0  0
   19.7182  -20.4575  -12.6562 O   0  0  0  0  0  0  0  0  0  0  0  0
   20.9817  -22.3073  -12.5684 O   0  0  0  0  0  0  0  0  0  0  0  0
  2  1  1  6
  3  2  1  0
  4  2  1  0
  4  6  1  0
  4  5  1  6
  6  7  2  0
  8  9  1  0
  8  6  1  0
 10 11  1  0
  9 10  1  1
 11 12  1  0
 12 13  1  0
 13 14  1  0
 15 16  2  0
 15  9  1  0
 18 20  1  0
 18 17  1  6
 19 18  1  0
 21 20  1  6
 21 22  1  0
 21 23  1  0
 22 15  1  0
 23 25  2  0
 23 24  1  0
M  END
$$$$
