TKL.pdb
     RDKit          3D

 25 24  0  0  1  0  0  0  0  0999 V2000
   20.1377  -31.6023   -1.7950 C   0  0  0  0  0  0  0  0  0  0  0  0
   19.6435  -33.0275   -1.7118 C   0  0  1  0  0  0  0  0  0  0  0  0
   18.3753  -33.1196   -1.1825 O   0  0  0  0  0  0  0  0  0  0  0  0
   19.6806  -33.6261   -3.0882 C   0  0  2  0  0  0  0  0  0  0  0  0
   18.9319  -34.8697   -3.1557 N   0  0  0  0  0  0  0  0  0  0  0  0
   21.0833  -33.9247   -3.4944 C   0  0  0  0  0  0  0  0  0  0  0  0
   21.8197  -34.6753   -2.7980 O   0  0  0  0  0  0  0  0  0  0  0  0
   21.6609  -33.3848   -4.6771 N   0  0  0  0  0  0  0  0  0  0  0  0
   23.0443  -33.6417   -4.9976 C   0  0  1  0  0  0  0  0  0  0  0  0
   23.4460  -32.9964   -6.3082 C   0  0  0  0  0  0  0  0  0  0  0  0
   24.9080  -33.3311   -6.5854 C   0  0  0  0  0  0  0  0  0  0  0  0
   25.2552  -32.6490   -7.8981 C   0  0  0  0  0  0  0  0  0  0  0  0
   26.6602  -33.0160   -8.3457 C   0  0  0  0  0  0  0  0  0  0  0  0
   26.8648  -32.3517   -9.6307 N   0  0  0  0  0  0  0  0  0  0  0  0
   23.8867  -32.9866   -3.9350 C   0  0  0  0  0  0  0  0  0  0  0  0
   23.5176  -31.8563   -3.5368 O   0  0  0  0  0  0  0  0  0  0  0  0
   23.2263  -31.9123    0.6176 C   0  0  0  0  0  0  0  0  0  0  0  0
   24.2461  -31.8037   -0.4658 C   0  0  1  0  0  0  0  0  0  0  0  0
   25.3863  -30.9578    0.0929 C   0  0  0  0  0  0  0  0  0  0  0  0
   24.6851  -32.9966   -1.1704 C   0  0  0  0  0  0  0  0  0  0  0  0
   25.7024  -32.9754   -2.2426 C   0  0  2  0  0  0  0  0  0  0  0  0
   25.0376  -33.6213   -3.4153 N   0  0  0  0  0  0  0  0  0  0  0  0
   26.9382  -33.7204   -1.9866 C   0  0  0  0  0  0  0  0  0  0  0  0
   28.0767  -33.1382   -1.4994 O   0  0  0  0  0  0  0  0  0  0  0  0
   26.9762  -34.9514   -2.2254 O   0  0  0  0  0  0  0  0  0  0  0  0
  2  1  1  6
  3  2  1  0
  4  2  1  0
  4  6  1  0
  4  5  1  1
  6  7  2  0
  8  9  1  0
  8  6  1  0
 10 11  1  0
  9 10  1  6
 11 12  1  0
 12 13  1  0
 13 14  1  0
 15 16  2  0
 15  9  1  0
 18 20  1  0
 18 17  1  1
 19 18  1  0
 21 20  1  1
 21 22  1  0
 21 23  1  0
 22 15  1  0
 23 25  2  0
 23 24  1  0
M  END
$$$$
