TKL.pdb
     RDKit          3D

 25 24  0  0  1  0  0  0  0  0999 V2000
   20.7075  -13.7362  -16.0000 C   0  0  0  0  0  0  0  0  0  0  0  0
   20.9219  -14.0658  -17.4587 C   0  0  1  0  0  0  0  0  0  0  0  0
   21.1649  -15.4049  -17.6703 O   0  0  0  0  0  0  0  0  0  0  0  0
   19.7111  -13.6256  -18.2298 C   0  0  2  0  0  0  0  0  0  0  0  0
   19.8323  -13.9324  -19.6450 N   0  0  0  0  0  0  0  0  0  0  0  0
   19.5147  -12.1533  -18.1054 C   0  0  0  0  0  0  0  0  0  0  0  0
   20.2189  -11.3420  -18.7660 O   0  0  0  0  0  0  0  0  0  0  0  0
   18.5327  -11.5900  -17.2440 N   0  0  0  0  0  0  0  0  0  0  0  0
   18.3714  -10.1586  -17.1573 C   0  0  1  0  0  0  0  0  0  0  0  0
   16.9415   -9.7732  -16.8372 C   0  0  0  0  0  0  0  0  0  0  0  0
   16.0764  -10.0613  -18.0598 C   0  0  0  0  0  0  0  0  0  0  0  0
   14.6553   -9.6935  -17.6670 C   0  0  0  0  0  0  0  0  0  0  0  0
   13.6885   -9.9691  -18.8064 C   0  0  0  0  0  0  0  0  0  0  0  0
   12.3738   -9.5367  -18.3386 N   0  0  0  0  0  0  0  0  0  0  0  0
   19.2027   -9.6764  -15.9979 C   0  0  0  0  0  0  0  0  0  0  0  0
   19.3808  -10.4833  -15.0546 O   0  0  0  0  0  0  0  0  0  0  0  0
   23.7716  -10.6950  -15.1331 C   0  0  0  0  0  0  0  0  0  0  0  0
   22.4589  -10.0926  -14.7600 C   0  0  1  0  0  0  0  0  0  0  0  0
   22.4489   -9.9787  -13.2386 C   0  0  0  0  0  0  0  0  0  0  0  0
   21.9873   -8.9009  -15.4453 C   0  0  0  0  0  0  0  0  0  0  0  0
   20.8321   -8.1039  -14.9815 C   0  0  2  0  0  0  0  0  0  0  0  0
   19.7532   -8.3749  -15.9799 N   0  0  0  0  0  0  0  0  0  0  0  0
   21.0168   -6.6507  -14.9339 C   0  0  0  0  0  0  0  0  0  0  0  0
   21.5006   -5.9926  -13.8361 O   0  0  0  0  0  0  0  0  0  0  0  0
   20.7163   -5.9583  -15.9360 O   0  0  0  0  0  0  0  0  0  0  0  0
  2  1  1  1
  3  2  1  0
  4  2  1  0
  4  6  1  0
  4  5  1  6
  6  7  2  0
  8  9  1  0
  8  6  1  0
 10 11  1  0
  9 10  1  1
 11 12  1  0
 12 13  1  0
 13 14  1  0
 15 16  2  0
 15  9  1  0
 18 20  1  0
 18 17  1  6
 19 18  1  0
 21 20  1  6
 21 22  1  0
 21 23  1  0
 22 15  1  0
 23 25  2  0
 23 24  1  0
M  END
$$$$
