TKL.pdb
     RDKit          3D

 25 24  0  0  1  0  0  0  0  0999 V2000
   28.6241  -21.6030  -13.4776 C   0  0  0  0  0  0  0  0  0  0  0  0
   28.6612  -20.3907  -14.3785 C   0  0  1  0  0  0  0  0  0  0  0  0
   29.3950  -20.6031  -15.5245 O   0  0  0  0  0  0  0  0  0  0  0  0
   27.2504  -20.0101  -14.7237 C   0  0  2  0  0  0  0  0  0  0  0  0
   27.2037  -18.8548  -15.6040 N   0  0  0  0  0  0  0  0  0  0  0  0
   26.4817  -19.6677  -13.4935 C   0  0  0  0  0  0  0  0  0  0  0  0
   26.5506  -18.5186  -12.9785 O   0  0  0  0  0  0  0  0  0  0  0  0
   25.6379  -20.6089  -12.8408 N   0  0  0  0  0  0  0  0  0  0  0  0
   24.8703  -20.2213  -11.6819 C   0  0  1  0  0  0  0  0  0  0  0  0
   23.4981  -20.8637  -11.6771 C   0  0  0  0  0  0  0  0  0  0  0  0
   22.6513  -20.2066  -12.7621 C   0  0  0  0  0  0  0  0  0  0  0  0
   21.2566  -20.7934  -12.6219 C   0  0  0  0  0  0  0  0  0  0  0  0
   20.3120  -20.2010  -13.6543 C   0  0  0  0  0  0  0  0  0  0  0  0
   19.0096  -20.8184  -13.4162 N   0  0  0  0  0  0  0  0  0  0  0  0
   25.5830  -20.7515  -10.4658 C   0  0  0  0  0  0  0  0  0  0  0  0
   26.0437  -21.9153  -10.5421 O   0  0  0  0  0  0  0  0  0  0  0  0
   29.1841  -20.3863   -6.2494 C   0  0  0  0  0  0  0  0  0  0  0  0
   27.8659  -19.6884   -6.2200 C   0  0  1  0  0  0  0  0  0  0  0  0
   28.0723  -18.4016   -5.4267 C   0  0  0  0  0  0  0  0  0  0  0  0
   27.1123  -19.5105   -7.4498 C   0  0  0  0  0  0  0  0  0  0  0  0
   26.3888  -20.6100   -8.1224 C   0  0  2  0  0  0  0  0  0  0  0  0
   25.7227  -19.9692   -9.2971 N   0  0  0  0  0  0  0  0  0  0  0  0
   25.3393  -21.2746   -7.3446 C   0  0  0  0  0  0  0  0  0  0  0  0
   25.5840  -22.3195   -6.4958 O   0  0  0  0  0  0  0  0  0  0  0  0
   24.1517  -20.8853   -7.4535 O   0  0  0  0  0  0  0  0  0  0  0  0
  2  1  1  1
  3  2  1  0
  4  2  1  0
  4  6  1  0
  4  5  1  6
  6  7  2  0
  8  9  1  0
  8  6  1  0
 10 11  1  0
  9 10  1  6
 11 12  1  0
 12 13  1  0
 13 14  1  0
 15 16  2  0
 15  9  1  0
 18 20  1  0
 18 17  1  6
 19 18  1  0
 21 20  1  1
 21 22  1  0
 21 23  1  0
 22 15  1  0
 23 25  2  0
 23 24  1  0
M  END
$$$$
