TKL.pdb
     RDKit          3D

 25 24  0  0  1  0  0  0  0  0999 V2000
   45.6603  -19.7031   -9.3255 C   0  0  0  0  0  0  0  0  0  0  0  0
   45.3856  -18.2757   -9.7370 C   0  0  1  0  0  0  0  0  0  0  0  0
   45.9201  -17.9657  -10.9680 O   0  0  0  0  0  0  0  0  0  0  0  0
   43.9000  -18.0584   -9.7420 C   0  0  2  0  0  0  0  0  0  0  0  0
   43.2464  -18.8255  -10.7890 N   0  0  0  0  0  0  0  0  0  0  0  0
   43.5792  -16.6212   -9.9724 C   0  0  0  0  0  0  0  0  0  0  0  0
   43.0532  -16.2338  -11.0512 O   0  0  0  0  0  0  0  0  0  0  0  0
   43.8462  -15.6196   -8.9981 N   0  0  0  0  0  0  0  0  0  0  0  0
   43.4367  -14.2542   -9.2228 C   0  0  1  0  0  0  0  0  0  0  0  0
   42.9396  -13.6005   -7.9495 C   0  0  0  0  0  0  0  0  0  0  0  0
   42.5406  -12.1630   -8.2663 C   0  0  0  0  0  0  0  0  0  0  0  0
   41.9442  -11.5992   -6.9875 C   0  0  0  0  0  0  0  0  0  0  0  0
   41.4239  -10.1885   -7.2068 C   0  0  0  0  0  0  0  0  0  0  0  0
   40.8768   -9.7522   -5.9244 N   0  0  0  0  0  0  0  0  0  0  0  0
   44.6563  -13.4765   -9.6419 C   0  0  0  0  0  0  0  0  0  0  0  0
   45.7102  -13.6842   -8.9950 O   0  0  0  0  0  0  0  0  0  0  0  0
   46.3986  -12.9307  -14.7752 C   0  0  0  0  0  0  0  0  0  0  0  0
   46.4237  -12.9728  -13.2842 C   0  0  1  0  0  0  0  0  0  0  0  0
   47.8193  -13.4429  -12.8855 C   0  0  0  0  0  0  0  0  0  0  0  0
   45.9417  -11.8353  -12.5188 C   0  0  0  0  0  0  0  0  0  0  0  0
   45.8695  -11.8249  -11.0424 C   0  0  2  0  0  0  0  0  0  0  0  0
   44.6085  -12.5575  -10.7146 N   0  0  0  0  0  0  0  0  0  0  0  0
   45.7804  -10.5101  -10.4011 C   0  0  0  0  0  0  0  0  0  0  0  0
   44.6392   -9.7553  -10.3952 O   0  0  0  0  0  0  0  0  0  0  0  0
   46.7907  -10.0334   -9.8300 O   0  0  0  0  0  0  0  0  0  0  0  0
  2  1  1  6
  3  2  1  0
  4  2  1  0
  4  6  1  0
  4  5  1  6
  6  7  2  0
  8  9  1  0
  8  6  1  0
 10 11  1  0
  9 10  1  1
 11 12  1  0
 12 13  1  0
 13 14  1  0
 15 16  2  0
 15  9  1  0
 18 20  1  0
 18 17  1  6
 19 18  1  0
 21 20  1  6
 21 22  1  0
 21 23  1  0
 22 15  1  0
 23 25  2  0
 23 24  1  0
M  END
$$$$
