TKL.pdb
     RDKit          3D

 25 24  0  0  1  0  0  0  0  0999 V2000
   28.8785  -26.3259  -16.0639 C   0  0  0  0  0  0  0  0  0  0  0  0
   27.4502  -25.8441  -16.1657 C   0  0  1  0  0  0  0  0  0  0  0  0
   27.3405  -24.4773  -16.0366 O   0  0  0  0  0  0  0  0  0  0  0  0
   26.8889  -26.2918  -17.4843 C   0  0  2  0  0  0  0  0  0  0  0  0
   27.6412  -25.7490  -18.6028 N   0  0  0  0  0  0  0  0  0  0  0  0
   25.4756  -25.8426  -17.6343 C   0  0  0  0  0  0  0  0  0  0  0  0
   25.1601  -24.9425  -18.4594 O   0  0  0  0  0  0  0  0  0  0  0  0
   24.4177  -26.3990  -16.8629 N   0  0  0  0  0  0  0  0  0  0  0  0
   23.0543  -25.9803  -17.0832 C   0  0  1  0  0  0  0  0  0  0  0  0
   22.0809  -27.1299  -16.9211 C   0  0  0  0  0  0  0  0  0  0  0  0
   22.1528  -28.0056  -18.1678 C   0  0  0  0  0  0  0  0  0  0  0  0
   21.1254  -29.1074  -17.9691 C   0  0  0  0  0  0  0  0  0  0  0  0
   21.0590  -30.0139  -19.1868 C   0  0  0  0  0  0  0  0  0  0  0  0
   20.1149  -31.0773  -18.8519 N   0  0  0  0  0  0  0  0  0  0  0  0
   22.7053  -24.9839  -16.0094 C   0  0  0  0  0  0  0  0  0  0  0  0
   23.5741  -24.7709  -15.1306 O   0  0  0  0  0  0  0  0  0  0  0  0
   22.8284  -20.7921  -13.4239 C   0  0  0  0  0  0  0  0  0  0  0  0
   22.3697  -20.8638  -14.8416 C   0  0  1  0  0  0  0  0  0  0  0  0
   23.2150  -19.8630  -15.6237 C   0  0  0  0  0  0  0  0  0  0  0  0
   22.2282  -22.1550  -15.4933 C   0  0  0  0  0  0  0  0  0  0  0  0
   21.2877  -23.1970  -15.0303 C   0  0  2  0  0  0  0  0  0  0  0  0
   21.4558  -24.3235  -15.9983 N   0  0  0  0  0  0  0  0  0  0  0  0
   19.8659  -22.8413  -15.0294 C   0  0  0  0  0  0  0  0  0  0  0  0
   19.2096  -22.3805  -13.9207 O   0  0  0  0  0  0  0  0  0  0  0  0
   19.1994  -22.9645  -16.0851 O   0  0  0  0  0  0  0  0  0  0  0  0
  2  1  1  6
  3  2  1  0
  4  2  1  0
  4  6  1  0
  4  5  1  6
  6  7  2  0
  8  9  1  0
  8  6  1  0
 10 11  1  0
  9 10  1  1
 11 12  1  0
 12 13  1  0
 13 14  1  0
 15 16  2  0
 15  9  1  0
 18 20  1  0
 18 17  1  1
 19 18  1  0
 21 20  1  6
 21 22  1  0
 21 23  1  0
 22 15  1  0
 23 25  2  0
 23 24  1  0
M  END
$$$$
