TKL.pdb
     RDKit          3D

 25 24  0  0  1  0  0  0  0  0999 V2000
   28.7474  -24.9167  -18.1190 C   0  0  0  0  0  0  0  0  0  0  0  0
   27.8668  -23.9326  -17.3852 C   0  0  1  0  0  0  0  0  0  0  0  0
   27.3080  -24.4672  -16.2455 O   0  0  0  0  0  0  0  0  0  0  0  0
   28.6855  -22.7202  -17.0473 C   0  0  2  0  0  0  0  0  0  0  0  0
   29.8267  -23.0557  -16.2125 N   0  0  0  0  0  0  0  0  0  0  0  0
   27.8651  -21.7216  -16.3047 C   0  0  0  0  0  0  0  0  0  0  0  0
   28.2500  -21.2518  -15.1994 O   0  0  0  0  0  0  0  0  0  0  0  0
   26.6168  -21.2496  -16.7977 N   0  0  0  0  0  0  0  0  0  0  0  0
   25.9287  -20.1707  -16.1305 C   0  0  1  0  0  0  0  0  0  0  0  0
   25.0076  -19.4242  -17.0739 C   0  0  0  0  0  0  0  0  0  0  0  0
   24.4085  -18.2366  -16.3277 C   0  0  0  0  0  0  0  0  0  0  0  0
   23.4780  -17.5465  -17.3111 C   0  0  0  0  0  0  0  0  0  0  0  0
   22.9291  -16.2563  -16.7254 C   0  0  0  0  0  0  0  0  0  0  0  0
   22.0856  -15.6652  -17.7614 N   0  0  0  0  0  0  0  0  0  0  0  0
   25.0417  -20.7795  -15.0767 C   0  0  0  0  0  0  0  0  0  0  0  0
   24.3766  -21.7889  -15.4105 O   0  0  0  0  0  0  0  0  0  0  0  0
   26.5552  -20.5136   -9.7260 C   0  0  0  0  0  0  0  0  0  0  0  0
   26.0478  -20.9342  -11.0642 C   0  0  1  0  0  0  0  0  0  0  0  0
   26.3919  -22.4128  -11.2153 C   0  0  0  0  0  0  0  0  0  0  0  0
   24.6911  -20.5990  -11.4632 C   0  0  0  0  0  0  0  0  0  0  0  0
   24.1214  -20.9597  -12.7785 C   0  0  2  0  0  0  0  0  0  0  0  0
   24.9669  -20.2341  -13.7750 N   0  0  0  0  0  0  0  0  0  0  0  0
   22.7329  -20.5591  -13.0222 C   0  0  0  0  0  0  0  0  0  0  0  0
   21.6580  -21.2297  -12.5053 O   0  0  0  0  0  0  0  0  0  0  0  0
   22.4974  -19.5592  -13.7424 O   0  0  0  0  0  0  0  0  0  0  0  0
  2  1  1  1
  3  2  1  0
  4  2  1  0
  4  6  1  0
  4  5  1  1
  6  7  2  0
  8  9  1  0
  8  6  1  0
 10 11  1  0
  9 10  1  6
 11 12  1  0
 12 13  1  0
 13 14  1  0
 15 16  2  0
 15  9  1  0
 18 20  1  0
 18 17  1  1
 19 18  1  0
 21 20  1  1
 21 22  1  0
 21 23  1  0
 22 15  1  0
 23 25  2  0
 23 24  1  0
M  END
$$$$
