TKL.pdb
     RDKit          3D

 25 24  0  0  1  0  0  0  0  0999 V2000
   26.9137  -17.1618  -18.4037 C   0  0  0  0  0  0  0  0  0  0  0  0
   25.7945  -17.9469  -17.7607 C   0  0  1  0  0  0  0  0  0  0  0  0
   24.7877  -18.2593  -18.6471 O   0  0  0  0  0  0  0  0  0  0  0  0
   26.3716  -19.1972  -17.1626 C   0  0  2  0  0  0  0  0  0  0  0  0
   26.8597  -20.1081  -18.1842 N   0  0  0  0  0  0  0  0  0  0  0  0
   25.3412  -19.9248  -16.3685 C   0  0  0  0  0  0  0  0  0  0  0  0
   24.5916  -20.7863  -16.9038 O   0  0  0  0  0  0  0  0  0  0  0  0
   25.1497  -19.6891  -14.9787 N   0  0  0  0  0  0  0  0  0  0  0  0
   24.1884  -20.4641  -14.2318 C   0  0  1  0  0  0  0  0  0  0  0  0
   24.5384  -20.5239  -12.7589 C   0  0  0  0  0  0  0  0  0  0  0  0
   25.6640  -21.5354  -12.5687 C   0  0  0  0  0  0  0  0  0  0  0  0
   25.9520  -21.5703  -11.0771 C   0  0  0  0  0  0  0  0  0  0  0  0
   27.0901  -22.5280  -10.7662 C   0  0  0  0  0  0  0  0  0  0  0  0
   27.5914  -22.1501   -9.4470 N   0  0  0  0  0  0  0  0  0  0  0  0
   22.8646  -19.7513  -14.3171 C   0  0  0  0  0  0  0  0  0  0  0  0
   22.8983  -18.4990  -14.3723 O   0  0  0  0  0  0  0  0  0  0  0  0
   19.7081  -16.8953  -16.6057 C   0  0  0  0  0  0  0  0  0  0  0  0
   19.6924  -18.3772  -16.7764 C   0  0  1  0  0  0  0  0  0  0  0  0
   19.6574  -18.6420  -18.2785 C   0  0  0  0  0  0  0  0  0  0  0  0
   20.6470  -19.2003  -16.0529 C   0  0  0  0  0  0  0  0  0  0  0  0
   20.4099  -19.7000  -14.6822 C   0  0  2  0  0  0  0  0  0  0  0  0
   21.6454  -20.4660  -14.3338 N   0  0  0  0  0  0  0  0  0  0  0  0
   19.2762  -20.6118  -14.5052 C   0  0  0  0  0  0  0  0  0  0  0  0
   19.2840  -21.9097  -14.9385 O   0  0  0  0  0  0  0  0  0  0  0  0
   18.2366  -20.1992  -13.9370 O   0  0  0  0  0  0  0  0  0  0  0  0
  2  1  1  6
  3  2  1  0
  4  2  1  0
  4  6  1  0
  4  5  1  6
  6  7  2  0
  8  9  1  0
  8  6  1  0
 10 11  1  0
  9 10  1  1
 11 12  1  0
 12 13  1  0
 13 14  1  0
 15 16  2  0
 15  9  1  0
 18 20  1  0
 18 17  1  6
 19 18  1  0
 21 20  1  6
 21 22  1  0
 21 23  1  0
 22 15  1  0
 23 25  2  0
 23 24  1  0
M  END
$$$$
