TKL.pdb
     RDKit          3D

 25 24  0  0  1  0  0  0  0  0999 V2000
   26.1625  -21.1007  -10.1433 C   0  0  0  0  0  0  0  0  0  0  0  0
   25.7643  -20.6726  -11.5364 C   0  0  1  0  0  0  0  0  0  0  0  0
   26.8490  -20.3671  -12.3283 O   0  0  0  0  0  0  0  0  0  0  0  0
   24.9545  -21.7724  -12.1599 C   0  0  2  0  0  0  0  0  0  0  0  0
   25.7878  -22.8908  -12.5678 N   0  0  0  0  0  0  0  0  0  0  0  0
   24.2419  -21.2786  -13.3723 C   0  0  0  0  0  0  0  0  0  0  0  0
   24.6877  -21.5054  -14.5301 O   0  0  0  0  0  0  0  0  0  0  0  0
   23.0333  -20.5328  -13.2897 N   0  0  0  0  0  0  0  0  0  0  0  0
   22.3751  -20.0729  -14.4889 C   0  0  1  0  0  0  0  0  0  0  0  0
   20.9255  -19.7153  -14.2316 C   0  0  0  0  0  0  0  0  0  0  0  0
   20.2472  -19.4470  -15.5710 C   0  0  0  0  0  0  0  0  0  0  0  0
   18.7675  -19.2796  -15.2684 C   0  0  0  0  0  0  0  0  0  0  0  0
   17.9693  -19.0932  -16.5479 C   0  0  0  0  0  0  0  0  0  0  0  0
   16.5718  -18.9672  -16.1414 N   0  0  0  0  0  0  0  0  0  0  0  0
   23.0497  -18.7964  -14.9171 C   0  0  0  0  0  0  0  0  0  0  0  0
   23.1563  -17.8946  -14.0523 O   0  0  0  0  0  0  0  0  0  0  0  0
   28.1148  -18.3068  -15.9513 C   0  0  0  0  0  0  0  0  0  0  0  0
   26.7431  -17.7863  -15.6811 C   0  0  1  0  0  0  0  0  0  0  0  0
   26.9157  -16.3883  -15.0951 C   0  0  0  0  0  0  0  0  0  0  0  0
   25.7189  -17.8747  -16.7083 C   0  0  0  0  0  0  0  0  0  0  0  0
   24.3340  -17.3960  -16.5141 C   0  0  2  0  0  0  0  0  0  0  0  0
   23.5374  -18.6292  -16.2330 N   0  0  0  0  0  0  0  0  0  0  0  0
   23.7050  -16.7312  -17.6588 C   0  0  0  0  0  0  0  0  0  0  0  0
   23.8057  -15.3867  -17.8925 O   0  0  0  0  0  0  0  0  0  0  0  0
   23.0321  -17.4095  -18.4718 O   0  0  0  0  0  0  0  0  0  0  0  0
  2  1  1  1
  3  2  1  0
  4  2  1  0
  4  6  1  0
  4  5  1  6
  6  7  2  0
  8  9  1  0
  8  6  1  0
 10 11  1  0
  9 10  1  1
 11 12  1  0
 12 13  1  0
 13 14  1  0
 15 16  2  0
 15  9  1  0
 18 20  1  0
 18 17  1  6
 19 18  1  0
 21 20  1  6
 21 22  1  0
 21 23  1  0
 22 15  1  0
 23 25  2  0
 23 24  1  0
M  END
$$$$
