TKL.pdb
     RDKit          3D

 25 24  0  0  1  0  0  0  0  0999 V2000
   25.0464  -19.0189  -13.8399 C   0  0  0  0  0  0  0  0  0  0  0  0
   26.0163  -20.1470  -13.5768 C   0  0  1  0  0  0  0  0  0  0  0  0
   27.3312  -19.7577  -13.7060 O   0  0  0  0  0  0  0  0  0  0  0  0
   25.7623  -20.6820  -12.1971 C   0  0  2  0  0  0  0  0  0  0  0  0
   26.7202  -21.7125  -11.8336 N   0  0  0  0  0  0  0  0  0  0  0  0
   24.4014  -21.2833  -12.1082 C   0  0  0  0  0  0  0  0  0  0  0  0
   24.1591  -22.4252  -12.5858 O   0  0  0  0  0  0  0  0  0  0  0  0
   23.3140  -20.6088  -11.4865 N   0  0  0  0  0  0  0  0  0  0  0  0
   22.0096  -21.2233  -11.4295 C   0  0  1  0  0  0  0  0  0  0  0  0
   21.3871  -21.0924  -10.0544 C   0  0  0  0  0  0  0  0  0  0  0  0
   20.6397  -22.3832   -9.7357 C   0  0  0  0  0  0  0  0  0  0  0  0
   20.0615  -22.2026   -8.3421 C   0  0  0  0  0  0  0  0  0  0  0  0
   19.1904  -23.3870   -7.9580 C   0  0  0  0  0  0  0  0  0  0  0  0
   18.8018  -23.1723   -6.5662 N   0  0  0  0  0  0  0  0  0  0  0  0
   21.1084  -20.4659  -12.3688 C   0  0  0  0  0  0  0  0  0  0  0  0
   21.0683  -19.2199  -12.2334 O   0  0  0  0  0  0  0  0  0  0  0  0
   21.6488  -20.4532  -17.5802 C   0  0  0  0  0  0  0  0  0  0  0  0
   21.1871  -20.0113  -16.2323 C   0  0  1  0  0  0  0  0  0  0  0  0
   21.1429  -18.4867  -16.2655 C   0  0  0  0  0  0  0  0  0  0  0  0
   20.0144  -20.6240  -15.6309 C   0  0  0  0  0  0  0  0  0  0  0  0
   19.5298  -20.2868  -14.2759 C   0  0  2  0  0  0  0  0  0  0  0  0
   20.3467  -21.1339  -13.3542 N   0  0  0  0  0  0  0  0  0  0  0  0
   18.1220  -20.5803  -13.9928 C   0  0  0  0  0  0  0  0  0  0  0  0
   17.0907  -19.7923  -14.4261 O   0  0  0  0  0  0  0  0  0  0  0  0
   17.8282  -21.5952  -13.3163 O   0  0  0  0  0  0  0  0  0  0  0  0
  2  1  1  1
  3  2  1  0
  4  2  1  0
  4  6  1  0
  4  5  1  6
  6  7  2  0
  8  9  1  0
  8  6  1  0
 10 11  1  0
  9 10  1  1
 11 12  1  0
 12 13  1  0
 13 14  1  0
 15 16  2  0
 15  9  1  0
 18 20  1  0
 18 17  1  6
 19 18  1  0
 21 20  1  6
 21 22  1  0
 21 23  1  0
 22 15  1  0
 23 25  2  0
 23 24  1  0
M  END
$$$$
