TKL.pdb
     RDKit          3D

 25 24  0  0  1  0  0  0  0  0999 V2000
   26.3555  -23.4092  -17.6361 C   0  0  0  0  0  0  0  0  0  0  0  0
   25.0820  -22.9659  -16.9549 C   0  0  1  0  0  0  0  0  0  0  0  0
   24.4020  -24.0105  -16.3688 O   0  0  0  0  0  0  0  0  0  0  0  0
   25.4274  -21.9255  -15.9290 C   0  0  2  0  0  0  0  0  0  0  0  0
   26.3629  -22.4333  -14.9398 N   0  0  0  0  0  0  0  0  0  0  0  0
   24.2057  -21.4774  -15.2021 C   0  0  0  0  0  0  0  0  0  0  0  0
   24.0715  -21.6776  -13.9642 O   0  0  0  0  0  0  0  0  0  0  0  0
   23.1366  -20.8067  -15.8587 N   0  0  0  0  0  0  0  0  0  0  0  0
   22.0090  -20.3154  -15.1038 C   0  0  1  0  0  0  0  0  0  0  0  0
   21.3916  -19.0918  -15.7495 C   0  0  0  0  0  0  0  0  0  0  0  0
   20.2459  -18.6046  -14.8685 C   0  0  0  0  0  0  0  0  0  0  0  0
   19.6465  -17.4041  -15.5815 C   0  0  0  0  0  0  0  0  0  0  0  0
   18.4779  -16.8335  -14.7956 C   0  0  0  0  0  0  0  0  0  0  0  0
   19.0200  -15.7352  -13.9994 N   0  0  0  0  0  0  0  0  0  0  0  0
   20.9456  -21.3814  -15.1289 C   0  0  0  0  0  0  0  0  0  0  0  0
   20.6519  -21.8620  -16.2493 O   0  0  0  0  0  0  0  0  0  0  0  0
   20.8965  -25.9924  -12.5538 C   0  0  0  0  0  0  0  0  0  0  0  0
   20.5982  -24.8830  -13.5054 C   0  0  1  0  0  0  0  0  0  0  0  0
   20.4578  -25.5188  -14.8851 C   0  0  0  0  0  0  0  0  0  0  0  0
   19.5584  -23.9177  -13.1905 C   0  0  0  0  0  0  0  0  0  0  0  0
   19.1953  -22.7981  -14.0846 C   0  0  2  0  0  0  0  0  0  0  0  0
   20.3124  -21.8152  -13.9422 N   0  0  0  0  0  0  0  0  0  0  0  0
   17.9543  -22.0851  -13.7693 C   0  0  0  0  0  0  0  0  0  0  0  0
   16.7150  -22.6552  -13.8757 O   0  0  0  0  0  0  0  0  0  0  0  0
   18.0096  -20.8912  -13.3878 O   0  0  0  0  0  0  0  0  0  0  0  0
  2  1  1  1
  3  2  1  0
  4  2  1  0
  4  6  1  0
  4  5  1  1
  6  7  2  0
  8  9  1  0
  8  6  1  0
 10 11  1  0
  9 10  1  6
 11 12  1  0
 12 13  1  0
 13 14  1  0
 15 16  2  0
 15  9  1  0
 18 20  1  0
 18 17  1  1
 19 18  1  0
 21 20  1  1
 21 22  1  0
 21 23  1  0
 22 15  1  0
 23 25  2  0
 23 24  1  0
M  END
$$$$
