TKL.pdb
     RDKit          3D

 25 24  0  0  1  0  0  0  0  0999 V2000
   30.5849  -22.2308  -11.7513 C   0  0  0  0  0  0  0  0  0  0  0  0
   30.8475  -21.8758  -13.1961 C   0  0  1  0  0  0  0  0  0  0  0  0
   31.8774  -22.6079  -13.7440 O   0  0  0  0  0  0  0  0  0  0  0  0
   29.5824  -22.0874  -13.9765 C   0  0  2  0  0  0  0  0  0  0  0  0
   29.7154  -21.6368  -15.3516 N   0  0  0  0  0  0  0  0  0  0  0  0
   28.4536  -21.3308  -13.3640 C   0  0  0  0  0  0  0  0  0  0  0  0
   28.2668  -20.1110  -13.6246 O   0  0  0  0  0  0  0  0  0  0  0  0
   27.5358  -21.9374  -12.4621 N   0  0  0  0  0  0  0  0  0  0  0  0
   26.4238  -21.1840  -11.9344 C   0  0  1  0  0  0  0  0  0  0  0  0
   25.0964  -21.7227  -12.4277 C   0  0  0  0  0  0  0  0  0  0  0  0
   24.4615  -20.6823  -13.3446 C   0  0  0  0  0  0  0  0  0  0  0  0
   23.1089  -21.2451  -13.7482 C   0  0  0  0  0  0  0  0  0  0  0  0
   22.3502  -20.2608  -14.6225 C   0  0  0  0  0  0  0  0  0  0  0  0
   21.0230  -20.8363  -14.8264 N   0  0  0  0  0  0  0  0  0  0  0  0
   26.4186  -21.3671  -10.4397 C   0  0  0  0  0  0  0  0  0  0  0  0
   26.6059  -22.5306  -10.0111 O   0  0  0  0  0  0  0  0  0  0  0  0
   27.1543  -18.5892   -5.4010 C   0  0  0  0  0  0  0  0  0  0  0  0
   27.9857  -19.3385   -6.3872 C   0  0  1  0  0  0  0  0  0  0  0  0
   28.4175  -20.6304   -5.7002 C   0  0  0  0  0  0  0  0  0  0  0  0
   27.5069  -19.5234   -7.7469 C   0  0  0  0  0  0  0  0  0  0  0  0
   26.4653  -20.5066   -8.1119 C   0  0  2  0  0  0  0  0  0  0  0  0
   26.2117  -20.2750   -9.5667 N   0  0  0  0  0  0  0  0  0  0  0  0
   25.1762  -20.3789   -7.4266 C   0  0  0  0  0  0  0  0  0  0  0  0
   24.2461  -19.4292   -7.7510 O   0  0  0  0  0  0  0  0  0  0  0  0
   24.8958  -21.1650   -6.4899 O   0  0  0  0  0  0  0  0  0  0  0  0
  2  1  1  1
  3  2  1  0
  4  2  1  0
  4  6  1  0
  4  5  1  6
  6  7  2  0
  8  9  1  0
  8  6  1  0
 10 11  1  0
  9 10  1  6
 11 12  1  0
 12 13  1  0
 13 14  1  0
 15 16  2  0
 15  9  1  0
 18 20  1  0
 18 17  1  1
 19 18  1  0
 21 20  1  1
 21 22  1  0
 21 23  1  0
 22 15  1  0
 23 25  2  0
 23 24  1  0
M  END
$$$$
