TKL.pdb
     RDKit          3D

 25 24  0  0  1  0  0  0  0  0999 V2000
   28.1654  -18.6106  -14.6887 C   0  0  0  0  0  0  0  0  0  0  0  0
   26.7511  -19.1327  -14.5897 C   0  0  1  0  0  0  0  0  0  0  0  0
   26.1114  -19.1673  -15.8090 O   0  0  0  0  0  0  0  0  0  0  0  0
   26.7908  -20.5044  -13.9807 C   0  0  2  0  0  0  0  0  0  0  0  0
   27.3181  -21.4911  -14.9081 N   0  0  0  0  0  0  0  0  0  0  0  0
   25.4225  -20.9452  -13.5872 C   0  0  0  0  0  0  0  0  0  0  0  0
   24.7820  -21.7836  -14.2781 O   0  0  0  0  0  0  0  0  0  0  0  0
   24.7720  -20.4492  -12.4232 N   0  0  0  0  0  0  0  0  0  0  0  0
   23.4159  -20.8396  -12.1217 C   0  0  1  0  0  0  0  0  0  0  0  0
   23.0663  -20.5793  -10.6707 C   0  0  0  0  0  0  0  0  0  0  0  0
   22.2057  -21.7324  -10.1649 C   0  0  0  0  0  0  0  0  0  0  0  0
   21.8575  -21.3984   -8.7239 C   0  0  0  0  0  0  0  0  0  0  0  0
   20.9816  -22.4791   -8.1125 C   0  0  0  0  0  0  0  0  0  0  0  0
   20.6424  -22.0165   -6.7689 N   0  0  0  0  0  0  0  0  0  0  0  0
   22.4990  -19.9644  -12.9349 C   0  0  0  0  0  0  0  0  0  0  0  0
   22.8608  -18.7771  -13.1136 O   0  0  0  0  0  0  0  0  0  0  0  0
   22.0825  -19.3681  -18.0259 C   0  0  0  0  0  0  0  0  0  0  0  0
   21.6570  -18.9528  -16.6577 C   0  0  1  0  0  0  0  0  0  0  0  0
   20.8249  -17.6853  -16.8266 C   0  0  0  0  0  0  0  0  0  0  0  0
   21.0716  -19.9283  -15.7533 C   0  0  0  0  0  0  0  0  0  0  0  0
   20.5453  -19.5797  -14.4168 C   0  0  2  0  0  0  0  0  0  0  0  0
   21.2894  -20.4638  -13.4686 N   0  0  0  0  0  0  0  0  0  0  0  0
   19.1166  -19.8184  -14.1937 C   0  0  0  0  0  0  0  0  0  0  0  0
   18.1521  -18.8811  -14.4460 O   0  0  0  0  0  0  0  0  0  0  0  0
   18.7400  -20.9273  -13.7438 O   0  0  0  0  0  0  0  0  0  0  0  0
  2  1  1  6
  3  2  1  0
  4  2  1  0
  4  6  1  0
  4  5  1  6
  6  7  2  0
  8  9  1  0
  8  6  1  0
 10 11  1  0
  9 10  1  1
 11 12  1  0
 12 13  1  0
 13 14  1  0
 15 16  2  0
 15  9  1  0
 18 20  1  0
 18 17  1  6
 19 18  1  0
 21 20  1  6
 21 22  1  0
 21 23  1  0
 22 15  1  0
 23 25  2  0
 23 24  1  0
M  END
$$$$
