TKL.pdb
     RDKit          3D

 25 24  0  0  1  0  0  0  0  0999 V2000
   15.8423   -5.5392   -9.1708 C   0  0  0  0  0  0  0  0  0  0  0  0
   15.2127   -6.5171   -8.2066 C   0  0  1  0  0  0  0  0  0  0  0  0
   14.4122   -5.8997   -7.2712 O   0  0  0  0  0  0  0  0  0  0  0  0
   14.4194   -7.5194   -8.9942 C   0  0  2  0  0  0  0  0  0  0  0  0
   13.9240   -8.5959   -8.1531 N   0  0  0  0  0  0  0  0  0  0  0  0
   15.2593   -8.1342  -10.0610 C   0  0  0  0  0  0  0  0  0  0  0  0
   16.0507   -9.0821   -9.8047 O   0  0  0  0  0  0  0  0  0  0  0  0
   15.2141   -7.6894  -11.4116 N   0  0  0  0  0  0  0  0  0  0  0  0
   15.9392   -8.3978  -12.4387 C   0  0  1  0  0  0  0  0  0  0  0  0
   15.1929   -8.3930  -13.7573 C   0  0  0  0  0  0  0  0  0  0  0  0
   16.0469   -9.1063  -14.8003 C   0  0  0  0  0  0  0  0  0  0  0  0
   15.5742  -10.5504  -14.8165 C   0  0  0  0  0  0  0  0  0  0  0  0
   16.3345  -11.3590  -15.8543 C   0  0  0  0  0  0  0  0  0  0  0  0
   15.8645  -12.7359  -15.7221 N   0  0  0  0  0  0  0  0  0  0  0  0
   17.2246   -7.6527  -12.6845 C   0  0  0  0  0  0  0  0  0  0  0  0
   17.1603   -6.4003  -12.6936 O   0  0  0  0  0  0  0  0  0  0  0  0
   22.7955   -6.9365  -12.4092 C   0  0  0  0  0  0  0  0  0  0  0  0
   22.1795   -8.0525  -13.1841 C   0  0  1  0  0  0  0  0  0  0  0  0
   23.1602   -9.2195  -13.1211 C   0  0  0  0  0  0  0  0  0  0  0  0
   20.7970   -8.4281  -12.9396 C   0  0  0  0  0  0  0  0  0  0  0  0
   19.6592   -7.5074  -13.1457 C   0  0  2  0  0  0  0  0  0  0  0  0
   18.4424   -8.3384  -12.8942 N   0  0  0  0  0  0  0  0  0  0  0  0
   19.5165   -6.9336  -14.4867 C   0  0  0  0  0  0  0  0  0  0  0  0
   19.8703   -5.6477  -14.7928 O   0  0  0  0  0  0  0  0  0  0  0  0
   19.0430   -7.6375  -15.4109 O   0  0  0  0  0  0  0  0  0  0  0  0
  2  1  1  6
  3  2  1  0
  4  2  1  0
  4  6  1  0
  4  5  1  1
  6  7  2  0
  8  9  1  0
  8  6  1  0
 10 11  1  0
  9 10  1  6
 11 12  1  0
 12 13  1  0
 13 14  1  0
 15 16  2  0
 15  9  1  0
 18 20  1  0
 18 17  1  1
 19 18  1  0
 21 20  1  6
 21 22  1  0
 21 23  1  0
 22 15  1  0
 23 25  2  0
 23 24  1  0
M  END
$$$$
