TKL.pdb
     RDKit          3D

 25 24  0  0  1  0  0  0  0  0999 V2000
   26.5762  -11.3650  -15.0024 C   0  0  0  0  0  0  0  0  0  0  0  0
   26.9953  -11.9739  -16.3199 C   0  0  1  0  0  0  0  0  0  0  0  0
   28.1373  -12.7366  -16.2130 O   0  0  0  0  0  0  0  0  0  0  0  0
   25.8593  -12.8037  -16.8444 C   0  0  2  0  0  0  0  0  0  0  0  0
   26.1980  -13.4481  -18.1021 N   0  0  0  0  0  0  0  0  0  0  0  0
   24.6562  -11.9572  -17.0842 C   0  0  0  0  0  0  0  0  0  0  0  0
   24.6009  -11.1620  -18.0615 O   0  0  0  0  0  0  0  0  0  0  0  0
   23.5175  -12.0001  -16.2324 N   0  0  0  0  0  0  0  0  0  0  0  0
   22.3900  -11.1329  -16.4758 C   0  0  1  0  0  0  0  0  0  0  0  0
   21.1154  -11.6870  -15.8728 C   0  0  0  0  0  0  0  0  0  0  0  0
   20.6112  -12.8196  -16.7611 C   0  0  0  0  0  0  0  0  0  0  0  0
   19.3013  -13.2856  -16.1478 C   0  0  0  0  0  0  0  0  0  0  0  0
   18.6580  -14.3678  -16.9986 C   0  0  0  0  0  0  0  0  0  0  0  0
   17.4538  -14.7852  -16.2845 N   0  0  0  0  0  0  0  0  0  0  0  0
   22.6555   -9.8315  -15.7661 C   0  0  0  0  0  0  0  0  0  0  0  0
   23.1393   -9.9046  -14.6114 O   0  0  0  0  0  0  0  0  0  0  0  0
   24.7619   -4.4131  -17.1992 C   0  0  0  0  0  0  0  0  0  0  0  0
   23.9107   -5.1630  -16.2304 C   0  0  1  0  0  0  0  0  0  0  0  0
   22.7935   -4.2140  -15.8074 C   0  0  0  0  0  0  0  0  0  0  0  0
   23.4561   -6.5053  -16.5526 C   0  0  0  0  0  0  0  0  0  0  0  0
   22.7050   -7.3551  -15.6047 C   0  0  2  0  0  0  0  0  0  0  0  0
   22.3707   -8.5898  -16.3780 N   0  0  0  0  0  0  0  0  0  0  0  0
   21.4418   -6.8115  -15.0981 C   0  0  0  0  0  0  0  0  0  0  0  0
   21.3537   -6.0571  -13.9599 O   0  0  0  0  0  0  0  0  0  0  0  0
   20.3776   -7.0434  -15.7206 O   0  0  0  0  0  0  0  0  0  0  0  0
  2  1  1  1
  3  2  1  0
  4  2  1  0
  4  6  1  0
  4  5  1  6
  6  7  2  0
  8  9  1  0
  8  6  1  0
 10 11  1  0
  9 10  1  1
 11 12  1  0
 12 13  1  0
 13 14  1  0
 15 16  2  0
 15  9  1  0
 18 20  1  0
 18 17  1  6
 19 18  1  0
 21 20  1  6
 21 22  1  0
 21 23  1  0
 22 15  1  0
 23 25  2  0
 23 24  1  0
M  END
$$$$
