TKL.pdb
     RDKit          3D

 25 24  0  0  1  0  0  0  0  0999 V2000
   24.4538  -20.4463   -8.0705 C   0  0  0  0  0  0  0  0  0  0  0  0
   24.3398  -20.4863   -9.5764 C   0  0  1  0  0  0  0  0  0  0  0  0
   23.7201  -19.3695  -10.0918 O   0  0  0  0  0  0  0  0  0  0  0  0
   25.7173  -20.6342  -10.1551 C   0  0  2  0  0  0  0  0  0  0  0  0
   26.5626  -19.4970   -9.8325 N   0  0  0  0  0  0  0  0  0  0  0  0
   25.6554  -20.7398  -11.6405 C   0  0  0  0  0  0  0  0  0  0  0  0
   26.0115  -19.7817  -12.3792 O   0  0  0  0  0  0  0  0  0  0  0  0
   25.1963  -21.9149  -12.2982 N   0  0  0  0  0  0  0  0  0  0  0  0
   25.2233  -22.0040  -13.7383 C   0  0  1  0  0  0  0  0  0  0  0  0
   25.2413  -23.4432  -14.2113 C   0  0  0  0  0  0  0  0  0  0  0  0
   25.4616  -23.4549  -15.7204 C   0  0  0  0  0  0  0  0  0  0  0  0
   25.4104  -24.9136  -16.1429 C   0  0  0  0  0  0  0  0  0  0  0  0
   25.7506  -25.0645  -17.6162 C   0  0  0  0  0  0  0  0  0  0  0  0
   25.5998  -26.4843  -17.9256 N   0  0  0  0  0  0  0  0  0  0  0  0
   23.9388  -21.4114  -14.2549 C   0  0  0  0  0  0  0  0  0  0  0  0
   22.9030  -21.6324  -13.5836 O   0  0  0  0  0  0  0  0  0  0  0  0
   21.4231  -16.9388  -16.3971 C   0  0  0  0  0  0  0  0  0  0  0  0
   21.9964  -17.9879  -17.2893 C   0  0  1  0  0  0  0  0  0  0  0  0
   22.4533  -17.2769  -18.5595 C   0  0  0  0  0  0  0  0  0  0  0  0
   22.9623  -18.9381  -16.7635 C   0  0  0  0  0  0  0  0  0  0  0  0
   22.6060  -20.0129  -15.8134 C   0  0  2  0  0  0  0  0  0  0  0  0
   23.9091  -20.6435  -15.4410 N   0  0  0  0  0  0  0  0  0  0  0  0
   21.7443  -21.0812  -16.3273 C   0  0  0  0  0  0  0  0  0  0  0  0
   22.2025  -22.0957  -17.1231 O   0  0  0  0  0  0  0  0  0  0  0  0
   20.5231  -21.0796  -16.0401 O   0  0  0  0  0  0  0  0  0  0  0  0
  2  1  1  1
  3  2  1  0
  4  2  1  0
  4  6  1  0
  4  5  1  6
  6  7  2  0
  8  9  1  0
  8  6  1  0
 10 11  1  0
  9 10  1  1
 11 12  1  0
 12 13  1  0
 13 14  1  0
 15 16  2  0
 15  9  1  0
 18 20  1  0
 18 17  1  1
 19 18  1  0
 21 20  1  6
 21 22  1  0
 21 23  1  0
 22 15  1  0
 23 25  2  0
 23 24  1  0
M  END
$$$$
