YAS.pdb
     RDKit          3D

 24 24  0  0  1  0  0  0  0  0999 V2000
   24.0510  -22.4993  -14.3301 O   0  0  0  0  0  0  0  0  0  0  0  0
   24.6301  -23.5417  -15.0662 C   0  0  0  0  0  0  0  0  0  0  0  0
   25.2018  -23.2993  -16.2969 C   0  0  0  0  0  0  0  0  0  0  0  0
   25.7779  -24.3373  -17.0291 C   0  0  0  0  0  0  0  0  0  0  0  0
   25.7985  -25.6298  -16.5579 C   0  0  0  0  0  0  0  0  0  0  0  0
   26.4146  -26.7325  -17.3503 C   0  0  0  0  0  0  0  0  0  0  0  0
   27.6765  -27.2437  -16.6857 C   0  0  2  0  0  0  0  0  0  0  0  0
   28.7140  -26.2314  -16.7507 N   0  0  0  0  0  0  0  0  0  0  0  0
   28.1883  -28.4964  -17.2396 C   0  0  0  0  0  0  0  0  0  0  0  0
   28.8947  -28.4995  -18.2546 O   0  0  0  0  0  0  0  0  0  0  0  0
   25.2259  -25.8652  -15.3284 C   0  0  0  0  0  0  0  0  0  0  0  0
   24.6476  -24.8327  -14.5896 C   0  0  0  0  0  0  0  0  0  0  0  0
   28.2596  -32.0943  -16.0716 C   0  0  0  0  0  0  0  0  0  0  0  0
   28.2949  -31.0132  -17.1470 C   0  0  2  0  0  0  0  0  0  0  0  0
   27.8806  -29.7372  -16.6140 N   0  0  0  0  0  0  0  0  0  0  0  0
   27.4710  -31.4777  -18.2875 C   0  0  0  0  0  0  0  0  0  0  0  0
   26.6949  -30.6721  -18.8884 O   0  0  0  0  0  0  0  0  0  0  0  0
   26.0568  -32.8692  -22.1617 O   0  0  0  0  0  0  0  0  0  0  0  0
   26.8906  -32.4230  -21.1379 C   0  0  0  0  0  0  0  0  0  0  0  0
   26.6624  -33.2443  -19.8847 C   0  0  2  0  0  0  0  0  0  0  0  0
   27.4749  -32.8027  -18.7898 N   0  0  0  0  0  0  0  0  0  0  0  0
   26.8012  -34.6642  -20.2337 C   0  0  0  0  0  0  0  0  0  0  0  0
   26.0511  -35.1796  -21.0819 O   0  0  0  0  0  0  0  0  0  0  0  0
   27.7687  -35.4244  -19.6154 O   0  0  0  0  0  0  0  0  0  0  0  0
  1  2  1  0
  2 12  2  0
  2  3  1  0
  3  4  2  0
  4  5  1  0
  5  6  1  0
  7  6  1  0
  7  8  1  6
  9  7  1  0
  9 10  2  0
 11  5  2  0
 12 11  1  0
 14 13  1  1
 14 15  1  0
 14 16  1  0
 15  9  1  0
 16 17  2  0
 19 18  1  0
 20 19  1  6
 21 16  1  0
 21 20  1  0
 22 20  1  0
 22 24  1  0
 23 22  2  0
M  END
$$$$
