YAS.pdb
     RDKit          3D

 24 24  0  0  1  0  0  0  0  0999 V2000
   15.6803  -13.9117  -21.3812 O   0  0  0  0  0  0  0  0  0  0  0  0
   16.2377  -12.9798  -20.4955 C   0  0  0  0  0  0  0  0  0  0  0  0
   17.6024  -12.7945  -20.4379 C   0  0  0  0  0  0  0  0  0  0  0  0
   18.1565  -11.8668  -19.5560 C   0  0  0  0  0  0  0  0  0  0  0  0
   17.3723  -11.1081  -18.7179 C   0  0  0  0  0  0  0  0  0  0  0  0
   17.9754  -10.1211  -17.7768 C   0  0  0  0  0  0  0  0  0  0  0  0
   18.3891  -10.7856  -16.4796 C   0  0  2  0  0  0  0  0  0  0  0  0
   17.2202  -11.3096  -15.7982 N   0  0  0  0  0  0  0  0  0  0  0  0
   19.1334   -9.9200  -15.5659 C   0  0  0  0  0  0  0  0  0  0  0  0
   18.5431   -9.1497  -14.7995 O   0  0  0  0  0  0  0  0  0  0  0  0
   16.0103  -11.2979  -18.7802 C   0  0  0  0  0  0  0  0  0  0  0  0
   15.4480  -12.2237  -19.6595 C   0  0  0  0  0  0  0  0  0  0  0  0
   22.8086   -9.5791  -14.6608 C   0  0  0  0  0  0  0  0  0  0  0  0
   21.3504   -9.1316  -14.6618 C   0  0  2  0  0  0  0  0  0  0  0  0
   20.5561   -9.9530  -15.5440 N   0  0  0  0  0  0  0  0  0  0  0  0
   21.3165   -7.6894  -15.0000 C   0  0  0  0  0  0  0  0  0  0  0  0
   21.4567   -7.3092  -16.2034 O   0  0  0  0  0  0  0  0  0  0  0  0
   18.7241   -5.1308  -14.4795 O   0  0  0  0  0  0  0  0  0  0  0  0
   19.8537   -4.5673  -13.8886 C   0  0  0  0  0  0  0  0  0  0  0  0
   21.1050   -5.2579  -14.3929 C   0  0  2  0  0  0  0  0  0  0  0  0
   21.1315   -6.6504  -14.0545 N   0  0  0  0  0  0  0  0  0  0  0  0
   22.2699   -4.4833  -13.9454 C   0  0  0  0  0  0  0  0  0  0  0  0
   23.1147   -4.9973  -13.1906 O   0  0  0  0  0  0  0  0  0  0  0  0
   22.4226   -3.1813  -14.3671 O   0  0  0  0  0  0  0  0  0  0  0  0
  1  2  1  0
  2 12  2  0
  2  3  1  0
  3  4  2  0
  4  5  1  0
  5  6  1  0
  7  6  1  0
  7  8  1  1
  9  7  1  0
  9 10  2  0
 11  5  2  0
 12 11  1  0
 14 13  1  6
 14 15  1  0
 14 16  1  0
 15  9  1  0
 16 17  2  0
 19 18  1  0
 20 19  1  1
 21 16  1  0
 21 20  1  0
 22 20  1  0
 22 24  1  0
 23 22  2  0
M  END
$$$$
