YAS.pdb
     RDKit          3D

 24 24  0  0  1  0  0  0  0  0999 V2000
   27.2686  -24.7738  -16.3808 O   0  0  0  0  0  0  0  0  0  0  0  0
   27.4559  -26.1572  -16.5028 C   0  0  0  0  0  0  0  0  0  0  0  0
   26.3871  -27.0221  -16.4045 C   0  0  0  0  0  0  0  0  0  0  0  0
   26.5743  -28.3989  -16.5261 C   0  0  0  0  0  0  0  0  0  0  0  0
   27.8187  -28.9427  -16.7465 C   0  0  0  0  0  0  0  0  0  0  0  0
   28.0079  -30.4165  -16.8721 C   0  0  0  0  0  0  0  0  0  0  0  0
   28.2898  -30.8107  -18.3076 C   0  0  2  0  0  0  0  0  0  0  0  0
   27.1956  -30.3858  -19.1605 N   0  0  0  0  0  0  0  0  0  0  0  0
   28.5317  -32.2388  -18.5074 C   0  0  0  0  0  0  0  0  0  0  0  0
   27.6265  -32.9877  -18.8932 O   0  0  0  0  0  0  0  0  0  0  0  0
   28.8819  -28.0737  -16.8437 C   0  0  0  0  0  0  0  0  0  0  0  0
   28.7033  -26.6953  -16.7233 C   0  0  0  0  0  0  0  0  0  0  0  0
   31.6515  -34.3943  -18.5224 C   0  0  0  0  0  0  0  0  0  0  0  0
   30.1419  -34.1782  -18.4948 C   0  0  2  0  0  0  0  0  0  0  0  0
   29.8204  -32.7904  -18.2611 N   0  0  0  0  0  0  0  0  0  0  0  0
   29.5679  -35.1001  -17.4868 C   0  0  0  0  0  0  0  0  0  0  0  0
   29.5803  -34.7920  -16.2550 O   0  0  0  0  0  0  0  0  0  0  0  0
   26.9148  -39.0697  -16.4870 O   0  0  0  0  0  0  0  0  0  0  0  0
   27.6529  -38.3831  -17.4495 C   0  0  0  0  0  0  0  0  0  0  0  0
   28.3681  -37.2064  -16.8163 C   0  0  2  0  0  0  0  0  0  0  0  0
   28.9783  -36.3520  -17.7918 N   0  0  0  0  0  0  0  0  0  0  0  0
   29.2744  -37.7215  -15.7817 C   0  0  0  0  0  0  0  0  0  0  0  0
   28.8209  -38.1534  -14.7067 O   0  0  0  0  0  0  0  0  0  0  0  0
   30.6327  -37.7242  -16.0083 O   0  0  0  0  0  0  0  0  0  0  0  0
  1  2  1  0
  2 12  2  0
  2  3  1  0
  3  4  2  0
  4  5  1  0
  5  6  1  0
  7  6  1  0
  7  8  1  6
  9  7  1  0
  9 10  2  0
 11  5  2  0
 12 11  1  0
 14 13  1  1
 14 15  1  0
 14 16  1  0
 15  9  1  0
 16 17  2  0
 19 18  1  0
 20 19  1  6
 21 16  1  0
 21 20  1  0
 22 20  1  0
 22 24  1  0
 23 22  2  0
M  END
$$$$
