YAS.pdb
     RDKit          3D

 24 24  0  0  1  0  0  0  0  0999 V2000
   14.0246  -26.3255   -0.4394 O   0  0  0  0  0  0  0  0  0  0  0  0
   14.4709  -25.4726    0.5789 C   0  0  0  0  0  0  0  0  0  0  0  0
   13.5774  -24.9068    1.4631 C   0  0  0  0  0  0  0  0  0  0  0  0
   14.0222  -24.0579    2.4765 C   0  0  0  0  0  0  0  0  0  0  0  0
   15.3551  -23.7548    2.6326 C   0  0  0  0  0  0  0  0  0  0  0  0
   15.8195  -22.8436    3.7178 C   0  0  0  0  0  0  0  0  0  0  0  0
   15.4056  -21.4122    3.4437 C   0  0  2  0  0  0  0  0  0  0  0  0
   15.8551  -21.0122    2.1234 N   0  0  0  0  0  0  0  0  0  0  0  0
   15.8824  -20.4440    4.4303 C   0  0  0  0  0  0  0  0  0  0  0  0
   16.6709  -19.5472    4.1095 O   0  0  0  0  0  0  0  0  0  0  0  0
   16.2422  -24.3229    1.7464 C   0  0  0  0  0  0  0  0  0  0  0  0
   15.8056  -25.1730    0.7301 C   0  0  0  0  0  0  0  0  0  0  0  0
   14.8413  -19.3719    7.8592 C   0  0  0  0  0  0  0  0  0  0  0  0
   15.9240  -19.6382    6.8184 C   0  0  2  0  0  0  0  0  0  0  0  0
   15.4417  -20.5193    5.7815 N   0  0  0  0  0  0  0  0  0  0  0  0
   17.1204  -20.1509    7.5263 C   0  0  0  0  0  0  0  0  0  0  0  0
   17.6311  -21.2663    7.1982 O   0  0  0  0  0  0  0  0  0  0  0  0
   21.4118  -19.8607    8.4877 O   0  0  0  0  0  0  0  0  0  0  0  0
   20.1509  -19.5316    7.9932 C   0  0  0  0  0  0  0  0  0  0  0  0
   19.0930  -19.7963    9.0458 C   0  0  2  0  0  0  0  0  0  0  0  0
   17.7748  -19.4735    8.5850 N   0  0  0  0  0  0  0  0  0  0  0  0
   19.5025  -19.1277   10.2877 C   0  0  0  0  0  0  0  0  0  0  0  0
   20.3768  -19.6325   11.0149 O   0  0  0  0  0  0  0  0  0  0  0  0
   18.9122  -17.9358   10.6443 O   0  0  0  0  0  0  0  0  0  0  0  0
  1  2  1  0
  2 12  2  0
  2  3  1  0
  3  4  2  0
  4  5  1  0
  5  6  1  0
  7  6  1  0
  7  8  1  6
  9  7  1  0
  9 10  2  0
 11  5  2  0
 12 11  1  0
 14 13  1  1
 14 15  1  0
 14 16  1  0
 15  9  1  0
 16 17  2  0
 19 18  1  0
 20 19  1  6
 21 16  1  0
 21 20  1  0
 22 20  1  0
 22 24  1  0
 23 22  2  0
M  END
$$$$
