YAS.pdb
     RDKit          3D

 24 24  0  0  1  0  0  0  0  0999 V2000
   22.4695  -21.2706   -7.7151 O   0  0  0  0  0  0  0  0  0  0  0  0
   23.4233  -20.9796   -8.6996 C   0  0  0  0  0  0  0  0  0  0  0  0
   23.0336  -20.6638   -9.9836 C   0  0  0  0  0  0  0  0  0  0  0  0
   23.9835  -20.3743  -10.9630 C   0  0  0  0  0  0  0  0  0  0  0  0
   25.3319  -20.3921  -10.6902 C   0  0  0  0  0  0  0  0  0  0  0  0
   26.3391  -20.0839  -11.7457 C   0  0  0  0  0  0  0  0  0  0  0  0
   25.8556  -20.5323  -13.1097 C   0  0  2  0  0  0  0  0  0  0  0  0
   25.5386  -21.9479  -13.0807 N   0  0  0  0  0  0  0  0  0  0  0  0
   26.7922  -20.2691  -14.2013 C   0  0  0  0  0  0  0  0  0  0  0  0
   27.2728  -19.1418  -14.3669 O   0  0  0  0  0  0  0  0  0  0  0  0
   25.7145  -20.7083   -9.4062 C   0  0  0  0  0  0  0  0  0  0  0  0
   24.7709  -20.9990   -8.4206 C   0  0  0  0  0  0  0  0  0  0  0  0
   28.7108  -22.4466  -16.6185 C   0  0  0  0  0  0  0  0  0  0  0  0
   28.0903  -21.1218  -16.1866 C   0  0  2  0  0  0  0  0  0  0  0  0
   27.1678  -21.3129  -15.0928 N   0  0  0  0  0  0  0  0  0  0  0  0
   27.4762  -20.4954  -17.3808 C   0  0  0  0  0  0  0  0  0  0  0  0
   26.3499  -20.8968  -17.8081 O   0  0  0  0  0  0  0  0  0  0  0  0
   27.1928  -16.8058  -20.5047 O   0  0  0  0  0  0  0  0  0  0  0  0
   27.8995  -17.3919  -19.4561 C   0  0  0  0  0  0  0  0  0  0  0  0
   27.4494  -18.8261  -19.2617 C   0  0  2  0  0  0  0  0  0  0  0  0
   28.0626  -19.4385  -18.1203 N   0  0  0  0  0  0  0  0  0  0  0  0
   27.6344  -19.5422  -20.5306 C   0  0  0  0  0  0  0  0  0  0  0  0
   28.7515  -19.9933  -20.8411 O   0  0  0  0  0  0  0  0  0  0  0  0
   26.5619  -19.7122  -21.3775 O   0  0  0  0  0  0  0  0  0  0  0  0
  1  2  1  0
  2 12  2  0
  2  3  1  0
  3  4  2  0
  4  5  1  0
  5  6  1  0
  7  6  1  0
  7  8  1  1
  9  7  1  0
  9 10  2  0
 11  5  2  0
 12 11  1  0
 14 13  1  6
 14 15  1  0
 14 16  1  0
 15  9  1  0
 16 17  2  0
 19 18  1  0
 20 19  1  6
 21 16  1  0
 21 20  1  0
 22 20  1  0
 22 24  1  0
 23 22  2  0
M  END
$$$$
