YAS.pdb
     RDKit          3D

 24 24  0  0  1  0  0  0  0  0999 V2000
   10.2919   -9.4087   -8.7964 O   0  0  0  0  0  0  0  0  0  0  0  0
   11.5082   -8.9594   -9.3277 C   0  0  0  0  0  0  0  0  0  0  0  0
   11.8129   -7.6151   -9.3457 C   0  0  0  0  0  0  0  0  0  0  0  0
   13.0238   -7.1685   -9.8747 C   0  0  0  0  0  0  0  0  0  0  0  0
   13.9518   -8.0415  -10.3938 C   0  0  0  0  0  0  0  0  0  0  0  0
   15.2421   -7.5529  -10.9596 C   0  0  0  0  0  0  0  0  0  0  0  0
   16.4056   -7.9164  -10.0597 C   0  0  2  0  0  0  0  0  0  0  0  0
   16.2920   -7.2117   -8.7965 N   0  0  0  0  0  0  0  0  0  0  0  0
   17.7232   -7.6596  -10.6394 C   0  0  0  0  0  0  0  0  0  0  0  0
   18.2678   -6.5566  -10.5133 O   0  0  0  0  0  0  0  0  0  0  0  0
   13.6415   -9.3825  -10.3729 C   0  0  0  0  0  0  0  0  0  0  0  0
   12.4327   -9.8375   -9.8456 C   0  0  0  0  0  0  0  0  0  0  0  0
   20.2019   -9.7810  -12.6040 C   0  0  0  0  0  0  0  0  0  0  0  0
   19.6920   -8.4866  -11.9787 C   0  0  2  0  0  0  0  0  0  0  0  0
   18.4026   -8.6819  -11.3598 N   0  0  0  0  0  0  0  0  0  0  0  0
   19.6962   -7.4408  -13.0284 C   0  0  0  0  0  0  0  0  0  0  0  0
   18.6596   -7.2338  -13.7319 O   0  0  0  0  0  0  0  0  0  0  0  0
   21.6336   -3.9453  -12.9404 O   0  0  0  0  0  0  0  0  0  0  0  0
   21.8518   -4.5641  -14.1700 C   0  0  0  0  0  0  0  0  0  0  0  0
   20.8238   -5.6551  -14.3941 C   0  0  2  0  0  0  0  0  0  0  0  0
   20.8066   -6.6131  -13.3283 N   0  0  0  0  0  0  0  0  0  0  0  0
   21.0328   -6.2154  -15.7355 C   0  0  0  0  0  0  0  0  0  0  0  0
   21.3055   -7.4209  -15.8781 O   0  0  0  0  0  0  0  0  0  0  0  0
   20.9251   -5.3973  -16.8380 O   0  0  0  0  0  0  0  0  0  0  0  0
  1  2  1  0
  2 12  2  0
  2  3  1  0
  3  4  2  0
  4  5  1  0
  5  6  1  0
  7  6  1  0
  7  8  1  1
  9  7  1  0
  9 10  2  0
 11  5  2  0
 12 11  1  0
 14 13  1  6
 14 15  1  0
 14 16  1  0
 15  9  1  0
 16 17  2  0
 19 18  1  0
 20 19  1  1
 21 16  1  0
 21 20  1  0
 22 20  1  0
 22 24  1  0
 23 22  2  0
M  END
$$$$
