YAS.pdb
     RDKit          3D

 24 24  0  0  1  0  0  0  0  0999 V2000
   20.4620  -14.9762  -19.6120 O   0  0  0  0  0  0  0  0  0  0  0  0
   20.0374  -13.6648  -19.3599 C   0  0  0  0  0  0  0  0  0  0  0  0
   20.1826  -12.6833  -20.3169 C   0  0  0  0  0  0  0  0  0  0  0  0
   19.7597  -11.3781  -20.0652 C   0  0  0  0  0  0  0  0  0  0  0  0
   19.1875  -11.0221  -18.8658 C   0  0  0  0  0  0  0  0  0  0  0  0
   18.7415   -9.6230  -18.6063 C   0  0  0  0  0  0  0  0  0  0  0  0
   17.2313   -9.5382  -18.5202 C   0  0  2  0  0  0  0  0  0  0  0  0
   16.6403   -9.9633  -19.7753 N   0  0  0  0  0  0  0  0  0  0  0  0
   16.7178   -8.2152  -18.1679 C   0  0  0  0  0  0  0  0  0  0  0  0
   16.6636   -7.3109  -19.0096 O   0  0  0  0  0  0  0  0  0  0  0  0
   19.0454  -12.0068  -17.9144 C   0  0  0  0  0  0  0  0  0  0  0  0
   19.4656  -13.3146  -18.1580 C   0  0  0  0  0  0  0  0  0  0  0  0
   14.9994   -6.8020  -15.0923 C   0  0  0  0  0  0  0  0  0  0  0  0
   15.6908   -6.6863  -16.4469 C   0  0  2  0  0  0  0  0  0  0  0  0
   16.2689   -7.9481  -16.8440 N   0  0  0  0  0  0  0  0  0  0  0  0
   16.6741   -5.5810  -16.3638 C   0  0  0  0  0  0  0  0  0  0  0  0
   17.8326   -5.7875  -15.8867 O   0  0  0  0  0  0  0  0  0  0  0  0
   15.7404   -1.5080  -16.8840 O   0  0  0  0  0  0  0  0  0  0  0  0
   16.9211   -1.9547  -17.4746 C   0  0  0  0  0  0  0  0  0  0  0  0
   17.4074   -3.2118  -16.7814 C   0  0  2  0  0  0  0  0  0  0  0  0
   16.4232   -4.2535  -16.7911 N   0  0  0  0  0  0  0  0  0  0  0  0
   17.9105   -2.8390  -15.4528 C   0  0  0  0  0  0  0  0  0  0  0  0
   17.4118   -3.3389  -14.4285 O   0  0  0  0  0  0  0  0  0  0  0  0
   18.9401   -1.9307  -15.3464 O   0  0  0  0  0  0  0  0  0  0  0  0
  1  2  1  0
  2 12  2  0
  2  3  1  0
  3  4  2  0
  4  5  1  0
  5  6  1  0
  7  6  1  0
  7  8  1  6
  9  7  1  0
  9 10  2  0
 11  5  2  0
 12 11  1  0
 14 13  1  1
 14 15  1  0
 14 16  1  0
 15  9  1  0
 16 17  2  0
 19 18  1  0
 20 19  1  1
 21 16  1  0
 21 20  1  0
 22 20  1  0
 22 24  1  0
 23 22  2  0
M  END
$$$$
