YAS.pdb
     RDKit          3D

 24 24  0  0  1  0  0  0  0  0999 V2000
   20.2432   -7.7378  -11.9029 O   0  0  0  0  0  0  0  0  0  0  0  0
   21.1821   -8.0783  -12.8857 C   0  0  0  0  0  0  0  0  0  0  0  0
   21.8144   -7.0995  -13.6222 C   0  0  0  0  0  0  0  0  0  0  0  0
   22.7489   -7.4391  -14.6004 C   0  0  0  0  0  0  0  0  0  0  0  0
   23.0735   -8.7494  -14.8664 C   0  0  0  0  0  0  0  0  0  0  0  0
   24.0720   -9.1014  -15.9164 C   0  0  0  0  0  0  0  0  0  0  0  0
   23.3968   -9.3578  -17.2483 C   0  0  2  0  0  0  0  0  0  0  0  0
   24.3724   -9.8261  -18.2148 N   0  0  0  0  0  0  0  0  0  0  0  0
   22.6859   -8.2048  -17.7991 C   0  0  0  0  0  0  0  0  0  0  0  0
   23.3038   -7.2638  -18.3108 O   0  0  0  0  0  0  0  0  0  0  0  0
   22.4386   -9.7220  -14.1275 C   0  0  0  0  0  0  0  0  0  0  0  0
   21.5027   -9.3909  -13.1473 C   0  0  0  0  0  0  0  0  0  0  0  0
   19.1051   -7.4263  -18.6545 C   0  0  0  0  0  0  0  0  0  0  0  0
   20.5052   -7.0108  -18.2146 C   0  0  2  0  0  0  0  0  0  0  0  0
   21.2644   -8.1496  -17.7557 N   0  0  0  0  0  0  0  0  0  0  0  0
   20.3651   -5.9406  -17.1994 C   0  0  0  0  0  0  0  0  0  0  0  0
   20.1011   -6.2322  -15.9921 O   0  0  0  0  0  0  0  0  0  0  0  0
   21.8426   -2.8684  -14.5142 O   0  0  0  0  0  0  0  0  0  0  0  0
   21.8207   -3.8078  -15.5435 C   0  0  0  0  0  0  0  0  0  0  0  0
   20.6375   -3.5534  -16.4560 C   0  0  2  0  0  0  0  0  0  0  0  0
   20.5078   -4.5572  -17.4708 N   0  0  0  0  0  0  0  0  0  0  0  0
   20.7257   -2.1729  -16.9495 C   0  0  0  0  0  0  0  0  0  0  0  0
   21.0650   -1.9456  -18.1247 O   0  0  0  0  0  0  0  0  0  0  0  0
   20.4301   -1.1283  -16.1023 O   0  0  0  0  0  0  0  0  0  0  0  0
  1  2  1  0
  2 12  2  0
  2  3  1  0
  3  4  2  0
  4  5  1  0
  5  6  1  0
  7  6  1  0
  7  8  1  6
  9  7  1  0
  9 10  2  0
 11  5  2  0
 12 11  1  0
 14 13  1  1
 14 15  1  0
 14 16  1  0
 15  9  1  0
 16 17  2  0
 19 18  1  0
 20 19  1  6
 21 16  1  0
 21 20  1  0
 22 20  1  0
 22 24  1  0
 23 22  2  0
M  END
$$$$
