YAS.pdb
     RDKit          3D

 24 24  0  0  1  0  0  0  0  0999 V2000
   14.5638  -12.8119  -21.0820 O   0  0  0  0  0  0  0  0  0  0  0  0
   15.2344  -12.1087  -20.0724 C   0  0  0  0  0  0  0  0  0  0  0  0
   16.4620  -11.5307  -20.3156 C   0  0  0  0  0  0  0  0  0  0  0  0
   17.1290  -10.8308  -19.3102 C   0  0  0  0  0  0  0  0  0  0  0  0
   16.5948  -10.6909  -18.0501 C   0  0  0  0  0  0  0  0  0  0  0  0
   17.3178   -9.9430  -16.9817 C   0  0  0  0  0  0  0  0  0  0  0  0
   18.2260  -10.8622  -16.1905 C   0  0  2  0  0  0  0  0  0  0  0  0
   17.4301  -11.7859  -15.4040 N   0  0  0  0  0  0  0  0  0  0  0  0
   19.1719  -10.1723  -15.3145 C   0  0  0  0  0  0  0  0  0  0  0  0
   18.7952   -9.6545  -14.2566 O   0  0  0  0  0  0  0  0  0  0  0  0
   15.3687  -11.2705  -17.8137 C   0  0  0  0  0  0  0  0  0  0  0  0
   14.6949  -11.9721  -18.8137 C   0  0  0  0  0  0  0  0  0  0  0  0
   22.9382   -9.7174  -15.2894 C   0  0  0  0  0  0  0  0  0  0  0  0
   21.5132   -9.3329  -14.9048 C   0  0  2  0  0  0  0  0  0  0  0  0
   20.5480  -10.0879  -15.6679 N   0  0  0  0  0  0  0  0  0  0  0  0
   21.3791   -7.8656  -15.0609 C   0  0  0  0  0  0  0  0  0  0  0  0
   21.1392   -7.3610  -16.2012 O   0  0  0  0  0  0  0  0  0  0  0  0
   19.9310   -3.6298  -14.0457 O   0  0  0  0  0  0  0  0  0  0  0  0
   20.0129   -4.9983  -13.7946 C   0  0  0  0  0  0  0  0  0  0  0  0
   21.3884   -5.5149  -14.1666 C   0  0  2  0  0  0  0  0  0  0  0  0
   21.4996   -6.9341  -14.0000 N   0  0  0  0  0  0  0  0  0  0  0  0
   22.3894   -4.7199  -13.4433 C   0  0  0  0  0  0  0  0  0  0  0  0
   22.9976   -5.2064  -12.4732 O   0  0  0  0  0  0  0  0  0  0  0  0
   22.6521   -3.4294  -13.8458 O   0  0  0  0  0  0  0  0  0  0  0  0
  1  2  1  0
  2 12  2  0
  2  3  1  0
  3  4  2  0
  4  5  1  0
  5  6  1  0
  7  6  1  0
  7  8  1  1
  9  7  1  0
  9 10  2  0
 11  5  2  0
 12 11  1  0
 14 13  1  6
 14 15  1  0
 14 16  1  0
 15  9  1  0
 16 17  2  0
 19 18  1  0
 20 19  1  1
 21 16  1  0
 21 20  1  0
 22 20  1  0
 22 24  1  0
 23 22  2  0
M  END
$$$$
