YAS.pdb
     RDKit          3D

 24 24  0  0  1  0  0  0  0  0999 V2000
   18.2999  -14.8136  -12.7928 O   0  0  0  0  0  0  0  0  0  0  0  0
   17.9805  -13.5124  -12.3827 C   0  0  0  0  0  0  0  0  0  0  0  0
   18.0928  -12.4528  -13.2573 C   0  0  0  0  0  0  0  0  0  0  0  0
   17.7747  -11.1577  -12.8485 C   0  0  0  0  0  0  0  0  0  0  0  0
   17.3410  -10.8890  -11.5707 C   0  0  0  0  0  0  0  0  0  0  0  0
   17.0064   -9.5001  -11.1433 C   0  0  0  0  0  0  0  0  0  0  0  0
   15.5533   -9.3916  -10.7280 C   0  0  2  0  0  0  0  0  0  0  0  0
   14.6969   -9.8686  -11.7978 N   0  0  0  0  0  0  0  0  0  0  0  0
   15.1339   -8.0467  -10.3365 C   0  0  0  0  0  0  0  0  0  0  0  0
   14.7993   -7.2137  -11.1870 O   0  0  0  0  0  0  0  0  0  0  0  0
   17.2311  -11.9513  -10.7022 C   0  0  0  0  0  0  0  0  0  0  0  0
   17.5471  -13.2497  -11.1031 C   0  0  0  0  0  0  0  0  0  0  0  0
   14.7142   -6.2719   -6.9949 C   0  0  0  0  0  0  0  0  0  0  0  0
   14.8196   -6.3325   -8.5154 C   0  0  2  0  0  0  0  0  0  0  0  0
   15.1027   -7.6754   -8.9629 N   0  0  0  0  0  0  0  0  0  0  0  0
   15.8309   -5.3372   -8.9421 C   0  0  0  0  0  0  0  0  0  0  0  0
   17.0689   -5.5739   -8.7879 O   0  0  0  0  0  0  0  0  0  0  0  0
   17.5063   -2.1675  -11.9363 O   0  0  0  0  0  0  0  0  0  0  0  0
   16.5486   -3.0926  -11.5246 C   0  0  0  0  0  0  0  0  0  0  0  0
   16.5101   -3.1643  -10.0111 C   0  0  2  0  0  0  0  0  0  0  0  0
   15.5228   -4.0879   -9.5355 N   0  0  0  0  0  0  0  0  0  0  0  0
   16.3905   -1.7969   -9.4887 C   0  0  0  0  0  0  0  0  0  0  0  0
   15.3442   -1.4279   -8.9258 O   0  0  0  0  0  0  0  0  0  0  0  0
   17.4457   -0.9226   -9.6255 O   0  0  0  0  0  0  0  0  0  0  0  0
  1  2  1  0
  2 12  2  0
  2  3  1  0
  3  4  2  0
  4  5  1  0
  5  6  1  0
  7  6  1  0
  7  8  1  6
  9  7  1  0
  9 10  2  0
 11  5  2  0
 12 11  1  0
 14 13  1  1
 14 15  1  0
 14 16  1  0
 15  9  1  0
 16 17  2  0
 19 18  1  0
 20 19  1  6
 21 16  1  0
 21 20  1  0
 22 20  1  0
 22 24  1  0
 23 22  2  0
M  END
$$$$
