CNA.pdb
     RDKit          3D

 20 19  0  0  1  0  0  0  0  0999 V2000
    7.7487  -15.4574   15.8038 N   0  0  0  0  0  0  0  0  0  0  0  0
    8.5338  -14.9127   16.8942 C   0  0  1  0  0  0  0  0  0  0  0  0
    7.9724  -13.6122   17.3703 C   0  0  0  0  0  0  0  0  0  0  0  0
    8.1350  -12.3300   16.1156 S   0  0  0  0  0  0  0  0  0  0  0  0
    8.6730  -15.8806   17.9957 C   0  0  0  0  0  0  0  0  0  0  0  0
    7.7004  -16.6678   18.1963 O   0  0  0  0  0  0  0  0  0  0  0  0
   12.5741  -19.0618   21.4104 N   0  0  0  0  0  0  0  0  0  0  0  0
   11.3086  -18.7419   20.8670 C   0  0  0  0  0  0  0  0  0  0  0  0
   10.2904  -19.3100   21.3208 O   0  0  0  0  0  0  0  0  0  0  0  0
   11.1853  -17.7647   19.7930 C   0  0  0  0  0  0  0  0  0  0  0  0
    9.9386  -16.8960   19.9335 C   0  0  2  0  0  0  0  0  0  0  0  0
    9.8210  -15.9724   18.8267 N   0  0  0  0  0  0  0  0  0  0  0  0
   10.1175  -16.1131   21.1770 C   0  0  0  0  0  0  0  0  0  0  0  0
   11.1315  -15.3899   21.3005 O   0  0  0  0  0  0  0  0  0  0  0  0
    8.0011  -14.8830   23.9595 C   0  0  0  0  0  0  0  0  0  0  0  0
    9.3442  -15.2951   23.4098 C   0  0  2  0  0  0  0  0  0  0  0  0
    9.1794  -16.1470   22.2470 N   0  0  0  0  0  0  0  0  0  0  0  0
   10.1850  -15.9662   24.4227 C   0  0  0  0  0  0  0  0  0  0  0  0
   10.4588  -17.1891   24.3525 O   0  0  0  0  0  0  0  0  0  0  0  0
   10.6891  -15.2360   25.4809 O   0  0  0  0  0  0  0  0  0  0  0  0
  2  1  1  6
  2  5  1  0
  3  2  1  0
  4  3  1  0
  5 12  1  0
  5  6  2  0
  7  8  1  0
  8 10  1  0
  8  9  2  0
 11 10  1  6
 11 13  1  0
 12 11  1  0
 13 14  2  0
 16 15  1  1
 16 18  1  0
 17 16  1  0
 17 13  1  0
 18 20  1  0
 19 18  2  0
M  END
$$$$
