CNA.pdb
     RDKit          3D

 20 19  0  0  1  0  0  0  0  0999 V2000
    7.3774  -15.0977   19.7758 N   0  0  0  0  0  0  0  0  0  0  0  0
    8.2859  -14.4666   20.7130 C   0  0  1  0  0  0  0  0  0  0  0  0
    7.9296  -13.0320   20.9317 C   0  0  0  0  0  0  0  0  0  0  0  0
    8.2286  -12.0498   19.4516 S   0  0  0  0  0  0  0  0  0  0  0  0
    8.3540  -15.2096   21.9830 C   0  0  0  0  0  0  0  0  0  0  0  0
    7.2534  -15.5579   22.5056 O   0  0  0  0  0  0  0  0  0  0  0  0
   10.0364  -19.2704   25.2918 N   0  0  0  0  0  0  0  0  0  0  0  0
   10.8486  -18.1474   25.0123 C   0  0  0  0  0  0  0  0  0  0  0  0
   11.7055  -17.7922   25.8519 O   0  0  0  0  0  0  0  0  0  0  0  0
   10.6946  -17.4094   23.7653 C   0  0  0  0  0  0  0  0  0  0  0  0
    9.6346  -16.3157   23.8604 C   0  0  2  0  0  0  0  0  0  0  0  0
    9.5687  -15.5476   22.6366 N   0  0  0  0  0  0  0  0  0  0  0  0
   10.0658  -15.4152   24.9533 C   0  0  0  0  0  0  0  0  0  0  0  0
   11.1605  -14.8171   24.8531 O   0  0  0  0  0  0  0  0  0  0  0  0
    8.6739  -13.3692   27.6066 C   0  0  0  0  0  0  0  0  0  0  0  0
    9.7569  -14.3314   27.1854 C   0  0  2  0  0  0  0  0  0  0  0  0
    9.2836  -15.1981   26.1225 N   0  0  0  0  0  0  0  0  0  0  0  0
   10.2655  -15.1360   28.3155 C   0  0  0  0  0  0  0  0  0  0  0  0
   10.1119  -16.3806   28.3656 O   0  0  0  0  0  0  0  0  0  0  0  0
   10.9305  -14.5102   29.3516 O   0  0  0  0  0  0  0  0  0  0  0  0
  2  1  1  6
  2  5  1  0
  3  2  1  0
  4  3  1  0
  5 12  1  0
  5  6  2  0
  7  8  1  0
  8 10  1  0
  8  9  2  0
 11 10  1  6
 11 13  1  0
 12 11  1  0
 13 14  2  0
 16 15  1  1
 16 18  1  0
 17 16  1  0
 17 13  1  0
 18 20  1  0
 19 18  2  0
M  END
$$$$
