CNA.pdb
     RDKit          3D

 20 19  0  0  1  0  0  0  0  0999 V2000
    7.3646  -15.1018   19.7226 N   0  0  0  0  0  0  0  0  0  0  0  0
    8.2503  -14.4239   20.6488 C   0  0  1  0  0  0  0  0  0  0  0  0
    7.9432  -12.9633   20.7227 C   0  0  0  0  0  0  0  0  0  0  0  0
    8.3013  -12.1387   19.1618 S   0  0  0  0  0  0  0  0  0  0  0  0
    8.2238  -15.0532   21.9803 C   0  0  0  0  0  0  0  0  0  0  0  0
    7.0875  -15.2176   22.5165 O   0  0  0  0  0  0  0  0  0  0  0  0
    9.1762  -19.2692   23.0015 N   0  0  0  0  0  0  0  0  0  0  0  0
   10.1477  -18.2465   22.9051 C   0  0  0  0  0  0  0  0  0  0  0  0
   10.8382  -18.1593   21.8654 O   0  0  0  0  0  0  0  0  0  0  0  0
   10.3468  -17.3039   23.9983 C   0  0  0  0  0  0  0  0  0  0  0  0
    9.3541  -16.1455   23.9595 C   0  0  2  0  0  0  0  0  0  0  0  0
    9.3864  -15.4759   22.6778 N   0  0  0  0  0  0  0  0  0  0  0  0
    9.7956  -15.1869   24.9975 C   0  0  0  0  0  0  0  0  0  0  0  0
   10.9903  -14.8145   25.0136 O   0  0  0  0  0  0  0  0  0  0  0  0
    8.3209  -12.9855   27.6422 C   0  0  0  0  0  0  0  0  0  0  0  0
    9.4161  -13.8586   27.0817 C   0  0  2  0  0  0  0  0  0  0  0  0
    8.9137  -14.6660   25.9859 N   0  0  0  0  0  0  0  0  0  0  0  0
   10.0329  -14.7190   28.1124 C   0  0  0  0  0  0  0  0  0  0  0  0
    9.9075  -15.9678   28.0957 O   0  0  0  0  0  0  0  0  0  0  0  0
   10.7705  -14.1427   29.1278 O   0  0  0  0  0  0  0  0  0  0  0  0
  2  1  1  6
  2  5  1  0
  3  2  1  0
  4  3  1  0
  5 12  1  0
  5  6  2  0
  7  8  1  0
  8 10  1  0
  8  9  2  0
 11 10  1  6
 11 13  1  0
 12 11  1  0
 13 14  2  0
 16 15  1  1
 16 18  1  0
 17 16  1  0
 17 13  1  0
 18 20  1  0
 19 18  2  0
M  END
$$$$
