CNA.pdb
     RDKit          3D

 20 19  0  0  1  0  0  0  0  0999 V2000
    4.1127  -20.3136   16.2433 N   0  0  0  0  0  0  0  0  0  0  0  0
    4.1539  -20.8833   17.5760 C   0  0  1  0  0  0  0  0  0  0  0  0
    5.0731  -20.1129   18.4672 C   0  0  0  0  0  0  0  0  0  0  0  0
    5.9800  -18.8585   17.5459 S   0  0  0  0  0  0  0  0  0  0  0  0
    2.8049  -20.9993   18.1558 C   0  0  0  0  0  0  0  0  0  0  0  0
    2.0319  -20.0047   18.0179 O   0  0  0  0  0  0  0  0  0  0  0  0
   -1.2408  -25.0811   20.4150 N   0  0  0  0  0  0  0  0  0  0  0  0
   -0.8530  -23.8894   19.7605 C   0  0  0  0  0  0  0  0  0  0  0  0
   -1.6937  -22.9744   19.6139 O   0  0  0  0  0  0  0  0  0  0  0  0
    0.5059  -23.7228   19.2612 C   0  0  0  0  0  0  0  0  0  0  0  0
    0.9953  -22.2814   19.3681 C   0  0  2  0  0  0  0  0  0  0  0  0
    2.3383  -22.1484   18.8478 N   0  0  0  0  0  0  0  0  0  0  0  0
    1.0210  -21.9589   20.8127 C   0  0  0  0  0  0  0  0  0  0  0  0
    1.9500  -22.4089   21.5204 O   0  0  0  0  0  0  0  0  0  0  0  0
   -0.4312  -19.4379   23.1002 C   0  0  0  0  0  0  0  0  0  0  0  0
    0.1149  -20.8213   22.8466 C   0  0  2  0  0  0  0  0  0  0  0  0
    0.0276  -21.1532   21.4369 N   0  0  0  0  0  0  0  0  0  0  0  0
   -0.5635  -21.8519   23.6595 C   0  0  0  0  0  0  0  0  0  0  0  0
   -0.5319  -21.8340   24.9140 O   0  0  0  0  0  0  0  0  0  0  0  0
   -1.2551  -22.8685   23.0305 O   0  0  0  0  0  0  0  0  0  0  0  0
  2  1  1  6
  2  5  1  0
  3  2  1  0
  4  3  1  0
  5 12  1  0
  5  6  2  0
  7  8  1  0
  8 10  1  0
  8  9  2  0
 11 10  1  1
 11 13  1  0
 12 11  1  0
 13 14  2  0
 16 15  1  6
 16 18  1  0
 17 16  1  0
 17 13  1  0
 18 20  1  0
 19 18  2  0
M  END
$$$$
