CNA.pdb
     RDKit          3D

 20 19  0  0  1  0  0  0  0  0999 V2000
    8.1297  -14.2775   17.6920 N   0  0  0  0  0  0  0  0  0  0  0  0
    9.0063  -13.9435   18.7975 C   0  0  1  0  0  0  0  0  0  0  0  0
    8.2843  -13.1593   19.8447 C   0  0  0  0  0  0  0  0  0  0  0  0
    7.8130  -11.5310   19.2354 S   0  0  0  0  0  0  0  0  0  0  0  0
    9.6459  -15.1444   19.3617 C   0  0  0  0  0  0  0  0  0  0  0  0
    8.9970  -16.2303   19.2879 O   0  0  0  0  0  0  0  0  0  0  0  0
   13.4715  -14.0283   19.1806 N   0  0  0  0  0  0  0  0  0  0  0  0
   13.7275  -15.1021   20.0640 C   0  0  0  0  0  0  0  0  0  0  0  0
   14.5515  -14.9433   20.9920 O   0  0  0  0  0  0  0  0  0  0  0  0
   13.0443  -16.3789   19.9011 C   0  0  0  0  0  0  0  0  0  0  0  0
   11.6073  -16.3424   20.4132 C   0  0  2  0  0  0  0  0  0  0  0  0
   10.9283  -15.1439   19.9718 N   0  0  0  0  0  0  0  0  0  0  0  0
   11.6949  -16.3112   21.8906 C   0  0  0  0  0  0  0  0  0  0  0  0
   12.0583  -15.2559   22.4567 O   0  0  0  0  0  0  0  0  0  0  0  0
   10.4238  -18.2347   24.7916 C   0  0  0  0  0  0  0  0  0  0  0  0
   11.4742  -17.3639   24.1479 C   0  0  2  0  0  0  0  0  0  0  0  0
   11.3814  -17.4379   22.7019 N   0  0  0  0  0  0  0  0  0  0  0  0
   12.8405  -17.7082   24.5927 C   0  0  0  0  0  0  0  0  0  0  0  0
   13.6747  -18.2408   23.8209 O   0  0  0  0  0  0  0  0  0  0  0  0
   13.2206  -17.4404   25.8931 O   0  0  0  0  0  0  0  0  0  0  0  0
  2  1  1  6
  2  5  1  0
  3  2  1  0
  4  3  1  0
  5 12  1  0
  5  6  2  0
  7  8  1  0
  8 10  1  0
  8  9  2  0
 11 10  1  6
 11 13  1  0
 12 11  1  0
 13 14  2  0
 16 15  1  1
 16 18  1  0
 17 16  1  0
 17 13  1  0
 18 20  1  0
 19 18  2  0
M  END
$$$$
