CNA.pdb
     RDKit          3D

 20 19  0  0  1  0  0  0  0  0999 V2000
    7.0653  -15.2973   19.4374 N   0  0  0  0  0  0  0  0  0  0  0  0
    7.7217  -14.5001   20.4551 C   0  0  1  0  0  0  0  0  0  0  0  0
    7.5090  -13.0397   20.2212 C   0  0  0  0  0  0  0  0  0  0  0  0
    8.7669  -12.3619   19.1243 S   0  0  0  0  0  0  0  0  0  0  0  0
    7.3022  -14.9008   21.8090 C   0  0  0  0  0  0  0  0  0  0  0  0
    6.0852  -14.7194   22.1116 O   0  0  0  0  0  0  0  0  0  0  0  0
    7.8258  -19.0212   26.1319 N   0  0  0  0  0  0  0  0  0  0  0  0
    7.3478  -17.8118   25.5772 C   0  0  0  0  0  0  0  0  0  0  0  0
    6.5489  -17.1126   26.2393 O   0  0  0  0  0  0  0  0  0  0  0  0
    7.7759  -17.3800   24.2529 C   0  0  0  0  0  0  0  0  0  0  0  0
    7.7634  -15.8617   24.1007 C   0  0  2  0  0  0  0  0  0  0  0  0
    8.1781  -15.4689   22.7719 N   0  0  0  0  0  0  0  0  0  0  0  0
    8.7523  -15.3402   25.0709 C   0  0  0  0  0  0  0  0  0  0  0  0
    9.9632  -15.6143   24.9128 O   0  0  0  0  0  0  0  0  0  0  0  0
    8.9530  -12.7928   27.7853 C   0  0  0  0  0  0  0  0  0  0  0  0
    9.3764  -14.0920   27.1458 C   0  0  2  0  0  0  0  0  0  0  0  0
    8.3835  -14.5342   26.1847 N   0  0  0  0  0  0  0  0  0  0  0  0
    9.6340  -15.1521   28.1422 C   0  0  0  0  0  0  0  0  0  0  0  0
   10.4637  -15.0010   29.0718 O   0  0  0  0  0  0  0  0  0  0  0  0
    8.9475  -16.3474   28.0572 O   0  0  0  0  0  0  0  0  0  0  0  0
  2  1  1  6
  2  5  1  0
  3  2  1  0
  4  3  1  0
  5 12  1  0
  5  6  2  0
  7  8  1  0
  8 10  1  0
  8  9  2  0
 11 10  1  6
 11 13  1  0
 12 11  1  0
 13 14  2  0
 16 15  1  1
 16 18  1  0
 17 16  1  0
 17 13  1  0
 18 20  1  0
 19 18  2  0
M  END
$$$$
