CNA.pdb
     RDKit          3D

 20 19  0  0  1  0  0  0  0  0999 V2000
    7.0883  -15.2601   19.7469 N   0  0  0  0  0  0  0  0  0  0  0  0
    7.8805  -14.5683   20.7448 C   0  0  1  0  0  0  0  0  0  0  0  0
    7.8334  -13.0882   20.5446 C   0  0  0  0  0  0  0  0  0  0  0  0
    8.7820  -12.5927   19.0956 S   0  0  0  0  0  0  0  0  0  0  0  0
    7.4778  -14.9453   22.1106 C   0  0  0  0  0  0  0  0  0  0  0  0
    6.2647  -14.7579   22.4252 O   0  0  0  0  0  0  0  0  0  0  0  0
    5.7661  -18.1717   24.0091 N   0  0  0  0  0  0  0  0  0  0  0  0
    7.1488  -18.1566   23.7145 C   0  0  0  0  0  0  0  0  0  0  0  0
    7.5646  -18.7824   22.7141 O   0  0  0  0  0  0  0  0  0  0  0  0
    8.0820  -17.4240   24.5606 C   0  0  0  0  0  0  0  0  0  0  0  0
    7.9569  -15.9120   24.3962 C   0  0  2  0  0  0  0  0  0  0  0  0
    8.3654  -15.4975   23.0721 N   0  0  0  0  0  0  0  0  0  0  0  0
    8.8850  -15.3104   25.3801 C   0  0  0  0  0  0  0  0  0  0  0  0
   10.1153  -15.3392   25.1530 O   0  0  0  0  0  0  0  0  0  0  0  0
    8.6980  -13.1053   28.4050 C   0  0  0  0  0  0  0  0  0  0  0  0
    9.3792  -14.1238   27.5249 C   0  0  2  0  0  0  0  0  0  0  0  0
    8.4357  -14.6957   26.5827 N   0  0  0  0  0  0  0  0  0  0  0  0
   10.0364  -15.1924   28.3055 C   0  0  0  0  0  0  0  0  0  0  0  0
    9.6519  -16.3859   28.2507 O   0  0  0  0  0  0  0  0  0  0  0  0
   11.1055  -14.8796   29.1218 O   0  0  0  0  0  0  0  0  0  0  0  0
  2  1  1  6
  2  5  1  0
  3  2  1  0
  4  3  1  0
  5 12  1  0
  5  6  2  0
  7  8  1  0
  8 10  1  0
  8  9  2  0
 11 10  1  6
 11 13  1  0
 12 11  1  0
 13 14  2  0
 16 15  1  1
 16 18  1  0
 17 16  1  0
 17 13  1  0
 18 20  1  0
 19 18  2  0
M  END
$$$$
