CNA.pdb
     RDKit          3D

 20 19  0  0  1  0  0  0  0  0999 V2000
    9.4313  -12.9141   17.9801 N   0  0  0  0  0  0  0  0  0  0  0  0
    8.7868  -13.5829   19.0934 C   0  0  1  0  0  0  0  0  0  0  0  0
    7.4232  -14.0667   18.7200 C   0  0  0  0  0  0  0  0  0  0  0  0
    6.3906  -12.7177   18.1211 S   0  0  0  0  0  0  0  0  0  0  0  0
    9.6230  -14.6718   19.6268 C   0  0  0  0  0  0  0  0  0  0  0  0
    9.0442  -15.7701   19.8807 O   0  0  0  0  0  0  0  0  0  0  0  0
   13.1668  -16.4417   17.7789 N   0  0  0  0  0  0  0  0  0  0  0  0
   13.5516  -15.3626   18.6074 C   0  0  0  0  0  0  0  0  0  0  0  0
   14.1052  -14.3664   18.0912 O   0  0  0  0  0  0  0  0  0  0  0  0
   13.3094  -15.4040   20.0438 C   0  0  0  0  0  0  0  0  0  0  0  0
   11.8380  -15.6260   20.3823 C   0  0  2  0  0  0  0  0  0  0  0  0
   11.0179  -14.5526   19.8654 N   0  0  0  0  0  0  0  0  0  0  0  0
   11.7465  -15.6127   21.8597 C   0  0  0  0  0  0  0  0  0  0  0  0
   12.4130  -14.7713   22.5033 O   0  0  0  0  0  0  0  0  0  0  0  0
    9.4646  -16.4885   24.5300 C   0  0  0  0  0  0  0  0  0  0  0  0
   10.8903  -16.4966   24.0364 C   0  0  2  0  0  0  0  0  0  0  0  0
   10.9273  -16.5221   22.5862 N   0  0  0  0  0  0  0  0  0  0  0  0
   11.6710  -17.6224   24.5895 C   0  0  0  0  0  0  0  0  0  0  0  0
   11.8285  -17.7764   25.8251 O   0  0  0  0  0  0  0  0  0  0  0  0
   12.2482  -18.5372   23.7309 O   0  0  0  0  0  0  0  0  0  0  0  0
  2  1  1  6
  2  5  1  0
  3  2  1  0
  4  3  1  0
  5 12  1  0
  5  6  2  0
  7  8  1  0
  8 10  1  0
  8  9  2  0
 11 10  1  1
 11 13  1  0
 12 11  1  0
 13 14  2  0
 16 15  1  6
 16 18  1  0
 17 16  1  0
 17 13  1  0
 18 20  1  0
 19 18  2  0
M  END
$$$$
