CNA.pdb
     RDKit          3D

 20 19  0  0  1  0  0  0  0  0999 V2000
    5.5065  -18.9351   20.2620 N   0  0  0  0  0  0  0  0  0  0  0  0
    5.8850  -17.9023   21.2065 C   0  0  1  0  0  0  0  0  0  0  0  0
    5.8099  -18.3998   22.6135 C   0  0  0  0  0  0  0  0  0  0  0  0
    5.9003  -17.0423   23.7941 S   0  0  0  0  0  0  0  0  0  0  0  0
    7.2136  -17.3471   20.8962 C   0  0  0  0  0  0  0  0  0  0  0  0
    8.1169  -18.1699   20.5606 O   0  0  0  0  0  0  0  0  0  0  0  0
    6.7905  -12.8392   19.0003 N   0  0  0  0  0  0  0  0  0  0  0  0
    7.8307  -13.7967   19.0001 C   0  0  0  0  0  0  0  0  0  0  0  0
    8.0033  -14.5074   17.9849 O   0  0  0  0  0  0  0  0  0  0  0  0
    8.6935  -13.9586   20.1632 C   0  0  0  0  0  0  0  0  0  0  0  0
    8.8162  -15.4150   20.6018 C   0  0  2  0  0  0  0  0  0  0  0  0
    7.5245  -15.9626   20.9538 N   0  0  0  0  0  0  0  0  0  0  0  0
    9.6671  -15.4123   21.8131 C   0  0  0  0  0  0  0  0  0  0  0  0
   10.8393  -14.9812   21.7327 O   0  0  0  0  0  0  0  0  0  0  0  0
    9.2990  -15.6077   25.4910 C   0  0  0  0  0  0  0  0  0  0  0  0
   10.0822  -15.8885   24.2325 C   0  0  2  0  0  0  0  0  0  0  0  0
    9.2069  -15.8823   23.0754 N   0  0  0  0  0  0  0  0  0  0  0  0
   10.8271  -17.1624   24.3057 C   0  0  0  0  0  0  0  0  0  0  0  0
   10.5715  -18.1249   23.5418 O   0  0  0  0  0  0  0  0  0  0  0  0
   11.8355  -17.3086   25.2379 O   0  0  0  0  0  0  0  0  0  0  0  0
  2  1  1  6
  2  5  1  0
  3  2  1  0
  4  3  1  0
  5 12  1  0
  5  6  2  0
  7  8  1  0
  8 10  1  0
  8  9  2  0
 11 10  1  1
 11 13  1  0
 12 11  1  0
 13 14  2  0
 16 15  1  1
 16 18  1  0
 17 16  1  0
 17 13  1  0
 18 20  1  0
 19 18  2  0
M  END
$$$$
