CNA.pdb
     RDKit          3D

 20 19  0  0  1  0  0  0  0  0999 V2000
    7.8683  -15.0917   17.5563 N   0  0  0  0  0  0  0  0  0  0  0  0
    8.7073  -14.5947   18.6292 C   0  0  1  0  0  0  0  0  0  0  0  0
    8.0037  -13.5445   19.4261 C   0  0  0  0  0  0  0  0  0  0  0  0
    7.5476  -12.1376   18.3979 S   0  0  0  0  0  0  0  0  0  0  0  0
    9.1961  -15.6899   19.4843 C   0  0  0  0  0  0  0  0  0  0  0  0
    8.3898  -16.6382   19.7216 O   0  0  0  0  0  0  0  0  0  0  0  0
   12.5812  -19.2895   19.5462 N   0  0  0  0  0  0  0  0  0  0  0  0
   12.6454  -17.8775   19.5104 C   0  0  0  0  0  0  0  0  0  0  0  0
   12.8937  -17.3071   18.4249 O   0  0  0  0  0  0  0  0  0  0  0  0
   12.4264  -17.0917   20.7179 C   0  0  0  0  0  0  0  0  0  0  0  0
   10.9523  -16.7697   20.9463 C   0  0  2  0  0  0  0  0  0  0  0  0
   10.5006  -15.7334   20.0441 N   0  0  0  0  0  0  0  0  0  0  0  0
   10.8500  -16.2587   22.3318 C   0  0  0  0  0  0  0  0  0  0  0  0
   11.6015  -15.3255   22.6935 O   0  0  0  0  0  0  0  0  0  0  0  0
    8.4398  -16.4189   25.1682 C   0  0  0  0  0  0  0  0  0  0  0  0
    9.8306  -16.2302   24.6149 C   0  0  2  0  0  0  0  0  0  0  0  0
    9.9271  -16.7864   23.2783 N   0  0  0  0  0  0  0  0  0  0  0  0
   10.8684  -16.8139   25.4898 C   0  0  0  0  0  0  0  0  0  0  0  0
   11.5150  -17.8377   25.1597 O   0  0  0  0  0  0  0  0  0  0  0  0
   11.1425  -16.2236   26.7078 O   0  0  0  0  0  0  0  0  0  0  0  0
  2  1  1  6
  2  5  1  0
  3  2  1  0
  4  3  1  0
  5 12  1  0
  5  6  2  0
  7  8  1  0
  8 10  1  0
  8  9  2  0
 11 10  1  6
 11 13  1  0
 12 11  1  0
 13 14  2  0
 16 15  1  1
 16 18  1  0
 17 16  1  0
 17 13  1  0
 18 20  1  0
 19 18  2  0
M  END
$$$$
