CNA.pdb
     RDKit          3D

 20 19  0  0  1  0  0  0  0  0999 V2000
    8.4133  -12.9914   17.1754 N   0  0  0  0  0  0  0  0  0  0  0  0
    7.6076  -13.8507   18.0208 C   0  0  1  0  0  0  0  0  0  0  0  0
    7.3822  -15.1829   17.3826 C   0  0  0  0  0  0  0  0  0  0  0  0
    8.9252  -16.0963   17.2105 S   0  0  0  0  0  0  0  0  0  0  0  0
    8.1905  -13.9842   19.3670 C   0  0  0  0  0  0  0  0  0  0  0  0
    9.4305  -13.7503   19.4828 O   0  0  0  0  0  0  0  0  0  0  0  0
    8.3390  -13.6751   24.8154 N   0  0  0  0  0  0  0  0  0  0  0  0
    7.4378  -14.6096   24.2555 C   0  0  0  0  0  0  0  0  0  0  0  0
    7.0942  -15.6043   24.9322 O   0  0  0  0  0  0  0  0  0  0  0  0
    6.9126  -14.4223   22.9092 C   0  0  0  0  0  0  0  0  0  0  0  0
    8.0086  -14.4341   21.8474 C   0  0  2  0  0  0  0  0  0  0  0  0
    7.4451  -14.3549   20.5176 N   0  0  0  0  0  0  0  0  0  0  0  0
    8.7024  -15.7348   21.9829 C   0  0  0  0  0  0  0  0  0  0  0  0
    8.1500  -16.7681   21.5430 O   0  0  0  0  0  0  0  0  0  0  0  0
   12.0017  -17.1169   22.0869 C   0  0  0  0  0  0  0  0  0  0  0  0
   10.6273  -17.1565   22.7079 C   0  0  2  0  0  0  0  0  0  0  0  0
    9.9803  -15.8627   22.5966 N   0  0  0  0  0  0  0  0  0  0  0  0
   10.6596  -17.5944   24.1187 C   0  0  0  0  0  0  0  0  0  0  0  0
   10.1481  -16.9093   25.0376 O   0  0  0  0  0  0  0  0  0  0  0  0
   11.2677  -18.7902   24.4465 O   0  0  0  0  0  0  0  0  0  0  0  0
  2  1  1  6
  2  5  1  0
  3  2  1  0
  4  3  1  0
  5 12  1  0
  5  6  2  0
  7  8  1  0
  8 10  1  0
  8  9  2  0
 11 10  1  1
 11 13  1  0
 12 11  1  0
 13 14  2  0
 16 15  1  1
 16 18  1  0
 17 16  1  0
 17 13  1  0
 18 20  1  0
 19 18  2  0
M  END
$$$$
