CNA.pdb
     RDKit          3D

 20 19  0  0  1  0  0  0  0  0999 V2000
    7.5120  -14.7242   17.0693 N   0  0  0  0  0  0  0  0  0  0  0  0
    8.4387  -14.3939   18.1343 C   0  0  1  0  0  0  0  0  0  0  0  0
    8.0814  -13.0950   18.7810 C   0  0  0  0  0  0  0  0  0  0  0  0
    8.2666  -11.7189   17.6335 S   0  0  0  0  0  0  0  0  0  0  0  0
    8.5385  -15.4832   19.1207 C   0  0  0  0  0  0  0  0  0  0  0  0
    7.4814  -16.1386   19.3630 O   0  0  0  0  0  0  0  0  0  0  0  0
   11.0114  -18.8963   17.9547 N   0  0  0  0  0  0  0  0  0  0  0  0
   10.3889  -18.8327   19.2225 C   0  0  0  0  0  0  0  0  0  0  0  0
    9.3932  -19.5559   19.4485 O   0  0  0  0  0  0  0  0  0  0  0  0
   10.8951  -17.9390   20.2562 C   0  0  0  0  0  0  0  0  0  0  0  0
    9.8468  -16.9337   20.7245 C   0  0  2  0  0  0  0  0  0  0  0  0
    9.7377  -15.8273   19.7993 N   0  0  0  0  0  0  0  0  0  0  0  0
   10.3267  -16.4098   22.0231 C   0  0  0  0  0  0  0  0  0  0  0  0
   11.4260  -15.8135   22.0703 O   0  0  0  0  0  0  0  0  0  0  0  0
    8.9706  -15.6418   25.3992 C   0  0  0  0  0  0  0  0  0  0  0  0
   10.1023  -16.0453   24.4867 C   0  0  2  0  0  0  0  0  0  0  0  0
    9.5867  -16.5556   23.2302 N   0  0  0  0  0  0  0  0  0  0  0  0
   11.0035  -17.0354   25.1117 C   0  0  0  0  0  0  0  0  0  0  0  0
   11.0409  -18.2310   24.7314 O   0  0  0  0  0  0  0  0  0  0  0  0
   11.8325  -16.6446   26.1447 O   0  0  0  0  0  0  0  0  0  0  0  0
  2  1  1  6
  2  5  1  0
  3  2  1  0
  4  3  1  0
  5 12  1  0
  5  6  2  0
  7  8  1  0
  8 10  1  0
  8  9  2  0
 11 10  1  6
 11 13  1  0
 12 11  1  0
 13 14  2  0
 16 15  1  1
 16 18  1  0
 17 16  1  0
 17 13  1  0
 18 20  1  0
 19 18  2  0
M  END
$$$$
