YEY.pdb
     RDKit          3D

 34 35  0  0  1  0  0  0  0  0999 V2000
    7.3087  -12.0477   16.9468 O   0  0  0  0  0  0  0  0  0  0  0  0
    7.5654  -12.6784   18.1471 C   0  0  0  0  0  0  0  0  0  0  0  0
    8.7653  -13.3446   18.3228 C   0  0  0  0  0  0  0  0  0  0  0  0
    9.0407  -13.9839   19.5220 C   0  0  0  0  0  0  0  0  0  0  0  0
    8.1399  -13.9794   20.5711 C   0  0  0  0  0  0  0  0  0  0  0  0
    8.4415  -14.6665   21.8537 C   0  0  0  0  0  0  0  0  0  0  0  0
    8.5448  -16.1289   21.5767 C   0  0  2  0  0  0  0  0  0  0  0  0
    7.2585  -16.6606   21.2596 N   0  0  0  0  0  0  0  0  0  0  0  0
    9.1569  -16.8922   22.7067 C   0  0  0  0  0  0  0  0  0  0  0  0
    8.4186  -17.3917   23.5945 O   0  0  0  0  0  0  0  0  0  0  0  0
    6.9430  -13.3091   20.3820 C   0  0  0  0  0  0  0  0  0  0  0  0
    6.6654  -12.6716   19.1896 C   0  0  0  0  0  0  0  0  0  0  0  0
   10.5491  -17.0829   22.8277 N   0  0  0  0  0  0  0  0  0  0  0  0
   11.1990  -17.5996   24.0009 C   0  0  1  0  0  0  0  0  0  0  0  0
   12.6847  -17.7827   23.7754 C   0  0  0  0  0  0  0  0  0  0  0  0
   12.9725  -18.4743   22.4661 C   0  0  0  0  0  0  0  0  0  0  0  0
   14.1280  -19.3844   22.6501 C   0  0  0  0  0  0  0  0  0  0  0  0
   14.9529  -19.1958   23.5758 O   0  0  0  0  0  0  0  0  0  0  0  0
   11.0735  -16.6399   25.1555 C   0  0  0  0  0  0  0  0  0  0  0  0
   10.8633  -15.4161   24.9599 O   0  0  0  0  0  0  0  0  0  0  0  0
   14.3245  -20.4628   21.8063 O   0  0  0  0  0  0  0  0  0  0  0  0
    6.5754  -11.6422   26.0970 O   0  0  0  0  0  0  0  0  0  0  0  0
    7.1280  -12.9001   26.3540 C   0  0  0  0  0  0  0  0  0  0  0  0
    8.3503  -13.0134   26.9788 C   0  0  0  0  0  0  0  0  0  0  0  0
    8.8847  -14.2759   27.2263 C   0  0  0  0  0  0  0  0  0  0  0  0
    8.2493  -15.4376   26.8759 C   0  0  0  0  0  0  0  0  0  0  0  0
    8.8428  -16.7680   27.1566 C   0  0  0  0  0  0  0  0  0  0  0  0
   10.2953  -16.5977   27.5468 C   0  0  2  0  0  0  0  0  0  0  0  0
   11.1860  -17.0683   26.5072 N   0  0  0  0  0  0  0  0  0  0  0  0
   10.6078  -17.3127   28.7978 C   0  0  0  0  0  0  0  0  0  0  0  0
   11.0100  -18.6360   28.7326 O   0  0  0  0  0  0  0  0  0  0  0  0
    7.0137  -15.3110   26.2445 C   0  0  0  0  0  0  0  0  0  0  0  0
    6.4804  -14.0642   25.9971 C   0  0  0  0  0  0  0  0  0  0  0  0
   10.5370  -16.8064   29.9473 O   0  0  0  0  0  0  0  0  0  0  0  0
  2  1  1  0
  3  2  2  0
  4  3  1  0
  5  4  2  0
  5 11  1  0
  6  5  1  0
  7  6  1  0
  7  8  1  1
  9  7  1  0
  9 10  2  0
 11 12  2  0
 12  2  1  0
 13  9  1  0
 14 13  1  0
 14 15  1  6
 15 16  1  0
 16 17  1  0
 17 21  1  0
 18 17  2  0
 19 14  1  0
 20 19  2  0
 23 22  1  0
 23 24  2  0
 25 24  1  0
 26 25  2  0
 27 26  1  0
 28 27  1  6
 28 29  1  0
 29 19  1  0
 30 31  1  0
 30 28  1  0
 32 33  2  0
 32 26  1  0
 33 23  1  0
 34 30  2  0
M  END
$$$$
