YEY.pdb
     RDKit          3D

 34 35  0  0  1  0  0  0  0  0999 V2000
    7.4203  -13.3683   27.0453 O   0  0  0  0  0  0  0  0  0  0  0  0
    7.5449  -13.6106   25.6925 C   0  0  0  0  0  0  0  0  0  0  0  0
    8.8052  -13.6668   25.1244 C   0  0  0  0  0  0  0  0  0  0  0  0
    8.9498  -13.9093   23.7668 C   0  0  0  0  0  0  0  0  0  0  0  0
    7.8561  -14.1012   22.9428 C   0  0  0  0  0  0  0  0  0  0  0  0
    8.0182  -14.3609   21.4887 C   0  0  0  0  0  0  0  0  0  0  0  0
    7.8296  -15.8232   21.2607 C   0  0  2  0  0  0  0  0  0  0  0  0
    6.5243  -16.2211   21.6800 N   0  0  0  0  0  0  0  0  0  0  0  0
    8.8685  -16.6558   21.9403 C   0  0  0  0  0  0  0  0  0  0  0  0
    8.5168  -17.5833   22.7139 O   0  0  0  0  0  0  0  0  0  0  0  0
    6.6006  -14.0424   23.5242 C   0  0  0  0  0  0  0  0  0  0  0  0
    6.4528  -13.8011   24.8751 C   0  0  0  0  0  0  0  0  0  0  0  0
   10.2506  -16.4471   21.7521 N   0  0  0  0  0  0  0  0  0  0  0  0
   11.2780  -17.3300   22.2329 C   0  0  1  0  0  0  0  0  0  0  0  0
   12.6185  -17.0130   21.6052 C   0  0  0  0  0  0  0  0  0  0  0  0
   12.7116  -17.5280   20.1904 C   0  0  0  0  0  0  0  0  0  0  0  0
   14.0296  -17.1475   19.6290 C   0  0  0  0  0  0  0  0  0  0  0  0
   14.2207  -16.0005   19.1593 O   0  0  0  0  0  0  0  0  0  0  0  0
   11.4726  -17.1746   23.7188 C   0  0  0  0  0  0  0  0  0  0  0  0
   11.6332  -16.0399   24.2353 O   0  0  0  0  0  0  0  0  0  0  0  0
   15.0801  -18.0475   19.6094 O   0  0  0  0  0  0  0  0  0  0  0  0
   10.5214  -13.3512   30.1174 O   0  0  0  0  0  0  0  0  0  0  0  0
   10.3584  -14.3649   29.1689 C   0  0  0  0  0  0  0  0  0  0  0  0
    9.8229  -14.0857   27.9309 C   0  0  0  0  0  0  0  0  0  0  0  0
    9.6683  -15.1094   26.9988 C   0  0  0  0  0  0  0  0  0  0  0  0
   10.0268  -16.4075   27.2489 C   0  0  0  0  0  0  0  0  0  0  0  0
    9.8530  -17.4754   26.2338 C   0  0  0  0  0  0  0  0  0  0  0  0
   11.1767  -18.1737   26.0079 C   0  0  2  0  0  0  0  0  0  0  0  0
   11.4838  -18.2925   24.5982 N   0  0  0  0  0  0  0  0  0  0  0  0
   11.1893  -19.5193   26.6105 C   0  0  0  0  0  0  0  0  0  0  0  0
   11.3587  -20.6213   25.7896 O   0  0  0  0  0  0  0  0  0  0  0  0
   10.5672  -16.6784   28.5043 C   0  0  0  0  0  0  0  0  0  0  0  0
   10.7223  -15.6692   29.4303 C   0  0  0  0  0  0  0  0  0  0  0  0
   11.0555  -19.7534   27.8393 O   0  0  0  0  0  0  0  0  0  0  0  0
  2  1  1  0
  3  2  2  0
  4  3  1  0
  5  4  2  0
  5 11  1  0
  6  5  1  0
  7  6  1  0
  7  8  1  1
  9  7  1  0
  9 10  2  0
 11 12  2  0
 12  2  1  0
 13  9  1  0
 14 13  1  0
 14 15  1  6
 15 16  1  0
 16 17  1  0
 17 21  1  0
 18 17  2  0
 19 14  1  0
 20 19  2  0
 23 22  1  0
 23 24  2  0
 25 24  1  0
 26 25  2  0
 27 26  1  0
 28 27  1  6
 28 29  1  0
 29 19  1  0
 30 31  1  0
 30 28  1  0
 32 33  2  0
 32 26  1  0
 33 23  1  0
 34 30  2  0
M  END
$$$$
