YEY.pdb
     RDKit          3D

 34 35  0  0  1  0  0  0  0  0999 V2000
    7.4401  -11.6608   17.4969 O   0  0  0  0  0  0  0  0  0  0  0  0
    7.5839  -12.3961   18.6558 C   0  0  0  0  0  0  0  0  0  0  0  0
    6.4894  -13.0604   19.1804 C   0  0  0  0  0  0  0  0  0  0  0  0
    6.6150  -13.8041   20.3439 C   0  0  0  0  0  0  0  0  0  0  0  0
    7.8206  -13.9080   21.0130 C   0  0  0  0  0  0  0  0  0  0  0  0
    7.9482  -14.7068   22.2594 C   0  0  0  0  0  0  0  0  0  0  0  0
    8.8233  -15.8788   21.9648 C   0  0  2  0  0  0  0  0  0  0  0  0
    8.2148  -16.7097   20.9764 N   0  0  0  0  0  0  0  0  0  0  0  0
    9.1520  -16.6791   23.1837 C   0  0  0  0  0  0  0  0  0  0  0  0
    8.2278  -17.2262   23.8389 O   0  0  0  0  0  0  0  0  0  0  0  0
    8.9078  -13.2382   20.4772 C   0  0  0  0  0  0  0  0  0  0  0  0
    8.7866  -12.4969   19.3193 C   0  0  0  0  0  0  0  0  0  0  0  0
   10.4740  -16.8537   23.6432 N   0  0  0  0  0  0  0  0  0  0  0  0
   10.8307  -17.5693   24.8376 C   0  0  1  0  0  0  0  0  0  0  0  0
   12.1633  -18.2710   24.6853 C   0  0  0  0  0  0  0  0  0  0  0  0
   12.1274  -19.3132   23.5953 C   0  0  0  0  0  0  0  0  0  0  0  0
   13.4686  -19.9343   23.4834 C   0  0  0  0  0  0  0  0  0  0  0  0
   13.7914  -20.9014   24.2137 O   0  0  0  0  0  0  0  0  0  0  0  0
   10.9921  -16.6287   26.0035 C   0  0  0  0  0  0  0  0  0  0  0  0
   11.6548  -15.5665   25.8911 O   0  0  0  0  0  0  0  0  0  0  0  0
   14.3961  -19.4628   22.5717 O   0  0  0  0  0  0  0  0  0  0  0  0
    6.4490  -12.7768   24.9583 O   0  0  0  0  0  0  0  0  0  0  0  0
    7.1633  -13.4532   25.9514 C   0  0  0  0  0  0  0  0  0  0  0  0
    8.2003  -12.8334   26.6129 C   0  0  0  0  0  0  0  0  0  0  0  0
    8.9004  -13.5240   27.5997 C   0  0  0  0  0  0  0  0  0  0  0  0
    8.6094  -14.8136   27.9580 C   0  0  0  0  0  0  0  0  0  0  0  0
    9.3713  -15.5213   29.0161 C   0  0  0  0  0  0  0  0  0  0  0  0
   10.6578  -16.0633   28.4313 C   0  0  2  0  0  0  0  0  0  0  0  0
   10.4088  -16.8953   27.2731 N   0  0  0  0  0  0  0  0  0  0  0  0
   11.4161  -16.8473   29.4235 C   0  0  0  0  0  0  0  0  0  0  0  0
   11.8436  -16.2269   30.5851 O   0  0  0  0  0  0  0  0  0  0  0  0
    7.5586  -15.4305   27.2822 C   0  0  0  0  0  0  0  0  0  0  0  0
    6.8627  -14.7519   26.3049 C   0  0  0  0  0  0  0  0  0  0  0  0
   11.7134  -18.0632   29.2976 O   0  0  0  0  0  0  0  0  0  0  0  0
  2  1  1  0
  3  2  2  0
  4  3  1  0
  5  4  2  0
  5 11  1  0
  6  5  1  0
  7  6  1  0
  7  8  1  6
  9  7  1  0
  9 10  2  0
 11 12  2  0
 12  2  1  0
 13  9  1  0
 14 13  1  0
 14 15  1  6
 15 16  1  0
 16 17  1  0
 17 21  1  0
 18 17  2  0
 19 14  1  0
 20 19  2  0
 23 22  1  0
 23 24  2  0
 25 24  1  0
 26 25  2  0
 27 26  1  0
 28 27  1  1
 28 29  1  0
 29 19  1  0
 30 31  1  0
 30 28  1  0
 32 33  2  0
 32 26  1  0
 33 23  1  0
 34 30  2  0
M  END
$$$$
