YEY.pdb
     RDKit          3D

 34 35  0  0  1  0  0  0  0  0999 V2000
    7.3949  -11.8289   17.4025 O   0  0  0  0  0  0  0  0  0  0  0  0
    7.5263  -12.5447   18.5750 C   0  0  0  0  0  0  0  0  0  0  0  0
    6.5672  -13.4840   18.9099 C   0  0  0  0  0  0  0  0  0  0  0  0
    6.6827  -14.2127   20.0840 C   0  0  0  0  0  0  0  0  0  0  0  0
    7.7447  -14.0304   20.9505 C   0  0  0  0  0  0  0  0  0  0  0  0
    7.8624  -14.8149   22.2070 C   0  0  0  0  0  0  0  0  0  0  0  0
    8.5512  -16.0980   21.8831 C   0  0  2  0  0  0  0  0  0  0  0  0
    7.6882  -16.9390   21.1176 N   0  0  0  0  0  0  0  0  0  0  0  0
    9.0343  -16.8209   23.0990 C   0  0  0  0  0  0  0  0  0  0  0  0
    8.2084  -17.4041   23.8475 O   0  0  0  0  0  0  0  0  0  0  0  0
    8.6973  -13.0872   20.6033 C   0  0  0  0  0  0  0  0  0  0  0  0
    8.5857  -12.3599   19.4355 C   0  0  0  0  0  0  0  0  0  0  0  0
   10.3980  -16.8816   23.4540 N   0  0  0  0  0  0  0  0  0  0  0  0
   10.9016  -17.5272   24.6353 C   0  0  1  0  0  0  0  0  0  0  0  0
   12.3038  -18.0563   24.4219 C   0  0  0  0  0  0  0  0  0  0  0  0
   12.7699  -18.8958   25.5853 C   0  0  0  0  0  0  0  0  0  0  0  0
   14.1504  -19.3630   25.3148 C   0  0  0  0  0  0  0  0  0  0  0  0
   14.5496  -19.5405   24.1392 O   0  0  0  0  0  0  0  0  0  0  0  0
   10.9989  -16.5555   25.7826 C   0  0  0  0  0  0  0  0  0  0  0  0
   11.5218  -15.4228   25.6288 O   0  0  0  0  0  0  0  0  0  0  0  0
   15.0314  -19.6142   26.3514 O   0  0  0  0  0  0  0  0  0  0  0  0
    6.1048  -13.0228   24.9084 O   0  0  0  0  0  0  0  0  0  0  0  0
    6.8987  -13.6590   25.8670 C   0  0  0  0  0  0  0  0  0  0  0  0
    7.8268  -12.9453   26.5926 C   0  0  0  0  0  0  0  0  0  0  0  0
    8.6088  -13.5970   27.5437 C   0  0  0  0  0  0  0  0  0  0  0  0
    8.5048  -14.9376   27.8045 C   0  0  0  0  0  0  0  0  0  0  0  0
    9.3496  -15.6025   28.8268 C   0  0  0  0  0  0  0  0  0  0  0  0
   10.6789  -15.9817   28.2104 C   0  0  2  0  0  0  0  0  0  0  0  0
   10.5091  -16.8704   27.0804 N   0  0  0  0  0  0  0  0  0  0  0  0
   11.5669  -16.6295   29.1932 C   0  0  0  0  0  0  0  0  0  0  0  0
   12.0186  -17.9147   28.9457 O   0  0  0  0  0  0  0  0  0  0  0  0
    7.5628  -15.6495   27.0646 C   0  0  0  0  0  0  0  0  0  0  0  0
    6.7865  -15.0096   26.1222 C   0  0  0  0  0  0  0  0  0  0  0  0
   11.9570  -16.0968   30.2641 O   0  0  0  0  0  0  0  0  0  0  0  0
  2  1  1  0
  3  2  2  0
  4  3  1  0
  5  4  2  0
  5 11  1  0
  6  5  1  0
  7  6  1  0
  7  8  1  1
  9  7  1  0
  9 10  2  0
 11 12  2  0
 12  2  1  0
 13  9  1  0
 14 13  1  0
 14 15  1  6
 15 16  1  0
 16 17  1  0
 17 21  1  0
 18 17  2  0
 19 14  1  0
 20 19  2  0
 23 22  1  0
 23 24  2  0
 25 24  1  0
 26 25  2  0
 27 26  1  0
 28 27  1  1
 28 29  1  0
 29 19  1  0
 30 31  1  0
 30 28  1  0
 32 33  2  0
 32 26  1  0
 33 23  1  0
 34 30  2  0
M  END
$$$$
