YEY.pdb
     RDKit          3D

 34 35  0  0  1  0  0  0  0  0999 V2000
   11.2011  -16.2782   10.6230 O   0  0  0  0  0  0  0  0  0  0  0  0
   11.2286  -16.3432   12.0012 C   0  0  0  0  0  0  0  0  0  0  0  0
   10.4833  -15.4414   12.7399 C   0  0  0  0  0  0  0  0  0  0  0  0
   10.4986  -15.4916   14.1256 C   0  0  0  0  0  0  0  0  0  0  0  0
   11.2479  -16.4307   14.8101 C   0  0  0  0  0  0  0  0  0  0  0  0
   11.2595  -16.4790   16.2952 C   0  0  0  0  0  0  0  0  0  0  0  0
   10.4280  -17.6418   16.7223 C   0  0  2  0  0  0  0  0  0  0  0  0
    9.0484  -17.3796   16.4655 N   0  0  0  0  0  0  0  0  0  0  0  0
   10.6282  -18.0025   18.1590 C   0  0  0  0  0  0  0  0  0  0  0  0
   10.0457  -17.3397   19.0557 O   0  0  0  0  0  0  0  0  0  0  0  0
   11.9891  -17.3271   14.0587 C   0  0  0  0  0  0  0  0  0  0  0  0
   11.9764  -17.2802   12.6793 C   0  0  0  0  0  0  0  0  0  0  0  0
   11.4548  -19.0707   18.5652 N   0  0  0  0  0  0  0  0  0  0  0  0
   11.7537  -19.3911   19.9341 C   0  0  1  0  0  0  0  0  0  0  0  0
   12.3995  -20.7548   20.0551 C   0  0  0  0  0  0  0  0  0  0  0  0
   12.7044  -21.1060   21.4901 C   0  0  0  0  0  0  0  0  0  0  0  0
   13.4068  -22.4109   21.5240 C   0  0  0  0  0  0  0  0  0  0  0  0
   13.1959  -23.2299   22.4501 O   0  0  0  0  0  0  0  0  0  0  0  0
   12.7433  -18.4144   20.5142 C   0  0  0  0  0  0  0  0  0  0  0  0
   13.4117  -17.6520   19.7712 O   0  0  0  0  0  0  0  0  0  0  0  0
   14.3112  -22.7569   20.5360 O   0  0  0  0  0  0  0  0  0  0  0  0
   13.3659  -13.1085   17.5666 O   0  0  0  0  0  0  0  0  0  0  0  0
   13.1174  -13.8133   18.7479 C   0  0  0  0  0  0  0  0  0  0  0  0
   14.1590  -14.2254   19.5494 C   0  0  0  0  0  0  0  0  0  0  0  0
   13.8914  -14.9267   20.7230 C   0  0  0  0  0  0  0  0  0  0  0  0
   12.6223  -15.2368   21.1347 C   0  0  0  0  0  0  0  0  0  0  0  0
   12.3692  -15.9822   22.3922 C   0  0  0  0  0  0  0  0  0  0  0  0
   13.4009  -17.0795   22.5419 C   0  0  2  0  0  0  0  0  0  0  0  0
   12.9662  -18.3099   21.9152 N   0  0  0  0  0  0  0  0  0  0  0  0
   13.7018  -17.3506   23.9596 C   0  0  0  0  0  0  0  0  0  0  0  0
   14.3476  -16.3801   24.7067 O   0  0  0  0  0  0  0  0  0  0  0  0
   11.5766  -14.8152   20.3161 C   0  0  0  0  0  0  0  0  0  0  0  0
   11.8358  -14.1210   19.1538 C   0  0  0  0  0  0  0  0  0  0  0  0
   13.4129  -18.4176   24.5602 O   0  0  0  0  0  0  0  0  0  0  0  0
  2  1  1  0
  3  2  2  0
  4  3  1  0
  5  4  2  0
  5 11  1  0
  6  5  1  0
  7  6  1  0
  7  8  1  1
  9  7  1  0
  9 10  2  0
 11 12  2  0
 12  2  1  0
 13  9  1  0
 14 13  1  0
 14 15  1  6
 15 16  1  0
 16 17  1  0
 17 21  1  0
 18 17  2  0
 19 14  1  0
 20 19  2  0
 23 22  1  0
 23 24  2  0
 25 24  1  0
 26 25  2  0
 27 26  1  0
 28 27  1  1
 28 29  1  0
 29 19  1  0
 30 31  1  0
 30 28  1  0
 32 33  2  0
 32 26  1  0
 33 23  1  0
 34 30  2  0
M  END
$$$$
