YEY.pdb
     RDKit          3D

 34 35  0  0  1  0  0  0  0  0999 V2000
    9.3859  -13.2708   17.1968 O   0  0  0  0  0  0  0  0  0  0  0  0
    8.5275  -13.7042   18.1866 C   0  0  0  0  0  0  0  0  0  0  0  0
    8.0682  -15.0092   18.1656 C   0  0  0  0  0  0  0  0  0  0  0  0
    7.2053  -15.4623   19.1520 C   0  0  0  0  0  0  0  0  0  0  0  0
    6.7783  -14.6392   20.1777 C   0  0  0  0  0  0  0  0  0  0  0  0
    5.8536  -15.1314   21.2316 C   0  0  0  0  0  0  0  0  0  0  0  0
    6.5477  -15.0038   22.5461 C   0  0  2  0  0  0  0  0  0  0  0  0
    7.1595  -13.7187   22.6555 N   0  0  0  0  0  0  0  0  0  0  0  0
    7.5588  -16.0804   22.7759 C   0  0  0  0  0  0  0  0  0  0  0  0
    7.1881  -17.2807   22.8428 O   0  0  0  0  0  0  0  0  0  0  0  0
    7.2455  -13.3357   20.1867 C   0  0  0  0  0  0  0  0  0  0  0  0
    8.1045  -12.8811   19.2066 C   0  0  0  0  0  0  0  0  0  0  0  0
    8.9351  -15.8098   22.9243 N   0  0  0  0  0  0  0  0  0  0  0  0
    9.9107  -16.7742   23.3532 C   0  0  1  0  0  0  0  0  0  0  0  0
   11.1793  -16.6808   22.5326 C   0  0  0  0  0  0  0  0  0  0  0  0
   12.1576  -17.7736   22.8852 C   0  0  0  0  0  0  0  0  0  0  0  0
   13.3552  -17.6398   22.0220 C   0  0  0  0  0  0  0  0  0  0  0  0
   14.4387  -17.2141   22.4885 O   0  0  0  0  0  0  0  0  0  0  0  0
   10.3249  -16.5263   24.7803 C   0  0  0  0  0  0  0  0  0  0  0  0
   10.7923  -15.4146   25.1347 O   0  0  0  0  0  0  0  0  0  0  0  0
   13.3071  -17.9810   20.6822 O   0  0  0  0  0  0  0  0  0  0  0  0
    7.0345  -11.5725   26.7507 O   0  0  0  0  0  0  0  0  0  0  0  0
    7.3868  -12.9143   26.9216 C   0  0  0  0  0  0  0  0  0  0  0  0
    8.6132  -13.2545   27.4485 C   0  0  0  0  0  0  0  0  0  0  0  0
    8.9462  -14.5974   27.6111 C   0  0  0  0  0  0  0  0  0  0  0  0
    8.1043  -15.6222   27.2693 C   0  0  0  0  0  0  0  0  0  0  0  0
    8.4865  -17.0433   27.4581 C   0  0  0  0  0  0  0  0  0  0  0  0
    9.9640  -17.2079   27.1743 C   0  0  2  0  0  0  0  0  0  0  0  0
   10.2080  -17.5278   25.7837 N   0  0  0  0  0  0  0  0  0  0  0  0
   10.5633  -18.2608   28.0148 C   0  0  0  0  0  0  0  0  0  0  0  0
   10.6605  -18.0558   29.3807 O   0  0  0  0  0  0  0  0  0  0  0  0
    6.8666  -15.2665   26.7372 C   0  0  0  0  0  0  0  0  0  0  0  0
    6.5321  -13.9393   26.5741 C   0  0  0  0  0  0  0  0  0  0  0  0
   11.0040  -19.3566   27.5816 O   0  0  0  0  0  0  0  0  0  0  0  0
  2  1  1  0
  3  2  2  0
  4  3  1  0
  5  4  2  0
  5 11  1  0
  6  5  1  0
  7  6  1  0
  7  8  1  6
  9  7  1  0
  9 10  2  0
 11 12  2  0
 12  2  1  0
 13  9  1  0
 14 13  1  0
 14 15  1  6
 15 16  1  0
 16 17  1  0
 17 21  1  0
 18 17  2  0
 19 14  1  0
 20 19  2  0
 23 22  1  0
 23 24  2  0
 25 24  1  0
 26 25  2  0
 27 26  1  0
 28 27  1  6
 28 29  1  0
 29 19  1  0
 30 31  1  0
 30 28  1  0
 32 33  2  0
 32 26  1  0
 33 23  1  0
 34 30  2  0
M  END
$$$$
