YEY.pdb
     RDKit          3D

 34 35  0  0  1  0  0  0  0  0999 V2000
    6.8713  -12.2386   17.7013 O   0  0  0  0  0  0  0  0  0  0  0  0
    7.2957  -12.9444   18.8086 C   0  0  0  0  0  0  0  0  0  0  0  0
    6.4820  -13.9287   19.3411 C   0  0  0  0  0  0  0  0  0  0  0  0
    6.8919  -14.6482   20.4534 C   0  0  0  0  0  0  0  0  0  0  0  0
    8.1106  -14.4123   21.0624 C   0  0  0  0  0  0  0  0  0  0  0  0
    8.5437  -15.1872   22.2540 C   0  0  0  0  0  0  0  0  0  0  0  0
    9.4634  -16.2661   21.7894 C   0  0  2  0  0  0  0  0  0  0  0  0
    8.7753  -17.1509   20.9053 N   0  0  0  0  0  0  0  0  0  0  0  0
   10.0757  -17.0329   22.9170 C   0  0  0  0  0  0  0  0  0  0  0  0
    9.5813  -18.1372   23.2616 O   0  0  0  0  0  0  0  0  0  0  0  0
    8.9151  -13.4245   20.5194 C   0  0  0  0  0  0  0  0  0  0  0  0
    8.5104  -12.7063   19.4123 C   0  0  0  0  0  0  0  0  0  0  0  0
   11.2027  -16.5688   23.6267 N   0  0  0  0  0  0  0  0  0  0  0  0
   11.8255  -17.2745   24.7129 C   0  0  1  0  0  0  0  0  0  0  0  0
   13.2875  -17.5468   24.4302 C   0  0  0  0  0  0  0  0  0  0  0  0
   13.9227  -16.4322   23.6366 C   0  0  0  0  0  0  0  0  0  0  0  0
   15.3541  -16.7531   23.4231 C   0  0  0  0  0  0  0  0  0  0  0  0
   15.6946  -17.7916   22.8080 O   0  0  0  0  0  0  0  0  0  0  0  0
   11.7968  -16.4552   25.9770 C   0  0  0  0  0  0  0  0  0  0  0  0
   12.8337  -16.2981   26.6700 O   0  0  0  0  0  0  0  0  0  0  0  0
   16.3483  -15.9157   23.8965 O   0  0  0  0  0  0  0  0  0  0  0  0
    6.8150  -11.1588   25.4176 O   0  0  0  0  0  0  0  0  0  0  0  0
    7.2134  -12.3956   25.9330 C   0  0  0  0  0  0  0  0  0  0  0  0
    8.0506  -12.4620   27.0248 C   0  0  0  0  0  0  0  0  0  0  0  0
    8.4367  -13.7039   27.5241 C   0  0  0  0  0  0  0  0  0  0  0  0
    8.0216  -14.8899   26.9788 C   0  0  0  0  0  0  0  0  0  0  0  0
    8.4474  -16.1973   27.5359 C   0  0  0  0  0  0  0  0  0  0  0  0
    9.9546  -16.2180   27.6728 C   0  0  2  0  0  0  0  0  0  0  0  0
   10.6078  -15.8275   26.4413 N   0  0  0  0  0  0  0  0  0  0  0  0
   10.4448  -17.5516   28.0669 C   0  0  0  0  0  0  0  0  0  0  0  0
   10.9149  -17.7407   29.3554 O   0  0  0  0  0  0  0  0  0  0  0  0
    7.1752  -14.8106   25.8749 C   0  0  0  0  0  0  0  0  0  0  0  0
    6.7902  -13.5844   25.3768 C   0  0  0  0  0  0  0  0  0  0  0  0
   10.4713  -18.5557   27.3095 O   0  0  0  0  0  0  0  0  0  0  0  0
  2  1  1  0
  3  2  2  0
  4  3  1  0
  5  4  2  0
  5 11  1  0
  6  5  1  0
  7  6  1  0
  7  8  1  6
  9  7  1  0
  9 10  2  0
 11 12  2  0
 12  2  1  0
 13  9  1  0
 14 13  1  0
 14 15  1  6
 15 16  1  0
 16 17  1  0
 17 21  1  0
 18 17  2  0
 19 14  1  0
 20 19  2  0
 23 22  1  0
 23 24  2  0
 25 24  1  0
 26 25  2  0
 27 26  1  0
 28 27  1  6
 28 29  1  0
 29 19  1  0
 30 31  1  0
 30 28  1  0
 32 33  2  0
 32 26  1  0
 33 23  1  0
 34 30  2  0
M  END
$$$$
