YEY.pdb
     RDKit          3D

 34 35  0  0  1  0  0  0  0  0999 V2000
    6.8742  -12.2455   16.6065 O   0  0  0  0  0  0  0  0  0  0  0  0
    7.3030  -12.9300   17.7254 C   0  0  0  0  0  0  0  0  0  0  0  0
    6.3706  -13.5086   18.5681 C   0  0  0  0  0  0  0  0  0  0  0  0
    6.7829  -14.2003   19.6970 C   0  0  0  0  0  0  0  0  0  0  0  0
    8.1212  -14.3354   20.0175 C   0  0  0  0  0  0  0  0  0  0  0  0
    8.5561  -15.0781   21.2288 C   0  0  0  0  0  0  0  0  0  0  0  0
    9.1939  -16.3505   20.7815 C   0  0  2  0  0  0  0  0  0  0  0  0
    8.2298  -17.1828   20.1367 N   0  0  0  0  0  0  0  0  0  0  0  0
    9.8551  -17.0926   21.8980 C   0  0  0  0  0  0  0  0  0  0  0  0
    9.1585  -17.7778   22.6905 O   0  0  0  0  0  0  0  0  0  0  0  0
    9.0438  -13.7514   19.1658 C   0  0  0  0  0  0  0  0  0  0  0  0
    8.6371  -13.0622   18.0412 C   0  0  0  0  0  0  0  0  0  0  0  0
   11.2492  -17.0607   22.1097 N   0  0  0  0  0  0  0  0  0  0  0  0
   11.9091  -17.6181   23.2585 C   0  0  1  0  0  0  0  0  0  0  0  0
   13.3947  -17.7817   23.0183 C   0  0  0  0  0  0  0  0  0  0  0  0
   13.6881  -18.9174   22.0699 C   0  0  0  0  0  0  0  0  0  0  0  0
   14.9322  -18.6091   21.3253 C   0  0  0  0  0  0  0  0  0  0  0  0
   15.2481  -19.2640   20.3035 O   0  0  0  0  0  0  0  0  0  0  0  0
   11.7833  -16.7049   24.4502 C   0  0  0  0  0  0  0  0  0  0  0  0
   12.3573  -15.5868   24.4722 O   0  0  0  0  0  0  0  0  0  0  0  0
   15.7744  -17.5925   21.7389 O   0  0  0  0  0  0  0  0  0  0  0  0
    6.1848  -11.5897   28.3418 O   0  0  0  0  0  0  0  0  0  0  0  0
    6.9480  -12.5082   27.6153 C   0  0  0  0  0  0  0  0  0  0  0  0
    6.3397  -13.5342   26.9264 C   0  0  0  0  0  0  0  0  0  0  0  0
    7.1173  -14.4397   26.2080 C   0  0  0  0  0  0  0  0  0  0  0  0
    8.4836  -14.3661   26.1461 C   0  0  0  0  0  0  0  0  0  0  0  0
    9.2842  -15.3439   25.3689 C   0  0  0  0  0  0  0  0  0  0  0  0
   10.1966  -16.1043   26.3070 C   0  0  2  0  0  0  0  0  0  0  0  0
   11.0173  -17.0608   25.5947 N   0  0  0  0  0  0  0  0  0  0  0  0
    9.4322  -16.8176   27.3467 C   0  0  0  0  0  0  0  0  0  0  0  0
    9.0566  -18.1312   27.1219 O   0  0  0  0  0  0  0  0  0  0  0  0
    9.0882  -13.3244   26.8466 C   0  0  0  0  0  0  0  0  0  0  0  0
    8.3235  -12.4257   27.5591 C   0  0  0  0  0  0  0  0  0  0  0  0
    9.0851  -16.3180   28.4479 O   0  0  0  0  0  0  0  0  0  0  0  0
  2  1  1  0
  3  2  2  0
  4  3  1  0
  5  4  2  0
  5 11  1  0
  6  5  1  0
  7  6  1  0
  7  8  1  1
  9  7  1  0
  9 10  2  0
 11 12  2  0
 12  2  1  0
 13  9  1  0
 14 13  1  0
 14 15  1  6
 15 16  1  0
 16 17  1  0
 17 21  1  0
 18 17  2  0
 19 14  1  0
 20 19  2  0
 23 22  1  0
 23 24  2  0
 25 24  1  0
 26 25  2  0
 27 26  1  0
 28 27  1  6
 28 29  1  0
 29 19  1  0
 30 31  1  0
 30 28  1  0
 32 33  2  0
 32 26  1  0
 33 23  1  0
 34 30  2  0
M  END
$$$$
