YEY.pdb
     RDKit          3D

 34 35  0  0  1  0  0  0  0  0999 V2000
    5.5719  -12.0129   18.5204 O   0  0  0  0  0  0  0  0  0  0  0  0
    6.7876  -12.5858   18.8338 C   0  0  0  0  0  0  0  0  0  0  0  0
    7.9563  -11.9065   18.5385 C   0  0  0  0  0  0  0  0  0  0  0  0
    9.1869  -12.4664   18.8463 C   0  0  0  0  0  0  0  0  0  0  0  0
    9.2903  -13.7058   19.4507 C   0  0  0  0  0  0  0  0  0  0  0  0
   10.6124  -14.2999   19.7779 C   0  0  0  0  0  0  0  0  0  0  0  0
   11.1859  -14.8618   18.5204 C   0  0  2  0  0  0  0  0  0  0  0  0
   10.3274  -15.8766   17.9998 N   0  0  0  0  0  0  0  0  0  0  0  0
   12.5699  -15.3967   18.7016 C   0  0  0  0  0  0  0  0  0  0  0  0
   12.7381  -16.5272   19.2273 O   0  0  0  0  0  0  0  0  0  0  0  0
    8.1130  -14.3747   19.7407 C   0  0  0  0  0  0  0  0  0  0  0  0
    6.8862  -13.8206   19.4359 C   0  0  0  0  0  0  0  0  0  0  0  0
   13.7183  -14.6809   18.3037 N   0  0  0  0  0  0  0  0  0  0  0  0
   15.0680  -15.1163   18.5374 C   0  0  1  0  0  0  0  0  0  0  0  0
   16.0524  -14.3541   17.6763 C   0  0  0  0  0  0  0  0  0  0  0  0
   17.4517  -14.9029   17.8037 C   0  0  0  0  0  0  0  0  0  0  0  0
   18.2536  -14.4408   16.6458 C   0  0  0  0  0  0  0  0  0  0  0  0
   18.0922  -13.2914   16.1706 O   0  0  0  0  0  0  0  0  0  0  0  0
   15.4809  -14.8560   19.9627 C   0  0  0  0  0  0  0  0  0  0  0  0
   15.4113  -13.7021   20.4562 O   0  0  0  0  0  0  0  0  0  0  0  0
   19.1987  -15.2651   16.0617 O   0  0  0  0  0  0  0  0  0  0  0  0
    9.9264  -16.5391   22.7709 O   0  0  0  0  0  0  0  0  0  0  0  0
   11.3210  -16.6068   22.8386 C   0  0  0  0  0  0  0  0  0  0  0  0
   12.0513  -15.5404   23.3147 C   0  0  0  0  0  0  0  0  0  0  0  0
   13.4405  -15.6268   23.3746 C   0  0  0  0  0  0  0  0  0  0  0  0
   14.1373  -16.7374   22.9781 C   0  0  0  0  0  0  0  0  0  0  0  0
   15.6175  -16.8005   23.0575 C   0  0  0  0  0  0  0  0  0  0  0  0
   16.2131  -15.6893   22.2200 C   0  0  2  0  0  0  0  0  0  0  0  0
   15.9641  -15.8926   20.8085 N   0  0  0  0  0  0  0  0  0  0  0  0
   17.6675  -15.5709   22.4321 C   0  0  0  0  0  0  0  0  0  0  0  0
   18.1413  -15.3102   23.7067 O   0  0  0  0  0  0  0  0  0  0  0  0
   13.3884  -17.8098   22.4981 C   0  0  0  0  0  0  0  0  0  0  0  0
   12.0137  -17.7295   22.4367 C   0  0  0  0  0  0  0  0  0  0  0  0
   18.5337  -15.6903   21.5277 O   0  0  0  0  0  0  0  0  0  0  0  0
  2  1  1  0
  3  2  2  0
  4  3  1  0
  5  4  2  0
  5 11  1  0
  6  5  1  0
  7  6  1  0
  7  8  1  1
  9  7  1  0
  9 10  2  0
 11 12  2  0
 12  2  1  0
 13  9  1  0
 14 13  1  0
 14 15  1  6
 15 16  1  0
 16 17  1  0
 17 21  1  0
 18 17  2  0
 19 14  1  0
 20 19  2  0
 23 22  1  0
 23 24  2  0
 25 24  1  0
 26 25  2  0
 27 26  1  0
 28 27  1  1
 28 29  1  0
 29 19  1  0
 30 31  1  0
 30 28  1  0
 32 33  2  0
 32 26  1  0
 33 23  1  0
 34 30  2  0
M  END
$$$$
