YEY.pdb
     RDKit          3D

 34 35  0  0  1  0  0  0  0  0999 V2000
    7.2955  -12.2465   16.5993 O   0  0  0  0  0  0  0  0  0  0  0  0
    7.6202  -12.9264   17.7554 C   0  0  0  0  0  0  0  0  0  0  0  0
    6.6248  -13.5711   18.4681 C   0  0  0  0  0  0  0  0  0  0  0  0
    6.9324  -14.2594   19.6320 C   0  0  0  0  0  0  0  0  0  0  0  0
    8.2259  -14.3259   20.1162 C   0  0  0  0  0  0  0  0  0  0  0  0
    8.5486  -15.0653   21.3640 C   0  0  0  0  0  0  0  0  0  0  0  0
    9.0083  -16.4320   20.9808 C   0  0  2  0  0  0  0  0  0  0  0  0
    7.9167  -17.1882   20.4568 N   0  0  0  0  0  0  0  0  0  0  0  0
    9.6520  -17.1667   22.1122 C   0  0  0  0  0  0  0  0  0  0  0  0
    8.9351  -17.7526   22.9639 O   0  0  0  0  0  0  0  0  0  0  0  0
    9.2124  -13.6763   19.3933 C   0  0  0  0  0  0  0  0  0  0  0  0
    8.9100  -12.9902   18.2344 C   0  0  0  0  0  0  0  0  0  0  0  0
   11.0514  -17.2359   22.2737 N   0  0  0  0  0  0  0  0  0  0  0  0
   11.7095  -17.7666   23.4361 C   0  0  1  0  0  0  0  0  0  0  0  0
   13.1520  -18.1196   23.1428 C   0  0  0  0  0  0  0  0  0  0  0  0
   13.8666  -18.6264   24.3708 C   0  0  0  0  0  0  0  0  0  0  0  0
   15.2744  -18.9249   24.0156 C   0  0  0  0  0  0  0  0  0  0  0  0
   16.1429  -18.0201   24.0177 O   0  0  0  0  0  0  0  0  0  0  0  0
   11.7528  -16.7477   24.5452 C   0  0  0  0  0  0  0  0  0  0  0  0
   12.3465  -15.6503   24.3930 O   0  0  0  0  0  0  0  0  0  0  0  0
   15.6643  -20.2074   23.6735 O   0  0  0  0  0  0  0  0  0  0  0  0
    6.1532  -11.5263   28.3251 O   0  0  0  0  0  0  0  0  0  0  0  0
    6.9186  -12.4778   27.6449 C   0  0  0  0  0  0  0  0  0  0  0  0
    6.3093  -13.4930   26.9410 C   0  0  0  0  0  0  0  0  0  0  0  0
    7.0891  -14.4319   26.2693 C   0  0  0  0  0  0  0  0  0  0  0  0
    8.4585  -14.4023   26.2689 C   0  0  0  0  0  0  0  0  0  0  0  0
    9.2615  -15.4150   25.5405 C   0  0  0  0  0  0  0  0  0  0  0  0
   10.3229  -15.9733   26.4639 C   0  0  2  0  0  0  0  0  0  0  0  0
   11.1306  -16.9769   25.8037 N   0  0  0  0  0  0  0  0  0  0  0  0
    9.7290  -16.5657   27.6765 C   0  0  0  0  0  0  0  0  0  0  0  0
    9.5239  -17.9342   27.7241 O   0  0  0  0  0  0  0  0  0  0  0  0
    9.0640  -13.3712   26.9842 C   0  0  0  0  0  0  0  0  0  0  0  0
    8.2971  -12.4396   27.6506 C   0  0  0  0  0  0  0  0  0  0  0  0
    9.3853  -15.9135   28.6959 O   0  0  0  0  0  0  0  0  0  0  0  0
  2  1  1  0
  3  2  2  0
  4  3  1  0
  5  4  2  0
  5 11  1  0
  6  5  1  0
  7  6  1  0
  7  8  1  1
  9  7  1  0
  9 10  2  0
 11 12  2  0
 12  2  1  0
 13  9  1  0
 14 13  1  0
 14 15  1  6
 15 16  1  0
 16 17  1  0
 17 21  1  0
 18 17  2  0
 19 14  1  0
 20 19  2  0
 23 22  1  0
 23 24  2  0
 25 24  1  0
 26 25  2  0
 27 26  1  0
 28 27  1  6
 28 29  1  0
 29 19  1  0
 30 31  1  0
 30 28  1  0
 32 33  2  0
 32 26  1  0
 33 23  1  0
 34 30  2  0
M  END
$$$$
