YEY.pdb
     RDKit          3D

 34 35  0  0  1  0  0  0  0  0999 V2000
   11.3161  -23.4316   12.7207 O   0  0  0  0  0  0  0  0  0  0  0  0
   12.3150  -23.0122   13.5755 C   0  0  0  0  0  0  0  0  0  0  0  0
   12.2172  -21.7712   14.1795 C   0  0  0  0  0  0  0  0  0  0  0  0
   13.2112  -21.3332   15.0414 C   0  0  0  0  0  0  0  0  0  0  0  0
   14.3204  -22.1086   15.3249 C   0  0  0  0  0  0  0  0  0  0  0  0
   15.3818  -21.6330   16.2497 C   0  0  0  0  0  0  0  0  0  0  0  0
   16.4164  -20.9299   15.4366 C   0  0  2  0  0  0  0  0  0  0  0  0
   17.0992  -21.8622   14.5983 N   0  0  0  0  0  0  0  0  0  0  0  0
   17.3958  -20.1712   16.2730 C   0  0  0  0  0  0  0  0  0  0  0  0
   18.4239  -20.7502   16.7093 O   0  0  0  0  0  0  0  0  0  0  0  0
   14.4058  -23.3483   14.7137 C   0  0  0  0  0  0  0  0  0  0  0  0
   13.4183  -23.7877   13.8552 C   0  0  0  0  0  0  0  0  0  0  0  0
   17.2189  -18.8114   16.6028 N   0  0  0  0  0  0  0  0  0  0  0  0
   18.1117  -18.0556   17.4382 C   0  0  1  0  0  0  0  0  0  0  0  0
   18.2359  -16.6239   16.9626 C   0  0  0  0  0  0  0  0  0  0  0  0
   19.2765  -16.4804   15.8800 C   0  0  0  0  0  0  0  0  0  0  0  0
   19.3356  -15.0604   15.4590 C   0  0  0  0  0  0  0  0  0  0  0  0
   19.8546  -14.1919   16.2001 O   0  0  0  0  0  0  0  0  0  0  0  0
   17.5933  -17.9763   18.8506 C   0  0  0  0  0  0  0  0  0  0  0  0
   16.3867  -17.7117   19.0833 O   0  0  0  0  0  0  0  0  0  0  0  0
   18.8203  -14.6588   14.2396 O   0  0  0  0  0  0  0  0  0  0  0  0
   15.0730  -20.3076   26.6815 O   0  0  0  0  0  0  0  0  0  0  0  0
   15.5328  -20.1306   25.3734 C   0  0  0  0  0  0  0  0  0  0  0  0
   14.8663  -19.2954   24.5041 C   0  0  0  0  0  0  0  0  0  0  0  0
   15.3399  -19.1318   23.2042 C   0  0  0  0  0  0  0  0  0  0  0  0
   16.4561  -19.7687   22.7305 C   0  0  0  0  0  0  0  0  0  0  0  0
   16.9379  -19.5711   21.3412 C   0  0  0  0  0  0  0  0  0  0  0  0
   17.9107  -18.4121   21.3073 C   0  0  2  0  0  0  0  0  0  0  0  0
   18.4357  -18.1947   19.9758 N   0  0  0  0  0  0  0  0  0  0  0  0
   19.0390  -18.6243   22.2325 C   0  0  0  0  0  0  0  0  0  0  0  0
   18.8462  -18.4114   23.5869 O   0  0  0  0  0  0  0  0  0  0  0  0
   17.1221  -20.6112   23.6183 C   0  0  0  0  0  0  0  0  0  0  0  0
   16.6578  -20.7766   24.9055 C   0  0  0  0  0  0  0  0  0  0  0  0
   20.1903  -18.9920   21.8831 O   0  0  0  0  0  0  0  0  0  0  0  0
  2  1  1  0
  3  2  2  0
  4  3  1  0
  5  4  2  0
  5 11  1  0
  6  5  1  0
  7  6  1  0
  7  8  1  1
  9  7  1  0
  9 10  2  0
 11 12  2  0
 12  2  1  0
 13  9  1  0
 14 13  1  0
 14 15  1  6
 15 16  1  0
 16 17  1  0
 17 21  1  0
 18 17  2  0
 19 14  1  0
 20 19  2  0
 23 22  1  0
 23 24  2  0
 25 24  1  0
 26 25  2  0
 27 26  1  0
 28 27  1  6
 28 29  1  0
 29 19  1  0
 30 31  1  0
 30 28  1  0
 32 33  2  0
 32 26  1  0
 33 23  1  0
 34 30  2  0
M  END
$$$$
