EEW.pdb
     RDKit          3D

 33 34  0  0  1  0  0  0  0  0999 V2000
    9.7691  -19.2765   17.7239 N   0  0  0  0  0  0  0  0  0  0  0  0
    9.9895  -17.8745   18.1500 C   0  0  1  0  0  0  0  0  0  0  0  0
    9.2176  -17.0451   17.1585 C   0  0  0  0  0  0  0  0  0  0  0  0
   10.1458  -16.2477   16.2959 C   0  0  0  0  0  0  0  0  0  0  0  0
    9.3884  -15.4304   15.2991 C   0  0  0  0  0  0  0  0  0  0  0  0
    8.2099  -15.7332   14.9845 O   0  0  0  0  0  0  0  0  0  0  0  0
    9.4350  -17.7237   19.5301 C   0  0  0  0  0  0  0  0  0  0  0  0
    8.3482  -17.1656   19.7254 O   0  0  0  0  0  0  0  0  0  0  0  0
    9.9607  -14.3305   14.7032 O   0  0  0  0  0  0  0  0  0  0  0  0
   10.1240  -18.2106   20.6760 N   0  0  0  0  0  0  0  0  0  0  0  0
    9.5284  -18.1965   22.0003 C   0  0  1  0  0  0  0  0  0  0  0  0
    9.0120  -19.5641   22.2610 C   0  0  0  0  0  0  0  0  0  0  0  0
    9.9250  -20.5561   22.8694 C   0  0  0  0  0  0  0  0  0  0  0  0
    9.4696  -21.8739   23.2082 C   0  0  0  0  0  0  0  0  0  0  0  0
    9.5386  -22.3753   24.3352 O   0  0  0  0  0  0  0  0  0  0  0  0
   10.2909  -17.5233   23.0329 C   0  0  0  0  0  0  0  0  0  0  0  0
   11.5493  -17.5456   23.0172 O   0  0  0  0  0  0  0  0  0  0  0  0
    8.9050  -22.6708   22.2207 O   0  0  0  0  0  0  0  0  0  0  0  0
    9.7199  -16.7997   24.1150 N   0  0  0  0  0  0  0  0  0  0  0  0
   10.4933  -16.2411   25.1979 C   0  0  1  0  0  0  0  0  0  0  0  0
   10.0399  -14.8149   25.3714 C   0  0  0  0  0  0  0  0  0  0  0  0
    8.5954  -14.6475   25.5192 C   0  0  0  0  0  0  0  0  0  0  0  0
    7.6186  -15.6225   25.5317 C   0  0  0  0  0  0  0  0  0  0  0  0
    6.4135  -15.0434   25.6902 N   0  0  0  0  0  0  0  0  0  0  0  0
    6.6070  -13.7014   25.7799 C   0  0  0  0  0  0  0  0  0  0  0  0
    5.7023  -12.6735   25.9465 C   0  0  0  0  0  0  0  0  0  0  0  0
    6.1027  -11.3509   26.0155 C   0  0  0  0  0  0  0  0  0  0  0  0
    7.4518  -11.0770   25.9120 C   0  0  0  0  0  0  0  0  0  0  0  0
    8.3504  -12.1165   25.7449 C   0  0  0  0  0  0  0  0  0  0  0  0
    7.9556  -13.4367   25.6757 C   0  0  0  0  0  0  0  0  0  0  0  0
   10.3297  -17.0625   26.3936 C   0  0  0  0  0  0  0  0  0  0  0  0
    9.5184  -18.0191   26.4912 O   0  0  0  0  0  0  0  0  0  0  0  0
   11.1076  -16.8028   27.5298 O   0  0  0  0  0  0  0  0  0  0  0  0
  2  1  1  6
  2  3  1  0
  3  4  1  0
  4  5  1  0
  5  9  1  0
  6  5  2  0
  7  2  1  0
  7  8  2  0
 10  7  1  0
 11 10  1  0
 11 12  1  1
 13 12  1  0
 13 14  1  0
 14 15  2  0
 16 11  1  0
 17 16  2  0
 18 14  1  0
 19 16  1  0
 20 21  1  1
 20 19  1  0
 22 21  1  0
 23 22  2  0
 24 25  1  0
 24 23  1  0
 25 30  2  0
 26 27  2  0
 26 25  1  0
 27 28  1  0
 28 29  2  0
 30 29  1  0
 30 22  1  0
 31 20  1  0
 32 31  2  0
 33 31  1  0
M  END
$$$$
