EEW.pdb
     RDKit          3D

 33 34  0  0  1  0  0  0  0  0999 V2000
   12.8722  -19.2524   21.7352 N   0  0  0  0  0  0  0  0  0  0  0  0
   13.4735  -17.9143   21.9443 C   0  0  1  0  0  0  0  0  0  0  0  0
   14.1408  -17.5836   20.6357 C   0  0  0  0  0  0  0  0  0  0  0  0
   14.9884  -18.7256   20.1679 C   0  0  0  0  0  0  0  0  0  0  0  0
   15.2850  -18.6148   18.7067 C   0  0  0  0  0  0  0  0  0  0  0  0
   16.3508  -18.0818   18.3073 O   0  0  0  0  0  0  0  0  0  0  0  0
   12.3652  -16.9569   22.2441 C   0  0  0  0  0  0  0  0  0  0  0  0
   12.5732  -15.7393   22.3146 O   0  0  0  0  0  0  0  0  0  0  0  0
   14.4017  -19.0918   17.7661 O   0  0  0  0  0  0  0  0  0  0  0  0
   11.0290  -17.3956   22.4607 N   0  0  0  0  0  0  0  0  0  0  0  0
    9.9564  -16.4738   22.7903 C   0  0  1  0  0  0  0  0  0  0  0  0
    8.7154  -17.0113   22.1773 C   0  0  0  0  0  0  0  0  0  0  0  0
    7.4684  -16.2271   22.3115 C   0  0  0  0  0  0  0  0  0  0  0  0
    6.2652  -16.6258   21.6392 C   0  0  0  0  0  0  0  0  0  0  0  0
    5.2111  -15.9815   21.6397 O   0  0  0  0  0  0  0  0  0  0  0  0
    9.9188  -16.0070   24.1620 C   0  0  0  0  0  0  0  0  0  0  0  0
    9.8458  -14.7768   24.4182 O   0  0  0  0  0  0  0  0  0  0  0  0
    6.2499  -17.8178   20.9266 O   0  0  0  0  0  0  0  0  0  0  0  0
    9.9543  -16.8535   25.3034 N   0  0  0  0  0  0  0  0  0  0  0  0
   10.1535  -16.3712   26.6489 C   0  0  1  0  0  0  0  0  0  0  0  0
    8.7993  -16.3368   27.3081 C   0  0  0  0  0  0  0  0  0  0  0  0
    7.8368  -15.4348   26.6786 C   0  0  0  0  0  0  0  0  0  0  0  0
    6.7458  -15.7587   25.8979 C   0  0  0  0  0  0  0  0  0  0  0  0
    6.1205  -14.6290   25.5160 N   0  0  0  0  0  0  0  0  0  0  0  0
    6.8014  -13.5791   26.0454 C   0  0  0  0  0  0  0  0  0  0  0  0
    6.5720  -12.2220   25.9523 C   0  0  0  0  0  0  0  0  0  0  0  0
    7.3926  -11.2973   26.5735 C   0  0  0  0  0  0  0  0  0  0  0  0
    8.4656  -11.7705   27.3018 C   0  0  0  0  0  0  0  0  0  0  0  0
    8.6861  -13.1343   27.3882 C   0  0  0  0  0  0  0  0  0  0  0  0
    7.8704  -14.0599   26.7705 C   0  0  0  0  0  0  0  0  0  0  0  0
   11.1237  -17.2182   27.3362 C   0  0  0  0  0  0  0  0  0  0  0  0
   11.5313  -17.0210   28.5100 O   0  0  0  0  0  0  0  0  0  0  0  0
   11.6614  -18.3348   26.6822 O   0  0  0  0  0  0  0  0  0  0  0  0
  2  1  1  6
  2  3  1  0
  3  4  1  0
  4  5  1  0
  5  9  1  0
  6  5  2  0
  7  2  1  0
  7  8  2  0
 10  7  1  0
 11 10  1  0
 11 12  1  1
 13 12  1  0
 13 14  1  0
 14 15  2  0
 16 11  1  0
 17 16  2  0
 18 14  1  0
 19 16  1  0
 20 21  1  1
 20 19  1  0
 22 21  1  0
 23 22  2  0
 24 25  1  0
 24 23  1  0
 25 30  2  0
 26 27  2  0
 26 25  1  0
 27 28  1  0
 28 29  2  0
 30 29  1  0
 30 22  1  0
 31 20  1  0
 32 31  2  0
 33 31  1  0
M  END
$$$$
