EEW.pdb
     RDKit          3D

 33 34  0  0  1  0  0  0  0  0999 V2000
    9.0355  -13.8395   18.4957 N   0  0  0  0  0  0  0  0  0  0  0  0
    9.3609  -15.2802   18.6165 C   0  0  1  0  0  0  0  0  0  0  0  0
   10.8297  -15.3709   18.2980 C   0  0  0  0  0  0  0  0  0  0  0  0
   11.4942  -14.0405   18.4712 C   0  0  0  0  0  0  0  0  0  0  0  0
   12.9576  -14.1254   18.1770 C   0  0  0  0  0  0  0  0  0  0  0  0
   13.7264  -13.1746   18.4676 O   0  0  0  0  0  0  0  0  0  0  0  0
    9.0860  -15.6941   20.0264 C   0  0  0  0  0  0  0  0  0  0  0  0
    9.0129  -14.8585   20.9358 O   0  0  0  0  0  0  0  0  0  0  0  0
   13.4973  -15.2426   17.5828 O   0  0  0  0  0  0  0  0  0  0  0  0
    8.8966  -17.0574   20.3878 N   0  0  0  0  0  0  0  0  0  0  0  0
    8.5541  -17.4582   21.7409 C   0  0  1  0  0  0  0  0  0  0  0  0
    8.1375  -18.8823   21.6818 C   0  0  0  0  0  0  0  0  0  0  0  0
    6.6946  -19.1966   21.7669 C   0  0  0  0  0  0  0  0  0  0  0  0
    6.2322  -20.3898   22.4158 C   0  0  0  0  0  0  0  0  0  0  0  0
    6.6817  -21.5223   22.2118 O   0  0  0  0  0  0  0  0  0  0  0  0
    9.4719  -17.0359   22.7802 C   0  0  0  0  0  0  0  0  0  0  0  0
   10.7135  -17.0273   22.5735 O   0  0  0  0  0  0  0  0  0  0  0  0
    5.2053  -20.3008   23.3467 O   0  0  0  0  0  0  0  0  0  0  0  0
    9.0793  -16.6044   24.0764 N   0  0  0  0  0  0  0  0  0  0  0  0
   10.0091  -16.1477   25.0812 C   0  0  1  0  0  0  0  0  0  0  0  0
    9.6122  -14.7391   25.4392 C   0  0  0  0  0  0  0  0  0  0  0  0
    8.1959  -14.5660   25.7560 C   0  0  0  0  0  0  0  0  0  0  0  0
    7.1966  -15.5180   25.7526 C   0  0  0  0  0  0  0  0  0  0  0  0
    6.0316  -14.9419   26.1049 N   0  0  0  0  0  0  0  0  0  0  0  0
    6.2735  -13.6248   26.3352 C   0  0  0  0  0  0  0  0  0  0  0  0
    5.4217  -12.6096   26.7183 C   0  0  0  0  0  0  0  0  0  0  0  0
    5.8666  -11.3128   26.9043 C   0  0  0  0  0  0  0  0  0  0  0  0
    7.2059  -11.0518   26.6944 C   0  0  0  0  0  0  0  0  0  0  0  0
    8.0513  -12.0783   26.3101 C   0  0  0  0  0  0  0  0  0  0  0  0
    7.6119  -13.3728   26.1236 C   0  0  0  0  0  0  0  0  0  0  0  0
   10.0014  -17.0692   26.2133 C   0  0  0  0  0  0  0  0  0  0  0  0
    9.1859  -18.0174   26.3503 O   0  0  0  0  0  0  0  0  0  0  0  0
   10.9473  -16.9243   27.2370 O   0  0  0  0  0  0  0  0  0  0  0  0
  2  1  1  1
  2  3  1  0
  3  4  1  0
  4  5  1  0
  5  9  1  0
  6  5  2  0
  7  2  1  0
  7  8  2  0
 10  7  1  0
 11 10  1  0
 11 12  1  6
 13 12  1  0
 13 14  1  0
 14 15  2  0
 16 11  1  0
 17 16  2  0
 18 14  1  0
 19 16  1  0
 20 21  1  1
 20 19  1  0
 22 21  1  0
 23 22  2  0
 24 25  1  0
 24 23  1  0
 25 30  2  0
 26 27  2  0
 26 25  1  0
 27 28  1  0
 28 29  2  0
 30 29  1  0
 30 22  1  0
 31 20  1  0
 32 31  2  0
 33 31  1  0
M  END
$$$$
