EEW.pdb
     RDKit          3D

 33 34  0  0  1  0  0  0  0  0999 V2000
    8.7421  -15.8295   18.3939 N   0  0  0  0  0  0  0  0  0  0  0  0
    8.1100  -16.8426   19.2714 C   0  0  1  0  0  0  0  0  0  0  0  0
    7.7317  -17.9697   18.3475 C   0  0  0  0  0  0  0  0  0  0  0  0
    7.0499  -19.0689   19.1015 C   0  0  0  0  0  0  0  0  0  0  0  0
    6.6560  -20.1859   18.1892 C   0  0  0  0  0  0  0  0  0  0  0  0
    6.1284  -21.2312   18.6459 O   0  0  0  0  0  0  0  0  0  0  0  0
    9.1306  -17.2817   20.2715 C   0  0  0  0  0  0  0  0  0  0  0  0
    8.8873  -18.1876   21.0783 O   0  0  0  0  0  0  0  0  0  0  0  0
    6.8606  -20.0978   16.8317 O   0  0  0  0  0  0  0  0  0  0  0  0
   10.4203  -16.6845   20.3434 N   0  0  0  0  0  0  0  0  0  0  0  0
   11.3869  -17.0523   21.3628 C   0  0  1  0  0  0  0  0  0  0  0  0
   12.7306  -16.9854   20.7343 C   0  0  0  0  0  0  0  0  0  0  0  0
   13.0000  -17.8417   19.5587 C   0  0  0  0  0  0  0  0  0  0  0  0
   14.2811  -18.4591   19.3685 C   0  0  0  0  0  0  0  0  0  0  0  0
   15.2370  -18.3523   20.1439 O   0  0  0  0  0  0  0  0  0  0  0  0
   11.1905  -16.4562   22.6693 C   0  0  0  0  0  0  0  0  0  0  0  0
   11.4774  -15.2474   22.8715 O   0  0  0  0  0  0  0  0  0  0  0  0
   14.4964  -19.2405   18.2406 O   0  0  0  0  0  0  0  0  0  0  0  0
   10.6733  -17.1444   23.8004 N   0  0  0  0  0  0  0  0  0  0  0  0
    9.8031  -16.5343   24.7768 C   0  0  1  0  0  0  0  0  0  0  0  0
    8.6123  -15.9951   24.0278 C   0  0  0  0  0  0  0  0  0  0  0  0
    7.5954  -15.3670   24.8691 C   0  0  0  0  0  0  0  0  0  0  0  0
    6.5049  -15.9564   25.4761 C   0  0  0  0  0  0  0  0  0  0  0  0
    5.8192  -15.0229   26.1627 N   0  0  0  0  0  0  0  0  0  0  0  0
    6.4604  -13.8357   26.0021 C   0  0  0  0  0  0  0  0  0  0  0  0
    6.1652  -12.5823   26.4968 C   0  0  0  0  0  0  0  0  0  0  0  0
    6.9539  -11.4808   26.2157 C   0  0  0  0  0  0  0  0  0  0  0  0
    8.0629  -11.6665   25.4148 C   0  0  0  0  0  0  0  0  0  0  0  0
    8.3493  -12.9287   24.9240 C   0  0  0  0  0  0  0  0  0  0  0  0
    7.5657  -14.0298   25.2019 C   0  0  0  0  0  0  0  0  0  0  0  0
    9.4604  -17.5096   25.8075 C   0  0  0  0  0  0  0  0  0  0  0  0
    9.2351  -18.7271   25.5848 O   0  0  0  0  0  0  0  0  0  0  0  0
    9.3656  -17.1055   27.1459 O   0  0  0  0  0  0  0  0  0  0  0  0
  2  1  1  6
  2  3  1  0
  3  4  1  0
  4  5  1  0
  5  9  1  0
  6  5  2  0
  7  2  1  0
  7  8  2  0
 10  7  1  0
 11 10  1  0
 11 12  1  6
 13 12  1  0
 13 14  1  0
 14 15  2  0
 16 11  1  0
 17 16  2  0
 18 14  1  0
 19 16  1  0
 20 21  1  6
 20 19  1  0
 22 21  1  0
 23 22  2  0
 24 25  1  0
 24 23  1  0
 25 30  2  0
 26 27  2  0
 26 25  1  0
 27 28  1  0
 28 29  2  0
 30 29  1  0
 30 22  1  0
 31 20  1  0
 32 31  2  0
 33 31  1  0
M  END
$$$$
