EEW.pdb
     RDKit          3D

 33 34  0  0  1  0  0  0  0  0999 V2000
    6.7939  -15.1668   18.9966 N   0  0  0  0  0  0  0  0  0  0  0  0
    8.2083  -14.9541   19.3839 C   0  0  1  0  0  0  0  0  0  0  0  0
    8.3379  -13.4651   19.5655 C   0  0  0  0  0  0  0  0  0  0  0  0
    9.7378  -13.0960   19.9470 C   0  0  0  0  0  0  0  0  0  0  0  0
   10.6645  -13.2140   18.7797 C   0  0  0  0  0  0  0  0  0  0  0  0
   10.2276  -13.5236   17.6427 O   0  0  0  0  0  0  0  0  0  0  0  0
    8.4439  -15.6789   20.6700 C   0  0  0  0  0  0  0  0  0  0  0  0
    7.5715  -15.7278   21.5459 O   0  0  0  0  0  0  0  0  0  0  0  0
   12.0141  -12.9876   18.9207 O   0  0  0  0  0  0  0  0  0  0  0  0
    9.6722  -16.3420   20.9467 N   0  0  0  0  0  0  0  0  0  0  0  0
    9.8384  -17.2137   22.0963 C   0  0  1  0  0  0  0  0  0  0  0  0
   10.7417  -18.3165   21.6806 C   0  0  0  0  0  0  0  0  0  0  0  0
   11.0940  -19.3503   22.6780 C   0  0  0  0  0  0  0  0  0  0  0  0
   11.9597  -20.4434   22.3396 C   0  0  0  0  0  0  0  0  0  0  0  0
   11.7664  -21.6207   22.6603 O   0  0  0  0  0  0  0  0  0  0  0  0
   10.0710  -16.5539   23.3657 C   0  0  0  0  0  0  0  0  0  0  0  0
   10.8274  -15.5503   23.4368 O   0  0  0  0  0  0  0  0  0  0  0  0
   13.1074  -20.1948   21.5981 O   0  0  0  0  0  0  0  0  0  0  0  0
    9.4909  -16.9531   24.6004 N   0  0  0  0  0  0  0  0  0  0  0  0
    9.8581  -16.3853   25.8754 C   0  0  1  0  0  0  0  0  0  0  0  0
    8.5879  -16.2339   26.6711 C   0  0  0  0  0  0  0  0  0  0  0  0
    7.6207  -15.2962   26.1041 C   0  0  0  0  0  0  0  0  0  0  0  0
    6.5882  -15.5592   25.2268 C   0  0  0  0  0  0  0  0  0  0  0  0
    5.9340  -14.4145   24.9532 N   0  0  0  0  0  0  0  0  0  0  0  0
    6.5381  -13.4155   25.6484 C   0  0  0  0  0  0  0  0  0  0  0  0
    6.2533  -12.0672   25.7123 C   0  0  0  0  0  0  0  0  0  0  0  0
    6.9974  -11.1987   26.4908 C   0  0  0  0  0  0  0  0  0  0  0  0
    8.0504  -11.7198   27.2156 C   0  0  0  0  0  0  0  0  0  0  0  0
    8.3270  -13.0742   27.1438 C   0  0  0  0  0  0  0  0  0  0  0  0
    7.5876  -13.9439   26.3688 C   0  0  0  0  0  0  0  0  0  0  0  0
   10.8611  -17.2287   26.5186 C   0  0  0  0  0  0  0  0  0  0  0  0
   11.3666  -16.9946   27.6467 O   0  0  0  0  0  0  0  0  0  0  0  0
   11.3187  -18.3846   25.8720 O   0  0  0  0  0  0  0  0  0  0  0  0
  2  1  1  1
  2  3  1  0
  3  4  1  0
  4  5  1  0
  5  9  1  0
  6  5  2  0
  7  2  1  0
  7  8  2  0
 10  7  1  0
 11 10  1  0
 11 12  1  6
 13 12  1  0
 13 14  1  0
 14 15  2  0
 16 11  1  0
 17 16  2  0
 18 14  1  0
 19 16  1  0
 20 21  1  1
 20 19  1  0
 22 21  1  0
 23 22  2  0
 24 25  1  0
 24 23  1  0
 25 30  2  0
 26 27  2  0
 26 25  1  0
 27 28  1  0
 28 29  2  0
 30 29  1  0
 30 22  1  0
 31 20  1  0
 32 31  2  0
 33 31  1  0
M  END
$$$$
