EEW.pdb
     RDKit          3D

 33 34  0  0  1  0  0  0  0  0999 V2000
    8.7292  -14.4965   19.8158 N   0  0  0  0  0  0  0  0  0  0  0  0
    7.7975  -15.6004   20.1458 C   0  0  1  0  0  0  0  0  0  0  0  0
    7.6062  -16.3429   18.8500 C   0  0  0  0  0  0  0  0  0  0  0  0
    6.6564  -17.4865   19.0279 C   0  0  0  0  0  0  0  0  0  0  0  0
    6.9882  -18.6130   18.1027 C   0  0  0  0  0  0  0  0  0  0  0  0
    7.0439  -19.7952   18.5258 O   0  0  0  0  0  0  0  0  0  0  0  0
    8.4574  -16.4640   21.1723 C   0  0  0  0  0  0  0  0  0  0  0  0
    7.8899  -17.4650   21.6268 O   0  0  0  0  0  0  0  0  0  0  0  0
    7.2400  -18.3845   16.7697 O   0  0  0  0  0  0  0  0  0  0  0  0
    9.7591  -16.1792   21.6718 N   0  0  0  0  0  0  0  0  0  0  0  0
   10.4165  -17.0311   22.6470 C   0  0  1  0  0  0  0  0  0  0  0  0
   11.7048  -17.4647   22.0494 C   0  0  0  0  0  0  0  0  0  0  0  0
   12.5959  -18.3305   22.8520 C   0  0  0  0  0  0  0  0  0  0  0  0
   13.8963  -18.7031   22.3738 C   0  0  0  0  0  0  0  0  0  0  0  0
   14.6817  -19.4450   22.9731 O   0  0  0  0  0  0  0  0  0  0  0  0
   10.3997  -16.5588   24.0172 C   0  0  0  0  0  0  0  0  0  0  0  0
   10.9843  -15.4899   24.3335 O   0  0  0  0  0  0  0  0  0  0  0  0
   14.3357  -18.2114   21.1514 O   0  0  0  0  0  0  0  0  0  0  0  0
    9.7470  -17.2228   25.0913 N   0  0  0  0  0  0  0  0  0  0  0  0
    9.8411  -16.7981   26.4674 C   0  0  1  0  0  0  0  0  0  0  0  0
    8.4328  -16.6918   26.9916 C   0  0  0  0  0  0  0  0  0  0  0  0
    7.5870  -15.7358   26.2794 C   0  0  0  0  0  0  0  0  0  0  0  0
    6.5695  -15.9961   25.3840 C   0  0  0  0  0  0  0  0  0  0  0  0
    6.0438  -14.8324   24.9569 N   0  0  0  0  0  0  0  0  0  0  0  0
    6.7158  -13.8238   25.5711 C   0  0  0  0  0  0  0  0  0  0  0  0
    6.5641  -12.4559   25.4760 C   0  0  0  0  0  0  0  0  0  0  0  0
    7.3591  -11.5803   26.1941 C   0  0  0  0  0  0  0  0  0  0  0  0
    8.3252  -12.1147   27.0228 C   0  0  0  0  0  0  0  0  0  0  0  0
    8.4685  -13.4887   27.1101 C   0  0  0  0  0  0  0  0  0  0  0  0
    7.6779  -14.3654   26.3961 C   0  0  0  0  0  0  0  0  0  0  0  0
   10.6803  -17.7309   27.2135 C   0  0  0  0  0  0  0  0  0  0  0  0
   11.1744  -18.7824   26.7307 O   0  0  0  0  0  0  0  0  0  0  0  0
   10.9802  -17.4766   28.5585 O   0  0  0  0  0  0  0  0  0  0  0  0
  2  1  1  6
  2  3  1  0
  3  4  1  0
  4  5  1  0
  5  9  1  0
  6  5  2  0
  7  2  1  0
  7  8  2  0
 10  7  1  0
 11 10  1  0
 11 12  1  6
 13 12  1  0
 13 14  1  0
 14 15  2  0
 16 11  1  0
 17 16  2  0
 18 14  1  0
 19 16  1  0
 20 21  1  1
 20 19  1  0
 22 21  1  0
 23 22  2  0
 24 25  1  0
 24 23  1  0
 25 30  2  0
 26 27  2  0
 26 25  1  0
 27 28  1  0
 28 29  2  0
 30 29  1  0
 30 22  1  0
 31 20  1  0
 32 31  2  0
 33 31  1  0
M  END
$$$$
