EEW.pdb
     RDKit          3D

 33 34  0  0  1  0  0  0  0  0999 V2000
    7.4029  -21.2948   23.0214 N   0  0  0  0  0  0  0  0  0  0  0  0
    7.4740  -19.9402   23.6178 C   0  0  1  0  0  0  0  0  0  0  0  0
    7.6496  -20.1785   25.0941 C   0  0  0  0  0  0  0  0  0  0  0  0
    6.4249  -20.8097   25.6799 C   0  0  0  0  0  0  0  0  0  0  0  0
    6.6140  -21.1097   27.1323 C   0  0  0  0  0  0  0  0  0  0  0  0
    7.7256  -20.9193   27.6870 O   0  0  0  0  0  0  0  0  0  0  0  0
    8.6637  -19.2466   23.0361 C   0  0  0  0  0  0  0  0  0  0  0  0
    9.7479  -19.8299   22.9138 O   0  0  0  0  0  0  0  0  0  0  0  0
    5.5797  -21.6001   27.8951 O   0  0  0  0  0  0  0  0  0  0  0  0
    8.6073  -17.8937   22.5984 N   0  0  0  0  0  0  0  0  0  0  0  0
    9.8046  -17.1036   22.3726 C   0  0  1  0  0  0  0  0  0  0  0  0
    9.5181  -16.1926   21.2355 C   0  0  0  0  0  0  0  0  0  0  0  0
   10.5970  -15.2984   20.7620 C   0  0  0  0  0  0  0  0  0  0  0  0
   11.2054  -15.4859   19.4762 C   0  0  0  0  0  0  0  0  0  0  0  0
   10.7803  -15.0083   18.4191 O   0  0  0  0  0  0  0  0  0  0  0  0
   10.4467  -16.5700   23.5574 C   0  0  0  0  0  0  0  0  0  0  0  0
   11.5781  -16.0236   23.4818 O   0  0  0  0  0  0  0  0  0  0  0  0
   12.3575  -16.2551   19.3770 O   0  0  0  0  0  0  0  0  0  0  0  0
    9.8864  -16.6046   24.8633 N   0  0  0  0  0  0  0  0  0  0  0  0
   10.5461  -16.0679   26.0293 C   0  0  1  0  0  0  0  0  0  0  0  0
    9.9442  -14.7115   26.2892 C   0  0  0  0  0  0  0  0  0  0  0  0
    8.4844  -14.6698   26.2284 C   0  0  0  0  0  0  0  0  0  0  0  0
    7.6035  -15.7251   26.1051 C   0  0  0  0  0  0  0  0  0  0  0  0
    6.3426  -15.2528   26.0876 N   0  0  0  0  0  0  0  0  0  0  0  0
    6.4052  -13.9000   26.1988 C   0  0  0  0  0  0  0  0  0  0  0  0
    5.4008  -12.9549   26.2306 C   0  0  0  0  0  0  0  0  0  0  0  0
    5.6719  -11.6035   26.3510 C   0  0  0  0  0  0  0  0  0  0  0  0
    6.9933  -11.2141   26.4402 C   0  0  0  0  0  0  0  0  0  0  0  0
    7.9928  -12.1712   26.4072 C   0  0  0  0  0  0  0  0  0  0  0  0
    7.7270  -13.5197   26.2874 C   0  0  0  0  0  0  0  0  0  0  0  0
   10.4074  -16.9992   27.1449 C   0  0  0  0  0  0  0  0  0  0  0  0
   10.8551  -16.7912   28.3021 O   0  0  0  0  0  0  0  0  0  0  0  0
    9.7385  -18.2163   26.9583 O   0  0  0  0  0  0  0  0  0  0  0  0
  2  1  1  6
  2  3  1  0
  3  4  1  0
  4  5  1  0
  5  9  1  0
  6  5  2  0
  7  2  1  0
  7  8  2  0
 10  7  1  0
 11 10  1  0
 11 12  1  6
 13 12  1  0
 13 14  1  0
 14 15  2  0
 16 11  1  0
 17 16  2  0
 18 14  1  0
 19 16  1  0
 20 21  1  1
 20 19  1  0
 22 21  1  0
 23 22  2  0
 24 25  1  0
 24 23  1  0
 25 30  2  0
 26 27  2  0
 26 25  1  0
 27 28  1  0
 28 29  2  0
 30 29  1  0
 30 22  1  0
 31 20  1  0
 32 31  2  0
 33 31  1  0
M  END
$$$$
