EEW.pdb
     RDKit          3D

 33 34  0  0  1  0  0  0  0  0999 V2000
   12.7062  -17.6211   18.4038 N   0  0  0  0  0  0  0  0  0  0  0  0
   13.1465  -17.9672   19.7758 C   0  0  1  0  0  0  0  0  0  0  0  0
   14.4770  -17.2811   19.9375 C   0  0  0  0  0  0  0  0  0  0  0  0
   15.5350  -17.9786   19.1402 C   0  0  0  0  0  0  0  0  0  0  0  0
   16.8989  -17.6804   19.6751 C   0  0  0  0  0  0  0  0  0  0  0  0
   17.3229  -18.2574   20.7080 O   0  0  0  0  0  0  0  0  0  0  0  0
   12.1356  -17.4203   20.7318 C   0  0  0  0  0  0  0  0  0  0  0  0
   11.9118  -16.2055   20.8006 O   0  0  0  0  0  0  0  0  0  0  0  0
   17.7208  -16.7699   19.0524 O   0  0  0  0  0  0  0  0  0  0  0  0
   11.3882  -18.2632   21.6012 N   0  0  0  0  0  0  0  0  0  0  0  0
   10.3663  -17.7431   22.4923 C   0  0  1  0  0  0  0  0  0  0  0  0
    9.1607  -18.5920   22.3162 C   0  0  0  0  0  0  0  0  0  0  0  0
    9.2925  -20.0511   22.5202 C   0  0  0  0  0  0  0  0  0  0  0  0
    8.1566  -20.9209   22.4125 C   0  0  0  0  0  0  0  0  0  0  0  0
    7.6128  -21.2419   21.3506 O   0  0  0  0  0  0  0  0  0  0  0  0
   10.8026  -17.4099   23.8337 C   0  0  0  0  0  0  0  0  0  0  0  0
   11.7594  -18.0288   24.3684 O   0  0  0  0  0  0  0  0  0  0  0  0
    7.6028  -21.4589   23.5670 O   0  0  0  0  0  0  0  0  0  0  0  0
   10.2231  -16.3937   24.6413 N   0  0  0  0  0  0  0  0  0  0  0  0
   10.5250  -16.2179   26.0416 C   0  0  1  0  0  0  0  0  0  0  0  0
    9.9199  -14.9032   26.4597 C   0  0  0  0  0  0  0  0  0  0  0  0
    8.4761  -14.8033   26.2550 C   0  0  0  0  0  0  0  0  0  0  0  0
    7.5634  -15.8254   26.0898 C   0  0  0  0  0  0  0  0  0  0  0  0
    6.3331  -15.3021   25.9299 N   0  0  0  0  0  0  0  0  0  0  0  0
    6.4469  -13.9495   25.9909 C   0  0  0  0  0  0  0  0  0  0  0  0
    5.4886  -12.9627   25.8855 C   0  0  0  0  0  0  0  0  0  0  0  0
    5.8088  -11.6198   25.9760 C   0  0  0  0  0  0  0  0  0  0  0  0
    7.1321  -11.2822   26.1777 C   0  0  0  0  0  0  0  0  0  0  0  0
    8.0850  -12.2808   26.2819 C   0  0  0  0  0  0  0  0  0  0  0  0
    7.7702  -13.6211   26.1923 C   0  0  0  0  0  0  0  0  0  0  0  0
   10.0298  -17.3635   26.7989 C   0  0  0  0  0  0  0  0  0  0  0  0
    9.2196  -18.2143   26.3490 O   0  0  0  0  0  0  0  0  0  0  0  0
   10.4597  -17.5665   28.1171 O   0  0  0  0  0  0  0  0  0  0  0  0
  2  1  1  6
  2  3  1  0
  3  4  1  0
  4  5  1  0
  5  9  1  0
  6  5  2  0
  7  2  1  0
  7  8  2  0
 10  7  1  0
 11 10  1  0
 11 12  1  1
 13 12  1  0
 13 14  1  0
 14 15  2  0
 16 11  1  0
 17 16  2  0
 18 14  1  0
 19 16  1  0
 20 21  1  1
 20 19  1  0
 22 21  1  0
 23 22  2  0
 24 25  1  0
 24 23  1  0
 25 30  2  0
 26 27  2  0
 26 25  1  0
 27 28  1  0
 28 29  2  0
 30 29  1  0
 30 22  1  0
 31 20  1  0
 32 31  2  0
 33 31  1  0
M  END
$$$$
