EEW.pdb
     RDKit          3D

 33 34  0  0  1  0  0  0  0  0999 V2000
    9.2790  -16.4394   19.7509 N   0  0  0  0  0  0  0  0  0  0  0  0
    8.3555  -16.8480   20.8352 C   0  0  1  0  0  0  0  0  0  0  0  0
    7.7095  -18.1125   20.3344 C   0  0  0  0  0  0  0  0  0  0  0  0
    7.9346  -18.2777   18.8635 C   0  0  0  0  0  0  0  0  0  0  0  0
    6.6374  -18.3680   18.1255 C   0  0  0  0  0  0  0  0  0  0  0  0
    6.3497  -19.3930   17.4575 O   0  0  0  0  0  0  0  0  0  0  0  0
    9.1738  -17.1062   22.0594 C   0  0  0  0  0  0  0  0  0  0  0  0
    8.7272  -17.7780   22.9975 O   0  0  0  0  0  0  0  0  0  0  0  0
    5.7297  -17.3349   18.1590 O   0  0  0  0  0  0  0  0  0  0  0  0
   10.4945  -16.5964   22.2038 N   0  0  0  0  0  0  0  0  0  0  0  0
   11.2824  -16.8191   23.4032 C   0  0  1  0  0  0  0  0  0  0  0  0
   12.7047  -16.5992   23.0378 C   0  0  0  0  0  0  0  0  0  0  0  0
   13.7394  -16.8327   24.0687 C   0  0  0  0  0  0  0  0  0  0  0  0
   15.1299  -16.6194   23.7861 C   0  0  0  0  0  0  0  0  0  0  0  0
   15.5773  -16.2332   22.7011 O   0  0  0  0  0  0  0  0  0  0  0  0
   10.7683  -16.2241   24.6208 C   0  0  0  0  0  0  0  0  0  0  0  0
   10.8058  -14.9773   24.7898 O   0  0  0  0  0  0  0  0  0  0  0  0
   16.0682  -16.8547   24.7826 O   0  0  0  0  0  0  0  0  0  0  0  0
   10.1922  -16.9553   25.6950 N   0  0  0  0  0  0  0  0  0  0  0  0
    9.9252  -16.3872   26.9945 C   0  0  1  0  0  0  0  0  0  0  0  0
    8.4344  -16.4485   27.2028 C   0  0  0  0  0  0  0  0  0  0  0  0
    7.6581  -15.5853   26.3147 C   0  0  0  0  0  0  0  0  0  0  0  0
    6.9805  -15.9318   25.1633 C   0  0  0  0  0  0  0  0  0  0  0  0
    6.3945  -14.8360   24.6448 N   0  0  0  0  0  0  0  0  0  0  0  0
    6.6900  -13.7855   25.4544 C   0  0  0  0  0  0  0  0  0  0  0  0
    6.3333  -12.4559   25.3654 C   0  0  0  0  0  0  0  0  0  0  0  0
    6.7405  -11.5251   26.3046 C   0  0  0  0  0  0  0  0  0  0  0  0
    7.5259  -11.9635   27.3518 C   0  0  0  0  0  0  0  0  0  0  0  0
    7.8777  -13.2999   27.4308 C   0  0  0  0  0  0  0  0  0  0  0  0
    7.4738  -14.2315   26.4966 C   0  0  0  0  0  0  0  0  0  0  0  0
   10.6933  -17.1008   28.0103 C   0  0  0  0  0  0  0  0  0  0  0  0
   10.6723  -16.8265   29.2380 O   0  0  0  0  0  0  0  0  0  0  0  0
   11.5210  -18.1681   27.6368 O   0  0  0  0  0  0  0  0  0  0  0  0
  2  1  1  6
  2  3  1  0
  3  4  1  0
  4  5  1  0
  5  9  1  0
  6  5  2  0
  7  2  1  0
  7  8  2  0
 10  7  1  0
 11 10  1  0
 11 12  1  6
 13 12  1  0
 13 14  1  0
 14 15  2  0
 16 11  1  0
 17 16  2  0
 18 14  1  0
 19 16  1  0
 20 21  1  1
 20 19  1  0
 22 21  1  0
 23 22  2  0
 24 25  1  0
 24 23  1  0
 25 30  2  0
 26 27  2  0
 26 25  1  0
 27 28  1  0
 28 29  2  0
 30 29  1  0
 30 22  1  0
 31 20  1  0
 32 31  2  0
 33 31  1  0
M  END
$$$$
