EEW.pdb
     RDKit          3D

 33 34  0  0  1  0  0  0  0  0999 V2000
    8.8784  -15.5734   19.5503 N   0  0  0  0  0  0  0  0  0  0  0  0
    7.8924  -15.9523   20.5896 C   0  0  1  0  0  0  0  0  0  0  0  0
    6.9477  -16.8983   19.8971 C   0  0  0  0  0  0  0  0  0  0  0  0
    7.6602  -17.6799   18.8374 C   0  0  0  0  0  0  0  0  0  0  0  0
    6.7322  -18.6306   18.1516 C   0  0  0  0  0  0  0  0  0  0  0  0
    7.1455  -19.3768   17.2286 O   0  0  0  0  0  0  0  0  0  0  0  0
    8.6322  -16.6374   21.6933 C   0  0  0  0  0  0  0  0  0  0  0  0
    8.0387  -17.3372   22.5232 O   0  0  0  0  0  0  0  0  0  0  0  0
    5.4072  -18.7118   18.5124 O   0  0  0  0  0  0  0  0  0  0  0  0
   10.0425  -16.5190   21.8416 N   0  0  0  0  0  0  0  0  0  0  0  0
   10.7499  -17.0778   22.9801 C   0  0  1  0  0  0  0  0  0  0  0  0
   12.1409  -17.3512   22.5381 C   0  0  0  0  0  0  0  0  0  0  0  0
   12.3619  -18.4053   21.5242 C   0  0  0  0  0  0  0  0  0  0  0  0
   13.6722  -18.6709   21.0035 C   0  0  0  0  0  0  0  0  0  0  0  0
   14.5892  -19.2010   21.6395 O   0  0  0  0  0  0  0  0  0  0  0  0
   10.5324  -16.4154   24.2509 C   0  0  0  0  0  0  0  0  0  0  0  0
   10.6290  -15.1640   24.3457 O   0  0  0  0  0  0  0  0  0  0  0  0
   13.9648  -18.3190   19.6922 O   0  0  0  0  0  0  0  0  0  0  0  0
   10.1988  -17.0821   25.4613 N   0  0  0  0  0  0  0  0  0  0  0  0
    9.9661  -16.3986   26.7108 C   0  0  1  0  0  0  0  0  0  0  0  0
    8.4949  -16.5210   27.0111 C   0  0  0  0  0  0  0  0  0  0  0  0
    7.6202  -15.8200   26.0731 C   0  0  0  0  0  0  0  0  0  0  0  0
    6.8196  -16.3578   25.0858 C   0  0  0  0  0  0  0  0  0  0  0  0
    6.1742  -15.3643   24.4458 N   0  0  0  0  0  0  0  0  0  0  0  0
    6.5537  -14.1899   25.0140 C   0  0  0  0  0  0  0  0  0  0  0  0
    6.1832  -12.8926   24.7260 C   0  0  0  0  0  0  0  0  0  0  0  0
    6.6887  -11.8143   25.4301 C   0  0  0  0  0  0  0  0  0  0  0  0
    7.5883  -12.0689   26.4458 C   0  0  0  0  0  0  0  0  0  0  0  0
    7.9529  -13.3746   26.7258 C   0  0  0  0  0  0  0  0  0  0  0  0
    7.4513  -14.4529   26.0263 C   0  0  0  0  0  0  0  0  0  0  0  0
   10.8290  -16.9595   27.7462 C   0  0  0  0  0  0  0  0  0  0  0  0
   10.8101  -16.6059   28.9534 O   0  0  0  0  0  0  0  0  0  0  0  0
   11.7533  -17.9600   27.4170 O   0  0  0  0  0  0  0  0  0  0  0  0
  2  1  1  6
  2  3  1  0
  3  4  1  0
  4  5  1  0
  5  9  1  0
  6  5  2  0
  7  2  1  0
  7  8  2  0
 10  7  1  0
 11 10  1  0
 11 12  1  6
 13 12  1  0
 13 14  1  0
 14 15  2  0
 16 11  1  0
 17 16  2  0
 18 14  1  0
 19 16  1  0
 20 21  1  1
 20 19  1  0
 22 21  1  0
 23 22  2  0
 24 25  1  0
 24 23  1  0
 25 30  2  0
 26 27  2  0
 26 25  1  0
 27 28  1  0
 28 29  2  0
 30 29  1  0
 30 22  1  0
 31 20  1  0
 32 31  2  0
 33 31  1  0
M  END
$$$$
