EEW.pdb
     RDKit          3D

 33 34  0  0  1  0  0  0  0  0999 V2000
    9.0238  -17.9207   19.1532 N   0  0  0  0  0  0  0  0  0  0  0  0
    9.9402  -17.1561   20.0315 C   0  0  1  0  0  0  0  0  0  0  0  0
    9.5863  -15.7122   19.7931 C   0  0  0  0  0  0  0  0  0  0  0  0
    8.1013  -15.5211   19.7990 C   0  0  0  0  0  0  0  0  0  0  0  0
    7.7372  -14.1090   19.4690 C   0  0  0  0  0  0  0  0  0  0  0  0
    7.1824  -13.8284   18.3768 O   0  0  0  0  0  0  0  0  0  0  0  0
    9.6592  -17.5563   21.4442 C   0  0  0  0  0  0  0  0  0  0  0  0
    8.7475  -18.3474   21.7157 O   0  0  0  0  0  0  0  0  0  0  0  0
    7.9997  -13.0853   20.3496 O   0  0  0  0  0  0  0  0  0  0  0  0
   10.4201  -17.0514   22.5356 N   0  0  0  0  0  0  0  0  0  0  0  0
   10.1733  -17.4630   23.9062 C   0  0  1  0  0  0  0  0  0  0  0  0
   10.2626  -18.9449   23.9394 C   0  0  0  0  0  0  0  0  0  0  0  0
   11.5950  -19.5721   23.8014 C   0  0  0  0  0  0  0  0  0  0  0  0
   11.7811  -20.9766   24.0279 C   0  0  0  0  0  0  0  0  0  0  0  0
   10.8827  -21.7651   24.3401 O   0  0  0  0  0  0  0  0  0  0  0  0
   10.8492  -16.6940   24.9321 C   0  0  0  0  0  0  0  0  0  0  0  0
   12.0270  -16.9775   25.2736 O   0  0  0  0  0  0  0  0  0  0  0  0
   13.0513  -21.5224   23.8951 O   0  0  0  0  0  0  0  0  0  0  0  0
   10.2772  -15.5897   25.6206 N   0  0  0  0  0  0  0  0  0  0  0  0
   10.0158  -15.5827   27.0399 C   0  0  1  0  0  0  0  0  0  0  0  0
    8.5662  -15.9508   27.2214 C   0  0  0  0  0  0  0  0  0  0  0  0
    7.6399  -15.2299   26.3504 C   0  0  0  0  0  0  0  0  0  0  0  0
    6.7296  -15.7505   25.4531 C   0  0  0  0  0  0  0  0  0  0  0  0
    6.0714  -14.7419   24.8509 N   0  0  0  0  0  0  0  0  0  0  0  0
    6.5515  -13.5747   25.3542 C   0  0  0  0  0  0  0  0  0  0  0  0
    6.2122  -12.2681   25.0702 C   0  0  0  0  0  0  0  0  0  0  0  0
    6.8261  -11.1998   25.6996 C   0  0  0  0  0  0  0  0  0  0  0  0
    7.8036  -11.4745   26.6350 C   0  0  0  0  0  0  0  0  0  0  0  0
    8.1359  -12.7894   26.9117 C   0  0  0  0  0  0  0  0  0  0  0  0
    7.5263  -13.8577   26.2866 C   0  0  0  0  0  0  0  0  0  0  0  0
   10.9433  -16.4854   27.7151 C   0  0  0  0  0  0  0  0  0  0  0  0
   11.1230  -16.5165   28.9599 O   0  0  0  0  0  0  0  0  0  0  0  0
   11.7031  -17.3933   26.9653 O   0  0  0  0  0  0  0  0  0  0  0  0
  2  1  1  6
  2  3  1  0
  3  4  1  0
  4  5  1  0
  5  9  1  0
  6  5  2  0
  7  2  1  0
  7  8  2  0
 10  7  1  0
 11 10  1  0
 11 12  1  6
 13 12  1  0
 13 14  1  0
 14 15  2  0
 16 11  1  0
 17 16  2  0
 18 14  1  0
 19 16  1  0
 20 21  1  6
 20 19  1  0
 22 21  1  0
 23 22  2  0
 24 25  1  0
 24 23  1  0
 25 30  2  0
 26 27  2  0
 26 25  1  0
 27 28  1  0
 28 29  2  0
 30 29  1  0
 30 22  1  0
 31 20  1  0
 32 31  2  0
 33 31  1  0
M  END
$$$$
