RQK.pdb
     RDKit          3D

 30 29  0  0  1  0  0  0  0  0999 V2000
   31.8591  -21.7832   -9.4559 N   0  0  0  0  0  0  0  0  0  0  0  0
   31.3859  -21.3068   -8.1973 C   0  0  0  0  0  0  0  0  0  0  0  0
   32.0148  -21.5904   -7.1235 N   0  0  0  0  0  0  0  0  0  0  0  0
   30.2205  -20.5176   -8.1438 N   0  0  0  0  0  0  0  0  0  0  0  0
   28.8734  -21.1035   -8.3031 C   0  0  0  0  0  0  0  0  0  0  0  0
   28.4370  -20.7779   -9.6972 C   0  0  0  0  0  0  0  0  0  0  0  0
   27.0292  -20.3330   -9.7589 C   0  0  0  0  0  0  0  0  0  0  0  0
   25.9838  -21.3732  -10.0242 C   0  0  2  0  0  0  0  0  0  0  0  0
   26.4785  -22.6933  -10.2760 N   0  0  0  0  0  0  0  0  0  0  0  0
   25.2134  -20.9092  -11.2057 C   0  0  0  0  0  0  0  0  0  0  0  0
   24.7861  -19.7366  -11.2118 O   0  0  0  0  0  0  0  0  0  0  0  0
   31.6925  -21.2305   -6.2109 N   0  0  0  0  0  0  0  0  0  0  0  0
   25.4095  -24.1159  -16.7650 C   0  0  0  0  0  0  0  0  0  0  0  0
   25.6864  -22.7339  -16.8756 O   0  0  0  0  0  0  0  0  0  0  0  0
   26.2109  -22.3210  -17.9447 C   0  0  0  0  0  0  0  0  0  0  0  0
   25.3907  -21.7534  -15.8182 C   0  0  0  0  0  0  0  0  0  0  0  0
   24.6962  -22.2818  -14.6128 C   0  0  2  0  0  0  0  0  0  0  0  0
   24.3464  -21.3217  -13.5278 N   0  0  0  0  0  0  0  0  0  0  0  0
   24.9901  -21.7942  -12.2701 C   0  0  0  0  0  0  0  0  0  0  0  0
   22.9312  -21.1575  -13.1846 O   0  0  0  0  0  0  0  0  0  0  0  0
   22.5290  -20.8212  -12.0297 N   0  0  0  0  0  0  0  0  0  0  0  0
   21.8788  -21.3687  -14.1433 C   0  0  1  0  0  0  0  0  0  0  0  0
   20.4872  -21.0791  -13.8220 C   0  0  0  0  0  0  0  0  0  0  0  0
   20.2766  -19.6102  -13.5161 C   0  0  0  0  0  0  0  0  0  0  0  0
   20.2935  -18.8580  -14.8277 C   0  0  0  0  0  0  0  0  0  0  0  0
   19.4243  -17.6241  -14.7668 C   0  0  0  0  0  0  0  0  0  0  0  0
   19.5090  -16.8354  -16.0455 N   0  0  0  0  0  0  0  0  0  0  0  0
   18.6262  -15.7115  -16.0759 C   0  0  0  0  0  0  0  0  0  0  0  0
   19.5850  -21.5287  -14.9158 O   0  0  0  0  0  0  0  0  0  0  0  0
   18.3606  -21.6523  -14.6592 O   0  0  0  0  0  0  0  0  0  0  0  0
  1  2  1  0
  2  3  2  0
  4  5  1  0
  4  2  1  0
  6  5  1  0
  7  6  1  0
  8  9  1  6
  8  7  1  0
 10 11  2  0
 10  8  1  0
 12 13  1  0
 13 14  2  0
 15 16  1  0
 15 13  1  0
 17 16  1  6
 17 19  1  0
 17 18  1  0
 18 10  1  0
 19 21  1  0
 20 19  2  0
 21 22  1  0
 22 28  1  0
 23 24  1  0
 22 23  1  1
 24 25  1  0
 25 26  1  0
 26 27  1  0
 28 29  2  0
 28 30  1  0
M  END
$$$$
