RQK.pdb
     RDKit          3D

 30 29  0  0  1  0  0  0  0  0999 V2000
   25.2866  -15.9605  -16.4612 N   0  0  0  0  0  0  0  0  0  0  0  0
   26.6144  -16.4405  -16.2569 C   0  0  0  0  0  0  0  0  0  0  0  0
   27.3853  -15.8650  -15.4180 N   0  0  0  0  0  0  0  0  0  0  0  0
   27.0721  -17.5566  -16.9839 N   0  0  0  0  0  0  0  0  0  0  0  0
   26.2894  -18.1394  -18.0934 C   0  0  0  0  0  0  0  0  0  0  0  0
   26.4551  -19.6233  -17.9890 C   0  0  0  0  0  0  0  0  0  0  0  0
   25.5259  -20.2280  -17.0121 C   0  0  0  0  0  0  0  0  0  0  0  0
   26.1068  -20.7510  -15.7338 C   0  0  2  0  0  0  0  0  0  0  0  0
   27.1547  -21.7157  -15.8827 N   0  0  0  0  0  0  0  0  0  0  0  0
   24.9857  -21.3639  -14.9774 C   0  0  0  0  0  0  0  0  0  0  0  0
   24.2380  -22.1668  -15.5722 O   0  0  0  0  0  0  0  0  0  0  0  0
   28.3513  -16.1992  -15.2717 N   0  0  0  0  0  0  0  0  0  0  0  0
   26.7044  -21.3991  -10.1901 C   0  0  0  0  0  0  0  0  0  0  0  0
   25.6969  -20.4221  -10.0187 O   0  0  0  0  0  0  0  0  0  0  0  0
   25.9511  -19.4367   -9.2749 C   0  0  0  0  0  0  0  0  0  0  0  0
   24.3755  -20.4881  -10.6639 C   0  0  0  0  0  0  0  0  0  0  0  0
   24.0866  -21.7268  -11.4362 C   0  0  1  0  0  0  0  0  0  0  0  0
   23.6567  -21.5837  -12.8561 N   0  0  0  0  0  0  0  0  0  0  0  0
   24.8011  -21.0252  -13.6293 C   0  0  0  0  0  0  0  0  0  0  0  0
   22.5352  -20.6868  -13.1481 O   0  0  0  0  0  0  0  0  0  0  0  0
   22.6689  -19.5758  -13.7450 N   0  0  0  0  0  0  0  0  0  0  0  0
   21.1817  -21.0026  -12.7743 C   0  0  1  0  0  0  0  0  0  0  0  0
   20.1022  -21.0030  -13.7533 C   0  0  0  0  0  0  0  0  0  0  0  0
   20.5973  -21.3847  -15.1334 C   0  0  0  0  0  0  0  0  0  0  0  0
   19.4395  -21.2421  -16.0955 C   0  0  0  0  0  0  0  0  0  0  0  0
   19.8378  -21.6329  -17.4991 C   0  0  0  0  0  0  0  0  0  0  0  0
   18.7542  -21.2935  -18.4866 N   0  0  0  0  0  0  0  0  0  0  0  0
   19.0127  -21.7894  -19.8021 C   0  0  0  0  0  0  0  0  0  0  0  0
   18.9936  -21.8955  -13.3209 O   0  0  0  0  0  0  0  0  0  0  0  0
   19.2427  -22.7699  -12.4527 O   0  0  0  0  0  0  0  0  0  0  0  0
  1  2  1  0
  2  3  2  0
  4  5  1  0
  4  2  1  0
  6  5  1  0
  7  6  1  0
  8  9  1  6
  8  7  1  0
 10 11  2  0
 10  8  1  0
 12 13  1  0
 13 14  2  0
 15 16  1  0
 15 13  1  0
 17 16  1  6
 17 19  1  0
 17 18  1  0
 18 10  1  0
 19 21  1  0
 20 19  2  0
 21 22  1  0
 22 28  1  0
 23 24  1  0
 22 23  1  1
 24 25  1  0
 25 26  1  0
 26 27  1  0
 28 29  2  0
 28 30  1  0
M  END
$$$$
