RQK.pdb
     RDKit          3D

 30 29  0  0  1  0  0  0  0  0999 V2000
   28.6771  -22.0803  -15.6723 N   0  0  0  0  0  0  0  0  0  0  0  0
   27.3489  -22.5449  -15.4377 C   0  0  0  0  0  0  0  0  0  0  0  0
   26.8683  -23.5001  -16.1346 N   0  0  0  0  0  0  0  0  0  0  0  0
   26.5685  -21.9463  -14.4296 N   0  0  0  0  0  0  0  0  0  0  0  0
   25.1375  -21.6377  -14.6305 C   0  0  0  0  0  0  0  0  0  0  0  0
   25.0672  -20.1844  -14.9810 C   0  0  0  0  0  0  0  0  0  0  0  0
   23.6865  -19.7360  -15.2569 C   0  0  0  0  0  0  0  0  0  0  0  0
   22.8239  -20.6247  -16.1002 C   0  0  2  0  0  0  0  0  0  0  0  0
   22.9140  -20.4097  -17.5132 N   0  0  0  0  0  0  0  0  0  0  0  0
   21.4235  -20.3970  -15.6622 C   0  0  0  0  0  0  0  0  0  0  0  0
   21.0122  -19.2217  -15.5781 O   0  0  0  0  0  0  0  0  0  0  0  0
   25.9224  -23.8687  -15.9458 N   0  0  0  0  0  0  0  0  0  0  0  0
   18.2261  -18.2155  -17.3556 C   0  0  0  0  0  0  0  0  0  0  0  0
   17.6267  -19.4697  -17.0977 O   0  0  0  0  0  0  0  0  0  0  0  0
   16.4326  -19.4811  -16.6944 C   0  0  0  0  0  0  0  0  0  0  0  0
   18.3150  -20.7580  -17.2801 C   0  0  0  0  0  0  0  0  0  0  0  0
   18.3245  -21.6665  -16.1015 C   0  0  2  0  0  0  0  0  0  0  0  0
   19.1934  -21.3062  -14.9454 N   0  0  0  0  0  0  0  0  0  0  0  0
   20.6117  -21.4991  -15.3581 C   0  0  0  0  0  0  0  0  0  0  0  0
   19.0539  -22.0843  -13.7115 O   0  0  0  0  0  0  0  0  0  0  0  0
   19.7980  -23.0696  -13.4215 N   0  0  0  0  0  0  0  0  0  0  0  0
   18.0497  -21.7860  -12.7246 C   0  0  2  0  0  0  0  0  0  0  0  0
   17.9445  -22.5530  -11.4899 C   0  0  0  0  0  0  0  0  0  0  0  0
   16.8458  -22.0220  -10.5921 C   0  0  0  0  0  0  0  0  0  0  0  0
   15.5262  -22.5334  -11.1246 C   0  0  0  0  0  0  0  0  0  0  0  0
   14.3653  -21.7356  -10.5793 C   0  0  0  0  0  0  0  0  0  0  0  0
   13.0552  -22.2441  -11.1175 N   0  0  0  0  0  0  0  0  0  0  0  0
   11.9221  -21.5388  -10.6058 C   0  0  0  0  0  0  0  0  0  0  0  0
   17.7432  -23.9983  -11.7782 O   0  0  0  0  0  0  0  0  0  0  0  0
   17.7629  -24.8023  -10.8120 O   0  0  0  0  0  0  0  0  0  0  0  0
  1  2  1  0
  2  3  2  0
  4  5  1  0
  4  2  1  0
  6  5  1  0
  7  6  1  0
  8  9  1  6
  8  7  1  0
 10 11  2  0
 10  8  1  0
 12 13  1  0
 13 14  2  0
 15 16  1  0
 15 13  1  0
 17 16  1  6
 17 19  1  0
 17 18  1  0
 18 10  1  0
 19 21  1  0
 20 19  2  0
 21 22  1  0
 22 28  1  0
 23 24  1  0
 22 23  1  6
 24 25  1  0
 25 26  1  0
 26 27  1  0
 28 29  2  0
 28 30  1  0
M  END
$$$$
