RQK.pdb
     RDKit          3D

 30 29  0  0  1  0  0  0  0  0999 V2000
   21.7381  -26.1069  -12.7066 N   0  0  0  0  0  0  0  0  0  0  0  0
   20.5850  -25.3035  -12.9511 C   0  0  0  0  0  0  0  0  0  0  0  0
   20.1114  -25.1991  -14.1317 N   0  0  0  0  0  0  0  0  0  0  0  0
   19.9674  -24.6262  -11.8817 N   0  0  0  0  0  0  0  0  0  0  0  0
   19.2747  -25.3501  -10.7957 C   0  0  0  0  0  0  0  0  0  0  0  0
   18.8395  -24.3109   -9.8104 C   0  0  0  0  0  0  0  0  0  0  0  0
   18.0942  -24.8884   -8.6726 C   0  0  0  0  0  0  0  0  0  0  0  0
   18.6088  -26.1661   -8.0829 C   0  0  2  0  0  0  0  0  0  0  0  0
   18.5141  -27.3172   -8.9295 N   0  0  0  0  0  0  0  0  0  0  0  0
   17.8260  -26.4078   -6.8445 C   0  0  0  0  0  0  0  0  0  0  0  0
   16.7531  -27.0389   -6.9348 O   0  0  0  0  0  0  0  0  0  0  0  0
   19.3259  -24.5594  -14.3318 N   0  0  0  0  0  0  0  0  0  0  0  0
   17.6774  -26.7217    0.1332 C   0  0  0  0  0  0  0  0  0  0  0  0
   17.1757  -26.9405   -1.1704 O   0  0  0  0  0  0  0  0  0  0  0  0
   15.9705  -26.6481   -1.3955 C   0  0  0  0  0  0  0  0  0  0  0  0
   17.9817  -27.4820   -2.2767 C   0  0  0  0  0  0  0  0  0  0  0  0
   18.4571  -26.4943   -3.2832 C   0  0  2  0  0  0  0  0  0  0  0  0
   17.5192  -26.0942   -4.3703 N   0  0  0  0  0  0  0  0  0  0  0  0
   18.3104  -25.9235   -5.6210 C   0  0  0  0  0  0  0  0  0  0  0  0
   16.7860  -24.8347   -4.2170 O   0  0  0  0  0  0  0  0  0  0  0  0
   17.2803  -23.7019   -4.5014 N   0  0  0  0  0  0  0  0  0  0  0  0
   15.4340  -24.7879   -3.7257 C   0  0  1  0  0  0  0  0  0  0  0  0
   14.7230  -23.5250   -3.5734 C   0  0  0  0  0  0  0  0  0  0  0  0
   13.7137  -23.3126   -4.6832 C   0  0  0  0  0  0  0  0  0  0  0  0
   13.0104  -21.9995   -4.4232 C   0  0  0  0  0  0  0  0  0  0  0  0
   11.9307  -21.7402   -5.4473 C   0  0  0  0  0  0  0  0  0  0  0  0
   11.3455  -20.3635   -5.2841 N   0  0  0  0  0  0  0  0  0  0  0  0
   10.2496  -20.1071   -6.1653 C   0  0  0  0  0  0  0  0  0  0  0  0
   14.0712  -23.4402   -2.2391 O   0  0  0  0  0  0  0  0  0  0  0  0
   13.4867  -24.4631   -1.8004 O   0  0  0  0  0  0  0  0  0  0  0  0
  1  2  1  0
  2  3  2  0
  4  5  1  0
  4  2  1  0
  6  5  1  0
  7  6  1  0
  8  9  1  6
  8  7  1  0
 10 11  2  0
 10  8  1  0
 12 13  1  0
 13 14  2  0
 15 16  1  0
 15 13  1  0
 17 16  1  6
 17 19  1  0
 17 18  1  0
 18 10  1  0
 19 21  1  0
 20 19  2  0
 21 22  1  0
 22 28  1  0
 23 24  1  0
 22 23  1  1
 24 25  1  0
 25 26  1  0
 26 27  1  0
 28 29  2  0
 28 30  1  0
M  END
$$$$
