RQK.pdb
     RDKit          3D

 30 29  0  0  1  0  0  0  0  0999 V2000
   24.9827  -23.6342  -14.0334 N   0  0  0  0  0  0  0  0  0  0  0  0
   25.7018  -22.5007  -14.5163 C   0  0  0  0  0  0  0  0  0  0  0  0
   26.7999  -22.6559  -15.1481 N   0  0  0  0  0  0  0  0  0  0  0  0
   25.1929  -21.2061  -14.2955 N   0  0  0  0  0  0  0  0  0  0  0  0
   23.7742  -20.9731  -13.9543 C   0  0  0  0  0  0  0  0  0  0  0  0
   22.9836  -21.3532  -15.1670 C   0  0  0  0  0  0  0  0  0  0  0  0
   21.6413  -21.8695  -14.8272 C   0  0  0  0  0  0  0  0  0  0  0  0
   20.8866  -21.1744  -13.7352 C   0  0  2  0  0  0  0  0  0  0  0  0
   21.6753  -20.7392  -12.6220 N   0  0  0  0  0  0  0  0  0  0  0  0
   19.8559  -22.1302  -13.2567 C   0  0  0  0  0  0  0  0  0  0  0  0
   19.3535  -22.9221  -14.0802 O   0  0  0  0  0  0  0  0  0  0  0  0
   27.3847  -21.8430  -15.3999 N   0  0  0  0  0  0  0  0  0  0  0  0
   17.7631  -25.9751   -9.4618 C   0  0  0  0  0  0  0  0  0  0  0  0
   19.1300  -25.6338   -9.3438 O   0  0  0  0  0  0  0  0  0  0  0  0
   19.9484  -26.5571   -9.0859 C   0  0  0  0  0  0  0  0  0  0  0  0
   19.6491  -24.2667   -9.5118 C   0  0  0  0  0  0  0  0  0  0  0  0
   18.6598  -23.2398   -9.9377 C   0  0  2  0  0  0  0  0  0  0  0  0
   18.4344  -23.0465  -11.3983 N   0  0  0  0  0  0  0  0  0  0  0  0
   19.4800  -22.1147  -11.9059 C   0  0  0  0  0  0  0  0  0  0  0  0
   17.1648  -22.4522  -11.8255 O   0  0  0  0  0  0  0  0  0  0  0  0
   17.0349  -21.2262  -12.1232 N   0  0  0  0  0  0  0  0  0  0  0  0
   15.9554  -23.2239  -11.9399 C   0  0  2  0  0  0  0  0  0  0  0  0
   15.0890  -23.1124  -13.1064 C   0  0  0  0  0  0  0  0  0  0  0  0
   15.0450  -21.6945  -13.6384 C   0  0  0  0  0  0  0  0  0  0  0  0
   13.8372  -21.0123  -13.0368 C   0  0  0  0  0  0  0  0  0  0  0  0
   13.6760  -19.6075  -13.5678 C   0  0  0  0  0  0  0  0  0  0  0  0
   12.5180  -18.9068  -12.9100 N   0  0  0  0  0  0  0  0  0  0  0  0
   12.3189  -17.5741  -13.3871 C   0  0  0  0  0  0  0  0  0  0  0  0
   15.5044  -24.0662  -14.1695 O   0  0  0  0  0  0  0  0  0  0  0  0
   16.4457  -24.8602  -13.9167 O   0  0  0  0  0  0  0  0  0  0  0  0
  1  2  1  0
  2  3  2  0
  4  5  1  0
  4  2  1  0
  6  5  1  0
  7  6  1  0
  8  9  1  1
  8  7  1  0
 10 11  2  0
 10  8  1  0
 12 13  1  0
 13 14  2  0
 15 16  1  0
 15 13  1  0
 17 16  1  6
 17 19  1  0
 17 18  1  0
 18 10  1  0
 19 21  1  0
 20 19  2  0
 21 22  1  0
 22 28  1  0
 23 24  1  0
 22 23  1  1
 24 25  1  0
 25 26  1  0
 26 27  1  0
 28 29  2  0
 28 30  1  0
M  END
$$$$
