RQK.pdb
     RDKit          3D

 30 29  0  0  1  0  0  0  0  0999 V2000
   30.6284  -23.5913  -20.4153 N   0  0  0  0  0  0  0  0  0  0  0  0
   31.1776  -22.4578  -19.7454 C   0  0  0  0  0  0  0  0  0  0  0  0
   32.1894  -21.8503  -20.2313 N   0  0  0  0  0  0  0  0  0  0  0  0
   30.5958  -22.0084  -18.5440 N   0  0  0  0  0  0  0  0  0  0  0  0
   29.4446  -22.7001  -17.9279 C   0  0  0  0  0  0  0  0  0  0  0  0
   28.2304  -21.9102  -18.3046 C   0  0  0  0  0  0  0  0  0  0  0  0
   27.1117  -22.1092  -17.3599 C   0  0  0  0  0  0  0  0  0  0  0  0
   27.3882  -22.8909  -16.1118 C   0  0  2  0  0  0  0  0  0  0  0  0
   27.7599  -24.2594  -16.3118 N   0  0  0  0  0  0  0  0  0  0  0  0
   26.1497  -22.8379  -15.2945 C   0  0  0  0  0  0  0  0  0  0  0  0
   25.2916  -23.7291  -15.4598 O   0  0  0  0  0  0  0  0  0  0  0  0
   32.5304  -20.9708  -19.8112 N   0  0  0  0  0  0  0  0  0  0  0  0
   25.9455  -21.3885   -9.4252 C   0  0  0  0  0  0  0  0  0  0  0  0
   24.6179  -21.0607   -9.7843 O   0  0  0  0  0  0  0  0  0  0  0  0
   23.7608  -20.9794   -8.8638 C   0  0  0  0  0  0  0  0  0  0  0  0
   24.1847  -20.8031  -11.1673 C   0  0  0  0  0  0  0  0  0  0  0  0
   25.2114  -21.0141  -12.2237 C   0  0  1  0  0  0  0  0  0  0  0  0
   24.8233  -21.7943  -13.4329 N   0  0  0  0  0  0  0  0  0  0  0  0
   25.9816  -21.7974  -14.3698 C   0  0  0  0  0  0  0  0  0  0  0  0
   23.6966  -21.3072  -14.2333 O   0  0  0  0  0  0  0  0  0  0  0  0
   23.7630  -20.2835  -14.9792 N   0  0  0  0  0  0  0  0  0  0  0  0
   22.4144  -21.9609  -14.2324 C   0  0  1  0  0  0  0  0  0  0  0  0
   21.3093  -21.4701  -15.0459 C   0  0  0  0  0  0  0  0  0  0  0  0
   20.4747  -22.6059  -15.6016 C   0  0  0  0  0  0  0  0  0  0  0  0
   19.6642  -23.1836  -14.4634 C   0  0  0  0  0  0  0  0  0  0  0  0
   18.7744  -24.3091  -14.9359 C   0  0  0  0  0  0  0  0  0  0  0  0
   18.0802  -24.9760  -13.7793 N   0  0  0  0  0  0  0  0  0  0  0  0
   17.1893  -26.0194  -14.1804 C   0  0  0  0  0  0  0  0  0  0  0  0
   20.4652  -20.5177  -14.2759 O   0  0  0  0  0  0  0  0  0  0  0  0
   20.5863  -20.4985  -13.0247 O   0  0  0  0  0  0  0  0  0  0  0  0
  1  2  1  0
  2  3  2  0
  4  5  1  0
  4  2  1  0
  6  5  1  0
  7  6  1  0
  8  9  1  6
  8  7  1  0
 10 11  2  0
 10  8  1  0
 12 13  1  0
 13 14  2  0
 15 16  1  0
 15 13  1  0
 17 16  1  1
 17 19  1  0
 17 18  1  0
 18 10  1  0
 19 21  1  0
 20 19  2  0
 21 22  1  0
 22 28  1  0
 23 24  1  0
 22 23  1  1
 24 25  1  0
 25 26  1  0
 26 27  1  0
 28 29  2  0
 28 30  1  0
M  END
$$$$
