RQK.pdb
     RDKit          3D

 30 29  0  0  1  0  0  0  0  0999 V2000
   18.4910  -25.5143  -10.9229 N   0  0  0  0  0  0  0  0  0  0  0  0
   18.2952  -24.4448   -9.9994 C   0  0  0  0  0  0  0  0  0  0  0  0
   17.1976  -24.3421   -9.3562 N   0  0  0  0  0  0  0  0  0  0  0  0
   19.3214  -23.5015   -9.7971 N   0  0  0  0  0  0  0  0  0  0  0  0
   20.0390  -22.8750  -10.9266 C   0  0  0  0  0  0  0  0  0  0  0  0
   19.6856  -21.4210  -10.8929 C   0  0  0  0  0  0  0  0  0  0  0  0
   20.5002  -20.6199  -11.8300 C   0  0  0  0  0  0  0  0  0  0  0  0
   21.1940  -21.3462  -12.9419 C   0  0  2  0  0  0  0  0  0  0  0  0
   22.1072  -22.3707  -12.5328 N   0  0  0  0  0  0  0  0  0  0  0  0
   21.9314  -20.3214  -13.7234 C   0  0  0  0  0  0  0  0  0  0  0  0
   21.3454  -19.2565  -14.0066 O   0  0  0  0  0  0  0  0  0  0  0  0
   17.0328  -23.5502   -8.7143 N   0  0  0  0  0  0  0  0  0  0  0  0
   26.4293  -17.5553  -13.6747 C   0  0  0  0  0  0  0  0  0  0  0  0
   26.8798  -17.9305  -14.9612 O   0  0  0  0  0  0  0  0  0  0  0  0
   27.7438  -17.2021  -15.5194 C   0  0  0  0  0  0  0  0  0  0  0  0
   26.4027  -19.1239  -15.6789 C   0  0  0  0  0  0  0  0  0  0  0  0
   25.4388  -19.9868  -14.9436 C   0  0  2  0  0  0  0  0  0  0  0  0
   24.0007  -19.5951  -14.9499 N   0  0  0  0  0  0  0  0  0  0  0  0
   23.2525  -20.5780  -14.1172 C   0  0  0  0  0  0  0  0  0  0  0  0
   23.2972  -19.5820  -16.2354 O   0  0  0  0  0  0  0  0  0  0  0  0
   22.1526  -20.1002  -16.4083 N   0  0  0  0  0  0  0  0  0  0  0  0
   23.8592  -18.9737  -17.4124 C   0  0  1  0  0  0  0  0  0  0  0  0
   23.0138  -18.3719  -18.4356 C   0  0  0  0  0  0  0  0  0  0  0  0
   22.0829  -17.3291  -17.8514 C   0  0  0  0  0  0  0  0  0  0  0  0
   21.3063  -16.7115  -18.9924 C   0  0  0  0  0  0  0  0  0  0  0  0
   20.3652  -15.6371  -18.5010 C   0  0  0  0  0  0  0  0  0  0  0  0
   19.5985  -15.0226  -19.6407 N   0  0  0  0  0  0  0  0  0  0  0  0
   18.6843  -14.0059  -19.2238 C   0  0  0  0  0  0  0  0  0  0  0  0
   23.8365  -17.7949  -19.5323 O   0  0  0  0  0  0  0  0  0  0  0  0
   25.0372  -17.5150  -19.2864 O   0  0  0  0  0  0  0  0  0  0  0  0
  1  2  1  0
  2  3  2  0
  4  5  1  0
  4  2  1  0
  6  5  1  0
  7  6  1  0
  8  9  1  1
  8  7  1  0
 10 11  2  0
 10  8  1  0
 12 13  1  0
 13 14  2  0
 15 16  1  0
 15 13  1  0
 17 16  1  1
 17 19  1  0
 17 18  1  0
 18 10  1  0
 19 21  1  0
 20 19  2  0
 21 22  1  0
 22 28  1  0
 23 24  1  0
 22 23  1  6
 24 25  1  0
 25 26  1  0
 26 27  1  0
 28 29  2  0
 28 30  1  0
M  END
$$$$
