RQK.pdb
     RDKit          3D

 30 29  0  0  1  0  0  0  0  0999 V2000
   27.3143  -26.2386  -16.0441 N   0  0  0  0  0  0  0  0  0  0  0  0
   27.2683  -25.7176  -17.3713 C   0  0  0  0  0  0  0  0  0  0  0  0
   28.2702  -25.8510  -18.1506 N   0  0  0  0  0  0  0  0  0  0  0  0
   26.1089  -25.0563  -17.8209 N   0  0  0  0  0  0  0  0  0  0  0  0
   25.5757  -23.8620  -17.1334 C   0  0  0  0  0  0  0  0  0  0  0  0
   26.0800  -23.9286  -15.7258 C   0  0  0  0  0  0  0  0  0  0  0  0
   25.4359  -22.9301  -14.8473 C   0  0  0  0  0  0  0  0  0  0  0  0
   25.1372  -21.5826  -15.4308 C   0  0  2  0  0  0  0  0  0  0  0  0
   26.1413  -20.5836  -15.2195 N   0  0  0  0  0  0  0  0  0  0  0  0
   23.8629  -21.1281  -14.8190 C   0  0  0  0  0  0  0  0  0  0  0  0
   23.7949  -21.0561  -13.5748 O   0  0  0  0  0  0  0  0  0  0  0  0
   28.2120  -25.5638  -19.1408 N   0  0  0  0  0  0  0  0  0  0  0  0
   20.3149  -16.6025  -17.1314 C   0  0  0  0  0  0  0  0  0  0  0  0
   19.4653  -17.2093  -16.1781 O   0  0  0  0  0  0  0  0  0  0  0  0
   18.3750  -16.6364  -15.9102 C   0  0  0  0  0  0  0  0  0  0  0  0
   19.7789  -18.4718  -15.4893 C   0  0  0  0  0  0  0  0  0  0  0  0
   21.1103  -19.0659  -15.7879 C   0  0  1  0  0  0  0  0  0  0  0  0
   21.4996  -20.3117  -15.0684 N   0  0  0  0  0  0  0  0  0  0  0  0
   22.7827  -20.7967  -15.6494 C   0  0  0  0  0  0  0  0  0  0  0  0
   20.5954  -21.4622  -15.1466 O   0  0  0  0  0  0  0  0  0  0  0  0
   20.8975  -22.5472  -15.7297 N   0  0  0  0  0  0  0  0  0  0  0  0
   19.2806  -21.4470  -14.5614 C   0  0  1  0  0  0  0  0  0  0  0  0
   18.3716  -22.5773  -14.7026 C   0  0  0  0  0  0  0  0  0  0  0  0
   18.8901  -23.8067  -13.9849 C   0  0  0  0  0  0  0  0  0  0  0  0
   18.7099  -23.5854  -12.5000 C   0  0  0  0  0  0  0  0  0  0  0  0
   18.7340  -24.8911  -11.7411 C   0  0  0  0  0  0  0  0  0  0  0  0
   18.6574  -24.6589  -10.2563 N   0  0  0  0  0  0  0  0  0  0  0  0
   18.8681  -25.8452   -9.4871 C   0  0  0  0  0  0  0  0  0  0  0  0
   17.0062  -22.2228  -14.2307 O   0  0  0  0  0  0  0  0  0  0  0  0
   16.8389  -21.0972  -13.6965 O   0  0  0  0  0  0  0  0  0  0  0  0
  1  2  1  0
  2  3  2  0
  4  5  1  0
  4  2  1  0
  6  5  1  0
  7  6  1  0
  8  9  1  1
  8  7  1  0
 10 11  2  0
 10  8  1  0
 12 13  1  0
 13 14  2  0
 15 16  1  0
 15 13  1  0
 17 16  1  1
 17 19  1  0
 17 18  1  0
 18 10  1  0
 19 21  1  0
 20 19  2  0
 21 22  1  0
 22 28  1  0
 23 24  1  0
 22 23  1  6
 24 25  1  0
 25 26  1  0
 26 27  1  0
 28 29  2  0
 28 30  1  0
M  END
$$$$
