RQK.pdb
     RDKit          3D

 30 29  0  0  1  0  0  0  0  0999 V2000
   17.1196  -22.9927  -12.9970 N   0  0  0  0  0  0  0  0  0  0  0  0
   17.4678  -24.1158  -13.8048 C   0  0  0  0  0  0  0  0  0  0  0  0
   16.5785  -24.9669  -14.1420 N   0  0  0  0  0  0  0  0  0  0  0  0
   18.7995  -24.2810  -14.2326 N   0  0  0  0  0  0  0  0  0  0  0  0
   19.8720  -23.3512  -13.8220 C   0  0  0  0  0  0  0  0  0  0  0  0
   19.7223  -22.1337  -14.6797 C   0  0  0  0  0  0  0  0  0  0  0  0
   20.7844  -21.1361  -14.4345 C   0  0  0  0  0  0  0  0  0  0  0  0
   21.2402  -20.9411  -13.0205 C   0  0  2  0  0  0  0  0  0  0  0  0
   20.4610  -20.0250  -12.2431 N   0  0  0  0  0  0  0  0  0  0  0  0
   22.6403  -20.4515  -13.0895 C   0  0  0  0  0  0  0  0  0  0  0  0
   22.8380  -19.2653  -13.4231 O   0  0  0  0  0  0  0  0  0  0  0  0
   16.8226  -25.7847  -14.7233 N   0  0  0  0  0  0  0  0  0  0  0  0
   28.8454  -21.2162  -12.9230 C   0  0  0  0  0  0  0  0  0  0  0  0
   28.0621  -20.2538  -12.2453 O   0  0  0  0  0  0  0  0  0  0  0  0
   28.2776  -19.0370  -12.4933 C   0  0  0  0  0  0  0  0  0  0  0  0
   27.0083  -20.5933  -11.2753 C   0  0  0  0  0  0  0  0  0  0  0  0
   25.8868  -21.4235  -11.7926 C   0  0  2  0  0  0  0  0  0  0  0  0
   25.1080  -20.9055  -12.9529 N   0  0  0  0  0  0  0  0  0  0  0  0
   23.6900  -21.3286  -12.7811 C   0  0  0  0  0  0  0  0  0  0  0  0
   25.4774  -21.3713  -14.2923 O   0  0  0  0  0  0  0  0  0  0  0  0
   24.9019  -22.3387  -14.8766 N   0  0  0  0  0  0  0  0  0  0  0  0
   26.5342  -20.7595  -15.0540 C   0  0  1  0  0  0  0  0  0  0  0  0
   26.3271  -20.3237  -16.4292 C   0  0  0  0  0  0  0  0  0  0  0  0
   25.1144  -19.4244  -16.5556 C   0  0  0  0  0  0  0  0  0  0  0  0
   24.9622  -19.0562  -18.0142 C   0  0  0  0  0  0  0  0  0  0  0  0
   23.7898  -18.1283  -18.2290 C   0  0  0  0  0  0  0  0  0  0  0  0
   23.6023  -17.8177  -19.6895 N   0  0  0  0  0  0  0  0  0  0  0  0
   22.5487  -16.8843  -19.9381 C   0  0  0  0  0  0  0  0  0  0  0  0
   27.5433  -19.6539  -16.9627 O   0  0  0  0  0  0  0  0  0  0  0  0
   28.0805  -18.7585  -16.2627 O   0  0  0  0  0  0  0  0  0  0  0  0
  1  2  1  0
  2  3  2  0
  4  5  1  0
  4  2  1  0
  6  5  1  0
  7  6  1  0
  8  9  1  6
  8  7  1  0
 10 11  2  0
 10  8  1  0
 12 13  1  0
 13 14  2  0
 15 16  1  0
 15 13  1  0
 17 16  1  1
 17 19  1  0
 17 18  1  0
 18 10  1  0
 19 21  1  0
 20 19  2  0
 21 22  1  0
 22 28  1  0
 23 24  1  0
 22 23  1  6
 24 25  1  0
 25 26  1  0
 26 27  1  0
 28 29  2  0
 28 30  1  0
M  END
$$$$
