RQK.pdb
     RDKit          3D

 30 29  0  0  1  0  0  0  0  0999 V2000
   21.5047  -24.8230  -14.8377 N   0  0  0  0  0  0  0  0  0  0  0  0
   22.5789  -25.7386  -15.0444 C   0  0  0  0  0  0  0  0  0  0  0  0
   22.4274  -26.9787  -14.7832 N   0  0  0  0  0  0  0  0  0  0  0  0
   23.8098  -25.2686  -15.5419 N   0  0  0  0  0  0  0  0  0  0  0  0
   24.0293  -23.8425  -15.8604 C   0  0  0  0  0  0  0  0  0  0  0  0
   25.0358  -23.8105  -16.9677 C   0  0  0  0  0  0  0  0  0  0  0  0
   25.4067  -22.4333  -17.3541 C   0  0  0  0  0  0  0  0  0  0  0  0
   26.1736  -21.6163  -16.3593 C   0  0  2  0  0  0  0  0  0  0  0  0
   27.2113  -22.3125  -15.6599 N   0  0  0  0  0  0  0  0  0  0  0  0
   25.1843  -21.1044  -15.3775 C   0  0  0  0  0  0  0  0  0  0  0  0
   25.5541  -20.9319  -14.1981 O   0  0  0  0  0  0  0  0  0  0  0  0
   23.1973  -27.6495  -14.9366 N   0  0  0  0  0  0  0  0  0  0  0  0
   21.9700  -16.2540  -16.8884 C   0  0  0  0  0  0  0  0  0  0  0  0
   21.3573  -16.6208  -15.6681 O   0  0  0  0  0  0  0  0  0  0  0  0
   20.4794  -15.8506  -15.1939 C   0  0  0  0  0  0  0  0  0  0  0  0
   21.6816  -17.8508  -14.9275 C   0  0  0  0  0  0  0  0  0  0  0  0
   22.6793  -18.7530  -15.5640 C   0  0  1  0  0  0  0  0  0  0  0  0
   22.9370  -20.0750  -14.9258 N   0  0  0  0  0  0  0  0  0  0  0  0
   23.8751  -20.8330  -15.8002 C   0  0  0  0  0  0  0  0  0  0  0  0
   21.7989  -20.9768  -14.7283 O   0  0  0  0  0  0  0  0  0  0  0  0
   21.2766  -21.6546  -15.6644 N   0  0  0  0  0  0  0  0  0  0  0  0
   21.1804  -21.1627  -13.4421 C   0  0  1  0  0  0  0  0  0  0  0  0
   20.0054  -22.0091  -13.2778 C   0  0  0  0  0  0  0  0  0  0  0  0
   19.9402  -22.6144  -11.8905 C   0  0  0  0  0  0  0  0  0  0  0  0
   18.8186  -23.6285  -11.8811 C   0  0  0  0  0  0  0  0  0  0  0  0
   18.6218  -24.2201  -10.5053 C   0  0  0  0  0  0  0  0  0  0  0  0
   18.5383  -25.7214  -10.5655 N   0  0  0  0  0  0  0  0  0  0  0  0
   18.2897  -26.3250   -9.2939 C   0  0  0  0  0  0  0  0  0  0  0  0
   18.7609  -21.2557  -13.5880 O   0  0  0  0  0  0  0  0  0  0  0  0
   18.8168  -19.9998  -13.5978 O   0  0  0  0  0  0  0  0  0  0  0  0
  1  2  1  0
  2  3  2  0
  4  5  1  0
  4  2  1  0
  6  5  1  0
  7  6  1  0
  8  9  1  1
  8  7  1  0
 10 11  2  0
 10  8  1  0
 12 13  1  0
 13 14  2  0
 15 16  1  0
 15 13  1  0
 17 16  1  1
 17 19  1  0
 17 18  1  0
 18 10  1  0
 19 21  1  0
 20 19  2  0
 21 22  1  0
 22 28  1  0
 23 24  1  0
 22 23  1  6
 24 25  1  0
 25 26  1  0
 26 27  1  0
 28 29  2  0
 28 30  1  0
M  END
$$$$
