RQK.pdb
     RDKit          3D

 30 29  0  0  1  0  0  0  0  0999 V2000
   28.1875  -26.2182  -16.9607 N   0  0  0  0  0  0  0  0  0  0  0  0
   26.8093  -26.3969  -17.2827 C   0  0  0  0  0  0  0  0  0  0  0  0
   26.3916  -27.5187  -17.7256 N   0  0  0  0  0  0  0  0  0  0  0  0
   25.9080  -25.3290  -17.1069 N   0  0  0  0  0  0  0  0  0  0  0  0
   26.3426  -24.0207  -16.5750 C   0  0  0  0  0  0  0  0  0  0  0  0
   25.9527  -24.0053  -15.1301 C   0  0  0  0  0  0  0  0  0  0  0  0
   24.8938  -23.0159  -14.8414 C   0  0  0  0  0  0  0  0  0  0  0  0
   25.2033  -21.5728  -15.1003 C   0  0  2  0  0  0  0  0  0  0  0  0
   26.4206  -21.0904  -14.5204 N   0  0  0  0  0  0  0  0  0  0  0  0
   24.0634  -20.7903  -14.5589 C   0  0  0  0  0  0  0  0  0  0  0  0
   24.0249  -20.5708  -13.3309 O   0  0  0  0  0  0  0  0  0  0  0  0
   25.3975  -27.6538  -17.9702 N   0  0  0  0  0  0  0  0  0  0  0  0
   18.7163  -16.8541  -17.4766 C   0  0  0  0  0  0  0  0  0  0  0  0
   19.9210  -16.7874  -16.7396 O   0  0  0  0  0  0  0  0  0  0  0  0
   20.7211  -15.8491  -17.0007 C   0  0  0  0  0  0  0  0  0  0  0  0
   20.2879  -17.7450  -15.6836 C   0  0  0  0  0  0  0  0  0  0  0  0
   21.4965  -18.5732  -15.9437 C   0  0  1  0  0  0  0  0  0  0  0  0
   21.8907  -19.5801  -14.9178 N   0  0  0  0  0  0  0  0  0  0  0  0
   23.0722  -20.3257  -15.4351 C   0  0  0  0  0  0  0  0  0  0  0  0
   20.9190  -20.6184  -14.5642 O   0  0  0  0  0  0  0  0  0  0  0  0
   21.1989  -21.8551  -14.5399 N   0  0  0  0  0  0  0  0  0  0  0  0
   19.5575  -20.3092  -14.2146 C   0  0  1  0  0  0  0  0  0  0  0  0
   18.6228  -21.3485  -13.8026 C   0  0  0  0  0  0  0  0  0  0  0  0
   19.1421  -22.1299  -12.6130 C   0  0  0  0  0  0  0  0  0  0  0  0
   18.1783  -23.2647  -12.3490 C   0  0  0  0  0  0  0  0  0  0  0  0
   18.6060  -24.0847  -11.1547 C   0  0  0  0  0  0  0  0  0  0  0  0
   18.1987  -25.5250  -11.3097 N   0  0  0  0  0  0  0  0  0  0  0  0
   18.5355  -26.3324  -10.1793 C   0  0  0  0  0  0  0  0  0  0  0  0
   17.2815  -20.7730  -13.5158 O   0  0  0  0  0  0  0  0  0  0  0  0
   17.2174  -19.5656  -13.1718 O   0  0  0  0  0  0  0  0  0  0  0  0
  1  2  1  0
  2  3  2  0
  4  5  1  0
  4  2  1  0
  6  5  1  0
  7  6  1  0
  8  9  1  1
  8  7  1  0
 10 11  2  0
 10  8  1  0
 12 13  1  0
 13 14  2  0
 15 16  1  0
 15 13  1  0
 17 16  1  1
 17 19  1  0
 17 18  1  0
 18 10  1  0
 19 21  1  0
 20 19  2  0
 21 22  1  0
 22 28  1  0
 23 24  1  0
 22 23  1  6
 24 25  1  0
 25 26  1  0
 26 27  1  0
 28 29  2  0
 28 30  1  0
M  END
$$$$
