FCI.pdb
     RDKit          3D

 26 26  0  0  1  0  0  0  0  0999 V2000
   28.3367  -21.1313  -15.9961 N   0  0  0  0  0  0  0  0  0  0  0  0
   27.6568  -20.3236  -15.0360 C   0  0  1  0  0  0  0  0  0  0  0  0
   26.7325  -19.4052  -15.8319 C   0  0  0  0  0  0  0  0  0  0  0  0
   27.5458  -18.2579  -16.2890 C   0  0  0  0  0  0  0  0  0  0  0  0
   27.8066  -17.1955  -15.4589 C   0  0  0  0  0  0  0  0  0  0  0  0
   28.6140  -16.1292  -15.8947 C   0  0  0  0  0  0  0  0  0  0  0  0
   29.1348  -16.1796  -17.1757 C   0  0  0  0  0  0  0  0  0  0  0  0
   28.8851  -17.2388  -18.0288 C   0  0  0  0  0  0  0  0  0  0  0  0
   28.0902  -18.2556  -17.5530 C   0  0  0  0  0  0  0  0  0  0  0  0
   26.9055  -21.0705  -14.0017 C   0  0  0  0  0  0  0  0  0  0  0  0
   26.2071  -22.0809  -14.3922 O   0  0  0  0  0  0  0  0  0  0  0  0
   26.8698  -20.7973  -12.6255 N   0  0  0  0  0  0  0  0  0  0  0  0
   25.7848  -21.1204  -11.7261 C   0  0  1  0  0  0  0  0  0  0  0  0
   26.0338  -20.6204  -10.3158 C   0  0  0  0  0  0  0  0  0  0  0  0
   24.6072  -21.0393   -9.2881 S   0  0  0  0  0  0  0  0  0  0  0  0
   24.4736  -20.6446  -12.1567 C   0  0  0  0  0  0  0  0  0  0  0  0
   24.3050  -19.4177  -12.3507 O   0  0  0  0  0  0  0  0  0  0  0  0
   22.2873  -21.3782  -16.6038 C   0  0  0  0  0  0  0  0  0  0  0  0
   22.6898  -20.9128  -15.2209 C   0  0  0  0  0  0  0  0  0  0  0  0
   21.6652  -21.2912  -14.1870 C   0  0  2  0  0  0  0  0  0  0  0  0
   20.3005  -20.8007  -14.5793 C   0  0  0  0  0  0  0  0  0  0  0  0
   22.0521  -21.0359  -12.7735 C   0  0  2  0  0  0  0  0  0  0  0  0
   23.3503  -21.4977  -12.3762 N   0  0  0  0  0  0  0  0  0  0  0  0
   20.9704  -21.5071  -11.8964 C   0  0  0  0  0  0  0  0  0  0  0  0
   20.8463  -22.7137  -11.6108 O   0  0  0  0  0  0  0  0  0  0  0  0
   20.0766  -20.5949  -11.3805 O   0  0  0  0  0  0  0  0  0  0  0  0
  2  1  1  6
  2 10  1  0
  3  2  1  0
  3  4  1  0
  4  5  2  0
  4  9  1  0
  5  6  1  0
  6  7  2  0
  8  7  1  0
  9  8  2  0
 10 11  2  0
 12 13  1  0
 12 10  1  0
 13 16  1  0
 14 15  1  0
 13 14  1  1
 16 17  2  0
 18 19  1  0
 20 21  1  6
 20 19  1  0
 22 20  1  0
 23 16  1  0
 22 23  1  1
 24 26  1  0
 24 22  1  0
 25 24  2  0
M  END
$$$$
