FCI.pdb
     RDKit          3D

 26 26  0  0  1  0  0  0  0  0999 V2000
   28.4265  -22.2172  -16.1553 N   0  0  0  0  0  0  0  0  0  0  0  0
   28.1396  -21.2317  -15.1640 C   0  0  1  0  0  0  0  0  0  0  0  0
   27.7622  -19.9623  -15.9239 C   0  0  0  0  0  0  0  0  0  0  0  0
   26.7053  -20.3307  -16.8903 C   0  0  0  0  0  0  0  0  0  0  0  0
   27.0177  -20.7532  -18.1590 C   0  0  0  0  0  0  0  0  0  0  0  0
   26.0032  -21.1372  -19.0547 C   0  0  0  0  0  0  0  0  0  0  0  0
   24.6892  -21.0772  -18.6249 C   0  0  0  0  0  0  0  0  0  0  0  0
   24.3514  -20.6545  -17.3524 C   0  0  0  0  0  0  0  0  0  0  0  0
   25.3814  -20.2911  -16.5163 C   0  0  0  0  0  0  0  0  0  0  0  0
   27.0878  -21.6034  -14.1905 C   0  0  0  0  0  0  0  0  0  0  0  0
   26.2556  -22.5229  -14.5413 O   0  0  0  0  0  0  0  0  0  0  0  0
   26.8946  -21.0591  -12.9113 N   0  0  0  0  0  0  0  0  0  0  0  0
   25.8046  -21.3716  -12.0142 C   0  0  1  0  0  0  0  0  0  0  0  0
   26.0166  -20.8001  -10.6251 C   0  0  0  0  0  0  0  0  0  0  0  0
   24.6162  -21.2674   -9.5823 S   0  0  0  0  0  0  0  0  0  0  0  0
   24.4877  -20.9542  -12.4858 C   0  0  0  0  0  0  0  0  0  0  0  0
   24.3340  -19.7820  -12.9025 O   0  0  0  0  0  0  0  0  0  0  0  0
   22.0690  -23.0140  -16.5058 C   0  0  0  0  0  0  0  0  0  0  0  0
   22.5328  -22.0981  -15.3936 C   0  0  0  0  0  0  0  0  0  0  0  0
   21.5821  -22.1133  -14.2282 C   0  0  2  0  0  0  0  0  0  0  0  0
   20.1882  -21.7666  -14.6682 C   0  0  0  0  0  0  0  0  0  0  0  0
   22.0552  -21.4163  -13.0021 C   0  0  2  0  0  0  0  0  0  0  0  0
   23.3427  -21.8064  -12.5056 N   0  0  0  0  0  0  0  0  0  0  0  0
   20.9940  -21.4769  -11.9865 C   0  0  0  0  0  0  0  0  0  0  0  0
   21.0863  -22.2279  -10.9964 O   0  0  0  0  0  0  0  0  0  0  0  0
   19.8755  -20.6867  -12.1337 O   0  0  0  0  0  0  0  0  0  0  0  0
  2  1  1  6
  2 10  1  0
  3  2  1  0
  3  4  1  0
  4  5  2  0
  4  9  1  0
  5  6  1  0
  6  7  2  0
  8  7  1  0
  9  8  2  0
 10 11  2  0
 12 13  1  0
 12 10  1  0
 13 16  1  0
 14 15  1  0
 13 14  1  1
 16 17  2  0
 18 19  1  0
 20 21  1  6
 20 19  1  0
 22 20  1  0
 23 16  1  0
 22 23  1  1
 24 26  1  0
 24 22  1  0
 25 24  2  0
M  END
$$$$
