FCI.pdb
     RDKit          3D

 26 26  0  0  1  0  0  0  0  0999 V2000
   24.0053  -20.3802  -19.1818 N   0  0  0  0  0  0  0  0  0  0  0  0
   23.9455  -19.7661  -17.8951 C   0  0  1  0  0  0  0  0  0  0  0  0
   22.5589  -20.0805  -17.3384 C   0  0  0  0  0  0  0  0  0  0  0  0
   21.6463  -19.0198  -17.8167 C   0  0  0  0  0  0  0  0  0  0  0  0
   20.8775  -19.1966  -18.9407 C   0  0  0  0  0  0  0  0  0  0  0  0
   19.9854  -18.1937  -19.3616 C   0  0  0  0  0  0  0  0  0  0  0  0
   19.9047  -17.0304  -18.6166 C   0  0  0  0  0  0  0  0  0  0  0  0
   20.6693  -16.8305  -17.4820 C   0  0  0  0  0  0  0  0  0  0  0  0
   21.5249  -17.8428  -17.1138 C   0  0  0  0  0  0  0  0  0  0  0  0
   25.0066  -20.1792  -16.9489 C   0  0  0  0  0  0  0  0  0  0  0  0
   25.8267  -21.0925  -17.3419 O   0  0  0  0  0  0  0  0  0  0  0  0
   25.2218  -19.6794  -15.6550 N   0  0  0  0  0  0  0  0  0  0  0  0
   26.3223  -20.0289  -14.7848 C   0  0  1  0  0  0  0  0  0  0  0  0
   27.6066  -19.3147  -15.1608 C   0  0  0  0  0  0  0  0  0  0  0  0
   27.2511  -17.5575  -15.3905 S   0  0  0  0  0  0  0  0  0  0  0  0
   26.0716  -19.8044  -13.3643 C   0  0  0  0  0  0  0  0  0  0  0  0
   25.1197  -19.0631  -13.0241 O   0  0  0  0  0  0  0  0  0  0  0  0
   22.8188  -21.2672  -10.9369 C   0  0  0  0  0  0  0  0  0  0  0  0
   24.0459  -20.4681  -11.3198 C   0  0  0  0  0  0  0  0  0  0  0  0
   25.2395  -20.8495  -10.4881 C   0  0  2  0  0  0  0  0  0  0  0  0
   24.9355  -20.7209   -9.0224 C   0  0  0  0  0  0  0  0  0  0  0  0
   26.5388  -20.2699  -10.9226 C   0  0  2  0  0  0  0  0  0  0  0  0
   26.8509  -20.3831  -12.3176 N   0  0  0  0  0  0  0  0  0  0  0  0
   27.6003  -20.7805  -10.0428 C   0  0  0  0  0  0  0  0  0  0  0  0
   27.9018  -20.1965   -8.9841 O   0  0  0  0  0  0  0  0  0  0  0  0
   28.2742  -21.9283  -10.3974 O   0  0  0  0  0  0  0  0  0  0  0  0
  2  1  1  6
  2 10  1  0
  3  2  1  0
  3  4  1  0
  4  5  2  0
  4  9  1  0
  5  6  1  0
  6  7  2  0
  8  7  1  0
  9  8  2  0
 10 11  2  0
 12 13  1  0
 12 10  1  0
 13 16  1  0
 14 15  1  0
 13 14  1  6
 16 17  2  0
 18 19  1  0
 20 21  1  1
 20 19  1  0
 22 20  1  0
 23 16  1  0
 22 23  1  6
 24 26  1  0
 24 22  1  0
 25 24  2  0
M  END
$$$$
