FCI.pdb
     RDKit          3D

 26 26  0  0  1  0  0  0  0  0999 V2000
   28.5401  -21.0796   -9.1867 N   0  0  0  0  0  0  0  0  0  0  0  0
   27.1580  -20.7243   -9.1818 C   0  0  1  0  0  0  0  0  0  0  0  0
   27.0610  -19.4067   -8.4164 C   0  0  0  0  0  0  0  0  0  0  0  0
   27.5121  -19.6718   -7.0332 C   0  0  0  0  0  0  0  0  0  0  0  0
   28.6715  -19.1209   -6.5454 C   0  0  0  0  0  0  0  0  0  0  0  0
   29.0679  -19.3509   -5.2155 C   0  0  0  0  0  0  0  0  0  0  0  0
   28.2624  -20.1435   -4.4169 C   0  0  0  0  0  0  0  0  0  0  0  0
   27.0913  -20.7089   -4.8869 C   0  0  0  0  0  0  0  0  0  0  0  0
   26.7494  -20.4519   -6.1943 C   0  0  0  0  0  0  0  0  0  0  0  0
   26.5305  -20.6125  -10.5181 C   0  0  0  0  0  0  0  0  0  0  0  0
   27.2565  -20.1460  -11.4753 O   0  0  0  0  0  0  0  0  0  0  0  0
   25.2159  -20.9637  -10.8627 N   0  0  0  0  0  0  0  0  0  0  0  0
   24.6543  -20.9379  -12.1947 C   0  0  1  0  0  0  0  0  0  0  0  0
   25.3648  -21.8872  -13.1407 C   0  0  0  0  0  0  0  0  0  0  0  0
   25.7128  -23.4302  -12.2660 S   0  0  0  0  0  0  0  0  0  0  0  0
   23.2222  -21.2133  -12.2583 C   0  0  0  0  0  0  0  0  0  0  0  0
   22.6496  -21.6934  -11.2518 O   0  0  0  0  0  0  0  0  0  0  0  0
   19.0759  -17.7659  -11.6226 C   0  0  0  0  0  0  0  0  0  0  0  0
   19.2855  -18.9282  -12.5693 C   0  0  0  0  0  0  0  0  0  0  0  0
   20.7429  -19.2698  -12.7159 C   0  0  2  0  0  0  0  0  0  0  0  0
   21.5168  -18.1000  -13.2541 C   0  0  0  0  0  0  0  0  0  0  0  0
   21.0359  -20.5783  -13.3600 C   0  0  2  0  0  0  0  0  0  0  0  0
   22.4150  -20.9679  -13.4098 N   0  0  0  0  0  0  0  0  0  0  0  0
   20.3695  -20.6185  -14.6699 C   0  0  0  0  0  0  0  0  0  0  0  0
   19.1270  -20.6221  -14.7654 O   0  0  0  0  0  0  0  0  0  0  0  0
   21.1356  -20.6525  -15.8141 O   0  0  0  0  0  0  0  0  0  0  0  0
  2  1  1  6
  2 10  1  0
  3  2  1  0
  3  4  1  0
  4  5  2  0
  4  9  1  0
  5  6  1  0
  6  7  2  0
  8  7  1  0
  9  8  2  0
 10 11  2  0
 12 13  1  0
 12 10  1  0
 13 16  1  0
 14 15  1  0
 13 14  1  6
 16 17  2  0
 18 19  1  0
 20 21  1  6
 20 19  1  0
 22 20  1  0
 23 16  1  0
 22 23  1  6
 24 26  1  0
 24 22  1  0
 25 24  2  0
M  END
$$$$
