FCI.pdb
     RDKit          3D

 26 26  0  0  1  0  0  0  0  0999 V2000
   28.2899  -21.0155  -14.8056 N   0  0  0  0  0  0  0  0  0  0  0  0
   28.6129  -21.0229  -13.4157 C   0  0  1  0  0  0  0  0  0  0  0  0
   29.9836  -20.3612  -13.2947 C   0  0  0  0  0  0  0  0  0  0  0  0
   30.9782  -21.4442  -13.1375 C   0  0  0  0  0  0  0  0  0  0  0  0
   31.4687  -22.1227  -14.2259 C   0  0  0  0  0  0  0  0  0  0  0  0
   32.4430  -23.1244  -14.0642 C   0  0  0  0  0  0  0  0  0  0  0  0
   32.8908  -23.4060  -12.7856 C   0  0  0  0  0  0  0  0  0  0  0  0
   32.4107  -22.7361  -11.6753 C   0  0  0  0  0  0  0  0  0  0  0  0
   31.4596  -21.7655  -11.8889 C   0  0  0  0  0  0  0  0  0  0  0  0
   27.6225  -20.3638  -12.5342 C   0  0  0  0  0  0  0  0  0  0  0  0
   26.9346  -19.3967  -13.0368 O   0  0  0  0  0  0  0  0  0  0  0  0
   27.3456  -20.6802  -11.1951 N   0  0  0  0  0  0  0  0  0  0  0  0
   26.1932  -20.2387  -10.4418 C   0  0  1  0  0  0  0  0  0  0  0  0
   24.8864  -20.5635  -11.1402 C   0  0  0  0  0  0  0  0  0  0  0  0
   23.5153  -20.0682  -10.0717 S   0  0  0  0  0  0  0  0  0  0  0  0
   26.1237  -20.7514   -9.0768 C   0  0  0  0  0  0  0  0  0  0  0  0
   25.8989  -21.9712   -8.8958 O   0  0  0  0  0  0  0  0  0  0  0  0
   29.0905  -17.9832   -5.2868 C   0  0  0  0  0  0  0  0  0  0  0  0
   28.5514  -19.1007   -6.1538 C   0  0  0  0  0  0  0  0  0  0  0  0
   27.2371  -19.6193   -5.6385 C   0  0  2  0  0  0  0  0  0  0  0  0
   27.3877  -20.1806   -4.2531 C   0  0  0  0  0  0  0  0  0  0  0  0
   26.4613  -20.4629   -6.5869 C   0  0  2  0  0  0  0  0  0  0  0  0
   26.2982  -19.9430   -7.9133 N   0  0  0  0  0  0  0  0  0  0  0  0
   25.1931  -20.8449   -5.9487 C   0  0  0  0  0  0  0  0  0  0  0  0
   25.1721  -21.4784   -4.8759 O   0  0  0  0  0  0  0  0  0  0  0  0
   24.0046  -20.4945   -6.5503 O   0  0  0  0  0  0  0  0  0  0  0  0
  2  1  1  6
  2 10  1  0
  3  2  1  0
  3  4  1  0
  4  5  2  0
  4  9  1  0
  5  6  1  0
  6  7  2  0
  8  7  1  0
  9  8  2  0
 10 11  2  0
 12 13  1  0
 12 10  1  0
 13 16  1  0
 14 15  1  0
 13 14  1  6
 16 17  2  0
 18 19  1  0
 20 21  1  1
 20 19  1  0
 22 20  1  0
 23 16  1  0
 22 23  1  6
 24 26  1  0
 24 22  1  0
 25 24  2  0
M  END
$$$$
