FCI.pdb
     RDKit          3D

 26 26  0  0  1  0  0  0  0  0999 V2000
   28.3269  -20.7925  -15.9308 N   0  0  0  0  0  0  0  0  0  0  0  0
   27.5664  -19.9369  -15.0785 C   0  0  1  0  0  0  0  0  0  0  0  0
   26.7408  -19.0433  -16.0011 C   0  0  0  0  0  0  0  0  0  0  0  0
   27.4687  -17.7629  -16.1337 C   0  0  0  0  0  0  0  0  0  0  0  0
   28.1880  -17.4677  -17.2656 C   0  0  0  0  0  0  0  0  0  0  0  0
   28.8435  -16.2296  -17.3934 C   0  0  0  0  0  0  0  0  0  0  0  0
   28.7447  -15.3227  -16.3529 C   0  0  0  0  0  0  0  0  0  0  0  0
   28.0265  -15.5987  -15.2040 C   0  0  0  0  0  0  0  0  0  0  0  0
   27.4042  -16.8232  -15.1302 C   0  0  0  0  0  0  0  0  0  0  0  0
   26.7037  -20.6306  -14.0954 C   0  0  0  0  0  0  0  0  0  0  0  0
   26.1195  -21.7128  -14.4810 O   0  0  0  0  0  0  0  0  0  0  0  0
   26.4491  -20.2358  -12.7728 N   0  0  0  0  0  0  0  0  0  0  0  0
   25.4804  -20.8348  -11.8821 C   0  0  1  0  0  0  0  0  0  0  0  0
   25.7278  -20.4725  -10.4301 C   0  0  0  0  0  0  0  0  0  0  0  0
   24.3692  -21.1185   -9.4281 S   0  0  0  0  0  0  0  0  0  0  0  0
   24.0887  -20.5296  -12.2003 C   0  0  0  0  0  0  0  0  0  0  0  0
   23.7195  -19.3320  -12.2283 O   0  0  0  0  0  0  0  0  0  0  0  0
   21.9007  -21.8022  -16.6556 C   0  0  0  0  0  0  0  0  0  0  0  0
   22.2712  -21.1761  -15.3283 C   0  0  0  0  0  0  0  0  0  0  0  0
   21.3374  -21.6067  -14.2307 C   0  0  2  0  0  0  0  0  0  0  0  0
   19.9113  -21.2964  -14.5869 C   0  0  0  0  0  0  0  0  0  0  0  0
   21.7467  -21.2278  -12.8516 C   0  0  2  0  0  0  0  0  0  0  0  0
   23.1024  -21.5207  -12.4876 N   0  0  0  0  0  0  0  0  0  0  0  0
   20.7583  -21.7620  -11.9033 C   0  0  0  0  0  0  0  0  0  0  0  0
   20.6967  -22.9803  -11.6486 O   0  0  0  0  0  0  0  0  0  0  0  0
   19.8833  -20.8969  -11.2844 O   0  0  0  0  0  0  0  0  0  0  0  0
  2  1  1  6
  2 10  1  0
  3  2  1  0
  3  4  1  0
  4  5  2  0
  4  9  1  0
  5  6  1  0
  6  7  2  0
  8  7  1  0
  9  8  2  0
 10 11  2  0
 12 13  1  0
 12 10  1  0
 13 16  1  0
 14 15  1  0
 13 14  1  1
 16 17  2  0
 18 19  1  0
 20 21  1  6
 20 19  1  0
 22 20  1  0
 23 16  1  0
 22 23  1  1
 24 26  1  0
 24 22  1  0
 25 24  2  0
M  END
$$$$
