FCI.pdb
     RDKit          3D

 26 26  0  0  1  0  0  0  0  0999 V2000
   26.1817  -16.9723  -19.3491 N   0  0  0  0  0  0  0  0  0  0  0  0
   26.1287  -18.1648  -18.5671 C   0  0  1  0  0  0  0  0  0  0  0  0
   27.5712  -18.4849  -18.1824 C   0  0  0  0  0  0  0  0  0  0  0  0
   28.2377  -19.0146  -19.3915 C   0  0  0  0  0  0  0  0  0  0  0  0
   27.9192  -20.2519  -19.8947 C   0  0  0  0  0  0  0  0  0  0  0  0
   28.5337  -20.7264  -21.0678 C   0  0  0  0  0  0  0  0  0  0  0  0
   29.4632  -19.9170  -21.6969 C   0  0  0  0  0  0  0  0  0  0  0  0
   29.7997  -18.6681  -21.2080 C   0  0  0  0  0  0  0  0  0  0  0  0
   29.1690  -18.2518  -20.0585 C   0  0  0  0  0  0  0  0  0  0  0  0
   25.2599  -18.0966  -17.3703 C   0  0  0  0  0  0  0  0  0  0  0  0
   25.3579  -17.0479  -16.6274 O   0  0  0  0  0  0  0  0  0  0  0  0
   24.3288  -19.0591  -16.9501 N   0  0  0  0  0  0  0  0  0  0  0  0
   23.4500  -18.9447  -15.8076 C   0  0  1  0  0  0  0  0  0  0  0  0
   22.0209  -18.6292  -16.2062 C   0  0  0  0  0  0  0  0  0  0  0  0
   20.9722  -18.7187  -14.7367 S   0  0  0  0  0  0  0  0  0  0  0  0
   23.4347  -20.1117  -14.9307 C   0  0  0  0  0  0  0  0  0  0  0  0
   23.1020  -21.2239  -15.4036 O   0  0  0  0  0  0  0  0  0  0  0  0
   26.1079  -20.7349   -9.6845 C   0  0  0  0  0  0  0  0  0  0  0  0
   24.9665  -20.3973  -10.6194 C   0  0  0  0  0  0  0  0  0  0  0  0
   24.8528  -21.3936  -11.7404 C   0  0  2  0  0  0  0  0  0  0  0  0
   26.1824  -21.6051  -12.4072 C   0  0  0  0  0  0  0  0  0  0  0  0
   23.7018  -21.1974  -12.6621 C   0  0  2  0  0  0  0  0  0  0  0  0
   23.7798  -20.0711  -13.5462 N   0  0  0  0  0  0  0  0  0  0  0  0
   22.4583  -21.2407  -11.8788 C   0  0  0  0  0  0  0  0  0  0  0  0
   22.0827  -22.2871  -11.3160 O   0  0  0  0  0  0  0  0  0  0  0  0
   21.6941  -20.1004  -11.7657 O   0  0  0  0  0  0  0  0  0  0  0  0
  2  1  1  1
  2 10  1  0
  3  2  1  0
  3  4  1  0
  4  5  2  0
  4  9  1  0
  5  6  1  0
  6  7  2  0
  8  7  1  0
  9  8  2  0
 10 11  2  0
 12 13  1  0
 12 10  1  0
 13 16  1  0
 14 15  1  0
 13 14  1  6
 16 17  2  0
 18 19  1  0
 20 21  1  6
 20 19  1  0
 22 20  1  0
 23 16  1  0
 22 23  1  1
 24 26  1  0
 24 22  1  0
 25 24  2  0
M  END
$$$$
