FCI.pdb
     RDKit          3D

 26 26  0  0  1  0  0  0  0  0999 V2000
   28.0354  -19.7928  -15.6040 N   0  0  0  0  0  0  0  0  0  0  0  0
   27.2511  -19.3375  -14.5021 C   0  0  1  0  0  0  0  0  0  0  0  0
   26.1567  -18.4540  -15.0961 C   0  0  0  0  0  0  0  0  0  0  0  0
   26.8111  -17.2253  -15.5951 C   0  0  0  0  0  0  0  0  0  0  0  0
   26.9481  -16.9888  -16.9408 C   0  0  0  0  0  0  0  0  0  0  0  0
   27.5382  -15.7977  -17.4009 C   0  0  0  0  0  0  0  0  0  0  0  0
   27.9751  -14.8762  -16.4655 C   0  0  0  0  0  0  0  0  0  0  0  0
   27.8480  -15.0935  -15.1058 C   0  0  0  0  0  0  0  0  0  0  0  0
   27.2633  -16.2738  -14.7095 C   0  0  0  0  0  0  0  0  0  0  0  0
   26.6735  -20.4054  -13.6547 C   0  0  0  0  0  0  0  0  0  0  0  0
   26.1251  -21.4053  -14.2553 O   0  0  0  0  0  0  0  0  0  0  0  0
   26.6575  -20.4506  -12.2520 N   0  0  0  0  0  0  0  0  0  0  0  0
   25.6085  -21.0189  -11.4352 C   0  0  1  0  0  0  0  0  0  0  0  0
   25.7895  -20.7074   -9.9618 C   0  0  0  0  0  0  0  0  0  0  0  0
   24.4276  -21.4531   -9.0364 S   0  0  0  0  0  0  0  0  0  0  0  0
   24.2557  -20.6312  -11.8233 C   0  0  0  0  0  0  0  0  0  0  0  0
   23.9837  -19.4139  -11.9481 O   0  0  0  0  0  0  0  0  0  0  0  0
   22.0218  -21.0344  -16.2815 C   0  0  0  0  0  0  0  0  0  0  0  0
   22.4075  -20.6982  -14.8570 C   0  0  0  0  0  0  0  0  0  0  0  0
   21.4925  -21.3587  -13.8627 C   0  0  2  0  0  0  0  0  0  0  0  0
   20.0531  -21.0797  -14.1904 C   0  0  0  0  0  0  0  0  0  0  0  0
   21.8650  -21.1885  -12.4327 C   0  0  2  0  0  0  0  0  0  0  0  0
   23.2027  -21.5615  -12.0753 N   0  0  0  0  0  0  0  0  0  0  0  0
   20.8372  -21.8283  -11.5986 C   0  0  0  0  0  0  0  0  0  0  0  0
   20.9997  -22.9728  -11.1333 O   0  0  0  0  0  0  0  0  0  0  0  0
   19.6712  -21.1472  -11.3267 O   0  0  0  0  0  0  0  0  0  0  0  0
  2  1  1  6
  2 10  1  0
  3  2  1  0
  3  4  1  0
  4  5  2  0
  4  9  1  0
  5  6  1  0
  6  7  2  0
  8  7  1  0
  9  8  2  0
 10 11  2  0
 12 13  1  0
 12 10  1  0
 13 16  1  0
 14 15  1  0
 13 14  1  1
 16 17  2  0
 18 19  1  0
 20 21  1  1
 20 19  1  0
 22 20  1  0
 23 16  1  0
 22 23  1  6
 24 26  1  0
 24 22  1  0
 25 24  2  0
M  END
$$$$
