FCI.pdb
     RDKit          3D

 26 26  0  0  1  0  0  0  0  0999 V2000
   18.5798   -9.1635  -17.4119 N   0  0  0  0  0  0  0  0  0  0  0  0
   19.6912   -8.2886  -17.6008 C   0  0  1  0  0  0  0  0  0  0  0  0
   19.4824   -7.6242  -18.9596 C   0  0  0  0  0  0  0  0  0  0  0  0
   19.6972   -8.6626  -19.9903 C   0  0  0  0  0  0  0  0  0  0  0  0
   20.9597   -9.1004  -20.3066 C   0  0  0  0  0  0  0  0  0  0  0  0
   21.1457  -10.1163  -21.2616 C   0  0  0  0  0  0  0  0  0  0  0  0
   20.0280  -10.6591  -21.8706 C   0  0  0  0  0  0  0  0  0  0  0  0
   18.7476  -10.2336  -21.5682 C   0  0  0  0  0  0  0  0  0  0  0  0
   18.6214   -9.2383  -20.6271 C   0  0  0  0  0  0  0  0  0  0  0  0
   19.8865   -7.2776  -16.5369 C   0  0  0  0  0  0  0  0  0  0  0  0
   18.8300   -6.7991  -15.9748 O   0  0  0  0  0  0  0  0  0  0  0  0
   21.1102   -6.7769  -16.0661 N   0  0  0  0  0  0  0  0  0  0  0  0
   21.2751   -5.7749  -15.0368 C   0  0  1  0  0  0  0  0  0  0  0  0
   22.5461   -5.9745  -14.2333 C   0  0  0  0  0  0  0  0  0  0  0  0
   22.7046   -4.6205  -13.0465 S   0  0  0  0  0  0  0  0  0  0  0  0
   21.2477   -4.3967  -15.5172 C   0  0  0  0  0  0  0  0  0  0  0  0
   21.9968   -4.0686  -16.4672 O   0  0  0  0  0  0  0  0  0  0  0  0
   17.6930    0.2221  -17.0569 C   0  0  0  0  0  0  0  0  0  0  0  0
   19.0516   -0.1438  -16.4989 C   0  0  0  0  0  0  0  0  0  0  0  0
   19.0491   -1.5171  -15.8856 C   0  0  2  0  0  0  0  0  0  0  0  0
   17.9351   -1.6570  -14.8873 C   0  0  0  0  0  0  0  0  0  0  0  0
   20.3737   -2.0247  -15.4376 C   0  0  2  0  0  0  0  0  0  0  0  0
   20.4101   -3.3793  -14.9686 N   0  0  0  0  0  0  0  0  0  0  0  0
   20.9508   -1.0617  -14.4883 C   0  0  0  0  0  0  0  0  0  0  0  0
   21.0776   -1.3389  -13.2800 O   0  0  0  0  0  0  0  0  0  0  0  0
   21.3593    0.1716  -14.9455 O   0  0  0  0  0  0  0  0  0  0  0  0
  2  1  1  1
  2 10  1  0
  3  2  1  0
  3  4  1  0
  4  5  2  0
  4  9  1  0
  5  6  1  0
  6  7  2  0
  8  7  1  0
  9  8  2  0
 10 11  2  0
 12 13  1  0
 12 10  1  0
 13 16  1  0
 14 15  1  0
 13 14  1  6
 16 17  2  0
 18 19  1  0
 20 21  1  1
 20 19  1  0
 22 20  1  0
 23 16  1  0
 22 23  1  1
 24 26  1  0
 24 22  1  0
 25 24  2  0
M  END
$$$$
