FCI.pdb
     RDKit          3D

 26 26  0  0  1  0  0  0  0  0999 V2000
   23.3317  -20.4529  -17.1801 N   0  0  0  0  0  0  0  0  0  0  0  0
   24.0264  -19.5774  -16.2928 C   0  0  1  0  0  0  0  0  0  0  0  0
   22.9671  -18.6617  -15.6840 C   0  0  0  0  0  0  0  0  0  0  0  0
   22.5421  -17.7219  -16.7437 C   0  0  0  0  0  0  0  0  0  0  0  0
   21.2407  -17.6841  -17.1806 C   0  0  0  0  0  0  0  0  0  0  0  0
   20.8428  -16.7583  -18.1621 C   0  0  0  0  0  0  0  0  0  0  0  0
   21.7934  -15.8920  -18.6729 C   0  0  0  0  0  0  0  0  0  0  0  0
   23.1092  -15.9126  -18.2483 C   0  0  0  0  0  0  0  0  0  0  0  0
   23.4453  -16.8367  -17.2864 C   0  0  0  0  0  0  0  0  0  0  0  0
   24.8215  -20.2478  -15.2391 C   0  0  0  0  0  0  0  0  0  0  0  0
   24.2169  -21.1184  -14.5057 O   0  0  0  0  0  0  0  0  0  0  0  0
   26.1783  -20.0385  -14.9471 N   0  0  0  0  0  0  0  0  0  0  0  0
   26.9147  -20.6483  -13.8625 C   0  0  1  0  0  0  0  0  0  0  0  0
   28.4160  -20.5575  -14.0595 C   0  0  0  0  0  0  0  0  0  0  0  0
   28.8819  -21.5833  -15.4729 S   0  0  0  0  0  0  0  0  0  0  0  0
   26.5935  -20.1261  -12.5377 C   0  0  0  0  0  0  0  0  0  0  0  0
   26.5113  -18.8858  -12.3760 O   0  0  0  0  0  0  0  0  0  0  0  0
   22.2460  -20.5821   -9.9747 C   0  0  0  0  0  0  0  0  0  0  0  0
   23.6121  -20.2188  -10.5156 C   0  0  0  0  0  0  0  0  0  0  0  0
   24.7098  -20.6219   -9.5697 C   0  0  2  0  0  0  0  0  0  0  0  0
   24.4548  -20.0829   -8.1908 C   0  0  0  0  0  0  0  0  0  0  0  0
   26.0962  -20.4419  -10.0780 C   0  0  2  0  0  0  0  0  0  0  0  0
   26.3619  -20.9475  -11.3933 N   0  0  0  0  0  0  0  0  0  0  0  0
   27.0381  -20.9331   -9.0616 C   0  0  0  0  0  0  0  0  0  0  0  0
   27.6986  -21.9747   -9.2392 O   0  0  0  0  0  0  0  0  0  0  0  0
   27.1926  -20.2261   -7.8896 O   0  0  0  0  0  0  0  0  0  0  0  0
  2  1  1  1
  2 10  1  0
  3  2  1  0
  3  4  1  0
  4  5  2  0
  4  9  1  0
  5  6  1  0
  6  7  2  0
  8  7  1  0
  9  8  2  0
 10 11  2  0
 12 13  1  0
 12 10  1  0
 13 16  1  0
 14 15  1  0
 13 14  1  6
 16 17  2  0
 18 19  1  0
 20 21  1  1
 20 19  1  0
 22 20  1  0
 23 16  1  0
 22 23  1  6
 24 26  1  0
 24 22  1  0
 25 24  2  0
M  END
$$$$
