FCI.pdb
     RDKit          3D

 26 26  0  0  1  0  0  0  0  0999 V2000
   24.2694  -19.4847  -18.6910 N   0  0  0  0  0  0  0  0  0  0  0  0
   24.5260  -18.6852  -17.5371 C   0  0  1  0  0  0  0  0  0  0  0  0
   23.1604  -18.2576  -17.0045 C   0  0  0  0  0  0  0  0  0  0  0  0
   22.6232  -17.2483  -17.9423 C   0  0  0  0  0  0  0  0  0  0  0  0
   21.5732  -17.5412  -18.7775 C   0  0  0  0  0  0  0  0  0  0  0  0
   21.0478  -16.5592  -19.6367 C   0  0  0  0  0  0  0  0  0  0  0  0
   21.6151  -15.2972  -19.6179 C   0  0  0  0  0  0  0  0  0  0  0  0
   22.6730  -14.9800  -18.7857 C   0  0  0  0  0  0  0  0  0  0  0  0
   23.1483  -15.9764  -17.9651 C   0  0  0  0  0  0  0  0  0  0  0  0
   25.3292  -19.3415  -16.4806 C   0  0  0  0  0  0  0  0  0  0  0  0
   24.8834  -20.4526  -16.0033 O   0  0  0  0  0  0  0  0  0  0  0  0
   26.5381  -18.8824  -15.9350 N   0  0  0  0  0  0  0  0  0  0  0  0
   27.2053  -19.4299  -14.7750 C   0  0  1  0  0  0  0  0  0  0  0  0
   28.5493  -18.7754  -14.5179 C   0  0  0  0  0  0  0  0  0  0  0  0
   29.2332  -19.4324  -12.9793 S   0  0  0  0  0  0  0  0  0  0  0  0
   26.4261  -19.3774  -13.5417 C   0  0  0  0  0  0  0  0  0  0  0  0
   25.8628  -18.3038  -13.2232 O   0  0  0  0  0  0  0  0  0  0  0  0
   21.7818  -20.5668  -10.5039 C   0  0  0  0  0  0  0  0  0  0  0  0
   23.2696  -20.4116  -10.2728 C   0  0  0  0  0  0  0  0  0  0  0  0
   24.0571  -20.6724  -11.5274 C   0  0  2  0  0  0  0  0  0  0  0  0
   23.6580  -21.9803  -12.1494 C   0  0  0  0  0  0  0  0  0  0  0  0
   25.5222  -20.4342  -11.4291 C   0  0  2  0  0  0  0  0  0  0  0  0
   26.2587  -20.4862  -12.6584 N   0  0  0  0  0  0  0  0  0  0  0  0
   26.0721  -21.3062  -10.3809 C   0  0  0  0  0  0  0  0  0  0  0  0
   26.8182  -22.2644  -10.6600 O   0  0  0  0  0  0  0  0  0  0  0  0
   25.7551  -21.0574   -9.0637 O   0  0  0  0  0  0  0  0  0  0  0  0
  2  1  1  6
  2 10  1  0
  3  2  1  0
  3  4  1  0
  4  5  2  0
  4  9  1  0
  5  6  1  0
  6  7  2  0
  8  7  1  0
  9  8  2  0
 10 11  2  0
 12 13  1  0
 12 10  1  0
 13 16  1  0
 14 15  1  0
 13 14  1  1
 16 17  2  0
 18 19  1  0
 20 21  1  1
 20 19  1  0
 22 20  1  0
 23 16  1  0
 22 23  1  6
 24 26  1  0
 24 22  1  0
 25 24  2  0
M  END
$$$$
