FCI.pdb
     RDKit          3D

 26 26  0  0  1  0  0  0  0  0999 V2000
   18.6672  -27.8909  -12.2681 N   0  0  0  0  0  0  0  0  0  0  0  0
   18.2034  -26.6758  -11.6809 C   0  0  1  0  0  0  0  0  0  0  0  0
   16.7275  -26.5598  -12.0546 C   0  0  0  0  0  0  0  0  0  0  0  0
   16.5437  -25.2427  -12.7013 C   0  0  0  0  0  0  0  0  0  0  0  0
   16.2600  -24.1208  -11.9619 C   0  0  0  0  0  0  0  0  0  0  0  0
   16.1260  -22.8678  -12.5870 C   0  0  0  0  0  0  0  0  0  0  0  0
   16.2865  -22.7970  -13.9596 C   0  0  0  0  0  0  0  0  0  0  0  0
   16.5719  -23.9134  -14.7240 C   0  0  0  0  0  0  0  0  0  0  0  0
   16.6932  -25.1137  -14.0633 C   0  0  0  0  0  0  0  0  0  0  0  0
   18.3929  -26.5701  -10.2164 C   0  0  0  0  0  0  0  0  0  0  0  0
   18.4450  -27.6697   -9.5459 O   0  0  0  0  0  0  0  0  0  0  0  0
   18.5245  -25.3903   -9.4676 N   0  0  0  0  0  0  0  0  0  0  0  0
   18.6572  -25.3102   -8.0301 C   0  0  1  0  0  0  0  0  0  0  0  0
   19.2625  -23.9951   -7.5773 C   0  0  0  0  0  0  0  0  0  0  0  0
   19.3408  -23.9803   -5.7715 S   0  0  0  0  0  0  0  0  0  0  0  0
   17.4170  -25.5233   -7.2903 C   0  0  0  0  0  0  0  0  0  0  0  0
   16.3553  -25.0170   -7.7237 O   0  0  0  0  0  0  0  0  0  0  0  0
   14.7231  -29.1550   -2.9674 C   0  0  0  0  0  0  0  0  0  0  0  0
   14.7595  -27.8348   -3.7068 C   0  0  0  0  0  0  0  0  0  0  0  0
   16.0464  -27.6576   -4.4649 C   0  0  2  0  0  0  0  0  0  0  0  0
   17.2316  -27.9048   -3.5754 C   0  0  0  0  0  0  0  0  0  0  0  0
   16.1306  -26.4397   -5.3149 C   0  0  2  0  0  0  0  0  0  0  0  0
   17.3299  -26.2835   -6.0852 N   0  0  0  0  0  0  0  0  0  0  0  0
   15.8088  -25.2661   -4.4898 C   0  0  0  0  0  0  0  0  0  0  0  0
   16.6856  -24.4433   -4.1628 O   0  0  0  0  0  0  0  0  0  0  0  0
   14.5110  -25.0735   -4.0705 O   0  0  0  0  0  0  0  0  0  0  0  0
  2  1  1  1
  2 10  1  0
  3  2  1  0
  3  4  1  0
  4  5  2  0
  4  9  1  0
  5  6  1  0
  6  7  2  0
  8  7  1  0
  9  8  2  0
 10 11  2  0
 12 13  1  0
 12 10  1  0
 13 16  1  0
 14 15  1  0
 13 14  1  6
 16 17  2  0
 18 19  1  0
 20 21  1  1
 20 19  1  0
 22 20  1  0
 23 16  1  0
 22 23  1  1
 24 26  1  0
 24 22  1  0
 25 24  2  0
M  END
$$$$
