FCI.pdb
     RDKit          3D

 26 26  0  0  1  0  0  0  0  0999 V2000
   25.8492  -17.0553  -20.2472 N   0  0  0  0  0  0  0  0  0  0  0  0
   25.7219  -18.1587  -19.3514 C   0  0  1  0  0  0  0  0  0  0  0  0
   27.1379  -18.6779  -19.1130 C   0  0  0  0  0  0  0  0  0  0  0  0
   27.5438  -19.4119  -20.3309 C   0  0  0  0  0  0  0  0  0  0  0  0
   28.4280  -18.8660  -21.2286 C   0  0  0  0  0  0  0  0  0  0  0  0
   28.8346  -19.5918  -22.3629 C   0  0  0  0  0  0  0  0  0  0  0  0
   28.3217  -20.8636  -22.5486 C   0  0  0  0  0  0  0  0  0  0  0  0
   27.4300  -21.4329  -21.6582 C   0  0  0  0  0  0  0  0  0  0  0  0
   27.0657  -20.6809  -20.5655 C   0  0  0  0  0  0  0  0  0  0  0  0
   25.0417  -17.8571  -18.0714 C   0  0  0  0  0  0  0  0  0  0  0  0
   24.7469  -16.6250  -17.8344 O   0  0  0  0  0  0  0  0  0  0  0  0
   24.6768  -18.7760  -17.0751 N   0  0  0  0  0  0  0  0  0  0  0  0
   23.9375  -18.4698  -15.8709 C   0  0  1  0  0  0  0  0  0  0  0  0
   22.6116  -17.7930  -16.1621 C   0  0  0  0  0  0  0  0  0  0  0  0
   21.6282  -18.8713  -17.2286 S   0  0  0  0  0  0  0  0  0  0  0  0
   23.6866  -19.6152  -15.0014 C   0  0  0  0  0  0  0  0  0  0  0  0
   23.3126  -20.6969  -15.5127 O   0  0  0  0  0  0  0  0  0  0  0  0
   27.0134  -20.8058  -10.8268 C   0  0  0  0  0  0  0  0  0  0  0  0
   26.0947  -20.7707  -12.0292 C   0  0  0  0  0  0  0  0  0  0  0  0
   24.6497  -20.8858  -11.6282 C   0  0  2  0  0  0  0  0  0  0  0  0
   24.4328  -22.0768  -10.7385 C   0  0  0  0  0  0  0  0  0  0  0  0
   23.6614  -20.7237  -12.7281 C   0  0  2  0  0  0  0  0  0  0  0  0
   23.8419  -19.5864  -13.5827 N   0  0  0  0  0  0  0  0  0  0  0  0
   22.3075  -20.8215  -12.1633 C   0  0  0  0  0  0  0  0  0  0  0  0
   21.6308  -19.8035  -11.9214 O   0  0  0  0  0  0  0  0  0  0  0  0
   21.7777  -22.0646  -11.8967 O   0  0  0  0  0  0  0  0  0  0  0  0
  2  1  1  6
  2 10  1  0
  3  2  1  0
  3  4  1  0
  4  5  2  0
  4  9  1  0
  5  6  1  0
  6  7  2  0
  8  7  1  0
  9  8  2  0
 10 11  2  0
 12 13  1  0
 12 10  1  0
 13 16  1  0
 14 15  1  0
 13 14  1  6
 16 17  2  0
 18 19  1  0
 20 21  1  6
 20 19  1  0
 22 20  1  0
 23 16  1  0
 22 23  1  1
 24 26  1  0
 24 22  1  0
 25 24  2  0
M  END
$$$$
