FCI.pdb
     RDKit          3D

 26 26  0  0  1  0  0  0  0  0999 V2000
   14.3616  -13.3016    6.7761 N   0  0  0  0  0  0  0  0  0  0  0  0
   15.7312  -13.6333    6.5508 C   0  0  1  0  0  0  0  0  0  0  0  0
   16.3923  -12.3661    6.0136 C   0  0  0  0  0  0  0  0  0  0  0  0
   17.8544  -12.5810    6.0667 C   0  0  0  0  0  0  0  0  0  0  0  0
   18.6073  -12.0945    7.1070 C   0  0  0  0  0  0  0  0  0  0  0  0
   19.9913  -12.3400    7.1637 C   0  0  0  0  0  0  0  0  0  0  0  0
   20.5700  -13.0804    6.1480 C   0  0  0  0  0  0  0  0  0  0  0  0
   19.8317  -13.5796    5.0908 C   0  0  0  0  0  0  0  0  0  0  0  0
   18.4825  -13.3115    5.0839 C   0  0  0  0  0  0  0  0  0  0  0  0
   16.4568  -14.1541    7.7316 C   0  0  0  0  0  0  0  0  0  0  0  0
   15.8563  -14.0903    8.8702 O   0  0  0  0  0  0  0  0  0  0  0  0
   17.7421  -14.7176    7.7486 N   0  0  0  0  0  0  0  0  0  0  0  0
   18.3174  -15.4814    8.8331 C   0  0  1  0  0  0  0  0  0  0  0  0
   17.4434  -16.6510    9.2444 C   0  0  0  0  0  0  0  0  0  0  0  0
   18.1837  -17.4542   10.6844 S   0  0  0  0  0  0  0  0  0  0  0  0
   19.6646  -15.9826    8.5787 C   0  0  0  0  0  0  0  0  0  0  0  0
   19.8895  -16.6117    7.5180 O   0  0  0  0  0  0  0  0  0  0  0  0
   25.6469  -15.1636   10.1604 C   0  0  0  0  0  0  0  0  0  0  0  0
   24.5828  -16.0516    9.5519 C   0  0  0  0  0  0  0  0  0  0  0  0
   23.1982  -15.5765    9.8972 C   0  0  2  0  0  0  0  0  0  0  0  0
   23.0535  -15.3763   11.3791 C   0  0  0  0  0  0  0  0  0  0  0  0
   22.0832  -16.3112    9.2415 C   0  0  2  0  0  0  0  0  0  0  0  0
   20.7630  -15.8010    9.4721 N   0  0  0  0  0  0  0  0  0  0  0  0
   22.2182  -17.7429    9.5472 C   0  0  0  0  0  0  0  0  0  0  0  0
   22.9163  -18.4941    8.8393 O   0  0  0  0  0  0  0  0  0  0  0  0
   21.5590  -18.2631   10.6390 O   0  0  0  0  0  0  0  0  0  0  0  0
  2  1  1  1
  2 10  1  0
  3  2  1  0
  3  4  1  0
  4  5  2  0
  4  9  1  0
  5  6  1  0
  6  7  2  0
  8  7  1  0
  9  8  2  0
 10 11  2  0
 12 13  1  0
 12 10  1  0
 13 16  1  0
 14 15  1  0
 13 14  1  6
 16 17  2  0
 18 19  1  0
 20 21  1  1
 20 19  1  0
 22 20  1  0
 23 16  1  0
 22 23  1  1
 24 26  1  0
 24 22  1  0
 25 24  2  0
M  END
$$$$
