LWW.pdb
     RDKit          3D

 37 40  0  0  1  0  0  0  0  0999 V2000
    8.4389  -13.9428   17.3205 C   0  0  0  0  0  0  0  0  0  0  0  0
    7.5673  -13.5147   18.4881 C   0  0  2  0  0  0  0  0  0  0  0  0
    7.0890  -12.1102   18.3266 C   0  0  0  0  0  0  0  0  0  0  0  0
    8.1624  -13.8291   19.8212 C   0  0  0  0  0  0  0  0  0  0  0  0
    8.6235  -15.2548   19.9898 C   0  0  2  0  0  0  0  0  0  0  0  0
    7.5934  -16.2113   19.7362 N   0  0  0  0  0  0  0  0  0  0  0  0
    9.0747  -15.3796   21.4059 C   0  0  0  0  0  0  0  0  0  0  0  0
    9.9610  -14.5869   21.8616 O   0  0  0  0  0  0  0  0  0  0  0  0
    8.5763  -16.3467   22.3172 N   0  0  0  0  0  0  0  0  0  0  0  0
    8.9929  -16.3718   23.7181 C   0  0  1  0  0  0  0  0  0  0  0  0
    7.8769  -16.9333   24.5713 C   0  0  0  0  0  0  0  0  0  0  0  0
    6.9743  -15.8999   25.1126 C   0  0  0  0  0  0  0  0  0  0  0  0
    5.7587  -16.0888   25.7634 C   0  0  0  0  0  0  0  0  0  0  0  0
    5.2549  -14.8944   26.0545 N   0  0  0  0  0  0  0  0  0  0  0  0
    6.0754  -13.9024   25.6306 C   0  0  0  0  0  0  0  0  0  0  0  0
    5.9841  -12.5279   25.7188 C   0  0  0  0  0  0  0  0  0  0  0  0
    6.9924  -11.7408   25.2084 C   0  0  0  0  0  0  0  0  0  0  0  0
    8.0762  -12.3256   24.6185 C   0  0  0  0  0  0  0  0  0  0  0  0
    8.1369  -13.6927   24.5464 C   0  0  0  0  0  0  0  0  0  0  0  0
    7.1492  -14.5344   25.0428 C   0  0  0  0  0  0  0  0  0  0  0  0
   10.3115  -16.9676   23.9322 C   0  0  0  0  0  0  0  0  0  0  0  0
   10.7857  -17.8272   23.1364 O   0  0  0  0  0  0  0  0  0  0  0  0
   11.1579  -16.6314   25.0366 N   0  0  0  0  0  0  0  0  0  0  0  0
   12.4726  -17.2630   25.1701 C   0  0  1  0  0  0  0  0  0  0  0  0
   13.2259  -16.6541   26.3383 C   0  0  0  0  0  0  0  0  0  0  0  0
   12.3729  -16.7094   27.5405 C   0  0  0  0  0  0  0  0  0  0  0  0
   12.2502  -17.8015   28.3989 C   0  0  0  0  0  0  0  0  0  0  0  0
   11.3820  -17.4833   29.3703 N   0  0  0  0  0  0  0  0  0  0  0  0
   10.9157  -16.2257   29.2029 C   0  0  0  0  0  0  0  0  0  0  0  0
   10.0295  -15.4474   29.9120 C   0  0  0  0  0  0  0  0  0  0  0  0
    9.7522  -14.1683   29.4809 C   0  0  0  0  0  0  0  0  0  0  0  0
   10.3731  -13.7069   28.3488 C   0  0  0  0  0  0  0  0  0  0  0  0
   11.2625  -14.4645   27.6224 C   0  0  0  0  0  0  0  0  0  0  0  0
   11.5348  -15.7395   28.0584 C   0  0  0  0  0  0  0  0  0  0  0  0
   12.3075  -18.7049   25.3909 C   0  0  0  0  0  0  0  0  0  0  0  0
   13.3919  -19.5663   25.3517 O   0  0  0  0  0  0  0  0  0  0  0  0
   11.1812  -19.2070   25.6220 O   0  0  0  0  0  0  0  0  0  0  0  0
  2  1  1  6
  2  3  1  0
  4  2  1  0
  5  4  1  0
  5  6  1  1
  7  5  1  0
  7  8  2  0
  9  7  1  0
 10 21  1  0
 10  9  1  0
 10 11  1  1
 12 20  1  0
 12 11  1  0
 13 12  2  0
 14 13  1  0
 14 15  1  0
 15 16  1  0
 15 20  2  0
 16 17  2  0
 17 18  1  0
 19 18  2  0
 20 19  1  0
 21 22  2  0
 23 24  1  0
 23 21  1  0
 24 25  1  1
 25 26  1  0
 26 34  1  0
 26 27  2  0
 27 28  1  0
 28 29  1  0
 29 30  2  0
 31 30  1  0
 32 31  2  0
 33 34  2  0
 33 32  1  0
 34 29  1  0
 35 24  1  0
 36 35  1  0
 37 35  2  0
M  END
$$$$
