LWW.pdb
     RDKit          3D

 37 40  0  0  1  0  0  0  0  0999 V2000
    8.8102  -14.4975   16.6483 C   0  0  0  0  0  0  0  0  0  0  0  0
    7.8194  -13.9255   17.6469 C   0  0  2  0  0  0  0  0  0  0  0  0
    7.2846  -12.6083   17.1924 C   0  0  0  0  0  0  0  0  0  0  0  0
    8.3117  -13.9541   19.0564 C   0  0  0  0  0  0  0  0  0  0  0  0
    8.8590  -15.2839   19.5103 C   0  0  2  0  0  0  0  0  0  0  0  0
    7.9454  -16.3638   19.3118 N   0  0  0  0  0  0  0  0  0  0  0  0
    9.1429  -15.1395   20.9674 C   0  0  0  0  0  0  0  0  0  0  0  0
    9.9281  -14.2226   21.3730 O   0  0  0  0  0  0  0  0  0  0  0  0
    8.5873  -15.9733   21.9725 N   0  0  0  0  0  0  0  0  0  0  0  0
    8.8384  -15.7391   23.3934 C   0  0  1  0  0  0  0  0  0  0  0  0
    7.8579  -16.5391   24.2224 C   0  0  0  0  0  0  0  0  0  0  0  0
    6.8732  -15.7041   24.9357 C   0  0  0  0  0  0  0  0  0  0  0  0
    5.6601  -16.1043   25.4880 C   0  0  0  0  0  0  0  0  0  0  0  0
    5.0672  -15.0336   26.0050 N   0  0  0  0  0  0  0  0  0  0  0  0
    5.8249  -13.9237   25.8288 C   0  0  0  0  0  0  0  0  0  0  0  0
    5.6352  -12.6079   26.2005 C   0  0  0  0  0  0  0  0  0  0  0  0
    6.5965  -11.6674   25.9035 C   0  0  0  0  0  0  0  0  0  0  0  0
    7.7313  -12.0431   25.2435 C   0  0  0  0  0  0  0  0  0  0  0  0
    7.8896  -13.3570   24.8882 C   0  0  0  0  0  0  0  0  0  0  0  0
    6.9531  -14.3465   25.1607 C   0  0  0  0  0  0  0  0  0  0  0  0
   10.2441  -15.8733   23.7751 C   0  0  0  0  0  0  0  0  0  0  0  0
   11.0608  -14.9190   23.6368 O   0  0  0  0  0  0  0  0  0  0  0  0
   10.7991  -17.0714   24.3282 N   0  0  0  0  0  0  0  0  0  0  0  0
   12.2013  -17.1015   24.7503 C   0  0  1  0  0  0  0  0  0  0  0  0
   12.3154  -17.7184   26.1320 C   0  0  0  0  0  0  0  0  0  0  0  0
   11.2871  -17.1261   27.0083 C   0  0  0  0  0  0  0  0  0  0  0  0
   10.1353  -17.7705   27.4585 C   0  0  0  0  0  0  0  0  0  0  0  0
    9.4415  -16.9155   28.2241 N   0  0  0  0  0  0  0  0  0  0  0  0
   10.0759  -15.7249   28.3085 C   0  0  0  0  0  0  0  0  0  0  0  0
    9.7859  -14.5471   28.9585 C   0  0  0  0  0  0  0  0  0  0  0  0
   10.6533  -13.4815   28.8539 C   0  0  0  0  0  0  0  0  0  0  0  0
   11.7882  -13.6293   28.0987 C   0  0  0  0  0  0  0  0  0  0  0  0
   12.1009  -14.7955   27.4395 C   0  0  0  0  0  0  0  0  0  0  0  0
   11.2312  -15.8547   27.5486 C   0  0  0  0  0  0  0  0  0  0  0  0
   12.9878  -17.8906   23.7943 C   0  0  0  0  0  0  0  0  0  0  0  0
   12.3780  -18.5801   22.7587 O   0  0  0  0  0  0  0  0  0  0  0  0
   14.2369  -17.9687   23.8812 O   0  0  0  0  0  0  0  0  0  0  0  0
  2  1  1  6
  2  3  1  0
  4  2  1  0
  5  4  1  0
  5  6  1  1
  7  5  1  0
  7  8  2  0
  9  7  1  0
 10 21  1  0
 10  9  1  0
 10 11  1  1
 12 20  1  0
 12 11  1  0
 13 12  2  0
 14 13  1  0
 14 15  1  0
 15 16  1  0
 15 20  2  0
 16 17  2  0
 17 18  1  0
 19 18  2  0
 20 19  1  0
 21 22  2  0
 23 24  1  0
 23 21  1  0
 24 25  1  1
 25 26  1  0
 26 34  1  0
 26 27  2  0
 27 28  1  0
 28 29  1  0
 29 30  2  0
 31 30  1  0
 32 31  2  0
 33 34  2  0
 33 32  1  0
 34 29  1  0
 35 24  1  0
 36 35  1  0
 37 35  2  0
M  END
$$$$
