LWW.pdb
     RDKit          3D

 37 40  0  0  1  0  0  0  0  0999 V2000
   12.5192  -18.8344   17.3477 C   0  0  0  0  0  0  0  0  0  0  0  0
   11.2327  -18.0344   17.2426 C   0  0  2  0  0  0  0  0  0  0  0  0
   11.2138  -17.1898   16.0122 C   0  0  0  0  0  0  0  0  0  0  0  0
   10.8714  -17.3206   18.5034 C   0  0  0  0  0  0  0  0  0  0  0  0
   11.0366  -18.1338   19.7625 C   0  0  2  0  0  0  0  0  0  0  0  0
   10.2291  -19.3119   19.7795 N   0  0  0  0  0  0  0  0  0  0  0  0
   10.6319  -17.2422   20.8876 C   0  0  0  0  0  0  0  0  0  0  0  0
   11.2234  -16.1274   21.0580 O   0  0  0  0  0  0  0  0  0  0  0  0
    9.6036  -17.5499   21.8160 N   0  0  0  0  0  0  0  0  0  0  0  0
    9.2506  -16.6400   22.9042 C   0  0  1  0  0  0  0  0  0  0  0  0
    7.7517  -16.4368   22.9321 C   0  0  0  0  0  0  0  0  0  0  0  0
    7.2255  -15.7775   21.7221 C   0  0  0  0  0  0  0  0  0  0  0  0
    6.3547  -16.3081   20.7751 C   0  0  0  0  0  0  0  0  0  0  0  0
    6.1649  -15.3946   19.8292 N   0  0  0  0  0  0  0  0  0  0  0  0
    6.8681  -14.2663   20.0927 C   0  0  0  0  0  0  0  0  0  0  0  0
    6.9737  -13.0660   19.4193 C   0  0  0  0  0  0  0  0  0  0  0  0
    7.7626  -12.0604   19.9325 C   0  0  0  0  0  0  0  0  0  0  0  0
    8.4348  -12.2575   21.1046 C   0  0  0  0  0  0  0  0  0  0  0  0
    8.3092  -13.4604   21.7489 C   0  0  0  0  0  0  0  0  0  0  0  0
    7.5294  -14.5089   21.2767 C   0  0  0  0  0  0  0  0  0  0  0  0
    9.8644  -16.9855   24.1862 C   0  0  0  0  0  0  0  0  0  0  0  0
    9.6615  -18.1050   24.7360 O   0  0  0  0  0  0  0  0  0  0  0  0
   10.7301  -16.1031   24.9081 N   0  0  0  0  0  0  0  0  0  0  0  0
   10.8888  -16.2560   26.3561 C   0  0  1  0  0  0  0  0  0  0  0  0
    9.5413  -16.1321   27.0429 C   0  0  0  0  0  0  0  0  0  0  0  0
    9.2676  -14.7072   27.3091 C   0  0  0  0  0  0  0  0  0  0  0  0
    9.9280  -13.9156   28.2480 C   0  0  0  0  0  0  0  0  0  0  0  0
    9.4022  -12.6824   28.2095 N   0  0  0  0  0  0  0  0  0  0  0  0
    8.4177  -12.6100   27.2861 C   0  0  0  0  0  0  0  0  0  0  0  0
    7.5899  -11.5927   26.8695 C   0  0  0  0  0  0  0  0  0  0  0  0
    6.6631  -11.8330   25.8786 C   0  0  0  0  0  0  0  0  0  0  0  0
    6.5937  -13.0895   25.3339 C   0  0  0  0  0  0  0  0  0  0  0  0
    7.4093  -14.1231   25.7325 C   0  0  0  0  0  0  0  0  0  0  0  0
    8.3320  -13.8761   26.7213 C   0  0  0  0  0  0  0  0  0  0  0  0
   11.4717  -17.5702   26.6529 C   0  0  0  0  0  0  0  0  0  0  0  0
   11.8785  -17.9026   27.9349 O   0  0  0  0  0  0  0  0  0  0  0  0
   11.6220  -18.4367   25.7581 O   0  0  0  0  0  0  0  0  0  0  0  0
  2  1  1  1
  2  3  1  0
  4  2  1  0
  5  4  1  0
  5  6  1  6
  7  5  1  0
  7  8  2  0
  9  7  1  0
 10 21  1  0
 10  9  1  0
 10 11  1  1
 12 20  1  0
 12 11  1  0
 13 12  2  0
 14 13  1  0
 14 15  1  0
 15 16  1  0
 15 20  2  0
 16 17  2  0
 17 18  1  0
 19 18  2  0
 20 19  1  0
 21 22  2  0
 23 24  1  0
 23 21  1  0
 24 25  1  1
 25 26  1  0
 26 34  1  0
 26 27  2  0
 27 28  1  0
 28 29  1  0
 29 30  2  0
 31 30  1  0
 32 31  2  0
 33 34  2  0
 33 32  1  0
 34 29  1  0
 35 24  1  0
 36 35  1  0
 37 35  2  0
M  END
$$$$
