LWW.pdb
     RDKit          3D

 37 40  0  0  1  0  0  0  0  0999 V2000
    8.5218  -12.2087   17.3978 C   0  0  0  0  0  0  0  0  0  0  0  0
    8.4920  -13.6170   17.9650 C   0  0  2  0  0  0  0  0  0  0  0  0
    7.3852  -13.7849   18.9522 C   0  0  0  0  0  0  0  0  0  0  0  0
    9.8273  -14.1010   18.4260 C   0  0  0  0  0  0  0  0  0  0  0  0
    9.8718  -15.5542   18.8264 C   0  0  2  0  0  0  0  0  0  0  0  0
    8.7963  -16.3196   18.2807 N   0  0  0  0  0  0  0  0  0  0  0  0
    9.7873  -15.5765   20.3153 C   0  0  0  0  0  0  0  0  0  0  0  0
   10.6406  -14.9341   21.0089 O   0  0  0  0  0  0  0  0  0  0  0  0
    8.7961  -16.2826   21.0452 N   0  0  0  0  0  0  0  0  0  0  0  0
    8.7015  -16.1931   22.5012 C   0  0  1  0  0  0  0  0  0  0  0  0
    7.2544  -16.3120   22.9258 C   0  0  0  0  0  0  0  0  0  0  0  0
    7.0169  -15.9052   24.3236 C   0  0  0  0  0  0  0  0  0  0  0  0
    6.7074  -16.7229   25.4063 C   0  0  0  0  0  0  0  0  0  0  0  0
    6.5396  -15.9502   26.4741 N   0  0  0  0  0  0  0  0  0  0  0  0
    6.7223  -14.6435   26.1641 C   0  0  0  0  0  0  0  0  0  0  0  0
    6.6679  -13.4967   26.9305 C   0  0  0  0  0  0  0  0  0  0  0  0
    6.9191  -12.2732   26.3501 C   0  0  0  0  0  0  0  0  0  0  0  0
    7.2206  -12.2029   25.0202 C   0  0  0  0  0  0  0  0  0  0  0  0
    7.2665  -13.3595   24.2869 C   0  0  0  0  0  0  0  0  0  0  0  0
    7.0209  -14.6190   24.8194 C   0  0  0  0  0  0  0  0  0  0  0  0
    9.6402  -17.0634   23.2091 C   0  0  0  0  0  0  0  0  0  0  0  0
    9.9120  -18.2236   22.7885 O   0  0  0  0  0  0  0  0  0  0  0  0
   10.3170  -16.6798   24.4108 N   0  0  0  0  0  0  0  0  0  0  0  0
   11.5115  -17.4089   24.8428 C   0  0  1  0  0  0  0  0  0  0  0  0
   12.2695  -16.5985   25.8779 C   0  0  0  0  0  0  0  0  0  0  0  0
   11.4123  -16.4133   27.0641 C   0  0  0  0  0  0  0  0  0  0  0  0
   11.0179  -17.4194   27.9453 C   0  0  0  0  0  0  0  0  0  0  0  0
   10.2393  -16.8745   28.8916 N   0  0  0  0  0  0  0  0  0  0  0  0
   10.0930  -15.5467   28.6855 C   0  0  0  0  0  0  0  0  0  0  0  0
    9.4117  -14.5584   29.3585 C   0  0  0  0  0  0  0  0  0  0  0  0
    9.4575  -13.2626   28.8921 C   0  0  0  0  0  0  0  0  0  0  0  0
   10.1867  -12.9959   27.7619 C   0  0  0  0  0  0  0  0  0  0  0  0
   10.8763  -13.9654   27.0712 C   0  0  0  0  0  0  0  0  0  0  0  0
   10.8265  -15.2560   27.5424 C   0  0  0  0  0  0  0  0  0  0  0  0
   11.1196  -18.6999   25.4214 C   0  0  0  0  0  0  0  0  0  0  0  0
   12.0574  -19.6878   25.6749 O   0  0  0  0  0  0  0  0  0  0  0  0
    9.9244  -18.9540   25.7058 O   0  0  0  0  0  0  0  0  0  0  0  0
  2  1  1  1
  2  3  1  0
  4  2  1  0
  5  4  1  0
  5  6  1  6
  7  5  1  0
  7  8  2  0
  9  7  1  0
 10 21  1  0
 10  9  1  0
 10 11  1  1
 12 20  1  0
 12 11  1  0
 13 12  2  0
 14 13  1  0
 14 15  1  0
 15 16  1  0
 15 20  2  0
 16 17  2  0
 17 18  1  0
 19 18  2  0
 20 19  1  0
 21 22  2  0
 23 24  1  0
 23 21  1  0
 24 25  1  1
 25 26  1  0
 26 34  1  0
 26 27  2  0
 27 28  1  0
 28 29  1  0
 29 30  2  0
 31 30  1  0
 32 31  2  0
 33 34  2  0
 33 32  1  0
 34 29  1  0
 35 24  1  0
 36 35  1  0
 37 35  2  0
M  END
$$$$
