LWW.pdb
     RDKit          3D

 37 40  0  0  1  0  0  0  0  0999 V2000
   11.6558  -17.7215   15.6486 C   0  0  0  0  0  0  0  0  0  0  0  0
   10.2130  -17.2619   15.7625 C   0  0  2  0  0  0  0  0  0  0  0  0
    9.8311  -16.3743   14.6250 C   0  0  0  0  0  0  0  0  0  0  0  0
    9.8601  -16.7397   17.1162 C   0  0  0  0  0  0  0  0  0  0  0  0
   10.3377  -17.5880   18.2678 C   0  0  2  0  0  0  0  0  0  0  0  0
    9.7089  -18.8695   18.3192 N   0  0  0  0  0  0  0  0  0  0  0  0
   10.0085  -16.8269   19.5075 C   0  0  0  0  0  0  0  0  0  0  0  0
   10.5083  -15.6705   19.6937 O   0  0  0  0  0  0  0  0  0  0  0  0
    9.1520  -17.3075   20.5320 N   0  0  0  0  0  0  0  0  0  0  0  0
    8.9111  -16.5448   21.7555 C   0  0  1  0  0  0  0  0  0  0  0  0
    7.4440  -16.6143   22.1183 C   0  0  0  0  0  0  0  0  0  0  0  0
    7.1141  -15.9068   23.3698 C   0  0  0  0  0  0  0  0  0  0  0  0
    6.5870  -16.4475   24.5388 C   0  0  0  0  0  0  0  0  0  0  0  0
    6.4087  -15.4591   25.4086 N   0  0  0  0  0  0  0  0  0  0  0  0
    6.7924  -14.2707   24.8818 C   0  0  0  0  0  0  0  0  0  0  0  0
    6.8069  -12.9921   25.4018 C   0  0  0  0  0  0  0  0  0  0  0  0
    7.2760  -11.9474   24.6367 C   0  0  0  0  0  0  0  0  0  0  0  0
    7.7241  -12.1836   23.3687 C   0  0  0  0  0  0  0  0  0  0  0  0
    7.6965  -13.4641   22.8816 C   0  0  0  0  0  0  0  0  0  0  0  0
    7.2332  -14.5542   23.6077 C   0  0  0  0  0  0  0  0  0  0  0  0
    9.8442  -16.8545   22.8385 C   0  0  0  0  0  0  0  0  0  0  0  0
    9.9882  -18.0333   23.2703 O   0  0  0  0  0  0  0  0  0  0  0  0
   10.6568  -15.8685   23.4842 N   0  0  0  0  0  0  0  0  0  0  0  0
   11.5577  -16.2597   24.5706 C   0  0  1  0  0  0  0  0  0  0  0  0
   10.8650  -17.2482   25.4903 C   0  0  0  0  0  0  0  0  0  0  0  0
   10.0103  -16.5059   26.4361 C   0  0  0  0  0  0  0  0  0  0  0  0
    8.7353  -16.8894   26.8507 C   0  0  0  0  0  0  0  0  0  0  0  0
    8.2692  -15.9646   27.7028 N   0  0  0  0  0  0  0  0  0  0  0  0
    9.1745  -14.9765   27.8794 C   0  0  0  0  0  0  0  0  0  0  0  0
    9.1790  -13.8274   28.6367 C   0  0  0  0  0  0  0  0  0  0  0  0
   10.2802  -12.9995   28.6094 C   0  0  0  0  0  0  0  0  0  0  0  0
   11.3464  -13.3493   27.8213 C   0  0  0  0  0  0  0  0  0  0  0  0
   11.3667  -14.4918   27.0554 C   0  0  0  0  0  0  0  0  0  0  0  0
   10.2649  -15.3134   27.0878 C   0  0  0  0  0  0  0  0  0  0  0  0
   12.7677  -16.8748   24.0114 C   0  0  0  0  0  0  0  0  0  0  0  0
   12.9638  -16.9586   22.6425 O   0  0  0  0  0  0  0  0  0  0  0  0
   13.6647  -17.3454   24.7516 O   0  0  0  0  0  0  0  0  0  0  0  0
  2  1  1  1
  2  3  1  0
  4  2  1  0
  5  4  1  0
  5  6  1  1
  7  5  1  0
  7  8  2  0
  9  7  1  0
 10 21  1  0
 10  9  1  0
 10 11  1  1
 12 20  1  0
 12 11  1  0
 13 12  2  0
 14 13  1  0
 14 15  1  0
 15 16  1  0
 15 20  2  0
 16 17  2  0
 17 18  1  0
 19 18  2  0
 20 19  1  0
 21 22  2  0
 23 24  1  0
 23 21  1  0
 24 25  1  1
 25 26  1  0
 26 34  1  0
 26 27  2  0
 27 28  1  0
 28 29  1  0
 29 30  2  0
 31 30  1  0
 32 31  2  0
 33 34  2  0
 33 32  1  0
 34 29  1  0
 35 24  1  0
 36 35  1  0
 37 35  2  0
M  END
$$$$
