LWW.pdb
     RDKit          3D

 37 40  0  0  1  0  0  0  0  0999 V2000
    8.6305  -11.7062   18.0364 C   0  0  0  0  0  0  0  0  0  0  0  0
    8.2334  -13.1156   18.4391 C   0  0  2  0  0  0  0  0  0  0  0  0
    6.7718  -13.3476   18.2456 C   0  0  0  0  0  0  0  0  0  0  0  0
    8.7662  -13.5256   19.7725 C   0  0  0  0  0  0  0  0  0  0  0  0
    9.1037  -14.9900   19.8977 C   0  0  2  0  0  0  0  0  0  0  0  0
    8.0162  -15.8481   19.5494 N   0  0  0  0  0  0  0  0  0  0  0  0
    9.4677  -15.2104   21.3272 C   0  0  0  0  0  0  0  0  0  0  0  0
   10.4332  -14.5602   21.8437 O   0  0  0  0  0  0  0  0  0  0  0  0
    8.7991  -16.1202   22.1870 N   0  0  0  0  0  0  0  0  0  0  0  0
    9.1594  -16.2538   23.5974 C   0  0  1  0  0  0  0  0  0  0  0  0
    8.0346  -16.9317   24.3483 C   0  0  0  0  0  0  0  0  0  0  0  0
    7.1090  -15.9858   24.9997 C   0  0  0  0  0  0  0  0  0  0  0  0
    5.8622  -16.2609   25.5532 C   0  0  0  0  0  0  0  0  0  0  0  0
    5.3477  -15.1211   26.0021 N   0  0  0  0  0  0  0  0  0  0  0  0
    6.1910  -14.0839   25.7785 C   0  0  0  0  0  0  0  0  0  0  0  0
    6.0992  -12.7390   26.0754 C   0  0  0  0  0  0  0  0  0  0  0  0
    7.1338  -11.8927   25.7435 C   0  0  0  0  0  0  0  0  0  0  0  0
    8.2439  -12.3898   25.1231 C   0  0  0  0  0  0  0  0  0  0  0  0
    8.3044  -13.7296   24.8418 C   0  0  0  0  0  0  0  0  0  0  0  0
    7.2910  -14.6279   25.1522 C   0  0  0  0  0  0  0  0  0  0  0  0
   10.4923  -16.8150   23.8164 C   0  0  0  0  0  0  0  0  0  0  0  0
   11.0623  -17.5261   22.9410 O   0  0  0  0  0  0  0  0  0  0  0  0
   11.2472  -16.6073   25.0149 N   0  0  0  0  0  0  0  0  0  0  0  0
   12.5159  -17.3119   25.2122 C   0  0  1  0  0  0  0  0  0  0  0  0
   13.3178  -16.6412   26.3122 C   0  0  0  0  0  0  0  0  0  0  0  0
   12.4140  -16.3072   27.4293 C   0  0  0  0  0  0  0  0  0  0  0  0
   12.0632  -17.1628   28.4730 C   0  0  0  0  0  0  0  0  0  0  0  0
   11.2203  -16.5138   29.2897 N   0  0  0  0  0  0  0  0  0  0  0  0
   10.9891  -15.2598   28.8412 C   0  0  0  0  0  0  0  0  0  0  0  0
   10.2211  -14.2185   29.3098 C   0  0  0  0  0  0  0  0  0  0  0  0
   10.1916  -13.0290   28.6147 C   0  0  0  0  0  0  0  0  0  0  0  0
   10.9348  -12.9192   27.4676 C   0  0  0  0  0  0  0  0  0  0  0  0
   11.7104  -13.9447   26.9784 C   0  0  0  0  0  0  0  0  0  0  0  0
   11.7354  -15.1284   27.6772 C   0  0  0  0  0  0  0  0  0  0  0  0
   12.2530  -18.7089   25.5789 C   0  0  0  0  0  0  0  0  0  0  0  0
   13.2632  -19.6570   25.5666 O   0  0  0  0  0  0  0  0  0  0  0  0
   11.1069  -19.0927   25.9152 O   0  0  0  0  0  0  0  0  0  0  0  0
  2  1  1  1
  2  3  1  0
  4  2  1  0
  5  4  1  0
  5  6  1  1
  7  5  1  0
  7  8  2  0
  9  7  1  0
 10 21  1  0
 10  9  1  0
 10 11  1  1
 12 20  1  0
 12 11  1  0
 13 12  2  0
 14 13  1  0
 14 15  1  0
 15 16  1  0
 15 20  2  0
 16 17  2  0
 17 18  1  0
 19 18  2  0
 20 19  1  0
 21 22  2  0
 23 24  1  0
 23 21  1  0
 24 25  1  1
 25 26  1  0
 26 34  1  0
 26 27  2  0
 27 28  1  0
 28 29  1  0
 29 30  2  0
 31 30  1  0
 32 31  2  0
 33 34  2  0
 33 32  1  0
 34 29  1  0
 35 24  1  0
 36 35  1  0
 37 35  2  0
M  END
$$$$
