LWW.pdb
     RDKit          3D

 37 40  0  0  1  0  0  0  0  0999 V2000
    8.3860  -14.0656   17.3199 C   0  0  0  0  0  0  0  0  0  0  0  0
    7.8315  -13.3936   18.5637 C   0  0  2  0  0  0  0  0  0  0  0  0
    7.5746  -11.9418   18.3316 C   0  0  0  0  0  0  0  0  0  0  0  0
    8.6026  -13.7074   19.8033 C   0  0  0  0  0  0  0  0  0  0  0  0
    8.9123  -15.1694   20.0048 C   0  0  2  0  0  0  0  0  0  0  0  0
    7.7968  -16.0210   19.7387 N   0  0  0  0  0  0  0  0  0  0  0  0
    9.3140  -15.3148   21.4338 C   0  0  0  0  0  0  0  0  0  0  0  0
   10.2461  -14.5882   21.9079 O   0  0  0  0  0  0  0  0  0  0  0  0
    8.7180  -16.2318   22.3382 N   0  0  0  0  0  0  0  0  0  0  0  0
    9.1134  -16.2945   23.7441 C   0  0  1  0  0  0  0  0  0  0  0  0
    7.9865  -16.8826   24.5643 C   0  0  0  0  0  0  0  0  0  0  0  0
    7.0186  -15.8763   25.0398 C   0  0  0  0  0  0  0  0  0  0  0  0
    5.7199  -16.0921   25.4909 C   0  0  0  0  0  0  0  0  0  0  0  0
    5.1838  -14.9136   25.7891 N   0  0  0  0  0  0  0  0  0  0  0  0
    6.0620  -13.9067   25.5611 C   0  0  0  0  0  0  0  0  0  0  0  0
    5.9646  -12.5404   25.7324 C   0  0  0  0  0  0  0  0  0  0  0  0
    7.0403  -11.7346   25.4318 C   0  0  0  0  0  0  0  0  0  0  0  0
    8.1964  -12.2928   24.9667 C   0  0  0  0  0  0  0  0  0  0  0  0
    8.2612  -13.6523   24.8076 C   0  0  0  0  0  0  0  0  0  0  0  0
    7.2078  -14.5119   25.0933 C   0  0  0  0  0  0  0  0  0  0  0  0
   10.4306  -16.8923   23.9616 C   0  0  0  0  0  0  0  0  0  0  0  0
   10.8950  -17.7708   23.1810 O   0  0  0  0  0  0  0  0  0  0  0  0
   11.2863  -16.5370   25.0528 N   0  0  0  0  0  0  0  0  0  0  0  0
   12.5618  -17.2323   25.2392 C   0  0  1  0  0  0  0  0  0  0  0  0
   13.2817  -16.6811   26.4561 C   0  0  0  0  0  0  0  0  0  0  0  0
   12.3640  -16.7103   27.6106 C   0  0  0  0  0  0  0  0  0  0  0  0
   12.1829  -17.7885   28.4762 C   0  0  0  0  0  0  0  0  0  0  0  0
   11.2665  -17.4475   29.3942 N   0  0  0  0  0  0  0  0  0  0  0  0
   10.8238  -16.1878   29.1840 C   0  0  0  0  0  0  0  0  0  0  0  0
    9.9088  -15.3904   29.8328 C   0  0  0  0  0  0  0  0  0  0  0  0
    9.6693  -14.1150   29.3694 C   0  0  0  0  0  0  0  0  0  0  0  0
   10.3559  -13.6763   28.2666 C   0  0  0  0  0  0  0  0  0  0  0  0
   11.2752  -14.4533   27.6005 C   0  0  0  0  0  0  0  0  0  0  0  0
   11.5095  -15.7246   28.0685 C   0  0  0  0  0  0  0  0  0  0  0  0
   12.3191  -18.6686   25.4217 C   0  0  0  0  0  0  0  0  0  0  0  0
   13.3563  -19.5854   25.3637 O   0  0  0  0  0  0  0  0  0  0  0  0
   11.1666  -19.1156   25.6358 O   0  0  0  0  0  0  0  0  0  0  0  0
  2  1  1  6
  2  3  1  0
  4  2  1  0
  5  4  1  0
  5  6  1  1
  7  5  1  0
  7  8  2  0
  9  7  1  0
 10 21  1  0
 10  9  1  0
 10 11  1  1
 12 20  1  0
 12 11  1  0
 13 12  2  0
 14 13  1  0
 14 15  1  0
 15 16  1  0
 15 20  2  0
 16 17  2  0
 17 18  1  0
 19 18  2  0
 20 19  1  0
 21 22  2  0
 23 24  1  0
 23 21  1  0
 24 25  1  1
 25 26  1  0
 26 34  1  0
 26 27  2  0
 27 28  1  0
 28 29  1  0
 29 30  2  0
 31 30  1  0
 32 31  2  0
 33 34  2  0
 33 32  1  0
 34 29  1  0
 35 24  1  0
 36 35  1  0
 37 35  2  0
M  END
$$$$
