LWW.pdb
     RDKit          3D

 37 40  0  0  1  0  0  0  0  0999 V2000
    7.9574  -23.4559   24.9000 C   0  0  0  0  0  0  0  0  0  0  0  0
    8.8402  -23.3040   23.6738 C   0  0  2  0  0  0  0  0  0  0  0  0
   10.1682  -23.9554   23.8729 C   0  0  0  0  0  0  0  0  0  0  0  0
    8.8950  -21.9068   23.1497 C   0  0  0  0  0  0  0  0  0  0  0  0
    7.5577  -21.2199   23.0334 C   0  0  2  0  0  0  0  0  0  0  0  0
    6.7988  -21.6571   21.9050 N   0  0  0  0  0  0  0  0  0  0  0  0
    7.8503  -19.7638   22.8968 C   0  0  0  0  0  0  0  0  0  0  0  0
    8.5643  -19.3483   21.9276 O   0  0  0  0  0  0  0  0  0  0  0  0
    7.3792  -18.7703   23.7940 N   0  0  0  0  0  0  0  0  0  0  0  0
    7.7830  -17.3705   23.6745 C   0  0  1  0  0  0  0  0  0  0  0  0
    6.5887  -16.4736   23.9156 C   0  0  0  0  0  0  0  0  0  0  0  0
    6.8528  -15.0522   23.6233 C   0  0  0  0  0  0  0  0  0  0  0  0
    7.3764  -14.5074   22.4547 C   0  0  0  0  0  0  0  0  0  0  0  0
    7.4850  -13.1938   22.6226 N   0  0  0  0  0  0  0  0  0  0  0  0
    7.0573  -12.8226   23.8539 C   0  0  0  0  0  0  0  0  0  0  0  0
    6.9679  -11.5890   24.4670 C   0  0  0  0  0  0  0  0  0  0  0  0
    6.4677  -11.4955   25.7467 C   0  0  0  0  0  0  0  0  0  0  0  0
    6.0631  -12.6238   26.4006 C   0  0  0  0  0  0  0  0  0  0  0  0
    6.1649  -13.8334   25.7646 C   0  0  0  0  0  0  0  0  0  0  0  0
    6.6624  -13.9864   24.4765 C   0  0  0  0  0  0  0  0  0  0  0  0
    8.9871  -17.0356   24.4344 C   0  0  0  0  0  0  0  0  0  0  0  0
    8.9222  -16.6135   25.6238 O   0  0  0  0  0  0  0  0  0  0  0  0
   10.3117  -17.1582   23.9057 N   0  0  0  0  0  0  0  0  0  0  0  0
   11.3621  -16.2351   24.3414 C   0  0  1  0  0  0  0  0  0  0  0  0
   12.1427  -16.8416   25.4928 C   0  0  0  0  0  0  0  0  0  0  0  0
   11.2948  -16.8419   26.6999 C   0  0  0  0  0  0  0  0  0  0  0  0
   10.7962  -17.9754   27.3411 C   0  0  0  0  0  0  0  0  0  0  0  0
   10.0636  -17.5810   28.3930 N   0  0  0  0  0  0  0  0  0  0  0  0
   10.0477  -16.2328   28.4872 C   0  0  0  0  0  0  0  0  0  0  0  0
    9.4574  -15.3570   29.3696 C   0  0  0  0  0  0  0  0  0  0  0  0
    9.6324  -14.0007   29.2008 C   0  0  0  0  0  0  0  0  0  0  0  0
   10.3957  -13.5620   28.1496 C   0  0  0  0  0  0  0  0  0  0  0  0
   10.9963  -14.4163   27.2541 C   0  0  0  0  0  0  0  0  0  0  0  0
   10.8178  -15.7682   27.4287 C   0  0  0  0  0  0  0  0  0  0  0  0
   12.2722  -15.9596   23.2230 C   0  0  0  0  0  0  0  0  0  0  0  0
   13.3448  -15.0944   23.3662 O   0  0  0  0  0  0  0  0  0  0  0  0
   12.1112  -16.4963   22.1004 O   0  0  0  0  0  0  0  0  0  0  0  0
  2  1  1  1
  2  3  1  0
  4  2  1  0
  5  4  1  0
  5  6  1  6
  7  5  1  0
  7  8  2  0
  9  7  1  0
 10 21  1  0
 10  9  1  0
 10 11  1  1
 12 20  1  0
 12 11  1  0
 13 12  2  0
 14 13  1  0
 14 15  1  0
 15 16  1  0
 15 20  2  0
 16 17  2  0
 17 18  1  0
 19 18  2  0
 20 19  1  0
 21 22  2  0
 23 24  1  0
 23 21  1  0
 24 25  1  1
 25 26  1  0
 26 34  1  0
 26 27  2  0
 27 28  1  0
 28 29  1  0
 29 30  2  0
 31 30  1  0
 32 31  2  0
 33 34  2  0
 33 32  1  0
 34 29  1  0
 35 24  1  0
 36 35  1  0
 37 35  2  0
M  END
$$$$
