LWW.pdb
     RDKit          3D

 37 40  0  0  1  0  0  0  0  0999 V2000
    8.9312  -20.1586   17.6096 C   0  0  0  0  0  0  0  0  0  0  0  0
    8.1380  -18.8694   17.4877 C   0  0  2  0  0  0  0  0  0  0  0  0
    7.9520  -18.4755   16.0602 C   0  0  0  0  0  0  0  0  0  0  0  0
    8.6307  -17.7809   18.3834 C   0  0  0  0  0  0  0  0  0  0  0  0
    8.7929  -18.1744   19.8300 C   0  0  2  0  0  0  0  0  0  0  0  0
    7.5989  -18.7097   20.4030 N   0  0  0  0  0  0  0  0  0  0  0  0
    9.1740  -16.9295   20.5578 C   0  0  0  0  0  0  0  0  0  0  0  0
   10.1937  -16.2638   20.1852 O   0  0  0  0  0  0  0  0  0  0  0  0
    8.4647  -16.4108   21.6721 N   0  0  0  0  0  0  0  0  0  0  0  0
    9.0603  -15.4270   22.5744 C   0  0  1  0  0  0  0  0  0  0  0  0
    8.1388  -14.2347   22.7077 C   0  0  0  0  0  0  0  0  0  0  0  0
    7.1791  -14.3553   23.8213 C   0  0  0  0  0  0  0  0  0  0  0  0
    6.5123  -15.4996   24.2490 C   0  0  0  0  0  0  0  0  0  0  0  0
    5.7159  -15.1621   25.2575 N   0  0  0  0  0  0  0  0  0  0  0  0
    5.8131  -13.8389   25.5340 C   0  0  0  0  0  0  0  0  0  0  0  0
    5.2019  -13.0473   26.4855 C   0  0  0  0  0  0  0  0  0  0  0  0
    5.5048  -11.7057   26.5568 C   0  0  0  0  0  0  0  0  0  0  0  0
    6.4082  -11.1674   25.6859 C   0  0  0  0  0  0  0  0  0  0  0  0
    6.9975  -11.9798   24.7529 C   0  0  0  0  0  0  0  0  0  0  0  0
    6.7288  -13.3378   24.6349 C   0  0  0  0  0  0  0  0  0  0  0  0
    9.5429  -15.9952   23.8330 C   0  0  0  0  0  0  0  0  0  0  0  0
    9.0667  -15.6348   24.9466 O   0  0  0  0  0  0  0  0  0  0  0  0
   10.5716  -16.9880   23.9057 N   0  0  0  0  0  0  0  0  0  0  0  0
   11.8707  -16.6542   24.4941 C   0  0  1  0  0  0  0  0  0  0  0  0
   11.9883  -17.2676   25.8771 C   0  0  0  0  0  0  0  0  0  0  0  0
   10.9695  -16.6651   26.7575 C   0  0  0  0  0  0  0  0  0  0  0  0
    9.7311  -17.2258   27.0679 C   0  0  0  0  0  0  0  0  0  0  0  0
    9.0783  -16.3879   27.8866 N   0  0  0  0  0  0  0  0  0  0  0  0
    9.8230  -15.2888   28.1403 C   0  0  0  0  0  0  0  0  0  0  0  0
    9.6114  -14.1630   28.9030 C   0  0  0  0  0  0  0  0  0  0  0  0
   10.5874  -13.1924   28.9677 C   0  0  0  0  0  0  0  0  0  0  0  0
   11.7491  -13.3801   28.2638 C   0  0  0  0  0  0  0  0  0  0  0  0
   11.9850  -14.4959   27.4945 C   0  0  0  0  0  0  0  0  0  0  0  0
   11.0071  -15.4604   27.4348 C   0  0  0  0  0  0  0  0  0  0  0  0
   12.9470  -17.1664   23.6371 C   0  0  0  0  0  0  0  0  0  0  0  0
   14.2770  -16.8956   23.9152 O   0  0  0  0  0  0  0  0  0  0  0  0
   12.7011  -17.8655   22.6248 O   0  0  0  0  0  0  0  0  0  0  0  0
  2  1  1  6
  2  3  1  0
  4  2  1  0
  5  4  1  0
  5  6  1  1
  7  5  1  0
  7  8  2  0
  9  7  1  0
 10 21  1  0
 10  9  1  0
 10 11  1  1
 12 20  1  0
 12 11  1  0
 13 12  2  0
 14 13  1  0
 14 15  1  0
 15 16  1  0
 15 20  2  0
 16 17  2  0
 17 18  1  0
 19 18  2  0
 20 19  1  0
 21 22  2  0
 23 24  1  0
 23 21  1  0
 24 25  1  1
 25 26  1  0
 26 34  1  0
 26 27  2  0
 27 28  1  0
 28 29  1  0
 29 30  2  0
 31 30  1  0
 32 31  2  0
 33 34  2  0
 33 32  1  0
 34 29  1  0
 35 24  1  0
 36 35  1  0
 37 35  2  0
M  END
$$$$
