LWW.pdb
     RDKit          3D

 37 40  0  0  1  0  0  0  0  0999 V2000
    7.5211  -14.4254   17.5354 C   0  0  0  0  0  0  0  0  0  0  0  0
    7.2642  -13.6622   18.8229 C   0  0  2  0  0  0  0  0  0  0  0  0
    7.0513  -12.2081   18.5626 C   0  0  0  0  0  0  0  0  0  0  0  0
    8.2462  -13.9723   19.9043 C   0  0  0  0  0  0  0  0  0  0  0  0
    8.4768  -15.4422   20.1494 C   0  0  2  0  0  0  0  0  0  0  0  0
    7.2650  -16.1935   20.2350 N   0  0  0  0  0  0  0  0  0  0  0  0
    9.2081  -15.5363   21.4459 C   0  0  0  0  0  0  0  0  0  0  0  0
   10.2019  -14.7724   21.6706 O   0  0  0  0  0  0  0  0  0  0  0  0
    8.8717  -16.4425   22.4849 N   0  0  0  0  0  0  0  0  0  0  0  0
    9.6871  -16.5681   23.6916 C   0  0  1  0  0  0  0  0  0  0  0  0
    8.8012  -16.8973   24.8729 C   0  0  0  0  0  0  0  0  0  0  0  0
    7.6933  -15.9418   25.0607 C   0  0  0  0  0  0  0  0  0  0  0  0
    6.3294  -16.2165   25.0910 C   0  0  0  0  0  0  0  0  0  0  0  0
    5.6790  -15.0682   25.2456 N   0  0  0  0  0  0  0  0  0  0  0  0
    6.5416  -14.0257   25.3226 C   0  0  0  0  0  0  0  0  0  0  0  0
    6.3395  -12.6710   25.4944 C   0  0  0  0  0  0  0  0  0  0  0  0
    7.4207  -11.8202   25.5565 C   0  0  0  0  0  0  0  0  0  0  0  0
    8.6857  -12.3225   25.4481 C   0  0  0  0  0  0  0  0  0  0  0  0
    8.8529  -13.6719   25.2781 C   0  0  0  0  0  0  0  0  0  0  0  0
    7.7997  -14.5753   25.2072 C   0  0  0  0  0  0  0  0  0  0  0  0
   10.8609  -17.4249   23.5253 C   0  0  0  0  0  0  0  0  0  0  0  0
   10.7765  -18.5648   22.9865 O   0  0  0  0  0  0  0  0  0  0  0  0
   12.1762  -17.0496   23.9479 N   0  0  0  0  0  0  0  0  0  0  0  0
   12.6860  -17.5036   25.2437 C   0  0  1  0  0  0  0  0  0  0  0  0
   11.5416  -17.6549   26.2288 C   0  0  0  0  0  0  0  0  0  0  0  0
   11.3301  -16.3688   26.9197 C   0  0  0  0  0  0  0  0  0  0  0  0
   11.2038  -15.1259   26.3001 C   0  0  0  0  0  0  0  0  0  0  0  0
   11.0319  -14.1935   27.2487 N   0  0  0  0  0  0  0  0  0  0  0  0
   11.0370  -14.7547   28.4784 C   0  0  0  0  0  0  0  0  0  0  0  0
   10.8986  -14.2424   29.7481 C   0  0  0  0  0  0  0  0  0  0  0  0
   10.9457  -15.0913   30.8326 C   0  0  0  0  0  0  0  0  0  0  0  0
   11.1307  -16.4317   30.6108 C   0  0  0  0  0  0  0  0  0  0  0  0
   11.2715  -16.9686   29.3521 C   0  0  0  0  0  0  0  0  0  0  0  0
   11.2232  -16.1159   28.2747 C   0  0  0  0  0  0  0  0  0  0  0  0
   13.3675  -18.7937   25.0817 C   0  0  0  0  0  0  0  0  0  0  0  0
   12.7633  -19.8463   24.4136 O   0  0  0  0  0  0  0  0  0  0  0  0
   14.5185  -18.9883   25.5416 O   0  0  0  0  0  0  0  0  0  0  0  0
  2  1  1  6
  2  3  1  0
  4  2  1  0
  5  4  1  0
  5  6  1  1
  7  5  1  0
  7  8  2  0
  9  7  1  0
 10 21  1  0
 10  9  1  0
 10 11  1  1
 12 20  1  0
 12 11  1  0
 13 12  2  0
 14 13  1  0
 14 15  1  0
 15 16  1  0
 15 20  2  0
 16 17  2  0
 17 18  1  0
 19 18  2  0
 20 19  1  0
 21 22  2  0
 23 24  1  0
 23 21  1  0
 24 25  1  1
 25 26  1  0
 26 34  1  0
 26 27  2  0
 27 28  1  0
 28 29  1  0
 29 30  2  0
 31 30  1  0
 32 31  2  0
 33 34  2  0
 33 32  1  0
 34 29  1  0
 35 24  1  0
 36 35  1  0
 37 35  2  0
M  END
$$$$
