CTY.pdb
     RDKit          3D

 26 26  0  0  1  0  0  0  0  0999 V2000
    7.5907  -14.3742   18.3805 N   0  0  0  0  0  0  0  0  0  0  0  0
    8.1880  -14.1217   19.6533 C   0  0  1  0  0  0  0  0  0  0  0  0
    7.5731  -12.8663   20.2875 C   0  0  0  0  0  0  0  0  0  0  0  0
    8.2458  -11.3739   19.4898 S   0  0  0  0  0  0  0  0  0  0  0  0
    8.0092  -15.2209   20.6186 C   0  0  0  0  0  0  0  0  0  0  0  0
    6.8888  -15.7913   20.6621 O   0  0  0  0  0  0  0  0  0  0  0  0
    9.5597  -19.0995   22.8248 C   0  0  0  0  0  0  0  0  0  0  0  0
    9.7092  -17.9371   21.8702 C   0  0  1  0  0  0  0  0  0  0  0  0
    9.3623  -18.2538   20.5782 O   0  0  0  0  0  0  0  0  0  0  0  0
    8.8588  -16.7788   22.4081 C   0  0  2  0  0  0  0  0  0  0  0  0
    9.0139  -15.6836   21.5054 N   0  0  0  0  0  0  0  0  0  0  0  0
    9.3389  -16.4963   23.7767 C   0  0  0  0  0  0  0  0  0  0  0  0
   10.4820  -15.9643   23.8702 O   0  0  0  0  0  0  0  0  0  0  0  0
    6.1338  -10.8822   25.5858 O   0  0  0  0  0  0  0  0  0  0  0  0
    6.6278  -12.1378   25.9877 C   0  0  0  0  0  0  0  0  0  0  0  0
    5.9075  -13.2930   25.7549 C   0  0  0  0  0  0  0  0  0  0  0  0
    6.3992  -14.5257   26.1530 C   0  0  0  0  0  0  0  0  0  0  0  0
    7.6204  -14.6016   26.7883 C   0  0  0  0  0  0  0  0  0  0  0  0
    8.1263  -15.9337   27.2051 C   0  0  0  0  0  0  0  0  0  0  0  0
    9.1907  -16.4326   26.2507 C   0  0  2  0  0  0  0  0  0  0  0  0
    8.6369  -16.7680   24.9568 N   0  0  0  0  0  0  0  0  0  0  0  0
    9.9769  -17.5412   26.8264 C   0  0  0  0  0  0  0  0  0  0  0  0
   10.8412  -17.3055   27.8796 O   0  0  0  0  0  0  0  0  0  0  0  0
    8.3676  -13.4716   27.0379 C   0  0  0  0  0  0  0  0  0  0  0  0
    7.8437  -12.2553   26.6253 C   0  0  0  0  0  0  0  0  0  0  0  0
    9.8858  -18.7106   26.3847 O   0  0  0  0  0  0  0  0  0  0  0  0
  2  5  1  0
  2  1  1  6
  3  2  1  0
  4  3  1  0
  5  6  2  0
  8  9  1  0
  8 10  1  0
  8  7  1  1
 11  5  1  0
 10 11  1  6
 12 10  1  0
 12 21  1  0
 13 12  2  0
 15 14  1  0
 16 15  2  0
 17 16  1  0
 18 24  1  0
 18 17  2  0
 19 18  1  0
 20 21  1  0
 20 19  1  1
 22 20  1  0
 23 22  1  0
 24 25  2  0
 25 15  1  0
 26 22  2  0
M  END
$$$$
