CTY.pdb
     RDKit          3D

 26 26  0  0  1  0  0  0  0  0999 V2000
    8.0996  -15.0291   16.8838 N   0  0  0  0  0  0  0  0  0  0  0  0
    8.6992  -14.5781   18.0993 C   0  0  1  0  0  0  0  0  0  0  0  0
    8.3748  -13.0959   18.3321 C   0  0  0  0  0  0  0  0  0  0  0  0
    9.2644  -12.4881   19.8003 S   0  0  0  0  0  0  0  0  0  0  0  0
    8.2387  -15.3102   19.2926 C   0  0  0  0  0  0  0  0  0  0  0  0
    7.1355  -15.9112   19.2267 O   0  0  0  0  0  0  0  0  0  0  0  0
    7.6377  -17.8173   20.0133 C   0  0  0  0  0  0  0  0  0  0  0  0
    8.6407  -17.6692   21.1344 C   0  0  1  0  0  0  0  0  0  0  0  0
    9.9159  -18.0277   20.7663 O   0  0  0  0  0  0  0  0  0  0  0  0
    8.5882  -16.2144   21.6189 C   0  0  2  0  0  0  0  0  0  0  0  0
    8.9532  -15.3859   20.5148 N   0  0  0  0  0  0  0  0  0  0  0  0
    9.5094  -16.1141   22.7698 C   0  0  0  0  0  0  0  0  0  0  0  0
   10.6848  -15.7252   22.5138 O   0  0  0  0  0  0  0  0  0  0  0  0
    4.8102  -12.6258   27.2586 O   0  0  0  0  0  0  0  0  0  0  0  0
    6.0544  -13.0462   26.7513 C   0  0  0  0  0  0  0  0  0  0  0  0
    7.2243  -12.4124   27.1220 C   0  0  0  0  0  0  0  0  0  0  0  0
    8.4457  -12.8309   26.6191 C   0  0  0  0  0  0  0  0  0  0  0  0
    8.4954  -13.8912   25.7393 C   0  0  0  0  0  0  0  0  0  0  0  0
    9.8158  -14.3214   25.2143 C   0  0  0  0  0  0  0  0  0  0  0  0
    9.9269  -15.8315   25.1973 C   0  0  2  0  0  0  0  0  0  0  0  0
    9.1856  -16.4118   24.0987 N   0  0  0  0  0  0  0  0  0  0  0  0
    9.5612  -16.4296   26.4961 C   0  0  0  0  0  0  0  0  0  0  0  0
    8.5699  -17.3913   26.5630 O   0  0  0  0  0  0  0  0  0  0  0  0
    7.3502  -14.5482   25.3463 C   0  0  0  0  0  0  0  0  0  0  0  0
    6.1458  -14.1015   25.8701 C   0  0  0  0  0  0  0  0  0  0  0  0
   10.1293  -16.0890   27.5601 O   0  0  0  0  0  0  0  0  0  0  0  0
  2  5  1  0
  2  1  1  6
  3  2  1  0
  4  3  1  0
  5  6  2  0
  8  9  1  0
  8 10  1  0
  8  7  1  6
 11  5  1  0
 10 11  1  6
 12 10  1  0
 12 21  1  0
 13 12  2  0
 15 14  1  0
 16 15  2  0
 17 16  1  0
 18 24  1  0
 18 17  2  0
 19 18  1  0
 20 21  1  0
 20 19  1  1
 22 20  1  0
 23 22  1  0
 24 25  2  0
 25 15  1  0
 26 22  2  0
M  END
$$$$
