CTY.pdb
     RDKit          3D

 26 26  0  0  1  0  0  0  0  0999 V2000
    6.9815  -13.5009   19.4209 N   0  0  0  0  0  0  0  0  0  0  0  0
    8.2481  -13.8771   19.9635 C   0  0  1  0  0  0  0  0  0  0  0  0
    8.9344  -12.6605   20.6000 C   0  0  0  0  0  0  0  0  0  0  0  0
    7.8408  -11.9130   21.8495 S   0  0  0  0  0  0  0  0  0  0  0  0
    8.1596  -14.9138   21.0073 C   0  0  0  0  0  0  0  0  0  0  0  0
    7.0364  -15.1285   21.5316 O   0  0  0  0  0  0  0  0  0  0  0  0
    9.9154  -19.0461   22.8806 C   0  0  0  0  0  0  0  0  0  0  0  0
   10.0365  -17.9019   21.9004 C   0  0  1  0  0  0  0  0  0  0  0  0
    9.6994  -18.2562   20.6155 O   0  0  0  0  0  0  0  0  0  0  0  0
    9.1562  -16.7539   22.4115 C   0  0  2  0  0  0  0  0  0  0  0  0
    9.2543  -15.6898   21.4647 N   0  0  0  0  0  0  0  0  0  0  0  0
    9.6529  -16.4019   23.7579 C   0  0  0  0  0  0  0  0  0  0  0  0
   10.7477  -15.7712   23.8034 O   0  0  0  0  0  0  0  0  0  0  0  0
    5.9419  -11.1775   25.7295 O   0  0  0  0  0  0  0  0  0  0  0  0
    6.5940  -12.3660   26.1095 C   0  0  0  0  0  0  0  0  0  0  0  0
    7.8179  -12.3323   26.7490 C   0  0  0  0  0  0  0  0  0  0  0  0
    8.4545  -13.5056   27.1204 C   0  0  0  0  0  0  0  0  0  0  0  0
    7.8613  -14.7203   26.8496 C   0  0  0  0  0  0  0  0  0  0  0  0
    8.5627  -15.9635   27.2575 C   0  0  0  0  0  0  0  0  0  0  0  0
    9.6099  -16.3555   26.2364 C   0  0  2  0  0  0  0  0  0  0  0  0
    9.0149  -16.7083   24.9656 N   0  0  0  0  0  0  0  0  0  0  0  0
   10.5120  -17.4084   26.7426 C   0  0  0  0  0  0  0  0  0  0  0  0
   11.3898  -17.1332   27.7749 O   0  0  0  0  0  0  0  0  0  0  0  0
    6.6416  -14.7941   26.2136 C   0  0  0  0  0  0  0  0  0  0  0  0
    6.0340  -13.5993   25.8566 C   0  0  0  0  0  0  0  0  0  0  0  0
   10.5092  -18.5648   26.2593 O   0  0  0  0  0  0  0  0  0  0  0  0
  2  5  1  0
  2  1  1  1
  3  2  1  0
  4  3  1  0
  5  6  2  0
  8  9  1  0
  8 10  1  0
  8  7  1  1
 11  5  1  0
 10 11  1  6
 12 10  1  0
 12 21  1  0
 13 12  2  0
 15 14  1  0
 16 15  2  0
 17 16  1  0
 18 24  1  0
 18 17  2  0
 19 18  1  0
 20 21  1  0
 20 19  1  1
 22 20  1  0
 23 22  1  0
 24 25  2  0
 25 15  1  0
 26 22  2  0
M  END
$$$$
