CTY.pdb
     RDKit          3D

 26 26  0  0  1  0  0  0  0  0999 V2000
    8.5344  -15.5370   16.5873 N   0  0  0  0  0  0  0  0  0  0  0  0
    8.7187  -14.7891   17.7902 C   0  0  1  0  0  0  0  0  0  0  0  0
    8.1059  -13.3894   17.6430 C   0  0  0  0  0  0  0  0  0  0  0  0
    8.3263  -12.4490   19.1868 S   0  0  0  0  0  0  0  0  0  0  0  0
    8.0939  -15.4082   18.9727 C   0  0  0  0  0  0  0  0  0  0  0  0
    6.9425  -15.8981   18.8430 O   0  0  0  0  0  0  0  0  0  0  0  0
    9.0852  -18.2036   20.6079 C   0  0  0  0  0  0  0  0  0  0  0  0
    7.7906  -17.5528   21.0384 C   0  0  1  0  0  0  0  0  0  0  0  0
    7.1810  -18.2068   22.0827 O   0  0  0  0  0  0  0  0  0  0  0  0
    8.0986  -16.0933   21.3979 C   0  0  2  0  0  0  0  0  0  0  0  0
    8.7003  -15.4917   20.2515 N   0  0  0  0  0  0  0  0  0  0  0  0
    8.9766  -16.1225   22.5861 C   0  0  0  0  0  0  0  0  0  0  0  0
   10.1440  -16.5742   22.4085 O   0  0  0  0  0  0  0  0  0  0  0  0
    4.7880  -11.8825   26.9566 O   0  0  0  0  0  0  0  0  0  0  0  0
    6.0220  -12.4142   26.5363 C   0  0  0  0  0  0  0  0  0  0  0  0
    7.0282  -12.6796   27.4445 C   0  0  0  0  0  0  0  0  0  0  0  0
    8.2404  -13.2029   27.0245 C   0  0  0  0  0  0  0  0  0  0  0  0
    8.4459  -13.4620   25.6861 C   0  0  0  0  0  0  0  0  0  0  0  0
    9.7530  -14.0228   25.2604 C   0  0  0  0  0  0  0  0  0  0  0  0
    9.6219  -15.4861   24.8938 C   0  0  2  0  0  0  0  0  0  0  0  0
    8.6204  -15.6955   23.8708 N   0  0  0  0  0  0  0  0  0  0  0  0
    9.3969  -16.3372   26.0785 C   0  0  0  0  0  0  0  0  0  0  0  0
   10.3201  -16.3526   27.1077 O   0  0  0  0  0  0  0  0  0  0  0  0
    7.4664  -13.2106   24.7507 C   0  0  0  0  0  0  0  0  0  0  0  0
    6.2660  -12.6868   25.2078 C   0  0  0  0  0  0  0  0  0  0  0  0
    8.3783  -17.0598   26.1851 O   0  0  0  0  0  0  0  0  0  0  0  0
  2  5  1  0
  2  1  1  6
  3  2  1  0
  4  3  1  0
  5  6  2  0
  8  9  1  0
  8 10  1  0
  8  7  1  1
 11  5  1  0
 10 11  1  6
 12 10  1  0
 12 21  1  0
 13 12  2  0
 15 14  1  0
 16 15  2  0
 17 16  1  0
 18 24  1  0
 18 17  2  0
 19 18  1  0
 20 21  1  0
 20 19  1  1
 22 20  1  0
 23 22  1  0
 24 25  2  0
 25 15  1  0
 26 22  2  0
M  END
$$$$
