CTY.pdb
     RDKit          3D

 26 26  0  0  1  0  0  0  0  0999 V2000
    4.7508  -18.8336   18.9294 N   0  0  0  0  0  0  0  0  0  0  0  0
    4.9262  -18.0656   20.1210 C   0  0  1  0  0  0  0  0  0  0  0  0
    4.5647  -18.9080   21.3522 C   0  0  0  0  0  0  0  0  0  0  0  0
    4.8751  -17.9532   22.8715 S   0  0  0  0  0  0  0  0  0  0  0  0
    6.3064  -17.5882   20.3186 C   0  0  0  0  0  0  0  0  0  0  0  0
    7.2468  -18.3158   19.9078 O   0  0  0  0  0  0  0  0  0  0  0  0
    7.0654  -13.6859   20.4233 C   0  0  0  0  0  0  0  0  0  0  0  0
    8.1435  -14.6970   20.1067 C   0  0  1  0  0  0  0  0  0  0  0  0
    9.4109  -14.1677   20.1639 O   0  0  0  0  0  0  0  0  0  0  0  0
    7.9845  -15.8702   21.0827 C   0  0  2  0  0  0  0  0  0  0  0  0
    6.6517  -16.3622   20.9413 N   0  0  0  0  0  0  0  0  0  0  0  0
    8.2874  -15.3478   22.4312 C   0  0  0  0  0  0  0  0  0  0  0  0
    7.3077  -14.8934   23.0887 O   0  0  0  0  0  0  0  0  0  0  0  0
    5.5128  -11.3455   27.2096 O   0  0  0  0  0  0  0  0  0  0  0  0
    6.2391  -12.4397   26.7024 C   0  0  0  0  0  0  0  0  0  0  0  0
    5.6431  -13.6751   26.5404 C   0  0  0  0  0  0  0  0  0  0  0  0
    6.3634  -14.7480   26.0407 C   0  0  0  0  0  0  0  0  0  0  0  0
    7.6892  -14.5823   25.7011 C   0  0  0  0  0  0  0  0  0  0  0  0
    8.4400  -15.7466   25.1675 C   0  0  0  0  0  0  0  0  0  0  0  0
    9.7050  -15.3006   24.4648 C   0  0  2  0  0  0  0  0  0  0  0  0
    9.5543  -15.3181   23.0259 N   0  0  0  0  0  0  0  0  0  0  0  0
   10.8868  -16.0631   24.9123 C   0  0  0  0  0  0  0  0  0  0  0  0
   11.7383  -16.6322   23.9833 O   0  0  0  0  0  0  0  0  0  0  0  0
    8.3181  -13.3656   25.8485 C   0  0  0  0  0  0  0  0  0  0  0  0
    7.5657  -12.3144   26.3516 C   0  0  0  0  0  0  0  0  0  0  0  0
   11.1495  -16.2150   26.1284 O   0  0  0  0  0  0  0  0  0  0  0  0
  2  5  1  0
  2  1  1  6
  3  2  1  0
  4  3  1  0
  5  6  2  0
  8  9  1  0
  8 10  1  0
  8  7  1  1
 11  5  1  0
 10 11  1  1
 12 10  1  0
 12 21  1  0
 13 12  2  0
 15 14  1  0
 16 15  2  0
 17 16  1  0
 18 24  1  0
 18 17  2  0
 19 18  1  0
 20 21  1  0
 20 19  1  1
 22 20  1  0
 23 22  1  0
 24 25  2  0
 25 15  1  0
 26 22  2  0
M  END
$$$$
