CTY.pdb
     RDKit          3D

 26 26  0  0  1  0  0  0  0  0999 V2000
   12.7297  -14.7263   17.0880 N   0  0  0  0  0  0  0  0  0  0  0  0
   13.1490  -15.0639   18.4110 C   0  0  1  0  0  0  0  0  0  0  0  0
   13.9532  -13.9086   19.0231 C   0  0  0  0  0  0  0  0  0  0  0  0
   14.7366  -14.4504   20.5752 S   0  0  0  0  0  0  0  0  0  0  0  0
   12.0325  -15.3438   19.3315 C   0  0  0  0  0  0  0  0  0  0  0  0
   11.1417  -14.4652   19.4626 O   0  0  0  0  0  0  0  0  0  0  0  0
    9.6204  -18.0322   19.2739 C   0  0  0  0  0  0  0  0  0  0  0  0
   10.2269  -18.1510   20.6533 C   0  0  1  0  0  0  0  0  0  0  0  0
   11.1589  -19.1573   20.7464 O   0  0  0  0  0  0  0  0  0  0  0  0
   10.8373  -16.7903   21.0139 C   0  0  2  0  0  0  0  0  0  0  0  0
   11.8900  -16.5374   20.0831 N   0  0  0  0  0  0  0  0  0  0  0  0
   11.2915  -16.8844   22.4168 C   0  0  0  0  0  0  0  0  0  0  0  0
   12.3942  -16.3279   22.6867 O   0  0  0  0  0  0  0  0  0  0  0  0
   10.2377  -14.1120   30.4391 O   0  0  0  0  0  0  0  0  0  0  0  0
   10.2932  -14.4863   29.0831 C   0  0  0  0  0  0  0  0  0  0  0  0
    9.3373  -14.0517   28.1858 C   0  0  0  0  0  0  0  0  0  0  0  0
    9.3976  -14.4236   26.8524 C   0  0  0  0  0  0  0  0  0  0  0  0
   10.4220  -15.2361   26.4152 C   0  0  0  0  0  0  0  0  0  0  0  0
   10.4653  -15.6208   24.9819 C   0  0  0  0  0  0  0  0  0  0  0  0
   10.7461  -17.1005   24.8257 C   0  0  2  0  0  0  0  0  0  0  0  0
   10.6058  -17.5313   23.4516 N   0  0  0  0  0  0  0  0  0  0  0  0
    9.9410  -17.9192   25.7530 C   0  0  0  0  0  0  0  0  0  0  0  0
    8.7467  -18.4739   25.3313 O   0  0  0  0  0  0  0  0  0  0  0  0
   11.3936  -15.6894   27.2801 C   0  0  0  0  0  0  0  0  0  0  0  0
   11.3009  -15.2968   28.6073 C   0  0  0  0  0  0  0  0  0  0  0  0
   10.3102  -18.1326   26.9316 O   0  0  0  0  0  0  0  0  0  0  0  0
  2  5  1  0
  2  1  1  6
  3  2  1  0
  4  3  1  0
  5  6  2  0
  8  9  1  0
  8 10  1  0
  8  7  1  6
 11  5  1  0
 10 11  1  6
 12 10  1  0
 12 21  1  0
 13 12  2  0
 15 14  1  0
 16 15  2  0
 17 16  1  0
 18 24  1  0
 18 17  2  0
 19 18  1  0
 20 21  1  0
 20 19  1  6
 22 20  1  0
 23 22  1  0
 24 25  2  0
 25 15  1  0
 26 22  2  0
M  END
$$$$
