CTY.pdb
     RDKit          3D

 26 26  0  0  1  0  0  0  0  0999 V2000
    8.0079  -14.4826   17.0417 N   0  0  0  0  0  0  0  0  0  0  0  0
    8.4876  -14.0756   18.3242 C   0  0  1  0  0  0  0  0  0  0  0  0
    7.9946  -12.6587   18.6492 C   0  0  0  0  0  0  0  0  0  0  0  0
    8.6293  -12.1373   20.2745 S   0  0  0  0  0  0  0  0  0  0  0  0
    8.0422  -14.9475   19.4258 C   0  0  0  0  0  0  0  0  0  0  0  0
    6.8229  -15.2518   19.4811 O   0  0  0  0  0  0  0  0  0  0  0  0
    7.9972  -18.1402   19.8463 C   0  0  0  0  0  0  0  0  0  0  0  0
    8.8539  -17.7780   21.0377 C   0  0  1  0  0  0  0  0  0  0  0  0
   10.2010  -17.8802   20.7827 O   0  0  0  0  0  0  0  0  0  0  0  0
    8.4746  -16.3557   21.4705 C   0  0  2  0  0  0  0  0  0  0  0  0
    8.8934  -15.4701   20.4319 N   0  0  0  0  0  0  0  0  0  0  0  0
    9.1407  -16.1120   22.7668 C   0  0  0  0  0  0  0  0  0  0  0  0
   10.2829  -15.5723   22.7164 O   0  0  0  0  0  0  0  0  0  0  0  0
    6.1760  -10.8641   26.4953 O   0  0  0  0  0  0  0  0  0  0  0  0
    6.7514  -12.1489   26.4820 C   0  0  0  0  0  0  0  0  0  0  0  0
    5.9658  -13.2808   26.5796 C   0  0  0  0  0  0  0  0  0  0  0  0
    6.5383  -14.5425   26.5660 C   0  0  0  0  0  0  0  0  0  0  0  0
    7.9063  -14.6711   26.4540 C   0  0  0  0  0  0  0  0  0  0  0  0
    8.4962  -16.0335   26.4414 C   0  0  0  0  0  0  0  0  0  0  0  0
    9.3853  -16.2285   25.2312 C   0  0  2  0  0  0  0  0  0  0  0  0
    8.6127  -16.4275   24.0242 N   0  0  0  0  0  0  0  0  0  0  0  0
   10.3807  -17.2980   25.4403 C   0  0  0  0  0  0  0  0  0  0  0  0
   11.3948  -17.1313   26.3654 O   0  0  0  0  0  0  0  0  0  0  0  0
    8.7224  -13.5658   26.3546 C   0  0  0  0  0  0  0  0  0  0  0  0
    8.1143  -12.3192   26.3716 C   0  0  0  0  0  0  0  0  0  0  0  0
   10.3371  -18.3720   24.7958 O   0  0  0  0  0  0  0  0  0  0  0  0
  2  5  1  0
  2  1  1  6
  3  2  1  0
  4  3  1  0
  5  6  2  0
  8  9  1  0
  8 10  1  0
  8  7  1  6
 11  5  1  0
 10 11  1  6
 12 10  1  0
 12 21  1  0
 13 12  2  0
 15 14  1  0
 16 15  2  0
 17 16  1  0
 18 24  1  0
 18 17  2  0
 19 18  1  0
 20 21  1  0
 20 19  1  1
 22 20  1  0
 23 22  1  0
 24 25  2  0
 25 15  1  0
 26 22  2  0
M  END
$$$$
