CTY.pdb
     RDKit          3D

 26 26  0  0  1  0  0  0  0  0999 V2000
    4.6167  -13.1767   26.0331 N   0  0  0  0  0  0  0  0  0  0  0  0
    5.8180  -12.7770   25.3717 C   0  0  1  0  0  0  0  0  0  0  0  0
    6.7581  -12.0732   26.3602 C   0  0  0  0  0  0  0  0  0  0  0  0
    8.2670  -11.5253   25.5002 S   0  0  0  0  0  0  0  0  0  0  0  0
    6.5729  -13.9001   24.7879 C   0  0  0  0  0  0  0  0  0  0  0  0
    6.7518  -14.9230   25.4979 O   0  0  0  0  0  0  0  0  0  0  0  0
    6.2700  -14.8721   21.0386 C   0  0  0  0  0  0  0  0  0  0  0  0
    7.7405  -14.8785   21.3884 C   0  0  1  0  0  0  0  0  0  0  0  0
    8.4106  -13.7749   20.9162 O   0  0  0  0  0  0  0  0  0  0  0  0
    7.8571  -14.9914   22.9141 C   0  0  2  0  0  0  0  0  0  0  0  0
    7.1143  -13.9101   23.4777 N   0  0  0  0  0  0  0  0  0  0  0  0
    9.2988  -14.9562   23.2358 C   0  0  0  0  0  0  0  0  0  0  0  0
    9.8600  -13.8253   23.1680 O   0  0  0  0  0  0  0  0  0  0  0  0
   12.0773  -16.1969   31.1294 O   0  0  0  0  0  0  0  0  0  0  0  0
   11.4772  -16.1184   29.8582 C   0  0  0  0  0  0  0  0  0  0  0  0
   10.9536  -17.2418   29.2486 C   0  0  0  0  0  0  0  0  0  0  0  0
   10.3643  -17.1579   27.9974 C   0  0  0  0  0  0  0  0  0  0  0  0
   10.2991  -15.9409   27.3529 C   0  0  0  0  0  0  0  0  0  0  0  0
    9.6626  -15.8763   26.0131 C   0  0  0  0  0  0  0  0  0  0  0  0
   10.6728  -16.1505   24.9189 C   0  0  2  0  0  0  0  0  0  0  0  0
   10.0770  -16.0602   23.6036 N   0  0  0  0  0  0  0  0  0  0  0  0
   11.3811  -17.4289   25.1250 C   0  0  0  0  0  0  0  0  0  0  0  0
   12.7521  -17.4419   25.3039 O   0  0  0  0  0  0  0  0  0  0  0  0
   10.8102  -14.7988   27.9289 C   0  0  0  0  0  0  0  0  0  0  0  0
   11.3926  -14.9209   29.1819 C   0  0  0  0  0  0  0  0  0  0  0  0
   10.7704  -18.5233   25.1437 O   0  0  0  0  0  0  0  0  0  0  0  0
  2  5  1  0
  2  1  1  1
  3  2  1  0
  4  3  1  0
  5  6  2  0
  8  9  1  0
  8 10  1  0
  8  7  1  1
 11  5  1  0
 10 11  1  1
 12 10  1  0
 12 21  1  0
 13 12  2  0
 15 14  1  0
 16 15  2  0
 17 16  1  0
 18 24  1  0
 18 17  2  0
 19 18  1  0
 20 21  1  0
 20 19  1  1
 22 20  1  0
 23 22  1  0
 24 25  2  0
 25 15  1  0
 26 22  2  0
M  END
$$$$
