CTY.pdb
     RDKit          3D

 26 26  0  0  1  0  0  0  0  0999 V2000
    5.0683  -18.8052   18.9409 N   0  0  0  0  0  0  0  0  0  0  0  0
    5.0134  -17.9009   20.0452 C   0  0  1  0  0  0  0  0  0  0  0  0
    4.6830  -18.6613   21.3370 C   0  0  0  0  0  0  0  0  0  0  0  0
    2.9016  -19.0336   21.4007 S   0  0  0  0  0  0  0  0  0  0  0  0
    6.2773  -17.1811   20.2830 C   0  0  0  0  0  0  0  0  0  0  0  0
    7.3546  -17.7940   20.0679 O   0  0  0  0  0  0  0  0  0  0  0  0
    8.6558  -12.9369   20.6140 C   0  0  0  0  0  0  0  0  0  0  0  0
    7.4104  -13.7385   20.3122 C   0  0  1  0  0  0  0  0  0  0  0  0
    7.1380  -13.8236   18.9674 O   0  0  0  0  0  0  0  0  0  0  0  0
    7.5884  -15.1297   20.9344 C   0  0  2  0  0  0  0  0  0  0  0  0
    6.3663  -15.8416   20.7388 N   0  0  0  0  0  0  0  0  0  0  0  0
    7.9359  -14.9208   22.3552 C   0  0  0  0  0  0  0  0  0  0  0  0
    7.0028  -15.0922   23.1908 O   0  0  0  0  0  0  0  0  0  0  0  0
    5.7076  -11.2078   27.5093 O   0  0  0  0  0  0  0  0  0  0  0  0
    6.3983  -12.2650   26.8871 C   0  0  0  0  0  0  0  0  0  0  0  0
    5.7946  -13.4920   26.6930 C   0  0  0  0  0  0  0  0  0  0  0  0
    6.4798  -14.5286   26.0799 C   0  0  0  0  0  0  0  0  0  0  0  0
    7.7781  -14.3346   25.6586 C   0  0  0  0  0  0  0  0  0  0  0  0
    8.4914  -15.4601   25.0041 C   0  0  0  0  0  0  0  0  0  0  0  0
    9.6397  -14.9548   24.1561 C   0  0  2  0  0  0  0  0  0  0  0  0
    9.1976  -14.5539   22.8381 N   0  0  0  0  0  0  0  0  0  0  0  0
   10.7559  -15.9189   24.1019 C   0  0  0  0  0  0  0  0  0  0  0  0
   11.3361  -16.3756   25.2709 O   0  0  0  0  0  0  0  0  0  0  0  0
    8.4136  -13.1252   25.8346 C   0  0  0  0  0  0  0  0  0  0  0  0
    7.6966  -12.1108   26.4521 C   0  0  0  0  0  0  0  0  0  0  0  0
   11.2039  -16.3454   23.0118 O   0  0  0  0  0  0  0  0  0  0  0  0
  2  5  1  0
  2  1  1  6
  3  2  1  0
  4  3  1  0
  5  6  2  0
  8  9  1  0
  8 10  1  0
  8  7  1  6
 11  5  1  0
 10 11  1  1
 12 10  1  0
 12 21  1  0
 13 12  2  0
 15 14  1  0
 16 15  2  0
 17 16  1  0
 18 24  1  0
 18 17  2  0
 19 18  1  0
 20 21  1  0
 20 19  1  6
 22 20  1  0
 23 22  1  0
 24 25  2  0
 25 15  1  0
 26 22  2  0
M  END
$$$$
