CTY.pdb
     RDKit          3D

 26 26  0  0  1  0  0  0  0  0999 V2000
    8.0569  -14.4038   17.2908 N   0  0  0  0  0  0  0  0  0  0  0  0
    8.5871  -14.0966   18.5811 C   0  0  1  0  0  0  0  0  0  0  0  0
    8.2934  -12.6334   18.9400 C   0  0  0  0  0  0  0  0  0  0  0  0
    9.0058  -12.2379   20.5686 S   0  0  0  0  0  0  0  0  0  0  0  0
    8.0253  -14.9244   19.6633 C   0  0  0  0  0  0  0  0  0  0  0  0
    6.9025  -15.4595   19.4744 O   0  0  0  0  0  0  0  0  0  0  0  0
    7.3736  -17.5548   20.0940 C   0  0  0  0  0  0  0  0  0  0  0  0
    8.3165  -17.4945   21.2738 C   0  0  1  0  0  0  0  0  0  0  0  0
    9.6163  -17.7927   20.9396 O   0  0  0  0  0  0  0  0  0  0  0  0
    8.2062  -16.0931   21.8887 C   0  0  2  0  0  0  0  0  0  0  0  0
    8.6624  -15.1620   20.9073 N   0  0  0  0  0  0  0  0  0  0  0  0
    9.0176  -16.1036   23.1235 C   0  0  0  0  0  0  0  0  0  0  0  0
   10.2459  -15.8363   22.9885 O   0  0  0  0  0  0  0  0  0  0  0  0
    5.5362  -11.0013   25.7587 O   0  0  0  0  0  0  0  0  0  0  0  0
    6.2676  -12.1777   26.0105 C   0  0  0  0  0  0  0  0  0  0  0  0
    5.6685  -13.4193   25.9255 C   0  0  0  0  0  0  0  0  0  0  0  0
    6.3939  -14.5733   26.1745 C   0  0  0  0  0  0  0  0  0  0  0  0
    7.7279  -14.4828   26.5108 C   0  0  0  0  0  0  0  0  0  0  0  0
    8.4840  -15.7332   26.7727 C   0  0  0  0  0  0  0  0  0  0  0  0
    9.3403  -16.1089   25.5817 C   0  0  2  0  0  0  0  0  0  0  0  0
    8.5383  -16.3821   24.4089 N   0  0  0  0  0  0  0  0  0  0  0  0
   10.2700  -17.2124   25.8925 C   0  0  0  0  0  0  0  0  0  0  0  0
   10.1736  -18.4132   25.2139 O   0  0  0  0  0  0  0  0  0  0  0  0
    8.3599  -13.2625   26.6054 C   0  0  0  0  0  0  0  0  0  0  0  0
    7.6023  -12.1291   26.3493 C   0  0  0  0  0  0  0  0  0  0  0  0
   11.1603  -17.0955   26.7669 O   0  0  0  0  0  0  0  0  0  0  0  0
  2  5  1  0
  2  1  1  6
  3  2  1  0
  4  3  1  0
  5  6  2  0
  8  9  1  0
  8 10  1  0
  8  7  1  6
 11  5  1  0
 10 11  1  6
 12 10  1  0
 12 21  1  0
 13 12  2  0
 15 14  1  0
 16 15  2  0
 17 16  1  0
 18 24  1  0
 18 17  2  0
 19 18  1  0
 20 21  1  0
 20 19  1  1
 22 20  1  0
 23 22  1  0
 24 25  2  0
 25 15  1  0
 26 22  2  0
M  END
$$$$
