AHN.pdb
     RDKit          3D

 24 24  0  0  1  0  0  0  0  0999 V2000
   15.4484   -9.7582  -16.0079 C   0  0  0  0  0  0  0  0  0  0  0  0
   16.6546  -10.4324  -16.6226 C   0  0  2  0  0  0  0  0  0  0  0  0
   16.4639  -11.8287  -16.8426 N   0  0  0  0  0  0  0  0  0  0  0  0
   17.8859  -10.1968  -15.8493 C   0  0  0  0  0  0  0  0  0  0  0  0
   18.0124  -10.6288  -14.6790 O   0  0  0  0  0  0  0  0  0  0  0  0
   18.9520   -9.4721  -16.4245 N   0  0  0  0  0  0  0  0  0  0  0  0
   20.2278   -9.2132  -15.7492 C   0  0  1  0  0  0  0  0  0  0  0  0
   21.2973   -9.6272  -16.7085 C   0  0  0  0  0  0  0  0  0  0  0  0
   21.5244  -11.0897  -16.7922 C   0  0  0  0  0  0  0  0  0  0  0  0
   20.9573  -12.1003  -16.0958 C   0  0  0  0  0  0  0  0  0  0  0  0
   21.4382  -13.2903  -16.5718 N   0  0  0  0  0  0  0  0  0  0  0  0
   22.3000  -13.0287  -17.5612 C   0  0  0  0  0  0  0  0  0  0  0  0
   22.3553  -11.7029  -17.6983 N   0  0  0  0  0  0  0  0  0  0  0  0
   20.2647   -7.6950  -15.7073 C   0  0  0  0  0  0  0  0  0  0  0  0
   19.4067   -7.0702  -16.3460 O   0  0  0  0  0  0  0  0  0  0  0  0
   20.7872   -2.7824  -14.4985 N   0  0  0  0  0  0  0  0  0  0  0  0
   19.7641   -3.6530  -14.0082 C   0  0  0  0  0  0  0  0  0  0  0  0
   18.8031   -3.0793  -13.4281 O   0  0  0  0  0  0  0  0  0  0  0  0
   19.8580   -5.1123  -14.1857 C   0  0  0  0  0  0  0  0  0  0  0  0
   21.1510   -5.4975  -14.8385 C   0  0  2  0  0  0  0  0  0  0  0  0
   21.2166   -6.9614  -14.9860 N   0  0  0  0  0  0  0  0  0  0  0  0
   22.3535   -4.9853  -14.1713 C   0  0  0  0  0  0  0  0  0  0  0  0
   23.0355   -3.8411  -14.6247 O   0  0  0  0  0  0  0  0  0  0  0  0
   22.8139   -5.5630  -13.1618 O   0  0  0  0  0  0  0  0  0  0  0  0
  2  1  1  1
  2  4  1  0
  2  3  1  0
  4  5  2  0
  6  7  1  0
  6  4  1  0
  7 14  1  0
  7  8  1  6
  9 10  2  0
  9  8  1  0
 11 10  1  0
 12 13  2  0
 12 11  1  0
 13  9  1  0
 14 21  1  0
 14 15  2  0
 17 18  2  0
 17 16  1  0
 19 17  1  0
 20 19  1  1
 21 20  1  0
 22 23  1  0
 22 20  1  0
 24 22  2  0
M  END
$$$$
