AHN.pdb
     RDKit          3D

 24 24  0  0  1  0  0  0  0  0999 V2000
   21.5857  -12.2546  -19.9303 C   0  0  0  0  0  0  0  0  0  0  0  0
   22.3005  -11.1912  -19.1268 C   0  0  2  0  0  0  0  0  0  0  0  0
   23.2783  -11.7252  -18.2362 N   0  0  0  0  0  0  0  0  0  0  0  0
   21.3675  -10.3130  -18.4002 C   0  0  0  0  0  0  0  0  0  0  0  0
   20.4287   -9.7289  -18.9917 O   0  0  0  0  0  0  0  0  0  0  0  0
   21.5217  -10.1162  -17.0109 N   0  0  0  0  0  0  0  0  0  0  0  0
   20.6058   -9.3198  -16.1876 C   0  0  1  0  0  0  0  0  0  0  0  0
   20.1802  -10.2073  -15.0622 C   0  0  0  0  0  0  0  0  0  0  0  0
   18.8192  -10.7779  -15.2017 C   0  0  0  0  0  0  0  0  0  0  0  0
   17.9137  -10.6375  -16.1958 C   0  0  0  0  0  0  0  0  0  0  0  0
   16.8204  -11.4105  -15.9112 N   0  0  0  0  0  0  0  0  0  0  0  0
   17.0386  -12.0331  -14.7472 C   0  0  0  0  0  0  0  0  0  0  0  0
   18.2429  -11.6552  -14.3154 N   0  0  0  0  0  0  0  0  0  0  0  0
   21.5392   -8.2870  -15.5794 C   0  0  0  0  0  0  0  0  0  0  0  0
   22.5241   -8.6890  -14.9445 O   0  0  0  0  0  0  0  0  0  0  0  0
   23.3282   -5.8978  -17.6137 N   0  0  0  0  0  0  0  0  0  0  0  0
   22.7271   -4.6890  -17.1419 C   0  0  0  0  0  0  0  0  0  0  0  0
   22.7439   -3.7271  -17.9568 O   0  0  0  0  0  0  0  0  0  0  0  0
   22.1391   -4.6079  -15.7938 C   0  0  0  0  0  0  0  0  0  0  0  0
   22.2485   -5.9182  -15.0744 C   0  0  2  0  0  0  0  0  0  0  0  0
   21.3477   -6.9034  -15.6962 N   0  0  0  0  0  0  0  0  0  0  0  0
   22.0233   -5.8455  -13.6261 C   0  0  0  0  0  0  0  0  0  0  0  0
   23.0809   -5.7276  -12.7054 O   0  0  0  0  0  0  0  0  0  0  0  0
   20.8626   -5.8871  -13.1615 O   0  0  0  0  0  0  0  0  0  0  0  0
  2  1  1  1
  2  4  1  0
  2  3  1  0
  4  5  2  0
  6  7  1  0
  6  4  1  0
  7 14  1  0
  7  8  1  1
  9 10  2  0
  9  8  1  0
 11 10  1  0
 12 13  2  0
 12 11  1  0
 13  9  1  0
 14 21  1  0
 14 15  2  0
 17 18  2  0
 17 16  1  0
 19 17  1  0
 20 19  1  6
 21 20  1  0
 22 23  1  0
 22 20  1  0
 24 22  2  0
M  END
$$$$
