AHN.pdb
     RDKit          3D

 24 24  0  0  1  0  0  0  0  0999 V2000
   23.3947  -22.5066  -13.9048 C   0  0  0  0  0  0  0  0  0  0  0  0
   23.8812  -21.0764  -13.8310 C   0  0  2  0  0  0  0  0  0  0  0  0
   22.8196  -20.1238  -13.8207 N   0  0  0  0  0  0  0  0  0  0  0  0
   24.8498  -20.7561  -14.8934 C   0  0  0  0  0  0  0  0  0  0  0  0
   24.4730  -20.4925  -16.0600 O   0  0  0  0  0  0  0  0  0  0  0  0
   26.2319  -20.7418  -14.6067 N   0  0  0  0  0  0  0  0  0  0  0  0
   27.2679  -20.3694  -15.5756 C   0  0  1  0  0  0  0  0  0  0  0  0
   27.8677  -19.0953  -15.0735 C   0  0  0  0  0  0  0  0  0  0  0  0
   27.2796  -17.8625  -15.6496 C   0  0  0  0  0  0  0  0  0  0  0  0
   26.2888  -17.7121  -16.5571 C   0  0  0  0  0  0  0  0  0  0  0  0
   26.0456  -16.3761  -16.7295 N   0  0  0  0  0  0  0  0  0  0  0  0
   26.8769  -15.6925  -15.9346 C   0  0  0  0  0  0  0  0  0  0  0  0
   27.6230  -16.5844  -15.2809 N   0  0  0  0  0  0  0  0  0  0  0  0
   28.3166  -21.4454  -15.3514 C   0  0  0  0  0  0  0  0  0  0  0  0
   28.3215  -22.0417  -14.2655 O   0  0  0  0  0  0  0  0  0  0  0  0
   30.5549  -25.8284  -16.4382 N   0  0  0  0  0  0  0  0  0  0  0  0
   29.1555  -25.5365  -16.3951 C   0  0  0  0  0  0  0  0  0  0  0  0
   28.3995  -26.5417  -16.3094 O   0  0  0  0  0  0  0  0  0  0  0  0
   28.6664  -24.1481  -16.4491 C   0  0  0  0  0  0  0  0  0  0  0  0
   29.8032  -23.1714  -16.4379 C   0  0  2  0  0  0  0  0  0  0  0  0
   29.2799  -21.8012  -16.3053 N   0  0  0  0  0  0  0  0  0  0  0  0
   30.7139  -23.2742  -17.5839 C   0  0  0  0  0  0  0  0  0  0  0  0
   32.0240  -23.7729  -17.4612 O   0  0  0  0  0  0  0  0  0  0  0  0
   30.3434  -22.9144  -18.7233 O   0  0  0  0  0  0  0  0  0  0  0  0
  2  1  1  6
  2  4  1  0
  2  3  1  0
  4  5  2  0
  6  7  1  0
  6  4  1  0
  7 14  1  0
  7  8  1  1
  9 10  2  0
  9  8  1  0
 11 10  1  0
 12 13  2  0
 12 11  1  0
 13  9  1  0
 14 21  1  0
 14 15  2  0
 17 18  2  0
 17 16  1  0
 19 17  1  0
 20 19  1  6
 21 20  1  0
 22 23  1  0
 22 20  1  0
 24 22  2  0
M  END
$$$$
