AHN.pdb
     RDKit          3D

 24 24  0  0  1  0  0  0  0  0999 V2000
   17.0822  -15.0044  -17.0241 C   0  0  0  0  0  0  0  0  0  0  0  0
   17.2309  -13.6618  -16.3438 C   0  0  2  0  0  0  0  0  0  0  0  0
   16.3884  -12.6552  -16.9018 N   0  0  0  0  0  0  0  0  0  0  0  0
   18.6294  -13.2008  -16.3083 C   0  0  0  0  0  0  0  0  0  0  0  0
   19.4968  -13.8041  -15.6329 O   0  0  0  0  0  0  0  0  0  0  0  0
   19.0144  -12.0593  -17.0440 N   0  0  0  0  0  0  0  0  0  0  0  0
   20.4061  -11.6419  -17.2438 C   0  0  1  0  0  0  0  0  0  0  0  0
   20.6110  -11.5729  -18.7232 C   0  0  0  0  0  0  0  0  0  0  0  0
   20.8521  -12.8804  -19.3785 C   0  0  0  0  0  0  0  0  0  0  0  0
   20.0506  -13.6107  -20.1861 C   0  0  0  0  0  0  0  0  0  0  0  0
   20.7348  -14.7209  -20.6022 N   0  0  0  0  0  0  0  0  0  0  0  0
   21.9579  -14.6871  -20.0608 C   0  0  0  0  0  0  0  0  0  0  0  0
   22.0337  -13.5789  -19.3221 N   0  0  0  0  0  0  0  0  0  0  0  0
   20.3815  -10.2038  -16.7547 C   0  0  0  0  0  0  0  0  0  0  0  0
   19.3362   -9.5543  -16.8968 O   0  0  0  0  0  0  0  0  0  0  0  0
   21.5557   -5.6143  -14.6624 N   0  0  0  0  0  0  0  0  0  0  0  0
   21.9140   -6.6950  -13.7970 C   0  0  0  0  0  0  0  0  0  0  0  0
   22.2742   -6.3573  -12.6370 O   0  0  0  0  0  0  0  0  0  0  0  0
   21.8547   -8.0920  -14.2603 C   0  0  0  0  0  0  0  0  0  0  0  0
   21.4374   -8.1698  -15.6977 C   0  0  2  0  0  0  0  0  0  0  0  0
   21.4767   -9.5702  -16.1516 N   0  0  0  0  0  0  0  0  0  0  0  0
   22.1978   -7.3045  -16.6067 C   0  0  0  0  0  0  0  0  0  0  0  0
   23.3244   -7.7624  -17.3146 O   0  0  0  0  0  0  0  0  0  0  0  0
   21.8587   -6.1130  -16.7806 O   0  0  0  0  0  0  0  0  0  0  0  0
  2  1  1  6
  2  4  1  0
  2  3  1  0
  4  5  2  0
  6  7  1  0
  6  4  1  0
  7 14  1  0
  7  8  1  6
  9 10  2  0
  9  8  1  0
 11 10  1  0
 12 13  2  0
 12 11  1  0
 13  9  1  0
 14 21  1  0
 14 15  2  0
 17 18  2  0
 17 16  1  0
 19 17  1  0
 20 19  1  1
 21 20  1  0
 22 23  1  0
 22 20  1  0
 24 22  2  0
M  END
$$$$
