AHN.pdb
     RDKit          3D

 24 24  0  0  1  0  0  0  0  0999 V2000
   42.3185   -8.4134   -4.2404 C   0  0  0  0  0  0  0  0  0  0  0  0
   42.4095   -9.6308   -5.1331 C   0  0  2  0  0  0  0  0  0  0  0  0
   43.6247  -10.3586   -4.9649 N   0  0  0  0  0  0  0  0  0  0  0  0
   42.1978   -9.3040   -6.5536 C   0  0  0  0  0  0  0  0  0  0  0  0
   43.1550   -8.9837   -7.2977 O   0  0  0  0  0  0  0  0  0  0  0  0
   40.8975   -9.3483   -7.1011 N   0  0  0  0  0  0  0  0  0  0  0  0
   40.5766   -8.9872   -8.4858 C   0  0  1  0  0  0  0  0  0  0  0  0
   39.6641  -10.0572   -8.9935 C   0  0  0  0  0  0  0  0  0  0  0  0
   39.7925  -10.3475  -10.4415 C   0  0  0  0  0  0  0  0  0  0  0  0
   40.6125   -9.8045  -11.3692 C   0  0  0  0  0  0  0  0  0  0  0  0
   40.4141  -10.4433  -12.5635 N   0  0  0  0  0  0  0  0  0  0  0  0
   39.4772  -11.3820  -12.3865 C   0  0  0  0  0  0  0  0  0  0  0  0
   39.0993  -11.3285  -11.1083 N   0  0  0  0  0  0  0  0  0  0  0  0
   39.7137   -7.7505   -8.3017 C   0  0  0  0  0  0  0  0  0  0  0  0
   38.8650   -7.7571   -7.3994 O   0  0  0  0  0  0  0  0  0  0  0  0
   41.6421   -4.3167   -6.9435 N   0  0  0  0  0  0  0  0  0  0  0  0
   40.2355   -4.3605   -7.1983 C   0  0  0  0  0  0  0  0  0  0  0  0
   39.5095   -4.5131   -6.1789 O   0  0  0  0  0  0  0  0  0  0  0  0
   39.7063   -4.2329   -8.5670 C   0  0  0  0  0  0  0  0  0  0  0  0
   38.9203   -5.4470   -8.9602 C   0  0  2  0  0  0  0  0  0  0  0  0
   39.8243   -6.6016   -9.0969 N   0  0  0  0  0  0  0  0  0  0  0  0
   38.0963   -5.2833  -10.1634 C   0  0  0  0  0  0  0  0  0  0  0  0
   37.0499   -4.3453  -10.2366 O   0  0  0  0  0  0  0  0  0  0  0  0
   38.3056   -5.9867  -11.1764 O   0  0  0  0  0  0  0  0  0  0  0  0
  2  1  1  1
  2  4  1  0
  2  3  1  0
  4  5  2  0
  6  7  1  0
  6  4  1  0
  7 14  1  0
  7  8  1  1
  9 10  2  0
  9  8  1  0
 11 10  1  0
 12 13  2  0
 12 11  1  0
 13  9  1  0
 14 21  1  0
 14 15  2  0
 17 18  2  0
 17 16  1  0
 19 17  1  0
 20 19  1  6
 21 20  1  0
 22 23  1  0
 22 20  1  0
 24 22  2  0
M  END
$$$$
