AHN.pdb
     RDKit          3D

 24 24  0  0  1  0  0  0  0  0999 V2000
   26.9623  -19.2600  -19.1508 C   0  0  0  0  0  0  0  0  0  0  0  0
   25.5148  -19.4278  -18.7456 C   0  0  2  0  0  0  0  0  0  0  0  0
   24.5987  -18.9944  -19.7493 N   0  0  0  0  0  0  0  0  0  0  0  0
   25.2122  -18.7795  -17.4581 C   0  0  0  0  0  0  0  0  0  0  0  0
   25.7926  -19.1265  -16.4022 O   0  0  0  0  0  0  0  0  0  0  0  0
   24.2523  -17.7463  -17.3974 N   0  0  0  0  0  0  0  0  0  0  0  0
   23.8786  -17.0439  -16.1654 C   0  0  1  0  0  0  0  0  0  0  0  0
   23.9811  -15.5841  -16.4718 C   0  0  0  0  0  0  0  0  0  0  0  0
   25.3391  -15.0107  -16.3162 C   0  0  0  0  0  0  0  0  0  0  0  0
   26.4854  -15.5890  -15.8925 C   0  0  0  0  0  0  0  0  0  0  0  0
   27.5013  -14.6760  -15.9822 N   0  0  0  0  0  0  0  0  0  0  0  0
   26.9968  -13.5328  -16.4604 C   0  0  0  0  0  0  0  0  0  0  0  0
   25.6931  -13.7295  -16.6638 N   0  0  0  0  0  0  0  0  0  0  0  0
   22.3939  -17.3489  -16.0617 C   0  0  0  0  0  0  0  0  0  0  0  0
   21.7601  -17.5389  -17.1090 O   0  0  0  0  0  0  0  0  0  0  0  0
   20.1304  -20.3655  -14.9048 N   0  0  0  0  0  0  0  0  0  0  0  0
   19.8911  -19.7551  -13.6338 C   0  0  0  0  0  0  0  0  0  0  0  0
   19.6937  -20.5572  -12.6813 O   0  0  0  0  0  0  0  0  0  0  0  0
   19.8829  -18.2898  -13.4834 C   0  0  0  0  0  0  0  0  0  0  0  0
   20.2414  -17.6103  -14.7703 C   0  0  2  0  0  0  0  0  0  0  0  0
   21.7007  -17.4271  -14.8460 N   0  0  0  0  0  0  0  0  0  0  0  0
   19.5425  -16.3428  -15.0122 C   0  0  0  0  0  0  0  0  0  0  0  0
   18.2429  -16.2909  -15.5491 O   0  0  0  0  0  0  0  0  0  0  0  0
   20.0937  -15.2527  -14.7423 O   0  0  0  0  0  0  0  0  0  0  0  0
  2  1  1  6
  2  4  1  0
  2  3  1  0
  4  5  2  0
  6  7  1  0
  6  4  1  0
  7 14  1  0
  7  8  1  6
  9 10  2  0
  9  8  1  0
 11 10  1  0
 12 13  2  0
 12 11  1  0
 13  9  1  0
 14 21  1  0
 14 15  2  0
 17 18  2  0
 17 16  1  0
 19 17  1  0
 20 19  1  1
 21 20  1  0
 22 23  1  0
 22 20  1  0
 24 22  2  0
M  END
$$$$
