AHN.pdb
     RDKit          3D

 24 24  0  0  1  0  0  0  0  0999 V2000
   26.5081  -17.5984  -17.2194 C   0  0  0  0  0  0  0  0  0  0  0  0
   25.6427  -18.7366  -16.7264 C   0  0  2  0  0  0  0  0  0  0  0  0
   25.0632  -19.4980  -17.7842 N   0  0  0  0  0  0  0  0  0  0  0  0
   24.6018  -18.2858  -15.7868 C   0  0  0  0  0  0  0  0  0  0  0  0
   24.7823  -17.2931  -15.0424 O   0  0  0  0  0  0  0  0  0  0  0  0
   23.3724  -18.9756  -15.7126 N   0  0  0  0  0  0  0  0  0  0  0  0
   22.2114  -18.5050  -14.9501 C   0  0  1  0  0  0  0  0  0  0  0  0
   21.7211  -17.2800  -15.6532 C   0  0  0  0  0  0  0  0  0  0  0  0
   20.5931  -16.5893  -14.9840 C   0  0  0  0  0  0  0  0  0  0  0  0
   20.0169  -16.8241  -13.7837 C   0  0  0  0  0  0  0  0  0  0  0  0
   19.0499  -15.8805  -13.5646 N   0  0  0  0  0  0  0  0  0  0  0  0
   19.0200  -15.0579  -14.6195 C   0  0  0  0  0  0  0  0  0  0  0  0
   19.9491  -15.4809  -15.4782 N   0  0  0  0  0  0  0  0  0  0  0  0
   21.1850  -19.5897  -15.2292 C   0  0  0  0  0  0  0  0  0  0  0  0
   21.5555  -20.6055  -15.8337 O   0  0  0  0  0  0  0  0  0  0  0  0
   19.1456  -24.3314  -14.3422 N   0  0  0  0  0  0  0  0  0  0  0  0
   18.9307  -23.0854  -15.0104 C   0  0  0  0  0  0  0  0  0  0  0  0
   17.9433  -23.0595  -15.7939 O   0  0  0  0  0  0  0  0  0  0  0  0
   19.8192  -21.9340  -14.7767 C   0  0  0  0  0  0  0  0  0  0  0  0
   19.0322  -20.6883  -14.5023 C   0  0  2  0  0  0  0  0  0  0  0  0
   19.8409  -19.5049  -14.8407 N   0  0  0  0  0  0  0  0  0  0  0  0
   18.5000  -20.5847  -13.1387 C   0  0  0  0  0  0  0  0  0  0  0  0
   17.1595  -20.2454  -12.8783 O   0  0  0  0  0  0  0  0  0  0  0  0
   19.2376  -20.7994  -12.1515 O   0  0  0  0  0  0  0  0  0  0  0  0
  2  1  1  6
  2  4  1  0
  2  3  1  0
  4  5  2  0
  6  7  1  0
  6  4  1  0
  7 14  1  0
  7  8  1  6
  9 10  2  0
  9  8  1  0
 11 10  1  0
 12 13  2  0
 12 11  1  0
 13  9  1  0
 14 21  1  0
 14 15  2  0
 17 18  2  0
 17 16  1  0
 19 17  1  0
 20 19  1  1
 21 20  1  0
 22 23  1  0
 22 20  1  0
 24 22  2  0
M  END
$$$$
