AHN.pdb
     RDKit          3D

 24 24  0  0  1  0  0  0  0  0999 V2000
   27.9561  -21.6079  -20.8887 C   0  0  0  0  0  0  0  0  0  0  0  0
   27.0190  -20.8909  -19.9425 C   0  0  2  0  0  0  0  0  0  0  0  0
   27.5547  -19.6659  -19.4455 N   0  0  0  0  0  0  0  0  0  0  0  0
   26.5781  -21.7489  -18.8295 C   0  0  0  0  0  0  0  0  0  0  0  0
   26.0968  -22.8881  -19.0367 O   0  0  0  0  0  0  0  0  0  0  0  0
   26.6939  -21.2925  -17.4987 N   0  0  0  0  0  0  0  0  0  0  0  0
   26.3187  -22.0849  -16.3231 C   0  0  1  0  0  0  0  0  0  0  0  0
   27.5613  -22.2271  -15.5039 C   0  0  0  0  0  0  0  0  0  0  0  0
   28.4731  -23.3109  -15.9414 C   0  0  0  0  0  0  0  0  0  0  0  0
   28.3975  -24.1336  -17.0117 C   0  0  0  0  0  0  0  0  0  0  0  0
   29.5097  -24.9313  -17.0361 N   0  0  0  0  0  0  0  0  0  0  0  0
   30.2789  -24.6107  -15.9894 C   0  0  0  0  0  0  0  0  0  0  0  0
   29.6583  -23.6337  -15.3261 N   0  0  0  0  0  0  0  0  0  0  0  0
   25.4212  -21.1234  -15.5630 C   0  0  0  0  0  0  0  0  0  0  0  0
   25.6976  -19.9162  -15.5924 O   0  0  0  0  0  0  0  0  0  0  0  0
   20.3639  -19.1455  -16.1799 N   0  0  0  0  0  0  0  0  0  0  0  0
   21.6557  -18.9869  -15.5873 C   0  0  0  0  0  0  0  0  0  0  0  0
   21.7903  -17.9679  -14.8572 O   0  0  0  0  0  0  0  0  0  0  0  0
   22.7304  -19.9637  -15.8336 C   0  0  0  0  0  0  0  0  0  0  0  0
   23.1566  -20.6336  -14.5624 C   0  0  2  0  0  0  0  0  0  0  0  0
   24.2970  -21.5264  -14.8292 N   0  0  0  0  0  0  0  0  0  0  0  0
   22.0876  -21.3485  -13.8555 C   0  0  0  0  0  0  0  0  0  0  0  0
   21.5878  -20.9167  -12.6131 O   0  0  0  0  0  0  0  0  0  0  0  0
   21.5818  -22.3814  -14.3476 O   0  0  0  0  0  0  0  0  0  0  0  0
  2  1  1  1
  2  4  1  0
  2  3  1  0
  4  5  2  0
  6  7  1  0
  6  4  1  0
  7 14  1  0
  7  8  1  1
  9 10  2  0
  9  8  1  0
 11 10  1  0
 12 13  2  0
 12 11  1  0
 13  9  1  0
 14 21  1  0
 14 15  2  0
 17 18  2  0
 17 16  1  0
 19 17  1  0
 20 19  1  6
 21 20  1  0
 22 23  1  0
 22 20  1  0
 24 22  2  0
M  END
$$$$
