AHN.pdb
     RDKit          3D

 24 24  0  0  1  0  0  0  0  0999 V2000
   23.4249  -11.5110  -20.0504 C   0  0  0  0  0  0  0  0  0  0  0  0
   23.4637  -10.7746  -18.7299 C   0  0  2  0  0  0  0  0  0  0  0  0
   23.9908  -11.5632  -17.6646 N   0  0  0  0  0  0  0  0  0  0  0  0
   22.1520  -10.2176  -18.3576 C   0  0  0  0  0  0  0  0  0  0  0  0
   21.5211   -9.4623  -19.1347 O   0  0  0  0  0  0  0  0  0  0  0  0
   21.5824  -10.5319  -17.1049 N   0  0  0  0  0  0  0  0  0  0  0  0
   20.2492  -10.0964  -16.6764 C   0  0  1  0  0  0  0  0  0  0  0  0
   19.6676  -11.2368  -15.9040 C   0  0  0  0  0  0  0  0  0  0  0  0
   18.3204  -10.9825  -15.3405 C   0  0  0  0  0  0  0  0  0  0  0  0
   17.5175   -9.9010  -15.4573 C   0  0  0  0  0  0  0  0  0  0  0  0
   16.3360  -10.1554  -14.8146 N   0  0  0  0  0  0  0  0  0  0  0  0
   16.3960  -11.3887  -14.2992 C   0  0  0  0  0  0  0  0  0  0  0  0
   17.5907  -11.8919  -14.6139 N   0  0  0  0  0  0  0  0  0  0  0  0
   20.5774   -9.0205  -15.6552 C   0  0  0  0  0  0  0  0  0  0  0  0
   21.5404   -9.2054  -14.8981 O   0  0  0  0  0  0  0  0  0  0  0  0
   21.2567   -4.6948  -13.0546 N   0  0  0  0  0  0  0  0  0  0  0  0
   22.1360   -5.2723  -14.0233 C   0  0  0  0  0  0  0  0  0  0  0  0
   23.2803   -4.7474  -14.0906 O   0  0  0  0  0  0  0  0  0  0  0  0
   21.7032   -6.4000  -14.8665 C   0  0  0  0  0  0  0  0  0  0  0  0
   20.2641   -6.7394  -14.6219 C   0  0  2  0  0  0  0  0  0  0  0  0
   19.8506   -7.8295  -15.5217 N   0  0  0  0  0  0  0  0  0  0  0  0
   19.3394   -5.6039  -14.7176 C   0  0  0  0  0  0  0  0  0  0  0  0
   19.1145   -4.7243  -13.6426 O   0  0  0  0  0  0  0  0  0  0  0  0
   18.7138   -5.3826  -15.7780 O   0  0  0  0  0  0  0  0  0  0  0  0
  2  1  1  6
  2  4  1  0
  2  3  1  0
  4  5  2  0
  6  7  1  0
  6  4  1  0
  7 14  1  0
  7  8  1  1
  9 10  2  0
  9  8  1  0
 11 10  1  0
 12 13  2  0
 12 11  1  0
 13  9  1  0
 14 21  1  0
 14 15  2  0
 17 18  2  0
 17 16  1  0
 19 17  1  0
 20 19  1  6
 21 20  1  0
 22 23  1  0
 22 20  1  0
 24 22  2  0
M  END
$$$$
