AHN.pdb
     RDKit          3D

 24 24  0  0  1  0  0  0  0  0999 V2000
   18.9876  -14.3731  -18.4554 C   0  0  0  0  0  0  0  0  0  0  0  0
   19.3729  -12.9872  -18.9226 C   0  0  2  0  0  0  0  0  0  0  0  0
   20.7185  -12.9077  -19.3889 N   0  0  0  0  0  0  0  0  0  0  0  0
   19.1213  -11.9582  -17.8992 C   0  0  0  0  0  0  0  0  0  0  0  0
   17.9785  -11.7916  -17.4106 O   0  0  0  0  0  0  0  0  0  0  0  0
   20.1779  -11.1367  -17.4507 N   0  0  0  0  0  0  0  0  0  0  0  0
   20.0109  -10.0247  -16.5092 C   0  0  1  0  0  0  0  0  0  0  0  0
   21.1599  -10.1106  -15.5565 C   0  0  0  0  0  0  0  0  0  0  0  0
   21.2507   -8.9900  -14.5903 C   0  0  0  0  0  0  0  0  0  0  0  0
   20.3943   -7.9704  -14.3562 C   0  0  0  0  0  0  0  0  0  0  0  0
   20.8752   -7.2177  -13.3189 N   0  0  0  0  0  0  0  0  0  0  0  0
   22.0248   -7.7618  -12.9037 C   0  0  0  0  0  0  0  0  0  0  0  0
   22.2556   -8.8311  -13.6671 N   0  0  0  0  0  0  0  0  0  0  0  0
   20.2836   -8.8170  -17.3897 C   0  0  0  0  0  0  0  0  0  0  0  0
   20.9173   -8.9888  -18.4402 O   0  0  0  0  0  0  0  0  0  0  0  0
   20.0062   -4.4335  -19.9695 N   0  0  0  0  0  0  0  0  0  0  0  0
   19.3098   -5.6452  -20.2728 C   0  0  0  0  0  0  0  0  0  0  0  0
   18.7424   -5.6713  -21.3983 O   0  0  0  0  0  0  0  0  0  0  0  0
   19.2780   -6.7640  -19.3152 C   0  0  0  0  0  0  0  0  0  0  0  0
   19.9567   -6.3978  -18.0301 C   0  0  2  0  0  0  0  0  0  0  0  0
   19.8582   -7.5181  -17.0792 N   0  0  0  0  0  0  0  0  0  0  0  0
   19.4841   -5.1504  -17.4185 C   0  0  0  0  0  0  0  0  0  0  0  0
   18.9809   -5.1000  -16.1054 O   0  0  0  0  0  0  0  0  0  0  0  0
   19.5164   -4.0770  -18.0601 O   0  0  0  0  0  0  0  0  0  0  0  0
  2  1  1  1
  2  4  1  0
  2  3  1  0
  4  5  2  0
  6  7  1  0
  6  4  1  0
  7 14  1  0
  7  8  1  1
  9 10  2  0
  9  8  1  0
 11 10  1  0
 12 13  2  0
 12 11  1  0
 13  9  1  0
 14 21  1  0
 14 15  2  0
 17 18  2  0
 17 16  1  0
 19 17  1  0
 20 19  1  6
 21 20  1  0
 22 23  1  0
 22 20  1  0
 24 22  2  0
M  END
$$$$
