AHN.pdb
     RDKit          3D

 24 24  0  0  1  0  0  0  0  0999 V2000
   44.6373   -8.1790   -4.2280 C   0  0  0  0  0  0  0  0  0  0  0  0
   44.6049   -9.5812   -4.7939 C   0  0  2  0  0  0  0  0  0  0  0  0
   45.9031  -10.1030   -5.0713 N   0  0  0  0  0  0  0  0  0  0  0  0
   43.7424   -9.6881   -5.9832 C   0  0  0  0  0  0  0  0  0  0  0  0
   44.1843   -9.4472   -7.1317 O   0  0  0  0  0  0  0  0  0  0  0  0
   42.3903  -10.0681   -5.8417 N   0  0  0  0  0  0  0  0  0  0  0  0
   41.4417  -10.1586   -6.9565 C   0  0  1  0  0  0  0  0  0  0  0  0
   40.3450  -11.0647   -6.4965 C   0  0  0  0  0  0  0  0  0  0  0  0
   39.2264  -11.2228   -7.4561 C   0  0  0  0  0  0  0  0  0  0  0  0
   39.0858  -10.7507   -8.7152 C   0  0  0  0  0  0  0  0  0  0  0  0
   37.9060  -11.2139   -9.2325 N   0  0  0  0  0  0  0  0  0  0  0  0
   37.3108  -11.9727   -8.3051 C   0  0  0  0  0  0  0  0  0  0  0  0
   38.1032  -11.9816   -7.2320 N   0  0  0  0  0  0  0  0  0  0  0  0
   40.8483   -8.7604   -6.9851 C   0  0  0  0  0  0  0  0  0  0  0  0
   40.9798   -8.0472   -5.9808 O   0  0  0  0  0  0  0  0  0  0  0  0
   38.9685   -4.1752   -8.1664 N   0  0  0  0  0  0  0  0  0  0  0  0
   40.3466   -4.4960   -7.9585 C   0  0  0  0  0  0  0  0  0  0  0  0
   41.1167   -3.5049   -7.8394 O   0  0  0  0  0  0  0  0  0  0  0  0
   40.8000   -5.8960   -7.8932 C   0  0  0  0  0  0  0  0  0  0  0  0
   39.6641   -6.8456   -8.1258 C   0  0  2  0  0  0  0  0  0  0  0  0
   40.1592   -8.2321   -8.0855 N   0  0  0  0  0  0  0  0  0  0  0  0
   38.8983   -6.5999   -9.3532 C   0  0  0  0  0  0  0  0  0  0  0  0
   37.7950   -5.7273   -9.3894 O   0  0  0  0  0  0  0  0  0  0  0  0
   39.2115   -7.1704  -10.4215 O   0  0  0  0  0  0  0  0  0  0  0  0
  2  1  1  6
  2  4  1  0
  2  3  1  0
  4  5  2  0
  6  7  1  0
  6  4  1  0
  7 14  1  0
  7  8  1  1
  9 10  2  0
  9  8  1  0
 11 10  1  0
 12 13  2  0
 12 11  1  0
 13  9  1  0
 14 21  1  0
 14 15  2  0
 17 18  2  0
 17 16  1  0
 19 17  1  0
 20 19  1  6
 21 20  1  0
 22 23  1  0
 22 20  1  0
 24 22  2  0
M  END
$$$$
