AHN.pdb
     RDKit          3D

 24 24  0  0  1  0  0  0  0  0999 V2000
   15.2237  -12.0344  -16.7115 C   0  0  0  0  0  0  0  0  0  0  0  0
   16.1662  -11.6766  -15.5840 C   0  0  2  0  0  0  0  0  0  0  0  0
   16.5548  -12.8034  -14.8004 N   0  0  0  0  0  0  0  0  0  0  0  0
   15.6318  -10.6094  -14.7211 C   0  0  0  0  0  0  0  0  0  0  0  0
   15.3481   -9.4789  -15.1836 O   0  0  0  0  0  0  0  0  0  0  0  0
   15.4301  -10.8501  -13.3449 N   0  0  0  0  0  0  0  0  0  0  0  0
   14.8847   -9.8610  -12.4094 C   0  0  1  0  0  0  0  0  0  0  0  0
   14.1371  -10.6372  -11.3730 C   0  0  0  0  0  0  0  0  0  0  0  0
   13.5310   -9.8152  -10.2986 C   0  0  0  0  0  0  0  0  0  0  0  0
   13.6005   -8.4833  -10.0768 C   0  0  0  0  0  0  0  0  0  0  0  0
   12.8198   -8.1733   -8.9959 N   0  0  0  0  0  0  0  0  0  0  0  0
   12.2628   -9.3024   -8.5432 C   0  0  0  0  0  0  0  0  0  0  0  0
   12.6883  -10.2955   -9.3257 N   0  0  0  0  0  0  0  0  0  0  0  0
   16.1383   -9.3435  -11.7248 C   0  0  0  0  0  0  0  0  0  0  0  0
   17.1545  -10.0516  -11.7500 O   0  0  0  0  0  0  0  0  0  0  0  0
   19.9110   -6.4902   -9.8114 N   0  0  0  0  0  0  0  0  0  0  0  0
   19.7680   -6.9572  -11.1556 C   0  0  0  0  0  0  0  0  0  0  0  0
   20.7723   -6.7777  -11.8962 O   0  0  0  0  0  0  0  0  0  0  0  0
   18.5218   -7.5982  -11.6094 C   0  0  0  0  0  0  0  0  0  0  0  0
   17.4697   -7.5547  -10.5429 C   0  0  2  0  0  0  0  0  0  0  0  0
   16.2091   -8.1087  -11.0654 N   0  0  0  0  0  0  0  0  0  0  0  0
   17.2515   -6.2313   -9.9476 C   0  0  0  0  0  0  0  0  0  0  0  0
   18.0120   -5.7606   -8.8612 O   0  0  0  0  0  0  0  0  0  0  0  0
   16.3665   -5.4707  -10.3983 O   0  0  0  0  0  0  0  0  0  0  0  0
  2  1  1  6
  2  4  1  0
  2  3  1  0
  4  5  2  0
  6  7  1  0
  6  4  1  0
  7 14  1  0
  7  8  1  1
  9 10  2  0
  9  8  1  0
 11 10  1  0
 12 13  2  0
 12 11  1  0
 13  9  1  0
 14 21  1  0
 14 15  2  0
 17 18  2  0
 17 16  1  0
 19 17  1  0
 20 19  1  6
 21 20  1  0
 22 23  1  0
 22 20  1  0
 24 22  2  0
M  END
$$$$
