FKQ.pdb
     RDKit          3D

 30 30  0  0  1  0  0  0  0  0999 V2000
    5.8409  -16.8277   25.5644 N   0  0  0  0  0  0  0  0  0  0  0  0
    6.9328  -15.9884   25.1193 C   0  0  1  0  0  0  0  0  0  0  0  0
    7.4514  -15.2366   26.3209 C   0  0  0  0  0  0  0  0  0  0  0  0
    6.9791  -13.8473   26.3048 C   0  0  0  0  0  0  0  0  0  0  0  0
    7.7584  -12.8944   25.6674 C   0  0  0  0  0  0  0  0  0  0  0  0
    7.3744  -11.5615   25.6133 C   0  0  0  0  0  0  0  0  0  0  0  0
    6.2117  -11.1565   26.1912 C   0  0  0  0  0  0  0  0  0  0  0  0
    5.4100  -12.0971   26.8388 C   0  0  0  0  0  0  0  0  0  0  0  0
    5.8100  -13.4128   26.8803 C   0  0  0  0  0  0  0  0  0  0  0  0
    7.9567  -16.8356   24.4904 C   0  0  0  0  0  0  0  0  0  0  0  0
    8.2609  -17.9255   25.0319 O   0  0  0  0  0  0  0  0  0  0  0  0
    8.6288  -16.4843   23.2890 N   0  0  0  0  0  0  0  0  0  0  0  0
    9.7357  -17.1718   22.7054 C   0  0  1  0  0  0  0  0  0  0  0  0
   10.0193  -16.7249   21.2836 C   0  0  0  0  0  0  0  0  0  0  0  0
   11.0435  -17.6106   20.6266 C   0  0  0  0  0  0  0  0  0  0  0  0
   11.3400  -17.2594   19.2064 C   0  0  0  0  0  0  0  0  0  0  0  0
   12.3407  -18.2125   18.5882 C   0  0  0  0  0  0  0  0  0  0  0  0
   12.6506  -17.7001   17.2619 N   0  0  0  0  0  0  0  0  0  0  0  0
   10.9263  -17.0137   23.5769 C   0  0  0  0  0  0  0  0  0  0  0  0
   11.4564  -15.8677   23.7106 O   0  0  0  0  0  0  0  0  0  0  0  0
   12.1899  -17.3790   29.2624 N   0  0  0  0  0  0  0  0  0  0  0  0
   11.5370  -18.4274   28.5633 C   0  0  0  0  0  0  0  0  0  0  0  0
   11.1650  -19.4781   29.1260 O   0  0  0  0  0  0  0  0  0  0  0  0
   11.3142  -18.2039   27.0928 C   0  0  0  0  0  0  0  0  0  0  0  0
   12.5688  -18.6197   26.3742 C   0  0  0  0  0  0  0  0  0  0  0  0
   12.7187  -17.8454   25.0989 C   0  0  2  0  0  0  0  0  0  0  0  0
   11.5169  -18.0755   24.2784 N   0  0  0  0  0  0  0  0  0  0  0  0
   13.8894  -18.3133   24.3478 C   0  0  0  0  0  0  0  0  0  0  0  0
   15.1687  -18.0572   24.8799 O   0  0  0  0  0  0  0  0  0  0  0  0
   13.8810  -18.9252   23.2681 O   0  0  0  0  0  0  0  0  0  0  0  0
  2  1  1  1
  2 10  1  0
  2  3  1  0
  3  4  1  0
  4  5  2  0
  4  9  1  0
  5  6  1  0
  6  7  2  0
  8  7  1  0
  9  8  2  0
 10 11  2  0
 12 13  1  0
 12 10  1  0
 13 14  1  6
 14 15  1  0
 16 17  1  0
 16 15  1  0
 18 17  1  0
 19 20  2  0
 19 13  1  0
 21 22  1  0
 22 24  1  0
 23 22  2  0
 24 25  1  0
 26 25  1  1
 26 28  1  0
 26 27  1  0
 27 19  1  0
 28 29  1  0
 30 28  2  0
M  END
$$$$
