FKQ.pdb
     RDKit          3D

 30 30  0  0  1  0  0  0  0  0999 V2000
    6.1579  -17.5875   25.6399 N   0  0  0  0  0  0  0  0  0  0  0  0
    6.4110  -16.2184   25.2444 C   0  0  1  0  0  0  0  0  0  0  0  0
    7.0095  -15.5025   26.4307 C   0  0  0  0  0  0  0  0  0  0  0  0
    6.5564  -14.1075   26.4750 C   0  0  0  0  0  0  0  0  0  0  0  0
    7.4476  -13.1136   26.1010 C   0  0  0  0  0  0  0  0  0  0  0  0
    7.0880  -11.7730   26.1189 C   0  0  0  0  0  0  0  0  0  0  0  0
    5.8391  -11.4006   26.5081 C   0  0  0  0  0  0  0  0  0  0  0  0
    4.9242  -12.3827   26.8891 C   0  0  0  0  0  0  0  0  0  0  0  0
    5.3019  -13.7055   26.8639 C   0  0  0  0  0  0  0  0  0  0  0  0
    7.2976  -16.2196   24.0715 C   0  0  0  0  0  0  0  0  0  0  0  0
    8.2270  -17.0600   24.0123 O   0  0  0  0  0  0  0  0  0  0  0  0
    7.1585  -15.3106   22.9884 N   0  0  0  0  0  0  0  0  0  0  0  0
    7.9667  -15.2642   21.8123 C   0  0  1  0  0  0  0  0  0  0  0  0
    7.5752  -14.1360   20.8766 C   0  0  0  0  0  0  0  0  0  0  0  0
    8.3446  -14.2057   19.5850 C   0  0  0  0  0  0  0  0  0  0  0  0
    7.8604  -13.2680   18.5293 C   0  0  0  0  0  0  0  0  0  0  0  0
    8.5603  -13.4995   17.2070 C   0  0  0  0  0  0  0  0  0  0  0  0
    7.9395  -12.6095   16.2373 N   0  0  0  0  0  0  0  0  0  0  0  0
    9.3960  -15.1813   22.2022 C   0  0  0  0  0  0  0  0  0  0  0  0
    9.7414  -14.4174   23.1558 O   0  0  0  0  0  0  0  0  0  0  0  0
   12.4682  -20.2265   24.2923 N   0  0  0  0  0  0  0  0  0  0  0  0
   12.3531  -18.9145   24.8211 C   0  0  0  0  0  0  0  0  0  0  0  0
   11.9955  -18.6949   25.9971 O   0  0  0  0  0  0  0  0  0  0  0  0
   12.6881  -17.7901   23.8802 C   0  0  0  0  0  0  0  0  0  0  0  0
   11.4244  -17.4089   23.1584 C   0  0  0  0  0  0  0  0  0  0  0  0
   11.6647  -16.2145   22.2844 C   0  0  2  0  0  0  0  0  0  0  0  0
   10.4134  -15.9105   21.5685 N   0  0  0  0  0  0  0  0  0  0  0  0
   12.7073  -16.5041   21.2930 C   0  0  0  0  0  0  0  0  0  0  0  0
   12.3391  -16.5554   19.9339 O   0  0  0  0  0  0  0  0  0  0  0  0
   13.9089  -16.7148   21.5213 O   0  0  0  0  0  0  0  0  0  0  0  0
  2  1  1  1
  2 10  1  0
  2  3  1  0
  3  4  1  0
  4  5  2  0
  4  9  1  0
  5  6  1  0
  6  7  2  0
  8  7  1  0
  9  8  2  0
 10 11  2  0
 12 13  1  0
 12 10  1  0
 13 14  1  6
 14 15  1  0
 16 17  1  0
 16 15  1  0
 18 17  1  0
 19 20  2  0
 19 13  1  0
 21 22  1  0
 22 24  1  0
 23 22  2  0
 24 25  1  0
 26 25  1  1
 26 28  1  0
 26 27  1  0
 27 19  1  0
 28 29  1  0
 30 28  2  0
M  END
$$$$
