FKQ.pdb
     RDKit          3D

 30 30  0  0  1  0  0  0  0  0999 V2000
    6.0945  -17.7769   25.9682 N   0  0  0  0  0  0  0  0  0  0  0  0
    6.4641  -16.4410   25.5518 C   0  0  1  0  0  0  0  0  0  0  0  0
    7.1597  -15.7754   26.7142 C   0  0  0  0  0  0  0  0  0  0  0  0
    6.8893  -14.3331   26.7214 C   0  0  0  0  0  0  0  0  0  0  0  0
    7.9529  -13.4648   26.9122 C   0  0  0  0  0  0  0  0  0  0  0  0
    7.7712  -12.0887   26.9312 C   0  0  0  0  0  0  0  0  0  0  0  0
    6.5314  -11.5559   26.7610 C   0  0  0  0  0  0  0  0  0  0  0  0
    5.4449  -12.4095   26.5672 C   0  0  0  0  0  0  0  0  0  0  0  0
    5.6479  -13.7702   26.5519 C   0  0  0  0  0  0  0  0  0  0  0  0
    7.3138  -16.5348   24.3557 C   0  0  0  0  0  0  0  0  0  0  0  0
    8.1451  -17.4705   24.2719 O   0  0  0  0  0  0  0  0  0  0  0  0
    7.2450  -15.6132   23.2764 N   0  0  0  0  0  0  0  0  0  0  0  0
    8.1101  -15.5719   22.1414 C   0  0  1  0  0  0  0  0  0  0  0  0
    7.7569  -14.4562   21.1760 C   0  0  0  0  0  0  0  0  0  0  0  0
    8.5929  -14.5298   19.9267 C   0  0  0  0  0  0  0  0  0  0  0  0
    8.1896  -13.5675   18.8592 C   0  0  0  0  0  0  0  0  0  0  0  0
    8.8892  -13.8559   17.5479 C   0  0  0  0  0  0  0  0  0  0  0  0
    8.5672  -12.7605   16.6457 N   0  0  0  0  0  0  0  0  0  0  0  0
    9.5177  -15.4735   22.6007 C   0  0  0  0  0  0  0  0  0  0  0  0
    9.8133  -14.6806   23.5472 O   0  0  0  0  0  0  0  0  0  0  0  0
   13.9696  -18.8043   26.1927 N   0  0  0  0  0  0  0  0  0  0  0  0
   13.4181  -18.8899   24.8878 C   0  0  0  0  0  0  0  0  0  0  0  0
   12.9926  -19.9617   24.4091 O   0  0  0  0  0  0  0  0  0  0  0  0
   13.3726  -17.6076   24.1033 C   0  0  0  0  0  0  0  0  0  0  0  0
   12.0260  -17.5294   23.4371 C   0  0  0  0  0  0  0  0  0  0  0  0
   11.8904  -16.2374   22.6882 C   0  0  2  0  0  0  0  0  0  0  0  0
   10.5669  -16.2185   22.0414 N   0  0  0  0  0  0  0  0  0  0  0  0
   12.9176  -16.1377   21.6448 C   0  0  0  0  0  0  0  0  0  0  0  0
   12.5030  -16.1455   20.2982 O   0  0  0  0  0  0  0  0  0  0  0  0
   14.1431  -16.0448   21.8179 O   0  0  0  0  0  0  0  0  0  0  0  0
  2  1  1  1
  2 10  1  0
  2  3  1  0
  3  4  1  0
  4  5  2  0
  4  9  1  0
  5  6  1  0
  6  7  2  0
  8  7  1  0
  9  8  2  0
 10 11  2  0
 12 13  1  0
 12 10  1  0
 13 14  1  6
 14 15  1  0
 16 17  1  0
 16 15  1  0
 18 17  1  0
 19 20  2  0
 19 13  1  0
 21 22  1  0
 22 24  1  0
 23 22  2  0
 24 25  1  0
 26 25  1  6
 26 28  1  0
 26 27  1  0
 27 19  1  0
 28 29  1  0
 30 28  2  0
M  END
$$$$
