FKQ.pdb
     RDKit          3D

 30 30  0  0  1  0  0  0  0  0999 V2000
    6.7469  -17.3284   25.7963 N   0  0  0  0  0  0  0  0  0  0  0  0
    6.9253  -16.0145   25.2161 C   0  0  1  0  0  0  0  0  0  0  0  0
    7.9678  -15.2911   26.0334 C   0  0  0  0  0  0  0  0  0  0  0  0
    7.4666  -13.9824   26.4688 C   0  0  0  0  0  0  0  0  0  0  0  0
    8.3057  -13.1719   27.2177 C   0  0  0  0  0  0  0  0  0  0  0  0
    7.8984  -11.9221   27.6638 C   0  0  0  0  0  0  0  0  0  0  0  0
    6.6528  -11.4598   27.3728 C   0  0  0  0  0  0  0  0  0  0  0  0
    5.7898  -12.2573   26.6204 C   0  0  0  0  0  0  0  0  0  0  0  0
    6.2143  -13.4927   26.1884 C   0  0  0  0  0  0  0  0  0  0  0  0
    7.3105  -16.1671   23.8055 C   0  0  0  0  0  0  0  0  0  0  0  0
    7.8347  -17.2435   23.4310 O   0  0  0  0  0  0  0  0  0  0  0  0
    7.1198  -15.1507   22.8311 N   0  0  0  0  0  0  0  0  0  0  0  0
    7.5812  -15.1751   21.4801 C   0  0  1  0  0  0  0  0  0  0  0  0
    7.1228  -13.9686   20.6828 C   0  0  0  0  0  0  0  0  0  0  0  0
    7.1221  -14.2581   19.2058 C   0  0  0  0  0  0  0  0  0  0  0  0
    8.3316  -13.7667   18.4822 C   0  0  0  0  0  0  0  0  0  0  0  0
    8.1918  -13.9212   16.9826 C   0  0  0  0  0  0  0  0  0  0  0  0
    9.3581  -13.2923   16.3811 N   0  0  0  0  0  0  0  0  0  0  0  0
    9.0589  -15.3100   21.4687 C   0  0  0  0  0  0  0  0  0  0  0  0
    9.7664  -14.5016   22.1454 O   0  0  0  0  0  0  0  0  0  0  0  0
   12.5945  -17.8656   24.2921 N   0  0  0  0  0  0  0  0  0  0  0  0
   11.7716  -18.7812   23.5859 C   0  0  0  0  0  0  0  0  0  0  0  0
   11.5135  -19.9230   24.0203 O   0  0  0  0  0  0  0  0  0  0  0  0
   11.2205  -18.2987   22.2724 C   0  0  0  0  0  0  0  0  0  0  0  0
   11.6412  -16.8643   22.1019 C   0  0  0  0  0  0  0  0  0  0  0  0
   11.2112  -16.3522   20.7598 C   0  0  2  0  0  0  0  0  0  0  0  0
    9.7391  -16.2972   20.7398 N   0  0  0  0  0  0  0  0  0  0  0  0
   11.6556  -17.2605   19.6963 C   0  0  0  0  0  0  0  0  0  0  0  0
   13.0349  -17.3381   19.4191 O   0  0  0  0  0  0  0  0  0  0  0  0
   10.9357  -17.9878   18.9941 O   0  0  0  0  0  0  0  0  0  0  0  0
  2  1  1  1
  2 10  1  0
  2  3  1  0
  3  4  1  0
  4  5  2  0
  4  9  1  0
  5  6  1  0
  6  7  2  0
  8  7  1  0
  9  8  2  0
 10 11  2  0
 12 13  1  0
 12 10  1  0
 13 14  1  1
 14 15  1  0
 16 17  1  0
 16 15  1  0
 18 17  1  0
 19 20  2  0
 19 13  1  0
 21 22  1  0
 22 24  1  0
 23 22  2  0
 24 25  1  0
 26 25  1  1
 26 28  1  0
 26 27  1  0
 27 19  1  0
 28 29  1  0
 30 28  2  0
M  END
$$$$
