FKQ.pdb
     RDKit          3D

 30 30  0  0  1  0  0  0  0  0999 V2000
    8.4839  -14.8948   22.7443 N   0  0  0  0  0  0  0  0  0  0  0  0
    8.5604  -15.2089   24.1551 C   0  0  1  0  0  0  0  0  0  0  0  0
    7.1776  -15.0421   24.7366 C   0  0  0  0  0  0  0  0  0  0  0  0
    7.0340  -13.7204   25.3577 C   0  0  0  0  0  0  0  0  0  0  0  0
    7.4327  -12.6065   24.6351 C   0  0  0  0  0  0  0  0  0  0  0  0
    7.3264  -11.3257   25.1596 C   0  0  0  0  0  0  0  0  0  0  0  0
    6.8230  -11.1330   26.4084 C   0  0  0  0  0  0  0  0  0  0  0  0
    6.4149  -12.2386   27.1553 C   0  0  0  0  0  0  0  0  0  0  0  0
    6.5292  -13.4991   26.6159 C   0  0  0  0  0  0  0  0  0  0  0  0
    9.0839  -16.5741   24.3096 C   0  0  0  0  0  0  0  0  0  0  0  0
    8.7486  -17.2439   25.3158 O   0  0  0  0  0  0  0  0  0  0  0  0
    9.9591  -17.1841   23.3712 N   0  0  0  0  0  0  0  0  0  0  0  0
   10.5937  -18.4559   23.5072 C   0  0  1  0  0  0  0  0  0  0  0  0
   11.2782  -18.9083   22.2312 C   0  0  0  0  0  0  0  0  0  0  0  0
   11.8531  -20.2912   22.3805 C   0  0  0  0  0  0  0  0  0  0  0  0
   12.5793  -20.7889   21.1751 C   0  0  0  0  0  0  0  0  0  0  0  0
   13.1499  -22.1740   21.3938 C   0  0  0  0  0  0  0  0  0  0  0  0
   13.8682  -22.5331   20.1802 N   0  0  0  0  0  0  0  0  0  0  0  0
   11.5390  -18.4127   24.6501 C   0  0  0  0  0  0  0  0  0  0  0  0
   12.3900  -17.4733   24.7235 O   0  0  0  0  0  0  0  0  0  0  0  0
   12.2547  -21.1475   31.2305 N   0  0  0  0  0  0  0  0  0  0  0  0
   11.7177  -20.0868   30.4554 C   0  0  0  0  0  0  0  0  0  0  0  0
   10.6246  -19.5467   30.7247 O   0  0  0  0  0  0  0  0  0  0  0  0
   12.5436  -19.6425   29.2797 C   0  0  0  0  0  0  0  0  0  0  0  0
   11.6587  -19.6758   28.0635 C   0  0  0  0  0  0  0  0  0  0  0  0
   12.4028  -19.1680   26.8648 C   0  0  2  0  0  0  0  0  0  0  0  0
   11.5522  -19.3672   25.6784 N   0  0  0  0  0  0  0  0  0  0  0  0
   13.6473  -19.9220   26.6747 C   0  0  0  0  0  0  0  0  0  0  0  0
   13.5905  -21.1318   25.9546 O   0  0  0  0  0  0  0  0  0  0  0  0
   14.7748  -19.6073   27.0872 O   0  0  0  0  0  0  0  0  0  0  0  0
  2  1  1  6
  2 10  1  0
  2  3  1  0
  3  4  1  0
  4  5  2  0
  4  9  1  0
  5  6  1  0
  6  7  2  0
  8  7  1  0
  9  8  2  0
 10 11  2  0
 12 13  1  0
 12 10  1  0
 13 14  1  6
 14 15  1  0
 16 17  1  0
 16 15  1  0
 18 17  1  0
 19 20  2  0
 19 13  1  0
 21 22  1  0
 22 24  1  0
 23 22  2  0
 24 25  1  0
 26 25  1  1
 26 28  1  0
 26 27  1  0
 27 19  1  0
 28 29  1  0
 30 28  2  0
M  END
$$$$
