FKQ.pdb
     RDKit          3D

 30 30  0  0  1  0  0  0  0  0999 V2000
    6.4283  -17.3753   25.7176 N   0  0  0  0  0  0  0  0  0  0  0  0
    6.7498  -16.0519   25.2278 C   0  0  1  0  0  0  0  0  0  0  0  0
    7.6857  -15.4104   26.2230 C   0  0  0  0  0  0  0  0  0  0  0  0
    7.2000  -14.0796   26.6059 C   0  0  0  0  0  0  0  0  0  0  0  0
    7.8523  -13.4101   27.6296 C   0  0  0  0  0  0  0  0  0  0  0  0
    7.4474  -12.1489   28.0447 C   0  0  0  0  0  0  0  0  0  0  0  0
    6.3897  -11.5351   27.4493 C   0  0  0  0  0  0  0  0  0  0  0  0
    5.7169  -12.1889   26.4165 C   0  0  0  0  0  0  0  0  0  0  0  0
    6.1352  -13.4386   26.0212 C   0  0  0  0  0  0  0  0  0  0  0  0
    7.3386  -16.1727   23.8860 C   0  0  0  0  0  0  0  0  0  0  0  0
    7.8322  -17.2712   23.5350 O   0  0  0  0  0  0  0  0  0  0  0  0
    7.3802  -15.1014   22.9537 N   0  0  0  0  0  0  0  0  0  0  0  0
    7.9287  -15.1457   21.6362 C   0  0  1  0  0  0  0  0  0  0  0  0
    7.3590  -14.0724   20.7280 C   0  0  0  0  0  0  0  0  0  0  0  0
    7.2884  -14.5452   19.3010 C   0  0  0  0  0  0  0  0  0  0  0  0
    7.9942  -13.6632   18.3252 C   0  0  0  0  0  0  0  0  0  0  0  0
    7.8571  -14.1715   16.9057 C   0  0  0  0  0  0  0  0  0  0  0  0
    8.5344  -13.2133   16.0451 N   0  0  0  0  0  0  0  0  0  0  0  0
    9.4082  -15.0655   21.7178 C   0  0  0  0  0  0  0  0  0  0  0  0
    9.9471  -14.2877   22.5643 O   0  0  0  0  0  0  0  0  0  0  0  0
   13.3087  -17.4937   24.7924 N   0  0  0  0  0  0  0  0  0  0  0  0
   12.1854  -18.2516   24.3705 C   0  0  0  0  0  0  0  0  0  0  0  0
   11.3620  -18.7343   25.1755 O   0  0  0  0  0  0  0  0  0  0  0  0
   12.0372  -18.4448   22.8864 C   0  0  0  0  0  0  0  0  0  0  0  0
   10.9111  -17.5615   22.4228 C   0  0  0  0  0  0  0  0  0  0  0  0
   11.4259  -16.5128   21.4827 C   0  0  2  0  0  0  0  0  0  0  0  0
   10.2689  -15.8120   20.8990 N   0  0  0  0  0  0  0  0  0  0  0  0
   12.1918  -17.1299   20.3936 C   0  0  0  0  0  0  0  0  0  0  0  0
   11.5613  -18.1183   19.6120 O   0  0  0  0  0  0  0  0  0  0  0  0
   13.3633  -16.8737   20.0738 O   0  0  0  0  0  0  0  0  0  0  0  0
  2  1  1  1
  2 10  1  0
  2  3  1  0
  3  4  1  0
  4  5  2  0
  4  9  1  0
  5  6  1  0
  6  7  2  0
  8  7  1  0
  9  8  2  0
 10 11  2  0
 12 13  1  0
 12 10  1  0
 13 14  1  6
 14 15  1  0
 16 17  1  0
 16 15  1  0
 18 17  1  0
 19 20  2  0
 19 13  1  0
 21 22  1  0
 22 24  1  0
 23 22  2  0
 24 25  1  0
 26 25  1  1
 26 28  1  0
 26 27  1  0
 27 19  1  0
 28 29  1  0
 30 28  2  0
M  END
$$$$
