FKQ.pdb
     RDKit          3D

 30 30  0  0  1  0  0  0  0  0999 V2000
    8.0350  -16.6434   21.5471 N   0  0  0  0  0  0  0  0  0  0  0  0
    7.9733  -15.7790   22.7062 C   0  0  1  0  0  0  0  0  0  0  0  0
    6.8705  -14.7758   22.4708 C   0  0  0  0  0  0  0  0  0  0  0  0
    7.1685  -13.9458   21.2979 C   0  0  0  0  0  0  0  0  0  0  0  0
    7.8520  -12.7552   21.4902 C   0  0  0  0  0  0  0  0  0  0  0  0
    8.1672  -11.9201   20.4272 C   0  0  0  0  0  0  0  0  0  0  0  0
    7.8083  -12.2554   19.1588 C   0  0  0  0  0  0  0  0  0  0  0  0
    7.1196  -13.4488   18.9397 C   0  0  0  0  0  0  0  0  0  0  0  0
    6.8175  -14.2615   20.0080 C   0  0  0  0  0  0  0  0  0  0  0  0
    7.7487  -16.6043   23.9021 C   0  0  0  0  0  0  0  0  0  0  0  0
    7.6859  -16.0457   25.0236 O   0  0  0  0  0  0  0  0  0  0  0  0
    7.5970  -18.0163   23.8575 N   0  0  0  0  0  0  0  0  0  0  0  0
    7.5377  -18.8977   24.9792 C   0  0  1  0  0  0  0  0  0  0  0  0
    7.1778  -20.3189   24.5889 C   0  0  0  0  0  0  0  0  0  0  0  0
    7.2128  -21.2379   25.7803 C   0  0  0  0  0  0  0  0  0  0  0  0
    6.0000  -22.0950   25.9316 C   0  0  0  0  0  0  0  0  0  0  0  0
    6.0773  -22.9662   27.1674 C   0  0  0  0  0  0  0  0  0  0  0  0
    4.8302  -23.7127   27.2383 N   0  0  0  0  0  0  0  0  0  0  0  0
    8.8245  -18.8413   25.7160 C   0  0  0  0  0  0  0  0  0  0  0  0
    9.9174  -18.8742   25.0706 O   0  0  0  0  0  0  0  0  0  0  0  0
    8.7489  -14.0184   27.6739 N   0  0  0  0  0  0  0  0  0  0  0  0
   10.0097  -14.1967   28.3006 C   0  0  0  0  0  0  0  0  0  0  0  0
   10.6782  -13.2405   28.7453 O   0  0  0  0  0  0  0  0  0  0  0  0
   10.5036  -15.6135   28.4023 C   0  0  0  0  0  0  0  0  0  0  0  0
    9.5025  -16.4954   27.7071 C   0  0  0  0  0  0  0  0  0  0  0  0
    9.9562  -17.9242   27.7407 C   0  0  2  0  0  0  0  0  0  0  0  0
    8.9114  -18.7522   27.1135 N   0  0  0  0  0  0  0  0  0  0  0  0
   10.1351  -18.3744   29.1260 C   0  0  0  0  0  0  0  0  0  0  0  0
   10.1966  -19.7601   29.3739 O   0  0  0  0  0  0  0  0  0  0  0  0
   10.2411  -17.6544   30.1313 O   0  0  0  0  0  0  0  0  0  0  0  0
  2  1  1  6
  2 10  1  0
  2  3  1  0
  3  4  1  0
  4  5  2  0
  4  9  1  0
  5  6  1  0
  6  7  2  0
  8  7  1  0
  9  8  2  0
 10 11  2  0
 12 13  1  0
 12 10  1  0
 13 14  1  6
 14 15  1  0
 16 17  1  0
 16 15  1  0
 18 17  1  0
 19 20  2  0
 19 13  1  0
 21 22  1  0
 22 24  1  0
 23 22  2  0
 24 25  1  0
 26 25  1  1
 26 28  1  0
 26 27  1  0
 27 19  1  0
 28 29  1  0
 30 28  2  0
M  END
$$$$
