FKQ.pdb
     RDKit          3D

 30 30  0  0  1  0  0  0  0  0999 V2000
    5.9007  -17.6461   25.4678 N   0  0  0  0  0  0  0  0  0  0  0  0
    6.2848  -16.2755   25.2060 C   0  0  1  0  0  0  0  0  0  0  0  0
    6.9684  -15.7474   26.4437 C   0  0  0  0  0  0  0  0  0  0  0  0
    6.8806  -14.2836   26.4979 C   0  0  0  0  0  0  0  0  0  0  0  0
    5.6549  -13.7080   26.7948 C   0  0  0  0  0  0  0  0  0  0  0  0
    5.4980  -12.3305   26.8624 C   0  0  0  0  0  0  0  0  0  0  0  0
    6.5555  -11.5055   26.6364 C   0  0  0  0  0  0  0  0  0  0  0  0
    7.7996  -12.0610   26.3357 C   0  0  0  0  0  0  0  0  0  0  0  0
    7.9324  -13.4290   26.2739 C   0  0  0  0  0  0  0  0  0  0  0  0
    7.1507  -16.2441   24.0182 C   0  0  0  0  0  0  0  0  0  0  0  0
    7.9642  -17.1810   23.8334 O   0  0  0  0  0  0  0  0  0  0  0  0
    7.1170  -15.1988   23.0564 N   0  0  0  0  0  0  0  0  0  0  0  0
    7.9165  -15.1067   21.8771 C   0  0  1  0  0  0  0  0  0  0  0  0
    7.6282  -13.8546   21.0703 C   0  0  0  0  0  0  0  0  0  0  0  0
    8.4469  -13.8176   19.8080 C   0  0  0  0  0  0  0  0  0  0  0  0
    7.6829  -13.4131   18.5911 C   0  0  0  0  0  0  0  0  0  0  0  0
    8.5513  -13.4271   17.3510 C   0  0  0  0  0  0  0  0  0  0  0  0
    7.6872  -13.1064   16.2248 N   0  0  0  0  0  0  0  0  0  0  0  0
    9.3502  -15.2013   22.2477 C   0  0  0  0  0  0  0  0  0  0  0  0
    9.7716  -14.5929   23.2793 O   0  0  0  0  0  0  0  0  0  0  0  0
   12.7762  -20.2729   24.4905 N   0  0  0  0  0  0  0  0  0  0  0  0
   12.5912  -18.8659   24.4719 C   0  0  0  0  0  0  0  0  0  0  0  0
   12.2743  -18.2181   25.4913 O   0  0  0  0  0  0  0  0  0  0  0  0
   12.7992  -18.1885   23.1454 C   0  0  0  0  0  0  0  0  0  0  0  0
   11.4594  -17.6947   22.6716 C   0  0  0  0  0  0  0  0  0  0  0  0
   11.5826  -16.3064   22.1187 C   0  0  2  0  0  0  0  0  0  0  0  0
   10.2914  -15.9377   21.5125 N   0  0  0  0  0  0  0  0  0  0  0  0
   12.6147  -16.2576   21.0765 C   0  0  0  0  0  0  0  0  0  0  0  0
   13.9572  -16.1011   21.4747 O   0  0  0  0  0  0  0  0  0  0  0  0
   12.4351  -16.3407   19.8513 O   0  0  0  0  0  0  0  0  0  0  0  0
  2  1  1  1
  2 10  1  0
  2  3  1  0
  3  4  1  0
  4  5  2  0
  4  9  1  0
  5  6  1  0
  6  7  2  0
  8  7  1  0
  9  8  2  0
 10 11  2  0
 12 13  1  0
 12 10  1  0
 13 14  1  1
 14 15  1  0
 16 17  1  0
 16 15  1  0
 18 17  1  0
 19 20  2  0
 19 13  1  0
 21 22  1  0
 22 24  1  0
 23 22  2  0
 24 25  1  0
 26 25  1  6
 26 28  1  0
 26 27  1  0
 27 19  1  0
 28 29  1  0
 30 28  2  0
M  END
$$$$
