FKQ.pdb
     RDKit          3D

 30 30  0  0  1  0  0  0  0  0999 V2000
    6.0742  -17.6585   25.7240 N   0  0  0  0  0  0  0  0  0  0  0  0
    6.5052  -16.3301   25.3440 C   0  0  1  0  0  0  0  0  0  0  0  0
    7.3212  -15.7702   26.4836 C   0  0  0  0  0  0  0  0  0  0  0  0
    7.0156  -14.3497   26.6892 C   0  0  0  0  0  0  0  0  0  0  0  0
    8.0708  -13.4675   26.8618 C   0  0  0  0  0  0  0  0  0  0  0  0
    7.8564  -12.1107   27.0615 C   0  0  0  0  0  0  0  0  0  0  0  0
    6.5918  -11.6111   27.0925 C   0  0  0  0  0  0  0  0  0  0  0  0
    5.5130  -12.4792   26.9211 C   0  0  0  0  0  0  0  0  0  0  0  0
    5.7485  -13.8204   26.7246 C   0  0  0  0  0  0  0  0  0  0  0  0
    7.2643  -16.4187   24.0880 C   0  0  0  0  0  0  0  0  0  0  0  0
    7.9649  -17.4364   23.8712 O   0  0  0  0  0  0  0  0  0  0  0  0
    7.2482  -15.4034   23.0942 N   0  0  0  0  0  0  0  0  0  0  0  0
    7.9947  -15.3974   21.8771 C   0  0  1  0  0  0  0  0  0  0  0  0
    7.7131  -14.1755   21.0232 C   0  0  0  0  0  0  0  0  0  0  0  0
    8.4428  -14.2476   19.7089 C   0  0  0  0  0  0  0  0  0  0  0  0
    7.8738  -13.3737   18.6408 C   0  0  0  0  0  0  0  0  0  0  0  0
    8.5800  -13.5715   17.3163 C   0  0  0  0  0  0  0  0  0  0  0  0
    8.1167  -12.5168   16.4272 N   0  0  0  0  0  0  0  0  0  0  0  0
    9.4400  -15.5274   22.1874 C   0  0  0  0  0  0  0  0  0  0  0  0
    9.9326  -14.8757   23.1593 O   0  0  0  0  0  0  0  0  0  0  0  0
   13.3868  -18.4725   25.2968 N   0  0  0  0  0  0  0  0  0  0  0  0
   12.9869  -19.1964   24.1434 C   0  0  0  0  0  0  0  0  0  0  0  0
   12.5782  -20.3749   24.2001 O   0  0  0  0  0  0  0  0  0  0  0  0
   13.0822  -18.4614   22.8348 C   0  0  0  0  0  0  0  0  0  0  0  0
   11.6876  -18.0652   22.4329 C   0  0  0  0  0  0  0  0  0  0  0  0
   11.6638  -16.6370   21.9766 C   0  0  2  0  0  0  0  0  0  0  0  0
   10.3167  -16.3437   21.4570 N   0  0  0  0  0  0  0  0  0  0  0  0
   12.6336  -16.4264   20.8954 C   0  0  0  0  0  0  0  0  0  0  0  0
   12.4774  -17.1661   19.7064 O   0  0  0  0  0  0  0  0  0  0  0  0
   13.6019  -15.6502   20.9093 O   0  0  0  0  0  0  0  0  0  0  0  0
  2  1  1  1
  2 10  1  0
  2  3  1  0
  3  4  1  0
  4  5  2  0
  4  9  1  0
  5  6  1  0
  6  7  2  0
  8  7  1  0
  9  8  2  0
 10 11  2  0
 12 13  1  0
 12 10  1  0
 13 14  1  1
 14 15  1  0
 16 17  1  0
 16 15  1  0
 18 17  1  0
 19 20  2  0
 19 13  1  0
 21 22  1  0
 22 24  1  0
 23 22  2  0
 24 25  1  0
 26 25  1  6
 26 28  1  0
 26 27  1  0
 27 19  1  0
 28 29  1  0
 30 28  2  0
M  END
$$$$
