FKQ.pdb
     RDKit          3D

 30 30  0  0  1  0  0  0  0  0999 V2000
    7.1792  -16.7126   25.7380 N   0  0  0  0  0  0  0  0  0  0  0  0
    6.4499  -16.3585   24.5391 C   0  0  1  0  0  0  0  0  0  0  0  0
    5.5391  -15.2048   24.8815 C   0  0  0  0  0  0  0  0  0  0  0  0
    6.2978  -14.1150   25.5062 C   0  0  0  0  0  0  0  0  0  0  0  0
    5.9761  -13.7483   26.8038 C   0  0  0  0  0  0  0  0  0  0  0  0
    6.6511  -12.7263   27.4570 C   0  0  0  0  0  0  0  0  0  0  0  0
    7.6545  -12.0544   26.8312 C   0  0  0  0  0  0  0  0  0  0  0  0
    7.9968  -12.4052   25.5248 C   0  0  0  0  0  0  0  0  0  0  0  0
    7.3145  -13.4213   24.8964 C   0  0  0  0  0  0  0  0  0  0  0  0
    7.4127  -16.0302   23.4776 C   0  0  0  0  0  0  0  0  0  0  0  0
    8.4765  -16.6899   23.3959 O   0  0  0  0  0  0  0  0  0  0  0  0
    7.2027  -14.9946   22.5277 N   0  0  0  0  0  0  0  0  0  0  0  0
    8.0966  -14.6089   21.4834 C   0  0  1  0  0  0  0  0  0  0  0  0
    7.9649  -13.1442   21.1107 C   0  0  0  0  0  0  0  0  0  0  0  0
    7.6923  -12.9772   19.6400 C   0  0  0  0  0  0  0  0  0  0  0  0
    8.5377  -13.8335   18.7567 C   0  0  0  0  0  0  0  0  0  0  0  0
    8.1929  -13.6464   17.2944 C   0  0  0  0  0  0  0  0  0  0  0  0
    9.0151  -14.5821   16.5420 N   0  0  0  0  0  0  0  0  0  0  0  0
    9.4861  -14.9514   21.8757 C   0  0  0  0  0  0  0  0  0  0  0  0
   10.3456  -14.0261   22.0068 O   0  0  0  0  0  0  0  0  0  0  0  0
   12.7159  -20.0886   25.5147 N   0  0  0  0  0  0  0  0  0  0  0  0
   12.0064  -18.8636   25.6158 C   0  0  0  0  0  0  0  0  0  0  0  0
   11.1889  -18.6364   26.5319 O   0  0  0  0  0  0  0  0  0  0  0  0
   12.2941  -17.8424   24.5500 C   0  0  0  0  0  0  0  0  0  0  0  0
   11.0069  -17.5719   23.8197 C   0  0  0  0  0  0  0  0  0  0  0  0
   11.2109  -16.5082   22.7827 C   0  0  2  0  0  0  0  0  0  0  0  0
    9.9201  -16.2638   22.1159 N   0  0  0  0  0  0  0  0  0  0  0  0
   12.1775  -16.9538   21.7723 C   0  0  0  0  0  0  0  0  0  0  0  0
   13.5319  -17.0594   22.1463 O   0  0  0  0  0  0  0  0  0  0  0  0
   11.9315  -17.2563   20.5940 O   0  0  0  0  0  0  0  0  0  0  0  0
  2  1  1  1
  2 10  1  0
  2  3  1  0
  3  4  1  0
  4  5  2  0
  4  9  1  0
  5  6  1  0
  6  7  2  0
  8  7  1  0
  9  8  2  0
 10 11  2  0
 12 13  1  0
 12 10  1  0
 13 14  1  1
 14 15  1  0
 16 17  1  0
 16 15  1  0
 18 17  1  0
 19 20  2  0
 19 13  1  0
 21 22  1  0
 22 24  1  0
 23 22  2  0
 24 25  1  0
 26 25  1  1
 26 28  1  0
 26 27  1  0
 27 19  1  0
 28 29  1  0
 30 28  2  0
M  END
$$$$
