FKQ.pdb
     RDKit          3D

 30 30  0  0  1  0  0  0  0  0999 V2000
    6.0293  -17.9129   25.4063 N   0  0  0  0  0  0  0  0  0  0  0  0
    6.3553  -16.5147   25.2230 C   0  0  1  0  0  0  0  0  0  0  0  0
    6.8694  -15.9881   26.5407 C   0  0  0  0  0  0  0  0  0  0  0  0
    6.7964  -14.5228   26.5757 C   0  0  0  0  0  0  0  0  0  0  0  0
    7.9818  -13.8055   26.6219 C   0  0  0  0  0  0  0  0  0  0  0  0
    7.9887  -12.4179   26.6574 C   0  0  0  0  0  0  0  0  0  0  0  0
    6.8193  -11.7234   26.6475 C   0  0  0  0  0  0  0  0  0  0  0  0
    5.6130  -12.4230   26.6012 C   0  0  0  0  0  0  0  0  0  0  0  0
    5.6295  -13.7984   26.5666 C   0  0  0  0  0  0  0  0  0  0  0  0
    7.3395  -16.3953   24.1374 C   0  0  0  0  0  0  0  0  0  0  0  0
    8.2808  -17.2222   24.0761 O   0  0  0  0  0  0  0  0  0  0  0  0
    7.2830  -15.3832   23.1418 N   0  0  0  0  0  0  0  0  0  0  0  0
    8.1944  -15.2109   22.0563 C   0  0  1  0  0  0  0  0  0  0  0  0
    7.7701  -14.1082   21.1047 C   0  0  0  0  0  0  0  0  0  0  0  0
    8.3398  -14.3251   19.7286 C   0  0  0  0  0  0  0  0  0  0  0  0
    7.9236  -13.3037   18.7227 C   0  0  0  0  0  0  0  0  0  0  0  0
    8.4902  -13.6017   17.3507 C   0  0  0  0  0  0  0  0  0  0  0  0
    8.0336  -12.5417   16.4643 N   0  0  0  0  0  0  0  0  0  0  0  0
    9.5578  -14.9766   22.5930 C   0  0  0  0  0  0  0  0  0  0  0  0
    9.7012  -14.3374   23.6806 O   0  0  0  0  0  0  0  0  0  0  0  0
   11.3655  -19.7886   24.6282 N   0  0  0  0  0  0  0  0  0  0  0  0
   11.9172  -18.6827   25.3259 C   0  0  0  0  0  0  0  0  0  0  0  0
   11.9372  -18.6192   26.5727 O   0  0  0  0  0  0  0  0  0  0  0  0
   12.4829  -17.5790   24.4751 C   0  0  0  0  0  0  0  0  0  0  0  0
   11.3754  -17.0722   23.5919 C   0  0  0  0  0  0  0  0  0  0  0  0
   11.8593  -15.9236   22.7583 C   0  0  2  0  0  0  0  0  0  0  0  0
   10.7257  -15.4270   21.9591 N   0  0  0  0  0  0  0  0  0  0  0  0
   12.9161  -16.3639   21.8402 C   0  0  0  0  0  0  0  0  0  0  0  0
   14.2464  -16.0031   22.1328 O   0  0  0  0  0  0  0  0  0  0  0  0
   12.7679  -17.0360   20.8073 O   0  0  0  0  0  0  0  0  0  0  0  0
  2  1  1  1
  2 10  1  0
  2  3  1  0
  3  4  1  0
  4  5  2  0
  4  9  1  0
  5  6  1  0
  6  7  2  0
  8  7  1  0
  9  8  2  0
 10 11  2  0
 12 13  1  0
 12 10  1  0
 13 14  1  1
 14 15  1  0
 16 17  1  0
 16 15  1  0
 18 17  1  0
 19 20  2  0
 19 13  1  0
 21 22  1  0
 22 24  1  0
 23 22  2  0
 24 25  1  0
 26 25  1  6
 26 28  1  0
 26 27  1  0
 27 19  1  0
 28 29  1  0
 30 28  2  0
M  END
$$$$
