FKQ.pdb
     RDKit          3D

 30 30  0  0  1  0  0  0  0  0999 V2000
    6.4398  -16.7311   25.9331 N   0  0  0  0  0  0  0  0  0  0  0  0
    6.7437  -15.5596   25.1395 C   0  0  1  0  0  0  0  0  0  0  0  0
    7.6791  -14.6912   25.9450 C   0  0  0  0  0  0  0  0  0  0  0  0
    6.9829  -13.4949   26.4324 C   0  0  0  0  0  0  0  0  0  0  0  0
    6.6495  -12.5085   25.5173 C   0  0  0  0  0  0  0  0  0  0  0  0
    5.9911  -11.3503   25.9071 C   0  0  0  0  0  0  0  0  0  0  0  0
    5.6546  -11.1555   27.2105 C   0  0  0  0  0  0  0  0  0  0  0  0
    5.9794  -12.1341   28.1505 C   0  0  0  0  0  0  0  0  0  0  0  0
    6.6322  -13.2743   27.7420 C   0  0  0  0  0  0  0  0  0  0  0  0
    7.3250  -15.9911   23.8598 C   0  0  0  0  0  0  0  0  0  0  0  0
    7.9358  -17.0855   23.8075 O   0  0  0  0  0  0  0  0  0  0  0  0
    7.2323  -15.2281   22.6648 N   0  0  0  0  0  0  0  0  0  0  0  0
    8.0924  -15.3246   21.5293 C   0  0  1  0  0  0  0  0  0  0  0  0
    7.7799  -14.2866   20.4679 C   0  0  0  0  0  0  0  0  0  0  0  0
    8.5447  -14.5548   19.1997 C   0  0  0  0  0  0  0  0  0  0  0  0
    8.1892  -13.6529   18.0647 C   0  0  0  0  0  0  0  0  0  0  0  0
    8.7990  -14.1221   16.7608 C   0  0  0  0  0  0  0  0  0  0  0  0
    8.3700  -13.1870   15.7316 N   0  0  0  0  0  0  0  0  0  0  0  0
    9.5052  -15.2431   21.9757 C   0  0  0  0  0  0  0  0  0  0  0  0
    9.7937  -14.5870   23.0237 O   0  0  0  0  0  0  0  0  0  0  0  0
   12.0511  -19.9735   24.4003 N   0  0  0  0  0  0  0  0  0  0  0  0
   12.3004  -18.6487   24.8441 C   0  0  0  0  0  0  0  0  0  0  0  0
   12.1876  -18.3104   26.0407 O   0  0  0  0  0  0  0  0  0  0  0  0
   12.7120  -17.6628   23.7857 C   0  0  0  0  0  0  0  0  0  0  0  0
   11.4674  -17.2249   23.0630 C   0  0  0  0  0  0  0  0  0  0  0  0
   11.8053  -16.2070   22.0150 C   0  0  2  0  0  0  0  0  0  0  0  0
   10.5670  -15.8595   21.2966 N   0  0  0  0  0  0  0  0  0  0  0  0
   12.7615  -16.7611   21.0495 C   0  0  0  0  0  0  0  0  0  0  0  0
   14.1287  -16.7616   21.3905 O   0  0  0  0  0  0  0  0  0  0  0  0
   12.4963  -17.2422   19.9366 O   0  0  0  0  0  0  0  0  0  0  0  0
  2  1  1  1
  2 10  1  0
  2  3  1  0
  3  4  1  0
  4  5  2  0
  4  9  1  0
  5  6  1  0
  6  7  2  0
  8  7  1  0
  9  8  2  0
 10 11  2  0
 12 13  1  0
 12 10  1  0
 13 14  1  6
 14 15  1  0
 16 17  1  0
 16 15  1  0
 18 17  1  0
 19 20  2  0
 19 13  1  0
 21 22  1  0
 22 24  1  0
 23 22  2  0
 24 25  1  0
 26 25  1  1
 26 28  1  0
 26 27  1  0
 27 19  1  0
 28 29  1  0
 30 28  2  0
M  END
$$$$
