VYP.pdb
     RDKit          3D

 27 28  0  0  1  0  0  0  0  0999 V2000
   29.1546  -21.4311  -14.1812 C   0  0  0  0  0  0  0  0  0  0  0  0
   28.6812  -20.6833  -12.9797 C   0  0  1  0  0  0  0  0  0  0  0  0
   29.0973  -19.2450  -13.0620 C   0  0  0  0  0  0  0  0  0  0  0  0
   27.2067  -20.8401  -12.6997 C   0  0  2  0  0  0  0  0  0  0  0  0
   26.4148  -20.4044  -13.8080 N   0  0  0  0  0  0  0  0  0  0  0  0
   26.7780  -20.2771  -11.4139 C   0  0  0  0  0  0  0  0  0  0  0  0
   26.3206  -19.1139  -11.3549 O   0  0  0  0  0  0  0  0  0  0  0  0
   20.6919  -19.9212  -11.9535 O   0  0  0  0  0  0  0  0  0  0  0  0
   21.7435  -20.2001  -11.1123 C   0  0  0  0  0  0  0  0  0  0  0  0
   22.4563  -21.3544  -11.2806 C   0  0  0  0  0  0  0  0  0  0  0  0
   23.5220  -21.6443  -10.4337 C   0  0  0  0  0  0  0  0  0  0  0  0
   23.8881  -20.7917   -9.4141 C   0  0  0  0  0  0  0  0  0  0  0  0
   25.0164  -21.1480   -8.5532 C   0  0  0  0  0  0  0  0  0  0  0  0
   26.3248  -20.4601   -8.9457 C   0  0  2  0  0  0  0  0  0  0  0  0
   26.8457  -20.9883  -10.1617 N   0  0  0  0  0  0  0  0  0  0  0  0
   27.2291  -20.6305   -7.8227 C   0  0  0  0  0  0  0  0  0  0  0  0
   27.6294  -21.8559   -7.6499 O   0  0  0  0  0  0  0  0  0  0  0  0
   23.1554  -19.6331   -9.2626 C   0  0  0  0  0  0  0  0  0  0  0  0
   22.0911  -19.3243  -10.0938 C   0  0  0  0  0  0  0  0  0  0  0  0
   27.7376  -19.6648   -6.8937 N   0  0  0  0  0  0  0  0  0  0  0  0
   27.4944  -18.2663   -6.9051 C   0  0  0  0  0  0  0  0  0  0  0  0
   27.7439  -17.7972   -5.4829 C   0  0  0  0  0  0  0  0  0  0  0  0
   28.9146  -18.7172   -5.1055 C   0  0  0  0  0  0  0  0  0  0  0  0
   28.5975  -20.0027   -5.7617 C   0  0  1  0  0  0  0  0  0  0  0  0
   27.9633  -20.9949   -4.8752 C   0  0  0  0  0  0  0  0  0  0  0  0
   28.6286  -21.6167   -3.8349 O   0  0  0  0  0  0  0  0  0  0  0  0
   26.7627  -21.2939   -5.0684 O   0  0  0  0  0  0  0  0  0  0  0  0
  2  1  1  6
  2  4  1  0
  2  3  1  0
  4  5  1  6
  6  4  1  0
  6  7  2  0
  8  9  1  0
  9 10  2  0
 10 11  1  0
 12 13  1  0
 12 11  2  0
 14 13  1  1
 14 15  1  0
 15  6  1  0
 16 20  1  0
 16 14  1  0
 17 16  2  0
 18 12  1  0
 19 18  2  0
 19  9  1  0
 20 24  1  0
 21 20  1  0
 22 21  1  0
 22 23  1  0
 24 23  1  0
 24 25  1  1
 26 25  1  0
 27 25  2  0
M  END
$$$$
