VYP.pdb
     RDKit          3D

 27 28  0  0  1  0  0  0  0  0999 V2000
   28.9735  -29.3344  -21.8814 C   0  0  0  0  0  0  0  0  0  0  0  0
   29.0577  -28.2637  -20.8452 C   0  0  1  0  0  0  0  0  0  0  0  0
   27.9976  -27.2286  -21.0762 C   0  0  0  0  0  0  0  0  0  0  0  0
   29.0583  -28.7795  -19.4272 C   0  0  2  0  0  0  0  0  0  0  0  0
   30.1373  -29.6910  -19.2027 N   0  0  0  0  0  0  0  0  0  0  0  0
   27.7575  -29.2857  -18.9734 C   0  0  0  0  0  0  0  0  0  0  0  0
   27.4677  -30.4952  -19.1108 O   0  0  0  0  0  0  0  0  0  0  0  0
   27.8984  -33.5058  -14.0730 O   0  0  0  0  0  0  0  0  0  0  0  0
   27.2711  -32.4188  -14.6354 C   0  0  0  0  0  0  0  0  0  0  0  0
   28.0088  -31.3290  -15.0054 C   0  0  0  0  0  0  0  0  0  0  0  0
   27.3818  -30.2248  -15.5752 C   0  0  0  0  0  0  0  0  0  0  0  0
   26.0191  -30.1937  -15.7820 C   0  0  0  0  0  0  0  0  0  0  0  0
   25.4132  -29.0056  -16.3839 C   0  0  0  0  0  0  0  0  0  0  0  0
   25.4966  -28.9850  -17.9110 C   0  0  2  0  0  0  0  0  0  0  0  0
   26.7456  -28.4648  -18.3567 N   0  0  0  0  0  0  0  0  0  0  0  0
   24.3628  -28.2040  -18.3718 C   0  0  0  0  0  0  0  0  0  0  0  0
   24.5436  -26.9181  -18.2975 O   0  0  0  0  0  0  0  0  0  0  0  0
   25.2946  -31.3038  -15.4013 C   0  0  0  0  0  0  0  0  0  0  0  0
   25.8976  -32.4136  -14.8325 C   0  0  0  0  0  0  0  0  0  0  0  0
   23.0966  -28.6331  -18.8883 N   0  0  0  0  0  0  0  0  0  0  0  0
   22.6669  -29.9730  -19.0766 C   0  0  0  0  0  0  0  0  0  0  0  0
   21.1498  -29.9177  -19.0840 C   0  0  0  0  0  0  0  0  0  0  0  0
   20.9404  -28.5740  -19.7984 C   0  0  0  0  0  0  0  0  0  0  0  0
   22.0339  -27.7167  -19.2955 C   0  0  1  0  0  0  0  0  0  0  0  0
   21.6414  -26.8174  -18.1956 C   0  0  0  0  0  0  0  0  0  0  0  0
   22.0576  -26.9917  -16.8888 O   0  0  0  0  0  0  0  0  0  0  0  0
   20.8941  -25.8454  -18.4508 O   0  0  0  0  0  0  0  0  0  0  0  0
  2  1  1  6
  2  4  1  0
  2  3  1  0
  4  5  1  6
  6  4  1  0
  6  7  2  0
  8  9  1  0
  9 10  2  0
 10 11  1  0
 12 13  1  0
 12 11  2  0
 14 13  1  1
 14 15  1  0
 15  6  1  0
 16 20  1  0
 16 14  1  0
 17 16  2  0
 18 12  1  0
 19 18  2  0
 19  9  1  0
 20 24  1  0
 21 20  1  0
 22 21  1  0
 22 23  1  0
 24 23  1  0
 24 25  1  1
 26 25  1  0
 27 25  2  0
M  END
$$$$
