VYP.pdb
     RDKit          3D

 27 28  0  0  1  0  0  0  0  0999 V2000
   29.9299  -22.9276  -21.0777 C   0  0  0  0  0  0  0  0  0  0  0  0
   28.9963  -21.8640  -20.6043 C   0  0  1  0  0  0  0  0  0  0  0  0
   27.9118  -21.6335  -21.6140 C   0  0  0  0  0  0  0  0  0  0  0  0
   28.4501  -22.0985  -19.2173 C   0  0  2  0  0  0  0  0  0  0  0  0
   27.6707  -20.9870  -18.7673 N   0  0  0  0  0  0  0  0  0  0  0  0
   29.4555  -22.5432  -18.2450 C   0  0  0  0  0  0  0  0  0  0  0  0
   30.1495  -21.7056  -17.6262 O   0  0  0  0  0  0  0  0  0  0  0  0
   25.6265  -28.2211  -17.0970 O   0  0  0  0  0  0  0  0  0  0  0  0
   26.7262  -27.4596  -16.7776 C   0  0  0  0  0  0  0  0  0  0  0  0
   26.5745  -26.1241  -16.5280 C   0  0  0  0  0  0  0  0  0  0  0  0
   27.6822  -25.3462  -16.2042 C   0  0  0  0  0  0  0  0  0  0  0  0
   28.9478  -25.8871  -16.1257 C   0  0  0  0  0  0  0  0  0  0  0  0
   30.0764  -25.0215  -15.7822 C   0  0  0  0  0  0  0  0  0  0  0  0
   30.7069  -24.3312  -16.9927 C   0  0  2  0  0  0  0  0  0  0  0  0
   29.7175  -23.9264  -17.9342 N   0  0  0  0  0  0  0  0  0  0  0  0
   31.6632  -25.2721  -17.5477 C   0  0  0  0  0  0  0  0  0  0  0  0
   31.2165  -25.9334  -18.5746 O   0  0  0  0  0  0  0  0  0  0  0  0
   29.0777  -27.2362  -16.3813 C   0  0  0  0  0  0  0  0  0  0  0  0
   27.9893  -28.0294  -16.7053 C   0  0  0  0  0  0  0  0  0  0  0  0
   33.0035  -25.5736  -17.1389 N   0  0  0  0  0  0  0  0  0  0  0  0
   33.7009  -25.0130  -16.0368 C   0  0  0  0  0  0  0  0  0  0  0  0
   34.7886  -26.0139  -15.6906 C   0  0  0  0  0  0  0  0  0  0  0  0
   35.1513  -26.5044  -17.1004 C   0  0  0  0  0  0  0  0  0  0  0  0
   33.8607  -26.5417  -17.8193 C   0  0  1  0  0  0  0  0  0  0  0  0
   33.2362  -27.8758  -17.8738 C   0  0  0  0  0  0  0  0  0  0  0  0
   32.1761  -28.2499  -17.0691 O   0  0  0  0  0  0  0  0  0  0  0  0
   33.6833  -28.7165  -18.6872 O   0  0  0  0  0  0  0  0  0  0  0  0
  2  1  1  6
  2  4  1  0
  2  3  1  0
  4  5  1  1
  6  4  1  0
  6  7  2  0
  8  9  1  0
  9 10  2  0
 10 11  1  0
 12 13  1  0
 12 11  2  0
 14 13  1  1
 14 15  1  0
 15  6  1  0
 16 20  1  0
 16 14  1  0
 17 16  2  0
 18 12  1  0
 19 18  2  0
 19  9  1  0
 20 24  1  0
 21 20  1  0
 22 21  1  0
 22 23  1  0
 24 23  1  0
 24 25  1  1
 26 25  1  0
 27 25  2  0
M  END
$$$$
