VYP.pdb
     RDKit          3D

 27 28  0  0  1  0  0  0  0  0999 V2000
   19.6943  -22.2301  -14.8434 C   0  0  0  0  0  0  0  0  0  0  0  0
   21.0120  -21.5990  -14.5390 C   0  0  1  0  0  0  0  0  0  0  0  0
   21.3155  -20.5178  -15.5327 C   0  0  0  0  0  0  0  0  0  0  0  0
   21.1517  -21.1252  -13.1132 C   0  0  2  0  0  0  0  0  0  0  0  0
   20.1210  -20.1959  -12.7676 N   0  0  0  0  0  0  0  0  0  0  0  0
   22.5005  -20.6630  -12.7651 C   0  0  0  0  0  0  0  0  0  0  0  0
   22.7261  -19.4439  -12.5952 O   0  0  0  0  0  0  0  0  0  0  0  0
   27.8035  -19.0507   -6.9854 O   0  0  0  0  0  0  0  0  0  0  0  0
   27.3065  -19.7637   -8.0511 C   0  0  0  0  0  0  0  0  0  0  0  0
   25.9564  -19.8151   -8.2597 C   0  0  0  0  0  0  0  0  0  0  0  0
   25.4451  -20.5345   -9.3358 C   0  0  0  0  0  0  0  0  0  0  0  0
   26.2690  -21.2079  -10.2124 C   0  0  0  0  0  0  0  0  0  0  0  0
   25.6762  -21.9493  -11.3259 C   0  0  0  0  0  0  0  0  0  0  0  0
   24.9475  -21.0586  -12.3333 C   0  0  2  0  0  0  0  0  0  0  0  0
   23.6328  -21.5393  -12.5969 N   0  0  0  0  0  0  0  0  0  0  0  0
   25.7821  -21.0166  -13.5206 C   0  0  0  0  0  0  0  0  0  0  0  0
   25.7137  -22.0907  -14.2509 O   0  0  0  0  0  0  0  0  0  0  0  0
   27.6274  -21.1425   -9.9830 C   0  0  0  0  0  0  0  0  0  0  0  0
   28.1582  -20.4326   -8.9185 C   0  0  0  0  0  0  0  0  0  0  0  0
   26.6538  -19.9843  -13.9987 N   0  0  0  0  0  0  0  0  0  0  0  0
   26.9648  -18.7647  -13.3422 C   0  0  0  0  0  0  0  0  0  0  0  0
   28.2919  -18.3141  -13.9258 C   0  0  0  0  0  0  0  0  0  0  0  0
   28.1095  -18.7774  -15.3790 C   0  0  0  0  0  0  0  0  0  0  0  0
   27.3751  -20.0548  -15.2675 C   0  0  1  0  0  0  0  0  0  0  0  0
   28.2301  -21.2533  -15.3402 C   0  0  0  0  0  0  0  0  0  0  0  0
   28.6771  -21.7944  -16.5313 O   0  0  0  0  0  0  0  0  0  0  0  0
   28.5722  -21.8138  -14.2739 O   0  0  0  0  0  0  0  0  0  0  0  0
  2  1  1  1
  2  4  1  0
  2  3  1  0
  4  5  1  6
  6  4  1  0
  6  7  2  0
  8  9  1  0
  9 10  2  0
 10 11  1  0
 12 13  1  0
 12 11  2  0
 14 13  1  1
 14 15  1  0
 15  6  1  0
 16 20  1  0
 16 14  1  0
 17 16  2  0
 18 12  1  0
 19 18  2  0
 19  9  1  0
 20 24  1  0
 21 20  1  0
 22 21  1  0
 22 23  1  0
 24 23  1  0
 24 25  1  1
 26 25  1  0
 27 25  2  0
M  END
$$$$
