VYP.pdb
     RDKit          3D

 27 28  0  0  1  0  0  0  0  0999 V2000
   23.7012  -24.5391  -18.1617 C   0  0  0  0  0  0  0  0  0  0  0  0
   24.3703  -23.9290  -16.9755 C   0  0  1  0  0  0  0  0  0  0  0  0
   24.9816  -24.9942  -16.1151 C   0  0  0  0  0  0  0  0  0  0  0  0
   25.3504  -22.8340  -17.3184 C   0  0  2  0  0  0  0  0  0  0  0  0
   26.3286  -23.2838  -18.2598 N   0  0  0  0  0  0  0  0  0  0  0  0
   25.9266  -22.1584  -16.1498 C   0  0  0  0  0  0  0  0  0  0  0  0
   27.0571  -22.4860  -15.7247 O   0  0  0  0  0  0  0  0  0  0  0  0
   29.3156  -17.2186  -18.6359 O   0  0  0  0  0  0  0  0  0  0  0  0
   28.4971  -17.6384  -17.6136 C   0  0  0  0  0  0  0  0  0  0  0  0
   27.1497  -17.7364  -17.8229 C   0  0  0  0  0  0  0  0  0  0  0  0
   26.3144  -18.1603  -16.7935 C   0  0  0  0  0  0  0  0  0  0  0  0
   26.8093  -18.4900  -15.5498 C   0  0  0  0  0  0  0  0  0  0  0  0
   25.8842  -18.9285  -14.5043 C   0  0  0  0  0  0  0  0  0  0  0  0
   25.8591  -20.4452  -14.3083 C   0  0  2  0  0  0  0  0  0  0  0  0
   25.2650  -21.1038  -15.4229 N   0  0  0  0  0  0  0  0  0  0  0  0
   25.1478  -20.6850  -13.0656 C   0  0  0  0  0  0  0  0  0  0  0  0
   23.8670  -20.8543  -13.2158 O   0  0  0  0  0  0  0  0  0  0  0  0
   28.1714  -18.3838  -15.3609 C   0  0  0  0  0  0  0  0  0  0  0  0
   29.0214  -17.9641  -16.3709 C   0  0  0  0  0  0  0  0  0  0  0  0
   25.6400  -20.7626  -11.7217 N   0  0  0  0  0  0  0  0  0  0  0  0
   26.9646  -20.4954  -11.2864 C   0  0  0  0  0  0  0  0  0  0  0  0
   26.8491  -20.1606   -9.8101 C   0  0  0  0  0  0  0  0  0  0  0  0
   25.7226  -21.1254   -9.4103 C   0  0  0  0  0  0  0  0  0  0  0  0
   24.8127  -21.1298  -10.5747 C   0  0  1  0  0  0  0  0  0  0  0  0
   23.6484  -20.2364  -10.4368 C   0  0  0  0  0  0  0  0  0  0  0  0
   22.5388  -20.5497   -9.6739 O   0  0  0  0  0  0  0  0  0  0  0  0
   23.6585  -19.1379  -11.0379 O   0  0  0  0  0  0  0  0  0  0  0  0
  2  1  1  6
  2  4  1  0
  2  3  1  0
  4  5  1  1
  6  4  1  0
  6  7  2  0
  8  9  1  0
  9 10  2  0
 10 11  1  0
 12 13  1  0
 12 11  2  0
 14 13  1  6
 14 15  1  0
 15  6  1  0
 16 20  1  0
 16 14  1  0
 17 16  2  0
 18 12  1  0
 19 18  2  0
 19  9  1  0
 20 24  1  0
 21 20  1  0
 22 21  1  0
 22 23  1  0
 24 23  1  0
 24 25  1  1
 26 25  1  0
 27 25  2  0
M  END
$$$$
