VYP.pdb
     RDKit          3D

 27 28  0  0  1  0  0  0  0  0999 V2000
   27.3305  -16.1797  -15.6421 C   0  0  0  0  0  0  0  0  0  0  0  0
   26.6483  -17.4619  -15.2990 C   0  0  1  0  0  0  0  0  0  0  0  0
   25.9227  -18.0038  -16.4942 C   0  0  0  0  0  0  0  0  0  0  0  0
   27.5527  -18.4878  -14.6615 C   0  0  2  0  0  0  0  0  0  0  0  0
   28.6557  -18.8130  -15.5118 N   0  0  0  0  0  0  0  0  0  0  0  0
   26.8484  -19.6639  -14.1371 C   0  0  0  0  0  0  0  0  0  0  0  0
   26.9938  -20.7815  -14.6808 O   0  0  0  0  0  0  0  0  0  0  0  0
   29.0530  -20.8207   -7.4060 O   0  0  0  0  0  0  0  0  0  0  0  0
   28.0007  -20.7527   -8.2889 C   0  0  0  0  0  0  0  0  0  0  0  0
   28.0887  -21.3883   -9.4960 C   0  0  0  0  0  0  0  0  0  0  0  0
   27.0284  -21.3245  -10.3953 C   0  0  0  0  0  0  0  0  0  0  0  0
   25.8737  -20.6301  -10.1037 C   0  0  0  0  0  0  0  0  0  0  0  0
   24.7912  -20.5958  -11.0876 C   0  0  0  0  0  0  0  0  0  0  0  0
   25.2696  -20.7819  -12.5283 C   0  0  2  0  0  0  0  0  0  0  0  0
   25.9653  -19.6311  -12.9981 N   0  0  0  0  0  0  0  0  0  0  0  0
   24.0883  -21.0879  -13.3150 C   0  0  0  0  0  0  0  0  0  0  0  0
   23.3345  -20.0560  -13.5569 O   0  0  0  0  0  0  0  0  0  0  0  0
   25.8065  -19.9966   -8.8804 C   0  0  0  0  0  0  0  0  0  0  0  0
   26.8495  -20.0468   -7.9702 C   0  0  0  0  0  0  0  0  0  0  0  0
   23.6388  -22.3368  -13.8558 N   0  0  0  0  0  0  0  0  0  0  0  0
   24.2841  -23.5955  -13.7344 C   0  0  0  0  0  0  0  0  0  0  0  0
   23.1973  -24.6335  -13.9493 C   0  0  0  0  0  0  0  0  0  0  0  0
   22.3566  -23.9153  -15.0156 C   0  0  0  0  0  0  0  0  0  0  0  0
   22.4053  -22.4913  -14.6236 C   0  0  1  0  0  0  0  0  0  0  0  0
   21.2301  -22.0324  -13.8615 C   0  0  0  0  0  0  0  0  0  0  0  0
   20.0049  -21.7675  -14.4445 O   0  0  0  0  0  0  0  0  0  0  0  0
   21.3403  -21.8727  -12.6244 O   0  0  0  0  0  0  0  0  0  0  0  0
  2  1  1  6
  2  4  1  0
  2  3  1  0
  4  5  1  6
  6  4  1  0
  6  7  2  0
  8  9  1  0
  9 10  2  0
 10 11  1  0
 12 13  1  0
 12 11  2  0
 14 13  1  1
 14 15  1  0
 15  6  1  0
 16 20  1  0
 16 14  1  0
 17 16  2  0
 18 12  1  0
 19 18  2  0
 19  9  1  0
 20 24  1  0
 21 20  1  0
 22 21  1  0
 22 23  1  0
 24 23  1  0
 24 25  1  1
 26 25  1  0
 27 25  2  0
M  END
$$$$
