VYP.pdb
     RDKit          3D

 27 28  0  0  1  0  0  0  0  0999 V2000
   24.1931  -21.0898  -13.9836 C   0  0  0  0  0  0  0  0  0  0  0  0
   24.4751  -19.8027  -14.6844 C   0  0  1  0  0  0  0  0  0  0  0  0
   23.4654  -19.5654  -15.7673 C   0  0  0  0  0  0  0  0  0  0  0  0
   24.6165  -18.6180  -13.7605 C   0  0  2  0  0  0  0  0  0  0  0  0
   24.8602  -17.4122  -14.4898 N   0  0  0  0  0  0  0  0  0  0  0  0
   25.5524  -18.8326  -12.6504 C   0  0  0  0  0  0  0  0  0  0  0  0
   26.7872  -18.7789  -12.8461 O   0  0  0  0  0  0  0  0  0  0  0  0
   29.0462  -19.7560   -4.6202 O   0  0  0  0  0  0  0  0  0  0  0  0
   28.1485  -19.7185   -5.6614 C   0  0  0  0  0  0  0  0  0  0  0  0
   27.9541  -18.5506   -6.3448 C   0  0  0  0  0  0  0  0  0  0  0  0
   27.0474  -18.5040   -7.3997 C   0  0  0  0  0  0  0  0  0  0  0  0
   26.3275  -19.6151   -7.7842 C   0  0  0  0  0  0  0  0  0  0  0  0
   25.3869  -19.5079   -8.8999 C   0  0  0  0  0  0  0  0  0  0  0  0
   26.0667  -19.4619  -10.2692 C   0  0  2  0  0  0  0  0  0  0  0  0
   25.1439  -19.1123  -11.2965 N   0  0  0  0  0  0  0  0  0  0  0  0
   26.6685  -20.7677  -10.4710 C   0  0  0  0  0  0  0  0  0  0  0  0
   25.8066  -21.7168  -10.6899 O   0  0  0  0  0  0  0  0  0  0  0  0
   26.5395  -20.7825   -7.0810 C   0  0  0  0  0  0  0  0  0  0  0  0
   27.4367  -20.8517   -6.0278 C   0  0  0  0  0  0  0  0  0  0  0  0
   28.0475  -21.1581  -10.4657 N   0  0  0  0  0  0  0  0  0  0  0  0
   29.1593  -20.3417  -10.1298 C   0  0  0  0  0  0  0  0  0  0  0  0
   30.2644  -21.3023   -9.7286 C   0  0  0  0  0  0  0  0  0  0  0  0
   29.9856  -22.4478  -10.7134 C   0  0  0  0  0  0  0  0  0  0  0  0
   28.5118  -22.5008  -10.8071 C   0  0  1  0  0  0  0  0  0  0  0  0
   27.8870  -23.5253   -9.9512 C   0  0  0  0  0  0  0  0  0  0  0  0
   27.9569  -24.8803  -10.2168 O   0  0  0  0  0  0  0  0  0  0  0  0
   27.2606  -23.1569   -8.9314 O   0  0  0  0  0  0  0  0  0  0  0  0
  2  1  1  1
  2  4  1  0
  2  3  1  0
  4  5  1  6
  6  4  1  0
  6  7  2  0
  8  9  1  0
  9 10  2  0
 10 11  1  0
 12 13  1  0
 12 11  2  0
 14 13  1  1
 14 15  1  0
 15  6  1  0
 16 20  1  0
 16 14  1  0
 17 16  2  0
 18 12  1  0
 19 18  2  0
 19  9  1  0
 20 24  1  0
 21 20  1  0
 22 21  1  0
 22 23  1  0
 24 23  1  0
 24 25  1  1
 26 25  1  0
 27 25  2  0
M  END
$$$$
