VYP.pdb
     RDKit          3D

 27 28  0  0  1  0  0  0  0  0999 V2000
   27.1352  -20.6690  -21.0386 C   0  0  0  0  0  0  0  0  0  0  0  0
   26.9121  -20.1692  -19.6502 C   0  0  1  0  0  0  0  0  0  0  0  0
   28.1221  -19.4319  -19.1596 C   0  0  0  0  0  0  0  0  0  0  0  0
   25.6437  -19.3694  -19.4814 C   0  0  2  0  0  0  0  0  0  0  0  0
   25.5866  -18.2784  -20.4043 N   0  0  0  0  0  0  0  0  0  0  0  0
   25.3605  -18.9812  -18.0946 C   0  0  0  0  0  0  0  0  0  0  0  0
   25.7168  -17.8603  -17.6672 O   0  0  0  0  0  0  0  0  0  0  0  0
   20.2016  -15.1108  -17.7982 O   0  0  0  0  0  0  0  0  0  0  0  0
   20.8787  -16.1503  -17.2049 C   0  0  0  0  0  0  0  0  0  0  0  0
   21.1358  -17.2861  -17.9209 C   0  0  0  0  0  0  0  0  0  0  0  0
   21.8205  -18.3428  -17.3280 C   0  0  0  0  0  0  0  0  0  0  0  0
   22.2550  -18.2806  -16.0211 C   0  0  0  0  0  0  0  0  0  0  0  0
   22.9691  -19.4223  -15.4489 C   0  0  0  0  0  0  0  0  0  0  0  0
   24.4596  -19.4440  -15.7913 C   0  0  2  0  0  0  0  0  0  0  0  0
   24.6763  -19.8248  -17.1467 N   0  0  0  0  0  0  0  0  0  0  0  0
   25.0836  -20.3497  -14.8435 C   0  0  0  0  0  0  0  0  0  0  0  0
   24.6018  -21.5574  -14.8731 O   0  0  0  0  0  0  0  0  0  0  0  0
   21.9848  -17.1255  -15.3176 C   0  0  0  0  0  0  0  0  0  0  0  0
   21.3051  -16.0616  -15.8874 C   0  0  0  0  0  0  0  0  0  0  0  0
   26.1344  -20.1138  -13.8977 N   0  0  0  0  0  0  0  0  0  0  0  0
   26.8378  -18.8972  -13.6966 C   0  0  0  0  0  0  0  0  0  0  0  0
   27.3963  -18.9772  -12.2872 C   0  0  0  0  0  0  0  0  0  0  0  0
   27.7287  -20.4754  -12.2220 C   0  0  0  0  0  0  0  0  0  0  0  0
   26.6345  -21.1271  -12.9714 C   0  0  1  0  0  0  0  0  0  0  0  0
   25.5566  -21.6663  -12.1228 C   0  0  0  0  0  0  0  0  0  0  0  0
   24.3085  -21.0807  -12.0194 O   0  0  0  0  0  0  0  0  0  0  0  0
   25.7757  -22.7061  -11.4602 O   0  0  0  0  0  0  0  0  0  0  0  0
  2  1  1  6
  2  4  1  0
  2  3  1  0
  4  5  1  6
  6  4  1  0
  6  7  2  0
  8  9  1  0
  9 10  2  0
 10 11  1  0
 12 13  1  0
 12 11  2  0
 14 13  1  1
 14 15  1  0
 15  6  1  0
 16 20  1  0
 16 14  1  0
 17 16  2  0
 18 12  1  0
 19 18  2  0
 19  9  1  0
 20 24  1  0
 21 20  1  0
 22 21  1  0
 22 23  1  0
 24 23  1  0
 24 25  1  1
 26 25  1  0
 27 25  2  0
M  END
$$$$
