VYP.pdb
     RDKit          3D

 27 28  0  0  1  0  0  0  0  0999 V2000
   19.2971  -20.1734  -18.0968 C   0  0  0  0  0  0  0  0  0  0  0  0
   20.5878  -20.0184  -17.3639 C   0  0  1  0  0  0  0  0  0  0  0  0
   21.6666  -19.5567  -18.2976 C   0  0  0  0  0  0  0  0  0  0  0  0
   20.4926  -19.1604  -16.1263 C   0  0  2  0  0  0  0  0  0  0  0  0
   19.9778  -17.8610  -16.4291 N   0  0  0  0  0  0  0  0  0  0  0  0
   21.7189  -19.1335  -15.3204 C   0  0  0  0  0  0  0  0  0  0  0  0
   22.4686  -18.1318  -15.3446 O   0  0  0  0  0  0  0  0  0  0  0  0
   27.3873  -20.3768   -8.7346 O   0  0  0  0  0  0  0  0  0  0  0  0
   26.3645  -20.5471   -9.6380 C   0  0  0  0  0  0  0  0  0  0  0  0
   26.5809  -21.2740  -10.7753 C   0  0  0  0  0  0  0  0  0  0  0  0
   25.5512  -21.4512  -11.6947 C   0  0  0  0  0  0  0  0  0  0  0  0
   24.3000  -20.9087  -11.4927 C   0  0  0  0  0  0  0  0  0  0  0  0
   23.2552  -21.1261  -12.4939 C   0  0  0  0  0  0  0  0  0  0  0  0
   23.3224  -20.1488  -13.6684 C   0  0  2  0  0  0  0  0  0  0  0  0
   22.1455  -20.2152  -14.4682 N   0  0  0  0  0  0  0  0  0  0  0  0
   24.5272  -20.4803  -14.4077 C   0  0  0  0  0  0  0  0  0  0  0  0
   24.4569  -21.6085  -15.0510 O   0  0  0  0  0  0  0  0  0  0  0  0
   24.1040  -20.1792  -10.3388 C   0  0  0  0  0  0  0  0  0  0  0  0
   25.1142  -19.9901   -9.4101 C   0  0  0  0  0  0  0  0  0  0  0  0
   25.7601  -19.7602  -14.5320 N   0  0  0  0  0  0  0  0  0  0  0  0
   26.1343  -18.5893  -13.8218 C   0  0  0  0  0  0  0  0  0  0  0  0
   27.6515  -18.5542  -13.8635 C   0  0  0  0  0  0  0  0  0  0  0  0
   27.8878  -19.1218  -15.2712 C   0  0  0  0  0  0  0  0  0  0  0  0
   26.8426  -20.1541  -15.4309 C   0  0  1  0  0  0  0  0  0  0  0  0
   27.3017  -21.5280  -15.1586 C   0  0  0  0  0  0  0  0  0  0  0  0
   28.1743  -22.2131  -15.9836 O   0  0  0  0  0  0  0  0  0  0  0  0
   26.8847  -22.1090  -14.1307 O   0  0  0  0  0  0  0  0  0  0  0  0
  2  1  1  6
  2  4  1  0
  2  3  1  0
  4  5  1  6
  6  4  1  0
  6  7  2  0
  8  9  1  0
  9 10  2  0
 10 11  1  0
 12 13  1  0
 12 11  2  0
 14 13  1  1
 14 15  1  0
 15  6  1  0
 16 20  1  0
 16 14  1  0
 17 16  2  0
 18 12  1  0
 19 18  2  0
 19  9  1  0
 20 24  1  0
 21 20  1  0
 22 21  1  0
 22 23  1  0
 24 23  1  0
 24 25  1  1
 26 25  1  0
 27 25  2  0
M  END
$$$$
