VYP.pdb
     RDKit          3D

 27 28  0  0  1  0  0  0  0  0999 V2000
   25.2702  -13.4511  -15.2665 C   0  0  0  0  0  0  0  0  0  0  0  0
   24.4659  -12.3431  -15.8602 C   0  0  1  0  0  0  0  0  0  0  0  0
   25.1827  -11.7489  -17.0357 C   0  0  0  0  0  0  0  0  0  0  0  0
   23.0427  -12.7235  -16.1870 C   0  0  2  0  0  0  0  0  0  0  0  0
   22.9904  -13.8744  -17.0343 N   0  0  0  0  0  0  0  0  0  0  0  0
   22.2180  -11.6062  -16.6619 C   0  0  0  0  0  0  0  0  0  0  0  0
   22.0000  -11.4575  -17.8852 O   0  0  0  0  0  0  0  0  0  0  0  0
   16.4700   -5.2902  -18.1544 O   0  0  0  0  0  0  0  0  0  0  0  0
   17.1887   -6.3231  -17.5995 C   0  0  0  0  0  0  0  0  0  0  0  0
   17.6591   -7.3263  -18.4001 C   0  0  0  0  0  0  0  0  0  0  0  0
   18.3873   -8.3753  -17.8465 C   0  0  0  0  0  0  0  0  0  0  0  0
   18.6540   -8.4366  -16.4953 C   0  0  0  0  0  0  0  0  0  0  0  0
   19.4235   -9.5638  -15.9679 C   0  0  0  0  0  0  0  0  0  0  0  0
   20.9174   -9.4853  -16.2861 C   0  0  2  0  0  0  0  0  0  0  0  0
   21.6147  -10.6258  -15.7941 N   0  0  0  0  0  0  0  0  0  0  0  0
   21.3932   -8.2405  -15.7100 C   0  0  0  0  0  0  0  0  0  0  0  0
   21.4972   -8.2656  -14.4138 O   0  0  0  0  0  0  0  0  0  0  0  0
   18.1698   -7.4141  -15.7065 C   0  0  0  0  0  0  0  0  0  0  0  0
   17.4430   -6.3604  -16.2359 C   0  0  0  0  0  0  0  0  0  0  0  0
   21.7598   -7.0102  -16.3475 N   0  0  0  0  0  0  0  0  0  0  0  0
   21.6799   -6.7163  -17.7340 C   0  0  0  0  0  0  0  0  0  0  0  0
   21.6220   -5.2021  -17.8274 C   0  0  0  0  0  0  0  0  0  0  0  0
   22.5574   -4.8324  -16.6664 C   0  0  0  0  0  0  0  0  0  0  0  0
   22.2735   -5.8461  -15.6293 C   0  0  1  0  0  0  0  0  0  0  0  0
   21.3373   -5.3967  -14.5833 C   0  0  0  0  0  0  0  0  0  0  0  0
   21.6630   -4.4488  -13.6310 O   0  0  0  0  0  0  0  0  0  0  0  0
   20.1886   -5.8940  -14.5500 O   0  0  0  0  0  0  0  0  0  0  0  0
  2  1  1  6
  2  4  1  0
  2  3  1  0
  4  5  1  6
  6  4  1  0
  6  7  2  0
  8  9  1  0
  9 10  2  0
 10 11  1  0
 12 13  1  0
 12 11  2  0
 14 13  1  1
 14 15  1  0
 15  6  1  0
 16 20  1  0
 16 14  1  0
 17 16  2  0
 18 12  1  0
 19 18  2  0
 19  9  1  0
 20 24  1  0
 21 20  1  0
 22 21  1  0
 22 23  1  0
 24 23  1  0
 24 25  1  1
 26 25  1  0
 27 25  2  0
M  END
$$$$
