VYP.pdb
     RDKit          3D

 27 28  0  0  1  0  0  0  0  0999 V2000
   26.0769  -16.6300  -20.2939 C   0  0  0  0  0  0  0  0  0  0  0  0
   25.8886  -17.6068  -19.1814 C   0  0  1  0  0  0  0  0  0  0  0  0
   24.9692  -18.7123  -19.6068 C   0  0  0  0  0  0  0  0  0  0  0  0
   27.1783  -18.1254  -18.5941 C   0  0  2  0  0  0  0  0  0  0  0  0
   28.0042  -18.7265  -19.5950 N   0  0  0  0  0  0  0  0  0  0  0  0
   26.9997  -18.9605  -17.4004 C   0  0  0  0  0  0  0  0  0  0  0  0
   27.0254  -20.2082  -17.4930 O   0  0  0  0  0  0  0  0  0  0  0  0
   26.0270  -21.7087   -9.0432 O   0  0  0  0  0  0  0  0  0  0  0  0
   26.2549  -20.9518  -10.1687 C   0  0  0  0  0  0  0  0  0  0  0  0
   25.3689  -19.9696  -10.5139 C   0  0  0  0  0  0  0  0  0  0  0  0
   25.5920  -19.1992  -11.6513 C   0  0  0  0  0  0  0  0  0  0  0  0
   26.6951  -19.3974  -12.4541 C   0  0  0  0  0  0  0  0  0  0  0  0
   26.8785  -18.5583  -13.6387 C   0  0  0  0  0  0  0  0  0  0  0  0
   26.5260  -19.2656  -14.9482 C   0  0  2  0  0  0  0  0  0  0  0  0
   26.7878  -18.4344  -16.0750 N   0  0  0  0  0  0  0  0  0  0  0  0
   25.1300  -19.6502  -14.8422 C   0  0  0  0  0  0  0  0  0  0  0  0
   24.3004  -18.6525  -14.9318 O   0  0  0  0  0  0  0  0  0  0  0  0
   27.5757  -20.3934  -12.0870 C   0  0  0  0  0  0  0  0  0  0  0  0
   27.3736  -21.1722  -10.9594 C   0  0  0  0  0  0  0  0  0  0  0  0
   24.5416  -20.9440  -14.6579 N   0  0  0  0  0  0  0  0  0  0  0  0
   25.2308  -22.1709  -14.4713 C   0  0  0  0  0  0  0  0  0  0  0  0
   24.2432  -23.0923  -13.7782 C   0  0  0  0  0  0  0  0  0  0  0  0
   22.9425  -22.6425  -14.4603 C   0  0  0  0  0  0  0  0  0  0  0  0
   23.1004  -21.1824  -14.6249 C   0  0  1  0  0  0  0  0  0  0  0  0
   22.4411  -20.3802  -13.5788 C   0  0  0  0  0  0  0  0  0  0  0  0
   21.0772  -20.1564  -13.5420 O   0  0  0  0  0  0  0  0  0  0  0  0
   23.1453  -19.8736  -12.6758 O   0  0  0  0  0  0  0  0  0  0  0  0
  2  1  1  6
  2  4  1  0
  2  3  1  0
  4  5  1  6
  6  4  1  0
  6  7  2  0
  8  9  1  0
  9 10  2  0
 10 11  1  0
 12 13  1  0
 12 11  2  0
 14 13  1  1
 14 15  1  0
 15  6  1  0
 16 20  1  0
 16 14  1  0
 17 16  2  0
 18 12  1  0
 19 18  2  0
 19  9  1  0
 20 24  1  0
 21 20  1  0
 22 21  1  0
 22 23  1  0
 24 23  1  0
 24 25  1  1
 26 25  1  0
 27 25  2  0
M  END
$$$$
