VYP.pdb
     RDKit          3D

 27 28  0  0  1  0  0  0  0  0999 V2000
   25.7155  -22.2904  -11.9761 C   0  0  0  0  0  0  0  0  0  0  0  0
   24.5561  -21.4527  -11.5505 C   0  0  1  0  0  0  0  0  0  0  0  0
   25.0282  -20.1135  -11.0686 C   0  0  0  0  0  0  0  0  0  0  0  0
   23.4664  -21.3390  -12.5881 C   0  0  2  0  0  0  0  0  0  0  0  0
   22.8367  -22.6009  -12.8255 N   0  0  0  0  0  0  0  0  0  0  0  0
   23.8778  -20.6474  -13.8155 C   0  0  0  0  0  0  0  0  0  0  0  0
   24.6736  -21.1938  -14.6117 O   0  0  0  0  0  0  0  0  0  0  0  0
   20.7513  -23.5895  -18.3846 O   0  0  0  0  0  0  0  0  0  0  0  0
   21.1948  -22.3803  -17.9025 C   0  0  0  0  0  0  0  0  0  0  0  0
   20.5645  -21.8062  -16.8338 C   0  0  0  0  0  0  0  0  0  0  0  0
   21.0069  -20.5827  -16.3397 C   0  0  0  0  0  0  0  0  0  0  0  0
   22.0772  -19.9200  -16.9018 C   0  0  0  0  0  0  0  0  0  0  0  0
   22.4983  -18.6355  -16.3417 C   0  0  0  0  0  0  0  0  0  0  0  0
   23.7333  -18.7358  -15.4451 C   0  0  2  0  0  0  0  0  0  0  0  0
   23.4184  -19.3336  -14.1911 N   0  0  0  0  0  0  0  0  0  0  0  0
   24.2533  -17.3867  -15.3130 C   0  0  0  0  0  0  0  0  0  0  0  0
   23.4713  -16.5828  -14.6544 O   0  0  0  0  0  0  0  0  0  0  0  0
   22.6981  -20.5174  -17.9788 C   0  0  0  0  0  0  0  0  0  0  0  0
   22.2748  -21.7345  -18.4870 C   0  0  0  0  0  0  0  0  0  0  0  0
   25.4798  -16.8204  -15.7918 N   0  0  0  0  0  0  0  0  0  0  0  0
   26.5005  -17.4933  -16.5133 C   0  0  0  0  0  0  0  0  0  0  0  0
   27.2599  -16.4075  -17.2544 C   0  0  0  0  0  0  0  0  0  0  0  0
   27.1958  -15.2835  -16.2094 C   0  0  0  0  0  0  0  0  0  0  0  0
   25.8543  -15.4204  -15.6050 C   0  0  1  0  0  0  0  0  0  0  0  0
   24.8415  -14.5080  -16.1654 C   0  0  0  0  0  0  0  0  0  0  0  0
   24.6274  -13.2281  -15.6883 O   0  0  0  0  0  0  0  0  0  0  0  0
   24.1367  -14.9055  -17.1212 O   0  0  0  0  0  0  0  0  0  0  0  0
  2  1  1  6
  2  4  1  0
  2  3  1  0
  4  5  1  6
  6  4  1  0
  6  7  2  0
  8  9  1  0
  9 10  2  0
 10 11  1  0
 12 13  1  0
 12 11  2  0
 14 13  1  6
 14 15  1  0
 15  6  1  0
 16 20  1  0
 16 14  1  0
 17 16  2  0
 18 12  1  0
 19 18  2  0
 19  9  1  0
 20 24  1  0
 21 20  1  0
 22 21  1  0
 22 23  1  0
 24 23  1  0
 24 25  1  6
 26 25  1  0
 27 25  2  0
M  END
$$$$
