QME.pdb
     RDKit          3D

 27 26  0  0  1  0  0  0  0  0999 V2000
   19.0378  -24.6745   -9.5773 N   0  0  0  0  0  0  0  0  0  0  0  0
   19.0049  -23.7660  -10.6720 C   0  0  0  0  0  0  0  0  0  0  0  0
   19.2772  -24.2518  -11.7938 O   0  0  0  0  0  0  0  0  0  0  0  0
   18.6716  -22.3458  -10.5040 C   0  0  0  0  0  0  0  0  0  0  0  0
   19.4737  -21.3992  -11.3478 C   0  0  0  0  0  0  0  0  0  0  0  0
   20.8168  -21.1802  -10.7377 C   0  0  2  0  0  0  0  0  0  0  0  0
   20.6469  -20.3967   -9.5158 N   0  0  0  0  0  0  0  0  0  0  0  0
   21.7300  -20.4293  -11.6729 C   0  0  0  0  0  0  0  0  0  0  0  0
   21.4152  -19.2741  -11.9698 O   0  0  0  0  0  0  0  0  0  0  0  0
   29.0513  -20.4503  -14.7599 C   0  0  0  0  0  0  0  0  0  0  0  0
   27.8735  -21.3154  -13.6711 S   0  0  0  0  0  0  0  0  0  0  0  0
   26.2538  -20.4940  -13.8754 C   0  0  0  0  0  0  0  0  0  0  0  0
   25.2697  -21.0595  -12.9099 C   0  0  0  0  0  0  0  0  0  0  0  0
   23.8648  -20.5061  -13.0655 C   0  0  2  0  0  0  0  0  0  0  0  0
   22.8889  -21.0272  -12.1806 N   0  0  0  0  0  0  0  0  0  0  0  0
   23.5030  -20.3715  -14.4599 C   0  0  0  0  0  0  0  0  0  0  0  0
   23.2437  -21.4529  -15.0954 O   0  0  0  0  0  0  0  0  0  0  0  0
   23.4100  -19.1553  -15.1792 N   0  0  0  0  0  0  0  0  0  0  0  0
   22.9856  -19.1393  -16.5421 C   0  0  1  0  0  0  0  0  0  0  0  0
   22.4287  -17.7838  -16.9197 C   0  0  0  0  0  0  0  0  0  0  0  0
   21.2557  -17.4601  -16.0197 C   0  0  0  0  0  0  0  0  0  0  0  0
   20.6469  -16.1730  -16.4307 C   0  0  0  0  0  0  0  0  0  0  0  0
   21.3311  -15.1386  -16.6177 O   0  0  0  0  0  0  0  0  0  0  0  0
   24.0836  -19.4520  -17.4859 C   0  0  0  0  0  0  0  0  0  0  0  0
   23.9049  -19.9524  -18.7533 O   0  0  0  0  0  0  0  0  0  0  0  0
   19.2772  -16.0962  -16.6180 O   0  0  0  0  0  0  0  0  0  0  0  0
   25.2626  -19.2411  -17.0904 O   0  0  0  0  0  0  0  0  0  0  0  0
  2  1  1  0
  3  2  2  0
  4  2  1  0
  5  4  1  0
  5  6  1  0
  6  8  1  0
  6  7  1  1
  8  9  2  0
 11 12  1  0
 11 10  1  0
 13 12  1  0
 14 13  1  6
 15 14  1  0
 15  8  1  0
 16 17  2  0
 16 14  1  0
 18 16  1  0
 19 18  1  0
 19 24  1  0
 19 20  1  6
 21 20  1  0
 22 21  1  0
 23 22  2  0
 24 25  1  0
 26 22  1  0
 27 24  2  0
M  END
$$$$
