QME.pdb
     RDKit          3D

 27 26  0  0  1  0  0  0  0  0999 V2000
   20.5877  -29.1925  -14.8625 N   0  0  0  0  0  0  0  0  0  0  0  0
   21.2927  -29.6223  -16.0213 C   0  0  0  0  0  0  0  0  0  0  0  0
   21.0655  -30.7956  -16.3957 O   0  0  0  0  0  0  0  0  0  0  0  0
   22.2291  -28.7485  -16.7398 C   0  0  0  0  0  0  0  0  0  0  0  0
   22.4528  -27.4032  -16.1141 C   0  0  0  0  0  0  0  0  0  0  0  0
   23.4326  -26.6191  -16.9200 C   0  0  2  0  0  0  0  0  0  0  0  0
   24.7375  -27.2696  -16.8212 N   0  0  0  0  0  0  0  0  0  0  0  0
   23.5554  -25.2050  -16.4127 C   0  0  0  0  0  0  0  0  0  0  0  0
   23.2057  -24.9852  -15.2502 O   0  0  0  0  0  0  0  0  0  0  0  0
   29.6397  -22.9883  -16.2586 C   0  0  0  0  0  0  0  0  0  0  0  0
   28.3149  -22.1902  -17.2225 S   0  0  0  0  0  0  0  0  0  0  0  0
   26.7396  -22.9572  -16.7035 C   0  0  0  0  0  0  0  0  0  0  0  0
   25.5923  -22.2340  -17.3209 C   0  0  0  0  0  0  0  0  0  0  0  0
   24.2345  -22.8087  -16.9602 C   0  0  2  0  0  0  0  0  0  0  0  0
   24.0483  -24.1859  -17.2354 N   0  0  0  0  0  0  0  0  0  0  0  0
   23.1660  -21.9020  -17.3202 C   0  0  0  0  0  0  0  0  0  0  0  0
   22.8820  -21.8108  -18.5657 O   0  0  0  0  0  0  0  0  0  0  0  0
   22.4104  -21.1115  -16.4205 N   0  0  0  0  0  0  0  0  0  0  0  0
   21.4007  -20.2212  -16.8957 C   0  0  1  0  0  0  0  0  0  0  0  0
   20.0280  -20.6680  -16.4417 C   0  0  0  0  0  0  0  0  0  0  0  0
   19.8478  -20.3144  -14.9811 C   0  0  0  0  0  0  0  0  0  0  0  0
   18.5266  -20.7903  -14.5079 C   0  0  0  0  0  0  0  0  0  0  0  0
   18.0891  -21.9331  -14.7832 O   0  0  0  0  0  0  0  0  0  0  0  0
   21.5981  -18.8305  -16.4256 C   0  0  0  0  0  0  0  0  0  0  0  0
   20.8659  -17.7498  -16.8552 O   0  0  0  0  0  0  0  0  0  0  0  0
   17.7384  -19.9548  -13.7348 O   0  0  0  0  0  0  0  0  0  0  0  0
   22.5043  -18.6331  -15.5707 O   0  0  0  0  0  0  0  0  0  0  0  0
  2  1  1  0
  3  2  2  0
  4  2  1  0
  5  4  1  0
  5  6  1  0
  6  8  1  0
  6  7  1  1
  8  9  2  0
 11 12  1  0
 11 10  1  0
 13 12  1  0
 14 13  1  6
 15 14  1  0
 15  8  1  0
 16 17  2  0
 16 14  1  0
 18 16  1  0
 19 18  1  0
 19 24  1  0
 19 20  1  1
 21 20  1  0
 22 21  1  0
 23 22  2  0
 24 25  1  0
 26 22  1  0
 27 24  2  0
M  END
$$$$
