QME.pdb
     RDKit          3D

 27 26  0  0  1  0  0  0  0  0999 V2000
   19.1351  -16.6291  -17.7670 N   0  0  0  0  0  0  0  0  0  0  0  0
   19.5909  -16.1920  -16.4919 C   0  0  0  0  0  0  0  0  0  0  0  0
   18.7089  -16.0561  -15.6132 O   0  0  0  0  0  0  0  0  0  0  0  0
   21.0068  -15.9171  -16.2160 C   0  0  0  0  0  0  0  0  0  0  0  0
   21.4278  -14.4898  -16.4087 C   0  0  0  0  0  0  0  0  0  0  0  0
   22.9151  -14.3845  -16.3737 C   0  0  2  0  0  0  0  0  0  0  0  0
   23.4420  -15.5298  -15.6344 N   0  0  0  0  0  0  0  0  0  0  0  0
   23.3608  -13.1179  -15.6888 C   0  0  0  0  0  0  0  0  0  0  0  0
   22.9751  -12.9306  -14.5320 O   0  0  0  0  0  0  0  0  0  0  0  0
   27.9233  -14.6533  -15.1813 C   0  0  0  0  0  0  0  0  0  0  0  0
   26.9360  -13.4628  -16.1452 S   0  0  0  0  0  0  0  0  0  0  0  0
   27.0093  -11.8661  -15.2593 C   0  0  0  0  0  0  0  0  0  0  0  0
   26.2376  -10.8328  -16.0057 C   0  0  0  0  0  0  0  0  0  0  0  0
   24.7318  -10.9761  -15.8791 C   0  0  2  0  0  0  0  0  0  0  0  0
   24.1808  -12.1945  -16.3471 N   0  0  0  0  0  0  0  0  0  0  0  0
   24.0536   -9.7503  -16.2406 C   0  0  0  0  0  0  0  0  0  0  0  0
   23.6330   -9.6579  -17.4468 O   0  0  0  0  0  0  0  0  0  0  0  0
   23.8147   -8.6500  -15.3817 N   0  0  0  0  0  0  0  0  0  0  0  0
   23.1549   -7.4770  -15.8579 C   0  0  1  0  0  0  0  0  0  0  0  0
   22.9495   -6.4795  -14.7385 C   0  0  0  0  0  0  0  0  0  0  0  0
   22.0326   -5.3752  -15.2186 C   0  0  0  0  0  0  0  0  0  0  0  0
   21.8729   -4.3562  -14.1546 C   0  0  0  0  0  0  0  0  0  0  0  0
   21.7691   -3.1326  -14.4101 O   0  0  0  0  0  0  0  0  0  0  0  0
   23.9094   -6.7944  -16.9343 C   0  0  0  0  0  0  0  0  0  0  0  0
   23.3466   -6.2834  -18.0791 O   0  0  0  0  0  0  0  0  0  0  0  0
   21.8355   -4.7551  -12.8293 O   0  0  0  0  0  0  0  0  0  0  0  0
   25.1561   -6.6783  -16.7813 O   0  0  0  0  0  0  0  0  0  0  0  0
  2  1  1  0
  3  2  2  0
  4  2  1  0
  5  4  1  0
  5  6  1  0
  6  8  1  0
  6  7  1  1
  8  9  2  0
 11 12  1  0
 11 10  1  0
 13 12  1  0
 14 13  1  6
 15 14  1  0
 15  8  1  0
 16 17  2  0
 16 14  1  0
 18 16  1  0
 19 18  1  0
 19 24  1  0
 19 20  1  1
 21 20  1  0
 22 21  1  0
 23 22  2  0
 24 25  1  0
 26 22  1  0
 27 24  2  0
M  END
$$$$
