QME.pdb
     RDKit          3D

 27 26  0  0  1  0  0  0  0  0999 V2000
   23.9255  -16.9033  -22.1474 N   0  0  0  0  0  0  0  0  0  0  0  0
   23.4472  -15.6460  -21.6836 C   0  0  0  0  0  0  0  0  0  0  0  0
   23.7234  -14.6575  -22.4013 O   0  0  0  0  0  0  0  0  0  0  0  0
   22.6754  -15.5091  -20.4418 C   0  0  0  0  0  0  0  0  0  0  0  0
   22.9711  -14.2750  -19.6409 C   0  0  0  0  0  0  0  0  0  0  0  0
   24.2759  -14.4227  -18.9340 C   0  0  2  0  0  0  0  0  0  0  0  0
   24.1400  -15.4745  -17.9284 N   0  0  0  0  0  0  0  0  0  0  0  0
   24.6769  -13.1426  -18.2464 C   0  0  0  0  0  0  0  0  0  0  0  0
   24.0752  -12.8391  -17.2131 O   0  0  0  0  0  0  0  0  0  0  0  0
   30.7304   -8.1451  -17.3649 C   0  0  0  0  0  0  0  0  0  0  0  0
   30.0883   -9.5771  -18.2911 S   0  0  0  0  0  0  0  0  0  0  0  0
   28.3053   -9.7042  -17.9109 C   0  0  0  0  0  0  0  0  0  0  0  0
   27.7309  -10.9173  -18.5580 C   0  0  0  0  0  0  0  0  0  0  0  0
   26.2627  -11.1455  -18.2477 C   0  0  2  0  0  0  0  0  0  0  0  0
   25.6942  -12.3347  -18.7670 N   0  0  0  0  0  0  0  0  0  0  0  0
   25.4999   -9.9233  -18.3807 C   0  0  0  0  0  0  0  0  0  0  0  0
   25.1974   -9.5587  -19.5706 O   0  0  0  0  0  0  0  0  0  0  0  0
   25.0602   -9.0998  -17.3159 N   0  0  0  0  0  0  0  0  0  0  0  0
   24.1925   -7.9917  -17.5551 C   0  0  1  0  0  0  0  0  0  0  0  0
   23.1783   -7.8483  -16.4411 C   0  0  0  0  0  0  0  0  0  0  0  0
   22.2022   -6.7474  -16.7962 C   0  0  0  0  0  0  0  0  0  0  0  0
   21.2319   -6.5602  -15.6918 C   0  0  0  0  0  0  0  0  0  0  0  0
   20.7071   -7.5280  -15.0910 O   0  0  0  0  0  0  0  0  0  0  0  0
   24.9228   -6.7078  -17.6651 C   0  0  0  0  0  0  0  0  0  0  0  0
   24.6057   -5.7023  -18.5466 O   0  0  0  0  0  0  0  0  0  0  0  0
   20.8845   -5.2785  -15.3001 O   0  0  0  0  0  0  0  0  0  0  0  0
   25.9035   -6.5332  -16.8913 O   0  0  0  0  0  0  0  0  0  0  0  0
  2  1  1  0
  3  2  2  0
  4  2  1  0
  5  4  1  0
  5  6  1  0
  6  8  1  0
  6  7  1  1
  8  9  2  0
 11 12  1  0
 11 10  1  0
 13 12  1  0
 14 13  1  6
 15 14  1  0
 15  8  1  0
 16 17  2  0
 16 14  1  0
 18 16  1  0
 19 18  1  0
 19 24  1  0
 19 20  1  1
 21 20  1  0
 22 21  1  0
 23 22  2  0
 24 25  1  0
 26 22  1  0
 27 24  2  0
M  END
$$$$
