QME.pdb
     RDKit          3D

 27 26  0  0  1  0  0  0  0  0999 V2000
   14.1657  -21.4370    5.4365 N   0  0  0  0  0  0  0  0  0  0  0  0
   13.7265  -21.0276    4.1465 C   0  0  0  0  0  0  0  0  0  0  0  0
   12.6589  -21.5434    3.7433 O   0  0  0  0  0  0  0  0  0  0  0  0
   14.4733  -20.0591    3.3335 C   0  0  0  0  0  0  0  0  0  0  0  0
   15.7145  -19.5119    3.9750 C   0  0  0  0  0  0  0  0  0  0  0  0
   16.3702  -18.5275    3.0665 C   0  0  2  0  0  0  0  0  0  0  0  0
   16.8806  -19.2445    1.8998 N   0  0  0  0  0  0  0  0  0  0  0  0
   17.5192  -17.8300    3.7487 C   0  0  0  0  0  0  0  0  0  0  0  0
   18.6402  -18.3312    3.6303 O   0  0  0  0  0  0  0  0  0  0  0  0
   20.4520  -11.1068    6.5349 C   0  0  0  0  0  0  0  0  0  0  0  0
   19.1257  -11.9024    5.5710 S   0  0  0  0  0  0  0  0  0  0  0  0
   19.1903  -13.6897    5.9461 C   0  0  0  0  0  0  0  0  0  0  0  0
   18.1459  -14.4125    5.1670 C   0  0  0  0  0  0  0  0  0  0  0  0
   18.2187  -15.9236    5.2912 C   0  0  2  0  0  0  0  0  0  0  0  0
   17.3136  -16.6588    4.4865 N   0  0  0  0  0  0  0  0  0  0  0  0
   18.3746  -16.3320    6.6705 C   0  0  0  0  0  0  0  0  0  0  0  0
   17.3013  -16.5853    7.3219 O   0  0  0  0  0  0  0  0  0  0  0  0
   19.6035  -16.4762    7.3591 N   0  0  0  0  0  0  0  0  0  0  0  0
   19.6368  -16.9173    8.7164 C   0  0  1  0  0  0  0  0  0  0  0  0
   20.7710  -17.8938    8.9404 C   0  0  0  0  0  0  0  0  0  0  0  0
   20.7248  -18.3902   10.3694 C   0  0  0  0  0  0  0  0  0  0  0  0
   21.8003  -19.3854   10.5910 C   0  0  0  0  0  0  0  0  0  0  0  0
   22.5664  -19.7588    9.6708 O   0  0  0  0  0  0  0  0  0  0  0  0
   19.8092  -15.8018    9.6755 C   0  0  0  0  0  0  0  0  0  0  0  0
   20.2145  -14.5339    9.3337 O   0  0  0  0  0  0  0  0  0  0  0  0
   21.9760  -19.9291   11.8521 O   0  0  0  0  0  0  0  0  0  0  0  0
   19.5647  -16.0411   10.8896 O   0  0  0  0  0  0  0  0  0  0  0  0
  2  1  1  0
  3  2  2  0
  4  2  1  0
  5  4  1  0
  5  6  1  0
  6  8  1  0
  6  7  1  6
  8  9  2  0
 11 12  1  0
 11 10  1  0
 13 12  1  0
 14 13  1  1
 15 14  1  0
 15  8  1  0
 16 17  2  0
 16 14  1  0
 18 16  1  0
 19 18  1  0
 19 24  1  0
 19 20  1  6
 21 20  1  0
 22 21  1  0
 23 22  2  0
 24 25  1  0
 26 22  1  0
 27 24  2  0
M  END
$$$$
