QME.pdb
     RDKit          3D

 27 26  0  0  1  0  0  0  0  0999 V2000
   25.8869  -17.7615  -18.1558 N   0  0  0  0  0  0  0  0  0  0  0  0
   27.1730  -18.3408  -18.3429 C   0  0  0  0  0  0  0  0  0  0  0  0
   27.9118  -17.7731  -19.1798 O   0  0  0  0  0  0  0  0  0  0  0  0
   27.6138  -19.5300  -17.6025 C   0  0  0  0  0  0  0  0  0  0  0  0
   26.6736  -19.9977  -16.5307 C   0  0  0  0  0  0  0  0  0  0  0  0
   27.2913  -21.1135  -15.7576 C   0  0  2  0  0  0  0  0  0  0  0  0
   27.4986  -22.2427  -16.6619 N   0  0  0  0  0  0  0  0  0  0  0  0
   26.4013  -21.5561  -14.6243 C   0  0  0  0  0  0  0  0  0  0  0  0
   25.4853  -22.3378  -14.8922 O   0  0  0  0  0  0  0  0  0  0  0  0
   25.0691  -20.7550   -6.8113 C   0  0  0  0  0  0  0  0  0  0  0  0
   26.2730  -20.4953   -8.1546 S   0  0  0  0  0  0  0  0  0  0  0  0
   25.3959  -20.8085   -9.7268 C   0  0  0  0  0  0  0  0  0  0  0  0
   26.3611  -20.7898  -10.8620 C   0  0  0  0  0  0  0  0  0  0  0  0
   25.7286  -21.0643  -12.2143 C   0  0  2  0  0  0  0  0  0  0  0  0
   26.6129  -21.0931  -13.3208 N   0  0  0  0  0  0  0  0  0  0  0  0
   24.4830  -20.3447  -12.3692 C   0  0  0  0  0  0  0  0  0  0  0  0
   24.5681  -19.0949  -12.6356 O   0  0  0  0  0  0  0  0  0  0  0  0
   23.1849  -20.8988  -12.2535 N   0  0  0  0  0  0  0  0  0  0  0  0
   22.0231  -20.0979  -12.4696 C   0  0  1  0  0  0  0  0  0  0  0  0
   21.9028  -19.7004  -13.9248 C   0  0  0  0  0  0  0  0  0  0  0  0
   21.5092  -20.9131  -14.7405 C   0  0  0  0  0  0  0  0  0  0  0  0
   22.1294  -20.8379  -16.0844 C   0  0  0  0  0  0  0  0  0  0  0  0
   22.7419  -19.8184  -16.4826 O   0  0  0  0  0  0  0  0  0  0  0  0
   20.7715  -20.7927  -12.0893 C   0  0  0  0  0  0  0  0  0  0  0  0
   19.5255  -20.2131  -12.0906 O   0  0  0  0  0  0  0  0  0  0  0  0
   22.0366  -21.9232  -16.9391 O   0  0  0  0  0  0  0  0  0  0  0  0
   20.8650  -22.0014  -11.7410 O   0  0  0  0  0  0  0  0  0  0  0  0
  2  1  1  0
  3  2  2  0
  4  2  1  0
  5  4  1  0
  5  6  1  0
  6  8  1  0
  6  7  1  6
  8  9  2  0
 11 12  1  0
 11 10  1  0
 13 12  1  0
 14 13  1  1
 15 14  1  0
 15  8  1  0
 16 17  2  0
 16 14  1  0
 18 16  1  0
 19 18  1  0
 19 24  1  0
 19 20  1  6
 21 20  1  0
 22 21  1  0
 23 22  2  0
 24 25  1  0
 26 22  1  0
 27 24  2  0
M  END
$$$$
