QME.pdb
     RDKit          3D

 27 26  0  0  1  0  0  0  0  0999 V2000
   18.0850  -15.4975  -15.1373 N   0  0  0  0  0  0  0  0  0  0  0  0
   17.9199  -14.6194  -16.2447 C   0  0  0  0  0  0  0  0  0  0  0  0
   17.1408  -15.0127  -17.1429 O   0  0  0  0  0  0  0  0  0  0  0  0
   18.6158  -13.3293  -16.3344 C   0  0  0  0  0  0  0  0  0  0  0  0
   17.7346  -12.1207  -16.2156 C   0  0  0  0  0  0  0  0  0  0  0  0
   18.3172  -10.9835  -16.9848 C   0  0  2  0  0  0  0  0  0  0  0  0
   18.8176  -11.4957  -18.2588 N   0  0  0  0  0  0  0  0  0  0  0  0
   19.4584  -10.3416  -16.2378 C   0  0  0  0  0  0  0  0  0  0  0  0
   19.2061   -9.8302  -15.1438 O   0  0  0  0  0  0  0  0  0  0  0  0
   27.2165  -10.7711  -15.1073 C   0  0  0  0  0  0  0  0  0  0  0  0
   25.8176  -11.3156  -16.1405 S   0  0  0  0  0  0  0  0  0  0  0  0
   24.4109  -10.2128  -15.7603 C   0  0  0  0  0  0  0  0  0  0  0  0
   23.2152  -10.6202  -16.5508 C   0  0  0  0  0  0  0  0  0  0  0  0
   21.9582   -9.8382  -16.2156 C   0  0  2  0  0  0  0  0  0  0  0  0
   20.7518  -10.3304  -16.7719 N   0  0  0  0  0  0  0  0  0  0  0  0
   22.1928   -8.4118  -16.2775 C   0  0  0  0  0  0  0  0  0  0  0  0
   22.2810   -7.8919  -17.4446 O   0  0  0  0  0  0  0  0  0  0  0  0
   22.3319   -7.5450  -15.1663 N   0  0  0  0  0  0  0  0  0  0  0  0
   22.0808   -6.1452  -15.2916 C   0  0  1  0  0  0  0  0  0  0  0  0
   20.7126   -5.8920  -15.8864 C   0  0  0  0  0  0  0  0  0  0  0  0
   20.5064   -4.4006  -16.0421 C   0  0  0  0  0  0  0  0  0  0  0  0
   19.1719   -4.1362  -16.6298 C   0  0  0  0  0  0  0  0  0  0  0  0
   18.9618   -4.1914  -17.8650 O   0  0  0  0  0  0  0  0  0  0  0  0
   22.1440   -5.4352  -13.9932 C   0  0  0  0  0  0  0  0  0  0  0  0
   22.1991   -6.0534  -12.7671 O   0  0  0  0  0  0  0  0  0  0  0  0
   18.1125   -3.8162  -15.7978 O   0  0  0  0  0  0  0  0  0  0  0  0
   22.1470   -4.1742  -14.0242 O   0  0  0  0  0  0  0  0  0  0  0  0
  2  1  1  0
  3  2  2  0
  4  2  1  0
  5  4  1  0
  5  6  1  0
  6  8  1  0
  6  7  1  6
  8  9  2  0
 11 12  1  0
 11 10  1  0
 13 12  1  0
 14 13  1  6
 15 14  1  0
 15  8  1  0
 16 17  2  0
 16 14  1  0
 18 16  1  0
 19 18  1  0
 19 24  1  0
 19 20  1  1
 21 20  1  0
 22 21  1  0
 23 22  2  0
 24 25  1  0
 26 22  1  0
 27 24  2  0
M  END
$$$$
