QME.pdb
     RDKit          3D

 27 26  0  0  1  0  0  0  0  0999 V2000
   29.1813  -18.4920  -18.2771 N   0  0  0  0  0  0  0  0  0  0  0  0
   27.7906  -18.7500  -18.4326 C   0  0  0  0  0  0  0  0  0  0  0  0
   27.3274  -18.5745  -19.5829 O   0  0  0  0  0  0  0  0  0  0  0  0
   26.9452  -19.1962  -17.3178 C   0  0  0  0  0  0  0  0  0  0  0  0
   27.6195  -19.2211  -15.9775 C   0  0  0  0  0  0  0  0  0  0  0  0
   27.8199  -20.6296  -15.5302 C   0  0  2  0  0  0  0  0  0  0  0  0
   27.8156  -21.4936  -16.7089 N   0  0  0  0  0  0  0  0  0  0  0  0
   26.7202  -21.0728  -14.5994 C   0  0  0  0  0  0  0  0  0  0  0  0
   25.7515  -21.6516  -15.0980 O   0  0  0  0  0  0  0  0  0  0  0  0
   24.5867  -21.0679   -6.9061 C   0  0  0  0  0  0  0  0  0  0  0  0
   25.8747  -20.5895   -8.1034 S   0  0  0  0  0  0  0  0  0  0  0  0
   25.2296  -20.9809   -9.7678 C   0  0  0  0  0  0  0  0  0  0  0  0
   26.2524  -20.6543  -10.8011 C   0  0  0  0  0  0  0  0  0  0  0  0
   25.8036  -20.9348  -12.2237 C   0  0  2  0  0  0  0  0  0  0  0  0
   26.8026  -20.8330  -13.2231 N   0  0  0  0  0  0  0  0  0  0  0  0
   24.5161  -20.3345  -12.4981 C   0  0  0  0  0  0  0  0  0  0  0  0
   24.5240  -19.1486  -12.9816 O   0  0  0  0  0  0  0  0  0  0  0  0
   23.2549  -20.9407  -12.2808 N   0  0  0  0  0  0  0  0  0  0  0  0
   22.0848  -20.4572  -12.9404 C   0  0  1  0  0  0  0  0  0  0  0  0
   22.2570  -20.4930  -14.4435 C   0  0  0  0  0  0  0  0  0  0  0  0
   21.0250  -19.9073  -15.0991 C   0  0  0  0  0  0  0  0  0  0  0  0
   21.1435  -20.0086  -16.5728 C   0  0  0  0  0  0  0  0  0  0  0  0
   21.2452  -21.1113  -17.1617 O   0  0  0  0  0  0  0  0  0  0  0  0
   20.8752  -21.2450  -12.6084 C   0  0  0  0  0  0  0  0  0  0  0  0
   19.5926  -20.7521  -12.6286 O   0  0  0  0  0  0  0  0  0  0  0  0
   21.1431  -18.8542  -17.3372 O   0  0  0  0  0  0  0  0  0  0  0  0
   21.0434  -22.4527  -12.2854 O   0  0  0  0  0  0  0  0  0  0  0  0
  2  1  1  0
  3  2  2  0
  4  2  1  0
  5  4  1  0
  5  6  1  0
  6  8  1  0
  6  7  1  6
  8  9  2  0
 11 12  1  0
 11 10  1  0
 13 12  1  0
 14 13  1  1
 15 14  1  0
 15  8  1  0
 16 17  2  0
 16 14  1  0
 18 16  1  0
 19 18  1  0
 19 24  1  0
 19 20  1  6
 21 20  1  0
 22 21  1  0
 23 22  2  0
 24 25  1  0
 26 22  1  0
 27 24  2  0
M  END
$$$$
