QME.pdb
     RDKit          3D

 27 26  0  0  1  0  0  0  0  0999 V2000
   20.4725  -25.3764  -11.5404 N   0  0  0  0  0  0  0  0  0  0  0  0
   19.4879  -24.4152  -11.1777 C   0  0  0  0  0  0  0  0  0  0  0  0
   18.4242  -24.8749  -10.7025 O   0  0  0  0  0  0  0  0  0  0  0  0
   19.7001  -22.9719  -11.3460 C   0  0  0  0  0  0  0  0  0  0  0  0
   21.0120  -22.5889  -11.9655 C   0  0  0  0  0  0  0  0  0  0  0  0
   20.7924  -22.0457  -13.3370 C   0  0  2  0  0  0  0  0  0  0  0  0
   21.2733  -23.0287  -14.3056 N   0  0  0  0  0  0  0  0  0  0  0  0
   21.5415  -20.7540  -13.5433 C   0  0  0  0  0  0  0  0  0  0  0  0
   21.2144  -19.7892  -12.8477 O   0  0  0  0  0  0  0  0  0  0  0  0
   28.3486  -17.5360  -15.7624 C   0  0  0  0  0  0  0  0  0  0  0  0
   27.4086  -19.0894  -15.6059 S   0  0  0  0  0  0  0  0  0  0  0  0
   25.6479  -18.6335  -15.4279 C   0  0  0  0  0  0  0  0  0  0  0  0
   24.8396  -19.8405  -15.0958 C   0  0  0  0  0  0  0  0  0  0  0  0
   23.3696  -19.5507  -14.8522 C   0  0  2  0  0  0  0  0  0  0  0  0
   22.5679  -20.6612  -14.4902 N   0  0  0  0  0  0  0  0  0  0  0  0
   22.8419  -18.6359  -15.8412 C   0  0  0  0  0  0  0  0  0  0  0  0
   22.6090  -19.1165  -17.0053 O   0  0  0  0  0  0  0  0  0  0  0  0
   22.5611  -17.2633  -15.6353 N   0  0  0  0  0  0  0  0  0  0  0  0
   22.0479  -16.4526  -16.6925 C   0  0  1  0  0  0  0  0  0  0  0  0
   21.7119  -15.0635  -16.1949 C   0  0  0  0  0  0  0  0  0  0  0  0
   21.0881  -14.2691  -17.3220 C   0  0  0  0  0  0  0  0  0  0  0  0
   20.7323  -12.9123  -16.8438 C   0  0  0  0  0  0  0  0  0  0  0  0
   20.9866  -12.5255  -15.6782 O   0  0  0  0  0  0  0  0  0  0  0  0
   23.0021  -16.3081  -17.8162 C   0  0  0  0  0  0  0  0  0  0  0  0
   24.3509  -16.0882  -17.6717 O   0  0  0  0  0  0  0  0  0  0  0  0
   20.0971  -12.0319  -17.7032 O   0  0  0  0  0  0  0  0  0  0  0  0
   22.5352  -16.3943  -18.9848 O   0  0  0  0  0  0  0  0  0  0  0  0
  2  1  1  0
  3  2  2  0
  4  2  1  0
  5  4  1  0
  5  6  1  0
  6  8  1  0
  6  7  1  6
  8  9  2  0
 11 12  1  0
 11 10  1  0
 13 12  1  0
 14 13  1  6
 15 14  1  0
 15  8  1  0
 16 17  2  0
 16 14  1  0
 18 16  1  0
 19 18  1  0
 19 24  1  0
 19 20  1  1
 21 20  1  0
 22 21  1  0
 23 22  2  0
 24 25  1  0
 26 22  1  0
 27 24  2  0
M  END
$$$$
