QME.pdb
     RDKit          3D

 27 26  0  0  1  0  0  0  0  0999 V2000
   20.8339  -12.8746  -19.0156 N   0  0  0  0  0  0  0  0  0  0  0  0
   19.6315  -13.2800  -19.6596 C   0  0  0  0  0  0  0  0  0  0  0  0
   19.6565  -14.4073  -20.2045 O   0  0  0  0  0  0  0  0  0  0  0  0
   18.4313  -12.4342  -19.6860 C   0  0  0  0  0  0  0  0  0  0  0  0
   18.5958  -11.0756  -19.0707 C   0  0  0  0  0  0  0  0  0  0  0  0
   18.4115  -11.1561  -17.5929 C   0  0  2  0  0  0  0  0  0  0  0  0
   16.9913  -11.3598  -17.3149 N   0  0  0  0  0  0  0  0  0  0  0  0
   18.8625   -9.8887  -16.9127 C   0  0  0  0  0  0  0  0  0  0  0  0
   18.1229   -8.9047  -16.9948 O   0  0  0  0  0  0  0  0  0  0  0  0
   22.3230   -6.4124  -11.4441 C   0  0  0  0  0  0  0  0  0  0  0  0
   21.5115   -7.7310  -12.4052 S   0  0  0  0  0  0  0  0  0  0  0  0
   22.4551   -7.9184  -13.9589 C   0  0  0  0  0  0  0  0  0  0  0  0
   21.9285   -9.0734  -14.7394 C   0  0  0  0  0  0  0  0  0  0  0  0
   20.7181   -8.7408  -15.5930 C   0  0  2  0  0  0  0  0  0  0  0  0
   20.0754   -9.8386  -16.2164 N   0  0  0  0  0  0  0  0  0  0  0  0
   20.9454   -7.5550  -16.3903 C   0  0  0  0  0  0  0  0  0  0  0  0
   21.1755   -7.7340  -17.6375 O   0  0  0  0  0  0  0  0  0  0  0  0
   20.9350   -6.2212  -15.9150 N   0  0  0  0  0  0  0  0  0  0  0  0
   21.0460   -5.1199  -16.8166 C   0  0  1  0  0  0  0  0  0  0  0  0
   19.9240   -5.1365  -17.8319 C   0  0  0  0  0  0  0  0  0  0  0  0
   20.0621   -3.9376  -18.7452 C   0  0  0  0  0  0  0  0  0  0  0  0
   18.9571   -3.9278  -19.7326 C   0  0  0  0  0  0  0  0  0  0  0  0
   17.8219   -4.3927  -19.4712 O   0  0  0  0  0  0  0  0  0  0  0  0
   21.0068   -3.8101  -16.1259 C   0  0  0  0  0  0  0  0  0  0  0  0
   21.4964   -2.6371  -16.6483 O   0  0  0  0  0  0  0  0  0  0  0  0
   19.1721   -3.3901  -20.9903 O   0  0  0  0  0  0  0  0  0  0  0  0
   20.4856   -3.7782  -14.9777 O   0  0  0  0  0  0  0  0  0  0  0  0
  2  1  1  0
  3  2  2  0
  4  2  1  0
  5  4  1  0
  5  6  1  0
  6  8  1  0
  6  7  1  6
  8  9  2  0
 11 12  1  0
 11 10  1  0
 13 12  1  0
 14 13  1  6
 15 14  1  0
 15  8  1  0
 16 17  2  0
 16 14  1  0
 18 16  1  0
 19 18  1  0
 19 24  1  0
 19 20  1  6
 21 20  1  0
 22 21  1  0
 23 22  2  0
 24 25  1  0
 26 22  1  0
 27 24  2  0
M  END
$$$$
