QME.pdb
     RDKit          3D

 27 26  0  0  1  0  0  0  0  0999 V2000
   17.9394  -19.8385  -17.8239 N   0  0  0  0  0  0  0  0  0  0  0  0
   18.3931  -19.2511  -16.6099 C   0  0  0  0  0  0  0  0  0  0  0  0
   17.5186  -19.0633  -15.7332 O   0  0  0  0  0  0  0  0  0  0  0  0
   19.7987  -18.8866  -16.3913 C   0  0  0  0  0  0  0  0  0  0  0  0
   20.0220  -17.5022  -15.8572 C   0  0  0  0  0  0  0  0  0  0  0  0
   21.2570  -16.9156  -16.4529 C   0  0  2  0  0  0  0  0  0  0  0  0
   22.3200  -17.9167  -16.3916 N   0  0  0  0  0  0  0  0  0  0  0  0
   21.7019  -15.6884  -15.6990 C   0  0  0  0  0  0  0  0  0  0  0  0
   21.1247  -15.4311  -14.6395 O   0  0  0  0  0  0  0  0  0  0  0  0
   27.7129  -14.9778  -16.5871 C   0  0  0  0  0  0  0  0  0  0  0  0
   27.2252  -14.7910  -14.8411 S   0  0  0  0  0  0  0  0  0  0  0  0
   25.3996  -14.8519  -14.7864 C   0  0  0  0  0  0  0  0  0  0  0  0
   24.8279  -13.7005  -15.5399 C   0  0  0  0  0  0  0  0  0  0  0  0
   23.3127  -13.7127  -15.6293 C   0  0  2  0  0  0  0  0  0  0  0  0
   22.7314  -14.8771  -16.1892 N   0  0  0  0  0  0  0  0  0  0  0  0
   22.8002  -12.4313  -16.0639 C   0  0  0  0  0  0  0  0  0  0  0  0
   22.7682  -12.2212  -17.3269 O   0  0  0  0  0  0  0  0  0  0  0  0
   22.3325  -11.3953  -15.2194 N   0  0  0  0  0  0  0  0  0  0  0  0
   21.8792  -10.1549  -15.7616 C   0  0  1  0  0  0  0  0  0  0  0  0
   20.6289   -9.6796  -15.0536 C   0  0  0  0  0  0  0  0  0  0  0  0
   20.1653   -8.3823  -15.6805 C   0  0  0  0  0  0  0  0  0  0  0  0
   18.9025   -7.9395  -15.0440 C   0  0  0  0  0  0  0  0  0  0  0  0
   18.2707   -6.9313  -15.4409 O   0  0  0  0  0  0  0  0  0  0  0  0
   22.8923   -9.0798  -15.6533 C   0  0  0  0  0  0  0  0  0  0  0  0
   24.0713   -9.1855  -14.9552 O   0  0  0  0  0  0  0  0  0  0  0  0
   18.3919   -8.6543  -13.9738 O   0  0  0  0  0  0  0  0  0  0  0  0
   22.6477   -7.9940  -16.2468 O   0  0  0  0  0  0  0  0  0  0  0  0
  2  1  1  0
  3  2  2  0
  4  2  1  0
  5  4  1  0
  5  6  1  0
  6  8  1  0
  6  7  1  1
  8  9  2  0
 11 12  1  0
 11 10  1  0
 13 12  1  0
 14 13  1  6
 15 14  1  0
 15  8  1  0
 16 17  2  0
 16 14  1  0
 18 16  1  0
 19 18  1  0
 19 24  1  0
 19 20  1  1
 21 20  1  0
 22 21  1  0
 23 22  2  0
 24 25  1  0
 26 22  1  0
 27 24  2  0
M  END
$$$$
