QME.pdb
     RDKit          3D

 27 26  0  0  1  0  0  0  0  0999 V2000
   17.2529  -13.9776  -19.2763 N   0  0  0  0  0  0  0  0  0  0  0  0
   18.5258  -13.3836  -19.0491 C   0  0  0  0  0  0  0  0  0  0  0  0
   19.4874  -14.1779  -18.9357 O   0  0  0  0  0  0  0  0  0  0  0  0
   18.7080  -11.9295  -18.9542 C   0  0  0  0  0  0  0  0  0  0  0  0
   19.1147  -11.4257  -17.6005 C   0  0  0  0  0  0  0  0  0  0  0  0
   20.5537  -11.7281  -17.3516 C   0  0  2  0  0  0  0  0  0  0  0  0
   20.6611  -13.1074  -16.8806 N   0  0  0  0  0  0  0  0  0  0  0  0
   21.1355  -10.8113  -16.3061 C   0  0  0  0  0  0  0  0  0  0  0  0
   20.5105  -10.6833  -15.2502 O   0  0  0  0  0  0  0  0  0  0  0  0
   27.4844  -12.0163  -14.6881 C   0  0  0  0  0  0  0  0  0  0  0  0
   26.8822  -10.4289  -15.3503 S   0  0  0  0  0  0  0  0  0  0  0  0
   25.0567  -10.4788  -15.2819 C   0  0  0  0  0  0  0  0  0  0  0  0
   24.4935   -9.1749  -15.7324 C   0  0  0  0  0  0  0  0  0  0  0  0
   22.9764   -9.1339  -15.7579 C   0  0  2  0  0  0  0  0  0  0  0  0
   22.3395  -10.1348  -16.5323 N   0  0  0  0  0  0  0  0  0  0  0  0
   22.4879   -7.7776  -15.8815 C   0  0  0  0  0  0  0  0  0  0  0  0
   22.5406   -7.2495  -17.0471 O   0  0  0  0  0  0  0  0  0  0  0  0
   21.9588   -6.9876  -14.8320 N   0  0  0  0  0  0  0  0  0  0  0  0
   21.4870   -5.6627  -15.0770 C   0  0  1  0  0  0  0  0  0  0  0  0
   19.9846   -5.5844  -14.9136 C   0  0  0  0  0  0  0  0  0  0  0  0
   19.3201   -6.1004  -16.1717 C   0  0  0  0  0  0  0  0  0  0  0  0
   17.8475   -5.9998  -16.0401 C   0  0  0  0  0  0  0  0  0  0  0  0
   17.0704   -6.2831  -16.9829 O   0  0  0  0  0  0  0  0  0  0  0  0
   22.0902   -4.6638  -14.1646 C   0  0  0  0  0  0  0  0  0  0  0  0
   22.1683   -3.3165  -14.4239 O   0  0  0  0  0  0  0  0  0  0  0  0
   17.2979   -5.5800  -14.8406 O   0  0  0  0  0  0  0  0  0  0  0  0
   22.5631   -5.0883  -13.0750 O   0  0  0  0  0  0  0  0  0  0  0  0
  2  1  1  0
  3  2  2  0
  4  2  1  0
  5  4  1  0
  5  6  1  0
  6  8  1  0
  6  7  1  1
  8  9  2  0
 11 12  1  0
 11 10  1  0
 13 12  1  0
 14 13  1  6
 15 14  1  0
 15  8  1  0
 16 17  2  0
 16 14  1  0
 18 16  1  0
 19 18  1  0
 19 24  1  0
 19 20  1  1
 21 20  1  0
 22 21  1  0
 23 22  2  0
 24 25  1  0
 26 22  1  0
 27 24  2  0
M  END
$$$$
