QME.pdb
     RDKit          3D

 27 26  0  0  1  0  0  0  0  0999 V2000
   17.7981  -11.7594  -17.9155 N   0  0  0  0  0  0  0  0  0  0  0  0
   18.0523  -12.9654  -17.2044 C   0  0  0  0  0  0  0  0  0  0  0  0
   18.7835  -13.7993  -17.7863 O   0  0  0  0  0  0  0  0  0  0  0  0
   17.4963  -13.2221  -15.8697 C   0  0  0  0  0  0  0  0  0  0  0  0
   16.5963  -12.1462  -15.3370 C   0  0  0  0  0  0  0  0  0  0  0  0
   17.2744  -11.4114  -14.2304 C   0  0  2  0  0  0  0  0  0  0  0  0
   17.2991  -12.2734  -13.0505 N   0  0  0  0  0  0  0  0  0  0  0  0
   16.5437  -10.1386  -13.8866 C   0  0  0  0  0  0  0  0  0  0  0  0
   16.2603   -9.3767  -14.8145 O   0  0  0  0  0  0  0  0  0  0  0  0
   11.9255  -10.9831   -8.6490 C   0  0  0  0  0  0  0  0  0  0  0  0
   13.3305   -9.8249   -8.7245 S   0  0  0  0  0  0  0  0  0  0  0  0
   13.8230   -9.6953  -10.4795 C   0  0  0  0  0  0  0  0  0  0  0  0
   15.0330   -8.8350  -10.6075 C   0  0  0  0  0  0  0  0  0  0  0  0
   15.5483   -8.7025  -12.0292 C   0  0  2  0  0  0  0  0  0  0  0  0
   16.2032   -9.8400  -12.5624 N   0  0  0  0  0  0  0  0  0  0  0  0
   16.1612   -7.4105  -12.2492 C   0  0  0  0  0  0  0  0  0  0  0  0
   17.4327   -7.3442  -12.1106 O   0  0  0  0  0  0  0  0  0  0  0  0
   15.4819   -6.2196  -12.6034 N   0  0  0  0  0  0  0  0  0  0  0  0
   16.2002   -5.0719  -13.0560 C   0  0  1  0  0  0  0  0  0  0  0  0
   17.1231   -5.4280  -14.2012 C   0  0  0  0  0  0  0  0  0  0  0  0
   17.8168   -4.1743  -14.6890 C   0  0  0  0  0  0  0  0  0  0  0  0
   18.7139   -4.5043  -15.8214 C   0  0  0  0  0  0  0  0  0  0  0  0
   19.9134   -4.8293  -15.6522 O   0  0  0  0  0  0  0  0  0  0  0  0
   15.3068   -3.9856  -13.5208 C   0  0  0  0  0  0  0  0  0  0  0  0
   15.7198   -2.7095  -13.8201 O   0  0  0  0  0  0  0  0  0  0  0  0
   18.2235   -4.4561  -17.1154 O   0  0  0  0  0  0  0  0  0  0  0  0
   14.0822   -4.2598  -13.6480 O   0  0  0  0  0  0  0  0  0  0  0  0
  2  1  1  0
  3  2  2  0
  4  2  1  0
  5  4  1  0
  5  6  1  0
  6  8  1  0
  6  7  1  1
  8  9  2  0
 11 12  1  0
 11 10  1  0
 13 12  1  0
 14 13  1  1
 15 14  1  0
 15  8  1  0
 16 17  2  0
 16 14  1  0
 18 16  1  0
 19 18  1  0
 19 24  1  0
 19 20  1  6
 21 20  1  0
 22 21  1  0
 23 22  2  0
 24 25  1  0
 26 22  1  0
 27 24  2  0
M  END
$$$$
