QVD.pdb
     RDKit          3D

 25 24  0  0  1  0  0  0  0  0999 V2000
   22.2227  -20.0051  -18.9260 N   0  0  0  0  0  0  0  0  0  0  0  0
   21.9254  -21.1654  -18.1249 C   0  0  0  0  0  0  0  0  0  0  0  0
   20.7112  -21.4504  -18.0427 O   0  0  0  0  0  0  0  0  0  0  0  0
   22.9998  -21.9207  -17.4688 C   0  0  0  0  0  0  0  0  0  0  0  0
   22.9367  -22.0104  -15.9817 C   0  0  0  0  0  0  0  0  0  0  0  0
   22.7432  -20.6789  -15.3575 C   0  0  2  0  0  0  0  0  0  0  0  0
   23.9678  -19.9271  -15.3575 N   0  0  0  0  0  0  0  0  0  0  0  0
   22.2592  -20.7448  -13.9644 C   0  0  0  0  0  0  0  0  0  0  0  0
   23.0699  -20.9144  -13.0027 O   0  0  0  0  0  0  0  0  0  0  0  0
   18.4244  -19.2417  -12.9062 C   0  0  0  0  0  0  0  0  0  0  0  0
   19.5810  -19.4260  -11.9768 C   0  0  2  0  0  0  0  0  0  0  0  0
   20.4278  -18.1557  -12.0971 C   0  0  0  0  0  0  0  0  0  0  0  0
   20.4199  -20.6514  -12.2684 C   0  0  2  0  0  0  0  0  0  0  0  0
   20.8869  -20.6232  -13.6689 N   0  0  0  0  0  0  0  0  0  0  0  0
   19.7078  -21.9073  -11.9811 C   0  0  0  0  0  0  0  0  0  0  0  0
   19.1726  -22.6261  -12.8617 O   0  0  0  0  0  0  0  0  0  0  0  0
   19.5726  -22.4118  -10.6363 N   0  0  0  0  0  0  0  0  0  0  0  0
   18.8803  -23.7039  -10.4040 C   0  0  1  0  0  0  0  0  0  0  0  0
   19.2143  -24.2208   -9.0362 C   0  0  0  0  0  0  0  0  0  0  0  0
   18.5724  -25.5271   -8.8212 C   0  0  0  0  0  0  0  0  0  0  0  0
   18.3043  -26.2902   -9.8185 O   0  0  0  0  0  0  0  0  0  0  0  0
   17.4469  -23.3473  -10.4432 C   0  0  0  0  0  0  0  0  0  0  0  0
   16.4669  -24.2006  -10.9171 O   0  0  0  0  0  0  0  0  0  0  0  0
   18.2004  -26.0573   -7.5945 O   0  0  0  0  0  0  0  0  0  0  0  0
   17.0777  -22.2317  -10.0364 O   0  0  0  0  0  0  0  0  0  0  0  0
  1  2  1  0
  2  3  2  0
  4  2  1  0
  4  5  1  0
  6  5  1  0
  6  8  1  0
  6  7  1  1
  8  9  2  0
 11 10  1  6
 11 12  1  0
 11 13  1  0
 13 15  1  0
 13 14  1  6
 14  8  1  0
 15 17  1  0
 16 15  2  0
 17 18  1  0
 18 19  1  1
 20 19  1  0
 21 20  2  0
 22 18  1  0
 23 22  1  0
 24 20  1  0
 25 22  2  0
M  END
$$$$
