QVD.pdb
     RDKit          3D

 25 24  0  0  1  0  0  0  0  0999 V2000
   26.8268  -20.9266  -18.1776 N   0  0  0  0  0  0  0  0  0  0  0  0
   28.1745  -20.4353  -18.0414 C   0  0  0  0  0  0  0  0  0  0  0  0
   28.6003  -19.7896  -19.0233 O   0  0  0  0  0  0  0  0  0  0  0  0
   28.9524  -20.7029  -16.8255 C   0  0  0  0  0  0  0  0  0  0  0  0
   28.2513  -21.4436  -15.7377 C   0  0  0  0  0  0  0  0  0  0  0  0
   27.3168  -20.5683  -14.9892 C   0  0  2  0  0  0  0  0  0  0  0  0
   28.0336  -19.6080  -14.1964 N   0  0  0  0  0  0  0  0  0  0  0  0
   26.4114  -21.3066  -14.0866 C   0  0  0  0  0  0  0  0  0  0  0  0
   25.9496  -22.4419  -14.4165 O   0  0  0  0  0  0  0  0  0  0  0  0
   24.7950  -19.8404  -10.0653 C   0  0  0  0  0  0  0  0  0  0  0  0
   25.1686  -21.1906  -10.5877 C   0  0  2  0  0  0  0  0  0  0  0  0
   26.6529  -21.3759  -10.2598 C   0  0  0  0  0  0  0  0  0  0  0  0
   24.9275  -21.3685  -12.0711 C   0  0  2  0  0  0  0  0  0  0  0  0
   26.0368  -20.7688  -12.8393 N   0  0  0  0  0  0  0  0  0  0  0  0
   23.6339  -20.8165  -12.5054 C   0  0  0  0  0  0  0  0  0  0  0  0
   23.4446  -19.6038  -12.7739 O   0  0  0  0  0  0  0  0  0  0  0  0
   22.4662  -21.6501  -12.6569 N   0  0  0  0  0  0  0  0  0  0  0  0
   21.2630  -21.1100  -13.3377 C   0  0  1  0  0  0  0  0  0  0  0  0
   20.8422  -22.0380  -14.4384 C   0  0  0  0  0  0  0  0  0  0  0  0
   19.5793  -21.5733  -15.0332 C   0  0  0  0  0  0  0  0  0  0  0  0
   19.5814  -20.6326  -15.9073 O   0  0  0  0  0  0  0  0  0  0  0  0
   20.2280  -21.1192  -12.2831 C   0  0  0  0  0  0  0  0  0  0  0  0
   20.3631  -21.8152  -11.0955 O   0  0  0  0  0  0  0  0  0  0  0  0
   18.3147  -22.0614  -14.7387 O   0  0  0  0  0  0  0  0  0  0  0  0
   19.1751  -20.4782  -12.4470 O   0  0  0  0  0  0  0  0  0  0  0  0
  1  2  1  0
  2  3  2  0
  4  2  1  0
  4  5  1  0
  6  5  1  0
  6  8  1  0
  6  7  1  1
  8  9  2  0
 11 10  1  6
 11 12  1  0
 11 13  1  0
 13 15  1  0
 13 14  1  6
 14  8  1  0
 15 17  1  0
 16 15  2  0
 17 18  1  0
 18 19  1  6
 20 19  1  0
 21 20  2  0
 22 18  1  0
 23 22  1  0
 24 20  1  0
 25 22  2  0
M  END
$$$$
