QVD.pdb
     RDKit          3D

 25 24  0  0  1  0  0  0  0  0999 V2000
   14.2929  -12.0020  -18.0841 N   0  0  0  0  0  0  0  0  0  0  0  0
   15.1417  -13.0451  -18.6017 C   0  0  0  0  0  0  0  0  0  0  0  0
   14.6308  -13.7369  -19.5087 O   0  0  0  0  0  0  0  0  0  0  0  0
   16.4948  -13.2463  -18.0688 C   0  0  0  0  0  0  0  0  0  0  0  0
   16.9825  -12.2299  -17.0928 C   0  0  0  0  0  0  0  0  0  0  0  0
   18.3687  -12.5141  -16.6483 C   0  0  2  0  0  0  0  0  0  0  0  0
   18.4333  -13.7527  -15.9227 N   0  0  0  0  0  0  0  0  0  0  0  0
   18.9398  -11.4606  -15.7861 C   0  0  0  0  0  0  0  0  0  0  0  0
   18.4093  -11.1781  -14.6682 O   0  0  0  0  0  0  0  0  0  0  0  0
   22.7587   -8.8120  -14.2901 C   0  0  0  0  0  0  0  0  0  0  0  0
   22.0737   -9.9333  -15.0035 C   0  0  2  0  0  0  0  0  0  0  0  0
   22.8769  -10.1735  -16.2850 C   0  0  0  0  0  0  0  0  0  0  0  0
   20.6214   -9.6624  -15.3315 C   0  0  2  0  0  0  0  0  0  0  0  0
   20.0852  -10.7426  -16.1835 N   0  0  0  0  0  0  0  0  0  0  0  0
   20.4188   -8.3492  -15.9651 C   0  0  0  0  0  0  0  0  0  0  0  0
   20.5943   -8.1276  -17.1892 O   0  0  0  0  0  0  0  0  0  0  0  0
   19.9938   -7.1984  -15.2057 N   0  0  0  0  0  0  0  0  0  0  0  0
   19.6652   -5.9348  -15.9115 C   0  0  1  0  0  0  0  0  0  0  0  0
   18.3013   -5.4639  -15.5019 C   0  0  0  0  0  0  0  0  0  0  0  0
   18.0147   -4.1575  -16.1152 C   0  0  0  0  0  0  0  0  0  0  0  0
   17.7875   -4.0685  -17.3759 O   0  0  0  0  0  0  0  0  0  0  0  0
   20.6723   -4.9781  -15.4079 C   0  0  0  0  0  0  0  0  0  0  0  0
   21.0770   -3.8615  -16.1167 O   0  0  0  0  0  0  0  0  0  0  0  0
   17.9617   -2.9417  -15.4493 O   0  0  0  0  0  0  0  0  0  0  0  0
   21.1966   -5.1633  -14.2956 O   0  0  0  0  0  0  0  0  0  0  0  0
  1  2  1  0
  2  3  2  0
  4  2  1  0
  4  5  1  0
  6  5  1  0
  6  8  1  0
  6  7  1  1
  8  9  2  0
 11 10  1  6
 11 12  1  0
 11 13  1  0
 13 15  1  0
 13 14  1  6
 14  8  1  0
 15 17  1  0
 16 15  2  0
 17 18  1  0
 18 19  1  1
 20 19  1  0
 21 20  2  0
 22 18  1  0
 23 22  1  0
 24 20  1  0
 25 22  2  0
M  END
$$$$
