QVD.pdb
     RDKit          3D

 25 24  0  0  1  0  0  0  0  0999 V2000
   15.4669  -12.8427  -16.2203 N   0  0  0  0  0  0  0  0  0  0  0  0
   16.0318  -13.0024  -17.5363 C   0  0  0  0  0  0  0  0  0  0  0  0
   15.3635  -13.7196  -18.3117 O   0  0  0  0  0  0  0  0  0  0  0  0
   17.3018  -12.3576  -17.8920 C   0  0  0  0  0  0  0  0  0  0  0  0
   17.9483  -11.5328  -16.8311 C   0  0  0  0  0  0  0  0  0  0  0  0
   19.3967  -11.8284  -16.7100 C   0  0  2  0  0  0  0  0  0  0  0  0
   19.6127  -13.1917  -16.3108 N   0  0  0  0  0  0  0  0  0  0  0  0
   20.0969  -10.9624  -15.7408 C   0  0  0  0  0  0  0  0  0  0  0  0
   19.7652  -10.9588  -14.5156 O   0  0  0  0  0  0  0  0  0  0  0  0
   24.0361   -9.6910  -16.3415 C   0  0  0  0  0  0  0  0  0  0  0  0
   23.2890   -9.6779  -15.0465 C   0  0  2  0  0  0  0  0  0  0  0  0
   23.3885  -11.0994  -14.4855 C   0  0  0  0  0  0  0  0  0  0  0  0
   21.8404   -9.2582  -15.1721 C   0  0  2  0  0  0  0  0  0  0  0  0
   21.1476  -10.1186  -16.1519 N   0  0  0  0  0  0  0  0  0  0  0  0
   21.6907   -7.8376  -15.5276 C   0  0  0  0  0  0  0  0  0  0  0  0
   21.8870   -7.3798  -16.6810 O   0  0  0  0  0  0  0  0  0  0  0  0
   21.2981   -6.8493  -14.5526 N   0  0  0  0  0  0  0  0  0  0  0  0
   21.2634   -5.4156  -14.9349 C   0  0  1  0  0  0  0  0  0  0  0  0
   19.9169   -4.8369  -14.6157 C   0  0  0  0  0  0  0  0  0  0  0  0
   18.9070   -5.3712  -15.5427 C   0  0  0  0  0  0  0  0  0  0  0  0
   19.0370   -5.2058  -16.8095 O   0  0  0  0  0  0  0  0  0  0  0  0
   22.2725   -4.7919  -14.0540 C   0  0  0  0  0  0  0  0  0  0  0  0
   22.6567   -3.4675  -14.1615 O   0  0  0  0  0  0  0  0  0  0  0  0
   17.7640   -6.0706  -15.1837 O   0  0  0  0  0  0  0  0  0  0  0  0
   22.8179   -5.4691  -13.1651 O   0  0  0  0  0  0  0  0  0  0  0  0
  1  2  1  0
  2  3  2  0
  4  2  1  0
  4  5  1  0
  6  5  1  0
  6  8  1  0
  6  7  1  1
  8  9  2  0
 11 10  1  6
 11 12  1  0
 11 13  1  0
 13 15  1  0
 13 14  1  6
 14  8  1  0
 15 17  1  0
 16 15  2  0
 17 18  1  0
 18 19  1  1
 20 19  1  0
 21 20  2  0
 22 18  1  0
 23 22  1  0
 24 20  1  0
 25 22  2  0
M  END
$$$$
