QVD.pdb
     RDKit          3D

 25 24  0  0  1  0  0  0  0  0999 V2000
   11.2555  -11.3668   -9.9327 N   0  0  0  0  0  0  0  0  0  0  0  0
   11.1879   -9.9334   -9.8017 C   0  0  0  0  0  0  0  0  0  0  0  0
   10.1056   -9.4231  -10.1628 O   0  0  0  0  0  0  0  0  0  0  0  0
   12.3312   -9.1716   -9.2842 C   0  0  0  0  0  0  0  0  0  0  0  0
   13.5459   -9.9582   -8.9246 C   0  0  0  0  0  0  0  0  0  0  0  0
   14.4999  -10.0464  -10.0568 C   0  0  2  0  0  0  0  0  0  0  0  0
   14.8929  -11.4079  -10.2944 N   0  0  0  0  0  0  0  0  0  0  0  0
   15.7296   -9.2547   -9.8555 C   0  0  0  0  0  0  0  0  0  0  0  0
   16.4901   -9.4774   -8.8641 O   0  0  0  0  0  0  0  0  0  0  0  0
   17.8762   -7.2949  -12.9222 C   0  0  0  0  0  0  0  0  0  0  0  0
   18.3209   -7.5797  -11.5234 C   0  0  2  0  0  0  0  0  0  0  0  0
   18.7912   -9.0370  -11.5168 C   0  0  0  0  0  0  0  0  0  0  0  0
   17.2486   -7.3642  -10.4773 C   0  0  2  0  0  0  0  0  0  0  0  0
   16.0875   -8.2326  -10.7568 N   0  0  0  0  0  0  0  0  0  0  0  0
   16.8336   -5.9558  -10.3728 C   0  0  0  0  0  0  0  0  0  0  0  0
   15.9736   -5.4220  -11.1171 O   0  0  0  0  0  0  0  0  0  0  0  0
   17.3988   -5.0701   -9.3841 N   0  0  0  0  0  0  0  0  0  0  0  0
   16.9428   -3.6593   -9.3173 C   0  0  1  0  0  0  0  0  0  0  0  0
   17.3202   -3.0653   -7.9927 C   0  0  0  0  0  0  0  0  0  0  0  0
   16.9864   -1.6326   -7.9702 C   0  0  0  0  0  0  0  0  0  0  0  0
   16.1812   -1.1403   -8.8409 O   0  0  0  0  0  0  0  0  0  0  0  0
   17.7186   -2.9879  -10.3806 C   0  0  0  0  0  0  0  0  0  0  0  0
   18.8280   -3.5547  -10.9815 O   0  0  0  0  0  0  0  0  0  0  0  0
   17.4722   -0.6995   -7.0659 O   0  0  0  0  0  0  0  0  0  0  0  0
   17.3784   -1.8576  -10.7719 O   0  0  0  0  0  0  0  0  0  0  0  0
  1  2  1  0
  2  3  2  0
  4  2  1  0
  4  5  1  0
  6  5  1  0
  6  8  1  0
  6  7  1  1
  8  9  2  0
 11 10  1  6
 11 12  1  0
 11 13  1  0
 13 15  1  0
 13 14  1  6
 14  8  1  0
 15 17  1  0
 16 15  2  0
 17 18  1  0
 18 19  1  1
 20 19  1  0
 21 20  2  0
 22 18  1  0
 23 22  1  0
 24 20  1  0
 25 22  2  0
M  END
$$$$
