QVD.pdb
     RDKit          3D

 25 24  0  0  1  0  0  0  0  0999 V2000
   14.0261   -8.4338   -9.5418 N   0  0  0  0  0  0  0  0  0  0  0  0
   13.5246   -9.0269  -10.7555 C   0  0  0  0  0  0  0  0  0  0  0  0
   12.3344   -9.4049  -10.7029 O   0  0  0  0  0  0  0  0  0  0  0  0
   14.3852   -9.1616  -11.9372 C   0  0  0  0  0  0  0  0  0  0  0  0
   15.7545   -8.5806  -11.8318 C   0  0  0  0  0  0  0  0  0  0  0  0
   16.7941   -9.6344  -11.7391 C   0  0  2  0  0  0  0  0  0  0  0  0
   16.6593  -10.3854  -10.5215 N   0  0  0  0  0  0  0  0  0  0  0  0
   18.1729   -9.1094  -11.7902 C   0  0  0  0  0  0  0  0  0  0  0  0
   18.7414   -8.6747  -10.7419 O   0  0  0  0  0  0  0  0  0  0  0  0
   22.6208   -8.9318  -13.7366 C   0  0  0  0  0  0  0  0  0  0  0  0
   21.2450   -9.4834  -13.5407 C   0  0  2  0  0  0  0  0  0  0  0  0
   20.8225  -10.0591  -14.8954 C   0  0  0  0  0  0  0  0  0  0  0  0
   20.2334   -8.4663  -13.0586 C   0  0  2  0  0  0  0  0  0  0  0  0
   18.8899   -9.0763  -13.0027 N   0  0  0  0  0  0  0  0  0  0  0  0
   20.2187   -7.2468  -13.8830 C   0  0  0  0  0  0  0  0  0  0  0  0
   19.8520   -7.2179  -15.0843 O   0  0  0  0  0  0  0  0  0  0  0  0
   20.6336   -5.9698  -13.3553 N   0  0  0  0  0  0  0  0  0  0  0  0
   20.5676   -4.7636  -14.2177 C   0  0  1  0  0  0  0  0  0  0  0  0
   20.2788   -3.5543  -13.3788 C   0  0  0  0  0  0  0  0  0  0  0  0
   20.2398   -2.3518  -14.2258 C   0  0  0  0  0  0  0  0  0  0  0  0
   19.3400   -2.2265  -15.1333 O   0  0  0  0  0  0  0  0  0  0  0  0
   21.9344   -4.6486  -14.7673 C   0  0  0  0  0  0  0  0  0  0  0  0
   22.1964   -4.2835  -16.0753 O   0  0  0  0  0  0  0  0  0  0  0  0
   21.1156   -1.2785  -14.1535 O   0  0  0  0  0  0  0  0  0  0  0  0
   22.9138   -4.8865  -14.0390 O   0  0  0  0  0  0  0  0  0  0  0  0
  1  2  1  0
  2  3  2  0
  4  2  1  0
  4  5  1  0
  6  5  1  0
  6  8  1  0
  6  7  1  1
  8  9  2  0
 11 10  1  6
 11 12  1  0
 11 13  1  0
 13 15  1  0
 13 14  1  6
 14  8  1  0
 15 17  1  0
 16 15  2  0
 17 18  1  0
 18 19  1  1
 20 19  1  0
 21 20  2  0
 22 18  1  0
 23 22  1  0
 24 20  1  0
 25 22  2  0
M  END
$$$$
