QVD.pdb
     RDKit          3D

 25 24  0  0  1  0  0  0  0  0999 V2000
   16.9172  -13.4422  -12.4706 N   0  0  0  0  0  0  0  0  0  0  0  0
   15.9072  -14.4326  -12.7453 C   0  0  0  0  0  0  0  0  0  0  0  0
   16.3161  -15.6138  -12.7474 O   0  0  0  0  0  0  0  0  0  0  0  0
   14.5172  -14.0367  -13.0032 C   0  0  0  0  0  0  0  0  0  0  0  0
   14.2194  -12.5770  -12.9397 C   0  0  0  0  0  0  0  0  0  0  0  0
   13.2035  -12.2669  -11.9045 C   0  0  2  0  0  0  0  0  0  0  0  0
   11.9014  -12.7212  -12.3082 N   0  0  0  0  0  0  0  0  0  0  0  0
   13.0981  -10.8276  -11.5933 C   0  0  0  0  0  0  0  0  0  0  0  0
   12.4431  -10.0461  -12.3491 O   0  0  0  0  0  0  0  0  0  0  0  0
   12.9596   -7.2429   -8.3002 C   0  0  0  0  0  0  0  0  0  0  0  0
   13.0247   -8.6665   -8.7525 C   0  0  2  0  0  0  0  0  0  0  0  0
   13.8851   -9.4002   -7.7197 C   0  0  0  0  0  0  0  0  0  0  0  0
   13.5948   -8.8486  -10.1424 C   0  0  2  0  0  0  0  0  0  0  0  0
   13.7231  -10.2867  -10.4522 N   0  0  0  0  0  0  0  0  0  0  0  0
   14.8833   -8.1596  -10.3214 C   0  0  0  0  0  0  0  0  0  0  0  0
   15.9929   -8.6556  -10.0032 O   0  0  0  0  0  0  0  0  0  0  0  0
   14.9627   -6.8356  -10.8888 N   0  0  0  0  0  0  0  0  0  0  0  0
   16.2823   -6.1667  -11.0076 C   0  0  1  0  0  0  0  0  0  0  0  0
   16.1965   -5.0460  -12.0009 C   0  0  0  0  0  0  0  0  0  0  0  0
   17.4747   -4.3190  -12.0510 C   0  0  0  0  0  0  0  0  0  0  0  0
   18.4667   -4.7959  -12.7122 O   0  0  0  0  0  0  0  0  0  0  0  0
   16.5107   -5.5974   -9.6634 C   0  0  0  0  0  0  0  0  0  0  0  0
   17.7415   -5.6150   -9.0326 O   0  0  0  0  0  0  0  0  0  0  0  0
   17.7463   -3.1098  -11.4279 O   0  0  0  0  0  0  0  0  0  0  0  0
   15.5668   -5.0713   -9.0481 O   0  0  0  0  0  0  0  0  0  0  0  0
  1  2  1  0
  2  3  2  0
  4  2  1  0
  4  5  1  0
  6  5  1  0
  6  8  1  0
  6  7  1  6
  8  9  2  0
 11 10  1  1
 11 12  1  0
 11 13  1  0
 13 15  1  0
 13 14  1  1
 14  8  1  0
 15 17  1  0
 16 15  2  0
 17 18  1  0
 18 19  1  6
 20 19  1  0
 21 20  2  0
 22 18  1  0
 23 22  1  0
 24 20  1  0
 25 22  2  0
M  END
$$$$
