QVD.pdb
     RDKit          3D

 25 24  0  0  1  0  0  0  0  0999 V2000
   17.6800  -11.2395  -13.2600 N   0  0  0  0  0  0  0  0  0  0  0  0
   16.7507  -12.2853  -13.6053 C   0  0  0  0  0  0  0  0  0  0  0  0
   17.0124  -13.4043  -13.1137 O   0  0  0  0  0  0  0  0  0  0  0  0
   15.6015  -12.0116  -14.4768 C   0  0  0  0  0  0  0  0  0  0  0  0
   14.7347  -10.8609  -14.0917 C   0  0  0  0  0  0  0  0  0  0  0  0
   14.0432  -11.1000  -12.8016 C   0  0  2  0  0  0  0  0  0  0  0  0
   12.9372  -12.0019  -12.9693 N   0  0  0  0  0  0  0  0  0  0  0  0
   13.5249   -9.8691  -12.1726 C   0  0  0  0  0  0  0  0  0  0  0  0
   12.5358   -9.2511  -12.6733 O   0  0  0  0  0  0  0  0  0  0  0  0
   13.9152   -9.1844   -8.0996 C   0  0  0  0  0  0  0  0  0  0  0  0
   12.9758   -8.4738   -9.0204 C   0  0  2  0  0  0  0  0  0  0  0  0
   11.7655   -9.3973   -9.1864 C   0  0  0  0  0  0  0  0  0  0  0  0
   13.5710   -8.1329  -10.3694 C   0  0  2  0  0  0  0  0  0  0  0  0
   14.1161   -9.3498  -11.0038 N   0  0  0  0  0  0  0  0  0  0  0  0
   14.5992   -7.0828  -10.2863 C   0  0  0  0  0  0  0  0  0  0  0  0
   15.7745   -7.2832   -9.8902 O   0  0  0  0  0  0  0  0  0  0  0  0
   14.3216   -5.7183  -10.6638 N   0  0  0  0  0  0  0  0  0  0  0  0
   15.4291   -4.7315  -10.7133 C   0  0  1  0  0  0  0  0  0  0  0  0
   15.2379   -3.8111  -11.8821 C   0  0  0  0  0  0  0  0  0  0  0  0
   16.2335   -2.7287  -11.8386 C   0  0  0  0  0  0  0  0  0  0  0  0
   17.2346   -2.7999  -11.0375 O   0  0  0  0  0  0  0  0  0  0  0  0
   15.2675   -3.9580   -9.4647 C   0  0  0  0  0  0  0  0  0  0  0  0
   14.2112   -4.1424   -8.5910 O   0  0  0  0  0  0  0  0  0  0  0  0
   16.2113   -1.5733  -12.6059 O   0  0  0  0  0  0  0  0  0  0  0  0
   16.1082   -3.0932   -9.1619 O   0  0  0  0  0  0  0  0  0  0  0  0
  1  2  1  0
  2  3  2  0
  4  2  1  0
  4  5  1  0
  6  5  1  0
  6  8  1  0
  6  7  1  6
  8  9  2  0
 11 10  1  1
 11 12  1  0
 11 13  1  0
 13 15  1  0
 13 14  1  1
 14  8  1  0
 15 17  1  0
 16 15  2  0
 17 18  1  0
 18 19  1  6
 20 19  1  0
 21 20  2  0
 22 18  1  0
 23 22  1  0
 24 20  1  0
 25 22  2  0
M  END
$$$$
