QVD.pdb
     RDKit          3D

 25 24  0  0  1  0  0  0  0  0999 V2000
   19.5524  -12.6801  -20.1164 N   0  0  0  0  0  0  0  0  0  0  0  0
   18.6146  -13.7505  -19.8899 C   0  0  0  0  0  0  0  0  0  0  0  0
   18.4365  -14.5089  -20.8673 O   0  0  0  0  0  0  0  0  0  0  0  0
   17.9390  -13.8959  -18.5946 C   0  0  0  0  0  0  0  0  0  0  0  0
   18.2450  -12.8608  -17.5657 C   0  0  0  0  0  0  0  0  0  0  0  0
   19.5267  -13.1360  -16.8720 C   0  0  2  0  0  0  0  0  0  0  0  0
   19.4427  -14.3409  -16.0935 N   0  0  0  0  0  0  0  0  0  0  0  0
   19.9544  -12.0492  -15.9690 C   0  0  0  0  0  0  0  0  0  0  0  0
   19.3703  -11.8605  -14.8580 O   0  0  0  0  0  0  0  0  0  0  0  0
   23.7087  -10.0162  -16.4349 C   0  0  0  0  0  0  0  0  0  0  0  0
   22.8798  -10.0689  -15.1917 C   0  0  2  0  0  0  0  0  0  0  0  0
   23.2967  -11.3470  -14.4584 C   0  0  0  0  0  0  0  0  0  0  0  0
   21.3873  -10.0650  -15.4425 C   0  0  2  0  0  0  0  0  0  0  0  0
   21.0187  -11.1947  -16.3188 N   0  0  0  0  0  0  0  0  0  0  0  0
   20.9106   -8.7911  -16.0054 C   0  0  0  0  0  0  0  0  0  0  0  0
   21.0435   -8.4649  -17.2114 O   0  0  0  0  0  0  0  0  0  0  0  0
   20.2410   -7.8058  -15.1915 N   0  0  0  0  0  0  0  0  0  0  0  0
   19.7926   -6.5307  -15.8044 C   0  0  1  0  0  0  0  0  0  0  0  0
   18.5975   -6.0046  -15.0662 C   0  0  0  0  0  0  0  0  0  0  0  0
   18.1691   -4.7238  -15.6500 C   0  0  0  0  0  0  0  0  0  0  0  0
   18.0815   -4.5885  -16.9239 O   0  0  0  0  0  0  0  0  0  0  0  0
   20.9312   -5.6149  -15.5846 C   0  0  0  0  0  0  0  0  0  0  0  0
   22.0051   -5.9238  -14.7695 O   0  0  0  0  0  0  0  0  0  0  0  0
   17.8324   -3.5801  -14.9408 O   0  0  0  0  0  0  0  0  0  0  0  0
   20.9487   -4.5065  -16.1481 O   0  0  0  0  0  0  0  0  0  0  0  0
  1  2  1  0
  2  3  2  0
  4  2  1  0
  4  5  1  0
  6  5  1  0
  6  8  1  0
  6  7  1  1
  8  9  2  0
 11 10  1  6
 11 12  1  0
 11 13  1  0
 13 15  1  0
 13 14  1  6
 14  8  1  0
 15 17  1  0
 16 15  2  0
 17 18  1  0
 18 19  1  1
 20 19  1  0
 21 20  2  0
 22 18  1  0
 23 22  1  0
 24 20  1  0
 25 22  2  0
M  END
$$$$
