QVD.pdb
     RDKit          3D

 25 24  0  0  1  0  0  0  0  0999 V2000
   17.0846  -10.1449  -20.4168 N   0  0  0  0  0  0  0  0  0  0  0  0
   16.5274  -10.8081  -19.2652 C   0  0  0  0  0  0  0  0  0  0  0  0
   15.2784  -10.8186  -19.2179 O   0  0  0  0  0  0  0  0  0  0  0  0
   17.4000  -11.4062  -18.2474 C   0  0  0  0  0  0  0  0  0  0  0  0
   18.8669  -11.2119  -18.4323 C   0  0  0  0  0  0  0  0  0  0  0  0
   19.6501  -11.8873  -17.3692 C   0  0  2  0  0  0  0  0  0  0  0  0
   18.9259  -13.0030  -16.8257 N   0  0  0  0  0  0  0  0  0  0  0  0
   20.0104  -10.9986  -16.2467 C   0  0  0  0  0  0  0  0  0  0  0  0
   19.2168  -10.8316  -15.2703 O   0  0  0  0  0  0  0  0  0  0  0  0
   24.0283   -9.9653  -15.3607 C   0  0  0  0  0  0  0  0  0  0  0  0
   22.8525   -9.8647  -14.4426 C   0  0  2  0  0  0  0  0  0  0  0  0
   22.6671  -11.2592  -13.8374 C   0  0  0  0  0  0  0  0  0  0  0  0
   21.5779   -9.4063  -15.1175 C   0  0  2  0  0  0  0  0  0  0  0  0
   21.2416  -10.3136  -16.2328 N   0  0  0  0  0  0  0  0  0  0  0  0
   21.6533   -8.0121  -15.5838 C   0  0  0  0  0  0  0  0  0  0  0  0
   22.1301   -7.6700  -16.6947 O   0  0  0  0  0  0  0  0  0  0  0  0
   21.1726   -6.9160  -14.7782 N   0  0  0  0  0  0  0  0  0  0  0  0
   21.3194   -5.5240  -15.2715 C   0  0  1  0  0  0  0  0  0  0  0  0
   19.9657   -4.9053  -15.4573 C   0  0  0  0  0  0  0  0  0  0  0  0
   20.1058   -3.5298  -15.9604 C   0  0  0  0  0  0  0  0  0  0  0  0
   20.6278   -3.3105  -17.1129 O   0  0  0  0  0  0  0  0  0  0  0  0
   22.0141   -4.8305  -14.1671 C   0  0  0  0  0  0  0  0  0  0  0  0
   22.6801   -3.6289  -14.3273 O   0  0  0  0  0  0  0  0  0  0  0  0
   19.7186   -2.3772  -15.2924 O   0  0  0  0  0  0  0  0  0  0  0  0
   22.0152   -5.3308  -13.0287 O   0  0  0  0  0  0  0  0  0  0  0  0
  1  2  1  0
  2  3  2  0
  4  2  1  0
  4  5  1  0
  6  5  1  0
  6  8  1  0
  6  7  1  1
  8  9  2  0
 11 10  1  6
 11 12  1  0
 11 13  1  0
 13 15  1  0
 13 14  1  6
 14  8  1  0
 15 17  1  0
 16 15  2  0
 17 18  1  0
 18 19  1  1
 20 19  1  0
 21 20  2  0
 22 18  1  0
 23 22  1  0
 24 20  1  0
 25 22  2  0
M  END
$$$$
