QVD.pdb
     RDKit          3D

 25 24  0  0  1  0  0  0  0  0999 V2000
   20.6856  -22.4962  -11.9293 N   0  0  0  0  0  0  0  0  0  0  0  0
   19.5785  -22.4389  -12.8498 C   0  0  0  0  0  0  0  0  0  0  0  0
   18.4737  -22.7641  -12.3642 O   0  0  0  0  0  0  0  0  0  0  0  0
   19.7820  -22.0296  -14.2450 C   0  0  0  0  0  0  0  0  0  0  0  0
   21.1670  -21.6281  -14.6245 C   0  0  0  0  0  0  0  0  0  0  0  0
   21.6383  -20.4637  -13.8359 C   0  0  2  0  0  0  0  0  0  0  0  0
   20.8909  -19.2816  -14.1658 N   0  0  0  0  0  0  0  0  0  0  0  0
   23.0690  -20.1574  -14.0330 C   0  0  0  0  0  0  0  0  0  0  0  0
   23.4457  -19.3917  -14.9726 O   0  0  0  0  0  0  0  0  0  0  0  0
   27.7531  -20.5090  -12.3249 C   0  0  0  0  0  0  0  0  0  0  0  0
   26.2837  -20.7436  -12.1792 C   0  0  2  0  0  0  0  0  0  0  0  0
   26.1264  -22.2161  -11.7891 C   0  0  0  0  0  0  0  0  0  0  0  0
   25.4816  -20.4372  -13.4254 C   0  0  2  0  0  0  0  0  0  0  0  0
   24.0502  -20.7086  -13.1852 N   0  0  0  0  0  0  0  0  0  0  0  0
   25.9619  -21.1760  -14.6046 C   0  0  0  0  0  0  0  0  0  0  0  0
   25.7398  -22.3962  -14.8048 O   0  0  0  0  0  0  0  0  0  0  0  0
   26.7389  -20.5341  -15.6369 N   0  0  0  0  0  0  0  0  0  0  0  0
   26.9938  -21.2473  -16.9132 C   0  0  1  0  0  0  0  0  0  0  0  0
   25.8797  -20.9738  -17.8795 C   0  0  0  0  0  0  0  0  0  0  0  0
   26.1197  -21.6925  -19.1408 C   0  0  0  0  0  0  0  0  0  0  0  0
   27.0979  -22.5183  -19.2409 O   0  0  0  0  0  0  0  0  0  0  0  0
   28.2326  -20.6241  -17.4234 C   0  0  0  0  0  0  0  0  0  0  0  0
   29.4308  -21.3053  -17.5393 O   0  0  0  0  0  0  0  0  0  0  0  0
   25.3686  -21.5707  -20.3007 O   0  0  0  0  0  0  0  0  0  0  0  0
   28.2241  -19.4305  -17.7719 O   0  0  0  0  0  0  0  0  0  0  0  0
  1  2  1  0
  2  3  2  0
  4  2  1  0
  4  5  1  0
  6  5  1  0
  6  8  1  0
  6  7  1  6
  8  9  2  0
 11 10  1  6
 11 12  1  0
 11 13  1  0
 13 15  1  0
 13 14  1  1
 14  8  1  0
 15 17  1  0
 16 15  2  0
 17 18  1  0
 18 19  1  6
 20 19  1  0
 21 20  2  0
 22 18  1  0
 23 22  1  0
 24 20  1  0
 25 22  2  0
M  END
$$$$
