WWH.pdb
     RDKit          3D

 39 43  0  0  1  0  0  0  0  0999 V2000
   23.3010  -20.4992  -19.2747 N   0  0  0  0  0  0  0  0  0  0  0  0
   21.9284  -20.5206  -19.6831 C   0  0  1  0  0  0  0  0  0  0  0  0
   21.4440  -21.8690  -20.1505 C   0  0  0  0  0  0  0  0  0  0  0  0
   21.9163  -22.2419  -21.4986 C   0  0  0  0  0  0  0  0  0  0  0  0
   23.1394  -22.7880  -21.8291 C   0  0  0  0  0  0  0  0  0  0  0  0
   23.2035  -22.9622  -23.1530 N   0  0  0  0  0  0  0  0  0  0  0  0
   22.0497  -22.5437  -23.7039 C   0  0  0  0  0  0  0  0  0  0  0  0
   21.5776  -22.4986  -24.9953 C   0  0  0  0  0  0  0  0  0  0  0  0
   20.3059  -22.0084  -25.2683 C   0  0  0  0  0  0  0  0  0  0  0  0
   19.4933  -21.5584  -24.2508 C   0  0  0  0  0  0  0  0  0  0  0  0
   19.9803  -21.6073  -22.9406 C   0  0  0  0  0  0  0  0  0  0  0  0
   21.2286  -22.0870  -22.6680 C   0  0  0  0  0  0  0  0  0  0  0  0
   21.0226  -19.8888  -18.6890 C   0  0  0  0  0  0  0  0  0  0  0  0
   21.2436  -20.0048  -17.4333 O   0  0  0  0  0  0  0  0  0  0  0  0
   19.9096  -19.1529  -19.1734 N   0  0  0  0  0  0  0  0  0  0  0  0
   18.9937  -18.5210  -18.2705 C   0  0  1  0  0  0  0  0  0  0  0  0
   18.4662  -17.2062  -18.8081 C   0  0  0  0  0  0  0  0  0  0  0  0
   19.5330  -16.2416  -19.1012 C   0  0  0  0  0  0  0  0  0  0  0  0
   20.3253  -15.6184  -18.1733 C   0  0  0  0  0  0  0  0  0  0  0  0
   21.1764  -14.8122  -18.8657 N   0  0  0  0  0  0  0  0  0  0  0  0
   20.9435  -14.9108  -20.1842 C   0  0  0  0  0  0  0  0  0  0  0  0
   21.4869  -14.3398  -21.3247 C   0  0  0  0  0  0  0  0  0  0  0  0
   21.0547  -14.6187  -22.5884 C   0  0  0  0  0  0  0  0  0  0  0  0
   20.0187  -15.5185  -22.7551 C   0  0  0  0  0  0  0  0  0  0  0  0
   19.4618  -16.0999  -21.6323 C   0  0  0  0  0  0  0  0  0  0  0  0
   19.9121  -15.8068  -20.3447 C   0  0  0  0  0  0  0  0  0  0  0  0
   17.8001  -19.3619  -17.9928 C   0  0  0  0  0  0  0  0  0  0  0  0
   17.1629  -19.8594  -18.9526 O   0  0  0  0  0  0  0  0  0  0  0  0
   17.3461  -19.6290  -16.6855 N   0  0  0  0  0  0  0  0  0  0  0  0
   16.1365  -20.4622  -16.4972 C   0  0  1  0  0  0  0  0  0  0  0  0
   16.4261  -21.4596  -15.4119 C   0  0  0  0  0  0  0  0  0  0  0  0
   17.3605  -22.5010  -15.8686 C   0  0  0  0  0  0  0  0  0  0  0  0
   17.2466  -23.1134  -17.1140 C   0  0  0  0  0  0  0  0  0  0  0  0
   18.2487  -24.0033  -17.2002 N   0  0  0  0  0  0  0  0  0  0  0  0
   18.9872  -23.9928  -16.0915 C   0  0  0  0  0  0  0  0  0  0  0  0
   18.4289  -23.0736  -15.2988 N   0  0  0  0  0  0  0  0  0  0  0  0
   15.0367  -19.5234  -16.0939 C   0  0  0  0  0  0  0  0  0  0  0  0
   13.9056  -20.0052  -15.8809 O   0  0  0  0  0  0  0  0  0  0  0  0
   15.2496  -18.1756  -15.9572 O   0  0  0  0  0  0  0  0  0  0  0  0
  2  1  1  1
  2  3  1  0
  3  4  1  0
  4  5  2  0
  5  6  1  0
  7  6  1  0
  8  7  2  0
  9  8  1  0
 10 11  1  0
 10  9  2  0
 11 12  2  0
 12  4  1  0
 12  7  1  0
 13  2  1  0
 14 13  2  0
 15 13  1  0
 16 15  1  0
 16 17  1  6
 18 26  1  0
 18 17  1  0
 19 18  2  0
 20 19  1  0
 20 21  1  0
 21 22  1  0
 21 26  2  0
 22 23  2  0
 23 24  1  0
 25 24  2  0
 26 25  1  0
 27 16  1  0
 28 27  2  0
 29 27  1  0
 30 29  1  0
 30 31  1  1
 32 31  1  0
 32 36  1  0
 33 34  1  0
 33 32  2  0
 34 35  1  0
 35 36  2  0
 37 30  1  0
 37 39  1  0
 38 37  2  0
M  END
$$$$
