WWH.pdb
     RDKit          3D

 39 43  0  0  1  0  0  0  0  0999 V2000
   28.2130  -21.5928  -13.9540 N   0  0  0  0  0  0  0  0  0  0  0  0
   27.3010  -20.7920  -13.1935 C   0  0  1  0  0  0  0  0  0  0  0  0
   26.0978  -20.3210  -13.9692 C   0  0  0  0  0  0  0  0  0  0  0  0
   26.4307  -19.5445  -15.1797 C   0  0  0  0  0  0  0  0  0  0  0  0
   26.6336  -20.0361  -16.4528 C   0  0  0  0  0  0  0  0  0  0  0  0
   26.9401  -19.0266  -17.2739 N   0  0  0  0  0  0  0  0  0  0  0  0
   26.9435  -17.8794  -16.5713 C   0  0  0  0  0  0  0  0  0  0  0  0
   27.1802  -16.5654  -16.9035 C   0  0  0  0  0  0  0  0  0  0  0  0
   27.1016  -15.5658  -15.9407 C   0  0  0  0  0  0  0  0  0  0  0  0
   26.7847  -15.8714  -14.6353 C   0  0  0  0  0  0  0  0  0  0  0  0
   26.5456  -17.2094  -14.3054 C   0  0  0  0  0  0  0  0  0  0  0  0
   26.6226  -18.1943  -15.2470 C   0  0  0  0  0  0  0  0  0  0  0  0
   26.9481  -21.4058  -11.8872 C   0  0  0  0  0  0  0  0  0  0  0  0
   26.8294  -22.6751  -11.7693 O   0  0  0  0  0  0  0  0  0  0  0  0
   26.7499  -20.5440  -10.7767 N   0  0  0  0  0  0  0  0  0  0  0  0
   25.9122  -20.9333   -9.6811 C   0  0  1  0  0  0  0  0  0  0  0  0
   26.0408  -19.9996   -8.4948 C   0  0  0  0  0  0  0  0  0  0  0  0
   27.3960  -19.9779   -7.9313 C   0  0  0  0  0  0  0  0  0  0  0  0
   28.5586  -19.8670   -8.6476 C   0  0  0  0  0  0  0  0  0  0  0  0
   29.5768  -19.8872   -7.7438 N   0  0  0  0  0  0  0  0  0  0  0  0
   29.0922  -20.0061   -6.4975 C   0  0  0  0  0  0  0  0  0  0  0  0
   29.6466  -20.0764   -5.2288 C   0  0  0  0  0  0  0  0  0  0  0  0
   28.9087  -20.1992   -4.0878 C   0  0  0  0  0  0  0  0  0  0  0  0
   27.5313  -20.2578   -4.1879 C   0  0  0  0  0  0  0  0  0  0  0  0
   26.9568  -20.1895   -5.4426 C   0  0  0  0  0  0  0  0  0  0  0  0
   27.7218  -20.0641   -6.6026 C   0  0  0  0  0  0  0  0  0  0  0  0
   24.4711  -20.9426  -10.0446 C   0  0  0  0  0  0  0  0  0  0  0  0
   23.6144  -21.1556   -9.1526 O   0  0  0  0  0  0  0  0  0  0  0  0
   24.0177  -20.7206  -11.3605 N   0  0  0  0  0  0  0  0  0  0  0  0
   22.6766  -20.1296  -11.5723 C   0  0  1  0  0  0  0  0  0  0  0  0
   22.8024  -19.0597  -12.6190 C   0  0  0  0  0  0  0  0  0  0  0  0
   21.5092  -18.4106  -12.8883 C   0  0  0  0  0  0  0  0  0  0  0  0
   20.3242  -18.8276  -12.2877 C   0  0  0  0  0  0  0  0  0  0  0  0
   19.3519  -18.0272  -12.7541 N   0  0  0  0  0  0  0  0  0  0  0  0
   19.8453  -17.1328  -13.6093 C   0  0  0  0  0  0  0  0  0  0  0  0
   21.1557  -17.3853  -13.6743 N   0  0  0  0  0  0  0  0  0  0  0  0
   21.7923  -21.2484  -12.0415 C   0  0  0  0  0  0  0  0  0  0  0  0
   22.2555  -22.0468  -12.8811 O   0  0  0  0  0  0  0  0  0  0  0  0
   20.5132  -21.4051  -11.5725 O   0  0  0  0  0  0  0  0  0  0  0  0
  2  1  1  6
  2  3  1  0
  3  4  1  0
  4  5  2  0
  5  6  1  0
  7  6  1  0
  8  7  2  0
  9  8  1  0
 10 11  1  0
 10  9  2  0
 11 12  2  0
 12  4  1  0
 12  7  1  0
 13  2  1  0
 14 13  2  0
 15 13  1  0
 16 15  1  0
 16 17  1  1
 18 26  1  0
 18 17  1  0
 19 18  2  0
 20 19  1  0
 20 21  1  0
 21 22  1  0
 21 26  2  0
 22 23  2  0
 23 24  1  0
 25 24  2  0
 26 25  1  0
 27 16  1  0
 28 27  2  0
 29 27  1  0
 30 29  1  0
 30 31  1  6
 32 31  1  0
 32 36  1  0
 33 34  1  0
 33 32  2  0
 34 35  1  0
 35 36  2  0
 37 30  1  0
 37 39  1  0
 38 37  2  0
M  END
$$$$
