WWH.pdb
     RDKit          3D

 39 43  0  0  1  0  0  0  0  0999 V2000
   28.0428  -21.3292  -15.2620 N   0  0  0  0  0  0  0  0  0  0  0  0
   27.3165  -20.5255  -14.3251 C   0  0  1  0  0  0  0  0  0  0  0  0
   26.1493  -19.7828  -14.9228 C   0  0  0  0  0  0  0  0  0  0  0  0
   26.5177  -18.8757  -16.0277 C   0  0  0  0  0  0  0  0  0  0  0  0
   26.3780  -19.1131  -17.3796 C   0  0  0  0  0  0  0  0  0  0  0  0
   26.8473  -18.0650  -18.0641 N   0  0  0  0  0  0  0  0  0  0  0  0
   27.2931  -17.1408  -17.1942 C   0  0  0  0  0  0  0  0  0  0  0  0
   27.8581  -15.8950  -17.3418 C   0  0  0  0  0  0  0  0  0  0  0  0
   28.2205  -15.1449  -16.2290 C   0  0  0  0  0  0  0  0  0  0  0  0
   28.0208  -15.6343  -14.9568 C   0  0  0  0  0  0  0  0  0  0  0  0
   27.4461  -16.9015  -14.8149 C   0  0  0  0  0  0  0  0  0  0  0  0
   27.0896  -17.6419  -15.9045 C   0  0  0  0  0  0  0  0  0  0  0  0
   26.9633  -21.2647  -13.0854 C   0  0  0  0  0  0  0  0  0  0  0  0
   26.2882  -22.3512  -13.1392 O   0  0  0  0  0  0  0  0  0  0  0  0
   27.3986  -20.7319  -11.8438 N   0  0  0  0  0  0  0  0  0  0  0  0
   26.5449  -20.7508  -10.6930 C   0  0  1  0  0  0  0  0  0  0  0  0
   27.0490  -19.8495   -9.5842 C   0  0  0  0  0  0  0  0  0  0  0  0
   26.5552  -20.2451   -8.2598 C   0  0  0  0  0  0  0  0  0  0  0  0
   25.3535  -20.8505   -8.0019 C   0  0  0  0  0  0  0  0  0  0  0  0
   25.2943  -21.0417   -6.6551 N   0  0  0  0  0  0  0  0  0  0  0  0
   26.4101  -20.5794   -6.0687 C   0  0  0  0  0  0  0  0  0  0  0  0
   26.8817  -20.5118   -4.7668 C   0  0  0  0  0  0  0  0  0  0  0  0
   28.0897  -19.9758   -4.4280 C   0  0  0  0  0  0  0  0  0  0  0  0
   28.8980  -19.4687   -5.4281 C   0  0  0  0  0  0  0  0  0  0  0  0
   28.4483  -19.5255   -6.7332 C   0  0  0  0  0  0  0  0  0  0  0  0
   27.2107  -20.0760   -7.0677 C   0  0  0  0  0  0  0  0  0  0  0  0
   25.1655  -20.2922  -11.0026 C   0  0  0  0  0  0  0  0  0  0  0  0
   24.9964  -19.3870  -11.8552 O   0  0  0  0  0  0  0  0  0  0  0  0
   24.0256  -20.8339  -10.3751 N   0  0  0  0  0  0  0  0  0  0  0  0
   22.7115  -20.7288  -11.0494 C   0  0  1  0  0  0  0  0  0  0  0  0
   22.6719  -21.7525  -12.1479 C   0  0  0  0  0  0  0  0  0  0  0  0
   22.5649  -21.1211  -13.4731 C   0  0  0  0  0  0  0  0  0  0  0  0
   22.4510  -19.7431  -13.6375 C   0  0  0  0  0  0  0  0  0  0  0  0
   22.3738  -19.5165  -14.9589 N   0  0  0  0  0  0  0  0  0  0  0  0
   22.4315  -20.6605  -15.6390 C   0  0  0  0  0  0  0  0  0  0  0  0
   22.5473  -21.6196  -14.7162 N   0  0  0  0  0  0  0  0  0  0  0  0
   21.6758  -21.0154  -10.0011 C   0  0  0  0  0  0  0  0  0  0  0  0
   20.8084  -20.1454   -9.7830 O   0  0  0  0  0  0  0  0  0  0  0  0
   21.6661  -22.1916   -9.2959 O   0  0  0  0  0  0  0  0  0  0  0  0
  2  1  1  6
  2  3  1  0
  3  4  1  0
  4  5  2  0
  5  6  1  0
  7  6  1  0
  8  7  2  0
  9  8  1  0
 10 11  1  0
 10  9  2  0
 11 12  2  0
 12  4  1  0
 12  7  1  0
 13  2  1  0
 14 13  2  0
 15 13  1  0
 16 15  1  0
 16 17  1  1
 18 26  1  0
 18 17  1  0
 19 18  2  0
 20 19  1  0
 20 21  1  0
 21 22  1  0
 21 26  2  0
 22 23  2  0
 23 24  1  0
 25 24  2  0
 26 25  1  0
 27 16  1  0
 28 27  2  0
 29 27  1  0
 30 29  1  0
 30 31  1  6
 32 31  1  0
 32 36  1  0
 33 34  1  0
 33 32  2  0
 34 35  1  0
 35 36  2  0
 37 30  1  0
 37 39  1  0
 38 37  2  0
M  END
$$$$
