WWH.pdb
     RDKit          3D

 39 43  0  0  1  0  0  0  0  0999 V2000
   28.5014  -20.8439  -14.0437 N   0  0  0  0  0  0  0  0  0  0  0  0
   27.4051  -20.2759  -13.3180 C   0  0  1  0  0  0  0  0  0  0  0  0
   26.2256  -19.8980  -14.1768 C   0  0  0  0  0  0  0  0  0  0  0  0
   26.5723  -19.0435  -15.3296 C   0  0  0  0  0  0  0  0  0  0  0  0
   26.6439  -19.4234  -16.6540 C   0  0  0  0  0  0  0  0  0  0  0  0
   27.0132  -18.3747  -17.3963 N   0  0  0  0  0  0  0  0  0  0  0  0
   27.1865  -17.3107  -16.5916 C   0  0  0  0  0  0  0  0  0  0  0  0
   27.5494  -16.0026  -16.8150 C   0  0  0  0  0  0  0  0  0  0  0  0
   27.6398  -15.1022  -15.7599 C   0  0  0  0  0  0  0  0  0  0  0  0
   27.3675  -15.5021  -14.4700 C   0  0  0  0  0  0  0  0  0  0  0  0
   26.9994  -16.8335  -14.2508 C   0  0  0  0  0  0  0  0  0  0  0  0
   26.9102  -17.7213  -15.2835 C   0  0  0  0  0  0  0  0  0  0  0  0
   27.0249  -21.0800  -12.1277 C   0  0  0  0  0  0  0  0  0  0  0  0
   26.7360  -22.3222  -12.2400 O   0  0  0  0  0  0  0  0  0  0  0  0
   26.9947  -20.4307  -10.8657 N   0  0  0  0  0  0  0  0  0  0  0  0
   25.9652  -20.7200   -9.9118 C   0  0  1  0  0  0  0  0  0  0  0  0
   26.2526  -20.1188   -8.5509 C   0  0  0  0  0  0  0  0  0  0  0  0
   27.5578  -20.5223   -8.0141 C   0  0  0  0  0  0  0  0  0  0  0  0
   28.4612  -21.3415   -8.6385 C   0  0  0  0  0  0  0  0  0  0  0  0
   29.5287  -21.4548   -7.8010 N   0  0  0  0  0  0  0  0  0  0  0  0
   29.3231  -20.7394   -6.6837 C   0  0  0  0  0  0  0  0  0  0  0  0
   30.0447  -20.4945   -5.5256 C   0  0  0  0  0  0  0  0  0  0  0  0
   29.5954  -19.7036   -4.5087 C   0  0  0  0  0  0  0  0  0  0  0  0
   28.3539  -19.1073   -4.6268 C   0  0  0  0  0  0  0  0  0  0  0  0
   27.6170  -19.3374   -5.7727 C   0  0  0  0  0  0  0  0  0  0  0  0
   28.0870  -20.1484   -6.8061 C   0  0  0  0  0  0  0  0  0  0  0  0
   24.6414  -20.1872  -10.3270 C   0  0  0  0  0  0  0  0  0  0  0  0
   24.5876  -19.2944  -11.2073 O   0  0  0  0  0  0  0  0  0  0  0  0
   23.4297  -20.6443   -9.7708 N   0  0  0  0  0  0  0  0  0  0  0  0
   22.2962  -20.9601  -10.6697 C   0  0  1  0  0  0  0  0  0  0  0  0
   22.7511  -22.0182  -11.6340 C   0  0  0  0  0  0  0  0  0  0  0  0
   22.4008  -21.6734  -13.0213 C   0  0  0  0  0  0  0  0  0  0  0  0
   22.5238  -20.3808  -13.5241 C   0  0  0  0  0  0  0  0  0  0  0  0
   22.1212  -20.4241  -14.8045 N   0  0  0  0  0  0  0  0  0  0  0  0
   21.7524  -21.6588  -15.1427 C   0  0  0  0  0  0  0  0  0  0  0  0
   21.9309  -22.3986  -14.0447 N   0  0  0  0  0  0  0  0  0  0  0  0
   21.1891  -21.4652   -9.7905 C   0  0  0  0  0  0  0  0  0  0  0  0
   20.0354  -21.0387  -10.0000 O   0  0  0  0  0  0  0  0  0  0  0  0
   21.4189  -22.3683   -8.7844 O   0  0  0  0  0  0  0  0  0  0  0  0
  2  1  1  6
  2  3  1  0
  3  4  1  0
  4  5  2  0
  5  6  1  0
  7  6  1  0
  8  7  2  0
  9  8  1  0
 10 11  1  0
 10  9  2  0
 11 12  2  0
 12  4  1  0
 12  7  1  0
 13  2  1  0
 14 13  2  0
 15 13  1  0
 16 15  1  0
 16 17  1  1
 18 26  1  0
 18 17  1  0
 19 18  2  0
 20 19  1  0
 20 21  1  0
 21 22  1  0
 21 26  2  0
 22 23  2  0
 23 24  1  0
 25 24  2  0
 26 25  1  0
 27 16  1  0
 28 27  2  0
 29 27  1  0
 30 29  1  0
 30 31  1  6
 32 31  1  0
 32 36  1  0
 33 34  1  0
 33 32  2  0
 34 35  1  0
 35 36  2  0
 37 30  1  0
 37 39  1  0
 38 37  2  0
M  END
$$$$
