WWH.pdb
     RDKit          3D

 39 43  0  0  1  0  0  0  0  0999 V2000
   24.9772  -20.4235  -13.8337 N   0  0  0  0  0  0  0  0  0  0  0  0
   23.9197  -20.3563  -12.8703 C   0  0  1  0  0  0  0  0  0  0  0  0
   22.5530  -20.6535  -13.4316 C   0  0  0  0  0  0  0  0  0  0  0  0
   22.1190  -19.7130  -14.4835 C   0  0  0  0  0  0  0  0  0  0  0  0
   22.5360  -19.6868  -15.7984 C   0  0  0  0  0  0  0  0  0  0  0  0
   21.9369  -18.6741  -16.4330 N   0  0  0  0  0  0  0  0  0  0  0  0
   21.1333  -18.0314  -15.5664 C   0  0  0  0  0  0  0  0  0  0  0  0
   20.2936  -16.9472  -15.6778 C   0  0  0  0  0  0  0  0  0  0  0  0
   19.5620  -16.5020  -14.5830 C   0  0  0  0  0  0  0  0  0  0  0  0
   19.6632  -17.1380  -13.3651 C   0  0  0  0  0  0  0  0  0  0  0  0
   20.5189  -18.2392  -13.2597 C   0  0  0  0  0  0  0  0  0  0  0  0
   21.2399  -18.6793  -14.3316 C   0  0  0  0  0  0  0  0  0  0  0  0
   24.2198  -21.1216  -11.6324 C   0  0  0  0  0  0  0  0  0  0  0  0
   24.4189  -22.3856  -11.6745 O   0  0  0  0  0  0  0  0  0  0  0  0
   24.2814  -20.4094  -10.4060 N   0  0  0  0  0  0  0  0  0  0  0  0
   24.1240  -21.0849   -9.1520 C   0  0  1  0  0  0  0  0  0  0  0  0
   24.9998  -20.4966   -8.0645 C   0  0  0  0  0  0  0  0  0  0  0  0
   26.4289  -20.7478   -8.2860 C   0  0  0  0  0  0  0  0  0  0  0  0
   26.9704  -21.3857   -9.3708 C   0  0  0  0  0  0  0  0  0  0  0  0
   28.3183  -21.4048   -9.1792 N   0  0  0  0  0  0  0  0  0  0  0  0
   28.6334  -20.8048   -8.0202 C   0  0  0  0  0  0  0  0  0  0  0  0
   29.8105  -20.5413   -7.3370 C   0  0  0  0  0  0  0  0  0  0  0  0
   29.8585  -19.8943   -6.1367 C   0  0  0  0  0  0  0  0  0  0  0  0
   28.6755  -19.4729   -5.5589 C   0  0  0  0  0  0  0  0  0  0  0  0
   27.4901  -19.7248   -6.2223 C   0  0  0  0  0  0  0  0  0  0  0  0
   27.4534  -20.3875   -7.4495 C   0  0  0  0  0  0  0  0  0  0  0  0
   22.7298  -21.0155   -8.6417 C   0  0  0  0  0  0  0  0  0  0  0  0
   21.9706  -20.1043   -9.0519 O   0  0  0  0  0  0  0  0  0  0  0  0
   22.2157  -21.9371   -7.7074 N   0  0  0  0  0  0  0  0  0  0  0  0
   20.8467  -22.4691   -7.8960 C   0  0  1  0  0  0  0  0  0  0  0  0
   20.9026  -23.5216   -8.9662 C   0  0  0  0  0  0  0  0  0  0  0  0
   19.9174  -23.2660  -10.0292 C   0  0  0  0  0  0  0  0  0  0  0  0
   19.0403  -22.1851   -9.9914 C   0  0  0  0  0  0  0  0  0  0  0  0
   18.2907  -22.2564  -11.1033 N   0  0  0  0  0  0  0  0  0  0  0  0
   18.6369  -23.3108  -11.8402 C   0  0  0  0  0  0  0  0  0  0  0  0
   19.6255  -23.9076  -11.1682 N   0  0  0  0  0  0  0  0  0  0  0  0
   20.4373  -23.0563   -6.5764 C   0  0  0  0  0  0  0  0  0  0  0  0
   21.3291  -23.5391   -5.8494 O   0  0  0  0  0  0  0  0  0  0  0  0
   19.1292  -23.0695   -6.1649 O   0  0  0  0  0  0  0  0  0  0  0  0
  2  1  1  6
  2  3  1  0
  3  4  1  0
  4  5  2  0
  5  6  1  0
  7  6  1  0
  8  7  2  0
  9  8  1  0
 10 11  1  0
 10  9  2  0
 11 12  2  0
 12  4  1  0
 12  7  1  0
 13  2  1  0
 14 13  2  0
 15 13  1  0
 16 15  1  0
 16 17  1  1
 18 26  1  0
 18 17  1  0
 19 18  2  0
 20 19  1  0
 20 21  1  0
 21 22  1  0
 21 26  2  0
 22 23  2  0
 23 24  1  0
 25 24  2  0
 26 25  1  0
 27 16  1  0
 28 27  2  0
 29 27  1  0
 30 29  1  0
 30 31  1  6
 32 31  1  0
 32 36  1  0
 33 34  1  0
 33 32  2  0
 34 35  1  0
 35 36  2  0
 37 30  1  0
 37 39  1  0
 38 37  2  0
M  END
$$$$
