WWH.pdb
     RDKit          3D

 39 43  0  0  1  0  0  0  0  0999 V2000
   15.4252  -15.8755    5.9254 N   0  0  0  0  0  0  0  0  0  0  0  0
   16.6891  -16.3931    5.4944 C   0  0  1  0  0  0  0  0  0  0  0  0
   17.8776  -15.7748    6.1846 C   0  0  0  0  0  0  0  0  0  0  0  0
   18.2429  -14.4401    5.6701 C   0  0  0  0  0  0  0  0  0  0  0  0
   17.4505  -13.5912    4.9252 C   0  0  0  0  0  0  0  0  0  0  0  0
   18.1423  -12.4867    4.6277 N   0  0  0  0  0  0  0  0  0  0  0  0
   19.3737  -12.5872    5.1601 C   0  0  0  0  0  0  0  0  0  0  0  0
   20.4720  -11.7587    5.1711 C   0  0  0  0  0  0  0  0  0  0  0  0
   21.6373  -12.1355    5.8286 C   0  0  0  0  0  0  0  0  0  0  0  0
   21.7150  -13.3457    6.4823 C   0  0  0  0  0  0  0  0  0  0  0  0
   20.5944  -14.1825    6.4665 C   0  0  0  0  0  0  0  0  0  0  0  0
   19.4485  -13.8172    5.8215 C   0  0  0  0  0  0  0  0  0  0  0  0
   16.7292  -17.8783    5.4842 C   0  0  0  0  0  0  0  0  0  0  0  0
   16.1988  -18.5555    6.4326 O   0  0  0  0  0  0  0  0  0  0  0  0
   17.3694  -18.5213    4.3925 N   0  0  0  0  0  0  0  0  0  0  0  0
   17.5156  -19.9464    4.3583 C   0  0  1  0  0  0  0  0  0  0  0  0
   18.0397  -20.4420    3.0258 C   0  0  0  0  0  0  0  0  0  0  0  0
   17.8761  -21.8903    2.8524 C   0  0  0  0  0  0  0  0  0  0  0  0
   16.6835  -22.5645    2.8364 C   0  0  0  0  0  0  0  0  0  0  0  0
   16.9819  -23.8802    2.6525 N   0  0  0  0  0  0  0  0  0  0  0  0
   18.3103  -24.0481    2.5540 C   0  0  0  0  0  0  0  0  0  0  0  0
   19.1537  -25.1324    2.3674 C   0  0  0  0  0  0  0  0  0  0  0  0
   20.5126  -25.0296    2.3012 C   0  0  0  0  0  0  0  0  0  0  0  0
   21.0934  -23.7814    2.4254 C   0  0  0  0  0  0  0  0  0  0  0  0
   20.2720  -22.6863    2.6120 C   0  0  0  0  0  0  0  0  0  0  0  0
   18.8833  -22.8037    2.6782 C   0  0  0  0  0  0  0  0  0  0  0  0
   18.4664  -20.4438    5.3866 C   0  0  0  0  0  0  0  0  0  0  0  0
   19.6391  -19.9974    5.4054 O   0  0  0  0  0  0  0  0  0  0  0  0
   18.1068  -21.4052    6.3525 N   0  0  0  0  0  0  0  0  0  0  0  0
   19.1414  -21.9216    7.2775 C   0  0  1  0  0  0  0  0  0  0  0  0
   18.7618  -21.5117    8.6718 C   0  0  0  0  0  0  0  0  0  0  0  0
   19.5769  -20.3812    9.1448 C   0  0  0  0  0  0  0  0  0  0  0  0
   20.6680  -19.8953    8.4291 C   0  0  0  0  0  0  0  0  0  0  0  0
   21.1750  -18.8762    9.1418 N   0  0  0  0  0  0  0  0  0  0  0  0
   20.4758  -18.6871   10.2598 C   0  0  0  0  0  0  0  0  0  0  0  0
   19.5118  -19.6118   10.2393 N   0  0  0  0  0  0  0  0  0  0  0  0
   19.1324  -23.4154    7.1282 C   0  0  0  0  0  0  0  0  0  0  0  0
   18.0922  -23.9536    6.6978 O   0  0  0  0  0  0  0  0  0  0  0  0
   20.2241  -24.1812    7.4483 O   0  0  0  0  0  0  0  0  0  0  0  0
  2  1  1  1
  2  3  1  0
  3  4  1  0
  4  5  2  0
  5  6  1  0
  7  6  1  0
  8  7  2  0
  9  8  1  0
 10 11  1  0
 10  9  2  0
 11 12  2  0
 12  4  1  0
 12  7  1  0
 13  2  1  0
 14 13  2  0
 15 13  1  0
 16 15  1  0
 16 17  1  6
 18 26  1  0
 18 17  1  0
 19 18  2  0
 20 19  1  0
 20 21  1  0
 21 22  1  0
 21 26  2  0
 22 23  2  0
 23 24  1  0
 25 24  2  0
 26 25  1  0
 27 16  1  0
 28 27  2  0
 29 27  1  0
 30 29  1  0
 30 31  1  1
 32 31  1  0
 32 36  1  0
 33 34  1  0
 33 32  2  0
 34 35  1  0
 35 36  2  0
 37 30  1  0
 37 39  1  0
 38 37  2  0
M  END
$$$$
