WWH.pdb
     RDKit          3D

 39 43  0  0  1  0  0  0  0  0999 V2000
   28.9585  -19.6460  -14.6238 N   0  0  0  0  0  0  0  0  0  0  0  0
   27.6747  -20.0623  -15.1028 C   0  0  1  0  0  0  0  0  0  0  0  0
   27.7010  -20.6941  -16.4708 C   0  0  0  0  0  0  0  0  0  0  0  0
   28.3629  -19.8686  -17.5002 C   0  0  0  0  0  0  0  0  0  0  0  0
   29.5013  -20.1839  -18.2129 C   0  0  0  0  0  0  0  0  0  0  0  0
   29.8043  -19.1731  -19.0337 N   0  0  0  0  0  0  0  0  0  0  0  0
   28.8908  -18.1977  -18.8793 C   0  0  0  0  0  0  0  0  0  0  0  0
   28.7141  -16.9638  -19.4616 C   0  0  0  0  0  0  0  0  0  0  0  0
   27.6434  -16.1553  -19.0981 C   0  0  0  0  0  0  0  0  0  0  0  0
   26.7382  -16.5740  -18.1477 C   0  0  0  0  0  0  0  0  0  0  0  0
   26.9246  -17.8295  -17.5601 C   0  0  0  0  0  0  0  0  0  0  0  0
   27.9748  -18.6263  -17.9132 C   0  0  0  0  0  0  0  0  0  0  0  0
   26.9210  -20.8649  -14.1050 C   0  0  0  0  0  0  0  0  0  0  0  0
   27.3102  -22.0403  -13.7794 O   0  0  0  0  0  0  0  0  0  0  0  0
   25.7612  -20.2886  -13.5237 N   0  0  0  0  0  0  0  0  0  0  0  0
   24.8737  -21.0721  -12.7162 C   0  0  1  0  0  0  0  0  0  0  0  0
   24.5039  -20.3766  -11.4218 C   0  0  0  0  0  0  0  0  0  0  0  0
   25.6635  -19.7911  -10.7384 C   0  0  0  0  0  0  0  0  0  0  0  0
   26.2365  -18.5810  -11.0289 C   0  0  0  0  0  0  0  0  0  0  0  0
   27.2763  -18.4243  -10.1640 N   0  0  0  0  0  0  0  0  0  0  0  0
   27.3706  -19.4878   -9.3500 C   0  0  0  0  0  0  0  0  0  0  0  0
   28.2096  -19.8603   -8.3112 C   0  0  0  0  0  0  0  0  0  0  0  0
   28.0871  -21.0331   -7.6249 C   0  0  0  0  0  0  0  0  0  0  0  0
   27.0748  -21.9072   -7.9744 C   0  0  0  0  0  0  0  0  0  0  0  0
   26.2265  -21.5565   -9.0069 C   0  0  0  0  0  0  0  0  0  0  0  0
   26.3616  -20.3542   -9.7017 C   0  0  0  0  0  0  0  0  0  0  0  0
   23.5912  -21.3681  -13.4066 C   0  0  0  0  0  0  0  0  0  0  0  0
   22.9743  -20.4383  -13.9808 O   0  0  0  0  0  0  0  0  0  0  0  0
   23.0301  -22.6604  -13.4461 N   0  0  0  0  0  0  0  0  0  0  0  0
   21.6003  -22.8376  -13.1037 C   0  0  1  0  0  0  0  0  0  0  0  0
   21.4976  -22.9953  -11.6134 C   0  0  0  0  0  0  0  0  0  0  0  0
   20.1069  -23.2199  -11.1872 C   0  0  0  0  0  0  0  0  0  0  0  0
   19.3773  -24.3402  -11.5766 C   0  0  0  0  0  0  0  0  0  0  0  0
   18.1626  -24.2247  -11.0158 N   0  0  0  0  0  0  0  0  0  0  0  0
   18.0776  -23.1055  -10.2983 C   0  0  0  0  0  0  0  0  0  0  0  0
   19.2691  -22.5130  -10.4175 N   0  0  0  0  0  0  0  0  0  0  0  0
   20.8984  -21.5948  -13.5689 C   0  0  0  0  0  0  0  0  0  0  0  0
   20.9725  -20.5777  -12.8499 O   0  0  0  0  0  0  0  0  0  0  0  0
   20.1940  -21.5588  -14.7450 O   0  0  0  0  0  0  0  0  0  0  0  0
  2  1  1  1
  2  3  1  0
  3  4  1  0
  4  5  2  0
  5  6  1  0
  7  6  1  0
  8  7  2  0
  9  8  1  0
 10 11  1  0
 10  9  2  0
 11 12  2  0
 12  4  1  0
 12  7  1  0
 13  2  1  0
 14 13  2  0
 15 13  1  0
 16 15  1  0
 16 17  1  1
 18 26  1  0
 18 17  1  0
 19 18  2  0
 20 19  1  0
 20 21  1  0
 21 22  1  0
 21 26  2  0
 22 23  2  0
 23 24  1  0
 25 24  2  0
 26 25  1  0
 27 16  1  0
 28 27  2  0
 29 27  1  0
 30 29  1  0
 30 31  1  1
 32 31  1  0
 32 36  1  0
 33 34  1  0
 33 32  2  0
 34 35  1  0
 35 36  2  0
 37 30  1  0
 37 39  1  0
 38 37  2  0
M  END
$$$$
