WWH.pdb
     RDKit          3D

 39 43  0  0  1  0  0  0  0  0999 V2000
   15.4900  -15.9498    5.8913 N   0  0  0  0  0  0  0  0  0  0  0  0
   16.7339  -16.6211    5.6604 C   0  0  1  0  0  0  0  0  0  0  0  0
   17.8903  -16.0688    6.4535 C   0  0  0  0  0  0  0  0  0  0  0  0
   18.2465  -14.6789    6.1063 C   0  0  0  0  0  0  0  0  0  0  0  0
   17.7608  -13.9355    5.0504 C   0  0  0  0  0  0  0  0  0  0  0  0
   18.3401  -12.7307    5.0533 N   0  0  0  0  0  0  0  0  0  0  0  0
   19.1970  -12.6618    6.0881 C   0  0  0  0  0  0  0  0  0  0  0  0
   20.0352  -11.6785    6.5607 C   0  0  0  0  0  0  0  0  0  0  0  0
   20.8184  -11.8965    7.6882 C   0  0  0  0  0  0  0  0  0  0  0  0
   20.7704  -13.1013    8.3545 C   0  0  0  0  0  0  0  0  0  0  0  0
   19.9161  -14.0961    7.8679 C   0  0  0  0  0  0  0  0  0  0  0  0
   19.1460  -13.8869    6.7608 C   0  0  0  0  0  0  0  0  0  0  0  0
   16.6161  -18.0992    5.7549 C   0  0  0  0  0  0  0  0  0  0  0  0
   16.0969  -18.6514    6.7867 O   0  0  0  0  0  0  0  0  0  0  0  0
   17.0931  -18.8776    4.6678 N   0  0  0  0  0  0  0  0  0  0  0  0
   17.4661  -20.2491    4.8502 C   0  0  1  0  0  0  0  0  0  0  0  0
   17.5951  -20.9929    3.5364 C   0  0  0  0  0  0  0  0  0  0  0  0
   17.6409  -22.4498    3.7088 C   0  0  0  0  0  0  0  0  0  0  0  0
   16.5883  -23.2453    4.0778 C   0  0  0  0  0  0  0  0  0  0  0  0
   17.0598  -24.5220    4.1183 N   0  0  0  0  0  0  0  0  0  0  0  0
   18.3612  -24.5494    3.7894 C   0  0  0  0  0  0  0  0  0  0  0  0
   19.3245  -25.5388    3.6678 C   0  0  0  0  0  0  0  0  0  0  0  0
   20.6172  -25.2940    3.3066 C   0  0  0  0  0  0  0  0  0  0  0  0
   21.0009  -23.9921    3.0445 C   0  0  0  0  0  0  0  0  0  0  0  0
   20.0572  -22.9896    3.1594 C   0  0  0  0  0  0  0  0  0  0  0  0
   18.7379  -23.2521    3.5298 C   0  0  0  0  0  0  0  0  0  0  0  0
   18.7763  -20.3939    5.5367 C   0  0  0  0  0  0  0  0  0  0  0  0
   19.7888  -19.8330    5.0518 O   0  0  0  0  0  0  0  0  0  0  0  0
   18.9352  -21.1411    6.7212 N   0  0  0  0  0  0  0  0  0  0  0  0
   20.2994  -21.3887    7.2414 C   0  0  1  0  0  0  0  0  0  0  0  0
   20.8709  -20.0727    7.6862 C   0  0  0  0  0  0  0  0  0  0  0  0
   20.2515  -19.6086    8.9380 C   0  0  0  0  0  0  0  0  0  0  0  0
   19.0823  -18.8525    8.9581 C   0  0  0  0  0  0  0  0  0  0  0  0
   18.8042  -18.6049   10.2484 N   0  0  0  0  0  0  0  0  0  0  0  0
   19.7206  -19.1549   11.0436 C   0  0  0  0  0  0  0  0  0  0  0  0
   20.5880  -19.7581   10.2259 N   0  0  0  0  0  0  0  0  0  0  0  0
   20.1445  -22.3332    8.3979 C   0  0  0  0  0  0  0  0  0  0  0  0
   18.9967  -22.7392    8.6715 O   0  0  0  0  0  0  0  0  0  0  0  0
   21.2191  -22.7493    9.1414 O   0  0  0  0  0  0  0  0  0  0  0  0
  2  1  1  1
  2  3  1  0
  3  4  1  0
  4  5  2  0
  5  6  1  0
  7  6  1  0
  8  7  2  0
  9  8  1  0
 10 11  1  0
 10  9  2  0
 11 12  2  0
 12  4  1  0
 12  7  1  0
 13  2  1  0
 14 13  2  0
 15 13  1  0
 16 15  1  0
 16 17  1  6
 18 26  1  0
 18 17  1  0
 19 18  2  0
 20 19  1  0
 20 21  1  0
 21 22  1  0
 21 26  2  0
 22 23  2  0
 23 24  1  0
 25 24  2  0
 26 25  1  0
 27 16  1  0
 28 27  2  0
 29 27  1  0
 30 29  1  0
 30 31  1  1
 32 31  1  0
 32 36  1  0
 33 34  1  0
 33 32  2  0
 34 35  1  0
 35 36  2  0
 37 30  1  0
 37 39  1  0
 38 37  2  0
M  END
$$$$
