WWH.pdb
     RDKit          3D

 39 43  0  0  1  0  0  0  0  0999 V2000
   16.6295  -18.5901    2.1642 N   0  0  0  0  0  0  0  0  0  0  0  0
   17.0661  -19.2299    3.3689 C   0  0  1  0  0  0  0  0  0  0  0  0
   17.5672  -20.6378    3.1739 C   0  0  0  0  0  0  0  0  0  0  0  0
   16.5372  -21.5801    2.6938 C   0  0  0  0  0  0  0  0  0  0  0  0
   15.6726  -21.3972    1.6343 C   0  0  0  0  0  0  0  0  0  0  0  0
   14.8720  -22.4624    1.5270 N   0  0  0  0  0  0  0  0  0  0  0  0
   15.1892  -23.3448    2.4916 C   0  0  0  0  0  0  0  0  0  0  0  0
   14.7053  -24.5853    2.8377 C   0  0  0  0  0  0  0  0  0  0  0  0
   15.2510  -25.2858    3.9071 C   0  0  0  0  0  0  0  0  0  0  0  0
   16.2873  -24.7516    4.6411 C   0  0  0  0  0  0  0  0  0  0  0  0
   16.7736  -23.4900    4.2833 C   0  0  0  0  0  0  0  0  0  0  0  0
   16.2403  -22.7982    3.2347 C   0  0  0  0  0  0  0  0  0  0  0  0
   17.9950  -18.3860    4.1643 C   0  0  0  0  0  0  0  0  0  0  0  0
   19.1652  -18.1063    3.7266 O   0  0  0  0  0  0  0  0  0  0  0  0
   17.5452  -17.8988    5.4194 N   0  0  0  0  0  0  0  0  0  0  0  0
   18.4047  -17.1173    6.2584 C   0  0  1  0  0  0  0  0  0  0  0  0
   17.6916  -15.9275    6.8682 C   0  0  0  0  0  0  0  0  0  0  0  0
   17.7537  -14.7306    6.0209 C   0  0  0  0  0  0  0  0  0  0  0  0
   16.8869  -14.4233    5.0054 C   0  0  0  0  0  0  0  0  0  0  0  0
   17.3017  -13.2356    4.4847 N   0  0  0  0  0  0  0  0  0  0  0  0
   18.3898  -12.7951    5.1361 C   0  0  0  0  0  0  0  0  0  0  0  0
   19.2109  -11.6823    5.0396 C   0  0  0  0  0  0  0  0  0  0  0  0
   20.2873  -11.4653    5.8495 C   0  0  0  0  0  0  0  0  0  0  0  0
   20.5868  -12.3986    6.8243 C   0  0  0  0  0  0  0  0  0  0  0  0
   19.7818  -13.5157    6.9387 C   0  0  0  0  0  0  0  0  0  0  0  0
   18.6836  -13.7269    6.1046 C   0  0  0  0  0  0  0  0  0  0  0  0
   18.9498  -17.9003    7.3980 C   0  0  0  0  0  0  0  0  0  0  0  0
   18.2844  -18.8601    7.8574 O   0  0  0  0  0  0  0  0  0  0  0  0
   20.1942  -17.6106    7.9931 N   0  0  0  0  0  0  0  0  0  0  0  0
   20.6762  -18.4577    9.1079 C   0  0  1  0  0  0  0  0  0  0  0  0
   20.8392  -19.8576    8.5884 C   0  0  0  0  0  0  0  0  0  0  0  0
   21.3203  -20.7718    9.6367 C   0  0  0  0  0  0  0  0  0  0  0  0
   21.0528  -20.5667   10.9877 C   0  0  0  0  0  0  0  0  0  0  0  0
   21.6355  -21.5762   11.6547 N   0  0  0  0  0  0  0  0  0  0  0  0
   22.2528  -22.4046   10.8137 C   0  0  0  0  0  0  0  0  0  0  0  0
   22.0476  -21.8958    9.5955 N   0  0  0  0  0  0  0  0  0  0  0  0
   21.9937  -17.8799    9.5371 C   0  0  0  0  0  0  0  0  0  0  0  0
   22.5397  -18.3595   10.5513 O   0  0  0  0  0  0  0  0  0  0  0  0
   22.5945  -16.8577    8.8479 O   0  0  0  0  0  0  0  0  0  0  0  0
  2  1  1  6
  2  3  1  0
  3  4  1  0
  4  5  2  0
  5  6  1  0
  7  6  1  0
  8  7  2  0
  9  8  1  0
 10 11  1  0
 10  9  2  0
 11 12  2  0
 12  4  1  0
 12  7  1  0
 13  2  1  0
 14 13  2  0
 15 13  1  0
 16 15  1  0
 16 17  1  1
 18 26  1  0
 18 17  1  0
 19 18  2  0
 20 19  1  0
 20 21  1  0
 21 22  1  0
 21 26  2  0
 22 23  2  0
 23 24  1  0
 25 24  2  0
 26 25  1  0
 27 16  1  0
 28 27  2  0
 29 27  1  0
 30 29  1  0
 30 31  1  6
 32 31  1  0
 32 36  1  0
 33 34  1  0
 33 32  2  0
 34 35  1  0
 35 36  2  0
 37 30  1  0
 37 39  1  0
 38 37  2  0
M  END
$$$$
