WWH.pdb
     RDKit          3D

 39 43  0  0  1  0  0  0  0  0999 V2000
   19.7828  -11.2194  -15.4961 N   0  0  0  0  0  0  0  0  0  0  0  0
   18.7207  -10.2718  -15.3382 C   0  0  1  0  0  0  0  0  0  0  0  0
   17.3656  -10.8937  -15.1186 C   0  0  0  0  0  0  0  0  0  0  0  0
   16.9139  -11.7553  -16.2290 C   0  0  0  0  0  0  0  0  0  0  0  0
   17.6900  -12.6038  -16.9913 C   0  0  0  0  0  0  0  0  0  0  0  0
   16.9248  -13.1940  -17.9151 N   0  0  0  0  0  0  0  0  0  0  0  0
   15.6607  -12.7543  -17.7793 C   0  0  0  0  0  0  0  0  0  0  0  0
   14.4863  -13.0265  -18.4423 C   0  0  0  0  0  0  0  0  0  0  0  0
   13.2994  -12.4100  -18.0636 C   0  0  0  0  0  0  0  0  0  0  0  0
   13.2759  -11.5146  -17.0167 C   0  0  0  0  0  0  0  0  0  0  0  0
   14.4738  -11.2430  -16.3478 C   0  0  0  0  0  0  0  0  0  0  0  0
   15.6417  -11.8452  -16.7167 C   0  0  0  0  0  0  0  0  0  0  0  0
   19.0405   -9.2085  -14.3508 C   0  0  0  0  0  0  0  0  0  0  0  0
   19.2855   -9.5004  -13.1286 O   0  0  0  0  0  0  0  0  0  0  0  0
   19.0684   -7.8635  -14.8039 N   0  0  0  0  0  0  0  0  0  0  0  0
   19.2773   -6.7809  -13.8885 C   0  0  1  0  0  0  0  0  0  0  0  0
   20.0560   -5.6398  -14.5107 C   0  0  0  0  0  0  0  0  0  0  0  0
   21.4252   -6.0188  -14.8796 C   0  0  0  0  0  0  0  0  0  0  0  0
   21.8976   -7.2998  -14.9935 C   0  0  0  0  0  0  0  0  0  0  0  0
   23.2074   -7.2020  -15.3521 N   0  0  0  0  0  0  0  0  0  0  0  0
   23.5652   -5.9129  -15.4649 C   0  0  0  0  0  0  0  0  0  0  0  0
   24.7329   -5.2410  -15.7919 C   0  0  0  0  0  0  0  0  0  0  0  0
   24.8348   -3.8812  -15.8359 C   0  0  0  0  0  0  0  0  0  0  0  0
   23.7198   -3.1193  -15.5405 C   0  0  0  0  0  0  0  0  0  0  0  0
   22.5450   -3.7678  -15.2120 C   0  0  0  0  0  0  0  0  0  0  0  0
   22.4527   -5.1593  -15.1701 C   0  0  0  0  0  0  0  0  0  0  0  0
   18.0009   -6.1937  -13.4040 C   0  0  0  0  0  0  0  0  0  0  0  0
   17.1613   -5.7766  -14.2383 O   0  0  0  0  0  0  0  0  0  0  0  0
   17.6869   -6.0827  -12.0345 N   0  0  0  0  0  0  0  0  0  0  0  0
   16.4824   -5.3227  -11.6290 C   0  0  1  0  0  0  0  0  0  0  0  0
   15.2848   -6.2030  -11.8467 C   0  0  0  0  0  0  0  0  0  0  0  0
   14.0487   -5.5641  -11.3672 C   0  0  0  0  0  0  0  0  0  0  0  0
   13.4123   -4.5450  -12.0711 C   0  0  0  0  0  0  0  0  0  0  0  0
   12.3303   -4.1981  -11.3553 N   0  0  0  0  0  0  0  0  0  0  0  0
   12.2420   -4.9309  -10.2464 C   0  0  0  0  0  0  0  0  0  0  0  0
   13.2954   -5.7522  -10.2758 N   0  0  0  0  0  0  0  0  0  0  0  0
   16.6600   -4.9960  -10.1745 C   0  0  0  0  0  0  0  0  0  0  0  0
   17.6556   -5.4658   -9.5872 O   0  0  0  0  0  0  0  0  0  0  0  0
   15.7674   -4.2064   -9.4960 O   0  0  0  0  0  0  0  0  0  0  0  0
  2  1  1  1
  2  3  1  0
  3  4  1  0
  4  5  2  0
  5  6  1  0
  7  6  1  0
  8  7  2  0
  9  8  1  0
 10 11  1  0
 10  9  2  0
 11 12  2  0
 12  4  1  0
 12  7  1  0
 13  2  1  0
 14 13  2  0
 15 13  1  0
 16 15  1  0
 16 17  1  6
 18 26  1  0
 18 17  1  0
 19 18  2  0
 20 19  1  0
 20 21  1  0
 21 22  1  0
 21 26  2  0
 22 23  2  0
 23 24  1  0
 25 24  2  0
 26 25  1  0
 27 16  1  0
 28 27  2  0
 29 27  1  0
 30 29  1  0
 30 31  1  1
 32 31  1  0
 32 36  1  0
 33 34  1  0
 33 32  2  0
 34 35  1  0
 35 36  2  0
 37 30  1  0
 37 39  1  0
 38 37  2  0
M  END
$$$$
