WWH.pdb
     RDKit          3D

 39 43  0  0  1  0  0  0  0  0999 V2000
   26.8708  -22.1502   -9.6062 N   0  0  0  0  0  0  0  0  0  0  0  0
   26.5832  -20.7546   -9.4620 C   0  0  1  0  0  0  0  0  0  0  0  0
   27.7944  -19.8991   -9.1925 C   0  0  0  0  0  0  0  0  0  0  0  0
   28.6132  -20.3602   -8.0539 C   0  0  0  0  0  0  0  0  0  0  0  0
   29.7023  -21.2057   -8.1019 C   0  0  0  0  0  0  0  0  0  0  0  0
   30.1614  -21.4075   -6.8627 N   0  0  0  0  0  0  0  0  0  0  0  0
   29.4000  -20.7135   -5.9976 C   0  0  0  0  0  0  0  0  0  0  0  0
   29.4229  -20.5545   -4.6312 C   0  0  0  0  0  0  0  0  0  0  0  0
   28.4880  -19.7454   -3.9961 C   0  0  0  0  0  0  0  0  0  0  0  0
   27.5204  -19.0866   -4.7227 C   0  0  0  0  0  0  0  0  0  0  0  0
   27.5035  -19.2533   -6.1113 C   0  0  0  0  0  0  0  0  0  0  0  0
   28.4188  -20.0475   -6.7390 C   0  0  0  0  0  0  0  0  0  0  0  0
   25.7296  -20.2269  -10.5578 C   0  0  0  0  0  0  0  0  0  0  0  0
   25.8634  -19.0229  -10.9718 O   0  0  0  0  0  0  0  0  0  0  0  0
   24.7661  -21.0974  -11.1313 N   0  0  0  0  0  0  0  0  0  0  0  0
   23.9456  -20.6709  -12.2260 C   0  0  1  0  0  0  0  0  0  0  0  0
   24.2801  -21.3935  -13.5151 C   0  0  0  0  0  0  0  0  0  0  0  0
   25.6395  -21.1102  -13.9906 C   0  0  0  0  0  0  0  0  0  0  0  0
   26.6670  -22.0137  -14.0611 C   0  0  0  0  0  0  0  0  0  0  0  0
   27.7439  -21.3419  -14.5539 N   0  0  0  0  0  0  0  0  0  0  0  0
   27.4251  -20.0595  -14.7914 C   0  0  0  0  0  0  0  0  0  0  0  0
   28.1012  -18.9517  -15.2787 C   0  0  0  0  0  0  0  0  0  0  0  0
   27.5284  -17.7224  -15.4275 C   0  0  0  0  0  0  0  0  0  0  0  0
   26.2014  -17.5586  -15.0769 C   0  0  0  0  0  0  0  0  0  0  0  0
   25.5077  -18.6493  -14.5889 C   0  0  0  0  0  0  0  0  0  0  0  0
   26.1042  -19.9018  -14.4410 C   0  0  0  0  0  0  0  0  0  0  0  0
   22.5002  -20.9140  -11.9797 C   0  0  0  0  0  0  0  0  0  0  0  0
   22.1374  -22.0090  -11.4855 O   0  0  0  0  0  0  0  0  0  0  0  0
   21.5071  -19.9598  -12.2794 N   0  0  0  0  0  0  0  0  0  0  0  0
   20.3130  -20.3776  -13.0491 C   0  0  1  0  0  0  0  0  0  0  0  0
   20.7587  -20.7295  -14.4397 C   0  0  0  0  0  0  0  0  0  0  0  0
   21.1090  -19.5293  -15.2162 C   0  0  0  0  0  0  0  0  0  0  0  0
   20.1468  -18.7096  -15.8001 C   0  0  0  0  0  0  0  0  0  0  0  0
   20.8080  -17.7216  -16.4247 N   0  0  0  0  0  0  0  0  0  0  0  0
   22.1239  -17.8639  -16.2734 C   0  0  0  0  0  0  0  0  0  0  0  0
   22.2818  -18.9673  -15.5368 N   0  0  0  0  0  0  0  0  0  0  0  0
   19.7513  -21.5748  -12.3386 C   0  0  0  0  0  0  0  0  0  0  0  0
   20.2337  -22.6937  -12.6073 O   0  0  0  0  0  0  0  0  0  0  0  0
   18.7405  -21.4619  -11.4186 O   0  0  0  0  0  0  0  0  0  0  0  0
  2  1  1  6
  2  3  1  0
  3  4  1  0
  4  5  2  0
  5  6  1  0
  7  6  1  0
  8  7  2  0
  9  8  1  0
 10 11  1  0
 10  9  2  0
 11 12  2  0
 12  4  1  0
 12  7  1  0
 13  2  1  0
 14 13  2  0
 15 13  1  0
 16 15  1  0
 16 17  1  6
 18 26  1  0
 18 17  1  0
 19 18  2  0
 20 19  1  0
 20 21  1  0
 21 22  1  0
 21 26  2  0
 22 23  2  0
 23 24  1  0
 25 24  2  0
 26 25  1  0
 27 16  1  0
 28 27  2  0
 29 27  1  0
 30 29  1  0
 30 31  1  6
 32 31  1  0
 32 36  1  0
 33 34  1  0
 33 32  2  0
 34 35  1  0
 35 36  2  0
 37 30  1  0
 37 39  1  0
 38 37  2  0
M  END
$$$$
