WWH.pdb
     RDKit          3D

 39 43  0  0  1  0  0  0  0  0999 V2000
   29.5714  -20.8029  -13.1938 N   0  0  0  0  0  0  0  0  0  0  0  0
   28.2839  -20.2951  -12.8255 C   0  0  1  0  0  0  0  0  0  0  0  0
   27.3226  -20.1547  -13.9778 C   0  0  0  0  0  0  0  0  0  0  0  0
   27.7606  -19.1954  -15.0109 C   0  0  0  0  0  0  0  0  0  0  0  0
   28.3072  -19.4923  -16.2423 C   0  0  0  0  0  0  0  0  0  0  0  0
   28.5978  -18.3558  -16.8836 N   0  0  0  0  0  0  0  0  0  0  0  0
   28.2547  -17.3152  -16.1031 C   0  0  0  0  0  0  0  0  0  0  0  0
   28.3230  -15.9501  -16.2596 C   0  0  0  0  0  0  0  0  0  0  0  0
   27.8722  -15.0984  -15.2577 C   0  0  0  0  0  0  0  0  0  0  0  0
   27.3479  -15.6048  -14.0887 C   0  0  0  0  0  0  0  0  0  0  0  0
   27.2819  -16.9937  -13.9369 C   0  0  0  0  0  0  0  0  0  0  0  0
   27.7242  -17.8337  -14.9174 C   0  0  0  0  0  0  0  0  0  0  0  0
   27.6967  -21.0065  -11.6606 C   0  0  0  0  0  0  0  0  0  0  0  0
   27.9602  -22.2406  -11.4445 O   0  0  0  0  0  0  0  0  0  0  0  0
   26.8393  -20.2768  -10.7960 N   0  0  0  0  0  0  0  0  0  0  0  0
   25.7012  -20.8998  -10.1878 C   0  0  1  0  0  0  0  0  0  0  0  0
   25.2986  -20.2280   -8.8907 C   0  0  0  0  0  0  0  0  0  0  0  0
   26.4447  -19.6891   -8.1487 C   0  0  0  0  0  0  0  0  0  0  0  0
   27.1498  -18.5606   -8.4746 C   0  0  0  0  0  0  0  0  0  0  0  0
   28.1221  -18.4223   -7.5315 N   0  0  0  0  0  0  0  0  0  0  0  0
   28.0477  -19.4190   -6.6351 C   0  0  0  0  0  0  0  0  0  0  0  0
   28.7569  -19.7746   -5.4983 C   0  0  0  0  0  0  0  0  0  0  0  0
   28.4684  -20.8719   -4.7405 C   0  0  0  0  0  0  0  0  0  0  0  0
   27.4132  -21.6822   -5.1157 C   0  0  0  0  0  0  0  0  0  0  0  0
   26.6922  -21.3469   -6.2455 C   0  0  0  0  0  0  0  0  0  0  0  0
   26.9967  -20.2222   -7.0128 C   0  0  0  0  0  0  0  0  0  0  0  0
   24.4997  -20.8628  -11.0619 C   0  0  0  0  0  0  0  0  0  0  0  0
   24.3220  -19.8782  -11.8195 O   0  0  0  0  0  0  0  0  0  0  0  0
   23.5401  -21.8949  -11.0789 N   0  0  0  0  0  0  0  0  0  0  0  0
   22.3586  -21.7680  -11.9626 C   0  0  1  0  0  0  0  0  0  0  0  0
   21.9892  -23.1429  -12.4415 C   0  0  0  0  0  0  0  0  0  0  0  0
   22.9218  -23.6261  -13.4725 C   0  0  0  0  0  0  0  0  0  0  0  0
   24.3022  -23.6289  -13.2897 C   0  0  0  0  0  0  0  0  0  0  0  0
   24.8402  -24.1268  -14.4149 N   0  0  0  0  0  0  0  0  0  0  0  0
   23.8904  -24.4383  -15.2955 C   0  0  0  0  0  0  0  0  0  0  0  0
   22.7354  -24.1257  -14.7012 N   0  0  0  0  0  0  0  0  0  0  0  0
   21.2660  -21.1727  -11.1225 C   0  0  0  0  0  0  0  0  0  0  0  0
   20.1480  -21.0054  -11.6506 O   0  0  0  0  0  0  0  0  0  0  0  0
   21.4709  -20.8191   -9.8134 O   0  0  0  0  0  0  0  0  0  0  0  0
  2  1  1  6
  2  3  1  0
  3  4  1  0
  4  5  2  0
  5  6  1  0
  7  6  1  0
  8  7  2  0
  9  8  1  0
 10 11  1  0
 10  9  2  0
 11 12  2  0
 12  4  1  0
 12  7  1  0
 13  2  1  0
 14 13  2  0
 15 13  1  0
 16 15  1  0
 16 17  1  1
 18 26  1  0
 18 17  1  0
 19 18  2  0
 20 19  1  0
 20 21  1  0
 21 22  1  0
 21 26  2  0
 22 23  2  0
 23 24  1  0
 25 24  2  0
 26 25  1  0
 27 16  1  0
 28 27  2  0
 29 27  1  0
 30 29  1  0
 30 31  1  1
 32 31  1  0
 32 36  1  0
 33 34  1  0
 33 32  2  0
 34 35  1  0
 35 36  2  0
 37 30  1  0
 37 39  1  0
 38 37  2  0
M  END
$$$$
