WWH.pdb
     RDKit          3D

 39 43  0  0  1  0  0  0  0  0999 V2000
   25.6223  -20.1670  -17.6277 N   0  0  0  0  0  0  0  0  0  0  0  0
   24.8148  -19.7115  -16.5362 C   0  0  1  0  0  0  0  0  0  0  0  0
   23.3377  -19.6753  -16.8337 C   0  0  0  0  0  0  0  0  0  0  0  0
   22.9786  -18.8250  -17.9858 C   0  0  0  0  0  0  0  0  0  0  0  0
   22.7678  -19.2337  -19.2866 C   0  0  0  0  0  0  0  0  0  0  0  0
   22.4860  -18.1695  -20.0451 N   0  0  0  0  0  0  0  0  0  0  0  0
   22.5054  -17.0674  -19.2739 C   0  0  0  0  0  0  0  0  0  0  0  0
   22.2855  -15.7324  -19.5231 C   0  0  0  0  0  0  0  0  0  0  0  0
   22.3683  -14.7971  -18.4981 C   0  0  0  0  0  0  0  0  0  0  0  0
   22.6721  -15.1889  -17.2127 C   0  0  0  0  0  0  0  0  0  0  0  0
   22.8945  -16.5478  -16.9673 C   0  0  0  0  0  0  0  0  0  0  0  0
   22.8151  -17.4695  -17.9707 C   0  0  0  0  0  0  0  0  0  0  0  0
   25.1347  -20.3984  -15.2581 C   0  0  0  0  0  0  0  0  0  0  0  0
   24.7419  -21.5975  -15.0414 O   0  0  0  0  0  0  0  0  0  0  0  0
   25.8893  -19.6870  -14.2888 N   0  0  0  0  0  0  0  0  0  0  0  0
   26.0908  -20.2202  -12.9740 C   0  0  1  0  0  0  0  0  0  0  0  0
   27.1665  -19.4776  -12.2076 C   0  0  0  0  0  0  0  0  0  0  0  0
   27.7455  -20.2760  -11.1205 C   0  0  0  0  0  0  0  0  0  0  0  0
   28.3072  -21.5187  -11.2521 C   0  0  0  0  0  0  0  0  0  0  0  0
   28.7167  -21.8951  -10.0093 N   0  0  0  0  0  0  0  0  0  0  0  0
   28.4314  -20.9363   -9.1137 C   0  0  0  0  0  0  0  0  0  0  0  0
   28.6128  -20.7802   -7.7483 C   0  0  0  0  0  0  0  0  0  0  0  0
   28.2195  -19.6722   -7.0560 C   0  0  0  0  0  0  0  0  0  0  0  0
   27.6052  -18.6411   -7.7416 C   0  0  0  0  0  0  0  0  0  0  0  0
   27.4141  -18.7750   -9.1034 C   0  0  0  0  0  0  0  0  0  0  0  0
   27.8205  -19.9130   -9.8008 C   0  0  0  0  0  0  0  0  0  0  0  0
   24.8639  -20.1474  -12.1384 C   0  0  0  0  0  0  0  0  0  0  0  0
   24.2578  -19.0537  -12.0318 O   0  0  0  0  0  0  0  0  0  0  0  0
   24.3443  -21.2636  -11.4524 N   0  0  0  0  0  0  0  0  0  0  0  0
   23.1476  -21.0928  -10.5971 C   0  0  1  0  0  0  0  0  0  0  0  0
   22.2635  -22.2911  -10.7936 C   0  0  0  0  0  0  0  0  0  0  0  0
   21.1160  -21.9811  -11.6615 C   0  0  0  0  0  0  0  0  0  0  0  0
   20.8869  -20.7054  -12.1706 C   0  0  0  0  0  0  0  0  0  0  0  0
   19.7685  -20.7795  -12.9103 N   0  0  0  0  0  0  0  0  0  0  0  0
   19.2768  -22.0175  -12.9015 C   0  0  0  0  0  0  0  0  0  0  0  0
   20.1113  -22.7282  -12.1375 N   0  0  0  0  0  0  0  0  0  0  0  0
   23.6477  -21.0116   -9.1839 C   0  0  0  0  0  0  0  0  0  0  0  0
   24.6906  -21.6334   -8.8963 O   0  0  0  0  0  0  0  0  0  0  0  0
   22.9932  -20.2809   -8.2255 O   0  0  0  0  0  0  0  0  0  0  0  0
  2  1  1  6
  2  3  1  0
  3  4  1  0
  4  5  2  0
  5  6  1  0
  7  6  1  0
  8  7  2  0
  9  8  1  0
 10 11  1  0
 10  9  2  0
 11 12  2  0
 12  4  1  0
 12  7  1  0
 13  2  1  0
 14 13  2  0
 15 13  1  0
 16 15  1  0
 16 17  1  1
 18 26  1  0
 18 17  1  0
 19 18  2  0
 20 19  1  0
 20 21  1  0
 21 22  1  0
 21 26  2  0
 22 23  2  0
 23 24  1  0
 25 24  2  0
 26 25  1  0
 27 16  1  0
 28 27  2  0
 29 27  1  0
 30 29  1  0
 30 31  1  1
 32 31  1  0
 32 36  1  0
 33 34  1  0
 33 32  2  0
 34 35  1  0
 35 36  2  0
 37 30  1  0
 37 39  1  0
 38 37  2  0
M  END
$$$$
