WWH.pdb
     RDKit          3D

 39 43  0  0  1  0  0  0  0  0999 V2000
   28.0504  -20.8457   -8.9217 N   0  0  0  0  0  0  0  0  0  0  0  0
   26.6368  -20.6797   -8.7624 C   0  0  1  0  0  0  0  0  0  0  0  0
   26.2480  -19.6436   -7.7394 C   0  0  0  0  0  0  0  0  0  0  0  0
   27.3636  -19.2012   -6.8797 C   0  0  0  0  0  0  0  0  0  0  0  0
   28.1732  -18.1004   -7.0696 C   0  0  0  0  0  0  0  0  0  0  0  0
   29.0848  -18.0472   -6.0933 N   0  0  0  0  0  0  0  0  0  0  0  0
   28.8948  -19.0882   -5.2626 C   0  0  0  0  0  0  0  0  0  0  0  0
   29.5237  -19.5117   -4.1146 C   0  0  0  0  0  0  0  0  0  0  0  0
   29.0891  -20.6512   -3.4476 C   0  0  0  0  0  0  0  0  0  0  0  0
   28.0199  -21.3784   -3.9229 C   0  0  0  0  0  0  0  0  0  0  0  0
   27.3858  -20.9416   -5.0905 C   0  0  0  0  0  0  0  0  0  0  0  0
   27.8096  -19.8240   -5.7493 C   0  0  0  0  0  0  0  0  0  0  0  0
   25.9275  -20.5143  -10.0575 C   0  0  0  0  0  0  0  0  0  0  0  0
   24.7603  -19.9903  -10.1041 O   0  0  0  0  0  0  0  0  0  0  0  0
   26.5833  -20.9514  -11.2382 N   0  0  0  0  0  0  0  0  0  0  0  0
   25.9691  -20.7967  -12.5236 C   0  0  1  0  0  0  0  0  0  0  0  0
   26.8537  -21.2903  -13.6503 C   0  0  0  0  0  0  0  0  0  0  0  0
   26.2427  -21.1143  -14.9732 C   0  0  0  0  0  0  0  0  0  0  0  0
   26.1242  -19.9281  -15.6484 C   0  0  0  0  0  0  0  0  0  0  0  0
   25.5030  -20.2104  -16.8267 N   0  0  0  0  0  0  0  0  0  0  0  0
   25.2321  -21.5228  -16.9085 C   0  0  0  0  0  0  0  0  0  0  0  0
   24.6316  -22.3467  -17.8480 C   0  0  0  0  0  0  0  0  0  0  0  0
   24.4750  -23.6919  -17.6827 C   0  0  0  0  0  0  0  0  0  0  0  0
   24.9360  -24.2786  -16.5191 C   0  0  0  0  0  0  0  0  0  0  0  0
   25.5380  -23.4766  -15.5687 C   0  0  0  0  0  0  0  0  0  0  0  0
   25.6925  -22.1018  -15.7487 C   0  0  0  0  0  0  0  0  0  0  0  0
   24.6947  -21.5530  -12.6378 C   0  0  0  0  0  0  0  0  0  0  0  0
   24.6362  -22.7271  -12.1986 O   0  0  0  0  0  0  0  0  0  0  0  0
   23.5358  -21.0052  -13.2238 N   0  0  0  0  0  0  0  0  0  0  0  0
   22.2413  -21.7038  -13.0534 C   0  0  1  0  0  0  0  0  0  0  0  0
   21.2466  -20.7116  -12.5219 C   0  0  0  0  0  0  0  0  0  0  0  0
   19.9048  -21.3034  -12.3976 C   0  0  0  0  0  0  0  0  0  0  0  0
   19.2496  -21.9024  -13.4705 C   0  0  0  0  0  0  0  0  0  0  0  0
   18.0623  -22.3281  -13.0095 N   0  0  0  0  0  0  0  0  0  0  0  0
   17.9251  -22.0374  -11.7168 C   0  0  0  0  0  0  0  0  0  0  0  0
   19.0554  -21.4161  -11.3681 N   0  0  0  0  0  0  0  0  0  0  0  0
   21.8449  -22.1949  -14.4155 C   0  0  0  0  0  0  0  0  0  0  0  0
   21.0787  -23.1774  -14.4826 O   0  0  0  0  0  0  0  0  0  0  0  0
   22.2995  -21.5947  -15.5618 O   0  0  0  0  0  0  0  0  0  0  0  0
  2  1  1  6
  2  3  1  0
  3  4  1  0
  4  5  2  0
  5  6  1  0
  7  6  1  0
  8  7  2  0
  9  8  1  0
 10 11  1  0
 10  9  2  0
 11 12  2  0
 12  4  1  0
 12  7  1  0
 13  2  1  0
 14 13  2  0
 15 13  1  0
 16 15  1  0
 16 17  1  6
 18 26  1  0
 18 17  1  0
 19 18  2  0
 20 19  1  0
 20 21  1  0
 21 22  1  0
 21 26  2  0
 22 23  2  0
 23 24  1  0
 25 24  2  0
 26 25  1  0
 27 16  1  0
 28 27  2  0
 29 27  1  0
 30 29  1  0
 30 31  1  6
 32 31  1  0
 32 36  1  0
 33 34  1  0
 33 32  2  0
 34 35  1  0
 35 36  2  0
 37 30  1  0
 37 39  1  0
 38 37  2  0
M  END
$$$$
