WWH.pdb
     RDKit          3D

 39 43  0  0  1  0  0  0  0  0999 V2000
   27.6072  -21.0270  -11.9190 N   0  0  0  0  0  0  0  0  0  0  0  0
   26.3326  -21.1856  -11.2856 C   0  0  1  0  0  0  0  0  0  0  0  0
   26.3460  -20.9358   -9.7994 C   0  0  0  0  0  0  0  0  0  0  0  0
   27.6890  -21.0101   -9.1908 C   0  0  0  0  0  0  0  0  0  0  0  0
   28.7695  -21.7362   -9.6477 C   0  0  0  0  0  0  0  0  0  0  0  0
   29.8007  -21.5679   -8.8138 N   0  0  0  0  0  0  0  0  0  0  0  0
   29.4253  -20.7464   -7.8168 C   0  0  0  0  0  0  0  0  0  0  0  0
   30.0712  -20.2383   -6.7135 C   0  0  0  0  0  0  0  0  0  0  0  0
   29.4129  -19.3813   -5.8391 C   0  0  0  0  0  0  0  0  0  0  0  0
   28.1009  -19.0240   -6.0605 C   0  0  0  0  0  0  0  0  0  0  0  0
   27.4510  -19.5449   -7.1841 C   0  0  0  0  0  0  0  0  0  0  0  0
   28.0930  -20.3872   -8.0448 C   0  0  0  0  0  0  0  0  0  0  0  0
   25.2459  -20.4559  -11.9889 C   0  0  0  0  0  0  0  0  0  0  0  0
   25.2691  -19.1796  -12.0867 O   0  0  0  0  0  0  0  0  0  0  0  0
   24.1861  -21.2157  -12.5496 N   0  0  0  0  0  0  0  0  0  0  0  0
   23.1289  -20.5807  -13.2795 C   0  0  1  0  0  0  0  0  0  0  0  0
   23.2928  -20.7264  -14.7787 C   0  0  0  0  0  0  0  0  0  0  0  0
   22.3124  -19.9410  -15.5379 C   0  0  0  0  0  0  0  0  0  0  0  0
   22.1719  -18.5788  -15.4942 C   0  0  0  0  0  0  0  0  0  0  0  0
   21.1551  -18.2642  -16.3432 N   0  0  0  0  0  0  0  0  0  0  0  0
   20.6603  -19.3758  -16.9108 C   0  0  0  0  0  0  0  0  0  0  0  0
   19.6534  -19.6499  -17.8234 C   0  0  0  0  0  0  0  0  0  0  0  0
   19.3420  -20.9082  -18.2492 C   0  0  0  0  0  0  0  0  0  0  0  0
   20.0623  -21.9777  -17.7512 C   0  0  0  0  0  0  0  0  0  0  0  0
   21.0707  -21.7280  -16.8403 C   0  0  0  0  0  0  0  0  0  0  0  0
   21.3801  -20.4367  -16.4121 C   0  0  0  0  0  0  0  0  0  0  0  0
   21.7944  -21.1477  -12.9533 C   0  0  0  0  0  0  0  0  0  0  0  0
   21.6708  -22.3895  -12.8203 O   0  0  0  0  0  0  0  0  0  0  0  0
   20.6482  -20.3450  -12.7845 N   0  0  0  0  0  0  0  0  0  0  0  0
   19.3334  -20.9963  -12.5848 C   0  0  1  0  0  0  0  0  0  0  0  0
   18.9354  -20.8046  -11.1491 C   0  0  0  0  0  0  0  0  0  0  0  0
   19.5094  -21.8479  -10.2840 C   0  0  0  0  0  0  0  0  0  0  0  0
   20.4489  -21.5660   -9.2957 C   0  0  0  0  0  0  0  0  0  0  0  0
   20.7533  -22.7341   -8.7073 N   0  0  0  0  0  0  0  0  0  0  0  0
   20.0679  -23.7344   -9.2592 C   0  0  0  0  0  0  0  0  0  0  0  0
   19.3204  -23.1720  -10.2130 N   0  0  0  0  0  0  0  0  0  0  0  0
   18.3757  -20.3054  -13.5117 C   0  0  0  0  0  0  0  0  0  0  0  0
   18.6268  -19.1281  -13.8404 O   0  0  0  0  0  0  0  0  0  0  0  0
   17.2554  -20.9325  -13.9937 O   0  0  0  0  0  0  0  0  0  0  0  0
  2  1  1  6
  2  3  1  0
  3  4  1  0
  4  5  2  0
  5  6  1  0
  7  6  1  0
  8  7  2  0
  9  8  1  0
 10 11  1  0
 10  9  2  0
 11 12  2  0
 12  4  1  0
 12  7  1  0
 13  2  1  0
 14 13  2  0
 15 13  1  0
 16 15  1  0
 16 17  1  6
 18 26  1  0
 18 17  1  0
 19 18  2  0
 20 19  1  0
 20 21  1  0
 21 22  1  0
 21 26  2  0
 22 23  2  0
 23 24  1  0
 25 24  2  0
 26 25  1  0
 27 16  1  0
 28 27  2  0
 29 27  1  0
 30 29  1  0
 30 31  1  1
 32 31  1  0
 32 36  1  0
 33 34  1  0
 33 32  2  0
 34 35  1  0
 35 36  2  0
 37 30  1  0
 37 39  1  0
 38 37  2  0
M  END
$$$$
