RYD.pdb
     RDKit          3D

 32 32  0  0  1  0  0  0  0  0999 V2000
    8.1599  -11.8671   17.7276 N   0  0  0  0  0  0  0  0  0  0  0  0
    7.9074  -12.4149   19.0049 C   0  0  0  0  0  0  0  0  0  0  0  0
    8.1256  -11.7302   20.0612 N   0  0  0  0  0  0  0  0  0  0  0  0
    7.4021  -13.7493   19.1388 N   0  0  0  0  0  0  0  0  0  0  0  0
    8.2367  -14.9028   18.8757 C   0  0  0  0  0  0  0  0  0  0  0  0
    7.9089  -15.9581   19.9223 C   0  0  0  0  0  0  0  0  0  0  0  0
    8.4034  -15.5496   21.2840 C   0  0  0  0  0  0  0  0  0  0  0  0
    8.8268  -16.6852   22.1506 C   0  0  2  0  0  0  0  0  0  0  0  0
    7.6768  -17.5960   22.2311 N   0  0  0  0  0  0  0  0  0  0  0  0
    9.2915  -16.3046   23.4946 C   0  0  0  0  0  0  0  0  0  0  0  0
   10.2394  -15.5512   23.7427 O   0  0  0  0  0  0  0  0  0  0  0  0
    8.0288  -12.0879   21.0244 O   0  0  0  0  0  0  0  0  0  0  0  0
    6.3681  -10.7158   25.4701 C   0  0  0  0  0  0  0  0  0  0  0  0
    6.7362  -12.0187   25.8037 C   0  0  0  0  0  0  0  0  0  0  0  0
    5.8205  -13.0621   25.7494 C   0  0  0  0  0  0  0  0  0  0  0  0
    6.2112  -14.3464   26.0857 C   0  0  0  0  0  0  0  0  0  0  0  0
    7.4969  -14.6207   26.4768 C   0  0  0  0  0  0  0  0  0  0  0  0
    7.8861  -15.9921   26.8281 C   0  0  2  0  0  0  0  0  0  0  0  0
    8.9774  -16.5599   25.9768 N   0  0  0  0  0  0  0  0  0  0  0  0
    8.6027  -16.8396   24.6296 C   0  0  0  0  0  0  0  0  0  0  0  0
    9.6360  -17.7373   26.5721 O   0  0  0  0  0  0  0  0  0  0  0  0
    9.0426  -18.8001   26.8945 C   0  0  0  0  0  0  0  0  0  0  0  0
    8.4124  -13.6068   26.5364 C   0  0  0  0  0  0  0  0  0  0  0  0
    8.0252  -12.3265   26.2018 N   0  0  0  0  0  0  0  0  0  0  0  0
   11.0417  -17.7159   26.8176 C   0  0  1  0  0  0  0  0  0  0  0  0
   11.7613  -18.8138   27.4116 C   0  0  0  0  0  0  0  0  0  0  0  0
   13.1846  -18.9258   26.9793 C   0  0  0  0  0  0  0  0  0  0  0  0
   13.5364  -20.1959   26.3195 O   0  0  0  0  0  0  0  0  0  0  0  0
   12.6741  -21.0975   26.2253 C   0  0  0  0  0  0  0  0  0  0  0  0
   11.6185  -18.8761   28.8700 O   0  0  0  0  0  0  0  0  0  0  0  0
   12.1153  -19.9460   29.5862 O   0  0  0  0  0  0  0  0  0  0  0  0
   14.7924  -20.4365   25.7946 O   0  0  0  0  0  0  0  0  0  0  0  0
  2  3  2  0
  2  1  1  0
  4  2  1  0
  5  4  1  0
  6  5  1  0
  7  8  1  0
  7  6  1  0
  8  9  1  1
 10  8  1  0
 10 11  2  0
 12 13  1  0
 13 23  2  0
 13 14  1  0
 14 15  2  0
 15 16  1  0
 16 17  1  0
 18 17  1  6
 18 19  1  0
 19 10  1  0
 20 18  1  0
 21 20  2  0
 22 16  2  0
 23 22  1  0
 24 20  1  0
 25 24  1  0
 25 29  1  0
 25 26  1  1
 27 26  1  0
 27 28  2  0
 29 30  1  0
 31 27  1  0
 32 29  2  0
M  END
$$$$
