RYD.pdb
     RDKit          3D

 32 32  0  0  1  0  0  0  0  0999 V2000
    7.2746  -14.8545   14.5509 N   0  0  0  0  0  0  0  0  0  0  0  0
    7.6856  -13.9277   15.5346 C   0  0  0  0  0  0  0  0  0  0  0  0
    7.3640  -12.6948   15.4417 N   0  0  0  0  0  0  0  0  0  0  0  0
    8.4715  -14.3541   16.6545 N   0  0  0  0  0  0  0  0  0  0  0  0
    8.7179  -15.7571   16.9139 C   0  0  0  0  0  0  0  0  0  0  0  0
    7.8414  -16.1705   18.0875 C   0  0  0  0  0  0  0  0  0  0  0  0
    8.6211  -16.1817   19.3749 C   0  0  0  0  0  0  0  0  0  0  0  0
    8.2670  -15.0838   20.3179 C   0  0  2  0  0  0  0  0  0  0  0  0
    8.4666  -13.8268   19.5840 N   0  0  0  0  0  0  0  0  0  0  0  0
    9.0210  -15.0802   21.5822 C   0  0  0  0  0  0  0  0  0  0  0  0
   10.2456  -15.2067   21.6913 O   0  0  0  0  0  0  0  0  0  0  0  0
    7.6429  -11.9621   16.1127 O   0  0  0  0  0  0  0  0  0  0  0  0
   10.4560  -14.7424   30.3177 C   0  0  0  0  0  0  0  0  0  0  0  0
    9.8704  -14.6544   29.0554 C   0  0  0  0  0  0  0  0  0  0  0  0
    9.2058  -15.7370   28.4928 C   0  0  0  0  0  0  0  0  0  0  0  0
    8.6329  -15.6237   27.2381 C   0  0  0  0  0  0  0  0  0  0  0  0
    8.7048  -14.4543   26.5249 C   0  0  0  0  0  0  0  0  0  0  0  0
    8.0883  -14.3600   25.1958 C   0  0  1  0  0  0  0  0  0  0  0  0
    8.9146  -14.9384   24.0910 N   0  0  0  0  0  0  0  0  0  0  0  0
    8.2965  -14.9173   22.8060 C   0  0  0  0  0  0  0  0  0  0  0  0
    9.4244  -16.2908   24.3834 O   0  0  0  0  0  0  0  0  0  0  0  0
    8.7037  -17.3179   24.4893 C   0  0  0  0  0  0  0  0  0  0  0  0
    9.3547  -13.3779   27.0621 C   0  0  0  0  0  0  0  0  0  0  0  0
    9.9262  -13.4887   28.3120 N   0  0  0  0  0  0  0  0  0  0  0  0
   10.8247  -16.4973   24.5665 C   0  0  2  0  0  0  0  0  0  0  0  0
   11.4084  -17.7854   24.8423 C   0  0  0  0  0  0  0  0  0  0  0  0
   12.6879  -18.0508   24.1229 C   0  0  0  0  0  0  0  0  0  0  0  0
   13.3077  -19.3555   24.4162 O   0  0  0  0  0  0  0  0  0  0  0  0
   14.1394  -19.4441   25.3466 C   0  0  0  0  0  0  0  0  0  0  0  0
   11.5073  -18.0795   26.2759 O   0  0  0  0  0  0  0  0  0  0  0  0
   11.6793  -17.0668   27.1974 O   0  0  0  0  0  0  0  0  0  0  0  0
   13.0061  -20.4983   23.6994 O   0  0  0  0  0  0  0  0  0  0  0  0
  2  3  2  0
  2  1  1  0
  4  2  1  0
  5  4  1  0
  6  5  1  0
  7  8  1  0
  7  6  1  0
  8  9  1  6
 10  8  1  0
 10 11  2  0
 12 13  1  0
 13 23  2  0
 13 14  1  0
 14 15  2  0
 15 16  1  0
 16 17  1  0
 18 17  1  6
 18 19  1  0
 19 10  1  0
 20 18  1  0
 21 20  2  0
 22 16  2  0
 23 22  1  0
 24 20  1  0
 25 24  1  0
 25 29  1  0
 25 26  1  6
 27 26  1  0
 27 28  2  0
 29 30  1  0
 31 27  1  0
 32 29  2  0
M  END
$$$$
