RYD.pdb
     RDKit          3D

 32 32  0  0  1  0  0  0  0  0999 V2000
    7.5484  -15.2704   13.7647 N   0  0  0  0  0  0  0  0  0  0  0  0
    8.0670  -14.2190   14.5527 C   0  0  0  0  0  0  0  0  0  0  0  0
    7.9691  -13.0058   14.1646 N   0  0  0  0  0  0  0  0  0  0  0  0
    8.7129  -14.4946   15.8019 N   0  0  0  0  0  0  0  0  0  0  0  0
    9.0813  -15.8427   16.1804 C   0  0  0  0  0  0  0  0  0  0  0  0
    8.6216  -16.0615   17.6147 C   0  0  0  0  0  0  0  0  0  0  0  0
    9.6381  -15.5482   18.5989 C   0  0  0  0  0  0  0  0  0  0  0  0
    9.7153  -16.3277   19.8663 C   0  0  2  0  0  0  0  0  0  0  0  0
    8.5891  -17.2709   19.8417 N   0  0  0  0  0  0  0  0  0  0  0  0
    9.6986  -15.5204   21.0971 C   0  0  0  0  0  0  0  0  0  0  0  0
   10.5121  -14.6373   21.3907 O   0  0  0  0  0  0  0  0  0  0  0  0
    8.3124  -12.1893   14.6942 O   0  0  0  0  0  0  0  0  0  0  0  0
    6.6350  -11.3086   28.1572 C   0  0  0  0  0  0  0  0  0  0  0  0
    6.7768  -12.0353   26.9756 C   0  0  0  0  0  0  0  0  0  0  0  0
    6.0885  -13.2254   26.7751 C   0  0  0  0  0  0  0  0  0  0  0  0
    6.2466  -13.9277   25.5932 C   0  0  0  0  0  0  0  0  0  0  0  0
    7.0768  -13.4738   24.6001 C   0  0  0  0  0  0  0  0  0  0  0  0
    7.2268  -14.2376   23.3553 C   0  0  1  0  0  0  0  0  0  0  0  0
    8.5096  -15.0003   23.2514 N   0  0  0  0  0  0  0  0  0  0  0  0
    8.6605  -15.7589   22.0533 C   0  0  0  0  0  0  0  0  0  0  0  0
    8.7861  -15.8497   24.4245 O   0  0  0  0  0  0  0  0  0  0  0  0
    8.6324  -15.4869   25.6205 C   0  0  0  0  0  0  0  0  0  0  0  0
    7.7626  -12.3045   24.7792 C   0  0  0  0  0  0  0  0  0  0  0  0
    7.6064  -11.6032   25.9560 N   0  0  0  0  0  0  0  0  0  0  0  0
    9.2621  -17.1824   24.2396 C   0  0  2  0  0  0  0  0  0  0  0  0
   10.5518  -17.6357   24.6948 C   0  0  0  0  0  0  0  0  0  0  0  0
   11.7050  -17.1057   23.9111 C   0  0  0  0  0  0  0  0  0  0  0  0
   13.0334  -17.4510   24.4480 O   0  0  0  0  0  0  0  0  0  0  0  0
   13.1159  -18.0412   25.5480 C   0  0  0  0  0  0  0  0  0  0  0  0
   10.7432  -17.4750   26.1401 O   0  0  0  0  0  0  0  0  0  0  0  0
    9.7869  -16.8540   26.9175 O   0  0  0  0  0  0  0  0  0  0  0  0
   14.2054  -17.1471   23.7808 O   0  0  0  0  0  0  0  0  0  0  0  0
  2  3  2  0
  2  1  1  0
  4  2  1  0
  5  4  1  0
  6  5  1  0
  7  8  1  0
  7  6  1  0
  8  9  1  1
 10  8  1  0
 10 11  2  0
 12 13  1  0
 13 23  2  0
 13 14  1  0
 14 15  2  0
 15 16  1  0
 16 17  1  0
 18 17  1  6
 18 19  1  0
 19 10  1  0
 20 18  1  0
 21 20  2  0
 22 16  2  0
 23 22  1  0
 24 20  1  0
 25 24  1  0
 25 29  1  0
 25 26  1  6
 27 26  1  0
 27 28  2  0
 29 30  1  0
 31 27  1  0
 32 29  2  0
M  END
$$$$
