RYD.pdb
     RDKit          3D

 32 32  0  0  1  0  0  0  0  0999 V2000
    7.7297  -14.2390   14.8656 N   0  0  0  0  0  0  0  0  0  0  0  0
    8.4089  -13.8128   16.0287 C   0  0  0  0  0  0  0  0  0  0  0  0
    7.9102  -12.9059   16.7777 N   0  0  0  0  0  0  0  0  0  0  0  0
    9.6700  -14.3901   16.3890 N   0  0  0  0  0  0  0  0  0  0  0  0
    9.7748  -15.7696   16.8162 C   0  0  0  0  0  0  0  0  0  0  0  0
    9.0033  -15.9087   18.1207 C   0  0  0  0  0  0  0  0  0  0  0  0
    9.0803  -17.3140   18.6542 C   0  0  0  0  0  0  0  0  0  0  0  0
    8.3604  -17.5233   19.9418 C   0  0  2  0  0  0  0  0  0  0  0  0
    6.9523  -17.7593   19.5954 N   0  0  0  0  0  0  0  0  0  0  0  0
    8.4863  -16.4239   20.9126 C   0  0  0  0  0  0  0  0  0  0  0  0
    8.3586  -15.2208   20.6594 O   0  0  0  0  0  0  0  0  0  0  0  0
    8.3551  -12.5401   17.6341 O   0  0  0  0  0  0  0  0  0  0  0  0
    6.9363  -11.6087   27.8689 C   0  0  0  0  0  0  0  0  0  0  0  0
    7.0491  -12.4589   26.7695 C   0  0  0  0  0  0  0  0  0  0  0  0
    6.3635  -13.6663   26.7195 C   0  0  0  0  0  0  0  0  0  0  0  0
    6.4924  -14.4922   25.6166 C   0  0  0  0  0  0  0  0  0  0  0  0
    7.2906  -14.1458   24.5563 C   0  0  0  0  0  0  0  0  0  0  0  0
    7.4100  -15.0398   23.3978 C   0  0  1  0  0  0  0  0  0  0  0  0
    8.6925  -15.8081   23.3423 N   0  0  0  0  0  0  0  0  0  0  0  0
    8.7814  -16.7495   22.2748 C   0  0  0  0  0  0  0  0  0  0  0  0
    9.0454  -16.4573   24.6183 O   0  0  0  0  0  0  0  0  0  0  0  0
    8.3468  -17.3355   25.1895 C   0  0  0  0  0  0  0  0  0  0  0  0
    7.9733  -12.9615   24.5873 C   0  0  0  0  0  0  0  0  0  0  0  0
    7.8461  -12.1370   25.6852 N   0  0  0  0  0  0  0  0  0  0  0  0
   10.2532  -16.0969   25.2879 C   0  0  2  0  0  0  0  0  0  0  0  0
   10.8004  -16.8402   26.3943 C   0  0  0  0  0  0  0  0  0  0  0  0
   12.2867  -16.9664   26.3790 C   0  0  0  0  0  0  0  0  0  0  0  0
   12.8737  -17.2480   25.0568 O   0  0  0  0  0  0  0  0  0  0  0  0
   12.4958  -18.2565   24.4201 C   0  0  0  0  0  0  0  0  0  0  0  0
   10.2955  -16.3927   27.6966 O   0  0  0  0  0  0  0  0  0  0  0  0
   10.5959  -17.0875   28.8506 O   0  0  0  0  0  0  0  0  0  0  0  0
   13.8347  -16.4364   24.4835 O   0  0  0  0  0  0  0  0  0  0  0  0
  2  3  2  0
  2  1  1  0
  4  2  1  0
  5  4  1  0
  6  5  1  0
  7  8  1  0
  7  6  1  0
  8  9  1  6
 10  8  1  0
 10 11  2  0
 12 13  1  0
 13 23  2  0
 13 14  1  0
 14 15  2  0
 15 16  1  0
 16 17  1  0
 18 17  1  6
 18 19  1  0
 19 10  1  0
 20 18  1  0
 21 20  2  0
 22 16  2  0
 23 22  1  0
 24 20  1  0
 25 24  1  0
 25 29  1  0
 25 26  1  6
 27 26  1  0
 27 28  2  0
 29 30  1  0
 31 27  1  0
 32 29  2  0
M  END
$$$$
