RYD.pdb
     RDKit          3D

 32 32  0  0  1  0  0  0  0  0999 V2000
    7.9195  -16.0620   15.9362 N   0  0  0  0  0  0  0  0  0  0  0  0
    7.3379  -14.8320   15.5564 C   0  0  0  0  0  0  0  0  0  0  0  0
    6.6797  -14.7329   14.4659 N   0  0  0  0  0  0  0  0  0  0  0  0
    7.4762  -13.6729   16.3876 N   0  0  0  0  0  0  0  0  0  0  0  0
    8.2612  -13.7049   17.6038 C   0  0  0  0  0  0  0  0  0  0  0  0
    7.3547  -13.2785   18.7496 C   0  0  0  0  0  0  0  0  0  0  0  0
    8.1002  -13.2555   20.0570 C   0  0  0  0  0  0  0  0  0  0  0  0
    8.3419  -14.6004   20.6508 C   0  0  2  0  0  0  0  0  0  0  0  0
    7.0196  -15.2090   20.8500 N   0  0  0  0  0  0  0  0  0  0  0  0
    9.1146  -14.5992   21.9038 C   0  0  0  0  0  0  0  0  0  0  0  0
   10.2962  -14.2560   22.0213 O   0  0  0  0  0  0  0  0  0  0  0  0
    6.2769  -13.8562   14.0997 O   0  0  0  0  0  0  0  0  0  0  0  0
   10.9270  -15.3868   30.5168 C   0  0  0  0  0  0  0  0  0  0  0  0
   10.2802  -15.2336   29.2911 C   0  0  0  0  0  0  0  0  0  0  0  0
    9.6699  -16.3101   28.6594 C   0  0  0  0  0  0  0  0  0  0  0  0
    9.0342  -16.1315   27.4432 C   0  0  0  0  0  0  0  0  0  0  0  0
    8.9901  -14.9024   26.8359 C   0  0  0  0  0  0  0  0  0  0  0  0
    8.3090  -14.7395   25.5455 C   0  0  1  0  0  0  0  0  0  0  0  0
    9.1311  -15.1370   24.3606 N   0  0  0  0  0  0  0  0  0  0  0  0
    8.4643  -15.0279   23.1047 C   0  0  0  0  0  0  0  0  0  0  0  0
    9.7456  -16.4710   24.4913 O   0  0  0  0  0  0  0  0  0  0  0  0
    9.1174  -17.5584   24.3991 C   0  0  0  0  0  0  0  0  0  0  0  0
    9.5850  -13.8310   27.4423 C   0  0  0  0  0  0  0  0  0  0  0  0
   10.2189  -14.0068   28.6542 N   0  0  0  0  0  0  0  0  0  0  0  0
   11.1463  -16.5860   24.7396 C   0  0  1  0  0  0  0  0  0  0  0  0
   11.8327  -17.8481   24.8494 C   0  0  0  0  0  0  0  0  0  0  0  0
   12.7970  -18.1251   23.7454 C   0  0  0  0  0  0  0  0  0  0  0  0
   13.3745  -19.4811   23.7492 O   0  0  0  0  0  0  0  0  0  0  0  0
   13.0368  -20.2890   24.6427 C   0  0  0  0  0  0  0  0  0  0  0  0
   12.4261  -18.0696   26.1723 O   0  0  0  0  0  0  0  0  0  0  0  0
   12.8770  -19.3189   26.5471 O   0  0  0  0  0  0  0  0  0  0  0  0
   14.2834  -19.9032   22.7971 O   0  0  0  0  0  0  0  0  0  0  0  0
  2  3  2  0
  2  1  1  0
  4  2  1  0
  5  4  1  0
  6  5  1  0
  7  8  1  0
  7  6  1  0
  8  9  1  1
 10  8  1  0
 10 11  2  0
 12 13  1  0
 13 23  2  0
 13 14  1  0
 14 15  2  0
 15 16  1  0
 16 17  1  0
 18 17  1  6
 18 19  1  0
 19 10  1  0
 20 18  1  0
 21 20  2  0
 22 16  2  0
 23 22  1  0
 24 20  1  0
 25 24  1  0
 25 29  1  0
 25 26  1  6
 27 26  1  0
 27 28  2  0
 29 30  1  0
 31 27  1  0
 32 29  2  0
M  END
$$$$
