RYD.pdb
     RDKit          3D

 32 32  0  0  1  0  0  0  0  0999 V2000
    9.2710  -13.0929   17.0363 N   0  0  0  0  0  0  0  0  0  0  0  0
    8.1709  -13.8642   16.6000 C   0  0  0  0  0  0  0  0  0  0  0  0
    8.0648  -14.2116   15.3752 N   0  0  0  0  0  0  0  0  0  0  0  0
    7.1535  -14.2705   17.5239 N   0  0  0  0  0  0  0  0  0  0  0  0
    6.9471  -13.5721   18.7753 C   0  0  0  0  0  0  0  0  0  0  0  0
    8.3136  -13.3318   19.4007 C   0  0  0  0  0  0  0  0  0  0  0  0
    8.2804  -13.5540   20.8890 C   0  0  0  0  0  0  0  0  0  0  0  0
    8.9745  -14.7923   21.3415 C   0  0  2  0  0  0  0  0  0  0  0  0
    8.0372  -15.9000   21.1119 N   0  0  0  0  0  0  0  0  0  0  0  0
    9.4347  -14.7738   22.7397 C   0  0  0  0  0  0  0  0  0  0  0  0
   10.3027  -14.0255   23.2028 O   0  0  0  0  0  0  0  0  0  0  0  0
    7.3327  -14.8361   15.0022 O   0  0  0  0  0  0  0  0  0  0  0  0
    6.2308  -10.3265   26.8466 C   0  0  0  0  0  0  0  0  0  0  0  0
    6.6756  -11.6306   26.6333 C   0  0  0  0  0  0  0  0  0  0  0  0
    8.0314  -11.9280   26.5715 C   0  0  0  0  0  0  0  0  0  0  0  0
    8.4469  -13.2308   26.3587 C   0  0  0  0  0  0  0  0  0  0  0  0
    7.5430  -14.2510   26.2051 C   0  0  0  0  0  0  0  0  0  0  0  0
    8.0099  -15.6248   25.9808 C   0  0  2  0  0  0  0  0  0  0  0  0
    9.1754  -15.7349   25.0493 N   0  0  0  0  0  0  0  0  0  0  0  0
    8.8412  -15.6920   23.6636 C   0  0  0  0  0  0  0  0  0  0  0  0
   10.0405  -16.8969   25.3239 O   0  0  0  0  0  0  0  0  0  0  0  0
   10.2417  -17.3824   26.4682 C   0  0  0  0  0  0  0  0  0  0  0  0
    6.2045  -13.9778   26.2628 C   0  0  0  0  0  0  0  0  0  0  0  0
    5.7883  -12.6804   26.4747 N   0  0  0  0  0  0  0  0  0  0  0  0
   10.7166  -17.5483   24.2490 C   0  0  1  0  0  0  0  0  0  0  0  0
   11.4669  -18.7684   24.4054 C   0  0  0  0  0  0  0  0  0  0  0  0
   11.3990  -19.6900   23.2343 C   0  0  0  0  0  0  0  0  0  0  0  0
   11.8038  -19.0935   21.9488 O   0  0  0  0  0  0  0  0  0  0  0  0
   10.9911  -18.3785   21.3215 C   0  0  0  0  0  0  0  0  0  0  0  0
   12.8447  -18.5453   24.8560 O   0  0  0  0  0  0  0  0  0  0  0  0
   13.6679  -19.6067   25.1727 O   0  0  0  0  0  0  0  0  0  0  0  0
   13.0570  -19.2924   21.4004 O   0  0  0  0  0  0  0  0  0  0  0  0
  2  3  2  0
  2  1  1  0
  4  2  1  0
  5  4  1  0
  6  5  1  0
  7  8  1  0
  7  6  1  0
  8  9  1  1
 10  8  1  0
 10 11  2  0
 12 13  1  0
 13 23  2  0
 13 14  1  0
 14 15  2  0
 15 16  1  0
 16 17  1  0
 18 17  1  1
 18 19  1  0
 19 10  1  0
 20 18  1  0
 21 20  2  0
 22 16  2  0
 23 22  1  0
 24 20  1  0
 25 24  1  0
 25 29  1  0
 25 26  1  1
 27 26  1  0
 27 28  2  0
 29 30  1  0
 31 27  1  0
 32 29  2  0
M  END
$$$$
