RYD.pdb
     RDKit          3D

 32 32  0  0  1  0  0  0  0  0999 V2000
    7.9103  -13.4974   15.1666 N   0  0  0  0  0  0  0  0  0  0  0  0
    8.3683  -14.6435   14.4795 C   0  0  0  0  0  0  0  0  0  0  0  0
    7.9490  -14.9069   13.3018 N   0  0  0  0  0  0  0  0  0  0  0  0
    9.3116  -15.5319   15.0916 N   0  0  0  0  0  0  0  0  0  0  0  0
    9.0526  -16.1365   16.3815 C   0  0  0  0  0  0  0  0  0  0  0  0
    8.4223  -15.0744   17.2710 C   0  0  0  0  0  0  0  0  0  0  0  0
    9.3547  -14.6663   18.3799 C   0  0  0  0  0  0  0  0  0  0  0  0
    9.3554  -15.5856   19.5524 C   0  0  2  0  0  0  0  0  0  0  0  0
    8.1459  -16.4110   19.4323 N   0  0  0  0  0  0  0  0  0  0  0  0
    9.4112  -14.9220   20.8652 C   0  0  0  0  0  0  0  0  0  0  0  0
   10.3172  -14.1793   21.2592 O   0  0  0  0  0  0  0  0  0  0  0  0
    8.3262  -15.6525   12.6963 O   0  0  0  0  0  0  0  0  0  0  0  0
    6.7108  -11.6866   28.6087 C   0  0  0  0  0  0  0  0  0  0  0  0
    6.7634  -12.2618   27.3396 C   0  0  0  0  0  0  0  0  0  0  0  0
    7.2051  -11.5385   26.2387 C   0  0  0  0  0  0  0  0  0  0  0  0
    7.2478  -12.1328   24.9897 C   0  0  0  0  0  0  0  0  0  0  0  0
    6.8601  -13.4357   24.8069 C   0  0  0  0  0  0  0  0  0  0  0  0
    6.9153  -14.0429   23.4713 C   0  0  1  0  0  0  0  0  0  0  0  0
    8.2714  -14.5333   23.0731 N   0  0  0  0  0  0  0  0  0  0  0  0
    8.3350  -15.1390   21.7836 C   0  0  0  0  0  0  0  0  0  0  0  0
    8.8963  -15.4152   24.0761 O   0  0  0  0  0  0  0  0  0  0  0  0
    8.9539  -15.1657   25.3090 C   0  0  0  0  0  0  0  0  0  0  0  0
    6.4224  -14.1637   25.8783 C   0  0  0  0  0  0  0  0  0  0  0  0
    6.3791  -13.5734   27.1237 N   0  0  0  0  0  0  0  0  0  0  0  0
    9.4892  -16.6473   23.6669 C   0  0  1  0  0  0  0  0  0  0  0  0
   10.1510  -17.5503   24.5739 C   0  0  0  0  0  0  0  0  0  0  0  0
    9.9969  -18.9938   24.2308 C   0  0  0  0  0  0  0  0  0  0  0  0
   10.7093  -19.9252   25.1237 O   0  0  0  0  0  0  0  0  0  0  0  0
   11.7872  -20.4347   24.7446 C   0  0  0  0  0  0  0  0  0  0  0  0
   11.5487  -17.1881   24.8320 O   0  0  0  0  0  0  0  0  0  0  0  0
   12.1647  -16.1824   24.1152 O   0  0  0  0  0  0  0  0  0  0  0  0
   10.2321  -20.2637   26.3761 O   0  0  0  0  0  0  0  0  0  0  0  0
  2  3  2  0
  2  1  1  0
  4  2  1  0
  5  4  1  0
  6  5  1  0
  7  8  1  0
  7  6  1  0
  8  9  1  1
 10  8  1  0
 10 11  2  0
 12 13  1  0
 13 23  2  0
 13 14  1  0
 14 15  2  0
 15 16  1  0
 16 17  1  0
 18 17  1  6
 18 19  1  0
 19 10  1  0
 20 18  1  0
 21 20  2  0
 22 16  2  0
 23 22  1  0
 24 20  1  0
 25 24  1  0
 25 29  1  0
 25 26  1  1
 27 26  1  0
 27 28  2  0
 29 30  1  0
 31 27  1  0
 32 29  2  0
M  END
$$$$
