RYD.pdb
     RDKit          3D

 32 32  0  0  1  0  0  0  0  0999 V2000
    9.8150  -15.5884   15.7587 N   0  0  0  0  0  0  0  0  0  0  0  0
    8.4751  -15.2320   15.4886 C   0  0  0  0  0  0  0  0  0  0  0  0
    8.2060  -14.2568   14.7083 N   0  0  0  0  0  0  0  0  0  0  0  0
    7.3933  -15.9578   16.0856 N   0  0  0  0  0  0  0  0  0  0  0  0
    7.3340  -16.1855   17.5142 C   0  0  0  0  0  0  0  0  0  0  0  0
    7.7189  -14.8852   18.2053 C   0  0  0  0  0  0  0  0  0  0  0  0
    7.6442  -15.0191   19.7027 C   0  0  0  0  0  0  0  0  0  0  0  0
    7.8694  -13.7474   20.4457 C   0  0  2  0  0  0  0  0  0  0  0  0
    8.5198  -12.8267   19.5035 N   0  0  0  0  0  0  0  0  0  0  0  0
    8.6576  -13.8787   21.6820 C   0  0  0  0  0  0  0  0  0  0  0  0
    9.8587  -13.6129   21.8024 O   0  0  0  0  0  0  0  0  0  0  0  0
    7.2538  -13.9270   14.4859 O   0  0  0  0  0  0  0  0  0  0  0  0
   10.2595  -15.2072   30.2950 C   0  0  0  0  0  0  0  0  0  0  0  0
    9.6401  -14.9808   29.0665 C   0  0  0  0  0  0  0  0  0  0  0  0
    9.6109  -13.7137   28.4973 C   0  0  0  0  0  0  0  0  0  0  0  0
    8.9896  -13.5155   27.2767 C   0  0  0  0  0  0  0  0  0  0  0  0
    8.3933  -14.5515   26.6041 C   0  0  0  0  0  0  0  0  0  0  0  0
    7.7410  -14.3147   25.3102 C   0  0  1  0  0  0  0  0  0  0  0  0
    8.6455  -14.4636   24.1280 N   0  0  0  0  0  0  0  0  0  0  0  0
    7.9996  -14.3528   22.8614 C   0  0  0  0  0  0  0  0  0  0  0  0
    9.4707  -15.6850   24.1684 O   0  0  0  0  0  0  0  0  0  0  0  0
   10.1332  -16.0660   25.1691 C   0  0  0  0  0  0  0  0  0  0  0  0
    8.4117  -15.8057   27.1483 C   0  0  0  0  0  0  0  0  0  0  0  0
    9.0302  -16.0054   28.3644 N   0  0  0  0  0  0  0  0  0  0  0  0
    9.5537  -16.5239   23.0168 C   0  0  1  0  0  0  0  0  0  0  0  0
   10.3657  -17.7127   22.9567 C   0  0  0  0  0  0  0  0  0  0  0  0
    9.8395  -18.7753   22.0517 C   0  0  0  0  0  0  0  0  0  0  0  0
    8.3791  -18.9677   22.1011 O   0  0  0  0  0  0  0  0  0  0  0  0
    7.8362  -19.2661   23.1880 C   0  0  0  0  0  0  0  0  0  0  0  0
   11.7847  -17.4312   22.7148 O   0  0  0  0  0  0  0  0  0  0  0  0
   12.2225  -16.1433   22.4816 O   0  0  0  0  0  0  0  0  0  0  0  0
    7.5745  -18.8312   20.9854 O   0  0  0  0  0  0  0  0  0  0  0  0
  2  3  2  0
  2  1  1  0
  4  2  1  0
  5  4  1  0
  6  5  1  0
  7  8  1  0
  7  6  1  0
  8  9  1  6
 10  8  1  0
 10 11  2  0
 12 13  1  0
 13 23  2  0
 13 14  1  0
 14 15  2  0
 15 16  1  0
 16 17  1  0
 18 17  1  1
 18 19  1  0
 19 10  1  0
 20 18  1  0
 21 20  2  0
 22 16  2  0
 23 22  1  0
 24 20  1  0
 25 24  1  0
 25 29  1  0
 25 26  1  1
 27 26  1  0
 27 28  2  0
 29 30  1  0
 31 27  1  0
 32 29  2  0
M  END
$$$$
