RYD.pdb
     RDKit          3D

 32 32  0  0  1  0  0  0  0  0999 V2000
    8.6167  -14.0423   16.8612 N   0  0  0  0  0  0  0  0  0  0  0  0
    8.2151  -13.1753   17.9017 C   0  0  0  0  0  0  0  0  0  0  0  0
    8.6913  -11.9926   17.9831 N   0  0  0  0  0  0  0  0  0  0  0  0
    7.2665  -13.6072   18.8851 N   0  0  0  0  0  0  0  0  0  0  0  0
    6.8769  -14.9970   18.9995 C   0  0  0  0  0  0  0  0  0  0  0  0
    7.0103  -15.3949   20.4625 C   0  0  0  0  0  0  0  0  0  0  0  0
    8.3633  -15.0252   21.0084 C   0  0  0  0  0  0  0  0  0  0  0  0
    9.0582  -16.1286   21.7291 C   0  0  2  0  0  0  0  0  0  0  0  0
    8.0550  -17.1807   21.9419 N   0  0  0  0  0  0  0  0  0  0  0  0
    9.6922  -15.7414   23.0000 C   0  0  0  0  0  0  0  0  0  0  0  0
   10.6131  -14.9269   23.1271 O   0  0  0  0  0  0  0  0  0  0  0  0
    8.4499  -11.3108   18.7192 O   0  0  0  0  0  0  0  0  0  0  0  0
    5.6882  -10.9989   25.7618 C   0  0  0  0  0  0  0  0  0  0  0  0
    6.4226  -12.1689   25.9519 C   0  0  0  0  0  0  0  0  0  0  0  0
    7.7872  -12.1288   26.2097 C   0  0  0  0  0  0  0  0  0  0  0  0
    8.4932  -13.3045   26.3948 C   0  0  0  0  0  0  0  0  0  0  0  0
    7.8728  -14.5261   26.3296 C   0  0  0  0  0  0  0  0  0  0  0  0
    8.6446  -15.7588   26.5299 C   0  0  2  0  0  0  0  0  0  0  0  0
    9.7057  -15.9952   25.5021 N   0  0  0  0  0  0  0  0  0  0  0  0
    9.2192  -16.3459   24.2082 C   0  0  0  0  0  0  0  0  0  0  0  0
   10.7369  -16.9578   25.9314 O   0  0  0  0  0  0  0  0  0  0  0  0
   11.2953  -16.9497   27.0599 C   0  0  0  0  0  0  0  0  0  0  0  0
    6.5304  -14.5858   26.0768 C   0  0  0  0  0  0  0  0  0  0  0  0
    5.8250  -13.4155   25.8921 N   0  0  0  0  0  0  0  0  0  0  0  0
   11.1624  -17.9872   25.0391 C   0  0  1  0  0  0  0  0  0  0  0  0
   12.1451  -18.9825   25.3852 C   0  0  0  0  0  0  0  0  0  0  0  0
   11.7054  -20.3898   25.1586 C   0  0  0  0  0  0  0  0  0  0  0  0
   10.9832  -21.0053   26.2863 O   0  0  0  0  0  0  0  0  0  0  0  0
   10.8136  -20.3487   27.3376 C   0  0  0  0  0  0  0  0  0  0  0  0
   13.4664  -18.7148   24.8075 O   0  0  0  0  0  0  0  0  0  0  0  0
   14.5388  -19.5406   25.0770 O   0  0  0  0  0  0  0  0  0  0  0  0
   10.4796  -22.2915   26.2316 O   0  0  0  0  0  0  0  0  0  0  0  0
  2  3  2  0
  2  1  1  0
  4  2  1  0
  5  4  1  0
  6  5  1  0
  7  8  1  0
  7  6  1  0
  8  9  1  1
 10  8  1  0
 10 11  2  0
 12 13  1  0
 13 23  2  0
 13 14  1  0
 14 15  2  0
 15 16  1  0
 16 17  1  0
 18 17  1  6
 18 19  1  0
 19 10  1  0
 20 18  1  0
 21 20  2  0
 22 16  2  0
 23 22  1  0
 24 20  1  0
 25 24  1  0
 25 29  1  0
 25 26  1  1
 27 26  1  0
 27 28  2  0
 29 30  1  0
 31 27  1  0
 32 29  2  0
M  END
$$$$
