RYD.pdb
     RDKit          3D

 32 32  0  0  1  0  0  0  0  0999 V2000
    9.3180  -16.2997   14.4368 N   0  0  0  0  0  0  0  0  0  0  0  0
    8.6251  -15.1856   13.9131 C   0  0  0  0  0  0  0  0  0  0  0  0
    8.9216  -14.7174   12.7621 N   0  0  0  0  0  0  0  0  0  0  0  0
    7.5770  -14.5602   14.6642 N   0  0  0  0  0  0  0  0  0  0  0  0
    7.2533  -14.9874   16.0093 C   0  0  0  0  0  0  0  0  0  0  0  0
    8.5359  -14.9470   16.8277 C   0  0  0  0  0  0  0  0  0  0  0  0
    8.2676  -15.2412   18.2793 C   0  0  0  0  0  0  0  0  0  0  0  0
    7.6779  -14.1030   19.0387 C   0  0  2  0  0  0  0  0  0  0  0  0
    7.8464  -12.9113   18.1960 N   0  0  0  0  0  0  0  0  0  0  0  0
    8.2480  -13.8850   20.3782 C   0  0  0  0  0  0  0  0  0  0  0  0
    9.3234  -13.3262   20.6215 O   0  0  0  0  0  0  0  0  0  0  0  0
    8.4476  -13.9187   12.3121 O   0  0  0  0  0  0  0  0  0  0  0  0
    8.1673  -13.0839   29.2002 C   0  0  0  0  0  0  0  0  0  0  0  0
    7.8076  -13.3016   27.8707 C   0  0  0  0  0  0  0  0  0  0  0  0
    7.7666  -14.5834   27.3364 C   0  0  0  0  0  0  0  0  0  0  0  0
    7.4062  -14.7726   26.0137 C   0  0  0  0  0  0  0  0  0  0  0  0
    7.0838  -13.7131   25.2044 C   0  0  0  0  0  0  0  0  0  0  0  0
    6.7045  -13.9408   23.8045 C   0  0  1  0  0  0  0  0  0  0  0  0
    7.8608  -14.0269   22.8592 N   0  0  0  0  0  0  0  0  0  0  0  0
    7.5129  -14.3508   21.5146 C   0  0  0  0  0  0  0  0  0  0  0  0
    8.9401  -14.9150   23.3289 O   0  0  0  0  0  0  0  0  0  0  0  0
    9.7556  -14.6252   24.2436 C   0  0  0  0  0  0  0  0  0  0  0  0
    7.1184  -12.4441   25.7124 C   0  0  0  0  0  0  0  0  0  0  0  0
    7.4772  -12.2534   27.0300 N   0  0  0  0  0  0  0  0  0  0  0  0
    9.1098  -16.2016   22.7349 C   0  0  2  0  0  0  0  0  0  0  0  0
   10.0741  -17.1682   23.1951 C   0  0  0  0  0  0  0  0  0  0  0  0
   11.4911  -16.8269   22.8774 C   0  0  0  0  0  0  0  0  0  0  0  0
   11.8298  -16.8486   21.4432 O   0  0  0  0  0  0  0  0  0  0  0  0
   12.7135  -16.0762   21.0099 C   0  0  0  0  0  0  0  0  0  0  0  0
    9.8952  -17.5370   24.6034 O   0  0  0  0  0  0  0  0  0  0  0  0
   10.6576  -18.5336   25.1779 O   0  0  0  0  0  0  0  0  0  0  0  0
   11.2058  -17.6951   20.5461 O   0  0  0  0  0  0  0  0  0  0  0  0
  2  3  2  0
  2  1  1  0
  4  2  1  0
  5  4  1  0
  6  5  1  0
  7  8  1  0
  7  6  1  0
  8  9  1  6
 10  8  1  0
 10 11  2  0
 12 13  1  0
 13 23  2  0
 13 14  1  0
 14 15  2  0
 15 16  1  0
 16 17  1  0
 18 17  1  6
 18 19  1  0
 19 10  1  0
 20 18  1  0
 21 20  2  0
 22 16  2  0
 23 22  1  0
 24 20  1  0
 25 24  1  0
 25 29  1  0
 25 26  1  6
 27 26  1  0
 27 28  2  0
 29 30  1  0
 31 27  1  0
 32 29  2  0
M  END
$$$$
