RYD.pdb
     RDKit          3D

 32 32  0  0  1  0  0  0  0  0999 V2000
    7.7759  -12.5991   19.2220 N   0  0  0  0  0  0  0  0  0  0  0  0
    7.2550  -12.9920   17.9691 C   0  0  0  0  0  0  0  0  0  0  0  0
    6.3005  -12.3381   17.4274 N   0  0  0  0  0  0  0  0  0  0  0  0
    7.7879  -14.1319   17.2832 N   0  0  0  0  0  0  0  0  0  0  0  0
    8.3838  -15.2369   18.0045 C   0  0  0  0  0  0  0  0  0  0  0  0
    9.5207  -14.6780   18.8480 C   0  0  0  0  0  0  0  0  0  0  0  0
   10.2755  -15.7777   19.5456 C   0  0  0  0  0  0  0  0  0  0  0  0
    9.5480  -16.3915   20.6919 C   0  0  2  0  0  0  0  0  0  0  0  0
    8.1425  -15.9862   20.5554 N   0  0  0  0  0  0  0  0  0  0  0  0
   10.0702  -16.0397   22.0225 C   0  0  0  0  0  0  0  0  0  0  0  0
   11.2064  -15.6158   22.2617 O   0  0  0  0  0  0  0  0  0  0  0  0
    5.9105  -12.5331   16.4921 O   0  0  0  0  0  0  0  0  0  0  0  0
   10.3028  -14.4535   30.6991 C   0  0  0  0  0  0  0  0  0  0  0  0
    9.9023  -14.6259   29.3746 C   0  0  0  0  0  0  0  0  0  0  0  0
   10.1084  -13.6331   28.4249 C   0  0  0  0  0  0  0  0  0  0  0  0
    9.7016  -13.8291   27.1167 C   0  0  0  0  0  0  0  0  0  0  0  0
    9.0916  -14.9942   26.7271 C   0  0  0  0  0  0  0  0  0  0  0  0
    8.6698  -15.1774   25.3328 C   0  0  1  0  0  0  0  0  0  0  0  0
    9.6292  -15.9645   24.4973 N   0  0  0  0  0  0  0  0  0  0  0  0
    9.2073  -16.1922   23.1542 C   0  0  0  0  0  0  0  0  0  0  0  0
   10.0445  -17.2359   25.1181 O   0  0  0  0  0  0  0  0  0  0  0  0
    9.2940  -18.2360   25.2672 C   0  0  0  0  0  0  0  0  0  0  0  0
    8.8802  -15.9829   27.6476 C   0  0  0  0  0  0  0  0  0  0  0  0
    9.2848  -15.7897   28.9516 N   0  0  0  0  0  0  0  0  0  0  0  0
   11.3800  -17.3889   25.5975 C   0  0  1  0  0  0  0  0  0  0  0  0
   11.8941  -18.6220   26.1371 C   0  0  0  0  0  0  0  0  0  0  0  0
   13.3087  -18.9165   25.7662 C   0  0  0  0  0  0  0  0  0  0  0  0
   13.6168  -18.7815   24.3313 O   0  0  0  0  0  0  0  0  0  0  0  0
   12.7820  -19.1722   23.4853 C   0  0  0  0  0  0  0  0  0  0  0  0
   11.6574  -18.7652   27.5775 O   0  0  0  0  0  0  0  0  0  0  0  0
   12.0030  -19.9248   28.2411 O   0  0  0  0  0  0  0  0  0  0  0  0
   14.8020  -18.2356   23.8749 O   0  0  0  0  0  0  0  0  0  0  0  0
  2  3  2  0
  2  1  1  0
  4  2  1  0
  5  4  1  0
  6  5  1  0
  7  8  1  0
  7  6  1  0
  8  9  1  1
 10  8  1  0
 10 11  2  0
 12 13  1  0
 13 23  2  0
 13 14  1  0
 14 15  2  0
 15 16  1  0
 16 17  1  0
 18 17  1  6
 18 19  1  0
 19 10  1  0
 20 18  1  0
 21 20  2  0
 22 16  2  0
 23 22  1  0
 24 20  1  0
 25 24  1  0
 25 29  1  0
 25 26  1  1
 27 26  1  0
 27 28  2  0
 29 30  1  0
 31 27  1  0
 32 29  2  0
M  END
$$$$
