RYD.pdb
     RDKit          3D

 32 32  0  0  1  0  0  0  0  0999 V2000
    8.2067  -12.6779   16.8929 N   0  0  0  0  0  0  0  0  0  0  0  0
    7.6684  -13.6212   15.9896 C   0  0  0  0  0  0  0  0  0  0  0  0
    7.1020  -13.2386   14.9103 N   0  0  0  0  0  0  0  0  0  0  0  0
    7.7478  -15.0247   16.2681 N   0  0  0  0  0  0  0  0  0  0  0  0
    8.3193  -15.5185   17.5033 C   0  0  0  0  0  0  0  0  0  0  0  0
    7.2259  -15.4901   18.5617 C   0  0  0  0  0  0  0  0  0  0  0  0
    7.7390  -14.9343   19.8630 C   0  0  0  0  0  0  0  0  0  0  0  0
    8.4267  -15.9325   20.7294 C   0  0  2  0  0  0  0  0  0  0  0  0
    7.4051  -16.9116   21.1246 N   0  0  0  0  0  0  0  0  0  0  0  0
    9.1031  -15.3720   21.9107 C   0  0  0  0  0  0  0  0  0  0  0  0
   10.0163  -14.5393   21.8906 O   0  0  0  0  0  0  0  0  0  0  0  0
    6.7955  -13.8678   14.1519 O   0  0  0  0  0  0  0  0  0  0  0  0
   10.8225  -14.3656   30.5709 C   0  0  0  0  0  0  0  0  0  0  0  0
   10.2058  -14.5660   29.3365 C   0  0  0  0  0  0  0  0  0  0  0  0
    9.7047  -13.4997   28.6001 C   0  0  0  0  0  0  0  0  0  0  0  0
    9.0970  -13.7254   27.3775 C   0  0  0  0  0  0  0  0  0  0  0  0
    8.9743  -14.9921   26.8658 C   0  0  0  0  0  0  0  0  0  0  0  0
    8.3255  -15.2047   25.5660 C   0  0  1  0  0  0  0  0  0  0  0  0
    9.2757  -15.3495   24.4196 N   0  0  0  0  0  0  0  0  0  0  0  0
    8.6855  -15.8128   23.2069 C   0  0  0  0  0  0  0  0  0  0  0  0
   10.4674  -16.1562   24.7412 O   0  0  0  0  0  0  0  0  0  0  0  0
   10.9866  -16.2377   25.8854 C   0  0  0  0  0  0  0  0  0  0  0  0
    9.4613  -16.0543   27.5759 C   0  0  0  0  0  0  0  0  0  0  0  0
   10.0672  -15.8315   28.7944 N   0  0  0  0  0  0  0  0  0  0  0  0
   11.1097  -16.9134   23.7160 C   0  0  1  0  0  0  0  0  0  0  0  0
   12.2352  -17.7806   23.9557 C   0  0  0  0  0  0  0  0  0  0  0  0
   12.0472  -18.7398   25.0825 C   0  0  0  0  0  0  0  0  0  0  0  0
   13.1763  -19.6587   25.3124 O   0  0  0  0  0  0  0  0  0  0  0  0
   13.2315  -20.7340   24.6753 C   0  0  0  0  0  0  0  0  0  0  0  0
   12.7240  -18.4414   22.7409 O   0  0  0  0  0  0  0  0  0  0  0  0
   12.0344  -18.3366   21.5501 O   0  0  0  0  0  0  0  0  0  0  0  0
   14.1884  -19.3803   26.2119 O   0  0  0  0  0  0  0  0  0  0  0  0
  2  3  2  0
  2  1  1  0
  4  2  1  0
  5  4  1  0
  6  5  1  0
  7  8  1  0
  7  6  1  0
  8  9  1  1
 10  8  1  0
 10 11  2  0
 12 13  1  0
 13 23  2  0
 13 14  1  0
 14 15  2  0
 15 16  1  0
 16 17  1  0
 18 17  1  6
 18 19  1  0
 19 10  1  0
 20 18  1  0
 21 20  2  0
 22 16  2  0
 23 22  1  0
 24 20  1  0
 25 24  1  0
 25 29  1  0
 25 26  1  1
 27 26  1  0
 27 28  2  0
 29 30  1  0
 31 27  1  0
 32 29  2  0
M  END
$$$$
