IYV.pdb
     RDKit          3D

 28 28  0  0  1  0  0  0  0  0999 V2000
   25.6642   -8.7335  -23.0571 C   0  0  0  0  0  0  0  0  0  0  0  0
   25.7011   -9.6566  -21.8809 C   0  0  0  0  0  0  0  0  0  0  0  0
   24.5436   -9.4216  -20.9660 C   0  0  2  0  0  0  0  0  0  0  0  0
   24.5238   -7.9814  -20.4647 C   0  0  0  0  0  0  0  0  0  0  0  0
   24.6281  -10.3828  -19.7893 C   0  0  2  0  0  0  0  0  0  0  0  0
   24.5509  -11.7330  -20.3396 N   0  0  0  0  0  0  0  0  0  0  0  0
   23.5164  -10.2412  -18.8337 C   0  0  0  0  0  0  0  0  0  0  0  0
   22.3559  -10.5384  -19.2089 O   0  0  0  0  0  0  0  0  0  0  0  0
   23.4413  -16.0936  -16.7525 O   0  0  0  0  0  0  0  0  0  0  0  0
   23.2829  -14.7405  -16.4265 C   0  0  0  0  0  0  0  0  0  0  0  0
   24.3081  -14.0071  -15.8723 C   0  0  0  0  0  0  0  0  0  0  0  0
   24.1303  -12.6784  -15.5597 C   0  0  0  0  0  0  0  0  0  0  0  0
   22.9460  -12.0076  -15.7739 C   0  0  0  0  0  0  0  0  0  0  0  0
   22.8108  -10.5944  -15.4198 C   0  0  0  0  0  0  0  0  0  0  0  0
   22.5303   -9.6840  -16.6126 C   0  0  2  0  0  0  0  0  0  0  0  0
   23.6883   -9.7873  -17.5011 N   0  0  0  0  0  0  0  0  0  0  0  0
   22.2812   -8.3138  -16.1670 C   0  0  0  0  0  0  0  0  0  0  0  0
   23.2156   -7.5658  -15.7113 O   0  0  0  0  0  0  0  0  0  0  0  0
   21.9200  -12.7591  -16.3333 C   0  0  0  0  0  0  0  0  0  0  0  0
   22.0871  -14.0916  -16.6506 C   0  0  0  0  0  0  0  0  0  0  0  0
   21.2926   -5.4053  -18.1147 C   0  0  0  0  0  0  0  0  0  0  0  0
   20.3175   -5.4722  -16.9738 C   0  0  1  0  0  0  0  0  0  0  0  0
   19.0568   -6.1403  -17.4741 C   0  0  0  0  0  0  0  0  0  0  0  0
   20.8223   -6.2868  -15.8063 C   0  0  2  0  0  0  0  0  0  0  0  0
   21.0112   -7.6921  -16.1959 N   0  0  0  0  0  0  0  0  0  0  0  0
   19.7779   -6.2772  -14.7577 C   0  0  0  0  0  0  0  0  0  0  0  0
   19.5836   -5.2336  -14.0936 O   0  0  0  0  0  0  0  0  0  0  0  0
   18.9995   -7.3859  -14.4787 O   0  0  0  0  0  0  0  0  0  0  0  0
  2  1  1  0
  3  2  1  0
  3  4  1  1
  5  3  1  0
  5  6  1  6
  7  8  2  0
  7  5  1  0
  9 10  1  0
 10 11  2  0
 11 12  1  0
 13 14  1  0
 13 12  2  0
 15 14  1  1
 15 16  1  0
 16  7  1  0
 17 15  1  0
 17 18  2  0
 19 13  1  0
 20 19  2  0
 20 10  1  0
 22 21  1  6
 23 22  1  0
 24 22  1  0
 24 25  1  6
 25 17  1  0
 26 24  1  0
 27 26  2  0
 28 26  1  0
M  END
$$$$
