IYV.pdb
     RDKit          3D

 28 28  0  0  1  0  0  0  0  0999 V2000
   18.8027  -22.4717  -12.4728 C   0  0  0  0  0  0  0  0  0  0  0  0
   19.8765  -22.3234  -11.4424 C   0  0  0  0  0  0  0  0  0  0  0  0
   21.0798  -21.6377  -12.0027 C   0  0  2  0  0  0  0  0  0  0  0  0
   21.6592  -22.4185  -13.1775 C   0  0  0  0  0  0  0  0  0  0  0  0
   22.1276  -21.4852  -10.9097 C   0  0  2  0  0  0  0  0  0  0  0  0
   21.5467  -20.6235   -9.8841 N   0  0  0  0  0  0  0  0  0  0  0  0
   23.3664  -20.8352  -11.3697 C   0  0  0  0  0  0  0  0  0  0  0  0
   23.3270  -19.6243  -11.6986 O   0  0  0  0  0  0  0  0  0  0  0  0
   27.0666  -18.9956   -6.0282 O   0  0  0  0  0  0  0  0  0  0  0  0
   27.0485  -19.5527   -7.3134 C   0  0  0  0  0  0  0  0  0  0  0  0
   26.8523  -18.7763   -8.4335 C   0  0  0  0  0  0  0  0  0  0  0  0
   26.8383  -19.3448   -9.6870 C   0  0  0  0  0  0  0  0  0  0  0  0
   27.0150  -20.6942   -9.9026 C   0  0  0  0  0  0  0  0  0  0  0  0
   26.9878  -21.2464  -11.2572 C   0  0  0  0  0  0  0  0  0  0  0  0
   25.7604  -20.8351  -12.0662 C   0  0  2  0  0  0  0  0  0  0  0  0
   24.6120  -21.5077  -11.4581 N   0  0  0  0  0  0  0  0  0  0  0  0
   25.9344  -21.1795  -13.4766 C   0  0  0  0  0  0  0  0  0  0  0  0
   26.1204  -22.3858  -13.8647 O   0  0  0  0  0  0  0  0  0  0  0  0
   27.2119  -21.4659   -8.7641 C   0  0  0  0  0  0  0  0  0  0  0  0
   27.2278  -20.9067   -7.5027 C   0  0  0  0  0  0  0  0  0  0  0  0
   24.9614  -20.2175  -18.2069 C   0  0  0  0  0  0  0  0  0  0  0  0
   24.8456  -20.0033  -16.7245 C   0  0  1  0  0  0  0  0  0  0  0  0
   23.5568  -20.6421  -16.2586 C   0  0  0  0  0  0  0  0  0  0  0  0
   25.9691  -20.6404  -15.9414 C   0  0  2  0  0  0  0  0  0  0  0  0
   25.9135  -20.2350  -14.5290 N   0  0  0  0  0  0  0  0  0  0  0  0
   27.2486  -20.1249  -16.4777 C   0  0  0  0  0  0  0  0  0  0  0  0
   27.6544  -18.9957  -16.1197 O   0  0  0  0  0  0  0  0  0  0  0  0
   28.0224  -20.8475  -17.3677 O   0  0  0  0  0  0  0  0  0  0  0  0
  2  1  1  0
  3  2  1  0
  3  4  1  6
  5  3  1  0
  5  6  1  1
  7  8  2  0
  7  5  1  0
  9 10  1  0
 10 11  2  0
 11 12  1  0
 13 14  1  0
 13 12  2  0
 15 14  1  1
 15 16  1  0
 16  7  1  0
 17 15  1  0
 17 18  2  0
 19 13  1  0
 20 19  2  0
 20 10  1  0
 22 21  1  6
 23 22  1  0
 24 22  1  0
 24 25  1  1
 25 17  1  0
 26 24  1  0
 27 26  2  0
 28 26  1  0
M  END
$$$$
