IYV.pdb
     RDKit          3D

 28 28  0  0  1  0  0  0  0  0999 V2000
   22.1214  -10.0663  -22.8741 C   0  0  0  0  0  0  0  0  0  0  0  0
   20.9982  -10.6286  -22.0621 C   0  0  0  0  0  0  0  0  0  0  0  0
   20.7056   -9.7756  -20.8709 C   0  0  2  0  0  0  0  0  0  0  0  0
   20.7183   -8.2957  -21.2390 C   0  0  0  0  0  0  0  0  0  0  0  0
   21.7372  -10.0528  -19.7869 C   0  0  2  0  0  0  0  0  0  0  0  0
   21.6880  -11.4861  -19.5128 N   0  0  0  0  0  0  0  0  0  0  0  0
   21.4569   -9.3600  -18.5179 C   0  0  0  0  0  0  0  0  0  0  0  0
   20.4310   -9.6798  -17.8689 O   0  0  0  0  0  0  0  0  0  0  0  0
   21.1940   -7.1406  -10.3553 O   0  0  0  0  0  0  0  0  0  0  0  0
   21.6246   -7.3301  -11.6748 C   0  0  0  0  0  0  0  0  0  0  0  0
   21.8815   -8.5864  -12.1765 C   0  0  0  0  0  0  0  0  0  0  0  0
   22.3037   -8.7494  -13.4765 C   0  0  0  0  0  0  0  0  0  0  0  0
   22.4937   -7.6952  -14.3430 C   0  0  0  0  0  0  0  0  0  0  0  0
   22.9472   -7.9254  -15.7149 C   0  0  0  0  0  0  0  0  0  0  0  0
   21.8861   -7.6322  -16.7725 C   0  0  2  0  0  0  0  0  0  0  0  0
   22.2920   -8.3458  -17.9836 N   0  0  0  0  0  0  0  0  0  0  0  0
   21.7541   -6.1913  -16.9836 C   0  0  0  0  0  0  0  0  0  0  0  0
   22.6383   -5.5120  -17.6138 O   0  0  0  0  0  0  0  0  0  0  0  0
   22.2311   -6.4333  -13.8241 C   0  0  0  0  0  0  0  0  0  0  0  0
   21.8074   -6.2582  -12.5227 C   0  0  0  0  0  0  0  0  0  0  0  0
   19.3327   -4.0942  -18.8938 C   0  0  0  0  0  0  0  0  0  0  0  0
   19.3433   -3.5872  -17.4797 C   0  0  1  0  0  0  0  0  0  0  0  0
   18.1718   -4.2064  -16.7516 C   0  0  0  0  0  0  0  0  0  0  0  0
   20.5928   -3.9666  -16.7207 C   0  0  2  0  0  0  0  0  0  0  0  0
   20.6597   -5.4224  -16.5240 N   0  0  0  0  0  0  0  0  0  0  0  0
   20.5085   -3.3628  -15.3721 C   0  0  0  0  0  0  0  0  0  0  0  0
   20.1719   -4.0760  -14.3995 O   0  0  0  0  0  0  0  0  0  0  0  0
   20.7895   -2.0285  -15.1400 O   0  0  0  0  0  0  0  0  0  0  0  0
  2  1  1  0
  3  2  1  0
  3  4  1  6
  5  3  1  0
  5  6  1  1
  7  8  2  0
  7  5  1  0
  9 10  1  0
 10 11  2  0
 11 12  1  0
 13 14  1  0
 13 12  2  0
 15 14  1  1
 15 16  1  0
 16  7  1  0
 17 15  1  0
 17 18  2  0
 19 13  1  0
 20 19  2  0
 20 10  1  0
 22 21  1  6
 23 22  1  0
 24 22  1  0
 24 25  1  1
 25 17  1  0
 26 24  1  0
 27 26  2  0
 28 26  1  0
M  END
$$$$
