IYV.pdb
     RDKit          3D

 28 28  0  0  1  0  0  0  0  0999 V2000
   29.3290  -20.6873  -20.5270 C   0  0  0  0  0  0  0  0  0  0  0  0
   28.5356  -19.9349  -19.5065 C   0  0  0  0  0  0  0  0  0  0  0  0
   28.5588  -20.6233  -18.1808 C   0  0  2  0  0  0  0  0  0  0  0  0
   28.0640  -22.0609  -18.3001 C   0  0  0  0  0  0  0  0  0  0  0  0
   27.6904  -19.8523  -17.1973 C   0  0  2  0  0  0  0  0  0  0  0  0
   28.2282  -18.4965  -17.1308 N   0  0  0  0  0  0  0  0  0  0  0  0
   27.7241  -20.3984  -15.8300 C   0  0  0  0  0  0  0  0  0  0  0  0
   27.2175  -21.5272  -15.6177 O   0  0  0  0  0  0  0  0  0  0  0  0
   31.5452  -23.0689   -8.6488 O   0  0  0  0  0  0  0  0  0  0  0  0
   30.9759  -22.2134   -9.6009 C   0  0  0  0  0  0  0  0  0  0  0  0
   31.4531  -22.1502  -10.8909 C   0  0  0  0  0  0  0  0  0  0  0  0
   30.8783  -21.3022  -11.8104 C   0  0  0  0  0  0  0  0  0  0  0  0
   29.8140  -20.4796  -11.5120 C   0  0  0  0  0  0  0  0  0  0  0  0
   29.2432  -19.5948  -12.5277 C   0  0  0  0  0  0  0  0  0  0  0  0
   28.1601  -20.2518  -13.3796 C   0  0  2  0  0  0  0  0  0  0  0  0
   28.3061  -19.7141  -14.7325 N   0  0  0  0  0  0  0  0  0  0  0  0
   26.8360  -20.0008  -12.8121 C   0  0  0  0  0  0  0  0  0  0  0  0
   26.2671  -18.8562  -12.8924 O   0  0  0  0  0  0  0  0  0  0  0  0
   29.3425  -20.5532  -10.2071 C   0  0  0  0  0  0  0  0  0  0  0  0
   29.9109  -21.3996   -9.2772 C   0  0  0  0  0  0  0  0  0  0  0  0
   22.3080  -21.3317  -11.6862 C   0  0  0  0  0  0  0  0  0  0  0  0
   23.6870  -21.5513  -12.2402 C   0  0  1  0  0  0  0  0  0  0  0  0
   23.6620  -21.2002  -13.7107 C   0  0  0  0  0  0  0  0  0  0  0  0
   24.7355  -20.6799  -11.5901 C   0  0  2  0  0  0  0  0  0  0  0  0
   26.0688  -20.9767  -12.1346 N   0  0  0  0  0  0  0  0  0  0  0  0
   24.7830  -21.0203  -10.1506 C   0  0  0  0  0  0  0  0  0  0  0  0
   25.4435  -22.0159   -9.7761 O   0  0  0  0  0  0  0  0  0  0  0  0
   24.1203  -20.2752   -9.1919 O   0  0  0  0  0  0  0  0  0  0  0  0
  2  1  1  0
  3  2  1  0
  3  4  1  6
  5  3  1  0
  5  6  1  1
  7  8  2  0
  7  5  1  0
  9 10  1  0
 10 11  2  0
 11 12  1  0
 13 14  1  0
 13 12  2  0
 15 14  1  1
 15 16  1  0
 16  7  1  0
 17 15  1  0
 17 18  2  0
 19 13  1  0
 20 19  2  0
 20 10  1  0
 22 21  1  1
 23 22  1  0
 24 22  1  0
 24 25  1  6
 25 17  1  0
 26 24  1  0
 27 26  2  0
 28 26  1  0
M  END
$$$$
