IYV.pdb
     RDKit          3D

 28 28  0  0  1  0  0  0  0  0999 V2000
   29.5186  -21.3457  -14.8880 C   0  0  0  0  0  0  0  0  0  0  0  0
   28.7647  -20.0580  -14.9898 C   0  0  0  0  0  0  0  0  0  0  0  0
   28.2170  -19.6399  -13.6642 C   0  0  2  0  0  0  0  0  0  0  0  0
   29.2856  -19.7187  -12.5791 C   0  0  0  0  0  0  0  0  0  0  0  0
   27.0384  -20.5320  -13.3019 C   0  0  2  0  0  0  0  0  0  0  0  0
   26.0424  -20.3661  -14.3566 N   0  0  0  0  0  0  0  0  0  0  0  0
   26.3897  -20.1620  -12.0325 C   0  0  0  0  0  0  0  0  0  0  0  0
   25.8994  -19.0121  -11.9174 O   0  0  0  0  0  0  0  0  0  0  0  0
   20.0217  -19.4688  -12.4603 O   0  0  0  0  0  0  0  0  0  0  0  0
   21.1122  -19.9300  -11.7117 C   0  0  0  0  0  0  0  0  0  0  0  0
   21.3576  -19.4713  -10.4368 C   0  0  0  0  0  0  0  0  0  0  0  0
   22.4353  -19.9383   -9.7189 C   0  0  0  0  0  0  0  0  0  0  0  0
   23.3198  -20.8723  -10.2127 C   0  0  0  0  0  0  0  0  0  0  0  0
   24.4512  -21.3320   -9.4070 C   0  0  0  0  0  0  0  0  0  0  0  0
   25.7420  -20.5563   -9.6575 C   0  0  2  0  0  0  0  0  0  0  0  0
   26.2849  -21.0430  -10.9260 N   0  0  0  0  0  0  0  0  0  0  0  0
   26.6714  -20.7298   -8.5420 C   0  0  0  0  0  0  0  0  0  0  0  0
   27.4179  -21.7648   -8.4328 O   0  0  0  0  0  0  0  0  0  0  0  0
   23.0606  -21.3266  -11.4999 C   0  0  0  0  0  0  0  0  0  0  0  0
   21.9834  -20.8654  -12.2286 C   0  0  0  0  0  0  0  0  0  0  0  0
   29.0182  -18.8950   -4.5155 C   0  0  0  0  0  0  0  0  0  0  0  0
   28.1760  -18.7170   -5.7467 C   0  0  1  0  0  0  0  0  0  0  0  0
   28.9972  -17.9672   -6.7712 C   0  0  0  0  0  0  0  0  0  0  0  0
   27.7599  -20.0249   -6.3775 C   0  0  2  0  0  0  0  0  0  0  0  0
   26.8354  -19.7913   -7.4968 N   0  0  0  0  0  0  0  0  0  0  0  0
   27.0086  -20.8008   -5.3656 C   0  0  0  0  0  0  0  0  0  0  0  0
   25.7656  -20.9078   -5.4717 O   0  0  0  0  0  0  0  0  0  0  0  0
   27.6306  -21.4191   -4.2959 O   0  0  0  0  0  0  0  0  0  0  0  0
  2  1  1  0
  3  2  1  0
  3  4  1  1
  5  3  1  0
  5  6  1  6
  7  8  2  0
  7  5  1  0
  9 10  1  0
 10 11  2  0
 11 12  1  0
 13 14  1  0
 13 12  2  0
 15 14  1  1
 15 16  1  0
 16  7  1  0
 17 15  1  0
 17 18  2  0
 19 13  1  0
 20 19  2  0
 20 10  1  0
 22 21  1  1
 23 22  1  0
 24 22  1  0
 24 25  1  6
 25 17  1  0
 26 24  1  0
 27 26  2  0
 28 26  1  0
M  END
$$$$
