IYV.pdb
     RDKit          3D

 28 28  0  0  1  0  0  0  0  0999 V2000
   16.1040  -15.1052  -19.7236 C   0  0  0  0  0  0  0  0  0  0  0  0
   16.9674  -13.9744  -19.2622 C   0  0  0  0  0  0  0  0  0  0  0  0
   18.4116  -14.2449  -19.5324 C   0  0  2  0  0  0  0  0  0  0  0  0
   18.6415  -15.7149  -19.8671 C   0  0  0  0  0  0  0  0  0  0  0  0
   19.2344  -13.8522  -18.3140 C   0  0  2  0  0  0  0  0  0  0  0  0
   18.7352  -14.6438  -17.1933 N   0  0  0  0  0  0  0  0  0  0  0  0
   19.0912  -12.4349  -17.9400 C   0  0  0  0  0  0  0  0  0  0  0  0
   19.4506  -11.5546  -18.7596 O   0  0  0  0  0  0  0  0  0  0  0  0
   13.7994   -9.6252  -20.7620 O   0  0  0  0  0  0  0  0  0  0  0  0
   14.5835   -9.7932  -19.6133 C   0  0  0  0  0  0  0  0  0  0  0  0
   15.3781   -8.7789  -19.1277 C   0  0  0  0  0  0  0  0  0  0  0  0
   16.1407   -8.9658  -17.9970 C   0  0  0  0  0  0  0  0  0  0  0  0
   16.1614  -10.1490  -17.2913 C   0  0  0  0  0  0  0  0  0  0  0  0
   16.9934  -10.2943  -16.0966 C   0  0  0  0  0  0  0  0  0  0  0  0
   18.4625  -10.5785  -16.3991 C   0  0  2  0  0  0  0  0  0  0  0  0
   18.5613  -12.0079  -16.6957 N   0  0  0  0  0  0  0  0  0  0  0  0
   19.3067  -10.1754  -15.2753 C   0  0  0  0  0  0  0  0  0  0  0  0
   19.1110  -10.6105  -14.0867 O   0  0  0  0  0  0  0  0  0  0  0  0
   15.3553  -11.1639  -17.7920 C   0  0  0  0  0  0  0  0  0  0  0  0
   14.5869  -10.9877  -18.9245 C   0  0  0  0  0  0  0  0  0  0  0  0
   22.7648  -10.9184  -14.5372 C   0  0  0  0  0  0  0  0  0  0  0  0
   22.6592   -9.4228  -14.4431 C   0  0  1  0  0  0  0  0  0  0  0  0
   23.1458   -8.8362  -15.7490 C   0  0  0  0  0  0  0  0  0  0  0  0
   21.2440   -8.9379  -14.2348 C   0  0  2  0  0  0  0  0  0  0  0  0
   20.4002   -9.2856  -15.3878 N   0  0  0  0  0  0  0  0  0  0  0  0
   21.2737   -7.4599  -14.1651 C   0  0  0  0  0  0  0  0  0  0  0  0
   21.8046   -6.9019  -13.1778 O   0  0  0  0  0  0  0  0  0  0  0  0
   20.7332   -6.6614  -15.1568 O   0  0  0  0  0  0  0  0  0  0  0  0
  2  1  1  0
  3  2  1  0
  3  4  1  1
  5  3  1  0
  5  6  1  1
  7  8  2  0
  7  5  1  0
  9 10  1  0
 10 11  2  0
 11 12  1  0
 13 14  1  0
 13 12  2  0
 15 14  1  1
 15 16  1  0
 16  7  1  0
 17 15  1  0
 17 18  2  0
 19 13  1  0
 20 19  2  0
 20 10  1  0
 22 21  1  6
 23 22  1  0
 24 22  1  0
 24 25  1  6
 25 17  1  0
 26 24  1  0
 27 26  2  0
 28 26  1  0
M  END
$$$$
