IYV.pdb
     RDKit          3D

 28 28  0  0  1  0  0  0  0  0999 V2000
   19.2422  -21.6208  -15.0481 C   0  0  0  0  0  0  0  0  0  0  0  0
   19.2893  -20.3011  -14.3459 C   0  0  0  0  0  0  0  0  0  0  0  0
   20.6939  -19.8976  -14.0360 C   0  0  2  0  0  0  0  0  0  0  0  0
   21.5422  -19.8452  -15.3023 C   0  0  0  0  0  0  0  0  0  0  0  0
   21.2950  -20.8844  -13.0456 C   0  0  2  0  0  0  0  0  0  0  0  0
   20.4452  -20.8629  -11.8585 N   0  0  0  0  0  0  0  0  0  0  0  0
   22.6553  -20.5252  -12.6102 C   0  0  0  0  0  0  0  0  0  0  0  0
   23.1264  -19.4140  -12.9554 O   0  0  0  0  0  0  0  0  0  0  0  0
   29.0242  -19.0967   -6.9146 O   0  0  0  0  0  0  0  0  0  0  0  0
   28.0892  -19.7500   -7.7277 C   0  0  0  0  0  0  0  0  0  0  0  0
   26.7449  -19.4601   -7.6576 C   0  0  0  0  0  0  0  0  0  0  0  0
   25.8434  -20.1145   -8.4663 C   0  0  0  0  0  0  0  0  0  0  0  0
   26.2133  -21.0793   -9.3777 C   0  0  0  0  0  0  0  0  0  0  0  0
   25.2123  -21.7460  -10.2108 C   0  0  0  0  0  0  0  0  0  0  0  0
   24.8241  -20.9570  -11.4586 C   0  0  2  0  0  0  0  0  0  0  0  0
   23.4664  -21.3721  -11.8124 N   0  0  0  0  0  0  0  0  0  0  0  0
   25.7849  -21.1916  -12.5357 C   0  0  0  0  0  0  0  0  0  0  0  0
   25.8571  -22.3125  -13.1510 O   0  0  0  0  0  0  0  0  0  0  0  0
   27.5723  -21.3622   -9.4381 C   0  0  0  0  0  0  0  0  0  0  0  0
   28.4848  -20.7125   -8.6324 C   0  0  0  0  0  0  0  0  0  0  0  0
   26.7372  -18.3903  -15.3823 C   0  0  0  0  0  0  0  0  0  0  0  0
   27.9189  -19.1351  -14.8292 C   0  0  1  0  0  0  0  0  0  0  0  0
   28.5554  -18.2755  -13.7605 C   0  0  0  0  0  0  0  0  0  0  0  0
   27.5456  -20.4484  -14.1832 C   0  0  2  0  0  0  0  0  0  0  0  0
   26.7083  -20.2241  -12.9954 N   0  0  0  0  0  0  0  0  0  0  0  0
   28.7899  -21.0921  -13.7061 C   0  0  0  0  0  0  0  0  0  0  0  0
   29.1265  -20.9650  -12.5068 O   0  0  0  0  0  0  0  0  0  0  0  0
   29.6047  -21.8362  -14.5401 O   0  0  0  0  0  0  0  0  0  0  0  0
  2  1  1  0
  3  2  1  0
  3  4  1  6
  5  3  1  0
  5  6  1  1
  7  8  2  0
  7  5  1  0
  9 10  1  0
 10 11  2  0
 11 12  1  0
 13 14  1  0
 13 12  2  0
 15 14  1  1
 15 16  1  0
 16  7  1  0
 17 15  1  0
 17 18  2  0
 19 13  1  0
 20 19  2  0
 20 10  1  0
 22 21  1  1
 23 22  1  0
 24 22  1  0
 24 25  1  1
 25 17  1  0
 26 24  1  0
 27 26  2  0
 28 26  1  0
M  END
$$$$
