IYV.pdb
     RDKit          3D

 28 28  0  0  1  0  0  0  0  0999 V2000
   14.0728  -11.4072  -17.3881 C   0  0  0  0  0  0  0  0  0  0  0  0
   15.5183  -11.0630  -17.2184 C   0  0  0  0  0  0  0  0  0  0  0  0
   15.7644  -10.3643  -15.9209 C   0  0  2  0  0  0  0  0  0  0  0  0
   14.9422   -9.0836  -15.8226 C   0  0  0  0  0  0  0  0  0  0  0  0
   17.2467  -10.0440  -15.7942 C   0  0  2  0  0  0  0  0  0  0  0  0
   17.9537  -11.3210  -15.7568 N   0  0  0  0  0  0  0  0  0  0  0  0
   17.5886   -9.3241  -14.5557 C   0  0  0  0  0  0  0  0  0  0  0  0
   17.5959   -9.9569  -13.4715 O   0  0  0  0  0  0  0  0  0  0  0  0
   23.8187  -10.2671  -14.8368 O   0  0  0  0  0  0  0  0  0  0  0  0
   22.7915   -9.3727  -14.5093 C   0  0  0  0  0  0  0  0  0  0  0  0
   22.3809   -9.1910  -13.2077 C   0  0  0  0  0  0  0  0  0  0  0  0
   21.3693   -8.3067  -12.9085 C   0  0  0  0  0  0  0  0  0  0  0  0
   20.7147   -7.5616  -13.8650 C   0  0  0  0  0  0  0  0  0  0  0  0
   19.6434   -6.6378  -13.4915 C   0  0  0  0  0  0  0  0  0  0  0  0
   18.2970   -7.3177  -13.2562 C   0  0  2  0  0  0  0  0  0  0  0  0
   17.9163   -7.9446  -14.5223 N   0  0  0  0  0  0  0  0  0  0  0  0
   17.3071   -6.3501  -12.7852 C   0  0  0  0  0  0  0  0  0  0  0  0
   16.6403   -5.6114  -13.5915 O   0  0  0  0  0  0  0  0  0  0  0  0
   21.1387   -7.7546  -15.1740 C   0  0  0  0  0  0  0  0  0  0  0  0
   22.1517   -8.6383  -15.4854 C   0  0  0  0  0  0  0  0  0  0  0  0
   16.6815   -5.4393   -8.6065 C   0  0  0  0  0  0  0  0  0  0  0  0
   15.5308   -5.4695   -9.5717 C   0  0  1  0  0  0  0  0  0  0  0  0
   14.5585   -4.3815   -9.1750 C   0  0  0  0  0  0  0  0  0  0  0  0
   15.9442   -5.2009  -10.9994 C   0  0  2  0  0  0  0  0  0  0  0  0
   16.9938   -6.1400  -11.4222 N   0  0  0  0  0  0  0  0  0  0  0  0
   16.5422   -3.8482  -11.0545 C   0  0  0  0  0  0  0  0  0  0  0  0
   17.7786   -3.7165  -10.9070 O   0  0  0  0  0  0  0  0  0  0  0  0
   15.7826   -2.7115  -11.2644 O   0  0  0  0  0  0  0  0  0  0  0  0
  2  1  1  0
  3  2  1  0
  3  4  1  6
  5  3  1  0
  5  6  1  1
  7  8  2  0
  7  5  1  0
  9 10  1  0
 10 11  2  0
 11 12  1  0
 13 14  1  0
 13 12  2  0
 15 14  1  6
 15 16  1  0
 16  7  1  0
 17 15  1  0
 17 18  2  0
 19 13  1  0
 20 19  2  0
 20 10  1  0
 22 21  1  1
 23 22  1  0
 24 22  1  0
 24 25  1  1
 25 17  1  0
 26 24  1  0
 27 26  2  0
 28 26  1  0
M  END
$$$$
