IYV.pdb
     RDKit          3D

 28 28  0  0  1  0  0  0  0  0999 V2000
   16.6208  -14.1209  -18.2479 C   0  0  0  0  0  0  0  0  0  0  0  0
   18.0319  -13.6445  -18.1113 C   0  0  0  0  0  0  0  0  0  0  0  0
   18.1331  -12.5068  -17.1483 C   0  0  2  0  0  0  0  0  0  0  0  0
   17.2568  -11.3378  -17.5857 C   0  0  0  0  0  0  0  0  0  0  0  0
   19.5846  -12.0611  -17.0455 C   0  0  2  0  0  0  0  0  0  0  0  0
   20.3325  -13.1822  -16.4836 N   0  0  0  0  0  0  0  0  0  0  0  0
   19.7845  -10.9132  -16.1448 C   0  0  0  0  0  0  0  0  0  0  0  0
   19.4167  -11.0126  -14.9487 O   0  0  0  0  0  0  0  0  0  0  0  0
   25.2335  -12.8199  -15.2328 O   0  0  0  0  0  0  0  0  0  0  0  0
   24.4064  -11.6900  -15.2725 C   0  0  0  0  0  0  0  0  0  0  0  0
   23.8865  -11.1359  -14.1242 C   0  0  0  0  0  0  0  0  0  0  0  0
   23.0758  -10.0251  -14.1865 C   0  0  0  0  0  0  0  0  0  0  0  0
   22.7372   -9.4069  -15.3704 C   0  0  0  0  0  0  0  0  0  0  0  0
   21.8685   -8.2297  -15.3792 C   0  0  0  0  0  0  0  0  0  0  0  0
   20.3999   -8.5490  -15.6469 C   0  0  2  0  0  0  0  0  0  0  0  0
   20.3784   -9.6934  -16.5583 N   0  0  0  0  0  0  0  0  0  0  0  0
   19.7101   -7.3804  -16.1916 C   0  0  0  0  0  0  0  0  0  0  0  0
   19.8704   -6.9992  -17.4037 O   0  0  0  0  0  0  0  0  0  0  0  0
   23.2684   -9.9761  -16.5212 C   0  0  0  0  0  0  0  0  0  0  0  0
   24.0821  -11.0894  -16.4706 C   0  0  0  0  0  0  0  0  0  0  0  0
   16.0295   -6.8902  -16.5200 C   0  0  0  0  0  0  0  0  0  0  0  0
   16.5763   -5.6596  -15.8540 C   0  0  1  0  0  0  0  0  0  0  0  0
   16.3540   -5.7954  -14.3646 C   0  0  0  0  0  0  0  0  0  0  0  0
   18.0599   -5.4754  -16.0697 C   0  0  2  0  0  0  0  0  0  0  0  0
   18.8157   -6.5740  -15.4499 N   0  0  0  0  0  0  0  0  0  0  0  0
   18.4716   -4.2358  -15.3739 C   0  0  0  0  0  0  0  0  0  0  0  0
   19.1017   -4.3171  -14.2950 O   0  0  0  0  0  0  0  0  0  0  0  0
   18.1856   -2.9777  -15.8726 O   0  0  0  0  0  0  0  0  0  0  0  0
  2  1  1  0
  3  2  1  0
  3  4  1  6
  5  3  1  0
  5  6  1  1
  7  8  2  0
  7  5  1  0
  9 10  1  0
 10 11  2  0
 11 12  1  0
 13 14  1  0
 13 12  2  0
 15 14  1  6
 15 16  1  0
 16  7  1  0
 17 15  1  0
 17 18  2  0
 19 13  1  0
 20 19  2  0
 20 10  1  0
 22 21  1  6
 23 22  1  0
 24 22  1  0
 24 25  1  1
 25 17  1  0
 26 24  1  0
 27 26  2  0
 28 26  1  0
M  END
$$$$
