IYV.pdb
     RDKit          3D

 28 28  0  0  1  0  0  0  0  0999 V2000
   22.3636  -15.6197  -17.0154 C   0  0  0  0  0  0  0  0  0  0  0  0
   23.5402  -14.7055  -17.1452 C   0  0  0  0  0  0  0  0  0  0  0  0
   23.2440  -13.3519  -16.5867 C   0  0  2  0  0  0  0  0  0  0  0  0
   22.0554  -12.7130  -17.2972 C   0  0  0  0  0  0  0  0  0  0  0  0
   24.4743  -12.4676  -16.7291 C   0  0  2  0  0  0  0  0  0  0  0  0
   25.5149  -13.0521  -15.8881 N   0  0  0  0  0  0  0  0  0  0  0  0
   24.2636  -11.0876  -16.2600 C   0  0  0  0  0  0  0  0  0  0  0  0
   24.1533  -10.8789  -15.0270 O   0  0  0  0  0  0  0  0  0  0  0  0
   23.1479   -2.2244  -16.4786 O   0  0  0  0  0  0  0  0  0  0  0  0
   23.5328   -3.5565  -16.6781 C   0  0  0  0  0  0  0  0  0  0  0  0
   23.4518   -4.1531  -17.9164 C   0  0  0  0  0  0  0  0  0  0  0  0
   23.8355   -5.4637  -18.0897 C   0  0  0  0  0  0  0  0  0  0  0  0
   24.3145   -6.2488  -17.0637 C   0  0  0  0  0  0  0  0  0  0  0  0
   24.7057   -7.6381  -17.3033 C   0  0  0  0  0  0  0  0  0  0  0  0
   23.8132   -8.6595  -16.6029 C   0  0  2  0  0  0  0  0  0  0  0  0
   24.1820   -9.9726  -17.1327 N   0  0  0  0  0  0  0  0  0  0  0  0
   22.4019   -8.3412  -16.8151 C   0  0  0  0  0  0  0  0  0  0  0  0
   21.8278   -8.5149  -17.9467 O   0  0  0  0  0  0  0  0  0  0  0  0
   24.3911   -5.6346  -15.8197 C   0  0  0  0  0  0  0  0  0  0  0  0
   24.0092   -4.3216  -15.6345 C   0  0  0  0  0  0  0  0  0  0  0  0
   17.7718   -7.9357  -15.4067 C   0  0  0  0  0  0  0  0  0  0  0  0
   19.2116   -8.3489  -15.2917 C   0  0  1  0  0  0  0  0  0  0  0  0
   19.3409   -9.7523  -15.8393 C   0  0  0  0  0  0  0  0  0  0  0  0
   20.1484   -7.4705  -16.0868 C   0  0  2  0  0  0  0  0  0  0  0  0
   21.5495   -7.8226  -15.8128 N   0  0  0  0  0  0  0  0  0  0  0  0
   19.9668   -6.0757  -15.6265 C   0  0  0  0  0  0  0  0  0  0  0  0
   20.6297   -5.6600  -14.6490 O   0  0  0  0  0  0  0  0  0  0  0  0
   19.0851   -5.2034  -16.2388 O   0  0  0  0  0  0  0  0  0  0  0  0
  2  1  1  0
  3  2  1  0
  3  4  1  6
  5  3  1  0
  5  6  1  1
  7  8  2  0
  7  5  1  0
  9 10  1  0
 10 11  2  0
 11 12  1  0
 13 14  1  0
 13 12  2  0
 15 14  1  6
 15 16  1  0
 16  7  1  0
 17 15  1  0
 17 18  2  0
 19 13  1  0
 20 19  2  0
 20 10  1  0
 22 21  1  6
 23 22  1  0
 24 22  1  0
 24 25  1  1
 25 17  1  0
 26 24  1  0
 27 26  2  0
 28 26  1  0
M  END
$$$$
