IYV.pdb
     RDKit          3D

 28 28  0  0  1  0  0  0  0  0999 V2000
   19.8834  -22.0277  -10.7540 C   0  0  0  0  0  0  0  0  0  0  0  0
   20.2113  -21.9318  -12.2101 C   0  0  0  0  0  0  0  0  0  0  0  0
   21.3372  -20.9806  -12.4545 C   0  0  2  0  0  0  0  0  0  0  0  0
   21.0635  -19.6277  -11.8060 C   0  0  0  0  0  0  0  0  0  0  0  0
   21.5364  -20.8101  -13.9536 C   0  0  2  0  0  0  0  0  0  0  0  0
   21.6347  -22.1512  -14.5225 N   0  0  0  0  0  0  0  0  0  0  0  0
   22.7777  -20.0995  -14.3044 C   0  0  0  0  0  0  0  0  0  0  0  0
   22.8640  -18.8731  -14.0508 O   0  0  0  0  0  0  0  0  0  0  0  0
   25.8158  -20.4513   -8.7707 O   0  0  0  0  0  0  0  0  0  0  0  0
   25.9209  -20.5000  -10.1668 C   0  0  0  0  0  0  0  0  0  0  0  0
   25.6889  -21.6623  -10.8676 C   0  0  0  0  0  0  0  0  0  0  0  0
   25.7978  -21.6874  -12.2396 C   0  0  0  0  0  0  0  0  0  0  0  0
   26.1374  -20.5809  -12.9872 C   0  0  0  0  0  0  0  0  0  0  0  0
   26.2420  -20.6645  -14.4442 C   0  0  0  0  0  0  0  0  0  0  0  0
   25.1062  -19.9634  -15.1851 C   0  0  2  0  0  0  0  0  0  0  0  0
   23.8909  -20.7320  -14.9146 N   0  0  0  0  0  0  0  0  0  0  0  0
   25.4063  -19.8656  -16.6129 C   0  0  0  0  0  0  0  0  0  0  0  0
   25.2568  -20.8575  -17.4092 O   0  0  0  0  0  0  0  0  0  0  0  0
   26.3688  -19.4150  -12.2678 C   0  0  0  0  0  0  0  0  0  0  0  0
   26.2625  -19.3783  -10.8925 C   0  0  0  0  0  0  0  0  0  0  0  0
   23.8887  -17.2652  -19.0214 C   0  0  0  0  0  0  0  0  0  0  0  0
   25.3794  -17.3055  -19.2032 C   0  0  1  0  0  0  0  0  0  0  0  0
   25.9793  -16.1717  -18.4027 C   0  0  0  0  0  0  0  0  0  0  0  0
   26.0055  -18.5860  -18.7035 C   0  0  2  0  0  0  0  0  0  0  0  0
   25.8794  -18.6907  -17.2422 N   0  0  0  0  0  0  0  0  0  0  0  0
   27.4548  -18.5305  -18.9983 C   0  0  0  0  0  0  0  0  0  0  0  0
   28.2511  -18.1727  -18.1008 O   0  0  0  0  0  0  0  0  0  0  0  0
   27.9707  -18.8615  -20.2383 O   0  0  0  0  0  0  0  0  0  0  0  0
  2  1  1  0
  3  2  1  0
  3  4  1  1
  5  3  1  0
  5  6  1  6
  7  8  2  0
  7  5  1  0
  9 10  1  0
 10 11  2  0
 11 12  1  0
 13 14  1  0
 13 12  2  0
 15 14  1  1
 15 16  1  0
 16  7  1  0
 17 15  1  0
 17 18  2  0
 19 13  1  0
 20 19  2  0
 20 10  1  0
 22 21  1  1
 23 22  1  0
 24 22  1  0
 24 25  1  1
 25 17  1  0
 26 24  1  0
 27 26  2  0
 28 26  1  0
M  END
$$$$
