IYV.pdb
     RDKit          3D

 28 28  0  0  1  0  0  0  0  0999 V2000
   30.9282  -23.6302  -18.9075 C   0  0  0  0  0  0  0  0  0  0  0  0
   29.8679  -22.6021  -18.6716 C   0  0  0  0  0  0  0  0  0  0  0  0
   28.9594  -23.0013  -17.5548 C   0  0  2  0  0  0  0  0  0  0  0  0
   28.2903  -24.3410  -17.8436 C   0  0  0  0  0  0  0  0  0  0  0  0
   27.9041  -21.9234  -17.3538 C   0  0  2  0  0  0  0  0  0  0  0  0
   28.6028  -20.6413  -17.3580 N   0  0  0  0  0  0  0  0  0  0  0  0
   27.1968  -22.0262  -16.0661 C   0  0  0  0  0  0  0  0  0  0  0  0
   26.4474  -23.0131  -15.8656 O   0  0  0  0  0  0  0  0  0  0  0  0
   24.4427  -20.3675   -7.7501 O   0  0  0  0  0  0  0  0  0  0  0  0
   25.1313  -20.3977   -8.9696 C   0  0  0  0  0  0  0  0  0  0  0  0
   26.1059  -21.3364   -9.2247 C   0  0  0  0  0  0  0  0  0  0  0  0
   26.7701  -21.3477  -10.4304 C   0  0  0  0  0  0  0  0  0  0  0  0
   26.5129  -20.4448  -11.4389 C   0  0  0  0  0  0  0  0  0  0  0  0
   27.2515  -20.5004  -12.7006 C   0  0  0  0  0  0  0  0  0  0  0  0
   26.4817  -21.1689  -13.8368 C   0  0  2  0  0  0  0  0  0  0  0  0
   27.3209  -21.0647  -15.0308 N   0  0  0  0  0  0  0  0  0  0  0  0
   25.1724  -20.5415  -14.0104 C   0  0  0  0  0  0  0  0  0  0  0  0
   25.0396  -19.3725  -14.5167 O   0  0  0  0  0  0  0  0  0  0  0  0
   25.5276  -19.5032  -11.1684 C   0  0  0  0  0  0  0  0  0  0  0  0
   24.8554  -19.4826   -9.9635 C   0  0  0  0  0  0  0  0  0  0  0  0
   21.8946  -22.3111  -15.4333 C   0  0  0  0  0  0  0  0  0  0  0  0
   22.1085  -20.8374  -15.2353 C   0  0  1  0  0  0  0  0  0  0  0  0
   20.7696  -20.1479  -15.3699 C   0  0  0  0  0  0  0  0  0  0  0  0
   22.6535  -20.4932  -13.8693 C   0  0  2  0  0  0  0  0  0  0  0  0
   23.9495  -21.1511  -13.6457 N   0  0  0  0  0  0  0  0  0  0  0  0
   21.7233  -21.0395  -12.8561 C   0  0  0  0  0  0  0  0  0  0  0  0
   21.9347  -22.1773  -12.3781 O   0  0  0  0  0  0  0  0  0  0  0  0
   20.6182  -20.3367  -12.4111 O   0  0  0  0  0  0  0  0  0  0  0  0
  2  1  1  0
  3  2  1  0
  3  4  1  6
  5  3  1  0
  5  6  1  1
  7  8  2  0
  7  5  1  0
  9 10  1  0
 10 11  2  0
 11 12  1  0
 13 14  1  0
 13 12  2  0
 15 14  1  1
 15 16  1  0
 16  7  1  0
 17 15  1  0
 17 18  2  0
 19 13  1  0
 20 19  2  0
 20 10  1  0
 22 21  1  1
 23 22  1  0
 24 22  1  0
 24 25  1  1
 25 17  1  0
 26 24  1  0
 27 26  2  0
 28 26  1  0
M  END
$$$$
