IYV.pdb
     RDKit          3D

 28 28  0  0  1  0  0  0  0  0999 V2000
   32.2818  -30.9545  -22.7636 C   0  0  0  0  0  0  0  0  0  0  0  0
   32.6687  -30.6679  -21.3476 C   0  0  0  0  0  0  0  0  0  0  0  0
   31.6114  -29.8840  -20.6408 C   0  0  2  0  0  0  0  0  0  0  0  0
   31.4360  -28.5063  -21.2708 C   0  0  0  0  0  0  0  0  0  0  0  0
   31.9856  -29.7427  -19.1725 C   0  0  2  0  0  0  0  0  0  0  0  0
   33.2389  -28.9953  -19.1254 N   0  0  0  0  0  0  0  0  0  0  0  0
   32.2250  -31.0311  -18.5004 C   0  0  0  0  0  0  0  0  0  0  0  0
   33.4090  -31.4016  -18.3088 O   0  0  0  0  0  0  0  0  0  0  0  0
   25.5555  -32.2907  -15.1230 O   0  0  0  0  0  0  0  0  0  0  0  0
   26.9234  -32.4973  -15.3430 C   0  0  0  0  0  0  0  0  0  0  0  0
   27.4493  -33.7627  -15.4778 C   0  0  0  0  0  0  0  0  0  0  0  0
   28.7969  -33.9427  -15.6935 C   0  0  0  0  0  0  0  0  0  0  0  0
   29.6895  -32.8972  -15.7872 C   0  0  0  0  0  0  0  0  0  0  0  0
   31.1133  -33.1458  -16.0145 C   0  0  0  0  0  0  0  0  0  0  0  0
   31.5032  -33.1930  -17.4897 C   0  0  2  0  0  0  0  0  0  0  0  0
   31.1819  -31.8805  -18.0511 N   0  0  0  0  0  0  0  0  0  0  0  0
   30.8080  -34.2840  -18.1712 C   0  0  0  0  0  0  0  0  0  0  0  0
   29.6610  -34.1237  -18.7181 O   0  0  0  0  0  0  0  0  0  0  0  0
   29.1458  -31.6261  -15.6493 C   0  0  0  0  0  0  0  0  0  0  0  0
   27.7966  -31.4339  -15.4328 C   0  0  0  0  0  0  0  0  0  0  0  0
   30.8345  -38.2408  -20.9788 C   0  0  0  0  0  0  0  0  0  0  0  0
   31.4323  -37.0729  -20.2469 C   0  0  1  0  0  0  0  0  0  0  0  0
   31.4817  -35.8995  -21.1992 C   0  0  0  0  0  0  0  0  0  0  0  0
   30.6199  -36.6424  -19.0485 C   0  0  2  0  0  0  0  0  0  0  0  0
   31.3233  -35.5955  -18.2926 N   0  0  0  0  0  0  0  0  0  0  0  0
   30.4942  -37.8048  -18.1412 C   0  0  0  0  0  0  0  0  0  0  0  0
   31.3675  -37.9974  -17.2648 O   0  0  0  0  0  0  0  0  0  0  0  0
   29.4399  -38.6965  -18.2229 O   0  0  0  0  0  0  0  0  0  0  0  0
  2  1  1  0
  3  2  1  0
  3  4  1  6
  5  3  1  0
  5  6  1  6
  7  8  2  0
  7  5  1  0
  9 10  1  0
 10 11  2  0
 11 12  1  0
 13 14  1  0
 13 12  2  0
 15 14  1  1
 15 16  1  0
 16  7  1  0
 17 15  1  0
 17 18  2  0
 19 13  1  0
 20 19  2  0
 20 10  1  0
 22 21  1  6
 23 22  1  0
 24 22  1  0
 24 25  1  1
 25 17  1  0
 26 24  1  0
 27 26  2  0
 28 26  1  0
M  END
$$$$
