IYV.pdb
     RDKit          3D

 28 28  0  0  1  0  0  0  0  0999 V2000
   24.7818   -9.6099  -22.7553 C   0  0  0  0  0  0  0  0  0  0  0  0
   24.9310  -10.3793  -21.4815 C   0  0  0  0  0  0  0  0  0  0  0  0
   23.8925   -9.9866  -20.4818 C   0  0  2  0  0  0  0  0  0  0  0  0
   24.0163   -8.5122  -20.1120 C   0  0  0  0  0  0  0  0  0  0  0  0
   24.0384  -10.8508  -19.2377 C   0  0  2  0  0  0  0  0  0  0  0  0
   23.8845  -12.2381  -19.6659 N   0  0  0  0  0  0  0  0  0  0  0  0
   23.0048  -10.5952  -18.2201 C   0  0  0  0  0  0  0  0  0  0  0  0
   21.8582  -11.0773  -18.3894 O   0  0  0  0  0  0  0  0  0  0  0  0
   22.6344  -15.8829  -14.7521 O   0  0  0  0  0  0  0  0  0  0  0  0
   22.6080  -14.4823  -14.7607 C   0  0  0  0  0  0  0  0  0  0  0  0
   23.7437  -13.7380  -14.5324 C   0  0  0  0  0  0  0  0  0  0  0  0
   23.6949  -12.3624  -14.5456 C   0  0  0  0  0  0  0  0  0  0  0  0
   22.5373  -11.6534  -14.7818 C   0  0  0  0  0  0  0  0  0  0  0  0
   22.5415  -10.1903  -14.7813 C   0  0  0  0  0  0  0  0  0  0  0  0
   22.1391   -9.5720  -16.1178 C   0  0  2  0  0  0  0  0  0  0  0  0
   23.2382   -9.8311  -17.0482 N   0  0  0  0  0  0  0  0  0  0  0  0
   21.8565   -8.1460  -15.9609 C   0  0  0  0  0  0  0  0  0  0  0  0
   22.7835   -7.2876  -15.7506 O   0  0  0  0  0  0  0  0  0  0  0  0
   21.3989  -12.4165  -15.0105 C   0  0  0  0  0  0  0  0  0  0  0  0
   21.4363  -13.7958  -14.9997 C   0  0  0  0  0  0  0  0  0  0  0  0
   19.1572   -4.1985  -17.0406 C   0  0  0  0  0  0  0  0  0  0  0  0
   19.4815   -5.6640  -17.1029 C   0  0  1  0  0  0  0  0  0  0  0  0
   20.2677   -5.9160  -18.3696 C   0  0  0  0  0  0  0  0  0  0  0  0
   20.3326   -6.1349  -15.9473 C   0  0  2  0  0  0  0  0  0  0  0  0
   20.5596   -7.5856  -16.0261 N   0  0  0  0  0  0  0  0  0  0  0  0
   19.5780   -5.8940  -14.6971 C   0  0  0  0  0  0  0  0  0  0  0  0
   18.8632   -6.8073  -14.2251 O   0  0  0  0  0  0  0  0  0  0  0  0
   19.6309   -4.6880  -14.0217 O   0  0  0  0  0  0  0  0  0  0  0  0
  2  1  1  0
  3  2  1  0
  3  4  1  1
  5  3  1  0
  5  6  1  6
  7  8  2  0
  7  5  1  0
  9 10  1  0
 10 11  2  0
 11 12  1  0
 13 14  1  0
 13 12  2  0
 15 14  1  1
 15 16  1  0
 16  7  1  0
 17 15  1  0
 17 18  2  0
 19 13  1  0
 20 19  2  0
 20 10  1  0
 22 21  1  1
 23 22  1  0
 24 22  1  0
 24 25  1  6
 25 17  1  0
 26 24  1  0
 27 26  2  0
 28 26  1  0
M  END
$$$$
