IYV.pdb
     RDKit          3D

 28 28  0  0  1  0  0  0  0  0999 V2000
   21.2176  -19.6211  -22.9624 C   0  0  0  0  0  0  0  0  0  0  0  0
   21.9408  -19.0446  -21.7870 C   0  0  0  0  0  0  0  0  0  0  0  0
   21.6846  -19.8367  -20.5464 C   0  0  2  0  0  0  0  0  0  0  0  0
   20.2014  -19.8365  -20.1915 C   0  0  0  0  0  0  0  0  0  0  0  0
   22.4960  -19.2528  -19.3991 C   0  0  2  0  0  0  0  0  0  0  0  0
   23.9037  -19.4316  -19.7425 N   0  0  0  0  0  0  0  0  0  0  0  0
   22.2741  -19.9374  -18.1141 C   0  0  0  0  0  0  0  0  0  0  0  0
   22.9759  -20.9401  -17.8349 O   0  0  0  0  0  0  0  0  0  0  0  0
   19.6017  -21.8502   -9.8592 O   0  0  0  0  0  0  0  0  0  0  0  0
   19.8750  -21.2339  -11.0871 C   0  0  0  0  0  0  0  0  0  0  0  0
   21.1584  -20.8973  -11.4555 C   0  0  0  0  0  0  0  0  0  0  0  0
   21.4042  -20.2922  -12.6672 C   0  0  0  0  0  0  0  0  0  0  0  0
   20.4100  -19.9893  -13.5717 C   0  0  0  0  0  0  0  0  0  0  0  0
   20.7272  -19.3426  -14.8452 C   0  0  0  0  0  0  0  0  0  0  0  0
   21.0688  -20.3215  -15.9657 C   0  0  2  0  0  0  0  0  0  0  0  0
   21.3054  -19.5193  -17.1663 N   0  0  0  0  0  0  0  0  0  0  0  0
   19.9944  -21.2977  -16.1416 C   0  0  0  0  0  0  0  0  0  0  0  0
   18.8522  -20.9735  -16.6216 O   0  0  0  0  0  0  0  0  0  0  0  0
   19.1200  -20.3342  -13.1876 C   0  0  0  0  0  0  0  0  0  0  0  0
   18.8620  -20.9410  -11.9755 C   0  0  0  0  0  0  0  0  0  0  0  0
   18.4008  -25.9107  -16.8206 C   0  0  0  0  0  0  0  0  0  0  0  0
   19.4718  -24.8656  -16.6882 C   0  0  1  0  0  0  0  0  0  0  0  0
   19.9132  -24.4692  -18.0790 C   0  0  0  0  0  0  0  0  0  0  0  0
   18.9965  -23.6106  -15.9951 C   0  0  2  0  0  0  0  0  0  0  0  0
   20.1087  -22.6672  -15.8077 N   0  0  0  0  0  0  0  0  0  0  0  0
   18.5297  -23.9858  -14.6417 C   0  0  0  0  0  0  0  0  0  0  0  0
   17.3476  -24.3670  -14.4833 O   0  0  0  0  0  0  0  0  0  0  0  0
   19.3550  -23.9317  -13.5331 O   0  0  0  0  0  0  0  0  0  0  0  0
  2  1  1  0
  3  2  1  0
  3  4  1  1
  5  3  1  0
  5  6  1  6
  7  8  2  0
  7  5  1  0
  9 10  1  0
 10 11  2  0
 11 12  1  0
 13 14  1  0
 13 12  2  0
 15 14  1  1
 15 16  1  0
 16  7  1  0
 17 15  1  0
 17 18  2  0
 19 13  1  0
 20 19  2  0
 20 10  1  0
 22 21  1  6
 23 22  1  0
 24 22  1  0
 24 25  1  1
 25 17  1  0
 26 24  1  0
 27 26  2  0
 28 26  1  0
M  END
$$$$
