QMD.pdb
     RDKit          3D

 26 25  0  0  1  0  0  0  0  0999 V2000
   20.9404  -20.6854  -10.7749 N   0  0  0  0  0  0  0  0  0  0  0  0
   21.1287  -21.7989  -11.6775 C   0  0  0  0  0  0  0  0  0  0  0  0
   20.1309  -22.3879  -12.1113 O   0  0  0  0  0  0  0  0  0  0  0  0
   22.4793  -22.2289  -12.0740 C   0  0  0  0  0  0  0  0  0  0  0  0
   23.5289  -21.3817  -11.4657 C   0  0  0  0  0  0  0  0  0  0  0  0
   24.9376  -21.7387  -11.8930 C   0  0  2  0  0  0  0  0  0  0  0  0
   25.7102  -22.1603  -10.7109 N   0  0  0  0  0  0  0  0  0  0  0  0
   25.5819  -20.5002  -12.4035 C   0  0  0  0  0  0  0  0  0  0  0  0
   26.3881  -19.8220  -11.6900 O   0  0  0  0  0  0  0  0  0  0  0  0
   30.1982  -20.3680  -11.3503 C   0  0  0  0  0  0  0  0  0  0  0  0
   29.0768  -20.7636  -12.7178 S   0  0  0  0  0  0  0  0  0  0  0  0
   28.4170  -19.2281  -13.4486 C   0  0  0  0  0  0  0  0  0  0  0  0
   27.5209  -19.5681  -14.6167 C   0  0  0  0  0  0  0  0  0  0  0  0
   26.1018  -19.0949  -14.3820 C   0  0  2  0  0  0  0  0  0  0  0  0
   25.2761  -20.0734  -13.7339 N   0  0  0  0  0  0  0  0  0  0  0  0
   25.5233  -18.7944  -15.7153 C   0  0  0  0  0  0  0  0  0  0  0  0
   25.3774  -19.7369  -16.5257 O   0  0  0  0  0  0  0  0  0  0  0  0
   25.1381  -17.4703  -16.0805 N   0  0  0  0  0  0  0  0  0  0  0  0
   24.4630  -17.2515  -17.3143 C   0  0  1  0  0  0  0  0  0  0  0  0
   23.5766  -16.0106  -17.2759 C   0  0  0  0  0  0  0  0  0  0  0  0
   22.4537  -16.2514  -16.3370 C   0  0  0  0  0  0  0  0  0  0  0  0
   22.2937  -17.3736  -15.8021 O   0  0  0  0  0  0  0  0  0  0  0  0
   25.4258  -17.1572  -18.4616 C   0  0  0  0  0  0  0  0  0  0  0  0
   24.9967  -17.3611  -19.6190 O   0  0  0  0  0  0  0  0  0  0  0  0
   21.5873  -15.1926  -16.0736 O   0  0  0  0  0  0  0  0  0  0  0  0
   26.7583  -16.8553  -18.2877 O   0  0  0  0  0  0  0  0  0  0  0  0
  2  1  1  0
  3  2  2  0
  4  2  1  0
  5  4  1  0
  6  5  1  0
  6  7  1  1
  8  6  1  0
  9  8  2  0
 11 10  1  0
 11 12  1  0
 14 13  1  6
 13 12  1  0
 14 15  1  0
 15  8  1  0
 16 18  1  0
 16 14  1  0
 17 16  2  0
 19 18  1  0
 19 20  1  1
 20 21  1  0
 21 22  2  0
 23 26  1  0
 23 19  1  0
 24 23  2  0
 25 21  1  0
M  END
$$$$
