QMD.pdb
     RDKit          3D

 26 25  0  0  1  0  0  0  0  0999 V2000
   26.3472  -16.6677  -15.5218 N   0  0  0  0  0  0  0  0  0  0  0  0
   27.6565  -17.0959  -15.9605 C   0  0  0  0  0  0  0  0  0  0  0  0
   28.2647  -16.4005  -16.7833 O   0  0  0  0  0  0  0  0  0  0  0  0
   28.2575  -18.3359  -15.4431 C   0  0  0  0  0  0  0  0  0  0  0  0
   27.3520  -19.0397  -14.5082 C   0  0  0  0  0  0  0  0  0  0  0  0
   27.9899  -20.2134  -13.7941 C   0  0  2  0  0  0  0  0  0  0  0  0
   28.4202  -21.2107  -14.7901 N   0  0  0  0  0  0  0  0  0  0  0  0
   26.9398  -20.8633  -12.9668 C   0  0  0  0  0  0  0  0  0  0  0  0
   26.2650  -21.8523  -13.3974 O   0  0  0  0  0  0  0  0  0  0  0  0
   28.2941  -20.3920   -6.1247 C   0  0  0  0  0  0  0  0  0  0  0  0
   26.7569  -20.0212   -7.0098 S   0  0  0  0  0  0  0  0  0  0  0  0
   26.7884  -20.7877   -8.6645 C   0  0  0  0  0  0  0  0  0  0  0  0
   25.5826  -20.3355   -9.4548 C   0  0  0  0  0  0  0  0  0  0  0  0
   25.6133  -20.8751  -10.8692 C   0  0  2  0  0  0  0  0  0  0  0  0
   26.6935  -20.3502  -11.6546 N   0  0  0  0  0  0  0  0  0  0  0  0
   24.3308  -20.4846  -11.5057 C   0  0  0  0  0  0  0  0  0  0  0  0
   24.2086  -19.3118  -11.9252 O   0  0  0  0  0  0  0  0  0  0  0  0
   23.2539  -21.4100  -11.6439 N   0  0  0  0  0  0  0  0  0  0  0  0
   22.1013  -21.0381  -12.3914 C   0  0  1  0  0  0  0  0  0  0  0  0
   21.7586  -22.0593  -13.4715 C   0  0  0  0  0  0  0  0  0  0  0  0
   20.5276  -21.6210  -14.1736 C   0  0  0  0  0  0  0  0  0  0  0  0
   20.3175  -21.9478  -15.3653 O   0  0  0  0  0  0  0  0  0  0  0  0
   20.9134  -20.8166  -11.5014 C   0  0  0  0  0  0  0  0  0  0  0  0
   20.8275  -21.4806  -10.4445 O   0  0  0  0  0  0  0  0  0  0  0  0
   19.6192  -20.8365  -13.4662 O   0  0  0  0  0  0  0  0  0  0  0  0
   19.9191  -19.9128  -11.8040 O   0  0  0  0  0  0  0  0  0  0  0  0
  2  1  1  0
  3  2  2  0
  4  2  1  0
  5  4  1  0
  6  5  1  0
  6  7  1  6
  8  6  1  0
  9  8  2  0
 11 10  1  0
 11 12  1  0
 14 13  1  1
 13 12  1  0
 14 15  1  0
 15  8  1  0
 16 18  1  0
 16 14  1  0
 17 16  2  0
 19 18  1  0
 19 20  1  6
 20 21  1  0
 21 22  2  0
 23 26  1  0
 23 19  1  0
 24 23  2  0
 25 21  1  0
M  END
$$$$
