QMD.pdb
     RDKit          3D

 26 25  0  0  1  0  0  0  0  0999 V2000
   18.7247  -15.2338  -15.6397 N   0  0  0  0  0  0  0  0  0  0  0  0
   18.1946  -15.4791  -16.9622 C   0  0  0  0  0  0  0  0  0  0  0  0
   17.5105  -16.4926  -17.1500 O   0  0  0  0  0  0  0  0  0  0  0  0
   18.4628  -14.5452  -18.0678 C   0  0  0  0  0  0  0  0  0  0  0  0
   19.3125  -13.4121  -17.6391 C   0  0  0  0  0  0  0  0  0  0  0  0
   20.5115  -13.1652  -18.5313 C   0  0  2  0  0  0  0  0  0  0  0  0
   21.5996  -14.0809  -18.1447 N   0  0  0  0  0  0  0  0  0  0  0  0
   20.9986  -11.7870  -18.2616 C   0  0  0  0  0  0  0  0  0  0  0  0
   21.5690  -11.4809  -17.1662 O   0  0  0  0  0  0  0  0  0  0  0  0
   23.2831   -7.2303  -22.6626 C   0  0  0  0  0  0  0  0  0  0  0  0
   22.1104   -6.3386  -21.6073 S   0  0  0  0  0  0  0  0  0  0  0  0
   21.8780   -7.2347  -20.0357 C   0  0  0  0  0  0  0  0  0  0  0  0
   21.3984   -8.6390  -20.3201 C   0  0  0  0  0  0  0  0  0  0  0  0
   21.2680   -9.4482  -19.0469 C   0  0  2  0  0  0  0  0  0  0  0  0
   20.8124  -10.7904  -19.2704 N   0  0  0  0  0  0  0  0  0  0  0  0
   20.2777   -8.7473  -18.1922 C   0  0  0  0  0  0  0  0  0  0  0  0
   19.0722   -8.7845  -18.5269 O   0  0  0  0  0  0  0  0  0  0  0  0
   20.6724   -8.0438  -17.0157 N   0  0  0  0  0  0  0  0  0  0  0  0
   19.6868   -7.3828  -16.2300 C   0  0  1  0  0  0  0  0  0  0  0  0
   19.1280   -8.2794  -15.1296 C   0  0  0  0  0  0  0  0  0  0  0  0
   18.0756   -7.5371  -14.3934 C   0  0  0  0  0  0  0  0  0  0  0  0
   17.5280   -6.5295  -14.8990 O   0  0  0  0  0  0  0  0  0  0  0  0
   20.2167   -6.1114  -15.6341 C   0  0  0  0  0  0  0  0  0  0  0  0
   21.4548   -5.9811  -15.5103 O   0  0  0  0  0  0  0  0  0  0  0  0
   17.7208   -7.9960  -13.1267 O   0  0  0  0  0  0  0  0  0  0  0  0
   19.3935   -5.0874  -15.2209 O   0  0  0  0  0  0  0  0  0  0  0  0
  2  1  1  0
  3  2  2  0
  4  2  1  0
  5  4  1  0
  6  5  1  0
  6  7  1  1
  8  6  1  0
  9  8  2  0
 11 10  1  0
 11 12  1  0
 14 13  1  6
 13 12  1  0
 14 15  1  0
 15  8  1  0
 16 18  1  0
 16 14  1  0
 17 16  2  0
 19 18  1  0
 19 20  1  1
 20 21  1  0
 21 22  2  0
 23 26  1  0
 23 19  1  0
 24 23  2  0
 25 21  1  0
M  END
$$$$
