QMD.pdb
     RDKit          3D

 26 25  0  0  1  0  0  0  0  0999 V2000
   15.9792  -12.5995  -18.7037 N   0  0  0  0  0  0  0  0  0  0  0  0
   16.6267  -12.7726  -17.4228 C   0  0  0  0  0  0  0  0  0  0  0  0
   16.0177  -12.4390  -16.3988 O   0  0  0  0  0  0  0  0  0  0  0  0
   17.9851  -13.3321  -17.3334 C   0  0  0  0  0  0  0  0  0  0  0  0
   18.8661  -12.5079  -16.4767 C   0  0  0  0  0  0  0  0  0  0  0  0
   19.4534  -11.2986  -17.1748 C   0  0  2  0  0  0  0  0  0  0  0  0
   20.1898  -11.7408  -18.3723 N   0  0  0  0  0  0  0  0  0  0  0  0
   20.4546  -10.6910  -16.2593 C   0  0  0  0  0  0  0  0  0  0  0  0
   20.1509  -10.3365  -15.0756 O   0  0  0  0  0  0  0  0  0  0  0  0
   27.1345  -11.5750  -15.2028 C   0  0  0  0  0  0  0  0  0  0  0  0
   26.8582   -9.8885  -15.8055 S   0  0  0  0  0  0  0  0  0  0  0  0
   25.1547   -9.3600  -15.4239 C   0  0  0  0  0  0  0  0  0  0  0  0
   24.1833  -10.1059  -16.3088 C   0  0  0  0  0  0  0  0  0  0  0  0
   22.7478   -9.7982  -15.9380 C   0  0  2  0  0  0  0  0  0  0  0  0
   21.7896  -10.5064  -16.7378 N   0  0  0  0  0  0  0  0  0  0  0  0
   22.5537   -8.3414  -16.1447 C   0  0  0  0  0  0  0  0  0  0  0  0
   22.4201   -7.9201  -17.3156 O   0  0  0  0  0  0  0  0  0  0  0  0
   22.5183   -7.4301  -15.0477 N   0  0  0  0  0  0  0  0  0  0  0  0
   22.1339   -6.0781  -15.2715 C   0  0  1  0  0  0  0  0  0  0  0  0
   20.7467   -5.9675  -15.8964 C   0  0  0  0  0  0  0  0  0  0  0  0
   20.4084   -4.5329  -16.0637 C   0  0  0  0  0  0  0  0  0  0  0  0
   21.2163   -3.7418  -16.6044 O   0  0  0  0  0  0  0  0  0  0  0  0
   22.1914   -5.2711  -14.0074 C   0  0  0  0  0  0  0  0  0  0  0  0
   22.1336   -5.8728  -12.9121 O   0  0  0  0  0  0  0  0  0  0  0  0
   19.1686   -4.0983  -15.5999 O   0  0  0  0  0  0  0  0  0  0  0  0
   22.3054   -3.8985  -14.0094 O   0  0  0  0  0  0  0  0  0  0  0  0
  2  1  1  0
  3  2  2  0
  4  2  1  0
  5  4  1  0
  6  5  1  0
  6  7  1  6
  8  6  1  0
  9  8  2  0
 11 10  1  0
 11 12  1  0
 14 13  1  6
 13 12  1  0
 14 15  1  0
 15  8  1  0
 16 18  1  0
 16 14  1  0
 17 16  2  0
 19 18  1  0
 19 20  1  1
 20 21  1  0
 21 22  2  0
 23 26  1  0
 23 19  1  0
 24 23  2  0
 25 21  1  0
M  END
$$$$
