QMD.pdb
     RDKit          3D

 26 25  0  0  1  0  0  0  0  0999 V2000
   20.2699  -15.1365  -15.5069 N   0  0  0  0  0  0  0  0  0  0  0  0
   19.6846  -14.9208  -16.8111 C   0  0  0  0  0  0  0  0  0  0  0  0
   18.9174  -15.7774  -17.2675 O   0  0  0  0  0  0  0  0  0  0  0  0
   19.9940  -13.7083  -17.5860 C   0  0  0  0  0  0  0  0  0  0  0  0
   20.7205  -12.7059  -16.7755 C   0  0  0  0  0  0  0  0  0  0  0  0
   20.6307  -11.2925  -17.3127 C   0  0  2  0  0  0  0  0  0  0  0  0
   21.2077  -11.2519  -18.6681 N   0  0  0  0  0  0  0  0  0  0  0  0
   21.4884  -10.4297  -16.4585 C   0  0  0  0  0  0  0  0  0  0  0  0
   21.2830  -10.3096  -15.2086 O   0  0  0  0  0  0  0  0  0  0  0  0
   27.1324  -11.7993  -15.1105 C   0  0  0  0  0  0  0  0  0  0  0  0
   26.2038  -10.2436  -15.1450 S   0  0  0  0  0  0  0  0  0  0  0  0
   25.5334   -9.9532  -16.8163 C   0  0  0  0  0  0  0  0  0  0  0  0
   24.7733   -8.6475  -16.8368 C   0  0  0  0  0  0  0  0  0  0  0  0
   23.3677   -8.8165  -16.2997 C   0  0  2  0  0  0  0  0  0  0  0  0
   22.5682   -9.7222  -17.0741 N   0  0  0  0  0  0  0  0  0  0  0  0
   22.7316   -7.4760  -16.3320 C   0  0  0  0  0  0  0  0  0  0  0  0
   22.8235   -6.7999  -17.3812 O   0  0  0  0  0  0  0  0  0  0  0  0
   22.0295   -6.9557  -15.2044 N   0  0  0  0  0  0  0  0  0  0  0  0
   21.5906   -5.6018  -15.2153 C   0  0  1  0  0  0  0  0  0  0  0  0
   20.0822   -5.4847  -15.4098 C   0  0  0  0  0  0  0  0  0  0  0  0
   19.7178   -4.0487  -15.4853 C   0  0  0  0  0  0  0  0  0  0  0  0
   20.4655   -3.2264  -16.0646 O   0  0  0  0  0  0  0  0  0  0  0  0
   22.0033   -4.8773  -13.9674 C   0  0  0  0  0  0  0  0  0  0  0  0
   22.1833   -5.5424  -12.9231 O   0  0  0  0  0  0  0  0  0  0  0  0
   18.5226   -3.6486  -14.8915 O   0  0  0  0  0  0  0  0  0  0  0  0
   22.1907   -3.5134  -13.9302 O   0  0  0  0  0  0  0  0  0  0  0  0
  2  1  1  0
  3  2  2  0
  4  2  1  0
  5  4  1  0
  6  5  1  0
  6  7  1  6
  8  6  1  0
  9  8  2  0
 11 10  1  0
 11 12  1  0
 14 13  1  6
 13 12  1  0
 14 15  1  0
 15  8  1  0
 16 18  1  0
 16 14  1  0
 17 16  2  0
 19 18  1  0
 19 20  1  1
 20 21  1  0
 21 22  2  0
 23 26  1  0
 23 19  1  0
 24 23  2  0
 25 21  1  0
M  END
$$$$
