QMD.pdb
     RDKit          3D

 26 25  0  0  1  0  0  0  0  0999 V2000
   19.1596  -15.8633  -18.3665 N   0  0  0  0  0  0  0  0  0  0  0  0
   20.4963  -15.5740  -17.8978 C   0  0  0  0  0  0  0  0  0  0  0  0
   20.9457  -16.2228  -16.9452 O   0  0  0  0  0  0  0  0  0  0  0  0
   21.3098  -14.5271  -18.5369 C   0  0  0  0  0  0  0  0  0  0  0  0
   21.8725  -13.5835  -17.5456 C   0  0  0  0  0  0  0  0  0  0  0  0
   21.9087  -12.1431  -18.0130 C   0  0  2  0  0  0  0  0  0  0  0  0
   22.8125  -12.0325  -19.1719 N   0  0  0  0  0  0  0  0  0  0  0  0
   22.5110  -11.3302  -16.9240 C   0  0  0  0  0  0  0  0  0  0  0  0
   22.0038  -11.2930  -15.7577 O   0  0  0  0  0  0  0  0  0  0  0  0
   28.6351  -12.9311  -15.2692 C   0  0  0  0  0  0  0  0  0  0  0  0
   28.0674  -11.3000  -15.8179 S   0  0  0  0  0  0  0  0  0  0  0  0
   26.2491  -11.2032  -15.7117 C   0  0  0  0  0  0  0  0  0  0  0  0
   25.7887   -9.8331  -16.1522 C   0  0  0  0  0  0  0  0  0  0  0  0
   24.2778   -9.7452  -16.1991 C   0  0  2  0  0  0  0  0  0  0  0  0
   23.6911  -10.5753  -17.2120 N   0  0  0  0  0  0  0  0  0  0  0  0
   23.9389   -8.3300  -16.4908 C   0  0  0  0  0  0  0  0  0  0  0  0
   24.1674   -7.8890  -17.6396 O   0  0  0  0  0  0  0  0  0  0  0  0
   23.3668   -7.4798  -15.4984 N   0  0  0  0  0  0  0  0  0  0  0  0
   22.9518   -6.1660  -15.8553 C   0  0  1  0  0  0  0  0  0  0  0  0
   21.9816   -6.1661  -17.0326 C   0  0  0  0  0  0  0  0  0  0  0  0
   21.5955   -4.7665  -17.3368 C   0  0  0  0  0  0  0  0  0  0  0  0
   22.4676   -3.8821  -17.5045 O   0  0  0  0  0  0  0  0  0  0  0  0
   22.3418   -5.4436  -14.6898 C   0  0  0  0  0  0  0  0  0  0  0  0
   22.0775   -6.0958  -13.6554 O   0  0  0  0  0  0  0  0  0  0  0  0
   20.2369   -4.4713  -17.4272 O   0  0  0  0  0  0  0  0  0  0  0  0
   22.0640   -4.0949  -14.7171 O   0  0  0  0  0  0  0  0  0  0  0  0
  2  1  1  0
  3  2  2  0
  4  2  1  0
  5  4  1  0
  6  5  1  0
  6  7  1  6
  8  6  1  0
  9  8  2  0
 11 10  1  0
 11 12  1  0
 14 13  1  6
 13 12  1  0
 14 15  1  0
 15  8  1  0
 16 18  1  0
 16 14  1  0
 17 16  2  0
 19 18  1  0
 19 20  1  6
 20 21  1  0
 21 22  2  0
 23 26  1  0
 23 19  1  0
 24 23  2  0
 25 21  1  0
M  END
$$$$
