QMD.pdb
     RDKit          3D

 26 25  0  0  1  0  0  0  0  0999 V2000
   27.8905  -16.3752  -15.4585 N   0  0  0  0  0  0  0  0  0  0  0  0
   28.9708  -16.9691  -16.2139 C   0  0  0  0  0  0  0  0  0  0  0  0
   29.6592  -16.2411  -16.9396 O   0  0  0  0  0  0  0  0  0  0  0  0
   29.2487  -18.4118  -16.1264 C   0  0  0  0  0  0  0  0  0  0  0  0
   28.3720  -19.0839  -15.1420 C   0  0  0  0  0  0  0  0  0  0  0  0
   27.1453  -19.7343  -15.7478 C   0  0  2  0  0  0  0  0  0  0  0  0
   26.1460  -18.6946  -16.0517 N   0  0  0  0  0  0  0  0  0  0  0  0
   26.5431  -20.6144  -14.7122 C   0  0  0  0  0  0  0  0  0  0  0  0
   27.0629  -21.7329  -14.3996 O   0  0  0  0  0  0  0  0  0  0  0  0
   25.1109  -19.8770   -8.8483 C   0  0  0  0  0  0  0  0  0  0  0  0
   26.2944  -21.1503   -9.3600 S   0  0  0  0  0  0  0  0  0  0  0  0
   26.0146  -21.5979  -11.1059 C   0  0  0  0  0  0  0  0  0  0  0  0
   24.9389  -20.7116  -11.6893 C   0  0  0  0  0  0  0  0  0  0  0  0
   24.6714  -21.0479  -13.1412 C   0  0  2  0  0  0  0  0  0  0  0  0
   25.3474  -20.1775  -14.0603 N   0  0  0  0  0  0  0  0  0  0  0  0
   23.2082  -20.9142  -13.3505 C   0  0  0  0  0  0  0  0  0  0  0  0
   22.7558  -19.7968  -13.6869 O   0  0  0  0  0  0  0  0  0  0  0  0
   22.3252  -22.0211  -13.1765 N   0  0  0  0  0  0  0  0  0  0  0  0
   20.9306  -21.8477  -13.4023 C   0  0  1  0  0  0  0  0  0  0  0  0
   20.2591  -23.1304  -13.8830 C   0  0  0  0  0  0  0  0  0  0  0  0
   18.8260  -22.8525  -14.1465 C   0  0  0  0  0  0  0  0  0  0  0  0
   18.4839  -21.9686  -14.9666 O   0  0  0  0  0  0  0  0  0  0  0  0
   20.2326  -21.3328  -12.1776 C   0  0  0  0  0  0  0  0  0  0  0  0
   20.6559  -21.6887  -11.0554 O   0  0  0  0  0  0  0  0  0  0  0  0
   17.8794  -23.6033  -13.4529 O   0  0  0  0  0  0  0  0  0  0  0  0
   19.1482  -20.4862  -12.2438 O   0  0  0  0  0  0  0  0  0  0  0  0
  2  1  1  0
  3  2  2  0
  4  2  1  0
  5  4  1  0
  6  5  1  0
  6  7  1  1
  8  6  1  0
  9  8  2  0
 11 10  1  0
 11 12  1  0
 14 13  1  1
 13 12  1  0
 14 15  1  0
 15  8  1  0
 16 18  1  0
 16 14  1  0
 17 16  2  0
 19 18  1  0
 19 20  1  1
 20 21  1  0
 21 22  2  0
 23 26  1  0
 23 19  1  0
 24 23  2  0
 25 21  1  0
M  END
$$$$
