QMD.pdb
     RDKit          3D

 26 25  0  0  1  0  0  0  0  0999 V2000
   15.5813  -14.7893  -17.1907 N   0  0  0  0  0  0  0  0  0  0  0  0
   15.7342  -14.1401  -18.4734 C   0  0  0  0  0  0  0  0  0  0  0  0
   14.9443  -14.4251  -19.3819 O   0  0  0  0  0  0  0  0  0  0  0  0
   16.8088  -13.1601  -18.6998 C   0  0  0  0  0  0  0  0  0  0  0  0
   17.6417  -12.9658  -17.4923 C   0  0  0  0  0  0  0  0  0  0  0  0
   19.1152  -13.2450  -17.7051 C   0  0  2  0  0  0  0  0  0  0  0  0
   19.3931  -14.6549  -17.3783 N   0  0  0  0  0  0  0  0  0  0  0  0
   19.8761  -12.4232  -16.7277 C   0  0  0  0  0  0  0  0  0  0  0  0
   19.6671  -12.5083  -15.4755 O   0  0  0  0  0  0  0  0  0  0  0  0
   26.9257   -9.9420  -14.7734 C   0  0  0  0  0  0  0  0  0  0  0  0
   25.8402  -10.8772  -15.8829 S   0  0  0  0  0  0  0  0  0  0  0  0
   24.0977  -10.4411  -15.5658 C   0  0  0  0  0  0  0  0  0  0  0  0
   23.2041  -11.2054  -16.5147 C   0  0  0  0  0  0  0  0  0  0  0  0
   21.7470  -10.8460  -16.3138 C   0  0  2  0  0  0  0  0  0  0  0  0
   20.8648  -11.5174  -17.2250 N   0  0  0  0  0  0  0  0  0  0  0  0
   21.6314   -9.3827  -16.5333 C   0  0  0  0  0  0  0  0  0  0  0  0
   21.8740   -8.9324  -17.6756 O   0  0  0  0  0  0  0  0  0  0  0  0
   21.2549   -8.4974  -15.4800 N   0  0  0  0  0  0  0  0  0  0  0  0
   21.1104   -7.1075  -15.7502 C   0  0  1  0  0  0  0  0  0  0  0  0
   19.7223   -6.5894  -15.3870 C   0  0  0  0  0  0  0  0  0  0  0  0
   19.6269   -5.1603  -15.7730 C   0  0  0  0  0  0  0  0  0  0  0  0
   20.5852   -4.5827  -16.3378 O   0  0  0  0  0  0  0  0  0  0  0  0
   22.1593   -6.2961  -15.0476 C   0  0  0  0  0  0  0  0  0  0  0  0
   22.4517   -6.5921  -13.8677 O   0  0  0  0  0  0  0  0  0  0  0  0
   18.4420   -4.4863  -15.4856 O   0  0  0  0  0  0  0  0  0  0  0  0
   22.8092   -5.2427  -15.6517 O   0  0  0  0  0  0  0  0  0  0  0  0
  2  1  1  0
  3  2  2  0
  4  2  1  0
  5  4  1  0
  6  5  1  0
  6  7  1  1
  8  6  1  0
  9  8  2  0
 11 10  1  0
 11 12  1  0
 14 13  1  6
 13 12  1  0
 14 15  1  0
 15  8  1  0
 16 18  1  0
 16 14  1  0
 17 16  2  0
 19 18  1  0
 19 20  1  1
 20 21  1  0
 21 22  2  0
 23 26  1  0
 23 19  1  0
 24 23  2  0
 25 21  1  0
M  END
$$$$
