QMD.pdb
     RDKit          3D

 26 25  0  0  1  0  0  0  0  0999 V2000
   29.4565  -17.7927  -15.9430 N   0  0  0  0  0  0  0  0  0  0  0  0
   28.4439  -17.6977  -16.9706 C   0  0  0  0  0  0  0  0  0  0  0  0
   28.7613  -17.2473  -18.0783 O   0  0  0  0  0  0  0  0  0  0  0  0
   27.0602  -18.1252  -16.7082 C   0  0  0  0  0  0  0  0  0  0  0  0
   26.8763  -18.5711  -15.3093 C   0  0  0  0  0  0  0  0  0  0  0  0
   27.3947  -19.9671  -15.0313 C   0  0  2  0  0  0  0  0  0  0  0  0
   27.5395  -20.6927  -16.3058 N   0  0  0  0  0  0  0  0  0  0  0  0
   26.3565  -20.6862  -14.2472 C   0  0  0  0  0  0  0  0  0  0  0  0
   25.6851  -21.6448  -14.7464 O   0  0  0  0  0  0  0  0  0  0  0  0
   25.0884  -20.6114   -7.5468 C   0  0  0  0  0  0  0  0  0  0  0  0
   26.7206  -20.5301   -8.3300 S   0  0  0  0  0  0  0  0  0  0  0  0
   26.6004  -21.0358  -10.0783 C   0  0  0  0  0  0  0  0  0  0  0  0
   25.2448  -20.6517  -10.6241 C   0  0  0  0  0  0  0  0  0  0  0  0
   25.1365  -20.9575  -12.1031 C   0  0  2  0  0  0  0  0  0  0  0  0
   26.1182  -20.2764  -12.8979 N   0  0  0  0  0  0  0  0  0  0  0  0
   23.7871  -20.5157  -12.5352 C   0  0  0  0  0  0  0  0  0  0  0  0
   23.6156  -19.3051  -12.8025 O   0  0  0  0  0  0  0  0  0  0  0  0
   22.7016  -21.4344  -12.6481 N   0  0  0  0  0  0  0  0  0  0  0  0
   21.5498  -21.0698  -13.4005 C   0  0  1  0  0  0  0  0  0  0  0  0
   21.8310  -21.0170  -14.8989 C   0  0  0  0  0  0  0  0  0  0  0  0
   20.5745  -20.6804  -15.6118 C   0  0  0  0  0  0  0  0  0  0  0  0
   19.8397  -19.7473  -15.2115 O   0  0  0  0  0  0  0  0  0  0  0  0
   20.3975  -21.9920  -13.1284 C   0  0  0  0  0  0  0  0  0  0  0  0
   20.6143  -23.0456  -12.4895 O   0  0  0  0  0  0  0  0  0  0  0  0
   20.2412  -21.4348  -16.7347 O   0  0  0  0  0  0  0  0  0  0  0  0
   19.1158  -21.7218  -13.5540 O   0  0  0  0  0  0  0  0  0  0  0  0
  2  1  1  0
  3  2  2  0
  4  2  1  0
  5  4  1  0
  6  5  1  0
  6  7  1  6
  8  6  1  0
  9  8  2  0
 11 10  1  0
 11 12  1  0
 14 13  1  1
 13 12  1  0
 14 15  1  0
 15  8  1  0
 16 18  1  0
 16 14  1  0
 17 16  2  0
 19 18  1  0
 19 20  1  6
 20 21  1  0
 21 22  2  0
 23 26  1  0
 23 19  1  0
 24 23  2  0
 25 21  1  0
M  END
$$$$
