QMD.pdb
     RDKit          3D

 26 25  0  0  1  0  0  0  0  0999 V2000
   29.5349  -24.0751  -17.8457 N   0  0  0  0  0  0  0  0  0  0  0  0
   29.9955  -22.7219  -18.0623 C   0  0  0  0  0  0  0  0  0  0  0  0
   30.8400  -22.5150  -18.9424 O   0  0  0  0  0  0  0  0  0  0  0  0
   29.4747  -21.6088  -17.2523 C   0  0  0  0  0  0  0  0  0  0  0  0
   28.5836  -22.0834  -16.1705 C   0  0  0  0  0  0  0  0  0  0  0  0
   27.1787  -21.5204  -16.2339 C   0  0  2  0  0  0  0  0  0  0  0  0
   27.2473  -20.0485  -16.2559 N   0  0  0  0  0  0  0  0  0  0  0  0
   26.4848  -21.8958  -14.9741 C   0  0  0  0  0  0  0  0  0  0  0  0
   26.3118  -23.1118  -14.6419 O   0  0  0  0  0  0  0  0  0  0  0  0
   24.8458  -20.6548   -7.5041 C   0  0  0  0  0  0  0  0  0  0  0  0
   25.7857  -20.1824   -8.9797 S   0  0  0  0  0  0  0  0  0  0  0  0
   24.9989  -20.8783  -10.4708 C   0  0  0  0  0  0  0  0  0  0  0  0
   25.8265  -20.5338  -11.6872 C   0  0  0  0  0  0  0  0  0  0  0  0
   25.2623  -21.1714  -12.9394 C   0  0  2  0  0  0  0  0  0  0  0  0
   26.0044  -20.8501  -14.1249 N   0  0  0  0  0  0  0  0  0  0  0  0
   23.8772  -20.6614  -13.0943 C   0  0  0  0  0  0  0  0  0  0  0  0
   23.7173  -19.4541  -13.3825 O   0  0  0  0  0  0  0  0  0  0  0  0
   22.7450  -21.5121  -12.9221 N   0  0  0  0  0  0  0  0  0  0  0  0
   21.4393  -20.9988  -13.1616 C   0  0  1  0  0  0  0  0  0  0  0  0
   20.5967  -21.9390  -14.0179 C   0  0  0  0  0  0  0  0  0  0  0  0
   21.1882  -22.0109  -15.3764 C   0  0  0  0  0  0  0  0  0  0  0  0
   21.2695  -20.9878  -16.0960 O   0  0  0  0  0  0  0  0  0  0  0  0
   20.7219  -20.6937  -11.8792 C   0  0  0  0  0  0  0  0  0  0  0  0
   21.2441  -21.0574  -10.8021 O   0  0  0  0  0  0  0  0  0  0  0  0
   21.6459  -23.2489  -15.8222 O   0  0  0  0  0  0  0  0  0  0  0  0
   19.5152  -20.0306  -11.8451 O   0  0  0  0  0  0  0  0  0  0  0  0
  2  1  1  0
  3  2  2  0
  4  2  1  0
  5  4  1  0
  6  5  1  0
  6  7  1  1
  8  6  1  0
  9  8  2  0
 11 10  1  0
 11 12  1  0
 14 13  1  1
 13 12  1  0
 14 15  1  0
 15  8  1  0
 16 18  1  0
 16 14  1  0
 17 16  2  0
 19 18  1  0
 19 20  1  1
 20 21  1  0
 21 22  2  0
 23 26  1  0
 23 19  1  0
 24 23  2  0
 25 21  1  0
M  END
$$$$
