QMD.pdb
     RDKit          3D

 26 25  0  0  1  0  0  0  0  0999 V2000
   19.5703  -21.5322  -11.6442 N   0  0  0  0  0  0  0  0  0  0  0  0
   19.9875  -22.5571  -12.5746 C   0  0  0  0  0  0  0  0  0  0  0  0
   19.2449  -23.5289  -12.7609 O   0  0  0  0  0  0  0  0  0  0  0  0
   21.2711  -22.4522  -13.2872 C   0  0  0  0  0  0  0  0  0  0  0  0
   21.9907  -21.2049  -12.9470 C   0  0  0  0  0  0  0  0  0  0  0  0
   22.9544  -21.3430  -11.7864 C   0  0  2  0  0  0  0  0  0  0  0  0
   22.3960  -20.6551  -10.6088 N   0  0  0  0  0  0  0  0  0  0  0  0
   24.2030  -20.6224  -12.1484 C   0  0  0  0  0  0  0  0  0  0  0  0
   24.2389  -19.3546  -12.2496 O   0  0  0  0  0  0  0  0  0  0  0  0
   30.0731  -21.5834   -9.8160 C   0  0  0  0  0  0  0  0  0  0  0  0
   30.5129  -21.3991  -11.5644 S   0  0  0  0  0  0  0  0  0  0  0  0
   29.1096  -20.6917  -12.4902 C   0  0  0  0  0  0  0  0  0  0  0  0
   27.8317  -21.3866  -12.0812 C   0  0  0  0  0  0  0  0  0  0  0  0
   26.6193  -20.7284  -12.7053 C   0  0  2  0  0  0  0  0  0  0  0  0
   25.3862  -21.3898  -12.3867 N   0  0  0  0  0  0  0  0  0  0  0  0
   26.8154  -20.7734  -14.1757 C   0  0  0  0  0  0  0  0  0  0  0  0
   26.7858  -21.8875  -14.7451 O   0  0  0  0  0  0  0  0  0  0  0  0
   27.0336  -19.5864  -14.9362 N   0  0  0  0  0  0  0  0  0  0  0  0
   27.1806  -19.6760  -16.3491 C   0  0  1  0  0  0  0  0  0  0  0  0
   26.1340  -18.8519  -17.0924 C   0  0  0  0  0  0  0  0  0  0  0  0
   26.3921  -18.9498  -18.5499 C   0  0  0  0  0  0  0  0  0  0  0  0
   26.2628  -20.0411  -19.1527 O   0  0  0  0  0  0  0  0  0  0  0  0
   28.5572  -19.2705  -16.7880 C   0  0  0  0  0  0  0  0  0  0  0  0
   29.1390  -18.3577  -16.1607 O   0  0  0  0  0  0  0  0  0  0  0  0
   26.7826  -17.7929  -19.2207 O   0  0  0  0  0  0  0  0  0  0  0  0
   29.2008  -19.8644  -17.8511 O   0  0  0  0  0  0  0  0  0  0  0  0
  2  1  1  0
  3  2  2  0
  4  2  1  0
  5  4  1  0
  6  5  1  0
  6  7  1  1
  8  6  1  0
  9  8  2  0
 11 10  1  0
 11 12  1  0
 14 13  1  1
 13 12  1  0
 14 15  1  0
 15  8  1  0
 16 18  1  0
 16 14  1  0
 17 16  2  0
 19 18  1  0
 19 20  1  6
 20 21  1  0
 21 22  2  0
 23 26  1  0
 23 19  1  0
 24 23  2  0
 25 21  1  0
M  END
$$$$
