QMD.pdb
     RDKit          3D

 26 25  0  0  1  0  0  0  0  0999 V2000
   27.4591  -11.5821  -14.9044 N   0  0  0  0  0  0  0  0  0  0  0  0
   27.4623  -12.9529  -15.3637 C   0  0  0  0  0  0  0  0  0  0  0  0
   28.1856  -13.7724  -14.7843 O   0  0  0  0  0  0  0  0  0  0  0  0
   26.6247  -13.3699  -16.4999 C   0  0  0  0  0  0  0  0  0  0  0  0
   25.7828  -12.2611  -17.0011 C   0  0  0  0  0  0  0  0  0  0  0  0
   24.3548  -12.2913  -16.4968 C   0  0  2  0  0  0  0  0  0  0  0  0
   23.6945  -13.5150  -16.9850 N   0  0  0  0  0  0  0  0  0  0  0  0
   23.6350  -11.1449  -17.1109 C   0  0  0  0  0  0  0  0  0  0  0  0
   23.5819  -10.9859  -18.3722 O   0  0  0  0  0  0  0  0  0  0  0  0
   17.2445  -10.5137  -17.0807 C   0  0  0  0  0  0  0  0  0  0  0  0
   18.3047  -10.0578  -18.4779 S   0  0  0  0  0  0  0  0  0  0  0  0
   19.7505   -9.1176  -17.8842 C   0  0  0  0  0  0  0  0  0  0  0  0
   20.7925  -10.0739  -17.3525 C   0  0  0  0  0  0  0  0  0  0  0  0
   21.9745   -9.3334  -16.7632 C   0  0  2  0  0  0  0  0  0  0  0  0
   22.9911  -10.2045  -16.2467 N   0  0  0  0  0  0  0  0  0  0  0  0
   21.4500   -8.5041  -15.6497 C   0  0  0  0  0  0  0  0  0  0  0  0
   21.1103   -9.0779  -14.5906 O   0  0  0  0  0  0  0  0  0  0  0  0
   21.3291   -7.0876  -15.7669 N   0  0  0  0  0  0  0  0  0  0  0  0
   20.8773   -6.3277  -14.6514 C   0  0  1  0  0  0  0  0  0  0  0  0
   21.1523   -4.8366  -14.8182 C   0  0  0  0  0  0  0  0  0  0  0  0
   22.6171   -4.6272  -14.9227 C   0  0  0  0  0  0  0  0  0  0  0  0
   23.4174   -5.5637  -14.6919 O   0  0  0  0  0  0  0  0  0  0  0  0
   19.4174   -6.5520  -14.3851 C   0  0  0  0  0  0  0  0  0  0  0  0
   18.6863   -6.9130  -15.3339 O   0  0  0  0  0  0  0  0  0  0  0  0
   23.0692   -3.3595  -15.2827 O   0  0  0  0  0  0  0  0  0  0  0  0
   18.8560   -6.3763  -13.1397 O   0  0  0  0  0  0  0  0  0  0  0  0
  2  1  1  0
  3  2  2  0
  4  2  1  0
  5  4  1  0
  6  5  1  0
  6  7  1  6
  8  6  1  0
  9  8  2  0
 11 10  1  0
 11 12  1  0
 14 13  1  1
 13 12  1  0
 14 15  1  0
 15  8  1  0
 16 18  1  0
 16 14  1  0
 17 16  2  0
 19 18  1  0
 19 20  1  6
 20 21  1  0
 21 22  2  0
 23 26  1  0
 23 19  1  0
 24 23  2  0
 25 21  1  0
M  END
$$$$
