QMD.pdb
     RDKit          3D

 26 25  0  0  1  0  0  0  0  0999 V2000
   27.8092  -21.5221  -18.7061 N   0  0  0  0  0  0  0  0  0  0  0  0
   29.1893  -21.4891  -18.2768 C   0  0  0  0  0  0  0  0  0  0  0  0
   30.0605  -21.1801  -19.0990 O   0  0  0  0  0  0  0  0  0  0  0  0
   29.5562  -21.8183  -16.8899 C   0  0  0  0  0  0  0  0  0  0  0  0
   28.3829  -22.2434  -16.0948 C   0  0  0  0  0  0  0  0  0  0  0  0
   27.4379  -21.1157  -15.7344 C   0  0  2  0  0  0  0  0  0  0  0  0
   28.2234  -19.9284  -15.3536 N   0  0  0  0  0  0  0  0  0  0  0  0
   26.6801  -21.5311  -14.5250 C   0  0  0  0  0  0  0  0  0  0  0  0
   25.8725  -22.5141  -14.5458 O   0  0  0  0  0  0  0  0  0  0  0  0
   25.6318  -20.7490   -6.7048 C   0  0  0  0  0  0  0  0  0  0  0  0
   26.6226  -20.2912   -8.1514 S   0  0  0  0  0  0  0  0  0  0  0  0
   25.8341  -20.9177   -9.6722 C   0  0  0  0  0  0  0  0  0  0  0  0
   26.7020  -20.5890  -10.8645 C   0  0  0  0  0  0  0  0  0  0  0  0
   26.0933  -21.1048  -12.1515 C   0  0  2  0  0  0  0  0  0  0  0  0
   26.8751  -20.7951  -13.3143 N   0  0  0  0  0  0  0  0  0  0  0  0
   24.7645  -20.4581  -12.2874 C   0  0  0  0  0  0  0  0  0  0  0  0
   24.7112  -19.2078  -12.3050 O   0  0  0  0  0  0  0  0  0  0  0  0
   23.5678  -21.2271  -12.3961 N   0  0  0  0  0  0  0  0  0  0  0  0
   22.3509  -20.5832  -12.7570 C   0  0  1  0  0  0  0  0  0  0  0  0
   21.7696  -21.1324  -14.0561 C   0  0  0  0  0  0  0  0  0  0  0  0
   20.5224  -20.3949  -14.3737 C   0  0  0  0  0  0  0  0  0  0  0  0
   20.1728  -19.4022  -13.6930 O   0  0  0  0  0  0  0  0  0  0  0  0
   21.3305  -20.6760  -11.6604 C   0  0  0  0  0  0  0  0  0  0  0  0
   20.1874  -20.2121  -11.8682 O   0  0  0  0  0  0  0  0  0  0  0  0
   19.7570  -20.8430  -15.4481 O   0  0  0  0  0  0  0  0  0  0  0  0
   21.6053  -21.2511  -10.4395 O   0  0  0  0  0  0  0  0  0  0  0  0
  2  1  1  0
  3  2  2  0
  4  2  1  0
  5  4  1  0
  6  5  1  0
  6  7  1  1
  8  6  1  0
  9  8  2  0
 11 10  1  0
 11 12  1  0
 14 13  1  1
 13 12  1  0
 14 15  1  0
 15  8  1  0
 16 18  1  0
 16 14  1  0
 17 16  2  0
 19 18  1  0
 19 20  1  6
 20 21  1  0
 21 22  2  0
 23 26  1  0
 23 19  1  0
 24 23  2  0
 25 21  1  0
M  END
$$$$
