VDH.pdb
     RDKit          3D

 26 26  0  0  1  0  0  0  0  0999 V2000
   18.4492  -15.0395  -16.8477 C   0  0  0  0  0  0  0  0  0  0  0  0
   18.6869  -13.6631  -17.4333 C   0  0  1  0  0  0  0  0  0  0  0  0
   17.4679  -13.1177  -18.1019 C   0  0  0  0  0  0  0  0  0  0  0  0
   19.1915  -12.7860  -16.3122 C   0  0  2  0  0  0  0  0  0  0  0  0
   18.3675  -12.9136  -15.1419 N   0  0  0  0  0  0  0  0  0  0  0  0
   19.2939  -11.3693  -16.6912 C   0  0  0  0  0  0  0  0  0  0  0  0
   20.1026  -10.9642  -17.5744 O   0  0  0  0  0  0  0  0  0  0  0  0
   18.4599  -10.4184  -16.0481 N   0  0  0  0  0  0  0  0  0  0  0  0
   18.4350   -8.9936  -16.4780 C   0  0  1  0  0  0  0  0  0  0  0  0
   17.0243   -8.5999  -16.7956 C   0  0  0  0  0  0  0  0  0  0  0  0
   16.1987   -8.4137  -15.6027 C   0  0  0  0  0  0  0  0  0  0  0  0
   16.4041   -8.8401  -14.4513 O   0  0  0  0  0  0  0  0  0  0  0  0
   19.0050   -8.2336  -15.3497 C   0  0  0  0  0  0  0  0  0  0  0  0
   19.0422   -8.7104  -14.2047 O   0  0  0  0  0  0  0  0  0  0  0  0
   15.0184   -7.6597  -15.7553 O   0  0  0  0  0  0  0  0  0  0  0  0
   19.5221   -6.9384  -15.5587 N   0  0  0  0  0  0  0  0  0  0  0  0
   20.1891   -6.2374  -14.4324 C   0  0  1  0  0  0  0  0  0  0  0  0
   21.5040   -6.8818  -14.1763 C   0  0  0  0  0  0  0  0  0  0  0  0
   22.4867   -6.8767  -15.2295 C   0  0  0  0  0  0  0  0  0  0  0  0
   22.8087   -7.8091  -16.1661 C   0  0  0  0  0  0  0  0  0  0  0  0
   23.7750   -7.3151  -17.0017 N   0  0  0  0  0  0  0  0  0  0  0  0
   24.0327   -6.0918  -16.5721 C   0  0  0  0  0  0  0  0  0  0  0  0
   23.2794   -5.7961  -15.5127 N   0  0  0  0  0  0  0  0  0  0  0  0
   20.2920   -4.8450  -14.8974 C   0  0  0  0  0  0  0  0  0  0  0  0
   20.7452   -3.9428  -14.1856 O   0  0  0  0  0  0  0  0  0  0  0  0
   19.8748   -4.5032  -16.1704 O   0  0  0  0  0  0  0  0  0  0  0  0
  2  3  1  1
  2  1  1  0
  4  2  1  0
  4  5  1  1
  6  4  1  0
  7  6  2  0
  8  6  1  0
  9 10  1  1
  9  8  1  0
 10 11  1  0
 11 15  1  0
 11 12  2  0
 13  9  1  0
 14 13  2  0
 16 13  1  0
 17 18  1  6
 17 16  1  0
 18 19  1  0
 19 20  2  0
 20 21  1  0
 22 21  1  0
 23 19  1  0
 23 22  2  0
 24 17  1  0
 25 24  2  0
 26 24  1  0
M  END
$$$$
