VDH.pdb
     RDKit          3D

 26 26  0  0  1  0  0  0  0  0999 V2000
   24.8946  -11.2252  -19.2154 C   0  0  0  0  0  0  0  0  0  0  0  0
   23.9617  -10.4899  -18.2758 C   0  0  1  0  0  0  0  0  0  0  0  0
   22.7396  -11.2873  -17.9579 C   0  0  0  0  0  0  0  0  0  0  0  0
   24.7657  -10.1226  -17.0512 C   0  0  2  0  0  0  0  0  0  0  0  0
   25.3708  -11.2840  -16.4596 N   0  0  0  0  0  0  0  0  0  0  0  0
   23.9766   -9.4073  -16.0377 C   0  0  0  0  0  0  0  0  0  0  0  0
   23.4239  -10.0031  -15.0694 O   0  0  0  0  0  0  0  0  0  0  0  0
   23.8260   -8.0004  -16.1434 N   0  0  0  0  0  0  0  0  0  0  0  0
   22.9293   -7.2463  -15.2255 C   0  0  1  0  0  0  0  0  0  0  0  0
   23.3761   -5.8171  -15.1651 C   0  0  0  0  0  0  0  0  0  0  0  0
   22.5792   -5.0057  -14.2453 C   0  0  0  0  0  0  0  0  0  0  0  0
   22.3296   -5.2250  -13.0456 O   0  0  0  0  0  0  0  0  0  0  0  0
   21.5737   -7.4029  -15.7855 C   0  0  0  0  0  0  0  0  0  0  0  0
   21.3481   -7.2115  -16.9906 O   0  0  0  0  0  0  0  0  0  0  0  0
   22.0146   -3.8234  -14.7631 O   0  0  0  0  0  0  0  0  0  0  0  0
   20.5016   -7.7767  -14.9491 N   0  0  0  0  0  0  0  0  0  0  0  0
   19.1407   -7.8963  -15.5305 C   0  0  1  0  0  0  0  0  0  0  0  0
   18.4264   -9.0124  -14.8568 C   0  0  0  0  0  0  0  0  0  0  0  0
   17.0258   -9.1986  -15.1374 C   0  0  0  0  0  0  0  0  0  0  0  0
   16.1940   -8.5828  -16.0201 C   0  0  0  0  0  0  0  0  0  0  0  0
   14.9511   -9.1559  -15.9660 N   0  0  0  0  0  0  0  0  0  0  0  0
   15.0339  -10.1123  -15.0571 C   0  0  0  0  0  0  0  0  0  0  0  0
   16.2618  -10.1663  -14.5407 N   0  0  0  0  0  0  0  0  0  0  0  0
   18.5385   -6.5756  -15.2886 C   0  0  0  0  0  0  0  0  0  0  0  0
   17.7001   -6.0825  -16.0502 O   0  0  0  0  0  0  0  0  0  0  0  0
   18.9036   -5.8363  -14.1788 O   0  0  0  0  0  0  0  0  0  0  0  0
  2  3  1  1
  2  1  1  0
  4  2  1  0
  4  5  1  1
  6  4  1  0
  7  6  2  0
  8  6  1  0
  9 10  1  6
  9  8  1  0
 10 11  1  0
 11 15  1  0
 11 12  2  0
 13  9  1  0
 14 13  2  0
 16 13  1  0
 17 18  1  1
 17 16  1  0
 18 19  1  0
 19 20  2  0
 20 21  1  0
 22 21  1  0
 23 19  1  0
 23 22  2  0
 24 17  1  0
 25 24  2  0
 26 24  1  0
M  END
$$$$
