VDH.pdb
     RDKit          3D

 26 26  0  0  1  0  0  0  0  0999 V2000
   18.3743  -14.2426  -18.5200 C   0  0  0  0  0  0  0  0  0  0  0  0
   17.5681  -14.3785  -17.2450 C   0  0  1  0  0  0  0  0  0  0  0  0
   17.3050  -15.8063  -16.8949 C   0  0  0  0  0  0  0  0  0  0  0  0
   18.3159  -13.6311  -16.1665 C   0  0  2  0  0  0  0  0  0  0  0  0
   17.7073  -13.8293  -14.8800 N   0  0  0  0  0  0  0  0  0  0  0  0
   18.4338  -12.1914  -16.4398 C   0  0  0  0  0  0  0  0  0  0  0  0
   18.9799  -11.7468  -17.4896 O   0  0  0  0  0  0  0  0  0  0  0  0
   17.9194  -11.2633  -15.4977 N   0  0  0  0  0  0  0  0  0  0  0  0
   18.0699   -9.7957  -15.6947 C   0  0  1  0  0  0  0  0  0  0  0  0
   17.0918   -9.0782  -14.8146 C   0  0  0  0  0  0  0  0  0  0  0  0
   15.7103   -9.1910  -15.2817 C   0  0  0  0  0  0  0  0  0  0  0  0
   15.3014   -9.3070  -16.4517 O   0  0  0  0  0  0  0  0  0  0  0  0
   19.4745   -9.4969  -15.3582 C   0  0  0  0  0  0  0  0  0  0  0  0
   19.9998   -9.9455  -14.3274 O   0  0  0  0  0  0  0  0  0  0  0  0
   14.7010   -9.1677  -14.2991 O   0  0  0  0  0  0  0  0  0  0  0  0
   20.2500   -8.6872  -16.2136 N   0  0  0  0  0  0  0  0  0  0  0  0
   21.6574   -8.3898  -15.8455 C   0  0  1  0  0  0  0  0  0  0  0  0
   22.5578   -8.9864  -16.8668 C   0  0  0  0  0  0  0  0  0  0  0  0
   23.9641   -8.6807  -16.8034 C   0  0  0  0  0  0  0  0  0  0  0  0
   24.8311   -8.6399  -15.7560 C   0  0  0  0  0  0  0  0  0  0  0  0
   26.0939   -8.3619  -16.2077 N   0  0  0  0  0  0  0  0  0  0  0  0
   25.9888   -8.2373  -17.5196 C   0  0  0  0  0  0  0  0  0  0  0  0
   24.7278   -8.4222  -17.9108 N   0  0  0  0  0  0  0  0  0  0  0  0
   21.7049   -6.9197  -15.7998 C   0  0  0  0  0  0  0  0  0  0  0  0
   22.7606   -6.2975  -15.6434 O   0  0  0  0  0  0  0  0  0  0  0  0
   20.5439   -6.1808  -15.9333 O   0  0  0  0  0  0  0  0  0  0  0  0
  2  3  1  1
  2  1  1  0
  4  2  1  0
  4  5  1  1
  6  4  1  0
  7  6  2  0
  8  6  1  0
  9 10  1  1
  9  8  1  0
 10 11  1  0
 11 15  1  0
 11 12  2  0
 13  9  1  0
 14 13  2  0
 16 13  1  0
 17 18  1  6
 17 16  1  0
 18 19  1  0
 19 20  2  0
 20 21  1  0
 22 21  1  0
 23 19  1  0
 23 22  2  0
 24 17  1  0
 25 24  2  0
 26 24  1  0
M  END
$$$$
