VDH.pdb
     RDKit          3D

 26 26  0  0  1  0  0  0  0  0999 V2000
   26.8661  -16.9193  -15.0159 C   0  0  0  0  0  0  0  0  0  0  0  0
   26.5497  -17.8716  -16.1503 C   0  0  1  0  0  0  0  0  0  0  0  0
   27.7645  -18.2252  -16.9437 C   0  0  0  0  0  0  0  0  0  0  0  0
   25.8676  -19.0739  -15.5419 C   0  0  2  0  0  0  0  0  0  0  0  0
   25.8199  -20.1693  -16.4707 N   0  0  0  0  0  0  0  0  0  0  0  0
   24.5118  -18.7812  -15.0545 C   0  0  0  0  0  0  0  0  0  0  0  0
   24.2884  -17.9125  -14.1637 O   0  0  0  0  0  0  0  0  0  0  0  0
   23.4117  -19.4941  -15.5976 N   0  0  0  0  0  0  0  0  0  0  0  0
   22.0128  -19.1837  -15.1951 C   0  0  1  0  0  0  0  0  0  0  0  0
   21.1950  -18.9177  -16.4224 C   0  0  0  0  0  0  0  0  0  0  0  0
   19.8065  -18.5697  -16.1218 C   0  0  0  0  0  0  0  0  0  0  0  0
   19.3768  -17.5585  -15.5367 O   0  0  0  0  0  0  0  0  0  0  0  0
   21.5512  -20.3635  -14.4399 C   0  0  0  0  0  0  0  0  0  0  0  0
   22.3505  -21.2195  -14.0297 O   0  0  0  0  0  0  0  0  0  0  0  0
   18.8161  -19.4808  -16.5387 O   0  0  0  0  0  0  0  0  0  0  0  0
   20.1781  -20.5378  -14.1698 N   0  0  0  0  0  0  0  0  0  0  0  0
   19.7540  -21.6399  -13.2697 C   0  0  1  0  0  0  0  0  0  0  0  0
   20.3809  -21.4401  -11.9367 C   0  0  0  0  0  0  0  0  0  0  0  0
   19.9308  -22.2561  -10.8382 C   0  0  0  0  0  0  0  0  0  0  0  0
   19.0290  -23.2729  -10.7813 C   0  0  0  0  0  0  0  0  0  0  0  0
   18.9881  -23.7883   -9.5129 N   0  0  0  0  0  0  0  0  0  0  0  0
   19.8612  -23.0872   -8.8101 C   0  0  0  0  0  0  0  0  0  0  0  0
   20.4443  -22.1615   -9.5718 N   0  0  0  0  0  0  0  0  0  0  0  0
   18.2862  -21.5365  -13.2558 C   0  0  0  0  0  0  0  0  0  0  0  0
   17.5533  -22.5206  -13.3995 O   0  0  0  0  0  0  0  0  0  0  0  0
   17.6761  -20.3086  -13.0780 O   0  0  0  0  0  0  0  0  0  0  0  0
  2  3  1  1
  2  1  1  0
  4  2  1  0
  4  5  1  6
  6  4  1  0
  7  6  2  0
  8  6  1  0
  9 10  1  6
  9  8  1  0
 10 11  1  0
 11 15  1  0
 11 12  2  0
 13  9  1  0
 14 13  2  0
 16 13  1  0
 17 18  1  1
 17 16  1  0
 18 19  1  0
 19 20  2  0
 20 21  1  0
 22 21  1  0
 23 19  1  0
 23 22  2  0
 24 17  1  0
 25 24  2  0
 26 24  1  0
M  END
$$$$
