VDH.pdb
     RDKit          3D

 26 26  0  0  1  0  0  0  0  0999 V2000
   28.1902  -22.0316  -16.3413 C   0  0  0  0  0  0  0  0  0  0  0  0
   27.5963  -20.6662  -16.6183 C   0  0  1  0  0  0  0  0  0  0  0  0
   27.2375  -20.4899  -18.0573 C   0  0  0  0  0  0  0  0  0  0  0  0
   26.4182  -20.4987  -15.6882 C   0  0  2  0  0  0  0  0  0  0  0  0
   25.4775  -21.5738  -15.8428 N   0  0  0  0  0  0  0  0  0  0  0  0
   25.7286  -19.2116  -15.8587 C   0  0  0  0  0  0  0  0  0  0  0  0
   26.3082  -18.1051  -15.6643 O   0  0  0  0  0  0  0  0  0  0  0  0
   24.3661  -19.2032  -16.2547 N   0  0  0  0  0  0  0  0  0  0  0  0
   23.5931  -17.9343  -16.3435 C   0  0  1  0  0  0  0  0  0  0  0  0
   23.5274  -17.4972  -17.7755 C   0  0  0  0  0  0  0  0  0  0  0  0
   22.8155  -16.2324  -17.9568 C   0  0  0  0  0  0  0  0  0  0  0  0
   22.7001  -15.2925  -17.1487 O   0  0  0  0  0  0  0  0  0  0  0  0
   22.2679  -18.2418  -15.7738 C   0  0  0  0  0  0  0  0  0  0  0  0
   21.7431  -19.3558  -15.9269 O   0  0  0  0  0  0  0  0  0  0  0  0
   22.1731  -16.0338  -19.1947 O   0  0  0  0  0  0  0  0  0  0  0  0
   21.5696  -17.2622  -15.0379 N   0  0  0  0  0  0  0  0  0  0  0  0
   20.2428  -17.6007  -14.4636 C   0  0  1  0  0  0  0  0  0  0  0  0
   20.3167  -17.4879  -12.9832 C   0  0  0  0  0  0  0  0  0  0  0  0
   20.7216  -18.6451  -12.2269 C   0  0  0  0  0  0  0  0  0  0  0  0
   21.0662  -19.9016  -12.6176 C   0  0  0  0  0  0  0  0  0  0  0  0
   21.4441  -20.6406  -11.5280 N   0  0  0  0  0  0  0  0  0  0  0  0
   21.3293  -19.8337  -10.4872 C   0  0  0  0  0  0  0  0  0  0  0  0
   20.8994  -18.6309  -10.8688 N   0  0  0  0  0  0  0  0  0  0  0  0
   19.3320  -16.6276  -15.0874 C   0  0  0  0  0  0  0  0  0  0  0  0
   18.1144  -16.6347  -14.8788 O   0  0  0  0  0  0  0  0  0  0  0  0
   19.8261  -15.6594  -15.9418 O   0  0  0  0  0  0  0  0  0  0  0  0
  2  3  1  6
  2  1  1  0
  4  2  1  0
  4  5  1  6
  6  4  1  0
  7  6  2  0
  8  6  1  0
  9 10  1  6
  9  8  1  0
 10 11  1  0
 11 15  1  0
 11 12  2  0
 13  9  1  0
 14 13  2  0
 16 13  1  0
 17 18  1  1
 17 16  1  0
 18 19  1  0
 19 20  2  0
 20 21  1  0
 22 21  1  0
 23 19  1  0
 23 22  2  0
 24 17  1  0
 25 24  2  0
 26 24  1  0
M  END
$$$$
