VDH.pdb
     RDKit          3D

 26 26  0  0  1  0  0  0  0  0999 V2000
   17.4008  -14.4430  -12.8651 C   0  0  0  0  0  0  0  0  0  0  0  0
   17.1196  -13.9096  -14.2544 C   0  0  1  0  0  0  0  0  0  0  0  0
   16.4102  -14.9088  -15.1081 C   0  0  0  0  0  0  0  0  0  0  0  0
   16.3511  -12.6203  -14.0866 C   0  0  2  0  0  0  0  0  0  0  0  0
   15.9396  -12.0918  -15.3579 N   0  0  0  0  0  0  0  0  0  0  0  0
   17.1009  -11.5954  -13.3459 C   0  0  0  0  0  0  0  0  0  0  0  0
   17.5461  -11.7966  -12.1799 O   0  0  0  0  0  0  0  0  0  0  0  0
   17.3368  -10.3353  -13.9538 N   0  0  0  0  0  0  0  0  0  0  0  0
   17.9863   -9.2241  -13.2064 C   0  0  1  0  0  0  0  0  0  0  0  0
   18.6448   -8.2946  -14.1803 C   0  0  0  0  0  0  0  0  0  0  0  0
   19.2515   -7.1283  -13.5391 C   0  0  0  0  0  0  0  0  0  0  0  0
   18.7112   -6.0474  -13.2403 O   0  0  0  0  0  0  0  0  0  0  0  0
   16.9027   -8.5815  -12.4394 C   0  0  0  0  0  0  0  0  0  0  0  0
   15.7443   -8.5282  -12.8810 O   0  0  0  0  0  0  0  0  0  0  0  0
   20.6183   -7.2201  -13.2105 O   0  0  0  0  0  0  0  0  0  0  0  0
   17.1709   -8.0114  -11.1777 N   0  0  0  0  0  0  0  0  0  0  0  0
   16.0573   -7.3953  -10.4128 C   0  0  1  0  0  0  0  0  0  0  0  0
   15.1597   -8.4724   -9.9189 C   0  0  0  0  0  0  0  0  0  0  0  0
   14.0678   -8.1109   -9.0516 C   0  0  0  0  0  0  0  0  0  0  0  0
   13.6885   -6.9124   -8.5319 C   0  0  0  0  0  0  0  0  0  0  0  0
   12.5345   -7.0626   -7.8095 N   0  0  0  0  0  0  0  0  0  0  0  0
   12.2195   -8.3437   -7.8946 C   0  0  0  0  0  0  0  0  0  0  0  0
   13.1155   -9.0011   -8.6310 N   0  0  0  0  0  0  0  0  0  0  0  0
   16.7374   -6.6522   -9.3401 C   0  0  0  0  0  0  0  0  0  0  0  0
   17.8849   -6.9249   -8.9726 O   0  0  0  0  0  0  0  0  0  0  0  0
   16.0957   -5.6071   -8.7018 O   0  0  0  0  0  0  0  0  0  0  0  0
  2  3  1  6
  2  1  1  0
  4  2  1  0
  4  5  1  6
  6  4  1  0
  7  6  2  0
  8  6  1  0
  9 10  1  6
  9  8  1  0
 10 11  1  0
 11 15  1  0
 11 12  2  0
 13  9  1  0
 14 13  2  0
 16 13  1  0
 17 18  1  1
 17 16  1  0
 18 19  1  0
 19 20  2  0
 20 21  1  0
 22 21  1  0
 23 19  1  0
 23 22  2  0
 24 17  1  0
 25 24  2  0
 26 24  1  0
M  END
$$$$
