VDH.pdb
     RDKit          3D

 26 26  0  0  1  0  0  0  0  0999 V2000
   27.1190  -14.0586  -16.8666 C   0  0  0  0  0  0  0  0  0  0  0  0
   25.7411  -13.5775  -17.2712 C   0  0  1  0  0  0  0  0  0  0  0  0
   24.6891  -14.6074  -17.0198 C   0  0  0  0  0  0  0  0  0  0  0  0
   25.4909  -12.2820  -16.5364 C   0  0  2  0  0  0  0  0  0  0  0  0
   25.5621  -12.4698  -15.1135 N   0  0  0  0  0  0  0  0  0  0  0  0
   24.2063  -11.6596  -16.8879 C   0  0  0  0  0  0  0  0  0  0  0  0
   23.9252  -11.3155  -18.0714 O   0  0  0  0  0  0  0  0  0  0  0  0
   23.2442  -11.4344  -15.8696 N   0  0  0  0  0  0  0  0  0  0  0  0
   21.9492  -10.7619  -16.1625 C   0  0  1  0  0  0  0  0  0  0  0  0
   20.8233  -11.6785  -15.7905 C   0  0  0  0  0  0  0  0  0  0  0  0
   19.5045  -11.0894  -16.0208 C   0  0  0  0  0  0  0  0  0  0  0  0
   19.1937  -10.1903  -16.8237 O   0  0  0  0  0  0  0  0  0  0  0  0
   21.9651   -9.5181  -15.3700 C   0  0  0  0  0  0  0  0  0  0  0  0
   22.3058   -9.5184  -14.1768 O   0  0  0  0  0  0  0  0  0  0  0  0
   18.4389  -11.5889  -15.2465 O   0  0  0  0  0  0  0  0  0  0  0  0
   21.5888   -8.2957  -15.9641 N   0  0  0  0  0  0  0  0  0  0  0  0
   21.6432   -7.0527  -15.1539 C   0  0  1  0  0  0  0  0  0  0  0  0
   22.4780   -6.0503  -15.8666 C   0  0  0  0  0  0  0  0  0  0  0  0
   22.5326   -4.7085  -15.3455 C   0  0  0  0  0  0  0  0  0  0  0  0
   22.1123   -4.1831  -14.1633 C   0  0  0  0  0  0  0  0  0  0  0  0
   22.4464   -2.8564  -14.0985 N   0  0  0  0  0  0  0  0  0  0  0  0
   23.0657   -2.5843  -15.2343 C   0  0  0  0  0  0  0  0  0  0  0  0
   23.1354   -3.6701  -16.0047 N   0  0  0  0  0  0  0  0  0  0  0  0
   20.2315   -6.6598  -15.0188 C   0  0  0  0  0  0  0  0  0  0  0  0
   19.3791   -6.9590  -15.8614 O   0  0  0  0  0  0  0  0  0  0  0  0
   19.8136   -5.9299  -13.9215 O   0  0  0  0  0  0  0  0  0  0  0  0
  2  3  1  1
  2  1  1  0
  4  2  1  0
  4  5  1  1
  6  4  1  0
  7  6  2  0
  8  6  1  0
  9 10  1  1
  9  8  1  0
 10 11  1  0
 11 15  1  0
 11 12  2  0
 13  9  1  0
 14 13  2  0
 16 13  1  0
 17 18  1  6
 17 16  1  0
 18 19  1  0
 19 20  2  0
 20 21  1  0
 22 21  1  0
 23 19  1  0
 23 22  2  0
 24 17  1  0
 25 24  2  0
 26 24  1  0
M  END
$$$$
