VDH.pdb
     RDKit          3D

 26 26  0  0  1  0  0  0  0  0999 V2000
   22.6245  -10.7628  -21.1422 C   0  0  0  0  0  0  0  0  0  0  0  0
   22.0079   -9.7142  -20.2401 C   0  0  1  0  0  0  0  0  0  0  0  0
   21.0360   -8.8457  -20.9692 C   0  0  0  0  0  0  0  0  0  0  0  0
   21.3905  -10.4437  -19.0706 C   0  0  2  0  0  0  0  0  0  0  0  0
   20.4605  -11.4447  -19.5153 N   0  0  0  0  0  0  0  0  0  0  0  0
   20.7272   -9.5437  -18.1159 C   0  0  0  0  0  0  0  0  0  0  0  0
   19.4748   -9.3721  -18.1095 O   0  0  0  0  0  0  0  0  0  0  0  0
   21.5131   -8.8405  -17.1666 N   0  0  0  0  0  0  0  0  0  0  0  0
   20.8995   -7.8686  -16.2209 C   0  0  1  0  0  0  0  0  0  0  0  0
   21.2604   -8.2522  -14.8178 C   0  0  0  0  0  0  0  0  0  0  0  0
   20.6707   -7.3687  -13.8123 C   0  0  0  0  0  0  0  0  0  0  0  0
   19.9178   -6.3938  -13.9921 O   0  0  0  0  0  0  0  0  0  0  0  0
   21.4324   -6.5503  -16.6128 C   0  0  0  0  0  0  0  0  0  0  0  0
   22.5776   -6.4295  -17.0751 O   0  0  0  0  0  0  0  0  0  0  0  0
   20.9819   -7.6385  -12.4650 O   0  0  0  0  0  0  0  0  0  0  0  0
   20.6383   -5.3942  -16.4660 N   0  0  0  0  0  0  0  0  0  0  0  0
   21.1952   -4.0798  -16.8745 C   0  0  1  0  0  0  0  0  0  0  0  0
   21.5011   -4.1181  -18.3286 C   0  0  0  0  0  0  0  0  0  0  0  0
   21.9081   -2.8973  -18.9760 C   0  0  0  0  0  0  0  0  0  0  0  0
   23.1102   -2.2630  -19.0293 C   0  0  0  0  0  0  0  0  0  0  0  0
   23.0175   -1.1564  -19.8312 N   0  0  0  0  0  0  0  0  0  0  0  0
   21.7673   -1.1250  -20.2597 C   0  0  0  0  0  0  0  0  0  0  0  0
   21.0747   -2.1523  -19.7677 N   0  0  0  0  0  0  0  0  0  0  0  0
   20.1356   -3.1233  -16.5166 C   0  0  0  0  0  0  0  0  0  0  0  0
   19.0058   -3.4870  -16.1742 O   0  0  0  0  0  0  0  0  0  0  0  0
   20.3826   -1.7635  -16.5555 O   0  0  0  0  0  0  0  0  0  0  0  0
  2  3  1  6
  2  1  1  0
  4  2  1  0
  4  5  1  6
  6  4  1  0
  7  6  2  0
  8  6  1  0
  9 10  1  1
  9  8  1  0
 10 11  1  0
 11 15  1  0
 11 12  2  0
 13  9  1  0
 14 13  2  0
 16 13  1  0
 17 18  1  6
 17 16  1  0
 18 19  1  0
 19 20  2  0
 20 21  1  0
 22 21  1  0
 23 19  1  0
 23 22  2  0
 24 17  1  0
 25 24  2  0
 26 24  1  0
M  END
$$$$
