VDH.pdb
     RDKit          3D

 26 26  0  0  1  0  0  0  0  0999 V2000
   18.3502  -10.1560  -15.0201 C   0  0  0  0  0  0  0  0  0  0  0  0
   16.9830  -10.7408  -15.3077 C   0  0  1  0  0  0  0  0  0  0  0  0
   17.0671  -12.1364  -15.8329 C   0  0  0  0  0  0  0  0  0  0  0  0
   16.1787  -10.6336  -14.0339 C   0  0  2  0  0  0  0  0  0  0  0  0
   14.8553  -11.1655  -14.2091 N   0  0  0  0  0  0  0  0  0  0  0  0
   16.0936   -9.2585  -13.5209 C   0  0  0  0  0  0  0  0  0  0  0  0
   15.2885   -8.4091  -13.9988 O   0  0  0  0  0  0  0  0  0  0  0  0
   16.9408   -8.8642  -12.4531 N   0  0  0  0  0  0  0  0  0  0  0  0
   16.9463   -7.4652  -11.9449 C   0  0  1  0  0  0  0  0  0  0  0  0
   16.9928   -7.4860  -10.4470 C   0  0  0  0  0  0  0  0  0  0  0  0
   16.9070   -6.1524   -9.8523 C   0  0  0  0  0  0  0  0  0  0  0  0
   16.9193   -5.8465   -8.6457 O   0  0  0  0  0  0  0  0  0  0  0  0
   18.1339   -6.8331  -12.5493 C   0  0  0  0  0  0  0  0  0  0  0  0
   19.2816   -7.1866  -12.2369 O   0  0  0  0  0  0  0  0  0  0  0  0
   16.7959   -5.0642  -10.7400 O   0  0  0  0  0  0  0  0  0  0  0  0
   17.9802   -5.8053  -13.5026 N   0  0  0  0  0  0  0  0  0  0  0  0
   19.1908   -5.2065  -14.1196 C   0  0  1  0  0  0  0  0  0  0  0  0
   19.4609   -5.8913  -15.4111 C   0  0  0  0  0  0  0  0  0  0  0  0
   20.1270   -7.1682  -15.3838 C   0  0  0  0  0  0  0  0  0  0  0  0
   21.3215   -7.5504  -14.8571 C   0  0  0  0  0  0  0  0  0  0  0  0
   21.4944   -8.8987  -15.0255 N   0  0  0  0  0  0  0  0  0  0  0  0
   20.4099   -9.3266  -15.6487 C   0  0  0  0  0  0  0  0  0  0  0  0
   19.5697   -8.3174  -15.8787 N   0  0  0  0  0  0  0  0  0  0  0  0
   18.8437   -3.7838  -14.2643 C   0  0  0  0  0  0  0  0  0  0  0  0
   19.6305   -2.9568  -14.7365 O   0  0  0  0  0  0  0  0  0  0  0  0
   17.6011   -3.3261  -13.8668 O   0  0  0  0  0  0  0  0  0  0  0  0
  2  3  1  1
  2  1  1  0
  4  2  1  0
  4  5  1  6
  6  4  1  0
  7  6  2  0
  8  6  1  0
  9 10  1  1
  9  8  1  0
 10 11  1  0
 11 15  1  0
 11 12  2  0
 13  9  1  0
 14 13  2  0
 16 13  1  0
 17 18  1  6
 17 16  1  0
 18 19  1  0
 19 20  2  0
 20 21  1  0
 22 21  1  0
 23 19  1  0
 23 22  2  0
 24 17  1  0
 25 24  2  0
 26 24  1  0
M  END
$$$$
