VDH.pdb
     RDKit          3D

 26 26  0  0  1  0  0  0  0  0999 V2000
   17.0337  -11.5909  -14.6122 C   0  0  0  0  0  0  0  0  0  0  0  0
   17.3583  -10.9814  -15.9601 C   0  0  1  0  0  0  0  0  0  0  0  0
   16.1308  -10.7173  -16.7687 C   0  0  0  0  0  0  0  0  0  0  0  0
   18.1756   -9.7385  -15.6988 C   0  0  2  0  0  0  0  0  0  0  0  0
   19.4246  -10.0617  -15.0661 N   0  0  0  0  0  0  0  0  0  0  0  0
   17.4599   -8.7374  -14.8945 C   0  0  0  0  0  0  0  0  0  0  0  0
   16.3869   -8.1976  -15.2887 O   0  0  0  0  0  0  0  0  0  0  0  0
   17.9853   -8.3593  -13.6318 N   0  0  0  0  0  0  0  0  0  0  0  0
   17.3175   -7.3273  -12.7926 C   0  0  1  0  0  0  0  0  0  0  0  0
   17.2164   -7.8284  -11.3838 C   0  0  0  0  0  0  0  0  0  0  0  0
   16.5612   -6.8799  -10.4836 C   0  0  0  0  0  0  0  0  0  0  0  0
   15.9549   -5.8334  -10.7783 O   0  0  0  0  0  0  0  0  0  0  0  0
   18.1553   -6.1196  -12.9157 C   0  0  0  0  0  0  0  0  0  0  0  0
   17.8395   -5.0566  -12.3588 O   0  0  0  0  0  0  0  0  0  0  0  0
   16.6117   -7.1693   -9.1058 O   0  0  0  0  0  0  0  0  0  0  0  0
   19.3416   -6.1562  -13.6773 N   0  0  0  0  0  0  0  0  0  0  0  0
   20.2265   -4.9640  -13.6922 C   0  0  1  0  0  0  0  0  0  0  0  0
   21.4435   -5.2584  -12.8909 C   0  0  0  0  0  0  0  0  0  0  0  0
   21.2991   -5.4518  -11.4708 C   0  0  0  0  0  0  0  0  0  0  0  0
   20.8599   -4.6200  -10.4881 C   0  0  0  0  0  0  0  0  0  0  0  0
   20.8408   -5.2841   -9.2903 N   0  0  0  0  0  0  0  0  0  0  0  0
   21.2645   -6.5091   -9.5499 C   0  0  0  0  0  0  0  0  0  0  0  0
   21.5476   -6.6449  -10.8455 N   0  0  0  0  0  0  0  0  0  0  0  0
   20.4969   -4.7455  -15.1221 C   0  0  0  0  0  0  0  0  0  0  0  0
   19.9896   -5.4455  -16.0046 O   0  0  0  0  0  0  0  0  0  0  0  0
   21.3440   -3.7293  -15.5235 O   0  0  0  0  0  0  0  0  0  0  0  0
  2  3  1  1
  2  1  1  0
  4  2  1  0
  4  5  1  1
  6  4  1  0
  7  6  2  0
  8  6  1  0
  9 10  1  1
  9  8  1  0
 10 11  1  0
 11 15  1  0
 11 12  2  0
 13  9  1  0
 14 13  2  0
 16 13  1  0
 17 18  1  1
 17 16  1  0
 18 19  1  0
 19 20  2  0
 20 21  1  0
 22 21  1  0
 23 19  1  0
 23 22  2  0
 24 17  1  0
 25 24  2  0
 26 24  1  0
M  END
$$$$
