VDH.pdb
     RDKit          3D

 26 26  0  0  1  0  0  0  0  0999 V2000
   14.7213  -10.7170  -15.7153 C   0  0  0  0  0  0  0  0  0  0  0  0
   15.3526  -12.0381  -15.3281 C   0  0  1  0  0  0  0  0  0  0  0  0
   16.3847  -12.4788  -16.3135 C   0  0  0  0  0  0  0  0  0  0  0  0
   15.8989  -11.8748  -13.9296 C   0  0  2  0  0  0  0  0  0  0  0  0
   14.8383  -11.7184  -12.9727 N   0  0  0  0  0  0  0  0  0  0  0  0
   16.8426  -10.7542  -13.8074 C   0  0  0  0  0  0  0  0  0  0  0  0
   18.0041  -10.7934  -14.3049 O   0  0  0  0  0  0  0  0  0  0  0  0
   16.4432   -9.5856  -13.1085 N   0  0  0  0  0  0  0  0  0  0  0  0
   17.2946   -8.3649  -13.0906 C   0  0  1  0  0  0  0  0  0  0  0  0
   17.5776   -7.9414  -14.5001 C   0  0  0  0  0  0  0  0  0  0  0  0
   18.7643   -7.0944  -14.6168 C   0  0  0  0  0  0  0  0  0  0  0  0
   19.1987   -6.2627  -13.7989 O   0  0  0  0  0  0  0  0  0  0  0  0
   16.5253   -7.3615  -12.3311 C   0  0  0  0  0  0  0  0  0  0  0  0
   15.3766   -7.0376  -12.6708 O   0  0  0  0  0  0  0  0  0  0  0  0
   19.5247   -7.2211  -15.7960 O   0  0  0  0  0  0  0  0  0  0  0  0
   17.0911   -6.7484  -11.1941 N   0  0  0  0  0  0  0  0  0  0  0  0
   16.2860   -5.7618  -10.4305 C   0  0  1  0  0  0  0  0  0  0  0  0
   16.1967   -6.2067   -9.0150 C   0  0  0  0  0  0  0  0  0  0  0  0
   15.1332   -7.1048   -8.6444 C   0  0  0  0  0  0  0  0  0  0  0  0
   14.1072   -7.6327   -9.3649 C   0  0  0  0  0  0  0  0  0  0  0  0
   13.3857   -8.4961   -8.5839 N   0  0  0  0  0  0  0  0  0  0  0  0
   13.9742   -8.4896   -7.4001 C   0  0  0  0  0  0  0  0  0  0  0  0
   15.0241   -7.6680   -7.4005 N   0  0  0  0  0  0  0  0  0  0  0  0
   17.0180   -4.4978  -10.6095 C   0  0  0  0  0  0  0  0  0  0  0  0
   18.1440   -4.4527  -11.1156 O   0  0  0  0  0  0  0  0  0  0  0  0
   16.4521   -3.3023  -10.2071 O   0  0  0  0  0  0  0  0  0  0  0  0
  2  3  1  6
  2  1  1  0
  4  2  1  0
  4  5  1  1
  6  4  1  0
  7  6  2  0
  8  6  1  0
  9 10  1  6
  9  8  1  0
 10 11  1  0
 11 15  1  0
 11 12  2  0
 13  9  1  0
 14 13  2  0
 16 13  1  0
 17 18  1  1
 17 16  1  0
 18 19  1  0
 19 20  2  0
 20 21  1  0
 22 21  1  0
 23 19  1  0
 23 22  2  0
 24 17  1  0
 25 24  2  0
 26 24  1  0
M  END
$$$$
