VDH.pdb
     RDKit          3D

 26 26  0  0  1  0  0  0  0  0999 V2000
   16.9637   -9.3257  -18.9626 C   0  0  0  0  0  0  0  0  0  0  0  0
   17.9286   -8.6766  -17.9923 C   0  0  1  0  0  0  0  0  0  0  0  0
   17.2443   -7.7160  -17.0760 C   0  0  0  0  0  0  0  0  0  0  0  0
   18.6381   -9.7914  -17.2609 C   0  0  2  0  0  0  0  0  0  0  0  0
   17.7025  -10.6455  -16.5827 N   0  0  0  0  0  0  0  0  0  0  0  0
   19.6436   -9.3044  -16.3053 C   0  0  0  0  0  0  0  0  0  0  0  0
   19.4196   -9.2447  -15.0626 O   0  0  0  0  0  0  0  0  0  0  0  0
   20.9108   -8.8854  -16.7870 N   0  0  0  0  0  0  0  0  0  0  0  0
   21.9435   -8.3312  -15.8695 C   0  0  1  0  0  0  0  0  0  0  0  0
   23.2108   -9.1163  -16.0232 C   0  0  0  0  0  0  0  0  0  0  0  0
   23.1673  -10.4129  -15.3477 C   0  0  0  0  0  0  0  0  0  0  0  0
   22.5117  -10.7326  -14.3389 O   0  0  0  0  0  0  0  0  0  0  0  0
   22.0925   -6.9156  -16.2562 C   0  0  0  0  0  0  0  0  0  0  0  0
   22.2224   -6.5822  -17.4444 O   0  0  0  0  0  0  0  0  0  0  0  0
   23.9603  -11.4424  -15.8918 O   0  0  0  0  0  0  0  0  0  0  0  0
   22.0893   -5.9085  -15.2691 N   0  0  0  0  0  0  0  0  0  0  0  0
   22.2609   -4.4927  -15.6822 C   0  0  1  0  0  0  0  0  0  0  0  0
   21.1989   -3.6730  -15.0420 C   0  0  0  0  0  0  0  0  0  0  0  0
   19.8672   -3.7283  -15.5884 C   0  0  0  0  0  0  0  0  0  0  0  0
   19.3471   -4.4398  -16.6246 C   0  0  0  0  0  0  0  0  0  0  0  0
   18.0011   -4.2054  -16.7210 N   0  0  0  0  0  0  0  0  0  0  0  0
   17.7115   -3.3588  -15.7478 C   0  0  0  0  0  0  0  0  0  0  0  0
   18.8049   -3.0519  -15.0496 N   0  0  0  0  0  0  0  0  0  0  0  0
   23.6210   -4.1579  -15.2310 C   0  0  0  0  0  0  0  0  0  0  0  0
   24.2864   -4.9173  -14.5192 O   0  0  0  0  0  0  0  0  0  0  0  0
   24.2017   -2.9586  -15.5998 O   0  0  0  0  0  0  0  0  0  0  0  0
  2  3  1  1
  2  1  1  0
  4  2  1  0
  4  5  1  1
  6  4  1  0
  7  6  2  0
  8  6  1  0
  9 10  1  6
  9  8  1  0
 10 11  1  0
 11 15  1  0
 11 12  2  0
 13  9  1  0
 14 13  2  0
 16 13  1  0
 17 18  1  1
 17 16  1  0
 18 19  1  0
 19 20  2  0
 20 21  1  0
 22 21  1  0
 23 19  1  0
 23 22  2  0
 24 17  1  0
 25 24  2  0
 26 24  1  0
M  END
$$$$
