VDH.pdb
     RDKit          3D

 26 26  0  0  1  0  0  0  0  0999 V2000
   23.5387  -11.8714  -20.6360 C   0  0  0  0  0  0  0  0  0  0  0  0
   22.6371  -11.1574  -19.6506 C   0  0  1  0  0  0  0  0  0  0  0  0
   21.2324  -11.6619  -19.7053 C   0  0  0  0  0  0  0  0  0  0  0  0
   23.2678  -11.3046  -18.2862 C   0  0  2  0  0  0  0  0  0  0  0  0
   23.4737  -12.6878  -17.9557 N   0  0  0  0  0  0  0  0  0  0  0  0
   22.4927  -10.6530  -17.2204 C   0  0  0  0  0  0  0  0  0  0  0  0
   21.7606  -11.3063  -16.4233 O   0  0  0  0  0  0  0  0  0  0  0  0
   22.5636   -9.2433  -17.0754 N   0  0  0  0  0  0  0  0  0  0  0  0
   21.7056   -8.5211  -16.0969 C   0  0  1  0  0  0  0  0  0  0  0  0
   22.5037   -8.2318  -14.8619 C   0  0  0  0  0  0  0  0  0  0  0  0
   21.7340   -7.5338  -13.8324 C   0  0  0  0  0  0  0  0  0  0  0  0
   20.7087   -7.9225  -13.2431 O   0  0  0  0  0  0  0  0  0  0  0  0
   21.2591   -7.3000  -16.7933 C   0  0  0  0  0  0  0  0  0  0  0  0
   22.0382   -6.6370  -17.4956 O   0  0  0  0  0  0  0  0  0  0  0  0
   22.1950   -6.2601  -13.4452 O   0  0  0  0  0  0  0  0  0  0  0  0
   19.9240   -6.8630  -16.6694 N   0  0  0  0  0  0  0  0  0  0  0  0
   19.4825   -5.6673  -17.4311 C   0  0  1  0  0  0  0  0  0  0  0  0
   18.0432   -5.8181  -17.7709 C   0  0  0  0  0  0  0  0  0  0  0  0
   17.3864   -4.7408  -18.4657 C   0  0  0  0  0  0  0  0  0  0  0  0
   17.8724   -3.5997  -19.0242 C   0  0  0  0  0  0  0  0  0  0  0  0
   16.8580   -2.9122  -19.6361 N   0  0  0  0  0  0  0  0  0  0  0  0
   15.7674   -3.6354  -19.4486 C   0  0  0  0  0  0  0  0  0  0  0  0
   16.0468   -4.7372  -18.7521 N   0  0  0  0  0  0  0  0  0  0  0  0
   19.7619   -4.5472  -16.5186 C   0  0  0  0  0  0  0  0  0  0  0  0
   19.4982   -4.5961  -15.3126 O   0  0  0  0  0  0  0  0  0  0  0  0
   20.3390   -3.3858  -16.9977 O   0  0  0  0  0  0  0  0  0  0  0  0
  2  3  1  1
  2  1  1  0
  4  2  1  0
  4  5  1  1
  6  4  1  0
  7  6  2  0
  8  6  1  0
  9 10  1  1
  9  8  1  0
 10 11  1  0
 11 15  1  0
 11 12  2  0
 13  9  1  0
 14 13  2  0
 16 13  1  0
 17 18  1  1
 17 16  1  0
 18 19  1  0
 19 20  2  0
 20 21  1  0
 22 21  1  0
 23 19  1  0
 23 22  2  0
 24 17  1  0
 25 24  2  0
 26 24  1  0
M  END
$$$$
