VDH.pdb
     RDKit          3D

 26 26  0  0  1  0  0  0  0  0999 V2000
   31.8619  -12.1591  -18.8834 C   0  0  0  0  0  0  0  0  0  0  0  0
   32.1235  -10.6747  -18.7353 C   0  0  1  0  0  0  0  0  0  0  0  0
   30.9876   -9.9663  -18.0732 C   0  0  0  0  0  0  0  0  0  0  0  0
   33.4294  -10.5274  -17.9910 C   0  0  2  0  0  0  0  0  0  0  0  0
   33.3481  -11.1083  -16.6793 N   0  0  0  0  0  0  0  0  0  0  0  0
   33.8773   -9.1311  -17.8850 C   0  0  0  0  0  0  0  0  0  0  0  0
   34.1748   -8.4395  -18.9005 O   0  0  0  0  0  0  0  0  0  0  0  0
   33.9815   -8.5328  -16.6027 N   0  0  0  0  0  0  0  0  0  0  0  0
   34.3307   -7.0945  -16.4451 C   0  0  1  0  0  0  0  0  0  0  0  0
   33.5853   -6.5327  -15.2726 C   0  0  0  0  0  0  0  0  0  0  0  0
   32.2163   -6.1356  -15.6003 C   0  0  0  0  0  0  0  0  0  0  0  0
   31.6282   -6.2335  -16.6931 O   0  0  0  0  0  0  0  0  0  0  0  0
   35.7943   -7.0637  -16.2657 C   0  0  0  0  0  0  0  0  0  0  0  0
   36.3813   -7.9353  -15.6058 O   0  0  0  0  0  0  0  0  0  0  0  0
   31.4507   -5.5691  -14.5622 O   0  0  0  0  0  0  0  0  0  0  0  0
   36.5569   -6.0306  -16.8487 N   0  0  0  0  0  0  0  0  0  0  0  0
   38.0362   -6.0684  -16.7260 C   0  0  1  0  0  0  0  0  0  0  0  0
   38.6368   -5.7085  -18.0373 C   0  0  0  0  0  0  0  0  0  0  0  0
   38.5890   -6.6773  -19.1023 C   0  0  0  0  0  0  0  0  0  0  0  0
   37.6563   -6.9145  -20.0636 C   0  0  0  0  0  0  0  0  0  0  0  0
   38.0920   -7.9080  -20.8998 N   0  0  0  0  0  0  0  0  0  0  0  0
   39.2807   -8.2664  -20.4459 C   0  0  0  0  0  0  0  0  0  0  0  0
   39.6100   -7.5501  -19.3708 N   0  0  0  0  0  0  0  0  0  0  0  0
   38.3244   -5.0999  -15.6563 C   0  0  0  0  0  0  0  0  0  0  0  0
   37.6924   -4.0457  -15.5319 O   0  0  0  0  0  0  0  0  0  0  0  0
   39.3318   -5.3501  -14.7430 O   0  0  0  0  0  0  0  0  0  0  0  0
  2  3  1  1
  2  1  1  0
  4  2  1  0
  4  5  1  1
  6  4  1  0
  7  6  2  0
  8  6  1  0
  9 10  1  1
  9  8  1  0
 10 11  1  0
 11 15  1  0
 11 12  2  0
 13  9  1  0
 14 13  2  0
 16 13  1  0
 17 18  1  6
 17 16  1  0
 18 19  1  0
 19 20  2  0
 20 21  1  0
 22 21  1  0
 23 19  1  0
 23 22  2  0
 24 17  1  0
 25 24  2  0
 26 24  1  0
M  END
$$$$
