LTH.pdb
     RDKit          3D

 26 26  0  0  1  0  0  0  0  0999 V2000
    5.9381  -12.0592   26.1663 C   0  0  0  0  0  0  0  0  0  0  0  0
    6.3663  -12.7022   24.8882 C   0  0  1  0  0  0  0  0  0  0  0  0
    7.4567  -11.8387   24.2656 C   0  0  0  0  0  0  0  0  0  0  0  0
    6.8570  -14.1173   25.0729 C   0  0  0  0  0  0  0  0  0  0  0  0
    7.4293  -14.6132   23.7875 C   0  0  2  0  0  0  0  0  0  0  0  0
    6.3338  -14.9565   22.8937 N   0  0  0  0  0  0  0  0  0  0  0  0
    8.2299  -15.8533   23.9543 C   0  0  0  0  0  0  0  0  0  0  0  0
    7.7689  -16.9422   23.4759 O   0  0  0  0  0  0  0  0  0  0  0  0
    9.3536  -17.6268   22.3494 C   0  0  0  0  0  0  0  0  0  0  0  0
   10.6342  -17.4818   23.1621 C   0  0  1  0  0  0  0  0  0  0  0  0
   11.4759  -16.5295   22.6397 O   0  0  0  0  0  0  0  0  0  0  0  0
   10.2912  -17.1645   24.6068 C   0  0  2  0  0  0  0  0  0  0  0  0
    9.4810  -15.9292   24.6101 N   0  0  0  0  0  0  0  0  0  0  0  0
   11.4574  -17.0271   25.4803 C   0  0  0  0  0  0  0  0  0  0  0  0
   12.0241  -15.8906   25.5913 O   0  0  0  0  0  0  0  0  0  0  0  0
   11.9723  -18.1124   26.2029 N   0  0  0  0  0  0  0  0  0  0  0  0
   12.2014  -18.0444   27.6612 C   0  0  1  0  0  0  0  0  0  0  0  0
   10.9378  -17.7052   28.3749 C   0  0  0  0  0  0  0  0  0  0  0  0
   10.7687  -16.2468   28.4744 C   0  0  0  0  0  0  0  0  0  0  0  0
   11.6420  -15.2645   28.0777 C   0  0  0  0  0  0  0  0  0  0  0  0
   11.1221  -14.0449   28.3724 N   0  0  0  0  0  0  0  0  0  0  0  0
    9.9420  -14.2536   28.9453 C   0  0  0  0  0  0  0  0  0  0  0  0
    9.7051  -15.5869   29.0184 N   0  0  0  0  0  0  0  0  0  0  0  0
   12.6676  -19.3755   28.0770 C   0  0  0  0  0  0  0  0  0  0  0  0
   13.5548  -19.6317   29.1134 O   0  0  0  0  0  0  0  0  0  0  0  0
   12.2479  -20.3899   27.4602 O   0  0  0  0  0  0  0  0  0  0  0  0
  2  1  1  1
  2  4  1  0
  3  2  1  0
  4  5  1  0
  5  7  1  0
  5  6  1  6
  7  8  2  0
 10 12  1  0
 10  9  1  6
 11 10  1  0
 13  7  1  0
 12 13  1  6
 14 12  1  0
 14 15  2  0
 16 14  1  0
 17 16  1  0
 17 24  1  0
 17 18  1  1
 19 23  1  0
 19 18  1  0
 20 19  2  0
 21 20  1  0
 21 22  1  0
 22 23  2  0
 24 25  1  0
 26 24  2  0
M  END
$$$$
