LTH.pdb
     RDKit          3D

 26 26  0  0  1  0  0  0  0  0999 V2000
    7.0670  -21.1728   17.2318 C   0  0  0  0  0  0  0  0  0  0  0  0
    7.4102  -19.7552   16.9113 C   0  0  1  0  0  0  0  0  0  0  0  0
    6.2017  -19.1158   16.2383 C   0  0  0  0  0  0  0  0  0  0  0  0
    7.8205  -18.9567   18.1244 C   0  0  0  0  0  0  0  0  0  0  0  0
    8.2181  -17.5829   17.7000 C   0  0  2  0  0  0  0  0  0  0  0  0
    9.3712  -17.6852   16.8186 N   0  0  0  0  0  0  0  0  0  0  0  0
    8.6436  -16.7292   18.8388 C   0  0  0  0  0  0  0  0  0  0  0  0
    9.8749  -16.7313   19.1719 O   0  0  0  0  0  0  0  0  0  0  0  0
    7.5916  -13.0667   19.4216 C   0  0  0  0  0  0  0  0  0  0  0  0
    7.4540  -13.8025   20.7486 C   0  0  1  0  0  0  0  0  0  0  0  0
    6.1435  -14.0793   21.0556 O   0  0  0  0  0  0  0  0  0  0  0  0
    8.2811  -15.0755   20.7170 C   0  0  2  0  0  0  0  0  0  0  0  0
    7.7837  -15.9007   19.5972 N   0  0  0  0  0  0  0  0  0  0  0  0
    8.2627  -15.8300   21.9709 C   0  0  0  0  0  0  0  0  0  0  0  0
    7.7937  -17.0154   21.9796 O   0  0  0  0  0  0  0  0  0  0  0  0
    8.7482  -15.2865   23.1684 N   0  0  0  0  0  0  0  0  0  0  0  0
    9.1126  -16.1345   24.3224 C   0  0  1  0  0  0  0  0  0  0  0  0
   10.1678  -17.1149   23.9397 C   0  0  0  0  0  0  0  0  0  0  0  0
   10.6326  -17.8684   25.1152 C   0  0  0  0  0  0  0  0  0  0  0  0
   10.1818  -17.7810   26.4091 C   0  0  0  0  0  0  0  0  0  0  0  0
   10.8940  -18.6255   27.1990 N   0  0  0  0  0  0  0  0  0  0  0  0
   11.7790  -19.2348   26.4179 C   0  0  0  0  0  0  0  0  0  0  0  0
   11.6389  -18.7899   25.1444 N   0  0  0  0  0  0  0  0  0  0  0  0
    9.6243  -15.2315   25.3640 C   0  0  0  0  0  0  0  0  0  0  0  0
    9.4847  -15.4179   26.7324 O   0  0  0  0  0  0  0  0  0  0  0  0
   10.2440  -14.1909   25.0196 O   0  0  0  0  0  0  0  0  0  0  0  0
  2  1  1  1
  2  4  1  0
  3  2  1  0
  4  5  1  0
  5  7  1  0
  5  6  1  6
  7  8  2  0
 10 12  1  0
 10  9  1  6
 11 10  1  0
 13  7  1  0
 12 13  1  6
 14 12  1  0
 14 15  2  0
 16 14  1  0
 17 16  1  0
 17 24  1  0
 17 18  1  6
 19 23  1  0
 19 18  1  0
 20 19  2  0
 21 20  1  0
 21 22  1  0
 22 23  2  0
 24 25  1  0
 26 24  2  0
M  END
$$$$
