LTH.pdb
     RDKit          3D

 26 26  0  0  1  0  0  0  0  0999 V2000
    9.5042  -13.0387   18.7630 C   0  0  0  0  0  0  0  0  0  0  0  0
    8.7038  -13.0733   20.0234 C   0  0  1  0  0  0  0  0  0  0  0  0
    7.8780  -11.7947   20.0954 C   0  0  0  0  0  0  0  0  0  0  0  0
    7.8086  -14.2842   20.1229 C   0  0  0  0  0  0  0  0  0  0  0  0
    8.6479  -15.5171   20.1577 C   0  0  2  0  0  0  0  0  0  0  0  0
    8.0799  -16.4910   19.2381 N   0  0  0  0  0  0  0  0  0  0  0  0
    8.6593  -16.1681   21.4930 C   0  0  0  0  0  0  0  0  0  0  0  0
    7.5902  -16.7298   21.9034 O   0  0  0  0  0  0  0  0  0  0  0  0
   10.1049  -19.0999   22.4687 C   0  0  0  0  0  0  0  0  0  0  0  0
   10.6473  -18.1466   23.5262 C   0  0  1  0  0  0  0  0  0  0  0  0
   11.9367  -17.7538   23.2591 O   0  0  0  0  0  0  0  0  0  0  0  0
    9.7309  -16.9420   23.6486 C   0  0  2  0  0  0  0  0  0  0  0  0
    9.7747  -16.2179   22.3616 N   0  0  0  0  0  0  0  0  0  0  0  0
   10.0626  -16.0510   24.7613 C   0  0  0  0  0  0  0  0  0  0  0  0
   11.0064  -15.2051   24.6240 O   0  0  0  0  0  0  0  0  0  0  0  0
    9.3700  -16.0991   25.9792 N   0  0  0  0  0  0  0  0  0  0  0  0
    9.7253  -15.2260   27.1172 C   0  0  1  0  0  0  0  0  0  0  0  0
    8.4972  -14.7248   27.7965 C   0  0  0  0  0  0  0  0  0  0  0  0
    7.7793  -13.7676   26.9399 C   0  0  0  0  0  0  0  0  0  0  0  0
    8.3036  -12.9115   26.0032 C   0  0  0  0  0  0  0  0  0  0  0  0
    7.3067  -12.1732   25.4505 N   0  0  0  0  0  0  0  0  0  0  0  0
    6.1734  -12.5559   26.0282 C   0  0  0  0  0  0  0  0  0  0  0  0
    6.4361  -13.5259   26.9388 N   0  0  0  0  0  0  0  0  0  0  0  0
   10.5113  -16.0478   28.0494 C   0  0  0  0  0  0  0  0  0  0  0  0
   10.8168  -17.3912   27.8795 O   0  0  0  0  0  0  0  0  0  0  0  0
   10.9579  -15.5198   29.1016 O   0  0  0  0  0  0  0  0  0  0  0  0
  2  1  1  6
  2  4  1  0
  3  2  1  0
  4  5  1  0
  5  7  1  0
  5  6  1  6
  7  8  2  0
 10 12  1  0
 10  9  1  6
 11 10  1  0
 13  7  1  0
 12 13  1  6
 14 12  1  0
 14 15  2  0
 16 14  1  0
 17 16  1  0
 17 24  1  0
 17 18  1  1
 19 23  1  0
 19 18  1  0
 20 19  2  0
 21 20  1  0
 21 22  1  0
 22 23  2  0
 24 25  1  0
 26 24  2  0
M  END
$$$$
