LTH.pdb
     RDKit          3D

 26 26  0  0  1  0  0  0  0  0999 V2000
    6.9089  -12.9670   20.1591 C   0  0  0  0  0  0  0  0  0  0  0  0
    7.7929  -13.2495   18.9891 C   0  0  1  0  0  0  0  0  0  0  0  0
    8.3361  -11.9221   18.4743 C   0  0  0  0  0  0  0  0  0  0  0  0
    8.9265  -14.1902   19.3172 C   0  0  0  0  0  0  0  0  0  0  0  0
    9.7037  -14.4784   18.0768 C   0  0  2  0  0  0  0  0  0  0  0  0
    8.8856  -15.2988   17.1968 N   0  0  0  0  0  0  0  0  0  0  0  0
   10.9388  -15.2606   18.3402 C   0  0  0  0  0  0  0  0  0  0  0  0
   10.8349  -16.5211   18.5063 O   0  0  0  0  0  0  0  0  0  0  0  0
   13.6845  -16.0407   16.3338 C   0  0  0  0  0  0  0  0  0  0  0  0
   14.3692  -15.4863   17.5768 C   0  0  1  0  0  0  0  0  0  0  0  0
   14.8306  -14.2057   17.3881 O   0  0  0  0  0  0  0  0  0  0  0  0
   13.4162  -15.5478   18.7573 C   0  0  2  0  0  0  0  0  0  0  0  0
   12.2416  -14.7161   18.4239 N   0  0  0  0  0  0  0  0  0  0  0  0
   14.0112  -15.1272   20.0266 C   0  0  0  0  0  0  0  0  0  0  0  0
   14.1555  -13.8836   20.2670 O   0  0  0  0  0  0  0  0  0  0  0  0
   14.4286  -16.0549   20.9912 N   0  0  0  0  0  0  0  0  0  0  0  0
   15.0771  -15.6364   22.2513 C   0  0  1  0  0  0  0  0  0  0  0  0
   14.7949  -16.6175   23.3370 C   0  0  0  0  0  0  0  0  0  0  0  0
   13.3974  -16.5134   23.7857 C   0  0  0  0  0  0  0  0  0  0  0  0
   12.4917  -15.5189   23.5101 C   0  0  0  0  0  0  0  0  0  0  0  0
   11.3176  -15.7832   24.1394 N   0  0  0  0  0  0  0  0  0  0  0  0
   11.4791  -16.9238   24.8007 C   0  0  0  0  0  0  0  0  0  0  0  0
   12.7378  -17.3873   24.6005 N   0  0  0  0  0  0  0  0  0  0  0  0
   16.5225  -15.5880   21.9855 C   0  0  0  0  0  0  0  0  0  0  0  0
   17.4889  -15.1205   22.8655 O   0  0  0  0  0  0  0  0  0  0  0  0
   16.9532  -15.9951   20.8745 O   0  0  0  0  0  0  0  0  0  0  0  0
  2  1  1  1
  2  4  1  0
  3  2  1  0
  4  5  1  0
  5  7  1  0
  5  6  1  6
  7  8  2  0
 10 12  1  0
 10  9  1  6
 11 10  1  0
 13  7  1  0
 12 13  1  6
 14 12  1  0
 14 15  2  0
 16 14  1  0
 17 16  1  0
 17 24  1  0
 17 18  1  1
 19 23  1  0
 19 18  1  0
 20 19  2  0
 21 20  1  0
 21 22  1  0
 22 23  2  0
 24 25  1  0
 26 24  2  0
M  END
$$$$
