LTH.pdb
     RDKit          3D

 26 26  0  0  1  0  0  0  0  0999 V2000
    9.1527  -15.3480   14.8898 C   0  0  0  0  0  0  0  0  0  0  0  0
    8.4658  -14.5773   15.9690 C   0  0  1  0  0  0  0  0  0  0  0  0
    7.0953  -15.2026   16.1987 C   0  0  0  0  0  0  0  0  0  0  0  0
    9.2491  -14.5379   17.2584 C   0  0  0  0  0  0  0  0  0  0  0  0
    8.4849  -13.7601   18.2766 C   0  0  2  0  0  0  0  0  0  0  0  0
    8.5303  -12.3516   17.9145 N   0  0  0  0  0  0  0  0  0  0  0  0
    9.0755  -13.8558   19.6363 C   0  0  0  0  0  0  0  0  0  0  0  0
   10.0590  -13.0968   19.9255 O   0  0  0  0  0  0  0  0  0  0  0  0
    7.4733  -13.5711   23.0081 C   0  0  0  0  0  0  0  0  0  0  0  0
    8.2733  -14.8674   23.0392 C   0  0  1  0  0  0  0  0  0  0  0  0
    7.4709  -15.9761   22.9156 O   0  0  0  0  0  0  0  0  0  0  0  0
    9.3312  -14.8430   21.9502 C   0  0  2  0  0  0  0  0  0  0  0  0
    8.6316  -14.7326   20.6537 N   0  0  0  0  0  0  0  0  0  0  0  0
   10.2277  -15.9997   21.9636 C   0  0  0  0  0  0  0  0  0  0  0  0
   10.2418  -16.7905   20.9639 O   0  0  0  0  0  0  0  0  0  0  0  0
   11.0763  -16.2653   23.0474 N   0  0  0  0  0  0  0  0  0  0  0  0
   12.5393  -16.3928   22.8837 C   0  0  1  0  0  0  0  0  0  0  0  0
   13.1183  -15.1299   22.3443 C   0  0  0  0  0  0  0  0  0  0  0  0
   13.4227  -15.2645   20.9110 C   0  0  0  0  0  0  0  0  0  0  0  0
   13.2094  -16.3507   20.0987 C   0  0  0  0  0  0  0  0  0  0  0  0
   13.6576  -16.0792   18.8458 N   0  0  0  0  0  0  0  0  0  0  0  0
   14.1455  -14.8439   18.8667 C   0  0  0  0  0  0  0  0  0  0  0  0
   14.0136  -14.3275   20.1138 N   0  0  0  0  0  0  0  0  0  0  0  0
   13.0907  -16.6641   24.2196 C   0  0  0  0  0  0  0  0  0  0  0  0
   12.3661  -16.6779   25.4034 O   0  0  0  0  0  0  0  0  0  0  0  0
   14.3211  -16.9058   24.3349 O   0  0  0  0  0  0  0  0  0  0  0  0
  2  1  1  6
  2  4  1  0
  3  2  1  0
  4  5  1  0
  5  7  1  0
  5  6  1  6
  7  8  2  0
 10 12  1  0
 10  9  1  6
 11 10  1  0
 13  7  1  0
 12 13  1  6
 14 12  1  0
 14 15  2  0
 16 14  1  0
 17 16  1  0
 17 24  1  0
 17 18  1  1
 19 23  1  0
 19 18  1  0
 20 19  2  0
 21 20  1  0
 21 22  1  0
 22 23  2  0
 24 25  1  0
 26 24  2  0
M  END
$$$$
