LTH.pdb
     RDKit          3D

 26 26  0  0  1  0  0  0  0  0999 V2000
    6.7635  -12.1001   19.7279 C   0  0  0  0  0  0  0  0  0  0  0  0
    7.7930  -13.1567   19.4957 C   0  0  1  0  0  0  0  0  0  0  0  0
    9.1625  -12.4885   19.4809 C   0  0  0  0  0  0  0  0  0  0  0  0
    7.7555  -14.2567   20.5282 C   0  0  0  0  0  0  0  0  0  0  0  0
    8.8158  -15.2598   20.2196 C   0  0  2  0  0  0  0  0  0  0  0  0
    8.3744  -16.0704   19.0949 N   0  0  0  0  0  0  0  0  0  0  0  0
    9.0575  -16.2050   21.3399 C   0  0  0  0  0  0  0  0  0  0  0  0
    8.2208  -17.1493   21.5283 O   0  0  0  0  0  0  0  0  0  0  0  0
   11.8187  -18.3971   21.9092 C   0  0  0  0  0  0  0  0  0  0  0  0
   11.6650  -17.7210   23.2658 C   0  0  1  0  0  0  0  0  0  0  0  0
   12.6545  -16.7969   23.5008 O   0  0  0  0  0  0  0  0  0  0  0  0
   10.2926  -17.0789   23.3659 C   0  0  2  0  0  0  0  0  0  0  0  0
   10.1554  -16.1446   22.2298 N   0  0  0  0  0  0  0  0  0  0  0  0
   10.0446  -16.3966   24.6367 C   0  0  0  0  0  0  0  0  0  0  0  0
    9.8315  -15.1397   24.6395 O   0  0  0  0  0  0  0  0  0  0  0  0
   10.0333  -17.0867   25.8569 N   0  0  0  0  0  0  0  0  0  0  0  0
    9.5272  -16.4701   27.1007 C   0  0  1  0  0  0  0  0  0  0  0  0
    8.0550  -16.2537   27.0171 C   0  0  0  0  0  0  0  0  0  0  0  0
    7.7489  -14.8411   26.7415 C   0  0  0  0  0  0  0  0  0  0  0  0
    8.6261  -13.7903   26.6337 C   0  0  0  0  0  0  0  0  0  0  0  0
    7.9379  -12.6427   26.4021 N   0  0  0  0  0  0  0  0  0  0  0  0
    6.6493  -12.9630   26.3649 C   0  0  0  0  0  0  0  0  0  0  0  0
    6.5094  -14.2964   26.5691 N   0  0  0  0  0  0  0  0  0  0  0  0
    9.8327  -17.4085   28.1908 C   0  0  0  0  0  0  0  0  0  0  0  0
   10.0165  -17.0647   29.5230 O   0  0  0  0  0  0  0  0  0  0  0  0
    9.9462  -18.6346   27.9273 O   0  0  0  0  0  0  0  0  0  0  0  0
  2  1  1  1
  2  4  1  0
  3  2  1  0
  4  5  1  0
  5  7  1  0
  5  6  1  6
  7  8  2  0
 10 12  1  0
 10  9  1  6
 11 10  1  0
 13  7  1  0
 12 13  1  6
 14 12  1  0
 14 15  2  0
 16 14  1  0
 17 16  1  0
 17 24  1  0
 17 18  1  6
 19 23  1  0
 19 18  1  0
 20 19  2  0
 21 20  1  0
 21 22  1  0
 22 23  2  0
 24 25  1  0
 26 24  2  0
M  END
$$$$
