LTH.pdb
     RDKit          3D

 26 26  0  0  1  0  0  0  0  0999 V2000
    7.3317  -12.0557   19.2646 C   0  0  0  0  0  0  0  0  0  0  0  0
    8.2970  -13.1443   18.9279 C   0  0  1  0  0  0  0  0  0  0  0  0
    9.7074  -12.5784   19.0408 C   0  0  0  0  0  0  0  0  0  0  0  0
    8.1466  -14.3616   19.8072 C   0  0  0  0  0  0  0  0  0  0  0  0
    9.1716  -15.3761   19.4254 C   0  0  2  0  0  0  0  0  0  0  0  0
    8.6785  -16.1255   18.2800 N   0  0  0  0  0  0  0  0  0  0  0  0
    9.4195  -16.3751   20.4966 C   0  0  0  0  0  0  0  0  0  0  0  0
    8.4527  -17.1201   20.8671 O   0  0  0  0  0  0  0  0  0  0  0  0
   11.2994  -19.3242   20.7174 C   0  0  0  0  0  0  0  0  0  0  0  0
   11.8003  -18.5529   21.9322 C   0  0  1  0  0  0  0  0  0  0  0  0
   13.0430  -18.0049   21.7232 O   0  0  0  0  0  0  0  0  0  0  0  0
   10.7940  -17.4800   22.3087 C   0  0  2  0  0  0  0  0  0  0  0  0
   10.6580  -16.5725   21.1509 N   0  0  0  0  0  0  0  0  0  0  0  0
   11.1419  -16.7345   23.5192 C   0  0  0  0  0  0  0  0  0  0  0  0
   11.4468  -15.5002   23.4265 O   0  0  0  0  0  0  0  0  0  0  0  0
   11.1493  -17.3393   24.7839 N   0  0  0  0  0  0  0  0  0  0  0  0
   11.1578  -16.5467   26.0310 C   0  0  1  0  0  0  0  0  0  0  0  0
    9.9384  -15.6944   26.1185 C   0  0  0  0  0  0  0  0  0  0  0  0
    9.9349  -14.9129   27.3653 C   0  0  0  0  0  0  0  0  0  0  0  0
   10.8647  -14.9268   28.3755 C   0  0  0  0  0  0  0  0  0  0  0  0
   10.4768  -14.0811   29.3649 N   0  0  0  0  0  0  0  0  0  0  0  0
    9.3228  -13.5434   28.9864 C   0  0  0  0  0  0  0  0  0  0  0  0
    8.9725  -14.0348   27.7718 N   0  0  0  0  0  0  0  0  0  0  0  0
   11.1745  -17.5097   27.1421 C   0  0  0  0  0  0  0  0  0  0  0  0
   11.0671  -18.8879   27.0164 O   0  0  0  0  0  0  0  0  0  0  0  0
   11.2925  -17.0809   28.3201 O   0  0  0  0  0  0  0  0  0  0  0  0
  2  1  1  1
  2  4  1  0
  3  2  1  0
  4  5  1  0
  5  7  1  0
  5  6  1  6
  7  8  2  0
 10 12  1  0
 10  9  1  6
 11 10  1  0
 13  7  1  0
 12 13  1  6
 14 12  1  0
 14 15  2  0
 16 14  1  0
 17 16  1  0
 17 24  1  0
 17 18  1  1
 19 23  1  0
 19 18  1  0
 20 19  2  0
 21 20  1  0
 21 22  1  0
 22 23  2  0
 24 25  1  0
 26 24  2  0
M  END
$$$$
