LTH.pdb
     RDKit          3D

 26 26  0  0  1  0  0  0  0  0999 V2000
    6.1689  -10.9983   27.2383 C   0  0  0  0  0  0  0  0  0  0  0  0
    5.8641  -12.0351   26.2075 C   0  0  1  0  0  0  0  0  0  0  0  0
    6.1861  -11.4502   24.8377 C   0  0  0  0  0  0  0  0  0  0  0  0
    6.6215  -13.3227   26.4211 C   0  0  0  0  0  0  0  0  0  0  0  0
    6.0747  -14.3735   25.5142 C   0  0  2  0  0  0  0  0  0  0  0  0
    5.2363  -15.2700   26.2953 N   0  0  0  0  0  0  0  0  0  0  0  0
    7.1347  -15.2211   24.9103 C   0  0  0  0  0  0  0  0  0  0  0  0
    7.6759  -16.1225   25.6327 O   0  0  0  0  0  0  0  0  0  0  0  0
    9.0534  -14.1888   21.3616 C   0  0  0  0  0  0  0  0  0  0  0  0
    8.8222  -15.6797   21.5736 C   0  0  1  0  0  0  0  0  0  0  0  0
    9.8193  -16.4443   21.0173 O   0  0  0  0  0  0  0  0  0  0  0  0
    8.6834  -15.9709   23.0574 C   0  0  2  0  0  0  0  0  0  0  0  0
    7.6020  -15.1106   23.5797 N   0  0  0  0  0  0  0  0  0  0  0  0
    9.9176  -15.7805   23.8205 C   0  0  0  0  0  0  0  0  0  0  0  0
   10.1503  -14.6490   24.3596 O   0  0  0  0  0  0  0  0  0  0  0  0
   10.8561  -16.8099   23.9781 N   0  0  0  0  0  0  0  0  0  0  0  0
   12.0081  -16.6858   24.8952 C   0  0  1  0  0  0  0  0  0  0  0  0
   11.7024  -17.3185   26.2094 C   0  0  0  0  0  0  0  0  0  0  0  0
   11.1035  -16.3421   27.1332 C   0  0  0  0  0  0  0  0  0  0  0  0
   10.7575  -15.0380   26.8788 C   0  0  0  0  0  0  0  0  0  0  0  0
   10.2616  -14.4686   28.0076 N   0  0  0  0  0  0  0  0  0  0  0  0
   10.2945  -15.3962   28.9577 C   0  0  0  0  0  0  0  0  0  0  0  0
   10.8035  -16.5457   28.4490 N   0  0  0  0  0  0  0  0  0  0  0  0
   13.1333  -17.3833   24.2551 C   0  0  0  0  0  0  0  0  0  0  0  0
   14.4328  -17.4323   24.7405 O   0  0  0  0  0  0  0  0  0  0  0  0
   12.9360  -17.9958   23.1728 O   0  0  0  0  0  0  0  0  0  0  0  0
  2  1  1  1
  2  4  1  0
  3  2  1  0
  4  5  1  0
  5  7  1  0
  5  6  1  1
  7  8  2  0
 10 12  1  0
 10  9  1  1
 11 10  1  0
 13  7  1  0
 12 13  1  1
 14 12  1  0
 14 15  2  0
 16 14  1  0
 17 16  1  0
 17 24  1  0
 17 18  1  1
 19 23  1  0
 19 18  1  0
 20 19  2  0
 21 20  1  0
 21 22  1  0
 22 23  2  0
 24 25  1  0
 26 24  2  0
M  END
$$$$
