LTH.pdb
     RDKit          3D

 26 26  0  0  1  0  0  0  0  0999 V2000
    7.0482  -11.2735   27.3716 C   0  0  0  0  0  0  0  0  0  0  0  0
    6.3208  -12.3692   26.6642 C   0  0  1  0  0  0  0  0  0  0  0  0
    5.3572  -11.7331   25.6698 C   0  0  0  0  0  0  0  0  0  0  0  0
    7.2434  -13.3335   25.9596 C   0  0  0  0  0  0  0  0  0  0  0  0
    6.4318  -14.3731   25.2622 C   0  0  2  0  0  0  0  0  0  0  0  0
    5.7773  -15.2002   26.2643 N   0  0  0  0  0  0  0  0  0  0  0  0
    7.2593  -15.2951   24.4424 C   0  0  0  0  0  0  0  0  0  0  0  0
    7.6691  -16.3791   24.9756 O   0  0  0  0  0  0  0  0  0  0  0  0
    6.9024  -15.6579   20.4671 C   0  0  0  0  0  0  0  0  0  0  0  0
    8.3693  -15.6784   20.8782 C   0  0  1  0  0  0  0  0  0  0  0  0
    9.0023  -14.4900   20.6037 O   0  0  0  0  0  0  0  0  0  0  0  0
    8.4835  -16.0223   22.3528 C   0  0  2  0  0  0  0  0  0  0  0  0
    7.6373  -15.0680   23.0984 N   0  0  0  0  0  0  0  0  0  0  0  0
    9.8553  -16.0136   22.8627 C   0  0  0  0  0  0  0  0  0  0  0  0
   10.3131  -14.9547   23.4054 O   0  0  0  0  0  0  0  0  0  0  0  0
   10.6850  -17.1399   22.7728 N   0  0  0  0  0  0  0  0  0  0  0  0
   12.0769  -17.1289   23.2689 C   0  0  1  0  0  0  0  0  0  0  0  0
   12.3873  -18.3973   23.9872 C   0  0  0  0  0  0  0  0  0  0  0  0
   11.6482  -18.4734   25.2573 C   0  0  0  0  0  0  0  0  0  0  0  0
   10.9777  -17.4674   25.9081 C   0  0  0  0  0  0  0  0  0  0  0  0
   10.4533  -17.9433   27.0669 N   0  0  0  0  0  0  0  0  0  0  0  0
   10.7871  -19.2265   27.1466 C   0  0  0  0  0  0  0  0  0  0  0  0
   11.5151  -19.5722   26.0559 N   0  0  0  0  0  0  0  0  0  0  0  0
   12.9439  -16.9986   22.0885 C   0  0  0  0  0  0  0  0  0  0  0  0
   12.5116  -16.9687   20.7698 O   0  0  0  0  0  0  0  0  0  0  0  0
   14.1890  -16.9065   22.2524 O   0  0  0  0  0  0  0  0  0  0  0  0
  2  1  1  6
  2  4  1  0
  3  2  1  0
  4  5  1  0
  5  7  1  0
  5  6  1  1
  7  8  2  0
 10 12  1  0
 10  9  1  1
 11 10  1  0
 13  7  1  0
 12 13  1  1
 14 12  1  0
 14 15  2  0
 16 14  1  0
 17 16  1  0
 17 24  1  0
 17 18  1  6
 19 23  1  0
 19 18  1  0
 20 19  2  0
 21 20  1  0
 21 22  1  0
 22 23  2  0
 24 25  1  0
 26 24  2  0
M  END
$$$$
