LTH.pdb
     RDKit          3D

 26 26  0  0  1  0  0  0  0  0999 V2000
    7.0510  -12.5928   18.1045 C   0  0  0  0  0  0  0  0  0  0  0  0
    8.2042  -13.2850   18.7535 C   0  0  1  0  0  0  0  0  0  0  0  0
    9.2745  -12.2425   19.0536 C   0  0  0  0  0  0  0  0  0  0  0  0
    7.8196  -14.0219   20.0130 C   0  0  0  0  0  0  0  0  0  0  0  0
    9.0380  -14.6342   20.6184 C   0  0  2  0  0  0  0  0  0  0  0  0
    9.6520  -15.5142   19.6358 N   0  0  0  0  0  0  0  0  0  0  0  0
    8.7301  -15.4835   21.7976 C   0  0  0  0  0  0  0  0  0  0  0  0
    7.6047  -15.3304   22.3784 O   0  0  0  0  0  0  0  0  0  0  0  0
    9.1038  -19.3454   22.2006 C   0  0  0  0  0  0  0  0  0  0  0  0
    9.8053  -18.6445   23.3573 C   0  0  1  0  0  0  0  0  0  0  0  0
   11.1675  -18.5927   23.1840 O   0  0  0  0  0  0  0  0  0  0  0  0
    9.2309  -17.2503   23.5359 C   0  0  2  0  0  0  0  0  0  0  0  0
    9.5943  -16.4635   22.3395 N   0  0  0  0  0  0  0  0  0  0  0  0
    9.6706  -16.5762   24.7583 C   0  0  0  0  0  0  0  0  0  0  0  0
   10.7243  -15.8591   24.7316 O   0  0  0  0  0  0  0  0  0  0  0  0
    8.9644  -16.6950   25.9634 N   0  0  0  0  0  0  0  0  0  0  0  0
    9.3954  -16.0021   27.1953 C   0  0  1  0  0  0  0  0  0  0  0  0
    8.2208  -15.4342   27.9156 C   0  0  0  0  0  0  0  0  0  0  0  0
    7.6522  -14.2975   27.1741 C   0  0  0  0  0  0  0  0  0  0  0  0
    8.1460  -13.6909   26.0457 C   0  0  0  0  0  0  0  0  0  0  0  0
    7.3386  -12.6576   25.6922 N   0  0  0  0  0  0  0  0  0  0  0  0
    6.3532  -12.6123   26.5817 C   0  0  0  0  0  0  0  0  0  0  0  0
    6.5228  -13.6012   27.4941 N   0  0  0  0  0  0  0  0  0  0  0  0
   10.0570  -17.0106   28.0365 C   0  0  0  0  0  0  0  0  0  0  0  0
   10.7700  -16.7493   29.1984 O   0  0  0  0  0  0  0  0  0  0  0  0
    9.9927  -18.2227   27.7016 O   0  0  0  0  0  0  0  0  0  0  0  0
  2  1  1  1
  2  4  1  0
  3  2  1  0
  4  5  1  0
  5  7  1  0
  5  6  1  6
  7  8  2  0
 10 12  1  0
 10  9  1  6
 11 10  1  0
 13  7  1  0
 12 13  1  6
 14 12  1  0
 14 15  2  0
 16 14  1  0
 17 16  1  0
 17 24  1  0
 17 18  1  1
 19 23  1  0
 19 18  1  0
 20 19  2  0
 21 20  1  0
 21 22  1  0
 22 23  2  0
 24 25  1  0
 26 24  2  0
M  END
$$$$
