ERF.pdb
     RDKit          3D

 32 32  0  0  1  0  0  0  0  0999 V2000
   24.5705  -19.3273  -18.6237 N   0  0  0  0  0  0  0  0  0  0  0  0
   23.9165  -18.9590  -17.4038 C   0  0  1  0  0  0  0  0  0  0  0  0
   23.0416  -17.7440  -17.5491 C   0  0  0  0  0  0  0  0  0  0  0  0
   21.9492  -17.9719  -18.5375 C   0  0  0  0  0  0  0  0  0  0  0  0
   21.0818  -16.8054  -18.6879 C   0  0  0  0  0  0  0  0  0  0  0  0
   20.1277  -16.7288  -19.4920 O   0  0  0  0  0  0  0  0  0  0  0  0
   23.1644  -20.1244  -16.8820 C   0  0  0  0  0  0  0  0  0  0  0  0
   22.7441  -20.9900  -17.6743 O   0  0  0  0  0  0  0  0  0  0  0  0
   21.3254  -15.6818  -17.8776 O   0  0  0  0  0  0  0  0  0  0  0  0
   27.1697  -21.5429  -10.9454 N   0  0  0  0  0  0  0  0  0  0  0  0
   25.8107  -21.3239  -10.6145 C   0  0  0  0  0  0  0  0  0  0  0  0
   25.4915  -20.7947   -9.4710 N   0  0  0  0  0  0  0  0  0  0  0  0
   24.7635  -21.6798  -11.5269 N   0  0  0  0  0  0  0  0  0  0  0  0
   25.0281  -22.5828  -12.6309 C   0  0  0  0  0  0  0  0  0  0  0  0
   24.3622  -22.1390  -13.8962 C   0  0  0  0  0  0  0  0  0  0  0  0
   22.9060  -21.8052  -13.6877 C   0  0  0  0  0  0  0  0  0  0  0  0
   22.2152  -21.3741  -14.9551 C   0  0  2  0  0  0  0  0  0  0  0  0
   22.9377  -20.2320  -15.4967 N   0  0  0  0  0  0  0  0  0  0  0  0
   20.8204  -20.9608  -14.5996 C   0  0  0  0  0  0  0  0  0  0  0  0
   20.5841  -19.8703  -14.0032 O   0  0  0  0  0  0  0  0  0  0  0  0
   24.4889  -20.5846   -9.2715 N   0  0  0  0  0  0  0  0  0  0  0  0
   19.7428  -21.7933  -14.9296 C   0  0  1  0  0  0  0  0  0  0  0  0
   18.3499  -21.3855  -14.6913 C   0  0  0  0  0  0  0  0  0  0  0  0
   17.5337  -22.0645  -15.7490 C   0  0  0  0  0  0  0  0  0  0  0  0
   17.7368  -21.4633  -17.0840 C   0  0  0  0  0  0  0  0  0  0  0  0
   16.9638  -20.3877  -17.4837 C   0  0  0  0  0  0  0  0  0  0  0  0
   17.1580  -19.8342  -18.7130 C   0  0  0  0  0  0  0  0  0  0  0  0
   18.1264  -20.3454  -19.5615 C   0  0  0  0  0  0  0  0  0  0  0  0
   18.9077  -21.4187  -19.1791 C   0  0  0  0  0  0  0  0  0  0  0  0
   18.6911  -21.9646  -17.9237 C   0  0  0  0  0  0  0  0  0  0  0  0
   18.0032  -21.7715  -13.3202 O   0  0  0  0  0  0  0  0  0  0  0  0
   18.6451  -22.6524  -12.6795 O   0  0  0  0  0  0  0  0  0  0  0  0
  2  1  1  6
  2  3  1  0
  3  4  1  0
  5  4  1  0
  6  5  2  0
  7  2  1  0
  8  7  2  0
  9  5  1  0
 10 11  1  0
 11 13  1  0
 11 12  2  0
 13 14  1  0
 14 15  1  0
 15 16  1  0
 17 16  1  1
 17 18  1  0
 18  7  1  0
 19 21  1  0
 19 17  1  0
 20 19  2  0
 22 30  1  0
 22 21  1  0
 22 23  1  1
 24 23  1  0
 24 25  2  0
 26 25  1  0
 27 26  2  0
 28 29  2  0
 28 27  1  0
 29 24  1  0
 30 32  1  0
 31 30  2  0
M  END
$$$$
