ERF.pdb
     RDKit          3D

 32 32  0  0  1  0  0  0  0  0999 V2000
   22.2036  -19.8161  -13.5776 N   0  0  0  0  0  0  0  0  0  0  0  0
   21.9842  -19.7011  -12.1668 C   0  0  1  0  0  0  0  0  0  0  0  0
   20.6369  -20.2143  -11.7375 C   0  0  0  0  0  0  0  0  0  0  0  0
   20.3071  -21.5071  -12.4023 C   0  0  0  0  0  0  0  0  0  0  0  0
   19.3577  -21.3423  -13.5011 C   0  0  0  0  0  0  0  0  0  0  0  0
   18.9593  -20.2401  -13.9361 O   0  0  0  0  0  0  0  0  0  0  0  0
   23.0895  -20.3736  -11.4444 C   0  0  0  0  0  0  0  0  0  0  0  0
   22.8293  -21.1276  -10.4865 O   0  0  0  0  0  0  0  0  0  0  0  0
   18.8473  -22.4961  -14.1229 O   0  0  0  0  0  0  0  0  0  0  0  0
   26.1348  -22.1294  -16.5086 N   0  0  0  0  0  0  0  0  0  0  0  0
   27.3707  -22.5858  -15.9905 C   0  0  0  0  0  0  0  0  0  0  0  0
   27.8958  -23.6921  -16.4265 N   0  0  0  0  0  0  0  0  0  0  0  0
   28.0651  -21.8435  -14.9794 N   0  0  0  0  0  0  0  0  0  0  0  0
   27.5102  -20.6047  -14.4677 C   0  0  0  0  0  0  0  0  0  0  0  0
   26.3354  -20.8399  -13.5700 C   0  0  0  0  0  0  0  0  0  0  0  0
   26.7133  -20.7880  -12.1106 C   0  0  0  0  0  0  0  0  0  0  0  0
   25.5192  -20.8309  -11.1931 C   0  0  2  0  0  0  0  0  0  0  0  0
   24.4171  -20.1473  -11.8548 N   0  0  0  0  0  0  0  0  0  0  0  0
   25.8794  -20.0994   -9.9370 C   0  0  0  0  0  0  0  0  0  0  0  0
   25.7717  -18.8419   -9.8482 O   0  0  0  0  0  0  0  0  0  0  0  0
   28.8179  -23.9998  -16.0470 N   0  0  0  0  0  0  0  0  0  0  0  0
   26.3485  -20.8134   -8.8264 C   0  0  2  0  0  0  0  0  0  0  0  0
   27.1428  -20.1667   -7.7709 C   0  0  0  0  0  0  0  0  0  0  0  0
   26.9915  -21.0276   -6.5536 C   0  0  0  0  0  0  0  0  0  0  0  0
   27.7664  -20.5131   -5.4049 C   0  0  0  0  0  0  0  0  0  0  0  0
   27.1267  -19.8182   -4.3938 C   0  0  0  0  0  0  0  0  0  0  0  0
   27.8444  -19.3502   -3.3350 C   0  0  0  0  0  0  0  0  0  0  0  0
   29.2109  -19.5686   -3.2692 C   0  0  0  0  0  0  0  0  0  0  0  0
   29.8662  -20.2605   -4.2694 C   0  0  0  0  0  0  0  0  0  0  0  0
   29.1143  -20.7266   -5.3363 C   0  0  0  0  0  0  0  0  0  0  0  0
   28.5196  -20.0498   -8.2607 O   0  0  0  0  0  0  0  0  0  0  0  0
   29.0555  -20.9267   -8.9971 O   0  0  0  0  0  0  0  0  0  0  0  0
  2  1  1  6
  2  3  1  0
  3  4  1  0
  5  4  1  0
  6  5  2  0
  7  2  1  0
  8  7  2  0
  9  5  1  0
 10 11  1  0
 11 13  1  0
 11 12  2  0
 13 14  1  0
 14 15  1  0
 15 16  1  0
 17 16  1  6
 17 18  1  0
 18  7  1  0
 19 21  1  0
 19 17  1  0
 20 19  2  0
 22 30  1  0
 22 21  1  0
 22 23  1  1
 24 23  1  0
 24 25  2  0
 26 25  1  0
 27 26  2  0
 28 29  2  0
 28 27  1  0
 29 24  1  0
 30 32  1  0
 31 30  2  0
M  END
$$$$
