ERF.pdb
     RDKit          3D

 32 32  0  0  1  0  0  0  0  0999 V2000
   24.2032  -24.9350  -21.7334 N   0  0  0  0  0  0  0  0  0  0  0  0
   24.5953  -25.0082  -20.3577 C   0  0  1  0  0  0  0  0  0  0  0  0
   24.7034  -23.6576  -19.7042 C   0  0  0  0  0  0  0  0  0  0  0  0
   23.3704  -23.0019  -19.5805 C   0  0  0  0  0  0  0  0  0  0  0  0
   23.4577  -21.6705  -18.9841 C   0  0  0  0  0  0  0  0  0  0  0  0
   22.4741  -20.9494  -18.7095 O   0  0  0  0  0  0  0  0  0  0  0  0
   23.6631  -25.9024  -19.6313 C   0  0  0  0  0  0  0  0  0  0  0  0
   22.4846  -26.0110  -20.0226 O   0  0  0  0  0  0  0  0  0  0  0  0
   24.7316  -21.1502  -18.6931 O   0  0  0  0  0  0  0  0  0  0  0  0
   28.7792  -29.6649  -16.0025 N   0  0  0  0  0  0  0  0  0  0  0  0
   28.0554  -28.4790  -16.2746 C   0  0  0  0  0  0  0  0  0  0  0  0
   28.6693  -27.3347  -16.3309 N   0  0  0  0  0  0  0  0  0  0  0  0
   26.6385  -28.5138  -16.4911 N   0  0  0  0  0  0  0  0  0  0  0  0
   25.9798  -29.7588  -16.8378 C   0  0  0  0  0  0  0  0  0  0  0  0
   24.5184  -29.5705  -17.1028 C   0  0  0  0  0  0  0  0  0  0  0  0
   24.0398  -28.1953  -16.7088 C   0  0  0  0  0  0  0  0  0  0  0  0
   23.2406  -27.5192  -17.7920 C   0  0  2  0  0  0  0  0  0  0  0  0
   24.1277  -26.6145  -18.5091 N   0  0  0  0  0  0  0  0  0  0  0  0
   22.1495  -26.7325  -17.1338 C   0  0  0  0  0  0  0  0  0  0  0  0
   22.2860  -25.5028  -16.8693 O   0  0  0  0  0  0  0  0  0  0  0  0
   28.1166  -26.4718  -16.5284 N   0  0  0  0  0  0  0  0  0  0  0  0
   20.9437  -27.3620  -16.7975 C   0  0  1  0  0  0  0  0  0  0  0  0
   19.8212  -26.6171  -16.2074 C   0  0  0  0  0  0  0  0  0  0  0  0
   19.4197  -25.5967  -17.2290 C   0  0  0  0  0  0  0  0  0  0  0  0
   18.1649  -24.9051  -16.8654 C   0  0  0  0  0  0  0  0  0  0  0  0
   17.4365  -25.3249  -15.7665 C   0  0  0  0  0  0  0  0  0  0  0  0
   16.2834  -24.6813  -15.4327 C   0  0  0  0  0  0  0  0  0  0  0  0
   15.8402  -23.6093  -16.1902 C   0  0  0  0  0  0  0  0  0  0  0  0
   16.5547  -23.1763  -17.2904 C   0  0  0  0  0  0  0  0  0  0  0  0
   17.7246  -23.8474  -17.6099 C   0  0  0  0  0  0  0  0  0  0  0  0
   18.7717  -27.5855  -15.8761 O   0  0  0  0  0  0  0  0  0  0  0  0
   18.5777  -28.6354  -16.5533 O   0  0  0  0  0  0  0  0  0  0  0  0
  2  1  1  6
  2  3  1  0
  3  4  1  0
  5  4  1  0
  6  5  2  0
  7  2  1  0
  8  7  2  0
  9  5  1  0
 10 11  1  0
 11 13  1  0
 11 12  2  0
 13 14  1  0
 14 15  1  0
 15 16  1  0
 17 16  1  1
 17 18  1  0
 18  7  1  0
 19 21  1  0
 19 17  1  0
 20 19  2  0
 22 30  1  0
 22 21  1  0
 22 23  1  1
 24 23  1  0
 24 25  2  0
 26 25  1  0
 27 26  2  0
 28 29  2  0
 28 27  1  0
 29 24  1  0
 30 32  1  0
 31 30  2  0
M  END
$$$$
