ERF.pdb
     RDKit          3D

 32 32  0  0  1  0  0  0  0  0999 V2000
   25.9013  -20.8835  -16.0099 N   0  0  0  0  0  0  0  0  0  0  0  0
   26.7295  -21.0440  -14.8523 C   0  0  1  0  0  0  0  0  0  0  0  0
   28.1874  -20.8038  -15.1345 C   0  0  0  0  0  0  0  0  0  0  0  0
   28.7445  -21.8385  -16.0516 C   0  0  0  0  0  0  0  0  0  0  0  0
   28.5186  -21.5154  -17.4588 C   0  0  0  0  0  0  0  0  0  0  0  0
   28.1597  -22.3391  -18.3280 O   0  0  0  0  0  0  0  0  0  0  0  0
   26.2241  -20.1720  -13.7659 C   0  0  0  0  0  0  0  0  0  0  0  0
   26.2176  -18.9354  -13.9225 O   0  0  0  0  0  0  0  0  0  0  0  0
   28.7150  -20.1878  -17.8802 O   0  0  0  0  0  0  0  0  0  0  0  0
   21.8797  -21.9758  -14.6199 N   0  0  0  0  0  0  0  0  0  0  0  0
   21.2495  -22.7856  -13.6445 C   0  0  0  0  0  0  0  0  0  0  0  0
   20.7666  -23.9477  -13.9699 N   0  0  0  0  0  0  0  0  0  0  0  0
   21.1298  -22.3441  -12.2857 N   0  0  0  0  0  0  0  0  0  0  0  0
   21.7404  -21.0981  -11.8629 C   0  0  0  0  0  0  0  0  0  0  0  0
   23.2344  -21.1863  -11.8215 C   0  0  0  0  0  0  0  0  0  0  0  0
   23.8702  -19.8920  -11.3789 C   0  0  0  0  0  0  0  0  0  0  0  0
   25.3749  -19.9249  -11.4435 C   0  0  2  0  0  0  0  0  0  0  0  0
   25.7597  -20.7587  -12.5733 N   0  0  0  0  0  0  0  0  0  0  0  0
   25.8752  -20.5413  -10.1737 C   0  0  0  0  0  0  0  0  0  0  0  0
   25.7992  -21.7871   -9.9669 O   0  0  0  0  0  0  0  0  0  0  0  0
   20.3912  -24.5689  -13.2201 N   0  0  0  0  0  0  0  0  0  0  0  0
   26.4429  -19.7293   -9.1829 C   0  0  1  0  0  0  0  0  0  0  0  0
   26.9658  -20.2917   -7.9285 C   0  0  0  0  0  0  0  0  0  0  0  0
   28.0376  -19.3505   -7.4687 C   0  0  0  0  0  0  0  0  0  0  0  0
   28.5132  -19.6675   -6.1055 C   0  0  0  0  0  0  0  0  0  0  0  0
   27.8845  -19.1105   -5.0061 C   0  0  0  0  0  0  0  0  0  0  0  0
   28.3234  -19.4095   -3.7518 C   0  0  0  0  0  0  0  0  0  0  0  0
   29.3958  -20.2687   -3.5759 C   0  0  0  0  0  0  0  0  0  0  0  0
   30.0354  -20.8343   -4.6620 C   0  0  0  0  0  0  0  0  0  0  0  0
   29.5704  -20.5146   -5.9279 C   0  0  0  0  0  0  0  0  0  0  0  0
   25.8400  -20.4255   -6.9992 O   0  0  0  0  0  0  0  0  0  0  0  0
   24.8264  -19.6714   -7.0469 O   0  0  0  0  0  0  0  0  0  0  0  0
  2  1  1  6
  2  3  1  0
  3  4  1  0
  5  4  1  0
  6  5  2  0
  7  2  1  0
  8  7  2  0
  9  5  1  0
 10 11  1  0
 11 13  1  0
 11 12  2  0
 13 14  1  0
 14 15  1  0
 15 16  1  0
 17 16  1  1
 17 18  1  0
 18  7  1  0
 19 21  1  0
 19 17  1  0
 20 19  2  0
 22 30  1  0
 22 21  1  0
 22 23  1  1
 24 23  1  0
 24 25  2  0
 26 25  1  0
 27 26  2  0
 28 29  2  0
 28 27  1  0
 29 24  1  0
 30 32  1  0
 31 30  2  0
M  END
$$$$
