ERF.pdb
     RDKit          3D

 32 32  0  0  1  0  0  0  0  0999 V2000
   25.2487  -17.1528  -16.1157 N   0  0  0  0  0  0  0  0  0  0  0  0
   26.1956  -17.7330  -15.2112 C   0  0  1  0  0  0  0  0  0  0  0  0
   27.2519  -16.7606  -14.7620 C   0  0  0  0  0  0  0  0  0  0  0  0
   27.1059  -15.4421  -15.4420 C   0  0  0  0  0  0  0  0  0  0  0  0
   27.8242  -15.3886  -16.7136 C   0  0  0  0  0  0  0  0  0  0  0  0
   28.4943  -16.3298  -17.1910 O   0  0  0  0  0  0  0  0  0  0  0  0
   25.4720  -18.3335  -14.0658 C   0  0  0  0  0  0  0  0  0  0  0  0
   24.4736  -17.7534  -13.5966 O   0  0  0  0  0  0  0  0  0  0  0  0
   27.7669  -14.2008  -17.4647 O   0  0  0  0  0  0  0  0  0  0  0  0
   23.9322  -26.1017  -14.9371 N   0  0  0  0  0  0  0  0  0  0  0  0
   23.7233  -25.5875  -13.6347 C   0  0  0  0  0  0  0  0  0  0  0  0
   22.9713  -26.2281  -12.7899 N   0  0  0  0  0  0  0  0  0  0  0  0
   24.3315  -24.3565  -13.2221 N   0  0  0  0  0  0  0  0  0  0  0  0
   25.2821  -23.6824  -14.0860 C   0  0  0  0  0  0  0  0  0  0  0  0
   25.8024  -22.4180  -13.4760 C   0  0  0  0  0  0  0  0  0  0  0  0
   24.6929  -21.5300  -12.9701 C   0  0  0  0  0  0  0  0  0  0  0  0
   25.1904  -20.2047  -12.4550 C   0  0  2  0  0  0  0  0  0  0  0  0
   25.9278  -19.5519  -13.5272 N   0  0  0  0  0  0  0  0  0  0  0  0
   26.1128  -20.4760  -11.3068 C   0  0  0  0  0  0  0  0  0  0  0  0
   27.2570  -20.9867  -11.4822 O   0  0  0  0  0  0  0  0  0  0  0  0
   22.8033  -25.8155  -11.8462 N   0  0  0  0  0  0  0  0  0  0  0  0
   25.7105  -20.1614  -10.0020 C   0  0  2  0  0  0  0  0  0  0  0  0
   26.5032  -20.5641   -8.8304 C   0  0  0  0  0  0  0  0  0  0  0  0
   27.1824  -19.3202   -8.3434 C   0  0  0  0  0  0  0  0  0  0  0  0
   27.8531  -19.5222   -7.0418 C   0  0  0  0  0  0  0  0  0  0  0  0
   28.8565  -20.4670   -6.9193 C   0  0  0  0  0  0  0  0  0  0  0  0
   29.4747  -20.6461   -5.7189 C   0  0  0  0  0  0  0  0  0  0  0  0
   29.1013  -19.8852   -4.6231 C   0  0  0  0  0  0  0  0  0  0  0  0
   28.1017  -18.9372   -4.7270 C   0  0  0  0  0  0  0  0  0  0  0  0
   27.4876  -18.7736   -5.9587 C   0  0  0  0  0  0  0  0  0  0  0  0
   25.5855  -21.1702   -7.8611 O   0  0  0  0  0  0  0  0  0  0  0  0
   24.3335  -21.0028   -7.9143 O   0  0  0  0  0  0  0  0  0  0  0  0
  2  1  1  6
  2  3  1  0
  3  4  1  0
  5  4  1  0
  6  5  2  0
  7  2  1  0
  8  7  2  0
  9  5  1  0
 10 11  1  0
 11 13  1  0
 11 12  2  0
 13 14  1  0
 14 15  1  0
 15 16  1  0
 17 16  1  6
 17 18  1  0
 18  7  1  0
 19 21  1  0
 19 17  1  0
 20 19  2  0
 22 30  1  0
 22 21  1  0
 22 23  1  1
 24 23  1  0
 24 25  2  0
 26 25  1  0
 27 26  2  0
 28 29  2  0
 28 27  1  0
 29 24  1  0
 30 32  1  0
 31 30  2  0
M  END
$$$$
