ERF.pdb
     RDKit          3D

 32 32  0  0  1  0  0  0  0  0999 V2000
   27.7834  -22.1002  -15.4915 N   0  0  0  0  0  0  0  0  0  0  0  0
   28.5258  -20.9347  -15.1147 C   0  0  1  0  0  0  0  0  0  0  0  0
   28.7885  -20.0062  -16.2686 C   0  0  0  0  0  0  0  0  0  0  0  0
   27.7262  -20.1127  -17.3089 C   0  0  0  0  0  0  0  0  0  0  0  0
   28.0471  -19.3493  -18.5131 C   0  0  0  0  0  0  0  0  0  0  0  0
   29.0928  -18.6834  -18.6743 O   0  0  0  0  0  0  0  0  0  0  0  0
   27.8279  -20.2506  -14.0006 C   0  0  0  0  0  0  0  0  0  0  0  0
   28.2483  -19.1494  -13.5953 O   0  0  0  0  0  0  0  0  0  0  0  0
   27.1238  -19.3543  -19.5742 O   0  0  0  0  0  0  0  0  0  0  0  0
   21.0486  -21.3492  -13.1645 N   0  0  0  0  0  0  0  0  0  0  0  0
   21.0532  -19.9340  -13.1254 C   0  0  0  0  0  0  0  0  0  0  0  0
   20.0188  -19.2873  -12.6767 N   0  0  0  0  0  0  0  0  0  0  0  0
   22.1908  -19.1881  -13.5782 N   0  0  0  0  0  0  0  0  0  0  0  0
   23.0068  -19.6853  -14.6696 C   0  0  0  0  0  0  0  0  0  0  0  0
   24.4259  -19.9185  -14.2535 C   0  0  0  0  0  0  0  0  0  0  0  0
   24.5825  -19.9524  -12.7536 C   0  0  0  0  0  0  0  0  0  0  0  0
   26.0003  -20.2142  -12.3171 C   0  0  2  0  0  0  0  0  0  0  0  0
   26.6997  -20.8596  -13.4189 N   0  0  0  0  0  0  0  0  0  0  0  0
   25.9546  -21.1415  -11.1421 C   0  0  0  0  0  0  0  0  0  0  0  0
   25.4863  -22.3127  -11.2399 O   0  0  0  0  0  0  0  0  0  0  0  0
   20.0240  -18.2440  -12.6993 N   0  0  0  0  0  0  0  0  0  0  0  0
   26.4389  -20.7133   -9.8989 C   0  0  2  0  0  0  0  0  0  0  0  0
   26.3320  -21.5538   -8.6966 C   0  0  0  0  0  0  0  0  0  0  0  0
   27.6786  -21.5095   -8.0403 C   0  0  0  0  0  0  0  0  0  0  0  0
   27.7841  -20.4138   -7.0538 C   0  0  0  0  0  0  0  0  0  0  0  0
   28.7099  -19.4024   -7.2390 C   0  0  0  0  0  0  0  0  0  0  0  0
   28.8001  -18.3924   -6.3296 C   0  0  0  0  0  0  0  0  0  0  0  0
   27.9678  -18.3763   -5.2222 C   0  0  0  0  0  0  0  0  0  0  0  0
   27.0375  -19.3777   -5.0212 C   0  0  0  0  0  0  0  0  0  0  0  0
   26.9650  -20.3944   -5.9604 C   0  0  0  0  0  0  0  0  0  0  0  0
   25.2421  -21.0174   -7.8760 O   0  0  0  0  0  0  0  0  0  0  0  0
   24.7416  -19.8735   -8.0748 O   0  0  0  0  0  0  0  0  0  0  0  0
  2  1  1  6
  2  3  1  0
  3  4  1  0
  5  4  1  0
  6  5  2  0
  7  2  1  0
  8  7  2  0
  9  5  1  0
 10 11  1  0
 11 13  1  0
 11 12  2  0
 13 14  1  0
 14 15  1  0
 15 16  1  0
 17 16  1  6
 17 18  1  0
 18  7  1  0
 19 21  1  0
 19 17  1  0
 20 19  2  0
 22 30  1  0
 22 21  1  0
 22 23  1  6
 24 23  1  0
 24 25  2  0
 26 25  1  0
 27 26  2  0
 28 29  2  0
 28 27  1  0
 29 24  1  0
 30 32  1  0
 31 30  2  0
M  END
$$$$
