ERF.pdb
     RDKit          3D

 32 32  0  0  1  0  0  0  0  0999 V2000
   26.0044  -25.6289  -16.7912 N   0  0  0  0  0  0  0  0  0  0  0  0
   25.6108  -24.7132  -15.7626 C   0  0  1  0  0  0  0  0  0  0  0  0
   26.0707  -23.3046  -16.0217 C   0  0  0  0  0  0  0  0  0  0  0  0
   25.4989  -22.3513  -15.0284 C   0  0  0  0  0  0  0  0  0  0  0  0
   25.9626  -20.9816  -15.2399 C   0  0  0  0  0  0  0  0  0  0  0  0
   26.7266  -20.6250  -16.1629 O   0  0  0  0  0  0  0  0  0  0  0  0
   24.1429  -24.7914  -15.5750 C   0  0  0  0  0  0  0  0  0  0  0  0
   23.3861  -24.5397  -16.5329 O   0  0  0  0  0  0  0  0  0  0  0  0
   25.5270  -19.9831  -14.3502 O   0  0  0  0  0  0  0  0  0  0  0  0
   19.4189  -25.8718   -9.4798 N   0  0  0  0  0  0  0  0  0  0  0  0
   18.4838  -26.7059  -10.1388 C   0  0  0  0  0  0  0  0  0  0  0  0
   17.2378  -26.7141   -9.7687 N   0  0  0  0  0  0  0  0  0  0  0  0
   18.8883  -27.5552  -11.2208 N   0  0  0  0  0  0  0  0  0  0  0  0
   20.2571  -27.5304  -11.7005 C   0  0  0  0  0  0  0  0  0  0  0  0
   20.5129  -26.3769  -12.6199 C   0  0  0  0  0  0  0  0  0  0  0  0
   21.9281  -26.3664  -13.1419 C   0  0  0  0  0  0  0  0  0  0  0  0
   22.1913  -25.2358  -14.1020 C   0  0  2  0  0  0  0  0  0  0  0  0
   23.6291  -25.1494  -14.3140 N   0  0  0  0  0  0  0  0  0  0  0  0
   21.7026  -23.9710  -13.4663 C   0  0  0  0  0  0  0  0  0  0  0  0
   22.0939  -23.6125  -12.3178 O   0  0  0  0  0  0  0  0  0  0  0  0
   16.5741  -27.3697  -10.2365 N   0  0  0  0  0  0  0  0  0  0  0  0
   20.7897  -23.1567  -14.1495 C   0  0  2  0  0  0  0  0  0  0  0  0
   20.2321  -21.9401  -13.5395 C   0  0  0  0  0  0  0  0  0  0  0  0
   21.0675  -20.8036  -14.0459 C   0  0  0  0  0  0  0  0  0  0  0  0
   20.5281  -19.4887  -13.6400 C   0  0  0  0  0  0  0  0  0  0  0  0
   20.8318  -18.9707  -12.3935 C   0  0  0  0  0  0  0  0  0  0  0  0
   20.3361  -17.7565  -12.0258 C   0  0  0  0  0  0  0  0  0  0  0  0
   19.5304  -17.0409  -12.8964 C   0  0  0  0  0  0  0  0  0  0  0  0
   19.2169  -17.5424  -14.1450 C   0  0  0  0  0  0  0  0  0  0  0  0
   19.7331  -18.7799  -14.4959 C   0  0  0  0  0  0  0  0  0  0  0  0
   18.8172  -21.8640  -13.9154 O   0  0  0  0  0  0  0  0  0  0  0  0
   18.3749  -22.3454  -14.9975 O   0  0  0  0  0  0  0  0  0  0  0  0
  2  1  1  6
  2  3  1  0
  3  4  1  0
  5  4  1  0
  6  5  2  0
  7  2  1  0
  8  7  2  0
  9  5  1  0
 10 11  1  0
 11 13  1  0
 11 12  2  0
 13 14  1  0
 14 15  1  0
 15 16  1  0
 17 16  1  1
 17 18  1  0
 18  7  1  0
 19 21  1  0
 19 17  1  0
 20 19  2  0
 22 30  1  0
 22 21  1  0
 22 23  1  6
 24 23  1  0
 24 25  2  0
 26 25  1  0
 27 26  2  0
 28 29  2  0
 28 27  1  0
 29 24  1  0
 30 32  1  0
 31 30  2  0
M  END
$$$$
