ERF.pdb
     RDKit          3D

 32 32  0  0  1  0  0  0  0  0999 V2000
   22.1803  -18.9287  -13.4384 N   0  0  0  0  0  0  0  0  0  0  0  0
   21.8186  -19.8473  -12.4008 C   0  0  1  0  0  0  0  0  0  0  0  0
   20.7561  -20.8243  -12.8243 C   0  0  0  0  0  0  0  0  0  0  0  0
   20.9526  -21.2689  -14.2335 C   0  0  0  0  0  0  0  0  0  0  0  0
   20.7455  -22.7062  -14.3982 C   0  0  0  0  0  0  0  0  0  0  0  0
   20.9119  -23.3297  -15.4689 O   0  0  0  0  0  0  0  0  0  0  0  0
   23.0370  -20.5324  -11.9087 C   0  0  0  0  0  0  0  0  0  0  0  0
   22.9435  -21.3694  -10.9899 O   0  0  0  0  0  0  0  0  0  0  0  0
   20.3293  -23.4543  -13.2821 O   0  0  0  0  0  0  0  0  0  0  0  0
   28.6232  -23.7578  -16.1659 N   0  0  0  0  0  0  0  0  0  0  0  0
   27.5337  -23.2303  -16.9001 C   0  0  0  0  0  0  0  0  0  0  0  0
   26.9979  -23.9189  -17.8637 N   0  0  0  0  0  0  0  0  0  0  0  0
   27.0018  -21.9332  -16.5999 N   0  0  0  0  0  0  0  0  0  0  0  0
   27.3393  -21.2727  -15.3532 C   0  0  0  0  0  0  0  0  0  0  0  0
   26.3153  -21.5170  -14.2888 C   0  0  0  0  0  0  0  0  0  0  0  0
   26.5653  -20.6859  -13.0551 C   0  0  0  0  0  0  0  0  0  0  0  0
   25.4988  -20.8582  -12.0052 C   0  0  2  0  0  0  0  0  0  0  0  0
   24.2815  -20.2236  -12.4902 N   0  0  0  0  0  0  0  0  0  0  0  0
   25.9631  -20.1647  -10.7617 C   0  0  0  0  0  0  0  0  0  0  0  0
   25.8546  -18.9120  -10.6217 O   0  0  0  0  0  0  0  0  0  0  0  0
   26.2381  -23.4869  -18.4340 N   0  0  0  0  0  0  0  0  0  0  0  0
   26.5333  -20.9101   -9.7212 C   0  0  1  0  0  0  0  0  0  0  0  0
   27.4414  -20.2979   -8.7395 C   0  0  0  0  0  0  0  0  0  0  0  0
   26.5750  -19.8332   -7.6085 C   0  0  0  0  0  0  0  0  0  0  0  0
   27.3583  -19.5286   -6.3925 C   0  0  0  0  0  0  0  0  0  0  0  0
   27.7019  -20.5443   -5.5180 C   0  0  0  0  0  0  0  0  0  0  0  0
   28.4279  -20.2594   -4.4013 C   0  0  0  0  0  0  0  0  0  0  0  0
   28.8220  -18.9571   -4.1407 C   0  0  0  0  0  0  0  0  0  0  0  0
   28.4882  -17.9304   -5.0028 C   0  0  0  0  0  0  0  0  0  0  0  0
   27.7490  -18.2455   -6.1321 C   0  0  0  0  0  0  0  0  0  0  0  0
   28.4347  -21.3085   -8.3638 O   0  0  0  0  0  0  0  0  0  0  0  0
   29.6247  -21.0106   -8.0578 O   0  0  0  0  0  0  0  0  0  0  0  0
  2  1  1  6
  2  3  1  0
  3  4  1  0
  5  4  1  0
  6  5  2  0
  7  2  1  0
  8  7  2  0
  9  5  1  0
 10 11  1  0
 11 13  1  0
 11 12  2  0
 13 14  1  0
 14 15  1  0
 15 16  1  0
 17 16  1  6
 17 18  1  0
 18  7  1  0
 19 21  1  0
 19 17  1  0
 20 19  2  0
 22 30  1  0
 22 21  1  0
 22 23  1  1
 24 23  1  0
 24 25  2  0
 26 25  1  0
 27 26  2  0
 28 29  2  0
 28 27  1  0
 29 24  1  0
 30 32  1  0
 31 30  2  0
M  END
$$$$
