ERF.pdb
     RDKit          3D

 32 32  0  0  1  0  0  0  0  0999 V2000
   26.4764  -25.9536  -16.5415 N   0  0  0  0  0  0  0  0  0  0  0  0
   25.6614  -24.8408  -16.9275 C   0  0  1  0  0  0  0  0  0  0  0  0
   24.9292  -25.0690  -18.2215 C   0  0  0  0  0  0  0  0  0  0  0  0
   25.8707  -25.1632  -19.3734 C   0  0  0  0  0  0  0  0  0  0  0  0
   26.2472  -26.5430  -19.6738 C   0  0  0  0  0  0  0  0  0  0  0  0
   27.4241  -26.9561  -19.7568 O   0  0  0  0  0  0  0  0  0  0  0  0
   24.7368  -24.5051  -15.8192 C   0  0  0  0  0  0  0  0  0  0  0  0
   24.2649  -25.4181  -15.1139 O   0  0  0  0  0  0  0  0  0  0  0  0
   25.2239  -27.4841  -19.8873 O   0  0  0  0  0  0  0  0  0  0  0  0
   26.2961  -21.4330  -10.8791 N   0  0  0  0  0  0  0  0  0  0  0  0
   25.3162  -20.9165   -9.9975 C   0  0  0  0  0  0  0  0  0  0  0  0
   25.3869  -21.1613   -8.7229 N   0  0  0  0  0  0  0  0  0  0  0  0
   24.2309  -20.1183  -10.4881 N   0  0  0  0  0  0  0  0  0  0  0  0
   24.0365  -19.9420  -11.9147 C   0  0  0  0  0  0  0  0  0  0  0  0
   23.4235  -21.1484  -12.5551 C   0  0  0  0  0  0  0  0  0  0  0  0
   24.1989  -21.6085  -13.7643 C   0  0  0  0  0  0  0  0  0  0  0  0
   23.5675  -22.7910  -14.4516 C   0  0  2  0  0  0  0  0  0  0  0  0
   24.4076  -23.1568  -15.5830 N   0  0  0  0  0  0  0  0  0  0  0  0
   22.2189  -22.3677  -14.9462 C   0  0  0  0  0  0  0  0  0  0  0  0
   22.0864  -21.4459  -15.8026 O   0  0  0  0  0  0  0  0  0  0  0  0
   24.7065  -20.7007   -8.0795 N   0  0  0  0  0  0  0  0  0  0  0  0
   21.0683  -22.9997  -14.4562 C   0  0  2  0  0  0  0  0  0  0  0  0
   19.7200  -22.5675  -14.8543 C   0  0  0  0  0  0  0  0  0  0  0  0
   18.8727  -23.8037  -14.8538 C   0  0  0  0  0  0  0  0  0  0  0  0
   19.0324  -24.5917  -16.0941 C   0  0  0  0  0  0  0  0  0  0  0  0
   19.5263  -25.8828  -16.0351 C   0  0  0  0  0  0  0  0  0  0  0  0
   19.6672  -26.6066  -17.1803 C   0  0  0  0  0  0  0  0  0  0  0  0
   19.3171  -26.0532  -18.4011 C   0  0  0  0  0  0  0  0  0  0  0  0
   18.8221  -24.7658  -18.4790 C   0  0  0  0  0  0  0  0  0  0  0  0
   18.6881  -24.0494  -17.3000 C   0  0  0  0  0  0  0  0  0  0  0  0
   19.2863  -21.5375  -13.9056 O   0  0  0  0  0  0  0  0  0  0  0  0
   19.9974  -21.1739  -12.9255 O   0  0  0  0  0  0  0  0  0  0  0  0
  2  1  1  1
  2  3  1  0
  3  4  1  0
  5  4  1  0
  6  5  2  0
  7  2  1  0
  8  7  2  0
  9  5  1  0
 10 11  1  0
 11 13  1  0
 11 12  2  0
 13 14  1  0
 14 15  1  0
 15 16  1  0
 17 16  1  6
 17 18  1  0
 18  7  1  0
 19 21  1  0
 19 17  1  0
 20 19  2  0
 22 30  1  0
 22 21  1  0
 22 23  1  1
 24 23  1  0
 24 25  2  0
 26 25  1  0
 27 26  2  0
 28 29  2  0
 28 27  1  0
 29 24  1  0
 30 32  1  0
 31 30  2  0
M  END
$$$$
