ERF.pdb
     RDKit          3D

 32 32  0  0  1  0  0  0  0  0999 V2000
   19.4838  -21.3026  -12.2049 N   0  0  0  0  0  0  0  0  0  0  0  0
   20.5446  -20.4381  -12.6280 C   0  0  1  0  0  0  0  0  0  0  0  0
   20.4408  -19.0534  -12.0497 C   0  0  0  0  0  0  0  0  0  0  0  0
   19.7867  -18.1109  -13.0015 C   0  0  0  0  0  0  0  0  0  0  0  0
   20.5714  -17.9144  -14.2187 C   0  0  0  0  0  0  0  0  0  0  0  0
   20.4377  -18.5840  -15.2658 O   0  0  0  0  0  0  0  0  0  0  0  0
   21.8463  -21.0734  -12.3151 C   0  0  0  0  0  0  0  0  0  0  0  0
   21.9442  -21.8174  -11.3198 O   0  0  0  0  0  0  0  0  0  0  0  0
   21.5501  -16.9042  -14.2277 O   0  0  0  0  0  0  0  0  0  0  0  0
   25.6096  -24.3216  -15.7574 N   0  0  0  0  0  0  0  0  0  0  0  0
   27.0218  -24.4154  -15.7236 C   0  0  0  0  0  0  0  0  0  0  0  0
   27.6067  -25.5640  -15.8917 N   0  0  0  0  0  0  0  0  0  0  0  0
   27.8324  -23.2535  -15.5032 N   0  0  0  0  0  0  0  0  0  0  0  0
   27.2148  -21.9647  -15.2546 C   0  0  0  0  0  0  0  0  0  0  0  0
   26.4465  -21.9445  -13.9698 C   0  0  0  0  0  0  0  0  0  0  0  0
   25.0276  -21.4697  -14.1611 C   0  0  0  0  0  0  0  0  0  0  0  0
   24.2369  -21.4515  -12.8790 C   0  0  2  0  0  0  0  0  0  0  0  0
   22.9517  -20.8235  -13.1504 N   0  0  0  0  0  0  0  0  0  0  0  0
   24.9954  -20.6285  -11.8839 C   0  0  0  0  0  0  0  0  0  0  0  0
   24.9315  -19.3649  -11.8828 O   0  0  0  0  0  0  0  0  0  0  0  0
   28.6494  -25.6071  -15.8903 N   0  0  0  0  0  0  0  0  0  0  0  0
   25.7990  -21.2613  -10.9263 C   0  0  2  0  0  0  0  0  0  0  0  0
   26.6638  -20.4960  -10.0154 C   0  0  0  0  0  0  0  0  0  0  0  0
   26.1761  -20.7985   -8.6309 C   0  0  0  0  0  0  0  0  0  0  0  0
   26.9796  -20.1176   -7.5938 C   0  0  0  0  0  0  0  0  0  0  0  0
   27.8537  -20.8457   -6.8063 C   0  0  0  0  0  0  0  0  0  0  0  0
   28.5954  -20.2130   -5.8552 C   0  0  0  0  0  0  0  0  0  0  0  0
   28.4763  -18.8445   -5.6757 C   0  0  0  0  0  0  0  0  0  0  0  0
   27.6088  -18.1015   -6.4529 C   0  0  0  0  0  0  0  0  0  0  0  0
   26.8650  -18.7680   -7.4139 C   0  0  0  0  0  0  0  0  0  0  0  0
   28.0484  -20.9043  -10.2708 O   0  0  0  0  0  0  0  0  0  0  0  0
   28.9918  -20.0708  -10.3880 O   0  0  0  0  0  0  0  0  0  0  0  0
  2  1  1  1
  2  3  1  0
  3  4  1  0
  5  4  1  0
  6  5  2  0
  7  2  1  0
  8  7  2  0
  9  5  1  0
 10 11  1  0
 11 13  1  0
 11 12  2  0
 13 14  1  0
 14 15  1  0
 15 16  1  0
 17 16  1  6
 17 18  1  0
 18  7  1  0
 19 21  1  0
 19 17  1  0
 20 19  2  0
 22 30  1  0
 22 21  1  0
 22 23  1  1
 24 23  1  0
 24 25  2  0
 26 25  1  0
 27 26  2  0
 28 29  2  0
 28 27  1  0
 29 24  1  0
 30 32  1  0
 31 30  2  0
M  END
$$$$
