ERF.pdb
     RDKit          3D

 32 32  0  0  1  0  0  0  0  0999 V2000
   26.1317  -24.2861  -16.9700 N   0  0  0  0  0  0  0  0  0  0  0  0
   27.1019  -23.2337  -16.9186 C   0  0  1  0  0  0  0  0  0  0  0  0
   27.5742  -22.8021  -18.2800 C   0  0  0  0  0  0  0  0  0  0  0  0
   28.9077  -22.1395  -18.2115 C   0  0  0  0  0  0  0  0  0  0  0  0
   29.0426  -21.0571  -19.1841 C   0  0  0  0  0  0  0  0  0  0  0  0
   28.1393  -20.6877  -19.9654 O   0  0  0  0  0  0  0  0  0  0  0  0
   26.5520  -22.1006  -16.1377 C   0  0  0  0  0  0  0  0  0  0  0  0
   26.6910  -20.9367  -16.5614 O   0  0  0  0  0  0  0  0  0  0  0  0
   30.2695  -20.3733  -19.2581 O   0  0  0  0  0  0  0  0  0  0  0  0
   24.5810  -21.0601  -19.3631 N   0  0  0  0  0  0  0  0  0  0  0  0
   23.3189  -21.3578  -18.7950 C   0  0  0  0  0  0  0  0  0  0  0  0
   22.6794  -22.4336  -19.1460 N   0  0  0  0  0  0  0  0  0  0  0  0
   22.7219  -20.4842  -17.8274 N   0  0  0  0  0  0  0  0  0  0  0  0
   23.5413  -19.5523  -17.0762 C   0  0  0  0  0  0  0  0  0  0  0  0
   24.6388  -20.2416  -16.3268 C   0  0  0  0  0  0  0  0  0  0  0  0
   24.2186  -20.6334  -14.9321 C   0  0  0  0  0  0  0  0  0  0  0  0
   25.3322  -21.2668  -14.1396 C   0  0  2  0  0  0  0  0  0  0  0  0
   25.8809  -22.3611  -14.9277 N   0  0  0  0  0  0  0  0  0  0  0  0
   24.7436  -21.8084  -12.8735 C   0  0  0  0  0  0  0  0  0  0  0  0
   23.8795  -22.7325  -12.8867 O   0  0  0  0  0  0  0  0  0  0  0  0
   21.7416  -22.6246  -18.7299 N   0  0  0  0  0  0  0  0  0  0  0  0
   25.1511  -21.2874  -11.6384 C   0  0  2  0  0  0  0  0  0  0  0  0
   24.6158  -21.8008  -10.3683 C   0  0  0  0  0  0  0  0  0  0  0  0
   25.7989  -21.9938   -9.4689 C   0  0  0  0  0  0  0  0  0  0  0  0
   26.4451  -20.7131   -9.1123 C   0  0  0  0  0  0  0  0  0  0  0  0
   27.2787  -20.0824  -10.0188 C   0  0  0  0  0  0  0  0  0  0  0  0
   27.8681  -18.9000   -9.6873 C   0  0  0  0  0  0  0  0  0  0  0  0
   27.6344  -18.3293   -8.4468 C   0  0  0  0  0  0  0  0  0  0  0  0
   26.8049  -18.9448   -7.5293 C   0  0  0  0  0  0  0  0  0  0  0  0
   26.2170  -20.1470   -7.8898 C   0  0  0  0  0  0  0  0  0  0  0  0
   23.6346  -20.8294   -9.8756 O   0  0  0  0  0  0  0  0  0  0  0  0
   23.4806  -19.6915  -10.4046 O   0  0  0  0  0  0  0  0  0  0  0  0
  2  1  1  6
  2  3  1  0
  3  4  1  0
  5  4  1  0
  6  5  2  0
  7  2  1  0
  8  7  2  0
  9  5  1  0
 10 11  1  0
 11 13  1  0
 11 12  2  0
 13 14  1  0
 14 15  1  0
 15 16  1  0
 17 16  1  6
 17 18  1  0
 18  7  1  0
 19 21  1  0
 19 17  1  0
 20 19  2  0
 22 30  1  0
 22 21  1  0
 22 23  1  6
 24 23  1  0
 24 25  2  0
 26 25  1  0
 27 26  2  0
 28 29  2  0
 28 27  1  0
 29 24  1  0
 30 32  1  0
 31 30  2  0
M  END
$$$$
