ERF.pdb
     RDKit          3D

 32 32  0  0  1  0  0  0  0  0999 V2000
   17.3645  -11.9593  -17.2712 N   0  0  0  0  0  0  0  0  0  0  0  0
   18.3994  -11.4535  -16.4200 C   0  0  1  0  0  0  0  0  0  0  0  0
   19.7776  -11.6476  -16.9908 C   0  0  0  0  0  0  0  0  0  0  0  0
   20.1262  -13.0929  -17.0985 C   0  0  0  0  0  0  0  0  0  0  0  0
   21.4837  -13.3029  -17.5974 C   0  0  0  0  0  0  0  0  0  0  0  0
   22.4894  -13.4660  -16.8730 O   0  0  0  0  0  0  0  0  0  0  0  0
   18.1237  -10.0311  -16.1086 C   0  0  0  0  0  0  0  0  0  0  0  0
   17.8135   -9.2491  -17.0282 O   0  0  0  0  0  0  0  0  0  0  0  0
   21.6889  -13.3252  -18.9888 O   0  0  0  0  0  0  0  0  0  0  0  0
   12.1997   -9.0421  -11.2475 N   0  0  0  0  0  0  0  0  0  0  0  0
   13.3156   -9.9050  -11.3677 C   0  0  0  0  0  0  0  0  0  0  0  0
   13.3704  -11.0057  -10.6784 N   0  0  0  0  0  0  0  0  0  0  0  0
   14.4032   -9.5853  -12.2455 N   0  0  0  0  0  0  0  0  0  0  0  0
   14.2838   -8.4942  -13.1940 C   0  0  0  0  0  0  0  0  0  0  0  0
   15.4249   -8.4597  -14.1625 C   0  0  0  0  0  0  0  0  0  0  0  0
   16.7461   -8.2100  -13.4787 C   0  0  0  0  0  0  0  0  0  0  0  0
   17.9104   -8.2069  -14.4346 C   0  0  2  0  0  0  0  0  0  0  0  0
   18.2180   -9.5885  -14.7754 N   0  0  0  0  0  0  0  0  0  0  0  0
   19.0807   -7.5931  -13.7300 C   0  0  0  0  0  0  0  0  0  0  0  0
   19.3190   -7.8307  -12.5103 O   0  0  0  0  0  0  0  0  0  0  0  0
   14.1970  -11.6329  -10.7893 N   0  0  0  0  0  0  0  0  0  0  0  0
   19.9395   -6.7332  -14.4271 C   0  0  1  0  0  0  0  0  0  0  0  0
   21.1199   -6.1334  -13.7866 C   0  0  0  0  0  0  0  0  0  0  0  0
   22.3034   -6.6083  -14.5737 C   0  0  0  0  0  0  0  0  0  0  0  0
   22.5002   -8.0689  -14.4614 C   0  0  0  0  0  0  0  0  0  0  0  0
   22.9902   -8.6131  -13.2875 C   0  0  0  0  0  0  0  0  0  0  0  0
   23.1653   -9.9602  -13.1872 C   0  0  0  0  0  0  0  0  0  0  0  0
   22.8539  -10.7841  -14.2565 C   0  0  0  0  0  0  0  0  0  0  0  0
   22.3635  -10.2583  -15.4361 C   0  0  0  0  0  0  0  0  0  0  0  0
   22.1942   -8.8849  -15.5138 C   0  0  0  0  0  0  0  0  0  0  0  0
   20.9357   -4.6790  -13.7908 O   0  0  0  0  0  0  0  0  0  0  0  0
   21.7790   -3.8860  -13.2823 O   0  0  0  0  0  0  0  0  0  0  0  0
  2  1  1  6
  2  3  1  0
  3  4  1  0
  5  4  1  0
  6  5  2  0
  7  2  1  0
  8  7  2  0
  9  5  1  0
 10 11  1  0
 11 13  1  0
 11 12  2  0
 13 14  1  0
 14 15  1  0
 15 16  1  0
 17 16  1  1
 17 18  1  0
 18  7  1  0
 19 21  1  0
 19 17  1  0
 20 19  2  0
 22 30  1  0
 22 21  1  0
 22 23  1  1
 24 23  1  0
 24 25  2  0
 26 25  1  0
 27 26  2  0
 28 29  2  0
 28 27  1  0
 29 24  1  0
 30 32  1  0
 31 30  2  0
M  END
$$$$
