ERF.pdb
     RDKit          3D

 32 32  0  0  1  0  0  0  0  0999 V2000
   15.9014  -11.6520  -14.9345 N   0  0  0  0  0  0  0  0  0  0  0  0
   16.5104  -11.4789  -13.6497 C   0  0  1  0  0  0  0  0  0  0  0  0
   18.0116  -11.5630  -13.6944 C   0  0  0  0  0  0  0  0  0  0  0  0
   18.4718  -12.9315  -14.0651 C   0  0  0  0  0  0  0  0  0  0  0  0
   19.0174  -12.9879  -15.4197 C   0  0  0  0  0  0  0  0  0  0  0  0
   20.2251  -12.8375  -15.7058 O   0  0  0  0  0  0  0  0  0  0  0  0
   16.0441  -10.2035  -13.0563 C   0  0  0  0  0  0  0  0  0  0  0  0
   15.9853   -9.1803  -13.7656 O   0  0  0  0  0  0  0  0  0  0  0  0
   18.1336  -13.2273  -16.4874 O   0  0  0  0  0  0  0  0  0  0  0  0
   10.4216   -8.5947   -6.4301 N   0  0  0  0  0  0  0  0  0  0  0  0
   11.0154   -7.3406   -6.7113 C   0  0  0  0  0  0  0  0  0  0  0  0
   10.6760   -6.2871   -6.0298 N   0  0  0  0  0  0  0  0  0  0  0  0
   11.9966   -7.2058   -7.7480 N   0  0  0  0  0  0  0  0  0  0  0  0
   12.5430   -8.3818   -8.3982 C   0  0  0  0  0  0  0  0  0  0  0  0
   13.6394   -8.0389   -9.3582 C   0  0  0  0  0  0  0  0  0  0  0  0
   14.2108   -9.2614  -10.0321 C   0  0  0  0  0  0  0  0  0  0  0  0
   15.2372   -8.9269  -11.0828 C   0  0  2  0  0  0  0  0  0  0  0  0
   15.6753  -10.1716  -11.6979 N   0  0  0  0  0  0  0  0  0  0  0  0
   16.3971   -8.2717  -10.3987 C   0  0  0  0  0  0  0  0  0  0  0  0
   16.9135   -8.7627   -9.3532 O   0  0  0  0  0  0  0  0  0  0  0  0
   11.1135   -5.3690   -6.2640 N   0  0  0  0  0  0  0  0  0  0  0  0
   16.9322   -7.0859  -10.9190 C   0  0  1  0  0  0  0  0  0  0  0  0
   18.1155   -6.4457  -10.3246 C   0  0  0  0  0  0  0  0  0  0  0  0
   19.2848   -7.3007  -10.7089 C   0  0  0  0  0  0  0  0  0  0  0  0
   20.5757   -6.6775  -10.3485 C   0  0  0  0  0  0  0  0  0  0  0  0
   21.3835   -6.1388  -11.3342 C   0  0  0  0  0  0  0  0  0  0  0  0
   22.5700   -5.5613  -10.9965 C   0  0  0  0  0  0  0  0  0  0  0  0
   22.9680   -5.5125   -9.6704 C   0  0  0  0  0  0  0  0  0  0  0  0
   22.1741   -6.0450   -8.6730 C   0  0  0  0  0  0  0  0  0  0  0  0
   20.9716   -6.6273   -9.0417 C   0  0  0  0  0  0  0  0  0  0  0  0
   18.1788   -5.0721  -10.8326 O   0  0  0  0  0  0  0  0  0  0  0  0
   18.6322   -4.1134  -10.1442 O   0  0  0  0  0  0  0  0  0  0  0  0
  2  1  1  6
  2  3  1  0
  3  4  1  0
  5  4  1  0
  6  5  2  0
  7  2  1  0
  8  7  2  0
  9  5  1  0
 10 11  1  0
 11 13  1  0
 11 12  2  0
 13 14  1  0
 14 15  1  0
 15 16  1  0
 17 16  1  1
 17 18  1  0
 18  7  1  0
 19 21  1  0
 19 17  1  0
 20 19  2  0
 22 30  1  0
 22 21  1  0
 22 23  1  6
 24 23  1  0
 24 25  2  0
 26 25  1  0
 27 26  2  0
 28 29  2  0
 28 27  1  0
 29 24  1  0
 30 32  1  0
 31 30  2  0
M  END
$$$$
