ERF.pdb
     RDKit          3D

 32 32  0  0  1  0  0  0  0  0999 V2000
   25.0631  -18.9591  -17.9897 N   0  0  0  0  0  0  0  0  0  0  0  0
   25.4937  -18.9513  -16.6236 C   0  0  1  0  0  0  0  0  0  0  0  0
   24.7222  -17.9829  -15.7693 C   0  0  0  0  0  0  0  0  0  0  0  0
   24.8539  -16.5856  -16.2716 C   0  0  0  0  0  0  0  0  0  0  0  0
   23.6820  -16.1536  -17.0304 C   0  0  0  0  0  0  0  0  0  0  0  0
   22.5047  -16.2138  -16.6143 O   0  0  0  0  0  0  0  0  0  0  0  0
   25.4375  -20.3312  -16.0862 C   0  0  0  0  0  0  0  0  0  0  0  0
   24.4705  -21.0638  -16.3722 O   0  0  0  0  0  0  0  0  0  0  0  0
   23.8766  -15.6310  -18.3217 O   0  0  0  0  0  0  0  0  0  0  0  0
   31.2251  -24.3402  -15.4382 N   0  0  0  0  0  0  0  0  0  0  0  0
   31.0044  -23.7438  -16.7030 C   0  0  0  0  0  0  0  0  0  0  0  0
   32.0060  -23.2986  -17.4016 N   0  0  0  0  0  0  0  0  0  0  0  0
   29.6798  -23.6174  -17.2371 N   0  0  0  0  0  0  0  0  0  0  0  0
   28.5686  -24.3114  -16.6143 C   0  0  0  0  0  0  0  0  0  0  0  0
   27.4376  -23.3871  -16.2857 C   0  0  0  0  0  0  0  0  0  0  0  0
   27.4702  -22.9346  -14.8472 C   0  0  0  0  0  0  0  0  0  0  0  0
   26.3276  -22.0187  -14.4938 C   0  0  2  0  0  0  0  0  0  0  0  0
   26.4808  -20.7900  -15.2596 N   0  0  0  0  0  0  0  0  0  0  0  0
   26.4215  -21.7114  -13.0311 C   0  0  0  0  0  0  0  0  0  0  0  0
   27.5042  -21.8535  -12.3923 O   0  0  0  0  0  0  0  0  0  0  0  0
   31.8179  -22.8163  -18.3077 N   0  0  0  0  0  0  0  0  0  0  0  0
   25.2899  -21.2552  -12.3421 C   0  0  2  0  0  0  0  0  0  0  0  0
   25.3224  -20.9830  -10.8971 C   0  0  0  0  0  0  0  0  0  0  0  0
   26.3992  -19.9608  -10.6932 C   0  0  0  0  0  0  0  0  0  0  0  0
   27.2731  -20.2900   -9.5474 C   0  0  0  0  0  0  0  0  0  0  0  0
   27.0325  -19.7237   -8.3082 C   0  0  0  0  0  0  0  0  0  0  0  0
   27.8377  -20.0339   -7.2543 C   0  0  0  0  0  0  0  0  0  0  0  0
   28.8946  -20.9138   -7.4211 C   0  0  0  0  0  0  0  0  0  0  0  0
   29.1496  -21.4889   -8.6511 C   0  0  0  0  0  0  0  0  0  0  0  0
   28.3164  -21.1575   -9.7079 C   0  0  0  0  0  0  0  0  0  0  0  0
   23.9835  -20.5376  -10.4995 O   0  0  0  0  0  0  0  0  0  0  0  0
   23.6620  -20.3462   -9.2918 O   0  0  0  0  0  0  0  0  0  0  0  0
  2  1  1  6
  2  3  1  0
  3  4  1  0
  5  4  1  0
  6  5  2  0
  7  2  1  0
  8  7  2  0
  9  5  1  0
 10 11  1  0
 11 13  1  0
 11 12  2  0
 13 14  1  0
 14 15  1  0
 15 16  1  0
 17 16  1  6
 17 18  1  0
 18  7  1  0
 19 21  1  0
 19 17  1  0
 20 19  2  0
 22 30  1  0
 22 21  1  0
 22 23  1  1
 24 23  1  0
 24 25  2  0
 26 25  1  0
 27 26  2  0
 28 29  2  0
 28 27  1  0
 29 24  1  0
 30 32  1  0
 31 30  2  0
M  END
$$$$
