ERF.pdb
     RDKit          3D

 32 32  0  0  1  0  0  0  0  0999 V2000
   25.8144  -25.4389  -16.7820 N   0  0  0  0  0  0  0  0  0  0  0  0
   26.2444  -24.0983  -16.5186 C   0  0  1  0  0  0  0  0  0  0  0  0
   27.1463  -23.5488  -17.5897 C   0  0  0  0  0  0  0  0  0  0  0  0
   28.4537  -24.2642  -17.6236 C   0  0  0  0  0  0  0  0  0  0  0  0
   29.3444  -23.8485  -16.5422 C   0  0  0  0  0  0  0  0  0  0  0  0
   29.5485  -22.6616  -16.2067 O   0  0  0  0  0  0  0  0  0  0  0  0
   25.0571  -23.2390  -16.2992 C   0  0  0  0  0  0  0  0  0  0  0  0
   24.0185  -23.4454  -16.9567 O   0  0  0  0  0  0  0  0  0  0  0  0
   30.0275  -24.8427  -15.8187 O   0  0  0  0  0  0  0  0  0  0  0  0
   23.0794  -20.7829   -8.7230 N   0  0  0  0  0  0  0  0  0  0  0  0
   24.2731  -20.9869   -9.4564 C   0  0  0  0  0  0  0  0  0  0  0  0
   25.4266  -20.9311   -8.8599 N   0  0  0  0  0  0  0  0  0  0  0  0
   24.2361  -21.2566  -10.8641 N   0  0  0  0  0  0  0  0  0  0  0  0
   23.0726  -21.8854  -11.4601 C   0  0  0  0  0  0  0  0  0  0  0  0
   23.2825  -22.2059  -12.9074 C   0  0  0  0  0  0  0  0  0  0  0  0
   23.8655  -21.0427  -13.6705 C   0  0  0  0  0  0  0  0  0  0  0  0
   23.9901  -21.3128  -15.1473 C   0  0  2  0  0  0  0  0  0  0  0  0
   25.1249  -22.2022  -15.3492 N   0  0  0  0  0  0  0  0  0  0  0  0
   24.2502  -20.0066  -15.8321 C   0  0  0  0  0  0  0  0  0  0  0  0
   24.9994  -19.1264  -15.3178 O   0  0  0  0  0  0  0  0  0  0  0  0
   26.2970  -20.9671   -9.4345 N   0  0  0  0  0  0  0  0  0  0  0  0
   23.6552  -19.7409  -17.0726 C   0  0  1  0  0  0  0  0  0  0  0  0
   23.8031  -18.4373  -17.7373 C   0  0  0  0  0  0  0  0  0  0  0  0
   24.7837  -18.6497  -18.8505 C   0  0  0  0  0  0  0  0  0  0  0  0
   26.1829  -18.6317  -18.3742 C   0  0  0  0  0  0  0  0  0  0  0  0
   26.8180  -17.4255  -18.1372 C   0  0  0  0  0  0  0  0  0  0  0  0
   28.1058  -17.4141  -17.6939 C   0  0  0  0  0  0  0  0  0  0  0  0
   28.7790  -18.6059  -17.4802 C   0  0  0  0  0  0  0  0  0  0  0  0
   28.1607  -19.8196  -17.7112 C   0  0  0  0  0  0  0  0  0  0  0  0
   26.8502  -19.8050  -18.1621 C   0  0  0  0  0  0  0  0  0  0  0  0
   22.4716  -18.0109  -18.1784 O   0  0  0  0  0  0  0  0  0  0  0  0
   21.4433  -18.7309  -18.0282 O   0  0  0  0  0  0  0  0  0  0  0  0
  2  1  1  6
  2  3  1  0
  3  4  1  0
  5  4  1  0
  6  5  2  0
  7  2  1  0
  8  7  2  0
  9  5  1  0
 10 11  1  0
 11 13  1  0
 11 12  2  0
 13 14  1  0
 14 15  1  0
 15 16  1  0
 17 16  1  1
 17 18  1  0
 18  7  1  0
 19 21  1  0
 19 17  1  0
 20 19  2  0
 22 30  1  0
 22 21  1  0
 22 23  1  1
 24 23  1  0
 24 25  2  0
 26 25  1  0
 27 26  2  0
 28 29  2  0
 28 27  1  0
 29 24  1  0
 30 32  1  0
 31 30  2  0
M  END
$$$$
