TGY.pdb
     RDKit          3D

 24 24  0  0  1  0  0  0  0  0999 V2000
    7.7547  -12.3992   19.7250 C   0  0  0  0  0  0  0  0  0  0  0  0
    8.0177  -13.8646   20.0679 C   0  0  1  0  0  0  0  0  0  0  0  0
    9.3847  -14.1307   20.0648 O   0  0  0  0  0  0  0  0  0  0  0  0
    7.4551  -14.0820   21.4627 C   0  0  2  0  0  0  0  0  0  0  0  0
    8.1141  -13.1615   22.3525 N   0  0  0  0  0  0  0  0  0  0  0  0
    7.5882  -15.4806   21.9119 C   0  0  0  0  0  0  0  0  0  0  0  0
    7.0747  -16.3960   21.2312 O   0  0  0  0  0  0  0  0  0  0  0  0
    8.2893  -15.7650   23.0974 N   0  0  0  0  0  0  0  0  0  0  0  0
    8.4675  -17.1186   23.5281 C   0  0  0  0  0  0  0  0  0  0  0  0
    9.1766  -17.0898   24.8581 C   0  0  0  0  0  0  0  0  0  0  0  0
    9.2397  -18.1261   25.5653 O   0  0  0  0  0  0  0  0  0  0  0  0
    5.9945  -11.0891   26.1137 O   0  0  0  0  0  0  0  0  0  0  0  0
    6.6701  -12.2516   26.4679 C   0  0  0  0  0  0  0  0  0  0  0  0
    6.0136  -13.4317   26.7473 C   0  0  0  0  0  0  0  0  0  0  0  0
    6.6645  -14.5908   27.0990 C   0  0  0  0  0  0  0  0  0  0  0  0
    8.0352  -14.6128   27.1872 C   0  0  0  0  0  0  0  0  0  0  0  0
    8.8209  -15.7867   27.5611 C   0  0  0  0  0  0  0  0  0  0  0  0
   10.1077  -15.8253   26.7726 C   0  0  2  0  0  0  0  0  0  0  0  0
    9.7829  -15.9086   25.3397 N   0  0  0  0  0  0  0  0  0  0  0  0
   10.8951  -16.9995   27.1865 C   0  0  0  0  0  0  0  0  0  0  0  0
   11.4762  -17.2110   28.4041 O   0  0  0  0  0  0  0  0  0  0  0  0
    8.7260  -13.4315   26.9094 C   0  0  0  0  0  0  0  0  0  0  0  0
    8.0450  -12.2917   26.5609 C   0  0  0  0  0  0  0  0  0  0  0  0
   11.0636  -17.9308   26.3196 O   0  0  0  0  0  0  0  0  0  0  0  0
  2  1  1  1
  3  2  1  0
  4  2  1  0
  4  6  1  0
  4  5  1  1
  6  7  2  0
  8  9  1  0
  8  6  1  0
  9 10  1  0
 10 19  1  0
 10 11  2  0
 12 13  1  0
 13 23  2  0
 14 13  1  0
 14 15  2  0
 15 16  1  0
 16 22  2  0
 16 17  1  0
 18 17  1  1
 19 18  1  0
 20 18  1  0
 20 21  1  0
 23 22  1  0
 24 20  2  0
M  END
$$$$
