TGY.pdb
     RDKit          3D

 24 24  0  0  1  0  0  0  0  0999 V2000
    7.1222  -12.6029   19.3343 C   0  0  0  0  0  0  0  0  0  0  0  0
    7.8093  -13.6755   18.4909 C   0  0  1  0  0  0  0  0  0  0  0  0
    8.1654  -13.1653   17.2449 O   0  0  0  0  0  0  0  0  0  0  0  0
    9.0581  -14.0819   19.2556 C   0  0  2  0  0  0  0  0  0  0  0  0
    9.8058  -14.9921   18.4274 N   0  0  0  0  0  0  0  0  0  0  0  0
    8.7466  -14.6604   20.5761 C   0  0  0  0  0  0  0  0  0  0  0  0
    8.4539  -13.9008   21.5261 O   0  0  0  0  0  0  0  0  0  0  0  0
    8.7828  -16.0557   20.7486 N   0  0  0  0  0  0  0  0  0  0  0  0
    8.1967  -16.6592   21.9069 C   0  0  0  0  0  0  0  0  0  0  0  0
    9.1205  -16.4129   23.0724 C   0  0  0  0  0  0  0  0  0  0  0  0
   10.3090  -16.0574   22.8750 O   0  0  0  0  0  0  0  0  0  0  0  0
    5.1536  -12.0807   26.3699 O   0  0  0  0  0  0  0  0  0  0  0  0
    6.3518  -12.7598   26.1793 C   0  0  0  0  0  0  0  0  0  0  0  0
    7.5494  -12.1044   25.9843 C   0  0  0  0  0  0  0  0  0  0  0  0
    8.7439  -12.7586   25.7942 C   0  0  0  0  0  0  0  0  0  0  0  0
    8.7857  -14.1318   25.7918 C   0  0  0  0  0  0  0  0  0  0  0  0
    9.9982  -14.9216   25.5893 C   0  0  0  0  0  0  0  0  0  0  0  0
    9.6543  -16.3883   25.4902 C   0  0  2  0  0  0  0  0  0  0  0  0
    8.6787  -16.5737   24.4042 N   0  0  0  0  0  0  0  0  0  0  0  0
    9.0842  -16.8403   26.7711 C   0  0  0  0  0  0  0  0  0  0  0  0
    9.7088  -16.8639   27.9853 O   0  0  0  0  0  0  0  0  0  0  0  0
    7.5874  -14.8214   25.9871 C   0  0  0  0  0  0  0  0  0  0  0  0
    6.4122  -14.1370   26.1742 C   0  0  0  0  0  0  0  0  0  0  0  0
    7.8721  -17.2624   26.7599 O   0  0  0  0  0  0  0  0  0  0  0  0
  2  1  1  1
  3  2  1  0
  4  2  1  0
  4  6  1  0
  4  5  1  6
  6  7  2  0
  8  9  1  0
  8  6  1  0
  9 10  1  0
 10 19  1  0
 10 11  2  0
 12 13  1  0
 13 23  2  0
 14 13  1  0
 14 15  2  0
 15 16  1  0
 16 22  2  0
 16 17  1  0
 18 17  1  1
 19 18  1  0
 20 18  1  0
 20 21  1  0
 23 22  1  0
 24 20  2  0
M  END
$$$$
