TGY.pdb
     RDKit          3D

 24 24  0  0  1  0  0  0  0  0999 V2000
    7.8209  -11.9575   18.4007 C   0  0  0  0  0  0  0  0  0  0  0  0
    7.5578  -13.3542   18.9610 C   0  0  1  0  0  0  0  0  0  0  0  0
    7.2797  -14.2504   17.9319 O   0  0  0  0  0  0  0  0  0  0  0  0
    8.8320  -13.7721   19.6759 C   0  0  2  0  0  0  0  0  0  0  0  0
    9.8531  -13.9672   18.6796 N   0  0  0  0  0  0  0  0  0  0  0  0
    8.6397  -14.9691   20.5161 C   0  0  0  0  0  0  0  0  0  0  0  0
    9.2238  -16.0330   20.2127 O   0  0  0  0  0  0  0  0  0  0  0  0
    7.8036  -14.8977   21.6447 N   0  0  0  0  0  0  0  0  0  0  0  0
    7.5624  -16.0608   22.4438 C   0  0  0  0  0  0  0  0  0  0  0  0
    8.3918  -15.9395   23.6967 C   0  0  0  0  0  0  0  0  0  0  0  0
    9.4436  -15.2528   23.6965 O   0  0  0  0  0  0  0  0  0  0  0  0
    6.0964  -10.7057   26.2688 O   0  0  0  0  0  0  0  0  0  0  0  0
    6.5859  -11.9843   26.5113 C   0  0  0  0  0  0  0  0  0  0  0  0
    7.8949  -12.2172   26.8775 C   0  0  0  0  0  0  0  0  0  0  0  0
    8.3967  -13.4740   27.1214 C   0  0  0  0  0  0  0  0  0  0  0  0
    7.5846  -14.5758   27.0043 C   0  0  0  0  0  0  0  0  0  0  0  0
    8.0206  -15.9519   27.2312 C   0  0  0  0  0  0  0  0  0  0  0  0
    8.8702  -16.4264   26.0770 C   0  0  2  0  0  0  0  0  0  0  0  0
    8.0121  -16.5883   24.8924 N   0  0  0  0  0  0  0  0  0  0  0  0
    9.4972  -17.7111   26.4323 C   0  0  0  0  0  0  0  0  0  0  0  0
   10.5291  -17.9078   27.3050 O   0  0  0  0  0  0  0  0  0  0  0  0
    6.2540  -14.3694   26.6349 C   0  0  0  0  0  0  0  0  0  0  0  0
    5.7852  -13.1010   26.3990 C   0  0  0  0  0  0  0  0  0  0  0  0
    9.0367  -18.7675   25.8672 O   0  0  0  0  0  0  0  0  0  0  0  0
  2  1  1  6
  3  2  1  0
  4  2  1  0
  4  6  1  0
  4  5  1  6
  6  7  2  0
  8  9  1  0
  8  6  1  0
  9 10  1  0
 10 19  1  0
 10 11  2  0
 12 13  1  0
 13 23  2  0
 14 13  1  0
 14 15  2  0
 15 16  1  0
 16 22  2  0
 16 17  1  0
 18 17  1  1
 19 18  1  0
 20 18  1  0
 20 21  1  0
 23 22  1  0
 24 20  2  0
M  END
$$$$
