TGY.pdb
     RDKit          3D

 24 24  0  0  1  0  0  0  0  0999 V2000
    8.8207  -12.4051   19.7756 C   0  0  0  0  0  0  0  0  0  0  0  0
    8.3102  -13.0617   18.4941 C   0  0  1  0  0  0  0  0  0  0  0  0
    8.9055  -12.4825   17.3762 O   0  0  0  0  0  0  0  0  0  0  0  0
    8.7012  -14.5275   18.5829 C   0  0  2  0  0  0  0  0  0  0  0  0
    8.4478  -15.1300   17.2999 N   0  0  0  0  0  0  0  0  0  0  0  0
    8.0029  -15.2314   19.6749 C   0  0  0  0  0  0  0  0  0  0  0  0
    6.9218  -15.8145   19.4376 O   0  0  0  0  0  0  0  0  0  0  0  0
    8.5614  -15.2373   20.9656 N   0  0  0  0  0  0  0  0  0  0  0  0
    7.9203  -15.9477   22.0304 C   0  0  0  0  0  0  0  0  0  0  0  0
    8.7866  -15.8194   23.2574 C   0  0  0  0  0  0  0  0  0  0  0  0
    9.9625  -15.3880   23.1608 O   0  0  0  0  0  0  0  0  0  0  0  0
    5.5991  -10.7763   26.2843 O   0  0  0  0  0  0  0  0  0  0  0  0
    6.2551  -11.9935   26.4301 C   0  0  0  0  0  0  0  0  0  0  0  0
    5.6386  -13.2002   26.1739 C   0  0  0  0  0  0  0  0  0  0  0  0
    6.2708  -14.4135   26.3124 C   0  0  0  0  0  0  0  0  0  0  0  0
    7.5804  -14.4660   26.7243 C   0  0  0  0  0  0  0  0  0  0  0  0
    8.3391  -15.7007   26.9119 C   0  0  0  0  0  0  0  0  0  0  0  0
    9.1883  -15.9804   25.6955 C   0  0  2  0  0  0  0  0  0  0  0  0
    8.3042  -16.1772   24.5356 N   0  0  0  0  0  0  0  0  0  0  0  0
    9.9939  -17.1903   25.9342 C   0  0  0  0  0  0  0  0  0  0  0  0
   11.0890  -17.3016   26.7426 O   0  0  0  0  0  0  0  0  0  0  0  0
    8.2296  -13.2588   26.9906 C   0  0  0  0  0  0  0  0  0  0  0  0
    7.5687  -12.0649   26.8419 C   0  0  0  0  0  0  0  0  0  0  0  0
    9.6425  -18.2621   25.3217 O   0  0  0  0  0  0  0  0  0  0  0  0
  2  1  1  1
  3  2  1  0
  4  2  1  0
  4  6  1  0
  4  5  1  6
  6  7  2  0
  8  9  1  0
  8  6  1  0
  9 10  1  0
 10 19  1  0
 10 11  2  0
 12 13  1  0
 13 23  2  0
 14 13  1  0
 14 15  2  0
 15 16  1  0
 16 22  2  0
 16 17  1  0
 18 17  1  1
 19 18  1  0
 20 18  1  0
 20 21  1  0
 23 22  1  0
 24 20  2  0
M  END
$$$$
