TGY.pdb
     RDKit          3D

 24 24  0  0  1  0  0  0  0  0999 V2000
    5.9700  -20.9717   18.7609 C   0  0  0  0  0  0  0  0  0  0  0  0
    5.5653  -19.7938   19.6457 C   0  0  1  0  0  0  0  0  0  0  0  0
    4.1916  -19.8024   19.8746 O   0  0  0  0  0  0  0  0  0  0  0  0
    6.3063  -19.9755   20.9599 C   0  0  2  0  0  0  0  0  0  0  0  0
    5.7436  -19.0559   21.9143 N   0  0  0  0  0  0  0  0  0  0  0  0
    7.7637  -19.8017   20.8135 C   0  0  0  0  0  0  0  0  0  0  0  0
    8.5053  -20.8092   20.8107 O   0  0  0  0  0  0  0  0  0  0  0  0
    8.2983  -18.5079   20.6793 N   0  0  0  0  0  0  0  0  0  0  0  0
    9.6975  -18.3220   20.4404 C   0  0  0  0  0  0  0  0  0  0  0  0
   10.1876  -17.2510   21.3812 C   0  0  0  0  0  0  0  0  0  0  0  0
   11.3383  -16.7658   21.2448 O   0  0  0  0  0  0  0  0  0  0  0  0
    7.0635  -13.0933   18.1629 O   0  0  0  0  0  0  0  0  0  0  0  0
    7.4683  -13.4758   19.4368 C   0  0  0  0  0  0  0  0  0  0  0  0
    6.6659  -14.2223   20.2739 C   0  0  0  0  0  0  0  0  0  0  0  0
    7.0489  -14.6099   21.5364 C   0  0  0  0  0  0  0  0  0  0  0  0
    8.2838  -14.2546   22.0223 C   0  0  0  0  0  0  0  0  0  0  0  0
    8.7822  -14.6062   23.3501 C   0  0  0  0  0  0  0  0  0  0  0  0
    9.8721  -15.6451   23.2393 C   0  0  2  0  0  0  0  0  0  0  0  0
    9.3744  -16.7693   22.4306 N   0  0  0  0  0  0  0  0  0  0  0  0
   10.2382  -16.1097   24.5884 C   0  0  0  0  0  0  0  0  0  0  0  0
   10.9598  -15.4260   25.5248 O   0  0  0  0  0  0  0  0  0  0  0  0
    9.1174  -13.4985   21.1958 C   0  0  0  0  0  0  0  0  0  0  0  0
    8.7038  -13.1285   19.9402 C   0  0  0  0  0  0  0  0  0  0  0  0
    9.8460  -17.2819   24.9342 O   0  0  0  0  0  0  0  0  0  0  0  0
  2  1  1  6
  3  2  1  0
  4  2  1  0
  4  6  1  0
  4  5  1  1
  6  7  2  0
  8  9  1  0
  8  6  1  0
  9 10  1  0
 10 19  1  0
 10 11  2  0
 12 13  1  0
 13 23  2  0
 14 13  1  0
 14 15  2  0
 15 16  1  0
 16 22  2  0
 16 17  1  0
 18 17  1  1
 19 18  1  0
 20 18  1  0
 20 21  1  0
 23 22  1  0
 24 20  2  0
M  END
$$$$
