TGY.pdb
     RDKit          3D

 24 24  0  0  1  0  0  0  0  0999 V2000
    8.2288  -12.3759   17.7269 C   0  0  0  0  0  0  0  0  0  0  0  0
    7.6721  -13.4779   18.6266 C   0  0  1  0  0  0  0  0  0  0  0  0
    7.3242  -14.5963   17.8731 O   0  0  0  0  0  0  0  0  0  0  0  0
    8.7856  -13.8378   19.5961 C   0  0  2  0  0  0  0  0  0  0  0  0
    9.8364  -14.4737   18.8446 N   0  0  0  0  0  0  0  0  0  0  0  0
    8.3117  -14.6798   20.7106 C   0  0  0  0  0  0  0  0  0  0  0  0
    7.5280  -14.1951   21.5566 O   0  0  0  0  0  0  0  0  0  0  0  0
    8.7469  -16.0137   20.8063 N   0  0  0  0  0  0  0  0  0  0  0  0
    8.3804  -16.8175   21.9327 C   0  0  0  0  0  0  0  0  0  0  0  0
    9.2672  -16.4255   23.0870 C   0  0  0  0  0  0  0  0  0  0  0  0
   10.3785  -15.8794   22.8754 O   0  0  0  0  0  0  0  0  0  0  0  0
    5.1544  -12.2394   27.0300 O   0  0  0  0  0  0  0  0  0  0  0  0
    6.3275  -12.8871   26.6588 C   0  0  0  0  0  0  0  0  0  0  0  0
    6.3276  -14.0354   25.8953 C   0  0  0  0  0  0  0  0  0  0  0  0
    7.4769  -14.6896   25.5186 C   0  0  0  0  0  0  0  0  0  0  0  0
    8.7038  -14.2055   25.9031 C   0  0  0  0  0  0  0  0  0  0  0  0
    9.9814  -14.8289   25.5651 C   0  0  0  0  0  0  0  0  0  0  0  0
    9.8273  -16.3292   25.4970 C   0  0  2  0  0  0  0  0  0  0  0  0
    8.8761  -16.6594   24.4238 N   0  0  0  0  0  0  0  0  0  0  0  0
    9.3284  -16.8247   26.7914 C   0  0  0  0  0  0  0  0  0  0  0  0
    8.1543  -17.4834   27.0213 O   0  0  0  0  0  0  0  0  0  0  0  0
    8.7335  -13.0436   26.6769 C   0  0  0  0  0  0  0  0  0  0  0  0
    7.5669  -12.4153   27.0354 C   0  0  0  0  0  0  0  0  0  0  0  0
   10.0639  -16.6206   27.8233 O   0  0  0  0  0  0  0  0  0  0  0  0
  2  1  1  6
  3  2  1  0
  4  2  1  0
  4  6  1  0
  4  5  1  6
  6  7  2  0
  8  9  1  0
  8  6  1  0
  9 10  1  0
 10 19  1  0
 10 11  2  0
 12 13  1  0
 13 23  2  0
 14 13  1  0
 14 15  2  0
 15 16  1  0
 16 22  2  0
 16 17  1  0
 18 17  1  1
 19 18  1  0
 20 18  1  0
 20 21  1  0
 23 22  1  0
 24 20  2  0
M  END
$$$$
