TGY.pdb
     RDKit          3D

 24 24  0  0  1  0  0  0  0  0999 V2000
    7.2294  -13.0465   20.1357 C   0  0  0  0  0  0  0  0  0  0  0  0
    7.4081  -14.0936   19.0378 C   0  0  1  0  0  0  0  0  0  0  0  0
    8.2015  -13.5934   18.0083 O   0  0  0  0  0  0  0  0  0  0  0  0
    8.0999  -15.2791   19.6899 C   0  0  2  0  0  0  0  0  0  0  0  0
    8.5255  -16.1718   18.6433 N   0  0  0  0  0  0  0  0  0  0  0  0
    7.2432  -15.9550   20.6823 C   0  0  0  0  0  0  0  0  0  0  0  0
    6.4406  -16.8363   20.3025 O   0  0  0  0  0  0  0  0  0  0  0  0
    7.3404  -15.5998   22.0396 N   0  0  0  0  0  0  0  0  0  0  0  0
    6.4918  -16.2166   23.0137 C   0  0  0  0  0  0  0  0  0  0  0  0
    6.9680  -15.7873   24.3780 C   0  0  0  0  0  0  0  0  0  0  0  0
    6.1412  -15.4400   25.2576 O   0  0  0  0  0  0  0  0  0  0  0  0
   10.4406  -17.0564   30.7846 O   0  0  0  0  0  0  0  0  0  0  0  0
    9.9162  -16.3180   29.7296 C   0  0  0  0  0  0  0  0  0  0  0  0
   10.2864  -15.0121   29.4861 C   0  0  0  0  0  0  0  0  0  0  0  0
    9.7789  -14.2663   28.4483 C   0  0  0  0  0  0  0  0  0  0  0  0
    8.8557  -14.8148   27.5914 C   0  0  0  0  0  0  0  0  0  0  0  0
    8.2490  -14.1067   26.4664 C   0  0  0  0  0  0  0  0  0  0  0  0
    8.9270  -14.5002   25.1762 C   0  0  2  0  0  0  0  0  0  0  0  0
    8.3428  -15.7644   24.7005 N   0  0  0  0  0  0  0  0  0  0  0  0
   10.3709  -14.6642   25.4175 C   0  0  0  0  0  0  0  0  0  0  0  0
   11.0953  -15.8173   25.3129 O   0  0  0  0  0  0  0  0  0  0  0  0
    8.4627  -16.1360   27.8143 C   0  0  0  0  0  0  0  0  0  0  0  0
    8.9895  -16.8524   28.8601 C   0  0  0  0  0  0  0  0  0  0  0  0
   11.0319  -13.6209   25.7667 O   0  0  0  0  0  0  0  0  0  0  0  0
  2  1  1  1
  3  2  1  0
  4  2  1  0
  4  6  1  0
  4  5  1  6
  6  7  2  0
  8  9  1  0
  8  6  1  0
  9 10  1  0
 10 19  1  0
 10 11  2  0
 12 13  1  0
 13 23  2  0
 14 13  1  0
 14 15  2  0
 15 16  1  0
 16 22  2  0
 16 17  1  0
 18 17  1  1
 19 18  1  0
 20 18  1  0
 20 21  1  0
 23 22  1  0
 24 20  2  0
M  END
$$$$
