TGY.pdb
     RDKit          3D

 24 24  0  0  1  0  0  0  0  0999 V2000
    7.7064  -12.4140   18.4724 C   0  0  0  0  0  0  0  0  0  0  0  0
    7.4750  -13.6287   19.3697 C   0  0  1  0  0  0  0  0  0  0  0  0
    7.5785  -14.8072   18.6349 O   0  0  0  0  0  0  0  0  0  0  0  0
    8.5629  -13.5871   20.4299 C   0  0  2  0  0  0  0  0  0  0  0  0
    9.8280  -13.7866   19.7718 N   0  0  0  0  0  0  0  0  0  0  0  0
    8.3365  -14.5680   21.5079 C   0  0  0  0  0  0  0  0  0  0  0  0
    7.3657  -14.4168   22.2823 O   0  0  0  0  0  0  0  0  0  0  0  0
    9.2139  -15.6580   21.6499 N   0  0  0  0  0  0  0  0  0  0  0  0
    8.9071  -16.7232   22.5557 C   0  0  0  0  0  0  0  0  0  0  0  0
    9.3850  -16.3153   23.9259 C   0  0  0  0  0  0  0  0  0  0  0  0
   10.3581  -15.5307   24.0502 O   0  0  0  0  0  0  0  0  0  0  0  0
    6.0621  -11.0785   25.7140 O   0  0  0  0  0  0  0  0  0  0  0  0
    6.6165  -12.2859   26.1240 C   0  0  0  0  0  0  0  0  0  0  0  0
    7.8140  -12.3558   26.8044 C   0  0  0  0  0  0  0  0  0  0  0  0
    8.3777  -13.5399   27.2176 C   0  0  0  0  0  0  0  0  0  0  0  0
    7.7465  -14.7321   26.9579 C   0  0  0  0  0  0  0  0  0  0  0  0
    8.2640  -16.0429   27.3441 C   0  0  0  0  0  0  0  0  0  0  0  0
    9.3593  -16.4704   26.3971 C   0  0  2  0  0  0  0  0  0  0  0  0
    8.7578  -16.7997   25.0950 N   0  0  0  0  0  0  0  0  0  0  0  0
   10.0489  -17.6475   26.9529 C   0  0  0  0  0  0  0  0  0  0  0  0
   10.8505  -17.6840   28.0580 O   0  0  0  0  0  0  0  0  0  0  0  0
    6.5318  -14.6912   26.2703 C   0  0  0  0  0  0  0  0  0  0  0  0
    5.9969  -13.4913   25.8721 C   0  0  0  0  0  0  0  0  0  0  0  0
    9.8908  -18.7654   26.3423 O   0  0  0  0  0  0  0  0  0  0  0  0
  2  1  1  6
  3  2  1  0
  4  2  1  0
  4  6  1  0
  4  5  1  6
  6  7  2  0
  8  9  1  0
  8  6  1  0
  9 10  1  0
 10 19  1  0
 10 11  2  0
 12 13  1  0
 13 23  2  0
 14 13  1  0
 14 15  2  0
 15 16  1  0
 16 22  2  0
 16 17  1  0
 18 17  1  1
 19 18  1  0
 20 18  1  0
 20 21  1  0
 23 22  1  0
 24 20  2  0
M  END
$$$$
