TGY.pdb
     RDKit          3D

 24 24  0  0  1  0  0  0  0  0999 V2000
    9.7156  -16.5475   14.2877 C   0  0  0  0  0  0  0  0  0  0  0  0
    9.2545  -16.6788   15.7382 C   0  0  1  0  0  0  0  0  0  0  0  0
    7.8652  -16.6241   15.8174 O   0  0  0  0  0  0  0  0  0  0  0  0
    9.7435  -18.0351   16.2183 C   0  0  2  0  0  0  0  0  0  0  0  0
    9.2541  -19.0306   15.3003 N   0  0  0  0  0  0  0  0  0  0  0  0
    9.3434  -18.3179   17.6096 C   0  0  0  0  0  0  0  0  0  0  0  0
    8.1824  -18.7196   17.8454 O   0  0  0  0  0  0  0  0  0  0  0  0
   10.2713  -18.1321   18.6499 N   0  0  0  0  0  0  0  0  0  0  0  0
    9.8924  -18.3657   20.0105 C   0  0  0  0  0  0  0  0  0  0  0  0
   10.3052  -17.1612   20.8175 C   0  0  0  0  0  0  0  0  0  0  0  0
   11.3479  -16.5266   20.5208 O   0  0  0  0  0  0  0  0  0  0  0  0
    7.2238  -12.6497   17.8889 O   0  0  0  0  0  0  0  0  0  0  0  0
    7.6721  -13.1105   19.1218 C   0  0  0  0  0  0  0  0  0  0  0  0
    8.8806  -12.7219   19.6607 C   0  0  0  0  0  0  0  0  0  0  0  0
    9.3405  -13.1667   20.8778 C   0  0  0  0  0  0  0  0  0  0  0  0
    8.5872  -14.0419   21.6220 C   0  0  0  0  0  0  0  0  0  0  0  0
    8.9879  -14.5811   22.9197 C   0  0  0  0  0  0  0  0  0  0  0  0
   10.0685  -15.6201   22.7411 C   0  0  2  0  0  0  0  0  0  0  0  0
    9.5381  -16.7184   21.9176 N   0  0  0  0  0  0  0  0  0  0  0  0
   10.4787  -16.1253   24.0626 C   0  0  0  0  0  0  0  0  0  0  0  0
   10.1972  -17.3501   24.5972 O   0  0  0  0  0  0  0  0  0  0  0  0
    7.3586  -14.4522   21.1005 C   0  0  0  0  0  0  0  0  0  0  0  0
    6.9293  -13.9885   19.8819 C   0  0  0  0  0  0  0  0  0  0  0  0
   11.1736  -15.3406   24.8034 O   0  0  0  0  0  0  0  0  0  0  0  0
  2  1  1  6
  3  2  1  0
  4  2  1  0
  4  6  1  0
  4  5  1  6
  6  7  2  0
  8  9  1  0
  8  6  1  0
  9 10  1  0
 10 19  1  0
 10 11  2  0
 12 13  1  0
 13 23  2  0
 14 13  1  0
 14 15  2  0
 15 16  1  0
 16 22  2  0
 16 17  1  0
 18 17  1  1
 19 18  1  0
 20 18  1  0
 20 21  1  0
 23 22  1  0
 24 20  2  0
M  END
$$$$
