TGY.pdb
     RDKit          3D

 24 24  0  0  1  0  0  0  0  0999 V2000
    6.9782  -13.6642   20.5870 C   0  0  0  0  0  0  0  0  0  0  0  0
    6.7735  -15.0398   21.2192 C   0  0  1  0  0  0  0  0  0  0  0  0
    5.5705  -15.5993   20.7960 O   0  0  0  0  0  0  0  0  0  0  0  0
    7.9342  -15.9005   20.7487 C   0  0  2  0  0  0  0  0  0  0  0  0
    7.6102  -17.2736   21.0367 N   0  0  0  0  0  0  0  0  0  0  0  0
    9.2174  -15.4942   21.3518 C   0  0  0  0  0  0  0  0  0  0  0  0
    9.7339  -14.4039   21.0209 O   0  0  0  0  0  0  0  0  0  0  0  0
    9.8415  -16.3369   22.2890 N   0  0  0  0  0  0  0  0  0  0  0  0
   11.0418  -15.9233   22.9505 C   0  0  0  0  0  0  0  0  0  0  0  0
   10.8155  -16.0461   24.4358 C   0  0  0  0  0  0  0  0  0  0  0  0
   11.7414  -15.7805   25.2421 O   0  0  0  0  0  0  0  0  0  0  0  0
    6.9072  -10.8554   26.1124 O   0  0  0  0  0  0  0  0  0  0  0  0
    7.1685  -12.2119   26.2694 C   0  0  0  0  0  0  0  0  0  0  0  0
    6.5261  -13.1791   25.5253 C   0  0  0  0  0  0  0  0  0  0  0  0
    6.7712  -14.5247   25.6665 C   0  0  0  0  0  0  0  0  0  0  0  0
    7.6941  -14.9653   26.5838 C   0  0  0  0  0  0  0  0  0  0  0  0
    8.0208  -16.3701   26.8184 C   0  0  0  0  0  0  0  0  0  0  0  0
    9.4471  -16.6487   26.4096 C   0  0  2  0  0  0  0  0  0  0  0  0
    9.5687  -16.4589   24.9553 N   0  0  0  0  0  0  0  0  0  0  0  0
    9.7947  -18.0329   26.7743 C   0  0  0  0  0  0  0  0  0  0  0  0
   10.1281  -19.0475   25.9231 O   0  0  0  0  0  0  0  0  0  0  0  0
    8.3600  -14.0075   27.3511 C   0  0  0  0  0  0  0  0  0  0  0  0
    8.0914  -12.6717   27.1845 C   0  0  0  0  0  0  0  0  0  0  0  0
    9.7849  -18.3333   28.0221 O   0  0  0  0  0  0  0  0  0  0  0  0
  2  1  1  6
  3  2  1  0
  4  2  1  0
  4  6  1  0
  4  5  1  1
  6  7  2  0
  8  9  1  0
  8  6  1  0
  9 10  1  0
 10 19  1  0
 10 11  2  0
 12 13  1  0
 13 23  2  0
 14 13  1  0
 14 15  2  0
 15 16  1  0
 16 22  2  0
 16 17  1  0
 18 17  1  6
 19 18  1  0
 20 18  1  0
 20 21  1  0
 23 22  1  0
 24 20  2  0
M  END
$$$$
