TGY.pdb
     RDKit          3D

 24 24  0  0  1  0  0  0  0  0999 V2000
    9.7216  -17.6011   17.4904 C   0  0  0  0  0  0  0  0  0  0  0  0
    8.4010  -18.2191   17.9463 C   0  0  1  0  0  0  0  0  0  0  0  0
    8.1298  -19.3807   17.2276 O   0  0  0  0  0  0  0  0  0  0  0  0
    8.5746  -18.5544   19.4183 C   0  0  2  0  0  0  0  0  0  0  0  0
    7.5923  -19.5492   19.7629 N   0  0  0  0  0  0  0  0  0  0  0  0
    8.4845  -17.3621   20.2820 C   0  0  0  0  0  0  0  0  0  0  0  0
    7.3601  -16.9429   20.6352 O   0  0  0  0  0  0  0  0  0  0  0  0
    9.6623  -16.7143   20.6957 N   0  0  0  0  0  0  0  0  0  0  0  0
    9.5955  -15.5156   21.4755 C   0  0  0  0  0  0  0  0  0  0  0  0
    9.5002  -15.9139   22.9262 C   0  0  0  0  0  0  0  0  0  0  0  0
    9.0559  -17.0449   23.2451 O   0  0  0  0  0  0  0  0  0  0  0  0
    6.0028  -10.4675   26.7701 O   0  0  0  0  0  0  0  0  0  0  0  0
    6.5629  -11.7127   26.5075 C   0  0  0  0  0  0  0  0  0  0  0  0
    7.6729  -12.1800   27.1793 C   0  0  0  0  0  0  0  0  0  0  0  0
    8.2406  -13.4081   26.9335 C   0  0  0  0  0  0  0  0  0  0  0  0
    7.7039  -14.2376   25.9791 C   0  0  0  0  0  0  0  0  0  0  0  0
    8.2352  -15.5546   25.6350 C   0  0  0  0  0  0  0  0  0  0  0  0
    9.7151  -15.4616   25.3512 C   0  0  2  0  0  0  0  0  0  0  0  0
    9.9038  -15.0350   23.9555 N   0  0  0  0  0  0  0  0  0  0  0  0
   10.3348  -16.7799   25.5701 C   0  0  0  0  0  0  0  0  0  0  0  0
   10.4514  -17.4457   26.7569 O   0  0  0  0  0  0  0  0  0  0  0  0
    6.5791  -13.7899   25.2832 C   0  0  0  0  0  0  0  0  0  0  0  0
    6.0373  -12.5580   25.5538 C   0  0  0  0  0  0  0  0  0  0  0  0
   10.8242  -17.3781   24.5454 O   0  0  0  0  0  0  0  0  0  0  0  0
  2  1  1  6
  3  2  1  0
  4  2  1  0
  4  6  1  0
  4  5  1  1
  6  7  2  0
  8  9  1  0
  8  6  1  0
  9 10  1  0
 10 19  1  0
 10 11  2  0
 12 13  1  0
 13 23  2  0
 14 13  1  0
 14 15  2  0
 15 16  1  0
 16 22  2  0
 16 17  1  0
 18 17  1  6
 19 18  1  0
 20 18  1  0
 20 21  1  0
 23 22  1  0
 24 20  2  0
M  END
$$$$
