TGY.pdb
     RDKit          3D

 24 24  0  0  1  0  0  0  0  0999 V2000
    7.4465  -13.8669   20.2784 C   0  0  0  0  0  0  0  0  0  0  0  0
    6.9673  -14.9719   21.2181 C   0  0  1  0  0  0  0  0  0  0  0  0
    5.7442  -15.4825   20.7904 O   0  0  0  0  0  0  0  0  0  0  0  0
    8.0252  -16.0617   21.1666 C   0  0  2  0  0  0  0  0  0  0  0  0
    7.5083  -17.2114   21.8626 N   0  0  0  0  0  0  0  0  0  0  0  0
    9.3200  -15.6161   21.7148 C   0  0  0  0  0  0  0  0  0  0  0  0
   10.0396  -14.8455   21.0417 O   0  0  0  0  0  0  0  0  0  0  0  0
    9.7267  -16.0631   22.9847 N   0  0  0  0  0  0  0  0  0  0  0  0
   10.9550  -15.6017   23.5573 C   0  0  0  0  0  0  0  0  0  0  0  0
   11.0390  -16.1393   24.9631 C   0  0  0  0  0  0  0  0  0  0  0  0
   11.2977  -17.3521   25.1635 O   0  0  0  0  0  0  0  0  0  0  0  0
    6.3911  -11.0637   26.1146 O   0  0  0  0  0  0  0  0  0  0  0  0
    6.9718  -12.3060   26.3440 C   0  0  0  0  0  0  0  0  0  0  0  0
    6.6995  -13.4054   25.5572 C   0  0  0  0  0  0  0  0  0  0  0  0
    7.2638  -14.6414   25.7686 C   0  0  0  0  0  0  0  0  0  0  0  0
    8.1462  -14.8289   26.8046 C   0  0  0  0  0  0  0  0  0  0  0  0
    8.7922  -16.1009   27.1204 C   0  0  0  0  0  0  0  0  0  0  0  0
   10.2767  -15.8994   27.3068 C   0  0  2  0  0  0  0  0  0  0  0  0
   10.8311  -15.3021   26.0814 N   0  0  0  0  0  0  0  0  0  0  0  0
   10.9132  -17.2009   27.5732 C   0  0  0  0  0  0  0  0  0  0  0  0
   11.3578  -18.1023   26.6485 O   0  0  0  0  0  0  0  0  0  0  0  0
    8.4405  -13.7325   27.6177 C   0  0  0  0  0  0  0  0  0  0  0  0
    7.8594  -12.5120   27.3785 C   0  0  0  0  0  0  0  0  0  0  0  0
   11.0712  -17.5388   28.8012 O   0  0  0  0  0  0  0  0  0  0  0  0
  2  1  1  6
  3  2  1  0
  4  2  1  0
  4  6  1  0
  4  5  1  1
  6  7  2  0
  8  9  1  0
  8  6  1  0
  9 10  1  0
 10 19  1  0
 10 11  2  0
 12 13  1  0
 13 23  2  0
 14 13  1  0
 14 15  2  0
 15 16  1  0
 16 22  2  0
 16 17  1  0
 18 17  1  6
 19 18  1  0
 20 18  1  0
 20 21  1  0
 23 22  1  0
 24 20  2  0
M  END
$$$$
