TGY.pdb
     RDKit          3D

 24 24  0  0  1  0  0  0  0  0999 V2000
    8.9830  -12.6070   20.2606 C   0  0  0  0  0  0  0  0  0  0  0  0
    8.2611  -12.9084   18.9483 C   0  0  1  0  0  0  0  0  0  0  0  0
    8.7638  -12.1157   17.9195 O   0  0  0  0  0  0  0  0  0  0  0  0
    8.5262  -14.3735   18.6444 C   0  0  2  0  0  0  0  0  0  0  0  0
    7.9985  -14.6548   17.3346 N   0  0  0  0  0  0  0  0  0  0  0  0
    7.9685  -15.2719   19.6727 C   0  0  0  0  0  0  0  0  0  0  0  0
    6.9504  -15.9495   19.4098 O   0  0  0  0  0  0  0  0  0  0  0  0
    8.5882  -15.3539   20.9326 N   0  0  0  0  0  0  0  0  0  0  0  0
    8.1304  -16.2983   21.9063 C   0  0  0  0  0  0  0  0  0  0  0  0
    8.9259  -16.0816   23.1683 C   0  0  0  0  0  0  0  0  0  0  0  0
   10.1161  -15.6846   23.1070 O   0  0  0  0  0  0  0  0  0  0  0  0
    6.0087  -10.7403   26.2825 O   0  0  0  0  0  0  0  0  0  0  0  0
    6.5638  -12.0086   26.4110 C   0  0  0  0  0  0  0  0  0  0  0  0
    5.8015  -13.1568   26.3637 C   0  0  0  0  0  0  0  0  0  0  0  0
    6.3324  -14.4191   26.4887 C   0  0  0  0  0  0  0  0  0  0  0  0
    7.6840  -14.5841   26.6712 C   0  0  0  0  0  0  0  0  0  0  0  0
    8.3456  -15.8779   26.8244 C   0  0  0  0  0  0  0  0  0  0  0  0
    9.2184  -16.1621   25.6258 C   0  0  2  0  0  0  0  0  0  0  0  0
    8.3598  -16.3168   24.4407 N   0  0  0  0  0  0  0  0  0  0  0  0
    9.9846  -17.3971   25.8656 C   0  0  0  0  0  0  0  0  0  0  0  0
   11.0709  -17.5446   26.6801 O   0  0  0  0  0  0  0  0  0  0  0  0
    8.4802  -13.4382   26.7228 C   0  0  0  0  0  0  0  0  0  0  0  0
    7.9176  -12.1927   26.5943 C   0  0  0  0  0  0  0  0  0  0  0  0
    9.6038  -18.4557   25.2479 O   0  0  0  0  0  0  0  0  0  0  0  0
  2  1  1  1
  3  2  1  0
  4  2  1  0
  4  6  1  0
  4  5  1  6
  6  7  2  0
  8  9  1  0
  8  6  1  0
  9 10  1  0
 10 19  1  0
 10 11  2  0
 12 13  1  0
 13 23  2  0
 14 13  1  0
 14 15  2  0
 15 16  1  0
 16 22  2  0
 16 17  1  0
 18 17  1  1
 19 18  1  0
 20 18  1  0
 20 21  1  0
 23 22  1  0
 24 20  2  0
M  END
$$$$
