TGY.pdb
     RDKit          3D

 24 24  0  0  1  0  0  0  0  0999 V2000
    7.5826  -18.9331   21.3467 C   0  0  0  0  0  0  0  0  0  0  0  0
    6.3552  -19.7215   21.8003 C   0  0  1  0  0  0  0  0  0  0  0  0
    6.4566  -21.0541   21.4084 O   0  0  0  0  0  0  0  0  0  0  0  0
    6.3299  -19.6326   23.3171 C   0  0  2  0  0  0  0  0  0  0  0  0
    5.3857  -20.6064   23.8003 N   0  0  0  0  0  0  0  0  0  0  0  0
    6.0197  -18.2725   23.7964 C   0  0  0  0  0  0  0  0  0  0  0  0
    4.8259  -17.9076   23.8791 O   0  0  0  0  0  0  0  0  0  0  0  0
    7.0686  -17.4064   24.1531 N   0  0  0  0  0  0  0  0  0  0  0  0
    6.7886  -16.0894   24.6397 C   0  0  0  0  0  0  0  0  0  0  0  0
    8.1016  -15.4415   24.9982 C   0  0  0  0  0  0  0  0  0  0  0  0
    8.1335  -14.2481   25.3892 O   0  0  0  0  0  0  0  0  0  0  0  0
    9.6083  -15.4376   30.9606 O   0  0  0  0  0  0  0  0  0  0  0  0
   10.0965  -15.5108   29.6607 C   0  0  0  0  0  0  0  0  0  0  0  0
   10.2572  -14.3939   28.8679 C   0  0  0  0  0  0  0  0  0  0  0  0
   10.7382  -14.4466   27.5808 C   0  0  0  0  0  0  0  0  0  0  0  0
   11.0860  -15.6530   27.0232 C   0  0  0  0  0  0  0  0  0  0  0  0
   11.5965  -15.8190   25.6641 C   0  0  0  0  0  0  0  0  0  0  0  0
   10.5540  -15.3902   24.6599 C   0  0  2  0  0  0  0  0  0  0  0  0
    9.3188  -16.1517   24.9049 N   0  0  0  0  0  0  0  0  0  0  0  0
   11.0541  -15.6530   23.2994 C   0  0  0  0  0  0  0  0  0  0  0  0
   10.5508  -16.5470   22.3979 O   0  0  0  0  0  0  0  0  0  0  0  0
   10.9337  -16.8008   27.8036 C   0  0  0  0  0  0  0  0  0  0  0  0
   10.4506  -16.7125   29.0854 C   0  0  0  0  0  0  0  0  0  0  0  0
   12.0730  -14.9790   22.9060 O   0  0  0  0  0  0  0  0  0  0  0  0
  2  1  1  1
  3  2  1  0
  4  2  1  0
  4  6  1  0
  4  5  1  6
  6  7  2  0
  8  9  1  0
  8  6  1  0
  9 10  1  0
 10 19  1  0
 10 11  2  0
 12 13  1  0
 13 23  2  0
 14 13  1  0
 14 15  2  0
 15 16  1  0
 16 22  2  0
 16 17  1  0
 18 17  1  1
 19 18  1  0
 20 18  1  0
 20 21  1  0
 23 22  1  0
 24 20  2  0
M  END
$$$$
