WWD.pdb
     RDKit          3D

 37 40  0  0  1  0  0  0  0  0999 V2000
   28.6969  -20.6108  -16.0558 N   0  0  0  0  0  0  0  0  0  0  0  0
   27.7560  -20.2902  -15.0427 C   0  0  1  0  0  0  0  0  0  0  0  0
   26.3964  -19.8809  -15.6233 C   0  0  0  0  0  0  0  0  0  0  0  0
   26.4991  -18.6520  -16.4464 C   0  0  0  0  0  0  0  0  0  0  0  0
   26.4252  -18.5083  -17.8241 C   0  0  0  0  0  0  0  0  0  0  0  0
   26.5530  -17.2121  -18.1566 N   0  0  0  0  0  0  0  0  0  0  0  0
   26.7125  -16.4620  -17.0436 C   0  0  0  0  0  0  0  0  0  0  0  0
   26.8903  -15.1104  -16.8196 C   0  0  0  0  0  0  0  0  0  0  0  0
   27.0406  -14.5866  -15.5588 C   0  0  0  0  0  0  0  0  0  0  0  0
   27.0085  -15.4656  -14.5077 C   0  0  0  0  0  0  0  0  0  0  0  0
   26.8302  -16.8284  -14.7158 C   0  0  0  0  0  0  0  0  0  0  0  0
   26.6808  -17.3471  -15.9713 C   0  0  0  0  0  0  0  0  0  0  0  0
   27.5328  -21.3913  -14.0366 C   0  0  0  0  0  0  0  0  0  0  0  0
   27.6462  -22.5704  -14.4905 O   0  0  0  0  0  0  0  0  0  0  0  0
   27.2237  -21.2036  -12.6912 N   0  0  0  0  0  0  0  0  0  0  0  0
   26.3954  -21.9693  -11.8235 C   0  0  1  0  0  0  0  0  0  0  0  0
   26.9573  -22.2110  -10.5103 C   0  0  0  0  0  0  0  0  0  0  0  0
   26.7387  -21.0959   -9.5571 C   0  0  0  0  0  0  0  0  0  0  0  0
   25.5913  -20.2928   -9.4734 C   0  0  0  0  0  0  0  0  0  0  0  0
   25.7351  -19.4072   -8.4820 N   0  0  0  0  0  0  0  0  0  0  0  0
   26.9459  -19.5653   -7.8736 C   0  0  0  0  0  0  0  0  0  0  0  0
   27.5661  -18.9093   -6.8364 C   0  0  0  0  0  0  0  0  0  0  0  0
   28.8182  -19.2593   -6.4182 C   0  0  0  0  0  0  0  0  0  0  0  0
   29.4356  -20.3229   -7.1065 C   0  0  0  0  0  0  0  0  0  0  0  0
   28.8071  -20.9701   -8.1381 C   0  0  0  0  0  0  0  0  0  0  0  0
   27.5526  -20.6145   -8.5512 C   0  0  0  0  0  0  0  0  0  0  0  0
   24.9512  -21.6685  -11.9043 C   0  0  0  0  0  0  0  0  0  0  0  0
   24.1489  -22.3556  -11.2451 O   0  0  0  0  0  0  0  0  0  0  0  0
   24.3957  -20.6416  -12.6903 N   0  0  0  0  0  0  0  0  0  0  0  0
   22.9641  -20.3827  -12.6331 C   0  0  1  0  0  0  0  0  0  0  0  0
   22.5833  -19.1537  -13.4028 C   0  0  0  0  0  0  0  0  0  0  0  0
   21.1356  -18.8487  -13.3781 C   0  0  0  0  0  0  0  0  0  0  0  0
   20.3621  -19.3969  -12.5736 O   0  0  0  0  0  0  0  0  0  0  0  0
   22.3587  -21.5448  -13.4009 C   0  0  0  0  0  0  0  0  0  0  0  0
   22.8784  -21.9129  -14.6288 O   0  0  0  0  0  0  0  0  0  0  0  0
   20.6290  -17.9142  -14.2928 O   0  0  0  0  0  0  0  0  0  0  0  0
   21.3902  -22.2114  -12.9816 O   0  0  0  0  0  0  0  0  0  0  0  0
  2  1  1  6
  3  2  1  0
  3  4  1  0
  4  5  2  0
  5  6  1  0
  7  6  1  0
  8  7  2  0
  9  8  1  0
 10 11  1  0
 10  9  2  0
 11 12  2  0
 12  4  1  0
 12  7  1  0
 13  2  1  0
 13 14  2  0
 15 13  1  0
 16 17  1  1
 16 15  1  0
 18 26  1  0
 18 17  1  0
 19 18  2  0
 20 19  1  0
 20 21  1  0
 21 22  1  0
 21 26  2  0
 22 23  2  0
 23 24  1  0
 25 24  2  0
 26 25  1  0
 27 16  1  0
 28 27  2  0
 29 27  1  0
 30 29  1  0
 30 31  1  6
 32 31  1  0
 33 32  2  0
 34 30  1  0
 34 35  1  0
 36 32  1  0
 37 34  2  0
M  END
$$$$
