WWD.pdb
     RDKit          3D

 37 40  0  0  1  0  0  0  0  0999 V2000
   28.9830  -19.1939  -14.0468 N   0  0  0  0  0  0  0  0  0  0  0  0
   27.5723  -19.0788  -13.9415 C   0  0  1  0  0  0  0  0  0  0  0  0
   26.9101  -18.8084  -15.2986 C   0  0  0  0  0  0  0  0  0  0  0  0
   27.1234  -17.4103  -15.7440 C   0  0  0  0  0  0  0  0  0  0  0  0
   28.1988  -16.8596  -16.4253 C   0  0  0  0  0  0  0  0  0  0  0  0
   27.9792  -15.5520  -16.6467 N   0  0  0  0  0  0  0  0  0  0  0  0
   26.7814  -15.1905  -16.1355 C   0  0  0  0  0  0  0  0  0  0  0  0
   26.0867  -13.9976  -16.0805 C   0  0  0  0  0  0  0  0  0  0  0  0
   24.8560  -13.8894  -15.4802 C   0  0  0  0  0  0  0  0  0  0  0  0
   24.3279  -15.0259  -14.9253 C   0  0  0  0  0  0  0  0  0  0  0  0
   25.0137  -16.2341  -14.9723 C   0  0  0  0  0  0  0  0  0  0  0  0
   26.2380  -16.3392  -15.5702 C   0  0  0  0  0  0  0  0  0  0  0  0
   26.9006  -20.2740  -13.3130 C   0  0  0  0  0  0  0  0  0  0  0  0
   27.2386  -21.3988  -13.7920 O   0  0  0  0  0  0  0  0  0  0  0  0
   25.9693  -20.2237  -12.2780 N   0  0  0  0  0  0  0  0  0  0  0  0
   25.0851  -21.2255  -11.7885 C   0  0  1  0  0  0  0  0  0  0  0  0
   25.0621  -21.3580  -10.3461 C   0  0  0  0  0  0  0  0  0  0  0  0
   26.2216  -20.7231   -9.6734 C   0  0  0  0  0  0  0  0  0  0  0  0
   26.1852  -19.5667   -8.8797 C   0  0  0  0  0  0  0  0  0  0  0  0
   27.4113  -19.3019   -8.4167 N   0  0  0  0  0  0  0  0  0  0  0  0
   28.3012  -20.2345   -8.8636 C   0  0  0  0  0  0  0  0  0  0  0  0
   29.6553  -20.3973   -8.6879 C   0  0  0  0  0  0  0  0  0  0  0  0
   30.3309  -21.4311   -9.2709 C   0  0  0  0  0  0  0  0  0  0  0  0
   29.5671  -22.3150  -10.0594 C   0  0  0  0  0  0  0  0  0  0  0  0
   28.2178  -22.1432  -10.2263 C   0  0  0  0  0  0  0  0  0  0  0  0
   27.5475  -21.1057   -9.6387 C   0  0  0  0  0  0  0  0  0  0  0  0
   23.7979  -21.3340  -12.5056 C   0  0  0  0  0  0  0  0  0  0  0  0
   23.1883  -20.2954  -12.8217 O   0  0  0  0  0  0  0  0  0  0  0  0
   23.1891  -22.5504  -12.8667 N   0  0  0  0  0  0  0  0  0  0  0  0
   21.8977  -22.5398  -13.5391 C   0  0  1  0  0  0  0  0  0  0  0  0
   21.5182  -23.8972  -14.0502 C   0  0  0  0  0  0  0  0  0  0  0  0
   21.3015  -23.9543  -15.5128 C   0  0  0  0  0  0  0  0  0  0  0  0
   21.3513  -22.9360  -16.2248 O   0  0  0  0  0  0  0  0  0  0  0  0
   20.9142  -22.2385  -12.4218 C   0  0  0  0  0  0  0  0  0  0  0  0
   21.3567  -22.1341  -11.1153 O   0  0  0  0  0  0  0  0  0  0  0  0
   21.0311  -25.1962  -16.1052 O   0  0  0  0  0  0  0  0  0  0  0  0
   19.6917  -22.0735  -12.6124 O   0  0  0  0  0  0  0  0  0  0  0  0
  2  1  1  6
  3  2  1  0
  3  4  1  0
  4  5  2  0
  5  6  1  0
  7  6  1  0
  8  7  2  0
  9  8  1  0
 10 11  1  0
 10  9  2  0
 11 12  2  0
 12  4  1  0
 12  7  1  0
 13  2  1  0
 13 14  2  0
 15 13  1  0
 16 17  1  1
 16 15  1  0
 18 26  1  0
 18 17  1  0
 19 18  2  0
 20 19  1  0
 20 21  1  0
 21 22  1  0
 21 26  2  0
 22 23  2  0
 23 24  1  0
 25 24  2  0
 26 25  1  0
 27 16  1  0
 28 27  2  0
 29 27  1  0
 30 29  1  0
 30 31  1  1
 32 31  1  0
 33 32  2  0
 34 30  1  0
 34 35  1  0
 36 32  1  0
 37 34  2  0
M  END
$$$$
