WWD.pdb
     RDKit          3D

 37 40  0  0  1  0  0  0  0  0999 V2000
   24.1969  -19.7060  -15.3520 N   0  0  0  0  0  0  0  0  0  0  0  0
   23.9996  -21.1097  -15.2799 C   0  0  1  0  0  0  0  0  0  0  0  0
   24.9163  -21.7711  -14.2429 C   0  0  0  0  0  0  0  0  0  0  0  0
   26.3446  -21.6631  -14.6256 C   0  0  0  0  0  0  0  0  0  0  0  0
   27.2635  -20.6699  -14.3202 C   0  0  0  0  0  0  0  0  0  0  0  0
   28.4590  -20.9722  -14.8553 N   0  0  0  0  0  0  0  0  0  0  0  0
   28.3853  -22.1468  -15.5199 C   0  0  0  0  0  0  0  0  0  0  0  0
   29.2958  -22.8963  -16.2395 C   0  0  0  0  0  0  0  0  0  0  0  0
   28.9593  -24.0841  -16.8416 C   0  0  0  0  0  0  0  0  0  0  0  0
   27.6643  -24.5112  -16.7037 C   0  0  0  0  0  0  0  0  0  0  0  0
   26.7359  -23.7691  -15.9827 C   0  0  0  0  0  0  0  0  0  0  0  0
   27.0732  -22.5877  -15.3845 C   0  0  0  0  0  0  0  0  0  0  0  0
   22.5774  -21.5190  -14.9891 C   0  0  0  0  0  0  0  0  0  0  0  0
   22.0296  -20.9184  -14.0153 O   0  0  0  0  0  0  0  0  0  0  0  0
   21.8536  -22.4769  -15.6958 N   0  0  0  0  0  0  0  0  0  0  0  0
   20.5073  -22.9108  -15.5396 C   0  0  1  0  0  0  0  0  0  0  0  0
   19.8268  -23.2257  -16.7791 C   0  0  0  0  0  0  0  0  0  0  0  0
   18.4063  -23.6109  -16.5947 C   0  0  0  0  0  0  0  0  0  0  0  0
   17.9150  -24.9184  -16.4617 C   0  0  0  0  0  0  0  0  0  0  0  0
   16.5901  -24.8838  -16.2857 N   0  0  0  0  0  0  0  0  0  0  0  0
   16.1416  -23.5953  -16.2939 C   0  0  0  0  0  0  0  0  0  0  0  0
   14.8907  -23.0377  -16.1709 C   0  0  0  0  0  0  0  0  0  0  0  0
   14.7031  -21.6864  -16.2314 C   0  0  0  0  0  0  0  0  0  0  0  0
   15.8565  -20.9005  -16.4276 C   0  0  0  0  0  0  0  0  0  0  0  0
   17.0984  -21.4674  -16.5478 C   0  0  0  0  0  0  0  0  0  0  0  0
   17.2788  -22.8219  -16.4855 C   0  0  0  0  0  0  0  0  0  0  0  0
   20.2610  -23.7939  -14.3811 C   0  0  0  0  0  0  0  0  0  0  0  0
   21.0798  -24.6941  -14.1175 O   0  0  0  0  0  0  0  0  0  0  0  0
   19.1433  -23.6974  -13.5312 N   0  0  0  0  0  0  0  0  0  0  0  0
   19.0198  -24.5999  -12.3955 C   0  0  1  0  0  0  0  0  0  0  0  0
   18.7697  -23.8618  -11.1146 C   0  0  0  0  0  0  0  0  0  0  0  0
   18.5216  -24.7391   -9.9492 C   0  0  0  0  0  0  0  0  0  0  0  0
   19.2103  -25.7509   -9.7299 O   0  0  0  0  0  0  0  0  0  0  0  0
   17.7372  -25.3615  -12.6807 C   0  0  0  0  0  0  0  0  0  0  0  0
   17.7054  -26.7393  -12.5613 O   0  0  0  0  0  0  0  0  0  0  0  0
   17.4768  -24.4139   -9.0722 O   0  0  0  0  0  0  0  0  0  0  0  0
   16.6744  -24.8062  -13.0274 O   0  0  0  0  0  0  0  0  0  0  0  0
  2  1  1  1
  3  2  1  0
  3  4  1  0
  4  5  2  0
  5  6  1  0
  7  6  1  0
  8  7  2  0
  9  8  1  0
 10 11  1  0
 10  9  2  0
 11 12  2  0
 12  4  1  0
 12  7  1  0
 13  2  1  0
 13 14  2  0
 15 13  1  0
 16 17  1  6
 16 15  1  0
 18 26  1  0
 18 17  1  0
 19 18  2  0
 20 19  1  0
 20 21  1  0
 21 22  1  0
 21 26  2  0
 22 23  2  0
 23 24  1  0
 25 24  2  0
 26 25  1  0
 27 16  1  0
 28 27  2  0
 29 27  1  0
 30 29  1  0
 30 31  1  1
 32 31  1  0
 33 32  2  0
 34 30  1  0
 34 35  1  0
 36 32  1  0
 37 34  2  0
M  END
$$$$
