WWD.pdb
     RDKit          3D

 37 40  0  0  1  0  0  0  0  0999 V2000
   28.8592  -20.8265  -15.0333 N   0  0  0  0  0  0  0  0  0  0  0  0
   27.9613  -20.2694  -14.0858 C   0  0  1  0  0  0  0  0  0  0  0  0
   26.7376  -19.6294  -14.7538 C   0  0  0  0  0  0  0  0  0  0  0  0
   27.1299  -18.5905  -15.7362 C   0  0  0  0  0  0  0  0  0  0  0  0
   27.4324  -18.7245  -17.0833 C   0  0  0  0  0  0  0  0  0  0  0  0
   27.7230  -17.5219  -17.6089 N   0  0  0  0  0  0  0  0  0  0  0  0
   27.6278  -16.5658  -16.6583 C   0  0  0  0  0  0  0  0  0  0  0  0
   27.8226  -15.1980  -16.6560 C   0  0  0  0  0  0  0  0  0  0  0  0
   27.6656  -14.4340  -15.5254 C   0  0  0  0  0  0  0  0  0  0  0  0
   27.3024  -15.0849  -14.3752 C   0  0  0  0  0  0  0  0  0  0  0  0
   27.1022  -16.4605  -14.3606 C   0  0  0  0  0  0  0  0  0  0  0  0
   27.2590  -17.2184  -15.4869 C   0  0  0  0  0  0  0  0  0  0  0  0
   27.4787  -21.2471  -13.0436 C   0  0  0  0  0  0  0  0  0  0  0  0
   26.8697  -22.2637  -13.4960 O   0  0  0  0  0  0  0  0  0  0  0  0
   27.6541  -21.1113  -11.6683 N   0  0  0  0  0  0  0  0  0  0  0  0
   26.8123  -21.5076  -10.5914 C   0  0  1  0  0  0  0  0  0  0  0  0
   27.5084  -21.7850   -9.3516 C   0  0  0  0  0  0  0  0  0  0  0  0
   27.3154  -20.7405   -8.3163 C   0  0  0  0  0  0  0  0  0  0  0  0
   26.3773  -19.6980   -8.3587 C   0  0  0  0  0  0  0  0  0  0  0  0
   26.4705  -18.9653   -7.2442 N   0  0  0  0  0  0  0  0  0  0  0  0
   27.4442  -19.4616   -6.4275 C   0  0  0  0  0  0  0  0  0  0  0  0
   27.9302  -19.0685   -5.2027 C   0  0  0  0  0  0  0  0  0  0  0  0
   28.9467  -19.7431   -4.5889 C   0  0  0  0  0  0  0  0  0  0  0  0
   29.4674  -20.8568   -5.2780 C   0  0  0  0  0  0  0  0  0  0  0  0
   28.9741  -21.2398   -6.4979 C   0  0  0  0  0  0  0  0  0  0  0  0
   27.9553  -20.5597   -7.1065 C   0  0  0  0  0  0  0  0  0  0  0  0
   25.5216  -20.7938  -10.5058 C   0  0  0  0  0  0  0  0  0  0  0  0
   25.5178  -19.5513  -10.4240 O   0  0  0  0  0  0  0  0  0  0  0  0
   24.2631  -21.4238  -10.5066 N   0  0  0  0  0  0  0  0  0  0  0  0
   23.0853  -20.6834  -10.9361 C   0  0  1  0  0  0  0  0  0  0  0  0
   23.0114  -20.5600  -12.4285 C   0  0  0  0  0  0  0  0  0  0  0  0
   21.7989  -19.8683  -12.9191 C   0  0  0  0  0  0  0  0  0  0  0  0
   20.9465  -19.4049  -12.1414 O   0  0  0  0  0  0  0  0  0  0  0  0
   21.9306  -21.5900  -10.5474 C   0  0  0  0  0  0  0  0  0  0  0  0
   21.7342  -22.7886  -11.2094 O   0  0  0  0  0  0  0  0  0  0  0  0
   21.6122  -19.7372  -14.3027 O   0  0  0  0  0  0  0  0  0  0  0  0
   21.1202  -21.3143   -9.6388 O   0  0  0  0  0  0  0  0  0  0  0  0
  2  1  1  6
  3  2  1  0
  3  4  1  0
  4  5  2  0
  5  6  1  0
  7  6  1  0
  8  7  2  0
  9  8  1  0
 10 11  1  0
 10  9  2  0
 11 12  2  0
 12  4  1  0
 12  7  1  0
 13  2  1  0
 13 14  2  0
 15 13  1  0
 16 17  1  1
 16 15  1  0
 18 26  1  0
 18 17  1  0
 19 18  2  0
 20 19  1  0
 20 21  1  0
 21 22  1  0
 21 26  2  0
 22 23  2  0
 23 24  1  0
 25 24  2  0
 26 25  1  0
 27 16  1  0
 28 27  2  0
 29 27  1  0
 30 29  1  0
 30 31  1  6
 32 31  1  0
 33 32  2  0
 34 30  1  0
 34 35  1  0
 36 32  1  0
 37 34  2  0
M  END
$$$$
