WWD.pdb
     RDKit          3D

 37 40  0  0  1  0  0  0  0  0999 V2000
   27.9621  -19.1040  -13.6167 N   0  0  0  0  0  0  0  0  0  0  0  0
   26.7671  -19.3746  -12.9005 C   0  0  1  0  0  0  0  0  0  0  0  0
   25.6824  -19.9892  -13.7943 C   0  0  0  0  0  0  0  0  0  0  0  0
   25.3017  -19.0777  -14.9000 C   0  0  0  0  0  0  0  0  0  0  0  0
   25.8742  -18.9315  -16.1550 C   0  0  0  0  0  0  0  0  0  0  0  0
   25.2065  -17.9995  -16.8569 N   0  0  0  0  0  0  0  0  0  0  0  0
   24.1906  -17.5021  -16.1171 C   0  0  0  0  0  0  0  0  0  0  0  0
   23.2228  -16.5431  -16.3453 C   0  0  0  0  0  0  0  0  0  0  0  0
   22.2837  -16.2055  -15.4014 C   0  0  0  0  0  0  0  0  0  0  0  0
   22.3386  -16.8637  -14.2004 C   0  0  0  0  0  0  0  0  0  0  0  0
   23.3058  -17.8314  -13.9548 C   0  0  0  0  0  0  0  0  0  0  0  0
   24.2389  -18.1655  -14.8957 C   0  0  0  0  0  0  0  0  0  0  0  0
   26.9561  -20.2662  -11.6987 C   0  0  0  0  0  0  0  0  0  0  0  0
   27.8234  -21.1817  -11.8350 O   0  0  0  0  0  0  0  0  0  0  0  0
   26.2666  -20.1516  -10.4936 N   0  0  0  0  0  0  0  0  0  0  0  0
   25.6549  -21.1516   -9.6867 C   0  0  1  0  0  0  0  0  0  0  0  0
   25.5578  -20.8169   -8.2806 C   0  0  0  0  0  0  0  0  0  0  0  0
   26.6455  -19.9271   -7.8061 C   0  0  0  0  0  0  0  0  0  0  0  0
   27.1801  -18.8319   -8.5013 C   0  0  0  0  0  0  0  0  0  0  0  0
   28.1258  -18.2474   -7.7584 N   0  0  0  0  0  0  0  0  0  0  0  0
   28.2693  -18.9008   -6.5693 C   0  0  0  0  0  0  0  0  0  0  0  0
   29.0985  -18.7093   -5.4892 C   0  0  0  0  0  0  0  0  0  0  0  0
   29.0543  -19.5337   -4.4012 C   0  0  0  0  0  0  0  0  0  0  0  0
   28.1181  -20.5861   -4.4485 C   0  0  0  0  0  0  0  0  0  0  0  0
   27.2961  -20.7664   -5.5302 C   0  0  0  0  0  0  0  0  0  0  0  0
   27.3454  -19.9362   -6.6162 C   0  0  0  0  0  0  0  0  0  0  0  0
   24.5056  -21.8437  -10.3056 C   0  0  0  0  0  0  0  0  0  0  0  0
   23.9837  -22.8061   -9.7125 O   0  0  0  0  0  0  0  0  0  0  0  0
   23.9409  -21.4937  -11.5464 N   0  0  0  0  0  0  0  0  0  0  0  0
   22.8152  -22.2555  -12.0679 C   0  0  1  0  0  0  0  0  0  0  0  0
   22.0051  -21.4623  -13.0489 C   0  0  0  0  0  0  0  0  0  0  0  0
   21.1362  -20.4381  -12.4280 C   0  0  0  0  0  0  0  0  0  0  0  0
   21.0328  -20.3244  -11.1941 O   0  0  0  0  0  0  0  0  0  0  0  0
   23.4734  -23.3554  -12.8825 C   0  0  0  0  0  0  0  0  0  0  0  0
   24.8290  -23.3038  -13.1533 O   0  0  0  0  0  0  0  0  0  0  0  0
   20.4106  -19.5756  -13.2623 O   0  0  0  0  0  0  0  0  0  0  0  0
   22.8496  -24.3357  -13.3385 O   0  0  0  0  0  0  0  0  0  0  0  0
  2  1  1  6
  3  2  1  0
  3  4  1  0
  4  5  2  0
  5  6  1  0
  7  6  1  0
  8  7  2  0
  9  8  1  0
 10 11  1  0
 10  9  2  0
 11 12  2  0
 12  4  1  0
 12  7  1  0
 13  2  1  0
 13 14  2  0
 15 13  1  0
 16 17  1  1
 16 15  1  0
 18 26  1  0
 18 17  1  0
 19 18  2  0
 20 19  1  0
 20 21  1  0
 21 22  1  0
 21 26  2  0
 22 23  2  0
 23 24  1  0
 25 24  2  0
 26 25  1  0
 27 16  1  0
 28 27  2  0
 29 27  1  0
 30 29  1  0
 30 31  1  6
 32 31  1  0
 33 32  2  0
 34 30  1  0
 34 35  1  0
 36 32  1  0
 37 34  2  0
M  END
$$$$
