WWD.pdb
     RDKit          3D

 37 40  0  0  1  0  0  0  0  0999 V2000
   26.1077  -21.9695   -8.6030 N   0  0  0  0  0  0  0  0  0  0  0  0
   26.2813  -20.6135   -8.9845 C   0  0  1  0  0  0  0  0  0  0  0  0
   27.7609  -20.2125   -9.0413 C   0  0  0  0  0  0  0  0  0  0  0  0
   28.4892  -20.6287   -7.8186 C   0  0  0  0  0  0  0  0  0  0  0  0
   29.4402  -21.6257   -7.6589 C   0  0  0  0  0  0  0  0  0  0  0  0
   29.8586  -21.6587   -6.3818 N   0  0  0  0  0  0  0  0  0  0  0  0
   29.2200  -20.7106   -5.6606 C   0  0  0  0  0  0  0  0  0  0  0  0
   29.2660  -20.3264   -4.3344 C   0  0  0  0  0  0  0  0  0  0  0  0
   28.4884  -19.3102   -3.8350 C   0  0  0  0  0  0  0  0  0  0  0  0
   27.6473  -18.6763   -4.7120 C   0  0  0  0  0  0  0  0  0  0  0  0
   27.5892  -19.0505   -6.0496 C   0  0  0  0  0  0  0  0  0  0  0  0
   28.3640  -20.0618   -6.5441 C   0  0  0  0  0  0  0  0  0  0  0  0
   25.6395  -20.2558  -10.3016 C   0  0  0  0  0  0  0  0  0  0  0  0
   25.8194  -19.0598  -10.6842 O   0  0  0  0  0  0  0  0  0  0  0  0
   24.8917  -21.1224  -11.0957 N   0  0  0  0  0  0  0  0  0  0  0  0
   24.2222  -20.8904  -12.3299 C   0  0  1  0  0  0  0  0  0  0  0  0
   24.8627  -21.4849  -13.4853 C   0  0  0  0  0  0  0  0  0  0  0  0
   26.2132  -20.9376  -13.7621 C   0  0  0  0  0  0  0  0  0  0  0  0
   27.4339  -21.5808  -13.5077 C   0  0  0  0  0  0  0  0  0  0  0  0
   28.4436  -20.8013  -13.9085 N   0  0  0  0  0  0  0  0  0  0  0  0
   27.9666  -19.6351  -14.4318 C   0  0  0  0  0  0  0  0  0  0  0  0
   28.5818  -18.5224  -14.9556 C   0  0  0  0  0  0  0  0  0  0  0  0
   27.8600  -17.4551  -15.4084 C   0  0  0  0  0  0  0  0  0  0  0  0
   26.4579  -17.5571  -15.3076 C   0  0  0  0  0  0  0  0  0  0  0  0
   25.8560  -18.6717  -14.7847 C   0  0  0  0  0  0  0  0  0  0  0  0
   26.5854  -19.7373  -14.3336 C   0  0  0  0  0  0  0  0  0  0  0  0
   22.7471  -20.9403  -12.2649 C   0  0  0  0  0  0  0  0  0  0  0  0
   22.1972  -21.8485  -11.6144 O   0  0  0  0  0  0  0  0  0  0  0  0
   21.8917  -20.0198  -12.8989 N   0  0  0  0  0  0  0  0  0  0  0  0
   20.4489  -20.1848  -12.7947 C   0  0  1  0  0  0  0  0  0  0  0  0
   19.7093  -18.9519  -13.2201 C   0  0  0  0  0  0  0  0  0  0  0  0
   20.2846  -18.2803  -14.4065 C   0  0  0  0  0  0  0  0  0  0  0  0
   21.2959  -18.7172  -14.9831 O   0  0  0  0  0  0  0  0  0  0  0  0
   20.1308  -21.2313  -13.8482 C   0  0  0  0  0  0  0  0  0  0  0  0
   21.1163  -21.6664  -14.7160 O   0  0  0  0  0  0  0  0  0  0  0  0
   19.6665  -17.1170  -14.8871 O   0  0  0  0  0  0  0  0  0  0  0  0
   18.9999  -21.7414  -13.9864 O   0  0  0  0  0  0  0  0  0  0  0  0
  2  1  1  6
  3  2  1  0
  3  4  1  0
  4  5  2  0
  5  6  1  0
  7  6  1  0
  8  7  2  0
  9  8  1  0
 10 11  1  0
 10  9  2  0
 11 12  2  0
 12  4  1  0
 12  7  1  0
 13  2  1  0
 13 14  2  0
 15 13  1  0
 16 17  1  6
 16 15  1  0
 18 26  1  0
 18 17  1  0
 19 18  2  0
 20 19  1  0
 20 21  1  0
 21 22  1  0
 21 26  2  0
 22 23  2  0
 23 24  1  0
 25 24  2  0
 26 25  1  0
 27 16  1  0
 28 27  2  0
 29 27  1  0
 30 29  1  0
 30 31  1  6
 32 31  1  0
 33 32  2  0
 34 30  1  0
 34 35  1  0
 36 32  1  0
 37 34  2  0
M  END
$$$$
