WWD.pdb
     RDKit          3D

 37 40  0  0  1  0  0  0  0  0999 V2000
   28.9445  -20.8472  -14.7381 N   0  0  0  0  0  0  0  0  0  0  0  0
   27.8683  -20.0628  -14.2471 C   0  0  1  0  0  0  0  0  0  0  0  0
   26.9943  -19.5057  -15.3781 C   0  0  0  0  0  0  0  0  0  0  0  0
   27.7112  -18.4766  -16.1689 C   0  0  0  0  0  0  0  0  0  0  0  0
   28.5109  -18.6304  -17.2918 C   0  0  0  0  0  0  0  0  0  0  0  0
   28.9548  -17.4309  -17.7053 N   0  0  0  0  0  0  0  0  0  0  0  0
   28.4809  -16.4575  -16.8961 C   0  0  0  0  0  0  0  0  0  0  0  0
   28.6300  -15.0844  -16.8646 C   0  0  0  0  0  0  0  0  0  0  0  0
   28.0340  -14.3010  -15.9066 C   0  0  0  0  0  0  0  0  0  0  0  0
   27.2711  -14.9378  -14.9627 C   0  0  0  0  0  0  0  0  0  0  0  0
   27.1107  -16.3185  -14.9804 C   0  0  0  0  0  0  0  0  0  0  0  0
   27.7047  -17.0957  -15.9347 C   0  0  0  0  0  0  0  0  0  0  0  0
   26.9770  -20.7826  -13.2662 C   0  0  0  0  0  0  0  0  0  0  0  0
   26.7014  -21.9840  -13.5660 O   0  0  0  0  0  0  0  0  0  0  0  0
   26.4582  -20.2340  -12.0955 N   0  0  0  0  0  0  0  0  0  0  0  0
   25.4449  -20.7212  -11.2232 C   0  0  1  0  0  0  0  0  0  0  0  0
   25.6215  -20.3602   -9.8314 C   0  0  0  0  0  0  0  0  0  0  0  0
   26.9715  -20.6747   -9.3036 C   0  0  0  0  0  0  0  0  0  0  0  0
   27.9760  -21.3881   -9.9750 C   0  0  0  0  0  0  0  0  0  0  0  0
   29.0676  -21.4566   -9.2060 N   0  0  0  0  0  0  0  0  0  0  0  0
   28.8562  -20.8164   -8.0200 C   0  0  0  0  0  0  0  0  0  0  0  0
   29.6409  -20.6206   -6.9079 C   0  0  0  0  0  0  0  0  0  0  0  0
   29.1764  -19.9418   -5.8177 C   0  0  0  0  0  0  0  0  0  0  0  0
   27.8550  -19.4579   -5.8956 C   0  0  0  0  0  0  0  0  0  0  0  0
   27.0826  -19.6582   -7.0098 C   0  0  0  0  0  0  0  0  0  0  0  0
   27.5548  -20.3385   -8.0984 C   0  0  0  0  0  0  0  0  0  0  0  0
   24.0728  -20.6851  -11.7700 C   0  0  0  0  0  0  0  0  0  0  0  0
   23.6296  -19.6167  -12.2309 O   0  0  0  0  0  0  0  0  0  0  0  0
   23.2034  -21.7911  -11.8095 N   0  0  0  0  0  0  0  0  0  0  0  0
   21.8753  -21.6451  -12.3880 C   0  0  1  0  0  0  0  0  0  0  0  0
   21.2554  -22.9704  -12.7157 C   0  0  0  0  0  0  0  0  0  0  0  0
   19.8597  -22.8826  -13.1993 C   0  0  0  0  0  0  0  0  0  0  0  0
   19.2589  -21.7968  -13.2790 O   0  0  0  0  0  0  0  0  0  0  0  0
   21.0469  -21.0822  -11.2464 C   0  0  0  0  0  0  0  0  0  0  0  0
   19.8348  -20.4674  -11.5040 O   0  0  0  0  0  0  0  0  0  0  0  0
   19.2022  -24.0627  -13.5753 O   0  0  0  0  0  0  0  0  0  0  0  0
   21.4009  -21.1403  -10.0507 O   0  0  0  0  0  0  0  0  0  0  0  0
  2  1  1  6
  3  2  1  0
  3  4  1  0
  4  5  2  0
  5  6  1  0
  7  6  1  0
  8  7  2  0
  9  8  1  0
 10 11  1  0
 10  9  2  0
 11 12  2  0
 12  4  1  0
 12  7  1  0
 13  2  1  0
 13 14  2  0
 15 13  1  0
 16 17  1  1
 16 15  1  0
 18 26  1  0
 18 17  1  0
 19 18  2  0
 20 19  1  0
 20 21  1  0
 21 22  1  0
 21 26  2  0
 22 23  2  0
 23 24  1  0
 25 24  2  0
 26 25  1  0
 27 16  1  0
 28 27  2  0
 29 27  1  0
 30 29  1  0
 30 31  1  1
 32 31  1  0
 33 32  2  0
 34 30  1  0
 34 35  1  0
 36 32  1  0
 37 34  2  0
M  END
$$$$
