WWD.pdb
     RDKit          3D

 37 40  0  0  1  0  0  0  0  0999 V2000
   27.8614  -19.3545  -10.4113 N   0  0  0  0  0  0  0  0  0  0  0  0
   26.9760  -20.4294  -10.1373 C   0  0  1  0  0  0  0  0  0  0  0  0
   26.1611  -20.1972   -8.8585 C   0  0  0  0  0  0  0  0  0  0  0  0
   26.9724  -19.5460   -7.8020 C   0  0  0  0  0  0  0  0  0  0  0  0
   27.3017  -18.2076   -7.6465 C   0  0  0  0  0  0  0  0  0  0  0  0
   28.0450  -18.0449   -6.5384 N   0  0  0  0  0  0  0  0  0  0  0  0
   28.2345  -19.2362   -5.9287 C   0  0  0  0  0  0  0  0  0  0  0  0
   28.9106  -19.6300   -4.7902 C   0  0  0  0  0  0  0  0  0  0  0  0
   28.9602  -20.9398   -4.3793 C   0  0  0  0  0  0  0  0  0  0  0  0
   28.3044  -21.8633   -5.1511 C   0  0  0  0  0  0  0  0  0  0  0  0
   27.6193  -21.4836   -6.2994 C   0  0  0  0  0  0  0  0  0  0  0  0
   27.5714  -20.1797   -6.7060 C   0  0  0  0  0  0  0  0  0  0  0  0
   26.0205  -20.7439  -11.2610 C   0  0  0  0  0  0  0  0  0  0  0  0
   25.2788  -19.7818  -11.6261 O   0  0  0  0  0  0  0  0  0  0  0  0
   25.9059  -21.9762  -11.9007 N   0  0  0  0  0  0  0  0  0  0  0  0
   25.0542  -22.3825  -12.9659 C   0  0  1  0  0  0  0  0  0  0  0  0
   25.3035  -23.7207  -13.4614 C   0  0  0  0  0  0  0  0  0  0  0  0
   24.4334  -24.1034  -14.6000 C   0  0  0  0  0  0  0  0  0  0  0  0
   24.4335  -23.5162  -15.8743 C   0  0  0  0  0  0  0  0  0  0  0  0
   23.5378  -24.1328  -16.6523 N   0  0  0  0  0  0  0  0  0  0  0  0
   22.9119  -25.1289  -15.9613 C   0  0  0  0  0  0  0  0  0  0  0  0
   21.9241  -26.0246  -16.2973 C   0  0  0  0  0  0  0  0  0  0  0  0
   21.4483  -26.9330  -15.3954 C   0  0  0  0  0  0  0  0  0  0  0  0
   22.0220  -26.8997  -14.1085 C   0  0  0  0  0  0  0  0  0  0  0  0
   23.0069  -26.0031  -13.7855 C   0  0  0  0  0  0  0  0  0  0  0  0
   23.4791  -25.0964  -14.6943 C   0  0  0  0  0  0  0  0  0  0  0  0
   23.6469  -21.9486  -12.8471 C   0  0  0  0  0  0  0  0  0  0  0  0
   23.0710  -22.0464  -11.7475 O   0  0  0  0  0  0  0  0  0  0  0  0
   22.8850  -21.4224  -13.9069 N   0  0  0  0  0  0  0  0  0  0  0  0
   21.5194  -20.9797  -13.6641 C   0  0  1  0  0  0  0  0  0  0  0  0
   21.3290  -19.5313  -14.0014 C   0  0  0  0  0  0  0  0  0  0  0  0
   19.9521  -19.0352  -13.7836 C   0  0  0  0  0  0  0  0  0  0  0  0
   19.1937  -19.5491  -12.9428 O   0  0  0  0  0  0  0  0  0  0  0  0
   20.7061  -21.7451  -14.6932 C   0  0  0  0  0  0  0  0  0  0  0  0
   19.6201  -22.5045  -14.2963 O   0  0  0  0  0  0  0  0  0  0  0  0
   19.4963  -17.9548  -14.5528 O   0  0  0  0  0  0  0  0  0  0  0  0
   20.9627  -21.7329  -15.9148 O   0  0  0  0  0  0  0  0  0  0  0  0
  2  1  1  6
  3  2  1  0
  3  4  1  0
  4  5  2  0
  5  6  1  0
  7  6  1  0
  8  7  2  0
  9  8  1  0
 10 11  1  0
 10  9  2  0
 11 12  2  0
 12  4  1  0
 12  7  1  0
 13  2  1  0
 13 14  2  0
 15 13  1  0
 16 17  1  1
 16 15  1  0
 18 26  1  0
 18 17  1  0
 19 18  2  0
 20 19  1  0
 20 21  1  0
 21 22  1  0
 21 26  2  0
 22 23  2  0
 23 24  1  0
 25 24  2  0
 26 25  1  0
 27 16  1  0
 28 27  2  0
 29 27  1  0
 30 29  1  0
 30 31  1  6
 32 31  1  0
 33 32  2  0
 34 30  1  0
 34 35  1  0
 36 32  1  0
 37 34  2  0
M  END
$$$$
