WWD.pdb
     RDKit          3D

 37 40  0  0  1  0  0  0  0  0999 V2000
   27.7118  -20.9345  -15.3042 N   0  0  0  0  0  0  0  0  0  0  0  0
   26.5981  -20.3355  -14.6598 C   0  0  1  0  0  0  0  0  0  0  0  0
   25.3684  -20.2654  -15.5741 C   0  0  0  0  0  0  0  0  0  0  0  0
   25.5890  -19.3519  -16.7209 C   0  0  0  0  0  0  0  0  0  0  0  0
   26.1843  -19.6089  -17.9471 C   0  0  0  0  0  0  0  0  0  0  0  0
   26.1653  -18.4998  -18.7065 N   0  0  0  0  0  0  0  0  0  0  0  0
   25.5725  -17.4882  -18.0340 C   0  0  0  0  0  0  0  0  0  0  0  0
   25.3044  -16.1673  -18.3371 C   0  0  0  0  0  0  0  0  0  0  0  0
   24.6809  -15.3210  -17.4528 C   0  0  0  0  0  0  0  0  0  0  0  0
   24.3263  -15.8391  -16.2345 C   0  0  0  0  0  0  0  0  0  0  0  0
   24.5886  -17.1660  -15.9140 C   0  0  0  0  0  0  0  0  0  0  0  0
   25.2089  -18.0060  -16.7955 C   0  0  0  0  0  0  0  0  0  0  0  0
   26.1960  -21.0073  -13.3706 C   0  0  0  0  0  0  0  0  0  0  0  0
   25.9387  -22.2459  -13.4631 O   0  0  0  0  0  0  0  0  0  0  0  0
   26.0948  -20.3787  -12.1315 N   0  0  0  0  0  0  0  0  0  0  0  0
   25.2160  -20.6333  -11.0415 C   0  0  1  0  0  0  0  0  0  0  0  0
   25.6560  -20.0915   -9.7720 C   0  0  0  0  0  0  0  0  0  0  0  0
   26.9929  -20.5769   -9.3512 C   0  0  0  0  0  0  0  0  0  0  0  0
   27.8532  -21.3880  -10.1065 C   0  0  0  0  0  0  0  0  0  0  0  0
   28.9813  -21.6044   -9.4221 N   0  0  0  0  0  0  0  0  0  0  0  0
   28.9343  -20.9725   -8.2138 C   0  0  0  0  0  0  0  0  0  0  0  0
   29.8150  -20.8985   -7.1603 C   0  0  0  0  0  0  0  0  0  0  0  0
   29.5152  -20.1961   -6.0281 C   0  0  0  0  0  0  0  0  0  0  0  0
   28.2594  -19.5569   -5.9999 C   0  0  0  0  0  0  0  0  0  0  0  0
   27.3903  -19.6368   -7.0565 C   0  0  0  0  0  0  0  0  0  0  0  0
   27.6977  -20.3417   -8.1877 C   0  0  0  0  0  0  0  0  0  0  0  0
   23.7760  -20.5453  -11.3601 C   0  0  0  0  0  0  0  0  0  0  0  0
   23.3341  -19.5133  -11.8986 O   0  0  0  0  0  0  0  0  0  0  0  0
   22.8393  -21.5613  -11.0935 N   0  0  0  0  0  0  0  0  0  0  0  0
   21.4840  -21.4482  -11.6132 C   0  0  1  0  0  0  0  0  0  0  0  0
   21.2387  -22.3885  -12.7549 C   0  0  0  0  0  0  0  0  0  0  0  0
   19.8397  -22.4034  -13.2368 C   0  0  0  0  0  0  0  0  0  0  0  0
   18.9602  -21.6901  -12.7233 O   0  0  0  0  0  0  0  0  0  0  0  0
   20.6195  -21.9602  -10.4744 C   0  0  0  0  0  0  0  0  0  0  0  0
   21.1959  -22.3084   -9.2661 O   0  0  0  0  0  0  0  0  0  0  0  0
   19.5040  -23.2503  -14.3029 O   0  0  0  0  0  0  0  0  0  0  0  0
   19.3812  -22.0915  -10.5610 O   0  0  0  0  0  0  0  0  0  0  0  0
  2  1  1  6
  3  2  1  0
  3  4  1  0
  4  5  2  0
  5  6  1  0
  7  6  1  0
  8  7  2  0
  9  8  1  0
 10 11  1  0
 10  9  2  0
 11 12  2  0
 12  4  1  0
 12  7  1  0
 13  2  1  0
 13 14  2  0
 15 13  1  0
 16 17  1  1
 16 15  1  0
 18 26  1  0
 18 17  1  0
 19 18  2  0
 20 19  1  0
 20 21  1  0
 21 22  1  0
 21 26  2  0
 22 23  2  0
 23 24  1  0
 25 24  2  0
 26 25  1  0
 27 16  1  0
 28 27  2  0
 29 27  1  0
 30 29  1  0
 30 31  1  6
 32 31  1  0
 33 32  2  0
 34 30  1  0
 34 35  1  0
 36 32  1  0
 37 34  2  0
M  END
$$$$
