WWD.pdb
     RDKit          3D

 37 40  0  0  1  0  0  0  0  0999 V2000
   15.3137  -15.1308    5.5239 N   0  0  0  0  0  0  0  0  0  0  0  0
   16.5638  -15.7984    5.4463 C   0  0  1  0  0  0  0  0  0  0  0  0
   17.6638  -15.0604    6.2199 C   0  0  0  0  0  0  0  0  0  0  0  0
   18.3254  -14.0301    5.3838 C   0  0  0  0  0  0  0  0  0  0  0  0
   18.3378  -12.6513    5.5343 C   0  0  0  0  0  0  0  0  0  0  0  0
   19.0749  -12.0911    4.5596 N   0  0  0  0  0  0  0  0  0  0  0  0
   19.5692  -13.0489    3.7441 C   0  0  0  0  0  0  0  0  0  0  0  0
   20.3621  -13.0250    2.6131 C   0  0  0  0  0  0  0  0  0  0  0  0
   20.7270  -14.1687    1.9455 C   0  0  0  0  0  0  0  0  0  0  0  0
   20.2696  -15.3594    2.4470 C   0  0  0  0  0  0  0  0  0  0  0  0
   19.4711  -15.4008    3.5841 C   0  0  0  0  0  0  0  0  0  0  0  0
   19.1095  -14.2616    4.2466 C   0  0  0  0  0  0  0  0  0  0  0  0
   16.5289  -17.2309    5.9170 C   0  0  0  0  0  0  0  0  0  0  0  0
   16.0606  -17.4063    7.0827 O   0  0  0  0  0  0  0  0  0  0  0  0
   16.9600  -18.3321    5.1806 N   0  0  0  0  0  0  0  0  0  0  0  0
   17.1967  -19.6746    5.5891 C   0  0  1  0  0  0  0  0  0  0  0  0
   17.2368  -20.6369    4.5070 C   0  0  0  0  0  0  0  0  0  0  0  0
   17.2245  -22.0471    4.9664 C   0  0  0  0  0  0  0  0  0  0  0  0
   16.0848  -22.8377    5.1778 C   0  0  0  0  0  0  0  0  0  0  0  0
   16.4545  -24.0632    5.5640 N   0  0  0  0  0  0  0  0  0  0  0  0
   17.8142  -24.1520    5.6308 C   0  0  0  0  0  0  0  0  0  0  0  0
   18.6707  -25.1685    5.9830 C   0  0  0  0  0  0  0  0  0  0  0  0
   20.0250  -24.9923    5.9828 C   0  0  0  0  0  0  0  0  0  0  0  0
   20.4922  -23.7173    5.6055 C   0  0  0  0  0  0  0  0  0  0  0  0
   19.6290  -22.7121    5.2554 C   0  0  0  0  0  0  0  0  0  0  0  0
   18.2736  -22.8960    5.2572 C   0  0  0  0  0  0  0  0  0  0  0  0
   18.1754  -19.8361    6.6841 C   0  0  0  0  0  0  0  0  0  0  0  0
   19.2528  -19.2141    6.6337 O   0  0  0  0  0  0  0  0  0  0  0  0
   17.9822  -20.6612    7.8078 N   0  0  0  0  0  0  0  0  0  0  0  0
   19.0176  -20.7460    8.8278 C   0  0  1  0  0  0  0  0  0  0  0  0
   18.7172  -19.8726   10.0088 C   0  0  0  0  0  0  0  0  0  0  0  0
   19.6454  -20.0534   11.1469 C   0  0  0  0  0  0  0  0  0  0  0  0
   20.7604  -20.5858   11.0073 O   0  0  0  0  0  0  0  0  0  0  0  0
   18.9015  -22.1715    9.3388 C   0  0  0  0  0  0  0  0  0  0  0  0
   19.8482  -22.6765   10.2118 O   0  0  0  0  0  0  0  0  0  0  0  0
   19.2480  -19.6102   12.4166 O   0  0  0  0  0  0  0  0  0  0  0  0
   17.9763  -22.9425    9.0110 O   0  0  0  0  0  0  0  0  0  0  0  0
  2  1  1  1
  3  2  1  0
  3  4  1  0
  4  5  2  0
  5  6  1  0
  7  6  1  0
  8  7  2  0
  9  8  1  0
 10 11  1  0
 10  9  2  0
 11 12  2  0
 12  4  1  0
 12  7  1  0
 13  2  1  0
 13 14  2  0
 15 13  1  0
 16 17  1  6
 16 15  1  0
 18 26  1  0
 18 17  1  0
 19 18  2  0
 20 19  1  0
 20 21  1  0
 21 22  1  0
 21 26  2  0
 22 23  2  0
 23 24  1  0
 25 24  2  0
 26 25  1  0
 27 16  1  0
 28 27  2  0
 29 27  1  0
 30 29  1  0
 30 31  1  1
 32 31  1  0
 33 32  2  0
 34 30  1  0
 34 35  1  0
 36 32  1  0
 37 34  2  0
M  END
$$$$
