WWD.pdb
     RDKit          3D

 37 40  0  0  1  0  0  0  0  0999 V2000
   28.3194  -21.5095  -14.6059 N   0  0  0  0  0  0  0  0  0  0  0  0
   27.2915  -20.6044  -14.2337 C   0  0  1  0  0  0  0  0  0  0  0  0
   26.4193  -20.1954  -15.4275 C   0  0  0  0  0  0  0  0  0  0  0  0
   27.1818  -19.3938  -16.4146 C   0  0  0  0  0  0  0  0  0  0  0  0
   27.7177  -19.7801  -17.6343 C   0  0  0  0  0  0  0  0  0  0  0  0
   28.3209  -18.7322  -18.2217 N   0  0  0  0  0  0  0  0  0  0  0  0
   28.2131  -17.6366  -17.4376 C   0  0  0  0  0  0  0  0  0  0  0  0
   28.6486  -16.3308  -17.5553 C   0  0  0  0  0  0  0  0  0  0  0  0
   28.4105  -15.3852  -16.5879 C   0  0  0  0  0  0  0  0  0  0  0  0
   27.7130  -15.7865  -15.4784 C   0  0  0  0  0  0  0  0  0  0  0  0
   27.2675  -17.0965  -15.3446 C   0  0  0  0  0  0  0  0  0  0  0  0
   27.5056  -18.0354  -16.3086 C   0  0  0  0  0  0  0  0  0  0  0  0
   26.3900  -21.1115  -13.1361 C   0  0  0  0  0  0  0  0  0  0  0  0
   25.9726  -22.3002  -13.2844 O   0  0  0  0  0  0  0  0  0  0  0  0
   26.0025  -20.3863  -12.0115 N   0  0  0  0  0  0  0  0  0  0  0  0
   25.0188  -20.6770  -11.0251 C   0  0  1  0  0  0  0  0  0  0  0  0
   25.3515  -20.2259   -9.6892 C   0  0  0  0  0  0  0  0  0  0  0  0
   26.6973  -20.6544   -9.2364 C   0  0  0  0  0  0  0  0  0  0  0  0
   27.5935  -21.4602   -9.9549 C   0  0  0  0  0  0  0  0  0  0  0  0
   28.7184  -21.6186   -9.2497 N   0  0  0  0  0  0  0  0  0  0  0  0
   28.6347  -20.9515   -8.0626 C   0  0  0  0  0  0  0  0  0  0  0  0
   29.4980  -20.8163   -7.0009 C   0  0  0  0  0  0  0  0  0  0  0  0
   29.1604  -20.0893   -5.8952 C   0  0  0  0  0  0  0  0  0  0  0  0
   27.8846  -19.4906   -5.9030 C   0  0  0  0  0  0  0  0  0  0  0  0
   27.0330  -19.6313   -6.9675 C   0  0  0  0  0  0  0  0  0  0  0  0
   27.3782  -20.3606   -8.0720 C   0  0  0  0  0  0  0  0  0  0  0  0
   23.6179  -20.5244  -11.4690 C   0  0  0  0  0  0  0  0  0  0  0  0
   23.1711  -19.3836  -11.6915 O   0  0  0  0  0  0  0  0  0  0  0  0
   22.7242  -21.5942  -11.6628 N   0  0  0  0  0  0  0  0  0  0  0  0
   21.3931  -21.3361  -12.1932 C   0  0  1  0  0  0  0  0  0  0  0  0
   20.9354  -22.4235  -13.1184 C   0  0  0  0  0  0  0  0  0  0  0  0
   21.4259  -22.2826  -14.5073 C   0  0  0  0  0  0  0  0  0  0  0  0
   22.0533  -21.2772  -14.8839 O   0  0  0  0  0  0  0  0  0  0  0  0
   20.4949  -21.4384  -10.9729 C   0  0  0  0  0  0  0  0  0  0  0  0
   19.1398  -21.1836  -11.0836 O   0  0  0  0  0  0  0  0  0  0  0  0
   21.1703  -23.3165  -15.4195 O   0  0  0  0  0  0  0  0  0  0  0  0
   20.9143  -21.7477   -9.8386 O   0  0  0  0  0  0  0  0  0  0  0  0
  2  1  1  6
  3  2  1  0
  3  4  1  0
  4  5  2  0
  5  6  1  0
  7  6  1  0
  8  7  2  0
  9  8  1  0
 10 11  1  0
 10  9  2  0
 11 12  2  0
 12  4  1  0
 12  7  1  0
 13  2  1  0
 13 14  2  0
 15 13  1  0
 16 17  1  1
 16 15  1  0
 18 26  1  0
 18 17  1  0
 19 18  2  0
 20 19  1  0
 20 21  1  0
 21 22  1  0
 21 26  2  0
 22 23  2  0
 23 24  1  0
 25 24  2  0
 26 25  1  0
 27 16  1  0
 28 27  2  0
 29 27  1  0
 30 29  1  0
 30 31  1  6
 32 31  1  0
 33 32  2  0
 34 30  1  0
 34 35  1  0
 36 32  1  0
 37 34  2  0
M  END
$$$$
