YPC.pdb
     RDKit          3D

 26 27  0  0  1  0  0  0  0  0999 V2000
    7.7728  -23.7255   18.6466 O   0  0  0  0  0  0  0  0  0  0  0  0
    8.1472  -22.6551   19.4349 C   0  0  0  0  0  0  0  0  0  0  0  0
    7.6068  -21.4190   19.1996 C   0  0  0  0  0  0  0  0  0  0  0  0
    7.9430  -20.3262   19.9502 C   0  0  0  0  0  0  0  0  0  0  0  0
    8.8582  -20.4131   20.9998 C   0  0  0  0  0  0  0  0  0  0  0  0
    9.2223  -19.2169   21.7781 C   0  0  0  0  0  0  0  0  0  0  0  0
    9.6641  -18.0333   20.9222 C   0  0  2  0  0  0  0  0  0  0  0  0
   10.7614  -18.4410   20.1110 N   0  0  0  0  0  0  0  0  0  0  0  0
    9.8532  -16.8768   21.7823 C   0  0  0  0  0  0  0  0  0  0  0  0
   11.0988  -16.6702   22.0955 O   0  0  0  0  0  0  0  0  0  0  0  0
    9.4004  -21.6719   21.2299 C   0  0  0  0  0  0  0  0  0  0  0  0
    9.0532  -22.7639   20.4667 C   0  0  0  0  0  0  0  0  0  0  0  0
    8.9206  -15.9747   22.3096 N   0  0  0  0  0  0  0  0  0  0  0  0
    7.5144  -15.9703   22.0012 C   0  0  0  0  0  0  0  0  0  0  0  0
    7.0697  -14.5759   22.2475 C   0  0  0  0  0  0  0  0  0  0  0  0
    8.2831  -13.7919   22.6857 C   0  0  0  0  0  0  0  0  0  0  0  0
    9.1855  -14.9259   23.2275 C   0  0  1  0  0  0  0  0  0  0  0  0
    8.7257  -15.1529   24.5978 C   0  0  0  0  0  0  0  0  0  0  0  0
    7.9303  -16.0738   24.8584 O   0  0  0  0  0  0  0  0  0  0  0  0
    9.1730  -14.3339   25.6542 N   0  0  0  0  0  0  0  0  0  0  0  0
   10.3592  -14.6036   26.4428 C   0  0  1  0  0  0  0  0  0  0  0  0
   10.7658  -13.3350   27.2076 C   0  0  0  0  0  0  0  0  0  0  0  0
    9.7284  -13.0909   28.6552 S   0  0  0  0  0  0  0  0  0  0  0  0
   10.1525  -15.7153   27.3930 C   0  0  0  0  0  0  0  0  0  0  0  0
    8.9044  -16.2757   27.6165 O   0  0  0  0  0  0  0  0  0  0  0  0
   11.1306  -16.1630   28.0129 O   0  0  0  0  0  0  0  0  0  0  0  0
  1  2  1  0
  2  3  2  0
  3  4  1  0
  5  4  2  0
  5  6  1  0
  7  6  1  0
  7  8  1  1
  9  7  1  0
  9 13  1  0
 10  9  2  0
 11  5  1  0
 12  2  1  0
 12 11  2  0
 13 14  1  0
 14 15  1  0
 16 15  1  0
 17 13  1  0
 17 16  1  0
 17 18  1  1
 19 18  2  0
 20 18  1  0
 21 24  1  0
 21 20  1  0
 22 23  1  0
 21 22  1  1
 24 25  1  0
 26 24  2  0
M  END
$$$$
