YPC.pdb
     RDKit          3D

 26 27  0  0  1  0  0  0  0  0999 V2000
   11.1691  -14.7119   29.1392 O   0  0  0  0  0  0  0  0  0  0  0  0
   10.0423  -14.7829   28.3439 C   0  0  0  0  0  0  0  0  0  0  0  0
    9.3927  -15.9792   28.1953 C   0  0  0  0  0  0  0  0  0  0  0  0
    8.2732  -16.1046   27.4196 C   0  0  0  0  0  0  0  0  0  0  0  0
    7.7314  -15.0157   26.7358 C   0  0  0  0  0  0  0  0  0  0  0  0
    6.5389  -15.1811   25.8873 C   0  0  0  0  0  0  0  0  0  0  0  0
    6.3688  -16.5907   25.3281 C   0  0  2  0  0  0  0  0  0  0  0  0
    6.5491  -17.5265   26.3865 N   0  0  0  0  0  0  0  0  0  0  0  0
    7.2089  -16.7332   24.1505 C   0  0  0  0  0  0  0  0  0  0  0  0
    7.5087  -17.9703   23.8823 O   0  0  0  0  0  0  0  0  0  0  0  0
    8.3984  -13.8068   26.8935 C   0  0  0  0  0  0  0  0  0  0  0  0
    9.5246  -13.6943   27.6775 C   0  0  0  0  0  0  0  0  0  0  0  0
    7.7294  -15.7642   23.2834 N   0  0  0  0  0  0  0  0  0  0  0  0
    7.5624  -14.3431   23.4417 C   0  0  0  0  0  0  0  0  0  0  0  0
    7.7057  -13.7831   22.0748 C   0  0  0  0  0  0  0  0  0  0  0  0
    7.9386  -14.9449   21.1392 C   0  0  0  0  0  0  0  0  0  0  0  0
    8.5032  -16.0016   22.1182 C   0  0  1  0  0  0  0  0  0  0  0  0
    9.9283  -15.6898   22.2304 C   0  0  0  0  0  0  0  0  0  0  0  0
   10.3208  -14.5095   22.2694 O   0  0  0  0  0  0  0  0  0  0  0  0
   10.8892  -16.7189   22.2970 N   0  0  0  0  0  0  0  0  0  0  0  0
   12.2263  -16.5463   22.8299 C   0  0  1  0  0  0  0  0  0  0  0  0
   12.3715  -17.3609   24.1240 C   0  0  0  0  0  0  0  0  0  0  0  0
   10.8993  -17.2212   25.1459 S   0  0  0  0  0  0  0  0  0  0  0  0
   13.2656  -16.9545   21.8631 C   0  0  0  0  0  0  0  0  0  0  0  0
   14.6190  -16.8111   22.1265 O   0  0  0  0  0  0  0  0  0  0  0  0
   12.9145  -17.4431   20.7771 O   0  0  0  0  0  0  0  0  0  0  0  0
  1  2  1  0
  2  3  2  0
  3  4  1  0
  5  4  2  0
  5  6  1  0
  7  6  1  0
  7  8  1  1
  9  7  1  0
  9 13  1  0
 10  9  2  0
 11  5  1  0
 12  2  1  0
 12 11  2  0
 13 14  1  0
 14 15  1  0
 16 15  1  0
 17 13  1  0
 17 16  1  0
 17 18  1  1
 19 18  2  0
 20 18  1  0
 21 24  1  0
 21 20  1  0
 22 23  1  0
 21 22  1  1
 24 25  1  0
 26 24  2  0
M  END
$$$$
