YPC.pdb
     RDKit          3D

 26 27  0  0  1  0  0  0  0  0999 V2000
   19.1292  -22.9784   22.6669 O   0  0  0  0  0  0  0  0  0  0  0  0
   18.1970  -21.9894   22.9122 C   0  0  0  0  0  0  0  0  0  0  0  0
   18.6180  -20.7191   23.2028 C   0  0  0  0  0  0  0  0  0  0  0  0
   17.7372  -19.7033   23.4537 C   0  0  0  0  0  0  0  0  0  0  0  0
   16.3573  -19.9083   23.4267 C   0  0  0  0  0  0  0  0  0  0  0  0
   15.4293  -18.8039   23.7241 C   0  0  0  0  0  0  0  0  0  0  0  0
   14.6191  -18.3356   22.5187 C   0  0  2  0  0  0  0  0  0  0  0  0
   15.5095  -17.7689   21.5625 N   0  0  0  0  0  0  0  0  0  0  0  0
   13.5163  -17.5118   22.9857 C   0  0  0  0  0  0  0  0  0  0  0  0
   13.7891  -16.2399   22.9791 O   0  0  0  0  0  0  0  0  0  0  0  0
   15.9411  -21.2007   23.1308 C   0  0  0  0  0  0  0  0  0  0  0  0
   16.8385  -22.2144   22.8802 C   0  0  0  0  0  0  0  0  0  0  0  0
   12.2375  -17.8721   23.4289 N   0  0  0  0  0  0  0  0  0  0  0  0
   11.7244  -19.2169   23.4562 C   0  0  0  0  0  0  0  0  0  0  0  0
   10.2493  -19.0686   23.3875 C   0  0  0  0  0  0  0  0  0  0  0  0
    9.9535  -17.5907   23.2994 C   0  0  0  0  0  0  0  0  0  0  0  0
   11.2376  -16.9965   23.9253 C   0  0  1  0  0  0  0  0  0  0  0  0
   11.0125  -17.0471   25.3701 C   0  0  0  0  0  0  0  0  0  0  0  0
   11.2261  -18.0917   26.0118 O   0  0  0  0  0  0  0  0  0  0  0  0
   10.5485  -15.9139   26.0683 N   0  0  0  0  0  0  0  0  0  0  0  0
   10.9864  -15.5472   27.4008 C   0  0  1  0  0  0  0  0  0  0  0  0
   10.3368  -14.2154   27.8054 C   0  0  0  0  0  0  0  0  0  0  0  0
   10.9292  -13.6675   29.4117 S   0  0  0  0  0  0  0  0  0  0  0  0
   10.6587  -16.5864   28.3978 C   0  0  0  0  0  0  0  0  0  0  0  0
    9.4932  -17.3340   28.3321 O   0  0  0  0  0  0  0  0  0  0  0  0
   11.4549  -16.7974   29.3268 O   0  0  0  0  0  0  0  0  0  0  0  0
  1  2  1  0
  2  3  2  0
  3  4  1  0
  5  4  2  0
  5  6  1  0
  7  6  1  0
  7  8  1  6
  9  7  1  0
  9 13  1  0
 10  9  2  0
 11  5  1  0
 12  2  1  0
 12 11  2  0
 13 14  1  0
 14 15  1  0
 16 15  1  0
 17 13  1  0
 17 16  1  0
 17 18  1  1
 19 18  2  0
 20 18  1  0
 21 24  1  0
 21 20  1  0
 22 23  1  0
 21 22  1  1
 24 25  1  0
 26 24  2  0
M  END
$$$$
