YPC.pdb
     RDKit          3D

 26 27  0  0  1  0  0  0  0  0999 V2000
    7.4533  -11.0483   26.5463 O   0  0  0  0  0  0  0  0  0  0  0  0
    7.3653  -12.4229   26.4453 C   0  0  0  0  0  0  0  0  0  0  0  0
    8.4864  -13.1538   26.1552 C   0  0  0  0  0  0  0  0  0  0  0  0
    8.4544  -14.5165   26.0439 C   0  0  0  0  0  0  0  0  0  0  0  0
    7.2729  -15.2374   26.2207 C   0  0  0  0  0  0  0  0  0  0  0  0
    7.2591  -16.7027   26.0718 C   0  0  0  0  0  0  0  0  0  0  0  0
    6.5603  -17.1888   24.8053 C   0  0  2  0  0  0  0  0  0  0  0  0
    6.0145  -18.4809   25.0523 N   0  0  0  0  0  0  0  0  0  0  0  0
    7.4711  -17.0440   23.6817 C   0  0  0  0  0  0  0  0  0  0  0  0
    8.0740  -18.1526   23.3656 O   0  0  0  0  0  0  0  0  0  0  0  0
    6.1415  -14.4860   26.5147 C   0  0  0  0  0  0  0  0  0  0  0  0
    6.1875  -13.1143   26.6240 C   0  0  0  0  0  0  0  0  0  0  0  0
    7.7878  -15.9204   22.9081 N   0  0  0  0  0  0  0  0  0  0  0  0
    7.3481  -14.5783   23.1872 C   0  0  0  0  0  0  0  0  0  0  0  0
    7.3717  -13.8838   21.8758 C   0  0  0  0  0  0  0  0  0  0  0  0
    7.8212  -14.8918   20.8456 C   0  0  0  0  0  0  0  0  0  0  0  0
    8.5864  -15.8998   21.7356 C   0  0  1  0  0  0  0  0  0  0  0  0
    9.9240  -15.3276   21.8908 C   0  0  0  0  0  0  0  0  0  0  0  0
   10.0928  -14.0947   21.8944 O   0  0  0  0  0  0  0  0  0  0  0  0
   11.0521  -16.1595   22.0397 N   0  0  0  0  0  0  0  0  0  0  0  0
   11.9133  -16.1566   23.2059 C   0  0  1  0  0  0  0  0  0  0  0  0
   11.0691  -16.3936   24.4672 C   0  0  0  0  0  0  0  0  0  0  0  0
   12.0642  -16.2216   25.9543 S   0  0  0  0  0  0  0  0  0  0  0  0
   12.9739  -17.1804   23.1147 C   0  0  0  0  0  0  0  0  0  0  0  0
   14.1832  -17.0549   23.7806 O   0  0  0  0  0  0  0  0  0  0  0  0
   12.7751  -18.1882   22.4173 O   0  0  0  0  0  0  0  0  0  0  0  0
  1  2  1  0
  2  3  2  0
  3  4  1  0
  5  4  2  0
  5  6  1  0
  7  6  1  0
  7  8  1  1
  9  7  1  0
  9 13  1  0
 10  9  2  0
 11  5  1  0
 12  2  1  0
 12 11  2  0
 13 14  1  0
 14 15  1  0
 16 15  1  0
 17 13  1  0
 17 16  1  0
 17 18  1  1
 19 18  2  0
 20 18  1  0
 21 24  1  0
 21 20  1  0
 22 23  1  0
 21 22  1  1
 24 25  1  0
 26 24  2  0
M  END
$$$$
