YPC.pdb
     RDKit          3D

 26 27  0  0  1  0  0  0  0  0999 V2000
    6.4801  -10.7991   27.3248 O   0  0  0  0  0  0  0  0  0  0  0  0
    6.6643  -12.1120   26.9379 C   0  0  0  0  0  0  0  0  0  0  0  0
    7.9294  -12.6346   26.8964 C   0  0  0  0  0  0  0  0  0  0  0  0
    8.1672  -13.9279   26.5205 C   0  0  0  0  0  0  0  0  0  0  0  0
    7.1293  -14.7870   26.1579 C   0  0  0  0  0  0  0  0  0  0  0  0
    7.4131  -16.1686   25.7335 C   0  0  0  0  0  0  0  0  0  0  0  0
    6.4182  -16.7194   24.7159 C   0  0  2  0  0  0  0  0  0  0  0  0
    5.7540  -17.8417   25.2882 N   0  0  0  0  0  0  0  0  0  0  0  0
    7.1025  -16.9139   23.4483 C   0  0  0  0  0  0  0  0  0  0  0  0
    7.1046  -18.1532   23.0528 O   0  0  0  0  0  0  0  0  0  0  0  0
    5.8498  -14.2466   26.2036 C   0  0  0  0  0  0  0  0  0  0  0  0
    5.6242  -12.9427   26.5839 C   0  0  0  0  0  0  0  0  0  0  0  0
    7.7420  -15.9918   22.6103 N   0  0  0  0  0  0  0  0  0  0  0  0
    7.9425  -14.6001   22.9192 C   0  0  0  0  0  0  0  0  0  0  0  0
    8.0638  -13.9261   21.6025 C   0  0  0  0  0  0  0  0  0  0  0  0
    7.9030  -14.9882   20.5416 C   0  0  0  0  0  0  0  0  0  0  0  0
    8.3007  -16.2565   21.3334 C   0  0  1  0  0  0  0  0  0  0  0  0
    9.7622  -16.2945   21.2774 C   0  0  0  0  0  0  0  0  0  0  0  0
   10.4461  -15.5009   21.9491 O   0  0  0  0  0  0  0  0  0  0  0  0
   10.4292  -17.2306   20.4615 N   0  0  0  0  0  0  0  0  0  0  0  0
   11.6529  -17.9094   20.8401 C   0  0  1  0  0  0  0  0  0  0  0  0
   11.6532  -19.3298   20.2551 C   0  0  0  0  0  0  0  0  0  0  0  0
   10.3409  -20.3263   20.9733 S   0  0  0  0  0  0  0  0  0  0  0  0
   12.8546  -17.1813   20.3851 C   0  0  0  0  0  0  0  0  0  0  0  0
   14.1334  -17.5447   20.7780 O   0  0  0  0  0  0  0  0  0  0  0  0
   12.7142  -16.2101   19.6245 O   0  0  0  0  0  0  0  0  0  0  0  0
  1  2  1  0
  2  3  2  0
  3  4  1  0
  5  4  2  0
  5  6  1  0
  7  6  1  0
  7  8  1  1
  9  7  1  0
  9 13  1  0
 10  9  2  0
 11  5  1  0
 12  2  1  0
 12 11  2  0
 13 14  1  0
 14 15  1  0
 16 15  1  0
 17 13  1  0
 17 16  1  0
 17 18  1  1
 19 18  2  0
 20 18  1  0
 21 24  1  0
 21 20  1  0
 22 23  1  0
 21 22  1  6
 24 25  1  0
 26 24  2  0
M  END
$$$$
