YPC.pdb
     RDKit          3D

 26 27  0  0  1  0  0  0  0  0999 V2000
   10.8706  -14.5259   29.9388 O   0  0  0  0  0  0  0  0  0  0  0  0
    9.9208  -14.6244   28.9410 C   0  0  0  0  0  0  0  0  0  0  0  0
    9.4900  -15.8595   28.5358 C   0  0  0  0  0  0  0  0  0  0  0  0
    8.5519  -16.0132   27.5524 C   0  0  0  0  0  0  0  0  0  0  0  0
    7.9817  -14.9152   26.9074 C   0  0  0  0  0  0  0  0  0  0  0  0
    6.9910  -15.1071   25.8345 C   0  0  0  0  0  0  0  0  0  0  0  0
    6.8997  -16.5434   25.3271 C   0  0  2  0  0  0  0  0  0  0  0  0
    7.2944  -17.4237   26.3749 N   0  0  0  0  0  0  0  0  0  0  0  0
    7.6080  -16.6400   24.0614 C   0  0  0  0  0  0  0  0  0  0  0  0
    7.9984  -17.8496   23.7844 O   0  0  0  0  0  0  0  0  0  0  0  0
    8.4260  -13.6668   27.3263 C   0  0  0  0  0  0  0  0  0  0  0  0
    9.3711  -13.5261   28.3176 C   0  0  0  0  0  0  0  0  0  0  0  0
    7.9239  -15.6526   23.1196 N   0  0  0  0  0  0  0  0  0  0  0  0
    7.6775  -14.2445   23.2892 C   0  0  0  0  0  0  0  0  0  0  0  0
    7.5786  -13.7014   21.9115 C   0  0  0  0  0  0  0  0  0  0  0  0
    7.7579  -14.8608   20.9614 C   0  0  0  0  0  0  0  0  0  0  0  0
    8.5353  -15.8557   21.8556 C   0  0  1  0  0  0  0  0  0  0  0  0
    9.9346  -15.4403   21.7553 C   0  0  0  0  0  0  0  0  0  0  0  0
   10.2663  -14.2612   21.9750 O   0  0  0  0  0  0  0  0  0  0  0  0
   10.9391  -16.3661   21.4074 N   0  0  0  0  0  0  0  0  0  0  0  0
   12.1786  -16.5312   22.1409 C   0  0  1  0  0  0  0  0  0  0  0  0
   11.8673  -16.7729   23.6256 C   0  0  0  0  0  0  0  0  0  0  0  0
   13.3780  -16.9479   24.5839 S   0  0  0  0  0  0  0  0  0  0  0  0
   12.9912  -17.6456   21.6128 C   0  0  0  0  0  0  0  0  0  0  0  0
   12.4302  -18.8535   21.2280 O   0  0  0  0  0  0  0  0  0  0  0  0
   14.2193  -17.4951   21.5099 O   0  0  0  0  0  0  0  0  0  0  0  0
  1  2  1  0
  2  3  2  0
  3  4  1  0
  5  4  2  0
  5  6  1  0
  7  6  1  0
  7  8  1  1
  9  7  1  0
  9 13  1  0
 10  9  2  0
 11  5  1  0
 12  2  1  0
 12 11  2  0
 13 14  1  0
 14 15  1  0
 16 15  1  0
 17 13  1  0
 17 16  1  0
 17 18  1  1
 19 18  2  0
 20 18  1  0
 21 24  1  0
 21 20  1  0
 22 23  1  0
 21 22  1  1
 24 25  1  0
 26 24  2  0
M  END
$$$$
