YPC.pdb
     RDKit          3D

 26 27  0  0  1  0  0  0  0  0999 V2000
    6.0579  -10.5105   27.1968 O   0  0  0  0  0  0  0  0  0  0  0  0
    6.5670  -11.7533   26.8751 C   0  0  0  0  0  0  0  0  0  0  0  0
    5.7105  -12.7940   26.6330 C   0  0  0  0  0  0  0  0  0  0  0  0
    6.1619  -14.0442   26.3107 C   0  0  0  0  0  0  0  0  0  0  0  0
    7.5246  -14.3268   26.2110 C   0  0  0  0  0  0  0  0  0  0  0  0
    7.9866  -15.6871   25.8862 C   0  0  0  0  0  0  0  0  0  0  0  0
    7.0590  -16.4458   24.9414 C   0  0  2  0  0  0  0  0  0  0  0  0
    6.4978  -17.5511   25.6426 N   0  0  0  0  0  0  0  0  0  0  0  0
    7.7720  -16.7221   23.7051 C   0  0  0  0  0  0  0  0  0  0  0  0
    8.0621  -17.9809   23.5521 O   0  0  0  0  0  0  0  0  0  0  0  0
    8.3848  -13.2637   26.4586 C   0  0  0  0  0  0  0  0  0  0  0  0
    7.9171  -12.0098   26.7822 C   0  0  0  0  0  0  0  0  0  0  0  0
    8.1818  -15.8596   22.6807 N   0  0  0  0  0  0  0  0  0  0  0  0
    8.0083  -14.4305   22.6892 C   0  0  0  0  0  0  0  0  0  0  0  0
    7.9974  -14.0345   21.2589 C   0  0  0  0  0  0  0  0  0  0  0  0
    8.1501  -15.2972   20.4456 C   0  0  0  0  0  0  0  0  0  0  0  0
    8.8326  -16.2288   21.4753 C   0  0  1  0  0  0  0  0  0  0  0  0
   10.2560  -15.8996   21.3979 C   0  0  0  0  0  0  0  0  0  0  0  0
   10.8920  -16.0673   20.3415 O   0  0  0  0  0  0  0  0  0  0  0  0
   10.9397  -15.3848   22.5179 N   0  0  0  0  0  0  0  0  0  0  0  0
   11.9410  -16.1202   23.2650 C   0  0  1  0  0  0  0  0  0  0  0  0
   11.2521  -17.1698   24.1499 C   0  0  0  0  0  0  0  0  0  0  0  0
   12.2484  -17.5520   25.5965 S   0  0  0  0  0  0  0  0  0  0  0  0
   12.9211  -16.7796   22.3784 C   0  0  0  0  0  0  0  0  0  0  0  0
   12.6654  -17.9981   21.7687 O   0  0  0  0  0  0  0  0  0  0  0  0
   14.0116  -16.2230   22.1721 O   0  0  0  0  0  0  0  0  0  0  0  0
  1  2  1  0
  2  3  2  0
  3  4  1  0
  5  4  2  0
  5  6  1  0
  7  6  1  0
  7  8  1  1
  9  7  1  0
  9 13  1  0
 10  9  2  0
 11  5  1  0
 12  2  1  0
 12 11  2  0
 13 14  1  0
 14 15  1  0
 16 15  1  0
 17 13  1  0
 17 16  1  0
 17 18  1  1
 19 18  2  0
 20 18  1  0
 21 24  1  0
 21 20  1  0
 22 23  1  0
 21 22  1  6
 24 25  1  0
 26 24  2  0
M  END
$$$$
