YPC.pdb
     RDKit          3D

 26 27  0  0  1  0  0  0  0  0999 V2000
   15.3078  -66.8352   32.5880 O   0  0  0  0  0  0  0  0  0  0  0  0
   16.2034  -67.2755   33.5426 C   0  0  0  0  0  0  0  0  0  0  0  0
   16.6833  -68.5566   33.4811 C   0  0  0  0  0  0  0  0  0  0  0  0
   17.5713  -69.0429   34.4006 C   0  0  0  0  0  0  0  0  0  0  0  0
   18.0374  -68.2561   35.4545 C   0  0  0  0  0  0  0  0  0  0  0  0
   18.9751  -68.8101   36.4461 C   0  0  0  0  0  0  0  0  0  0  0  0
   19.1726  -67.9240   37.6726 C   0  0  2  0  0  0  0  0  0  0  0  0
   19.8600  -66.7415   37.2754 N   0  0  0  0  0  0  0  0  0  0  0  0
   19.7592  -68.7205   38.7377 C   0  0  0  0  0  0  0  0  0  0  0  0
   20.0047  -68.0335   39.8147 O   0  0  0  0  0  0  0  0  0  0  0  0
   17.5442  -66.9580   35.5074 C   0  0  0  0  0  0  0  0  0  0  0  0
   16.6504  -66.4810   34.5751 C   0  0  0  0  0  0  0  0  0  0  0  0
   20.0901  -70.0808   38.7778 N   0  0  0  0  0  0  0  0  0  0  0  0
   19.6713  -71.0587   37.8079 C   0  0  0  0  0  0  0  0  0  0  0  0
   19.7009  -72.3553   38.5296 C   0  0  0  0  0  0  0  0  0  0  0  0
   20.1320  -72.0665   39.9474 C   0  0  0  0  0  0  0  0  0  0  0  0
   20.8851  -70.7282   39.7584 C   0  0  1  0  0  0  0  0  0  0  0  0
   22.2315  -71.1092   39.3311 C   0  0  0  0  0  0  0  0  0  0  0  0
   22.5278  -71.1533   38.1232 O   0  0  0  0  0  0  0  0  0  0  0  0
   23.2240  -71.4349   40.2776 N   0  0  0  0  0  0  0  0  0  0  0  0
   23.9395  -72.6955   40.3008 C   0  0  1  0  0  0  0  0  0  0  0  0
   24.3343  -73.0873   38.8690 C   0  0  0  0  0  0  0  0  0  0  0  0
   26.1163  -73.2657   38.7143 S   0  0  0  0  0  0  0  0  0  0  0  0
   25.1447  -72.6335   41.1523 C   0  0  0  0  0  0  0  0  0  0  0  0
   26.4262  -72.6884   40.6266 O   0  0  0  0  0  0  0  0  0  0  0  0
   25.0048  -72.5284   42.3815 O   0  0  0  0  0  0  0  0  0  0  0  0
  1  2  1  0
  2  3  2  0
  3  4  1  0
  5  4  2  0
  5  6  1  0
  7  6  1  0
  7  8  1  6
  9  7  1  0
  9 13  1  0
 10  9  2  0
 11  5  1  0
 12  2  1  0
 12 11  2  0
 13 14  1  0
 14 15  1  0
 16 15  1  0
 17 13  1  0
 17 16  1  0
 17 18  1  6
 19 18  2  0
 20 18  1  0
 21 24  1  0
 21 20  1  0
 22 23  1  0
 21 22  1  6
 24 25  1  0
 26 24  2  0
M  END
$$$$
