YPC.pdb
     RDKit          3D

 26 27  0  0  1  0  0  0  0  0999 V2000
    5.8805  -10.4119   26.9369 O   0  0  0  0  0  0  0  0  0  0  0  0
    6.2785  -11.7084   26.6761 C   0  0  0  0  0  0  0  0  0  0  0  0
    6.7331  -12.0390   25.4274 C   0  0  0  0  0  0  0  0  0  0  0  0
    7.1392  -13.3073   25.1161 C   0  0  0  0  0  0  0  0  0  0  0  0
    7.1117  -14.3361   26.0583 C   0  0  0  0  0  0  0  0  0  0  0  0
    7.5314  -15.6996   25.6922 C   0  0  0  0  0  0  0  0  0  0  0  0
    6.6841  -16.3329   24.5923 C   0  0  2  0  0  0  0  0  0  0  0  0
    6.0736  -17.5117   25.1080 N   0  0  0  0  0  0  0  0  0  0  0  0
    7.4935  -16.4615   23.3917 C   0  0  0  0  0  0  0  0  0  0  0  0
    7.8539  -17.6872   23.1464 O   0  0  0  0  0  0  0  0  0  0  0  0
    6.6487  -13.9898   27.3220 C   0  0  0  0  0  0  0  0  0  0  0  0
    6.2429  -12.7089   27.6222 C   0  0  0  0  0  0  0  0  0  0  0  0
    7.9310  -15.4900   22.4828 N   0  0  0  0  0  0  0  0  0  0  0  0
    7.7129  -14.0740   22.6231 C   0  0  0  0  0  0  0  0  0  0  0  0
    7.7670  -13.5363   21.2408 C   0  0  0  0  0  0  0  0  0  0  0  0
    8.0028  -14.7064   20.3163 C   0  0  0  0  0  0  0  0  0  0  0  0
    8.6572  -15.7192   21.2857 C   0  0  1  0  0  0  0  0  0  0  0  0
   10.0718  -15.3475   21.3226 C   0  0  0  0  0  0  0  0  0  0  0  0
   10.4150  -14.1634   21.4925 O   0  0  0  0  0  0  0  0  0  0  0  0
   11.0784  -16.3219   21.1666 N   0  0  0  0  0  0  0  0  0  0  0  0
   12.0658  -16.6370   22.1802 C   0  0  1  0  0  0  0  0  0  0  0  0
   11.3574  -16.9410   23.5088 C   0  0  0  0  0  0  0  0  0  0  0  0
   12.4833  -16.7623   24.8987 S   0  0  0  0  0  0  0  0  0  0  0  0
   12.9129  -17.7828   21.7919 C   0  0  0  0  0  0  0  0  0  0  0  0
   12.3879  -18.9316   21.2207 O   0  0  0  0  0  0  0  0  0  0  0  0
   14.1377  -17.7144   21.9839 O   0  0  0  0  0  0  0  0  0  0  0  0
  1  2  1  0
  2  3  2  0
  3  4  1  0
  5  4  2  0
  5  6  1  0
  7  6  1  0
  7  8  1  1
  9  7  1  0
  9 13  1  0
 10  9  2  0
 11  5  1  0
 12  2  1  0
 12 11  2  0
 13 14  1  0
 14 15  1  0
 16 15  1  0
 17 13  1  0
 17 16  1  0
 17 18  1  1
 19 18  2  0
 20 18  1  0
 21 24  1  0
 21 20  1  0
 22 23  1  0
 21 22  1  1
 24 25  1  0
 26 24  2  0
M  END
$$$$
