YPC.pdb
     RDKit          3D

 26 27  0  0  1  0  0  0  0  0999 V2000
   11.5847  -14.9220   29.2758 O   0  0  0  0  0  0  0  0  0  0  0  0
   10.4563  -14.9757   28.4815 C   0  0  0  0  0  0  0  0  0  0  0  0
    9.9811  -13.8296   27.9019 C   0  0  0  0  0  0  0  0  0  0  0  0
    8.8681  -13.8271   27.1069 C   0  0  0  0  0  0  0  0  0  0  0  0
    8.1550  -14.9970   26.8431 C   0  0  0  0  0  0  0  0  0  0  0  0
    6.9454  -14.9646   26.0034 C   0  0  0  0  0  0  0  0  0  0  0  0
    6.5741  -16.3169   25.4018 C   0  0  2  0  0  0  0  0  0  0  0  0
    6.7251  -17.3188   26.4028 N   0  0  0  0  0  0  0  0  0  0  0  0
    7.3020  -16.4922   24.1559 C   0  0  0  0  0  0  0  0  0  0  0  0
    7.6482  -17.7266   23.9347 O   0  0  0  0  0  0  0  0  0  0  0  0
    8.6458  -16.1540   27.4361 C   0  0  0  0  0  0  0  0  0  0  0  0
    9.7675  -16.1426   28.2344 C   0  0  0  0  0  0  0  0  0  0  0  0
    7.6759  -15.5568   23.1830 N   0  0  0  0  0  0  0  0  0  0  0  0
    7.3585  -14.1533   23.2256 C   0  0  0  0  0  0  0  0  0  0  0  0
    7.3830  -13.7088   21.8097 C   0  0  0  0  0  0  0  0  0  0  0  0
    7.7055  -14.9199   20.9679 C   0  0  0  0  0  0  0  0  0  0  0  0
    8.4234  -15.8157   22.0052 C   0  0  1  0  0  0  0  0  0  0  0  0
    9.8083  -15.3440   22.0180 C   0  0  0  0  0  0  0  0  0  0  0  0
   10.1055  -14.2552   22.5424 O   0  0  0  0  0  0  0  0  0  0  0  0
   10.8377  -16.1118   21.4368 N   0  0  0  0  0  0  0  0  0  0  0  0
   11.9920  -16.6028   22.1636 C   0  0  1  0  0  0  0  0  0  0  0  0
   11.5242  -17.4489   23.3573 C   0  0  0  0  0  0  0  0  0  0  0  0
   12.7826  -17.5116   24.6394 S   0  0  0  0  0  0  0  0  0  0  0  0
   12.8888  -17.4026   21.3050 C   0  0  0  0  0  0  0  0  0  0  0  0
   14.2603  -17.2023   21.2775 O   0  0  0  0  0  0  0  0  0  0  0  0
   12.3971  -18.2848   20.5829 O   0  0  0  0  0  0  0  0  0  0  0  0
  1  2  1  0
  2  3  2  0
  3  4  1  0
  5  4  2  0
  5  6  1  0
  7  6  1  0
  7  8  1  1
  9  7  1  0
  9 13  1  0
 10  9  2  0
 11  5  1  0
 12  2  1  0
 12 11  2  0
 13 14  1  0
 14 15  1  0
 16 15  1  0
 17 13  1  0
 17 16  1  0
 17 18  1  1
 19 18  2  0
 20 18  1  0
 21 24  1  0
 21 20  1  0
 22 23  1  0
 21 22  1  1
 24 25  1  0
 26 24  2  0
M  END
$$$$
