YPC.pdb
     RDKit          3D

 26 27  0  0  1  0  0  0  0  0999 V2000
   11.6839  -15.1186   29.1198 O   0  0  0  0  0  0  0  0  0  0  0  0
   10.5386  -15.0552   28.3506 C   0  0  0  0  0  0  0  0  0  0  0  0
   10.0931  -13.8419   27.8981 C   0  0  0  0  0  0  0  0  0  0  0  0
    8.9653  -13.7232   27.1335 C   0  0  0  0  0  0  0  0  0  0  0  0
    8.2058  -14.8365   26.7725 C   0  0  0  0  0  0  0  0  0  0  0  0
    6.9816  -14.6804   25.9686 C   0  0  0  0  0  0  0  0  0  0  0  0
    6.4314  -15.9933   25.4187 C   0  0  2  0  0  0  0  0  0  0  0  0
    6.4771  -16.9748   26.4497 N   0  0  0  0  0  0  0  0  0  0  0  0
    7.1052  -16.2970   24.1670 C   0  0  0  0  0  0  0  0  0  0  0  0
    7.2230  -17.5735   23.9458 O   0  0  0  0  0  0  0  0  0  0  0  0
    8.6668  -16.0625   27.2369 C   0  0  0  0  0  0  0  0  0  0  0  0
    9.8038  -16.1681   28.0060 C   0  0  0  0  0  0  0  0  0  0  0  0
    7.6318  -15.4442   23.1887 N   0  0  0  0  0  0  0  0  0  0  0  0
    7.5537  -14.0071   23.2210 C   0  0  0  0  0  0  0  0  0  0  0  0
    7.6543  -13.5832   21.8022 C   0  0  0  0  0  0  0  0  0  0  0  0
    7.7708  -14.8371   20.9695 C   0  0  0  0  0  0  0  0  0  0  0  0
    8.3271  -15.8330   22.0148 C   0  0  1  0  0  0  0  0  0  0  0  0
    9.7714  -15.5996   22.0280 C   0  0  0  0  0  0  0  0  0  0  0  0
   10.2646  -14.6252   21.4314 O   0  0  0  0  0  0  0  0  0  0  0  0
   10.6374  -16.4730   22.7167 N   0  0  0  0  0  0  0  0  0  0  0  0
   12.0337  -16.1876   22.9821 C   0  0  1  0  0  0  0  0  0  0  0  0
   12.2184  -15.8750   24.4746 C   0  0  0  0  0  0  0  0  0  0  0  0
   10.8883  -16.5838   25.4542 S   0  0  0  0  0  0  0  0  0  0  0  0
   12.9125  -17.3095   22.5940 C   0  0  0  0  0  0  0  0  0  0  0  0
   14.2943  -17.2265   22.6659 O   0  0  0  0  0  0  0  0  0  0  0  0
   12.3952  -18.3632   22.1895 O   0  0  0  0  0  0  0  0  0  0  0  0
  1  2  1  0
  2  3  2  0
  3  4  1  0
  5  4  2  0
  5  6  1  0
  7  6  1  0
  7  8  1  1
  9  7  1  0
  9 13  1  0
 10  9  2  0
 11  5  1  0
 12  2  1  0
 12 11  2  0
 13 14  1  0
 14 15  1  0
 16 15  1  0
 17 13  1  0
 17 16  1  0
 17 18  1  1
 19 18  2  0
 20 18  1  0
 21 24  1  0
 21 20  1  0
 22 23  1  0
 21 22  1  1
 24 25  1  0
 26 24  2  0
M  END
$$$$
