YPC.pdb
     RDKit          3D

 26 27  0  0  1  0  0  0  0  0999 V2000
   11.3504  -14.8247   29.5073 O   0  0  0  0  0  0  0  0  0  0  0  0
   10.2481  -14.8437   28.6755 C   0  0  0  0  0  0  0  0  0  0  0  0
    9.6228  -16.0320   28.4069 C   0  0  0  0  0  0  0  0  0  0  0  0
    8.5281  -16.1066   27.5904 C   0  0  0  0  0  0  0  0  0  0  0  0
    7.9881  -14.9712   26.9853 C   0  0  0  0  0  0  0  0  0  0  0  0
    6.8232  -15.0806   26.0907 C   0  0  0  0  0  0  0  0  0  0  0  0
    6.6424  -16.4664   25.4778 C   0  0  2  0  0  0  0  0  0  0  0  0
    6.7980  -17.4427   26.5030 N   0  0  0  0  0  0  0  0  0  0  0  0
    7.4951  -16.5762   24.3057 C   0  0  0  0  0  0  0  0  0  0  0  0
    8.0833  -17.7322   24.2073 O   0  0  0  0  0  0  0  0  0  0  0  0
    8.6303  -13.7708   27.2646 C   0  0  0  0  0  0  0  0  0  0  0  0
    9.7317  -13.7097   28.0885 C   0  0  0  0  0  0  0  0  0  0  0  0
    7.7703  -15.6491   23.2926 N   0  0  0  0  0  0  0  0  0  0  0  0
    7.3215  -14.2813   23.2844 C   0  0  0  0  0  0  0  0  0  0  0  0
    7.2919  -13.8935   21.8521 C   0  0  0  0  0  0  0  0  0  0  0  0
    7.7208  -15.1013   21.0543 C   0  0  0  0  0  0  0  0  0  0  0  0
    8.5292  -15.8831   22.1169 C   0  0  1  0  0  0  0  0  0  0  0  0
    9.8631  -15.2825   22.0946 C   0  0  0  0  0  0  0  0  0  0  0  0
   10.0240  -14.0782   22.3640 O   0  0  0  0  0  0  0  0  0  0  0  0
   10.9966  -16.0539   21.7674 N   0  0  0  0  0  0  0  0  0  0  0  0
   12.1050  -16.2901   22.6715 C   0  0  1  0  0  0  0  0  0  0  0  0
   11.5692  -16.8051   24.0158 C   0  0  0  0  0  0  0  0  0  0  0  0
   12.4080  -16.0122   25.3939 S   0  0  0  0  0  0  0  0  0  0  0  0
   13.0763  -17.2552   22.1178 C   0  0  0  0  0  0  0  0  0  0  0  0
   14.4461  -17.0689   22.2214 O   0  0  0  0  0  0  0  0  0  0  0  0
   12.6509  -18.2682   21.5397 O   0  0  0  0  0  0  0  0  0  0  0  0
  1  2  1  0
  2  3  2  0
  3  4  1  0
  5  4  2  0
  5  6  1  0
  7  6  1  0
  7  8  1  1
  9  7  1  0
  9 13  1  0
 10  9  2  0
 11  5  1  0
 12  2  1  0
 12 11  2  0
 13 14  1  0
 14 15  1  0
 16 15  1  0
 17 13  1  0
 17 16  1  0
 17 18  1  1
 19 18  2  0
 20 18  1  0
 21 24  1  0
 21 20  1  0
 22 23  1  0
 21 22  1  1
 24 25  1  0
 26 24  2  0
M  END
$$$$
