VFM.pdb
     RDKit          3D

 27 27  0  0  1  0  0  0  0  0999 V2000
   11.0855  -20.2127   19.7698 C   0  0  0  0  0  0  0  0  0  0  0  0
   11.0281  -19.0057   20.6372 C   0  0  1  0  0  0  0  0  0  0  0  0
   12.1858  -18.0823   20.3471 C   0  0  0  0  0  0  0  0  0  0  0  0
    9.7214  -18.2642   20.5477 C   0  0  2  0  0  0  0  0  0  0  0  0
    9.4891  -17.8551   19.1409 N   0  0  0  0  0  0  0  0  0  0  0  0
    9.6806  -17.0421   21.3542 C   0  0  0  0  0  0  0  0  0  0  0  0
   10.6941  -16.2558   21.3815 O   0  0  0  0  0  0  0  0  0  0  0  0
    8.5970  -16.6105   22.1416 N   0  0  0  0  0  0  0  0  0  0  0  0
    8.6832  -15.3868   22.9508 C   0  0  1  0  0  0  0  0  0  0  0  0
    7.2771  -15.2214   23.4705 C   0  0  0  0  0  0  0  0  0  0  0  0
    7.0447  -14.2218   24.4775 C   0  0  0  0  0  0  0  0  0  0  0  0
    6.3035  -14.4913   25.5991 C   0  0  0  0  0  0  0  0  0  0  0  0
    6.0992  -13.5242   26.5844 C   0  0  0  0  0  0  0  0  0  0  0  0
    6.6632  -12.2879   26.4001 C   0  0  0  0  0  0  0  0  0  0  0  0
    7.4122  -11.9770   25.2917 C   0  0  0  0  0  0  0  0  0  0  0  0
    7.5879  -12.9659   24.3425 C   0  0  0  0  0  0  0  0  0  0  0  0
    9.6961  -15.5683   24.0362 C   0  0  0  0  0  0  0  0  0  0  0  0
   10.5665  -14.6890   24.1388 O   0  0  0  0  0  0  0  0  0  0  0  0
   11.8816  -12.9398   28.0435 C   0  0  0  0  0  0  0  0  0  0  0  0
   11.0226  -14.1455   29.0935 S   0  0  0  0  0  0  0  0  0  0  0  0
   11.0279  -15.7763   28.2543 C   0  0  0  0  0  0  0  0  0  0  0  0
   10.2930  -15.7015   26.9636 C   0  0  0  0  0  0  0  0  0  0  0  0
   10.3428  -16.9154   26.1072 C   0  0  2  0  0  0  0  0  0  0  0  0
    9.6375  -16.6908   24.8862 N   0  0  0  0  0  0  0  0  0  0  0  0
   10.1366  -18.1796   26.7980 C   0  0  0  0  0  0  0  0  0  0  0  0
    9.0262  -18.7914   26.7011 O   0  0  0  0  0  0  0  0  0  0  0  0
   11.0805  -18.7871   27.5818 O   0  0  0  0  0  0  0  0  0  0  0  0
  2  4  1  0
  2  1  1  6
  3  2  1  0
  4  6  1  0
  4  5  1  6
  6  7  2  0
  8  9  1  0
  8  6  1  0
  9 10  1  1
 10 11  1  0
 11 16  2  0
 12 13  2  0
 12 11  1  0
 13 14  1  0
 14 15  2  0
 16 15  1  0
 17 18  2  0
 17  9  1  0
 20 21  1  0
 20 19  1  0
 21 22  1  0
 23 22  1  1
 23 24  1  0
 23 25  1  0
 24 17  1  0
 25 27  1  0
 26 25  2  0
M  END
$$$$
