VFM.pdb
     RDKit          3D

 27 27  0  0  1  0  0  0  0  0999 V2000
    9.6290  -19.8009   21.2718 C   0  0  0  0  0  0  0  0  0  0  0  0
   10.1625  -19.0770   20.0870 C   0  0  1  0  0  0  0  0  0  0  0  0
   10.1237  -19.9553   18.8605 C   0  0  0  0  0  0  0  0  0  0  0  0
    9.4718  -17.7659   19.8239 C   0  0  2  0  0  0  0  0  0  0  0  0
   10.1177  -17.0988   18.6672 N   0  0  0  0  0  0  0  0  0  0  0  0
    9.5430  -16.8266   20.9457 C   0  0  0  0  0  0  0  0  0  0  0  0
   10.6320  -16.1916   21.1844 O   0  0  0  0  0  0  0  0  0  0  0  0
    8.4953  -16.5255   21.8357 N   0  0  0  0  0  0  0  0  0  0  0  0
    8.6795  -15.5639   22.9317 C   0  0  1  0  0  0  0  0  0  0  0  0
    7.3284  -14.9018   23.0358 C   0  0  0  0  0  0  0  0  0  0  0  0
    7.0796  -14.0542   24.1701 C   0  0  0  0  0  0  0  0  0  0  0  0
    6.3649  -14.4962   25.2536 C   0  0  0  0  0  0  0  0  0  0  0  0
    6.1448  -13.6769   26.3618 C   0  0  0  0  0  0  0  0  0  0  0  0
    6.6658  -12.4086   26.3388 C   0  0  0  0  0  0  0  0  0  0  0  0
    7.3871  -11.9271   25.2738 C   0  0  0  0  0  0  0  0  0  0  0  0
    7.5799  -12.7738   24.1987 C   0  0  0  0  0  0  0  0  0  0  0  0
    9.0796  -16.2877   24.1779 C   0  0  0  0  0  0  0  0  0  0  0  0
    8.3498  -17.2259   24.5361 O   0  0  0  0  0  0  0  0  0  0  0  0
   10.8541  -13.3486   29.6515 C   0  0  0  0  0  0  0  0  0  0  0  0
    9.4711  -13.4629   28.4818 S   0  0  0  0  0  0  0  0  0  0  0  0
   10.0668  -14.2360   26.9291 C   0  0  0  0  0  0  0  0  0  0  0  0
   10.6926  -15.5557   27.2097 C   0  0  0  0  0  0  0  0  0  0  0  0
   10.7925  -16.4937   26.0610 C   0  0  2  0  0  0  0  0  0  0  0  0
   10.2348  -15.9022   24.8872 N   0  0  0  0  0  0  0  0  0  0  0  0
   10.4655  -17.8812   26.3536 C   0  0  0  0  0  0  0  0  0  0  0  0
   11.0730  -18.5031   27.2814 O   0  0  0  0  0  0  0  0  0  0  0  0
    9.5191  -18.6041   25.6780 O   0  0  0  0  0  0  0  0  0  0  0  0
  2  4  1  0
  2  1  1  1
  3  2  1  0
  4  6  1  0
  4  5  1  6
  6  7  2  0
  8  9  1  0
  8  6  1  0
  9 10  1  1
 10 11  1  0
 11 16  2  0
 12 13  2  0
 12 11  1  0
 13 14  1  0
 14 15  2  0
 16 15  1  0
 17 18  2  0
 17  9  1  0
 20 21  1  0
 20 19  1  0
 21 22  1  0
 23 22  1  1
 23 24  1  0
 23 25  1  0
 24 17  1  0
 25 27  1  0
 26 25  2  0
M  END
$$$$
