VFM.pdb
     RDKit          3D

 27 27  0  0  1  0  0  0  0  0999 V2000
    8.8867  -21.3118   20.1516 C   0  0  0  0  0  0  0  0  0  0  0  0
    9.1884  -20.1069   20.9700 C   0  0  1  0  0  0  0  0  0  0  0  0
   10.6624  -20.0279   21.2834 C   0  0  0  0  0  0  0  0  0  0  0  0
    8.7076  -18.8235   20.3481 C   0  0  2  0  0  0  0  0  0  0  0  0
    9.4169  -18.6096   19.0630 N   0  0  0  0  0  0  0  0  0  0  0  0
    8.9605  -17.6386   21.1713 C   0  0  0  0  0  0  0  0  0  0  0  0
   10.0907  -17.0356   21.1001 O   0  0  0  0  0  0  0  0  0  0  0  0
    8.0544  -17.0561   22.0769 N   0  0  0  0  0  0  0  0  0  0  0  0
    8.4201  -15.8697   22.8635 C   0  0  1  0  0  0  0  0  0  0  0  0
    7.0838  -15.2519   23.1909 C   0  0  0  0  0  0  0  0  0  0  0  0
    7.0556  -14.1726   24.1403 C   0  0  0  0  0  0  0  0  0  0  0  0
    7.6496  -12.9659   23.8736 C   0  0  0  0  0  0  0  0  0  0  0  0
    7.6004  -11.9139   24.7894 C   0  0  0  0  0  0  0  0  0  0  0  0
    6.9376  -12.1200   25.9721 C   0  0  0  0  0  0  0  0  0  0  0  0
    6.3295  -13.3128   26.2783 C   0  0  0  0  0  0  0  0  0  0  0  0
    6.4039  -14.3260   25.3414 C   0  0  0  0  0  0  0  0  0  0  0  0
    9.1915  -16.2846   24.0758 C   0  0  0  0  0  0  0  0  0  0  0  0
    8.6769  -17.1589   24.7914 O   0  0  0  0  0  0  0  0  0  0  0  0
   10.2939  -12.5425   28.4093 C   0  0  0  0  0  0  0  0  0  0  0  0
   10.6892  -14.1183   29.2183 S   0  0  0  0  0  0  0  0  0  0  0  0
   11.3900  -15.2677   27.9728 C   0  0  0  0  0  0  0  0  0  0  0  0
   10.6682  -15.1386   26.6789 C   0  0  0  0  0  0  0  0  0  0  0  0
   11.2537  -15.8680   25.5237 C   0  0  2  0  0  0  0  0  0  0  0  0
   10.4392  -15.6959   24.3636 N   0  0  0  0  0  0  0  0  0  0  0  0
   11.7627  -17.1998   25.8151 C   0  0  0  0  0  0  0  0  0  0  0  0
   12.8782  -17.3463   26.4074 O   0  0  0  0  0  0  0  0  0  0  0  0
   11.1119  -18.3580   25.4842 O   0  0  0  0  0  0  0  0  0  0  0  0
  2  4  1  0
  2  1  1  6
  3  2  1  0
  4  6  1  0
  4  5  1  6
  6  7  2  0
  8  9  1  0
  8  6  1  0
  9 10  1  1
 10 11  1  0
 11 16  2  0
 12 13  2  0
 12 11  1  0
 13 14  1  0
 14 15  2  0
 16 15  1  0
 17 18  2  0
 17  9  1  0
 20 21  1  0
 20 19  1  0
 21 22  1  0
 23 22  1  1
 23 24  1  0
 23 25  1  0
 24 17  1  0
 25 27  1  0
 26 25  2  0
M  END
$$$$
