VFM.pdb
     RDKit          3D

 27 27  0  0  1  0  0  0  0  0999 V2000
   10.7601  -19.7441   21.2980 C   0  0  0  0  0  0  0  0  0  0  0  0
   10.9639  -18.9565   20.0527 C   0  0  1  0  0  0  0  0  0  0  0  0
   11.1149  -19.8693   18.8605 C   0  0  0  0  0  0  0  0  0  0  0  0
    9.8871  -17.9342   19.8064 C   0  0  2  0  0  0  0  0  0  0  0  0
   10.1746  -17.2201   18.5385 N   0  0  0  0  0  0  0  0  0  0  0  0
    9.7928  -16.9136   20.8528 C   0  0  0  0  0  0  0  0  0  0  0  0
   10.7660  -16.1004   21.0473 O   0  0  0  0  0  0  0  0  0  0  0  0
    8.6962  -16.7135   21.7118 N   0  0  0  0  0  0  0  0  0  0  0  0
    8.7540  -15.7330   22.8051 C   0  0  1  0  0  0  0  0  0  0  0  0
    7.3271  -15.2563   22.9120 C   0  0  0  0  0  0  0  0  0  0  0  0
    7.0065  -14.3195   23.9544 C   0  0  0  0  0  0  0  0  0  0  0  0
    7.4035  -13.0087   23.8888 C   0  0  0  0  0  0  0  0  0  0  0  0
    7.0709  -12.0980   24.8927 C   0  0  0  0  0  0  0  0  0  0  0  0
    6.3312  -12.5516   25.9546 C   0  0  0  0  0  0  0  0  0  0  0  0
    5.9137  -13.8558   26.0588 C   0  0  0  0  0  0  0  0  0  0  0  0
    6.2664  -14.7219   25.0412 C   0  0  0  0  0  0  0  0  0  0  0  0
    9.2504  -16.3938   24.0516 C   0  0  0  0  0  0  0  0  0  0  0  0
    8.6823  -17.4448   24.3893 O   0  0  0  0  0  0  0  0  0  0  0  0
    9.5809  -12.9153   28.9648 C   0  0  0  0  0  0  0  0  0  0  0  0
   11.0939  -13.8116   29.4135 S   0  0  0  0  0  0  0  0  0  0  0  0
   11.2073  -15.3343   28.3976 C   0  0  0  0  0  0  0  0  0  0  0  0
   10.8154  -15.0535   26.9907 C   0  0  0  0  0  0  0  0  0  0  0  0
   10.8122  -16.2161   26.0644 C   0  0  2  0  0  0  0  0  0  0  0  0
   10.3140  -15.8288   24.7836 N   0  0  0  0  0  0  0  0  0  0  0  0
   10.3440  -17.4708   26.6338 C   0  0  0  0  0  0  0  0  0  0  0  0
   11.1648  -18.4089   26.8846 O   0  0  0  0  0  0  0  0  0  0  0  0
    9.0338  -17.7363   26.9293 O   0  0  0  0  0  0  0  0  0  0  0  0
  2  4  1  0
  2  1  1  1
  3  2  1  0
  4  6  1  0
  4  5  1  6
  6  7  2  0
  8  9  1  0
  8  6  1  0
  9 10  1  1
 10 11  1  0
 11 16  2  0
 12 13  2  0
 12 11  1  0
 13 14  1  0
 14 15  2  0
 16 15  1  0
 17 18  2  0
 17  9  1  0
 20 21  1  0
 20 19  1  0
 21 22  1  0
 23 22  1  1
 23 24  1  0
 23 25  1  0
 24 17  1  0
 25 27  1  0
 26 25  2  0
M  END
$$$$
