VFM.pdb
     RDKit          3D

 27 27  0  0  1  0  0  0  0  0999 V2000
   10.2506  -20.7274   20.5365 C   0  0  0  0  0  0  0  0  0  0  0  0
   10.2413  -19.4908   21.3630 C   0  0  1  0  0  0  0  0  0  0  0  0
   11.6213  -19.1921   21.8955 C   0  0  0  0  0  0  0  0  0  0  0  0
    9.6779  -18.2938   20.6454 C   0  0  2  0  0  0  0  0  0  0  0  0
   10.5308  -17.9836   19.4721 N   0  0  0  0  0  0  0  0  0  0  0  0
    9.6332  -17.0814   21.4662 C   0  0  0  0  0  0  0  0  0  0  0  0
   10.6435  -16.2913   21.5013 O   0  0  0  0  0  0  0  0  0  0  0  0
    8.5490  -16.6636   22.2601 N   0  0  0  0  0  0  0  0  0  0  0  0
    8.6371  -15.4583   23.0964 C   0  0  1  0  0  0  0  0  0  0  0  0
    7.2375  -15.3170   23.6402 C   0  0  0  0  0  0  0  0  0  0  0  0
    6.9588  -14.1983   24.4993 C   0  0  0  0  0  0  0  0  0  0  0  0
    7.3744  -12.9302   24.1846 C   0  0  0  0  0  0  0  0  0  0  0  0
    7.0823  -11.8440   25.0109 C   0  0  0  0  0  0  0  0  0  0  0  0
    6.3633  -12.0799   26.1545 C   0  0  0  0  0  0  0  0  0  0  0  0
    5.9282  -13.3341   26.5064 C   0  0  0  0  0  0  0  0  0  0  0  0
    6.2408  -14.3792   25.6580 C   0  0  0  0  0  0  0  0  0  0  0  0
    9.6672  -15.6566   24.1625 C   0  0  0  0  0  0  0  0  0  0  0  0
   10.6624  -14.9155   24.1205 O   0  0  0  0  0  0  0  0  0  0  0  0
   10.6132  -12.5708   28.3678 C   0  0  0  0  0  0  0  0  0  0  0  0
   11.0320  -14.2020   29.0445 S   0  0  0  0  0  0  0  0  0  0  0  0
   11.4406  -15.3337   27.6603 C   0  0  0  0  0  0  0  0  0  0  0  0
   10.2953  -16.2367   27.3690 C   0  0  0  0  0  0  0  0  0  0  0  0
   10.4145  -17.0773   26.1489 C   0  0  2  0  0  0  0  0  0  0  0  0
    9.4876  -16.6421   25.1538 N   0  0  0  0  0  0  0  0  0  0  0  0
   10.5514  -18.5071   26.3828 C   0  0  0  0  0  0  0  0  0  0  0  0
   11.4410  -18.9462   27.1780 O   0  0  0  0  0  0  0  0  0  0  0  0
    9.7692  -19.4592   25.7860 O   0  0  0  0  0  0  0  0  0  0  0  0
  2  4  1  0
  2  1  1  6
  3  2  1  0
  4  6  1  0
  4  5  1  6
  6  7  2  0
  8  9  1  0
  8  6  1  0
  9 10  1  1
 10 11  1  0
 11 16  2  0
 12 13  2  0
 12 11  1  0
 13 14  1  0
 14 15  2  0
 16 15  1  0
 17 18  2  0
 17  9  1  0
 20 21  1  0
 20 19  1  0
 21 22  1  0
 23 22  1  1
 23 24  1  0
 23 25  1  0
 24 17  1  0
 25 27  1  0
 26 25  2  0
M  END
$$$$
