VFM.pdb
     RDKit          3D

 27 27  0  0  1  0  0  0  0  0999 V2000
    8.3958  -20.1896   19.5560 C   0  0  0  0  0  0  0  0  0  0  0  0
    8.7114  -19.3281   20.7268 C   0  0  1  0  0  0  0  0  0  0  0  0
   10.0834  -19.6440   21.2698 C   0  0  0  0  0  0  0  0  0  0  0  0
    8.5784  -17.8562   20.4418 C   0  0  2  0  0  0  0  0  0  0  0  0
    9.5815  -17.4654   19.4214 N   0  0  0  0  0  0  0  0  0  0  0  0
    8.8133  -17.0058   21.6111 C   0  0  0  0  0  0  0  0  0  0  0  0
   10.0059  -16.6389   21.9100 O   0  0  0  0  0  0  0  0  0  0  0  0
    7.8256  -16.5191   22.4875 N   0  0  0  0  0  0  0  0  0  0  0  0
    8.1832  -15.7376   23.6797 C   0  0  1  0  0  0  0  0  0  0  0  0
    7.0206  -14.7882   23.8269 C   0  0  0  0  0  0  0  0  0  0  0  0
    7.0400  -13.8660   24.9298 C   0  0  0  0  0  0  0  0  0  0  0  0
    6.4401  -14.1647   26.1261 C   0  0  0  0  0  0  0  0  0  0  0  0
    6.4806  -13.2753   27.2009 C   0  0  0  0  0  0  0  0  0  0  0  0
    7.1408  -12.0859   27.0282 C   0  0  0  0  0  0  0  0  0  0  0  0
    7.7546  -11.7481   25.8469 C   0  0  0  0  0  0  0  0  0  0  0  0
    7.6888  -12.6596   24.8102 C   0  0  0  0  0  0  0  0  0  0  0  0
    8.3512  -16.6512   24.8518 C   0  0  0  0  0  0  0  0  0  0  0  0
    7.7029  -17.7098   24.8307 O   0  0  0  0  0  0  0  0  0  0  0  0
   13.5134  -18.0006   22.5060 C   0  0  0  0  0  0  0  0  0  0  0  0
   12.9720  -18.9964   23.9234 S   0  0  0  0  0  0  0  0  0  0  0  0
   12.5710  -17.8766   25.3195 C   0  0  0  0  0  0  0  0  0  0  0  0
   11.2726  -17.1913   25.0826 C   0  0  0  0  0  0  0  0  0  0  0  0
   10.4478  -16.9106   26.2869 C   0  0  2  0  0  0  0  0  0  0  0  0
    9.2122  -16.3016   25.9114 N   0  0  0  0  0  0  0  0  0  0  0  0
   11.1674  -16.3607   27.4260 C   0  0  0  0  0  0  0  0  0  0  0  0
   12.1926  -16.9550   27.8867 O   0  0  0  0  0  0  0  0  0  0  0  0
   10.8112  -15.2078   28.0730 O   0  0  0  0  0  0  0  0  0  0  0  0
  2  4  1  0
  2  1  1  6
  3  2  1  0
  4  6  1  0
  4  5  1  6
  6  7  2  0
  8  9  1  0
  8  6  1  0
  9 10  1  1
 10 11  1  0
 11 16  2  0
 12 13  2  0
 12 11  1  0
 13 14  1  0
 14 15  2  0
 16 15  1  0
 17 18  2  0
 17  9  1  0
 20 21  1  0
 20 19  1  0
 21 22  1  0
 23 22  1  6
 23 24  1  0
 23 25  1  0
 24 17  1  0
 25 27  1  0
 26 25  2  0
M  END
$$$$
