VFM.pdb
     RDKit          3D

 27 27  0  0  1  0  0  0  0  0999 V2000
   10.3920  -19.9671   19.2112 C   0  0  0  0  0  0  0  0  0  0  0  0
   10.4937  -19.0789   20.4001 C   0  0  1  0  0  0  0  0  0  0  0  0
   11.8086  -19.2845   21.1112 C   0  0  0  0  0  0  0  0  0  0  0  0
   10.2839  -17.6230   20.0810 C   0  0  2  0  0  0  0  0  0  0  0  0
   11.4502  -17.1195   19.3151 N   0  0  0  0  0  0  0  0  0  0  0  0
   10.1588  -16.7718   21.2664 C   0  0  0  0  0  0  0  0  0  0  0  0
   11.2046  -16.2527   21.7983 O   0  0  0  0  0  0  0  0  0  0  0  0
    8.9571  -16.4407   21.9197 N   0  0  0  0  0  0  0  0  0  0  0  0
    8.9524  -15.6028   23.1271 C   0  0  1  0  0  0  0  0  0  0  0  0
    7.6149  -14.9095   23.0562 C   0  0  0  0  0  0  0  0  0  0  0  0
    7.1903  -14.1472   24.1990 C   0  0  0  0  0  0  0  0  0  0  0  0
    6.2973  -14.6533   25.1081 C   0  0  0  0  0  0  0  0  0  0  0  0
    5.9051  -13.9180   26.2276 C   0  0  0  0  0  0  0  0  0  0  0  0
    6.4400  -12.6666   26.3960 C   0  0  0  0  0  0  0  0  0  0  0  0
    7.3369  -12.1227   25.5095 C   0  0  0  0  0  0  0  0  0  0  0  0
    7.6963  -12.8872   24.4156 C   0  0  0  0  0  0  0  0  0  0  0  0
    9.1075  -16.4632   24.3406 C   0  0  0  0  0  0  0  0  0  0  0  0
    8.4941  -17.5426   24.3405 O   0  0  0  0  0  0  0  0  0  0  0  0
    9.9084  -13.8697   29.8288 C   0  0  0  0  0  0  0  0  0  0  0  0
    9.9091  -13.4163   28.0715 S   0  0  0  0  0  0  0  0  0  0  0  0
   11.1120  -14.4781   27.1830 C   0  0  0  0  0  0  0  0  0  0  0  0
   10.9386  -15.9027   27.5734 C   0  0  0  0  0  0  0  0  0  0  0  0
   10.3585  -16.8013   26.5413 C   0  0  2  0  0  0  0  0  0  0  0  0
    9.9190  -16.0436   25.4137 N   0  0  0  0  0  0  0  0  0  0  0  0
    9.4886  -17.8544   27.0434 C   0  0  0  0  0  0  0  0  0  0  0  0
    9.9134  -18.6792   27.9128 O   0  0  0  0  0  0  0  0  0  0  0  0
    8.1954  -18.0400   26.6339 O   0  0  0  0  0  0  0  0  0  0  0  0
  2  4  1  0
  2  1  1  6
  3  2  1  0
  4  6  1  0
  4  5  1  1
  6  7  2  0
  8  9  1  0
  8  6  1  0
  9 10  1  1
 10 11  1  0
 11 16  2  0
 12 13  2  0
 12 11  1  0
 13 14  1  0
 14 15  2  0
 16 15  1  0
 17 18  2  0
 17  9  1  0
 20 21  1  0
 20 19  1  0
 21 22  1  0
 23 22  1  1
 23 24  1  0
 23 25  1  0
 24 17  1  0
 25 27  1  0
 26 25  2  0
M  END
$$$$
