VFM.pdb
     RDKit          3D

 27 27  0  0  1  0  0  0  0  0999 V2000
   10.5674  -19.8481   21.1487 C   0  0  0  0  0  0  0  0  0  0  0  0
   10.6544  -19.0624   19.8887 C   0  0  1  0  0  0  0  0  0  0  0  0
   10.6978  -19.9770   18.6892 C   0  0  0  0  0  0  0  0  0  0  0  0
    9.5572  -18.0429   19.7404 C   0  0  2  0  0  0  0  0  0  0  0  0
    9.7295  -17.3258   18.4534 N   0  0  0  0  0  0  0  0  0  0  0  0
    9.5526  -17.0244   20.7931 C   0  0  0  0  0  0  0  0  0  0  0  0
   10.5213  -16.1878   20.8823 O   0  0  0  0  0  0  0  0  0  0  0  0
    8.5514  -16.8504   21.7667 N   0  0  0  0  0  0  0  0  0  0  0  0
    8.7191  -15.8930   22.8690 C   0  0  1  0  0  0  0  0  0  0  0  0
    7.3619  -15.2424   22.9656 C   0  0  0  0  0  0  0  0  0  0  0  0
    7.0984  -14.3997   24.1002 C   0  0  0  0  0  0  0  0  0  0  0  0
    6.4089  -14.8604   25.1922 C   0  0  0  0  0  0  0  0  0  0  0  0
    6.1747  -14.0451   26.3004 C   0  0  0  0  0  0  0  0  0  0  0  0
    6.6559  -12.7613   26.2688 C   0  0  0  0  0  0  0  0  0  0  0  0
    7.3511  -12.2608   25.1953 C   0  0  0  0  0  0  0  0  0  0  0  0
    7.5591  -13.1042   24.1204 C   0  0  0  0  0  0  0  0  0  0  0  0
    9.1151  -16.6200   24.1147 C   0  0  0  0  0  0  0  0  0  0  0  0
    8.5727  -17.7186   24.3149 O   0  0  0  0  0  0  0  0  0  0  0  0
    8.7342  -13.5066   29.4233 C   0  0  0  0  0  0  0  0  0  0  0  0
    9.9030  -14.8350   29.0194 S   0  0  0  0  0  0  0  0  0  0  0  0
   10.6365  -14.5020   27.3717 C   0  0  0  0  0  0  0  0  0  0  0  0
   11.4390  -15.6669   26.9126 C   0  0  0  0  0  0  0  0  0  0  0  0
   10.7187  -16.6829   26.1013 C   0  0  2  0  0  0  0  0  0  0  0  0
   10.0617  -16.0612   24.9965 N   0  0  0  0  0  0  0  0  0  0  0  0
    9.9880  -17.6879   26.8590 C   0  0  0  0  0  0  0  0  0  0  0  0
    8.7208  -17.7563   26.7809 O   0  0  0  0  0  0  0  0  0  0  0  0
   10.5799  -18.6019   27.6889 O   0  0  0  0  0  0  0  0  0  0  0  0
  2  4  1  0
  2  1  1  1
  3  2  1  0
  4  6  1  0
  4  5  1  6
  6  7  2  0
  8  9  1  0
  8  6  1  0
  9 10  1  1
 10 11  1  0
 11 16  2  0
 12 13  2  0
 12 11  1  0
 13 14  1  0
 14 15  2  0
 16 15  1  0
 17 18  2  0
 17  9  1  0
 20 21  1  0
 20 19  1  0
 21 22  1  0
 23 22  1  1
 23 24  1  0
 23 25  1  0
 24 17  1  0
 25 27  1  0
 26 25  2  0
M  END
$$$$
