VFM.pdb
     RDKit          3D

 27 27  0  0  1  0  0  0  0  0999 V2000
   10.8010  -19.7868   20.6823 C   0  0  0  0  0  0  0  0  0  0  0  0
   11.2071  -18.7719   19.6734 C   0  0  1  0  0  0  0  0  0  0  0  0
   11.4795  -19.4223   18.3393 C   0  0  0  0  0  0  0  0  0  0  0  0
   10.2196  -17.6459   19.5241 C   0  0  2  0  0  0  0  0  0  0  0  0
   10.6778  -16.7364   18.4457 N   0  0  0  0  0  0  0  0  0  0  0  0
   10.0712  -16.8282   20.7303 C   0  0  0  0  0  0  0  0  0  0  0  0
   11.0682  -16.1563   21.1783 O   0  0  0  0  0  0  0  0  0  0  0  0
    8.8955  -16.6882   21.4911 N   0  0  0  0  0  0  0  0  0  0  0  0
    8.8671  -15.8580   22.7034 C   0  0  1  0  0  0  0  0  0  0  0  0
    7.4329  -15.3957   22.7670 C   0  0  0  0  0  0  0  0  0  0  0  0
    7.0699  -14.4678   23.8036 C   0  0  0  0  0  0  0  0  0  0  0  0
    6.2894  -14.8467   24.8653 C   0  0  0  0  0  0  0  0  0  0  0  0
    5.9580  -13.9481   25.8805 C   0  0  0  0  0  0  0  0  0  0  0  0
    6.4370  -12.6665   25.7877 C   0  0  0  0  0  0  0  0  0  0  0  0
    7.2214  -12.2464   24.7416 C   0  0  0  0  0  0  0  0  0  0  0  0
    7.5239  -13.1707   23.7596 C   0  0  0  0  0  0  0  0  0  0  0  0
    9.2765  -16.6761   23.8866 C   0  0  0  0  0  0  0  0  0  0  0  0
    9.6487  -17.8383   23.6585 O   0  0  0  0  0  0  0  0  0  0  0  0
   10.6183  -12.4783   28.5451 C   0  0  0  0  0  0  0  0  0  0  0  0
   10.8030  -13.9792   29.5487 S   0  0  0  0  0  0  0  0  0  0  0  0
   10.9842  -15.4232   28.4326 C   0  0  0  0  0  0  0  0  0  0  0  0
   10.1269  -15.2626   27.2280 C   0  0  0  0  0  0  0  0  0  0  0  0
   10.0736  -16.4222   26.2996 C   0  0  2  0  0  0  0  0  0  0  0  0
    9.2336  -16.1263   25.1835 N   0  0  0  0  0  0  0  0  0  0  0  0
    9.9433  -17.7266   26.9315 C   0  0  0  0  0  0  0  0  0  0  0  0
   10.8320  -18.1404   27.7412 O   0  0  0  0  0  0  0  0  0  0  0  0
    8.8985  -18.5836   26.7112 O   0  0  0  0  0  0  0  0  0  0  0  0
  2  4  1  0
  2  1  1  1
  3  2  1  0
  4  6  1  0
  4  5  1  6
  6  7  2  0
  8  9  1  0
  8  6  1  0
  9 10  1  1
 10 11  1  0
 11 16  2  0
 12 13  2  0
 12 11  1  0
 13 14  1  0
 14 15  2  0
 16 15  1  0
 17 18  2  0
 17  9  1  0
 20 21  1  0
 20 19  1  0
 21 22  1  0
 23 22  1  1
 23 24  1  0
 23 25  1  0
 24 17  1  0
 25 27  1  0
 26 25  2  0
M  END
$$$$
