VFM.pdb
     RDKit          3D

 27 27  0  0  1  0  0  0  0  0999 V2000
    9.7531  -20.1616   21.3483 C   0  0  0  0  0  0  0  0  0  0  0  0
    9.8482  -19.5775   19.9837 C   0  0  1  0  0  0  0  0  0  0  0  0
    9.6889  -20.6470   18.9311 C   0  0  0  0  0  0  0  0  0  0  0  0
    8.8813  -18.4489   19.7454 C   0  0  2  0  0  0  0  0  0  0  0  0
    9.0557  -17.9422   18.3623 N   0  0  0  0  0  0  0  0  0  0  0  0
    9.0768  -17.3062   20.6407 C   0  0  0  0  0  0  0  0  0  0  0  0
   10.1597  -16.6206   20.5809 O   0  0  0  0  0  0  0  0  0  0  0  0
    8.1613  -16.8513   21.6078 N   0  0  0  0  0  0  0  0  0  0  0  0
    8.5171  -15.7806   22.5495 C   0  0  1  0  0  0  0  0  0  0  0  0
    7.2171  -15.0372   22.7284 C   0  0  0  0  0  0  0  0  0  0  0  0
    7.1313  -14.0781   23.7961 C   0  0  0  0  0  0  0  0  0  0  0  0
    7.7402  -12.8525   23.7109 C   0  0  0  0  0  0  0  0  0  0  0  0
    7.6356  -11.9164   24.7408 C   0  0  0  0  0  0  0  0  0  0  0  0
    6.9025  -12.2569   25.8486 C   0  0  0  0  0  0  0  0  0  0  0  0
    6.2772  -13.4732   25.9737 C   0  0  0  0  0  0  0  0  0  0  0  0
    6.4082  -14.3685   24.9290 C   0  0  0  0  0  0  0  0  0  0  0  0
    9.0363  -16.3757   23.8196 C   0  0  0  0  0  0  0  0  0  0  0  0
    8.3488  -17.2704   24.3375 O   0  0  0  0  0  0  0  0  0  0  0  0
    9.8141  -12.8324   29.1663 C   0  0  0  0  0  0  0  0  0  0  0  0
    9.2876  -14.5687   29.2089 S   0  0  0  0  0  0  0  0  0  0  0  0
   10.3811  -15.5496   28.1108 C   0  0  0  0  0  0  0  0  0  0  0  0
    9.9881  -15.3705   26.6877 C   0  0  0  0  0  0  0  0  0  0  0  0
   10.7627  -16.1519   25.6883 C   0  0  2  0  0  0  0  0  0  0  0  0
   10.2503  -15.9243   24.3751 N   0  0  0  0  0  0  0  0  0  0  0  0
   11.0859  -17.5176   26.0732 C   0  0  0  0  0  0  0  0  0  0  0  0
   12.2683  -17.8231   26.4270 O   0  0  0  0  0  0  0  0  0  0  0  0
   10.1818  -18.5457   26.0806 O   0  0  0  0  0  0  0  0  0  0  0  0
  2  4  1  0
  2  1  1  1
  3  2  1  0
  4  6  1  0
  4  5  1  6
  6  7  2  0
  8  9  1  0
  8  6  1  0
  9 10  1  1
 10 11  1  0
 11 16  2  0
 12 13  2  0
 12 11  1  0
 13 14  1  0
 14 15  2  0
 16 15  1  0
 17 18  2  0
 17  9  1  0
 20 21  1  0
 20 19  1  0
 21 22  1  0
 23 22  1  1
 23 24  1  0
 23 25  1  0
 24 17  1  0
 25 27  1  0
 26 25  2  0
M  END
$$$$
