VFM.pdb
     RDKit          3D

 27 27  0  0  1  0  0  0  0  0999 V2000
   12.0713  -19.1582   20.9910 C   0  0  0  0  0  0  0  0  0  0  0  0
   11.4092  -18.5619   19.7999 C   0  0  1  0  0  0  0  0  0  0  0  0
   11.4609  -19.5105   18.6275 C   0  0  0  0  0  0  0  0  0  0  0  0
    9.9958  -18.1150   20.0602 C   0  0  2  0  0  0  0  0  0  0  0  0
    9.3637  -17.7262   18.7758 N   0  0  0  0  0  0  0  0  0  0  0  0
    9.8987  -16.9528   20.9464 C   0  0  0  0  0  0  0  0  0  0  0  0
   10.8229  -16.0628   20.9430 O   0  0  0  0  0  0  0  0  0  0  0  0
    8.8496  -16.6884   21.8463 N   0  0  0  0  0  0  0  0  0  0  0  0
    8.9148  -15.5560   22.7808 C   0  0  1  0  0  0  0  0  0  0  0  0
    7.5350  -15.5357   23.3894 C   0  0  0  0  0  0  0  0  0  0  0  0
    7.2477  -14.5271   24.3729 C   0  0  0  0  0  0  0  0  0  0  0  0
    7.7490  -13.2554   24.2649 C   0  0  0  0  0  0  0  0  0  0  0  0
    7.4493  -12.2738   25.2106 C   0  0  0  0  0  0  0  0  0  0  0  0
    6.6341  -12.6166   26.2587 C   0  0  0  0  0  0  0  0  0  0  0  0
    6.1112  -13.8782   26.4039 C   0  0  0  0  0  0  0  0  0  0  0  0
    6.4351  -14.8177   25.4434 C   0  0  0  0  0  0  0  0  0  0  0  0
    9.9990  -15.7899   23.7842 C   0  0  0  0  0  0  0  0  0  0  0  0
   11.0231  -15.0975   23.6696 O   0  0  0  0  0  0  0  0  0  0  0  0
    9.6262  -12.5699   28.5034 C   0  0  0  0  0  0  0  0  0  0  0  0
    9.9570  -14.2373   29.1392 S   0  0  0  0  0  0  0  0  0  0  0  0
    9.4301  -15.4680   27.8856 C   0  0  0  0  0  0  0  0  0  0  0  0
   10.4191  -15.5403   26.7773 C   0  0  0  0  0  0  0  0  0  0  0  0
   10.5063  -16.8377   26.0573 C   0  0  2  0  0  0  0  0  0  0  0  0
    9.8356  -16.7535   24.7996 N   0  0  0  0  0  0  0  0  0  0  0  0
   10.2916  -18.0237   26.8729 C   0  0  0  0  0  0  0  0  0  0  0  0
   11.0350  -18.2559   27.8779 O   0  0  0  0  0  0  0  0  0  0  0  0
    9.3149  -18.9524   26.6322 O   0  0  0  0  0  0  0  0  0  0  0  0
  2  4  1  0
  2  1  1  1
  3  2  1  0
  4  6  1  0
  4  5  1  6
  6  7  2  0
  8  9  1  0
  8  6  1  0
  9 10  1  1
 10 11  1  0
 11 16  2  0
 12 13  2  0
 12 11  1  0
 13 14  1  0
 14 15  2  0
 16 15  1  0
 17 18  2  0
 17  9  1  0
 20 21  1  0
 20 19  1  0
 21 22  1  0
 23 22  1  1
 23 24  1  0
 23 25  1  0
 24 17  1  0
 25 27  1  0
 26 25  2  0
M  END
$$$$
