VFM.pdb
     RDKit          3D

 27 27  0  0  1  0  0  0  0  0999 V2000
    9.6933  -20.4446   19.3617 C   0  0  0  0  0  0  0  0  0  0  0  0
    9.8628  -19.4052   20.4121 C   0  0  1  0  0  0  0  0  0  0  0  0
   11.2839  -19.3829   20.9190 C   0  0  0  0  0  0  0  0  0  0  0  0
    9.4341  -18.0314   19.9713 C   0  0  2  0  0  0  0  0  0  0  0  0
   10.3200  -17.5738   18.8732 N   0  0  0  0  0  0  0  0  0  0  0  0
    9.5165  -17.0207   21.0283 C   0  0  0  0  0  0  0  0  0  0  0  0
   10.6226  -16.4086   21.2476 O   0  0  0  0  0  0  0  0  0  0  0  0
    8.4629  -16.6238   21.8726 N   0  0  0  0  0  0  0  0  0  0  0  0
    8.6730  -15.6355   22.9399 C   0  0  1  0  0  0  0  0  0  0  0  0
    7.3124  -15.0031   23.0922 C   0  0  0  0  0  0  0  0  0  0  0  0
    7.1346  -14.0318   24.1373 C   0  0  0  0  0  0  0  0  0  0  0  0
    7.5702  -12.7392   23.9978 C   0  0  0  0  0  0  0  0  0  0  0  0
    7.3756  -11.7943   25.0064 C   0  0  0  0  0  0  0  0  0  0  0  0
    6.7325  -12.1953   26.1493 C   0  0  0  0  0  0  0  0  0  0  0  0
    6.2806  -13.4797   26.3290 C   0  0  0  0  0  0  0  0  0  0  0  0
    6.4955  -14.3811   25.3036 C   0  0  0  0  0  0  0  0  0  0  0  0
    9.1462  -16.3237   24.1806 C   0  0  0  0  0  0  0  0  0  0  0  0
    8.5240  -17.3412   24.5253 O   0  0  0  0  0  0  0  0  0  0  0  0
   10.2677  -14.3623   30.3316 C   0  0  0  0  0  0  0  0  0  0  0  0
   10.4281  -13.2572   28.9008 S   0  0  0  0  0  0  0  0  0  0  0  0
   11.1319  -14.2018   27.4950 C   0  0  0  0  0  0  0  0  0  0  0  0
   10.3529  -15.4468   27.2606 C   0  0  0  0  0  0  0  0  0  0  0  0
   10.7994  -16.2983   26.1270 C   0  0  2  0  0  0  0  0  0  0  0  0
   10.2485  -15.8198   24.8998 N   0  0  0  0  0  0  0  0  0  0  0  0
   10.7837  -17.7322   26.3750 C   0  0  0  0  0  0  0  0  0  0  0  0
    9.6885  -18.3308   26.6174 O   0  0  0  0  0  0  0  0  0  0  0  0
   11.9020  -18.5221   26.3734 O   0  0  0  0  0  0  0  0  0  0  0  0
  2  4  1  0
  2  1  1  6
  3  2  1  0
  4  6  1  0
  4  5  1  6
  6  7  2  0
  8  9  1  0
  8  6  1  0
  9 10  1  1
 10 11  1  0
 11 16  2  0
 12 13  2  0
 12 11  1  0
 13 14  1  0
 14 15  2  0
 16 15  1  0
 17 18  2  0
 17  9  1  0
 20 21  1  0
 20 19  1  0
 21 22  1  0
 23 22  1  1
 23 24  1  0
 23 25  1  0
 24 17  1  0
 25 27  1  0
 26 25  2  0
M  END
$$$$
