VFM.pdb
     RDKit          3D

 27 27  0  0  1  0  0  0  0  0999 V2000
   12.0552  -17.5343   18.9605 C   0  0  0  0  0  0  0  0  0  0  0  0
   10.5979  -17.8150   18.8595 C   0  0  1  0  0  0  0  0  0  0  0  0
   10.3248  -18.8529   17.7987 C   0  0  0  0  0  0  0  0  0  0  0  0
    9.9719  -18.2151   20.1684 C   0  0  2  0  0  0  0  0  0  0  0  0
    8.5863  -18.6840   19.9222 N   0  0  0  0  0  0  0  0  0  0  0  0
    9.8804  -17.1203   21.1372 C   0  0  0  0  0  0  0  0  0  0  0  0
   10.8452  -16.2825   21.2535 O   0  0  0  0  0  0  0  0  0  0  0  0
    8.7953  -16.8703   21.9977 N   0  0  0  0  0  0  0  0  0  0  0  0
    8.9012  -15.8976   23.0943 C   0  0  1  0  0  0  0  0  0  0  0  0
    7.5039  -15.3383   23.1907 C   0  0  0  0  0  0  0  0  0  0  0  0
    7.2177  -14.4224   24.2614 C   0  0  0  0  0  0  0  0  0  0  0  0
    7.6744  -13.1297   24.2419 C   0  0  0  0  0  0  0  0  0  0  0  0
    7.3753  -12.2380   25.2731 C   0  0  0  0  0  0  0  0  0  0  0  0
    6.6070  -12.6919   26.3143 C   0  0  0  0  0  0  0  0  0  0  0  0
    6.1298  -13.9783   26.3725 C   0  0  0  0  0  0  0  0  0  0  0  0
    6.4511  -14.8259   25.3292 C   0  0  0  0  0  0  0  0  0  0  0  0
    9.3474  -16.5895   24.3430 C   0  0  0  0  0  0  0  0  0  0  0  0
    8.6834  -17.5754   24.7014 O   0  0  0  0  0  0  0  0  0  0  0  0
    9.6398  -11.9804   28.6239 C   0  0  0  0  0  0  0  0  0  0  0  0
   10.1414  -13.7044   28.8890 S   0  0  0  0  0  0  0  0  0  0  0  0
   10.4037  -14.5054   27.2602 C   0  0  0  0  0  0  0  0  0  0  0  0
   10.6860  -15.9555   27.4311 C   0  0  0  0  0  0  0  0  0  0  0  0
   11.0901  -16.6955   26.2069 C   0  0  2  0  0  0  0  0  0  0  0  0
   10.4713  -16.1235   25.0542 N   0  0  0  0  0  0  0  0  0  0  0  0
   11.1106  -18.1455   26.3282 C   0  0  0  0  0  0  0  0  0  0  0  0
   11.7793  -18.7039   27.2543 O   0  0  0  0  0  0  0  0  0  0  0  0
   10.4432  -18.9941   25.4861 O   0  0  0  0  0  0  0  0  0  0  0  0
  2  4  1  0
  2  1  1  1
  3  2  1  0
  4  6  1  0
  4  5  1  6
  6  7  2  0
  8  9  1  0
  8  6  1  0
  9 10  1  1
 10 11  1  0
 11 16  2  0
 12 13  2  0
 12 11  1  0
 13 14  1  0
 14 15  2  0
 16 15  1  0
 17 18  2  0
 17  9  1  0
 20 21  1  0
 20 19  1  0
 21 22  1  0
 23 22  1  1
 23 24  1  0
 23 25  1  0
 24 17  1  0
 25 27  1  0
 26 25  2  0
M  END
$$$$
