VFM.pdb
     RDKit          3D

 27 27  0  0  1  0  0  0  0  0999 V2000
    9.4287  -20.4050   19.1665 C   0  0  0  0  0  0  0  0  0  0  0  0
    9.6428  -19.3789   20.2218 C   0  0  1  0  0  0  0  0  0  0  0  0
   10.9985  -19.5454   20.8634 C   0  0  0  0  0  0  0  0  0  0  0  0
    9.4558  -17.9677   19.7331 C   0  0  2  0  0  0  0  0  0  0  0  0
   10.5134  -17.6513   18.7423 N   0  0  0  0  0  0  0  0  0  0  0  0
    9.5544  -16.9595   20.7911 C   0  0  0  0  0  0  0  0  0  0  0  0
   10.6900  -16.4339   21.0745 O   0  0  0  0  0  0  0  0  0  0  0  0
    8.4869  -16.4762   21.5705 N   0  0  0  0  0  0  0  0  0  0  0  0
    8.7036  -15.4676   22.6172 C   0  0  1  0  0  0  0  0  0  0  0  0
    7.3480  -14.8208   22.7539 C   0  0  0  0  0  0  0  0  0  0  0  0
    7.1194  -13.9700   23.8902 C   0  0  0  0  0  0  0  0  0  0  0  0
    6.3950  -14.3974   24.9730 C   0  0  0  0  0  0  0  0  0  0  0  0
    6.1945  -13.5755   26.0830 C   0  0  0  0  0  0  0  0  0  0  0  0
    6.7451  -12.3198   26.0625 C   0  0  0  0  0  0  0  0  0  0  0  0
    7.4771  -11.8530   24.9983 C   0  0  0  0  0  0  0  0  0  0  0  0
    7.6497  -12.7017   23.9213 C   0  0  0  0  0  0  0  0  0  0  0  0
    9.1690  -16.1336   23.8729 C   0  0  0  0  0  0  0  0  0  0  0  0
    8.5052  -17.1060   24.2669 O   0  0  0  0  0  0  0  0  0  0  0  0
   10.4002  -12.5713   29.1987 C   0  0  0  0  0  0  0  0  0  0  0  0
    9.7780  -14.2591   29.4400 S   0  0  0  0  0  0  0  0  0  0  0  0
   10.6473  -15.3853   28.2827 C   0  0  0  0  0  0  0  0  0  0  0  0
   10.1908  -15.1530   26.8865 C   0  0  0  0  0  0  0  0  0  0  0  0
   10.7885  -16.0288   25.8448 C   0  0  2  0  0  0  0  0  0  0  0  0
   10.3097  -15.6596   24.5513 N   0  0  0  0  0  0  0  0  0  0  0  0
   10.8523  -17.4444   26.1762 C   0  0  0  0  0  0  0  0  0  0  0  0
    9.8289  -18.1851   26.0327 O   0  0  0  0  0  0  0  0  0  0  0  0
   11.9723  -18.0691   26.6556 O   0  0  0  0  0  0  0  0  0  0  0  0
  2  4  1  0
  2  1  1  6
  3  2  1  0
  4  6  1  0
  4  5  1  6
  6  7  2  0
  8  9  1  0
  8  6  1  0
  9 10  1  1
 10 11  1  0
 11 16  2  0
 12 13  2  0
 12 11  1  0
 13 14  1  0
 14 15  2  0
 16 15  1  0
 17 18  2  0
 17  9  1  0
 20 21  1  0
 20 19  1  0
 21 22  1  0
 23 22  1  1
 23 24  1  0
 23 25  1  0
 24 17  1  0
 25 27  1  0
 26 25  2  0
M  END
$$$$
