VFM.pdb
     RDKit          3D

 27 27  0  0  1  0  0  0  0  0999 V2000
    7.8281  -22.8202   23.8033 C   0  0  0  0  0  0  0  0  0  0  0  0
    8.1325  -21.3647   23.8429 C   0  0  1  0  0  0  0  0  0  0  0  0
    9.5321  -21.0967   23.3464 C   0  0  0  0  0  0  0  0  0  0  0  0
    7.1333  -20.5223   23.0965 C   0  0  2  0  0  0  0  0  0  0  0  0
    7.0951  -20.9545   21.6781 N   0  0  0  0  0  0  0  0  0  0  0  0
    7.4530  -19.0929   23.0931 C   0  0  0  0  0  0  0  0  0  0  0  0
    8.2467  -18.6138   22.2061 O   0  0  0  0  0  0  0  0  0  0  0  0
    6.9596  -18.1362   23.9996 N   0  0  0  0  0  0  0  0  0  0  0  0
    7.4445  -16.7490   23.9820 C   0  0  1  0  0  0  0  0  0  0  0  0
    6.2398  -15.9605   24.4308 C   0  0  0  0  0  0  0  0  0  0  0  0
    6.4271  -14.5733   24.7592 C   0  0  0  0  0  0  0  0  0  0  0  0
    6.0252  -14.0604   25.9656 C   0  0  0  0  0  0  0  0  0  0  0  0
    6.2292  -12.7180   26.2884 C   0  0  0  0  0  0  0  0  0  0  0  0
    6.8467  -11.9191   25.3605 C   0  0  0  0  0  0  0  0  0  0  0  0
    7.2645  -12.3929   24.1410 C   0  0  0  0  0  0  0  0  0  0  0  0
    7.0416  -13.7286   23.8650 C   0  0  0  0  0  0  0  0  0  0  0  0
    8.6162  -16.6109   24.9013 C   0  0  0  0  0  0  0  0  0  0  0  0
    8.4481  -16.9738   26.0766 O   0  0  0  0  0  0  0  0  0  0  0  0
   10.1761  -12.7338   28.5680 C   0  0  0  0  0  0  0  0  0  0  0  0
   11.1034  -14.2278   29.0174 S   0  0  0  0  0  0  0  0  0  0  0  0
   11.7291  -15.0229   27.4877 C   0  0  0  0  0  0  0  0  0  0  0  0
   10.6126  -15.2831   26.5405 C   0  0  0  0  0  0  0  0  0  0  0  0
   10.9982  -15.7319   25.1769 C   0  0  2  0  0  0  0  0  0  0  0  0
    9.8383  -16.0936   24.4269 N   0  0  0  0  0  0  0  0  0  0  0  0
   12.1608  -16.6046   25.1089 C   0  0  0  0  0  0  0  0  0  0  0  0
   12.0375  -17.8112   24.7275 O   0  0  0  0  0  0  0  0  0  0  0  0
   13.4307  -16.2160   25.4416 O   0  0  0  0  0  0  0  0  0  0  0  0
  2  4  1  0
  2  1  1  6
  3  2  1  0
  4  6  1  0
  4  5  1  6
  6  7  2  0
  8  9  1  0
  8  6  1  0
  9 10  1  1
 10 11  1  0
 11 16  2  0
 12 13  2  0
 12 11  1  0
 13 14  1  0
 14 15  2  0
 16 15  1  0
 17 18  2  0
 17  9  1  0
 20 21  1  0
 20 19  1  0
 21 22  1  0
 23 22  1  1
 23 24  1  0
 23 25  1  0
 24 17  1  0
 25 27  1  0
 26 25  2  0
M  END
$$$$
