VFM.pdb
     RDKit          3D

 27 27  0  0  1  0  0  0  0  0999 V2000
    9.9090  -19.9450   21.2077 C   0  0  0  0  0  0  0  0  0  0  0  0
   10.2513  -19.1902   19.9725 C   0  0  1  0  0  0  0  0  0  0  0  0
   10.2141  -20.0943   18.7649 C   0  0  0  0  0  0  0  0  0  0  0  0
    9.3902  -17.9753   19.7538 C   0  0  2  0  0  0  0  0  0  0  0  0
    9.8074  -17.3022   18.4996 N   0  0  0  0  0  0  0  0  0  0  0  0
    9.4947  -16.9786   20.8220 C   0  0  0  0  0  0  0  0  0  0  0  0
   10.5839  -16.3197   20.9821 O   0  0  0  0  0  0  0  0  0  0  0  0
    8.4806  -16.6439   21.7385 N   0  0  0  0  0  0  0  0  0  0  0  0
    8.7055  -15.6439   22.7918 C   0  0  1  0  0  0  0  0  0  0  0  0
    7.3394  -15.0334   22.9802 C   0  0  0  0  0  0  0  0  0  0  0  0
    7.1557  -14.1187   24.0742 C   0  0  0  0  0  0  0  0  0  0  0  0
    7.5829  -12.8178   24.0018 C   0  0  0  0  0  0  0  0  0  0  0  0
    7.3826  -11.9277   25.0580 C   0  0  0  0  0  0  0  0  0  0  0  0
    6.7427  -12.3916   26.1787 C   0  0  0  0  0  0  0  0  0  0  0  0
    6.2993  -13.6865   26.2917 C   0  0  0  0  0  0  0  0  0  0  0  0
    6.5195  -14.5321   25.2210 C   0  0  0  0  0  0  0  0  0  0  0  0
    9.2272  -16.3144   24.0227 C   0  0  0  0  0  0  0  0  0  0  0  0
    8.5285  -17.2220   24.5016 O   0  0  0  0  0  0  0  0  0  0  0  0
   10.8888  -12.5384   28.4098 C   0  0  0  0  0  0  0  0  0  0  0  0
   10.7252  -14.0813   29.3514 S   0  0  0  0  0  0  0  0  0  0  0  0
   11.1363  -15.4937   28.2560 C   0  0  0  0  0  0  0  0  0  0  0  0
   10.7004  -15.2168   26.8613 C   0  0  0  0  0  0  0  0  0  0  0  0
   11.0045  -16.2687   25.8562 C   0  0  2  0  0  0  0  0  0  0  0  0
   10.4558  -15.9153   24.5863 N   0  0  0  0  0  0  0  0  0  0  0  0
   10.8464  -17.6404   26.3159 C   0  0  0  0  0  0  0  0  0  0  0  0
   11.8577  -18.4039   26.4208 O   0  0  0  0  0  0  0  0  0  0  0  0
    9.6441  -18.2011   26.6544 O   0  0  0  0  0  0  0  0  0  0  0  0
  2  4  1  0
  2  1  1  1
  3  2  1  0
  4  6  1  0
  4  5  1  6
  6  7  2  0
  8  9  1  0
  8  6  1  0
  9 10  1  1
 10 11  1  0
 11 16  2  0
 12 13  2  0
 12 11  1  0
 13 14  1  0
 14 15  2  0
 16 15  1  0
 17 18  2  0
 17  9  1  0
 20 21  1  0
 20 19  1  0
 21 22  1  0
 23 22  1  1
 23 24  1  0
 23 25  1  0
 24 17  1  0
 25 27  1  0
 26 25  2  0
M  END
$$$$
