VFM.pdb
     RDKit          3D

 27 27  0  0  1  0  0  0  0  0999 V2000
    9.6311  -20.4669   19.1093 C   0  0  0  0  0  0  0  0  0  0  0  0
    9.8064  -19.4592   20.1892 C   0  0  1  0  0  0  0  0  0  0  0  0
   11.2170  -19.4876   20.7244 C   0  0  0  0  0  0  0  0  0  0  0  0
    9.4228  -18.0638   19.7756 C   0  0  2  0  0  0  0  0  0  0  0  0
   10.3339  -17.6078   18.6976 N   0  0  0  0  0  0  0  0  0  0  0  0
    9.5231  -17.0801   20.8563 C   0  0  0  0  0  0  0  0  0  0  0  0
   10.6455  -16.5104   21.1050 O   0  0  0  0  0  0  0  0  0  0  0  0
    8.4708  -16.6668   21.6944 N   0  0  0  0  0  0  0  0  0  0  0  0
    8.6940  -15.6966   22.7754 C   0  0  1  0  0  0  0  0  0  0  0  0
    7.3332  -15.0737   22.9615 C   0  0  0  0  0  0  0  0  0  0  0  0
    7.1359  -14.2136   24.0967 C   0  0  0  0  0  0  0  0  0  0  0  0
    6.5398  -14.6663   25.2455 C   0  0  0  0  0  0  0  0  0  0  0  0
    6.3704  -13.8336   26.3526 C   0  0  0  0  0  0  0  0  0  0  0  0
    6.8192  -12.5410   26.2610 C   0  0  0  0  0  0  0  0  0  0  0  0
    7.4214  -12.0481   25.1294 C   0  0  0  0  0  0  0  0  0  0  0  0
    7.5678  -12.9087   24.0580 C   0  0  0  0  0  0  0  0  0  0  0  0
    9.1910  -16.4043   23.9957 C   0  0  0  0  0  0  0  0  0  0  0  0
    8.5157  -17.3660   24.3959 O   0  0  0  0  0  0  0  0  0  0  0  0
   10.2671  -12.6793   28.8121 C   0  0  0  0  0  0  0  0  0  0  0  0
    9.8814  -14.3335   29.4516 S   0  0  0  0  0  0  0  0  0  0  0  0
   10.6560  -15.5888   28.3616 C   0  0  0  0  0  0  0  0  0  0  0  0
   10.2823  -15.3494   26.9422 C   0  0  0  0  0  0  0  0  0  0  0  0
   10.8363  -16.3038   25.9464 C   0  0  2  0  0  0  0  0  0  0  0  0
   10.3723  -15.9788   24.6358 N   0  0  0  0  0  0  0  0  0  0  0  0
   10.8348  -17.7022   26.3493 C   0  0  0  0  0  0  0  0  0  0  0  0
    9.7451  -18.3552   26.4013 O   0  0  0  0  0  0  0  0  0  0  0  0
   11.9601  -18.4004   26.6968 O   0  0  0  0  0  0  0  0  0  0  0  0
  2  4  1  0
  2  1  1  6
  3  2  1  0
  4  6  1  0
  4  5  1  6
  6  7  2  0
  8  9  1  0
  8  6  1  0
  9 10  1  1
 10 11  1  0
 11 16  2  0
 12 13  2  0
 12 11  1  0
 13 14  1  0
 14 15  2  0
 16 15  1  0
 17 18  2  0
 17  9  1  0
 20 21  1  0
 20 19  1  0
 21 22  1  0
 23 22  1  1
 23 24  1  0
 23 25  1  0
 24 17  1  0
 25 27  1  0
 26 25  2  0
M  END
$$$$
