VFM.pdb
     RDKit          3D

 27 27  0  0  1  0  0  0  0  0999 V2000
    9.2381  -19.8452   21.0728 C   0  0  0  0  0  0  0  0  0  0  0  0
    9.8527  -19.1803   19.8926 C   0  0  1  0  0  0  0  0  0  0  0  0
    9.7603  -20.0630   18.6722 C   0  0  0  0  0  0  0  0  0  0  0  0
    9.2819  -17.8172   19.6073 C   0  0  2  0  0  0  0  0  0  0  0  0
   10.0005  -17.2198   18.4554 N   0  0  0  0  0  0  0  0  0  0  0  0
    9.4167  -16.8765   20.7220 C   0  0  0  0  0  0  0  0  0  0  0  0
   10.5764  -16.4471   21.0641 O   0  0  0  0  0  0  0  0  0  0  0  0
    8.3615  -16.3626   21.4984 N   0  0  0  0  0  0  0  0  0  0  0  0
    8.6156  -15.4386   22.6127 C   0  0  1  0  0  0  0  0  0  0  0  0
    7.2682  -14.8008   22.8413 C   0  0  0  0  0  0  0  0  0  0  0  0
    7.0987  -13.9874   24.0147 C   0  0  0  0  0  0  0  0  0  0  0  0
    6.4697  -14.4658   25.1352 C   0  0  0  0  0  0  0  0  0  0  0  0
    6.3271  -13.6797   26.2796 C   0  0  0  0  0  0  0  0  0  0  0  0
    6.8363  -12.4067   26.2541 C   0  0  0  0  0  0  0  0  0  0  0  0
    7.4730  -11.8892   25.1527 C   0  0  0  0  0  0  0  0  0  0  0  0
    7.5910  -12.7038   24.0425 C   0  0  0  0  0  0  0  0  0  0  0  0
    9.1163  -16.2011   23.7980 C   0  0  0  0  0  0  0  0  0  0  0  0
    8.4736  -17.2127   24.1219 O   0  0  0  0  0  0  0  0  0  0  0  0
   10.8617  -12.9729   29.7163 C   0  0  0  0  0  0  0  0  0  0  0  0
    9.6993  -14.3207   29.3613 S   0  0  0  0  0  0  0  0  0  0  0  0
   10.5052  -15.5201   28.2318 C   0  0  0  0  0  0  0  0  0  0  0  0
   10.1143  -15.2532   26.8219 C   0  0  0  0  0  0  0  0  0  0  0  0
   10.7083  -16.1477   25.7942 C   0  0  2  0  0  0  0  0  0  0  0  0
   10.2651  -15.7693   24.4907 N   0  0  0  0  0  0  0  0  0  0  0  0
   10.7272  -17.5636   26.1300 C   0  0  0  0  0  0  0  0  0  0  0  0
   11.8070  -18.1214   26.5036 O   0  0  0  0  0  0  0  0  0  0  0  0
    9.6300  -18.3802   26.0685 O   0  0  0  0  0  0  0  0  0  0  0  0
  2  4  1  0
  2  1  1  1
  3  2  1  0
  4  6  1  0
  4  5  1  6
  6  7  2  0
  8  9  1  0
  8  6  1  0
  9 10  1  1
 10 11  1  0
 11 16  2  0
 12 13  2  0
 12 11  1  0
 13 14  1  0
 14 15  2  0
 16 15  1  0
 17 18  2  0
 17  9  1  0
 20 21  1  0
 20 19  1  0
 21 22  1  0
 23 22  1  1
 23 24  1  0
 23 25  1  0
 24 17  1  0
 25 27  1  0
 26 25  2  0
M  END
$$$$
