SHS.pdb
     RDKit          3D

 23 23  0  0  1  0  0  0  0  0999 V2000
   -6.4233  -27.8947   27.6567 O   0  0  0  0  0  0  0  0  0  0  0  0
   -6.9182  -27.2221   26.5412 C   0  0  0  0  0  0  0  0  0  0  0  0
   -6.1018  -25.9753   26.2684 C   0  0  2  0  0  0  0  0  0  0  0  0
   -4.7274  -26.3420   26.1955 N   0  0  0  0  0  0  0  0  0  0  0  0
   -6.3900  -24.9760   27.3261 C   0  0  0  0  0  0  0  0  0  0  0  0
   -5.5477  -24.7655   28.2360 O   0  0  0  0  0  0  0  0  0  0  0  0
   -7.5906  -24.2236   27.3742 N   0  0  0  0  0  0  0  0  0  0  0  0
   -7.8583  -23.2024   28.3684 C   0  0  1  0  0  0  0  0  0  0  0  0
   -7.9458  -21.8287   27.7326 C   0  0  0  0  0  0  0  0  0  0  0  0
   -6.6520  -21.3953   27.1638 C   0  0  0  0  0  0  0  0  0  0  0  0
   -5.4890  -22.1383   27.1638 C   0  0  0  0  0  0  0  0  0  0  0  0
   -4.5002  -21.4323   26.5600 N   0  0  0  0  0  0  0  0  0  0  0  0
   -5.0273  -20.2640   26.1846 C   0  0  0  0  0  0  0  0  0  0  0  0
   -6.3267  -20.2405   26.5487 N   0  0  0  0  0  0  0  0  0  0  0  0
   -9.1855  -23.4426   29.0310 C   0  0  0  0  0  0  0  0  0  0  0  0
  -10.2187  -23.3207   28.3238 O   0  0  0  0  0  0  0  0  0  0  0  0
   -9.6452  -24.5381   33.0686 O   0  0  0  0  0  0  0  0  0  0  0  0
  -10.4680  -25.0646   32.0890 C   0  0  0  0  0  0  0  0  0  0  0  0
  -10.6281  -24.0839   30.9224 C   0  0  2  0  0  0  0  0  0  0  0  0
   -9.3148  -23.7911   30.3821 N   0  0  0  0  0  0  0  0  0  0  0  0
  -11.3090  -22.8586   31.3395 C   0  0  0  0  0  0  0  0  0  0  0  0
  -12.6141  -22.8910   31.7814 O   0  0  0  0  0  0  0  0  0  0  0  0
  -10.7130  -21.7562   31.3010 O   0  0  0  0  0  0  0  0  0  0  0  0
  1  2  1  0
  2  3  1  0
  3  4  1  1
  5  3  1  0
  6  5  2  0
  7  5  1  0
  8  7  1  0
  8  9  1  6
 10  9  1  0
 10 11  2  0
 12 11  1  0
 13 12  1  0
 14 13  2  0
 14 10  1  0
 15  8  1  0
 16 15  2  0
 19 18  1  1
 18 17  1  0
 19 20  1  0
 20 15  1  0
 21 22  1  0
 21 19  1  0
 23 21  2  0
M  END
$$$$
