SHS.pdb
     RDKit          3D

 23 23  0  0  1  0  0  0  0  0999 V2000
    7.9228  -24.5068   15.0278 O   0  0  0  0  0  0  0  0  0  0  0  0
    8.0656  -24.1268   16.3607 C   0  0  0  0  0  0  0  0  0  0  0  0
    7.8429  -22.6360   16.5138 C   0  0  2  0  0  0  0  0  0  0  0  0
    6.7041  -22.2675   15.7417 N   0  0  0  0  0  0  0  0  0  0  0  0
    9.0818  -21.9254   16.1131 C   0  0  0  0  0  0  0  0  0  0  0  0
    9.7936  -22.3824   15.1823 O   0  0  0  0  0  0  0  0  0  0  0  0
    9.5237  -20.7295   16.7332 N   0  0  0  0  0  0  0  0  0  0  0  0
   10.7466  -20.0408   16.3681 C   0  0  1  0  0  0  0  0  0  0  0  0
   10.4897  -18.5691   16.1091 C   0  0  0  0  0  0  0  0  0  0  0  0
    9.7912  -18.3434   14.8260 C   0  0  0  0  0  0  0  0  0  0  0  0
   10.4015  -18.0460   13.6244 C   0  0  0  0  0  0  0  0  0  0  0  0
    9.4580  -17.9048   12.6597 N   0  0  0  0  0  0  0  0  0  0  0  0
    8.2724  -18.1089   13.2397 C   0  0  0  0  0  0  0  0  0  0  0  0
    8.4723  -18.3738   14.5478 N   0  0  0  0  0  0  0  0  0  0  0  0
   11.7441  -20.1008   17.4903 C   0  0  0  0  0  0  0  0  0  0  0  0
   11.3315  -19.8378   18.6493 O   0  0  0  0  0  0  0  0  0  0  0  0
   14.8523  -22.6040   17.4763 O   0  0  0  0  0  0  0  0  0  0  0  0
   14.2678  -22.0882   18.6192 C   0  0  0  0  0  0  0  0  0  0  0  0
   13.9578  -20.5970   18.4511 C   0  0  2  0  0  0  0  0  0  0  0  0
   13.0921  -20.4324   17.2996 N   0  0  0  0  0  0  0  0  0  0  0  0
   15.1799  -19.8067   18.3059 C   0  0  0  0  0  0  0  0  0  0  0  0
   16.1473  -19.8150   19.2875 O   0  0  0  0  0  0  0  0  0  0  0  0
   15.3660  -19.1072   17.2822 O   0  0  0  0  0  0  0  0  0  0  0  0
  1  2  1  0
  2  3  1  0
  3  4  1  6
  5  3  1  0
  6  5  2  0
  7  5  1  0
  8  7  1  0
  8  9  1  1
 10  9  1  0
 10 11  2  0
 12 11  1  0
 13 12  1  0
 14 13  2  0
 14 10  1  0
 15  8  1  0
 16 15  2  0
 19 18  1  6
 18 17  1  0
 19 20  1  0
 20 15  1  0
 21 22  1  0
 21 19  1  0
 23 21  2  0
M  END
$$$$
