SHS.pdb
     RDKit          3D

 23 23  0  0  1  0  0  0  0  0999 V2000
   11.9901  -20.0896   18.3459 O   0  0  0  0  0  0  0  0  0  0  0  0
   10.7681  -19.6756   17.8196 C   0  0  0  0  0  0  0  0  0  0  0  0
   10.8463  -18.2308   17.3705 C   0  0  2  0  0  0  0  0  0  0  0  0
   11.9315  -18.0993   16.4574 N   0  0  0  0  0  0  0  0  0  0  0  0
   10.9759  -17.3657   18.5686 C   0  0  0  0  0  0  0  0  0  0  0  0
   12.0774  -16.8181   18.8304 O   0  0  0  0  0  0  0  0  0  0  0  0
    9.9034  -17.1123   19.4605 N   0  0  0  0  0  0  0  0  0  0  0  0
    9.9960  -16.2079   20.5903 C   0  0  1  0  0  0  0  0  0  0  0  0
    8.6297  -15.6806   20.9830 C   0  0  0  0  0  0  0  0  0  0  0  0
    8.1383  -14.6524   20.0416 C   0  0  0  0  0  0  0  0  0  0  0  0
    8.8206  -14.1893   18.9350 C   0  0  0  0  0  0  0  0  0  0  0  0
    8.0732  -13.2508   18.3016 N   0  0  0  0  0  0  0  0  0  0  0  0
    6.9385  -13.1220   18.9942 C   0  0  0  0  0  0  0  0  0  0  0  0
    6.9767  -13.9679   20.0452 N   0  0  0  0  0  0  0  0  0  0  0  0
   10.5325  -16.9222   21.7986 C   0  0  0  0  0  0  0  0  0  0  0  0
   10.2197  -18.1318   21.9452 O   0  0  0  0  0  0  0  0  0  0  0  0
   14.1188  -16.5804   22.9526 O   0  0  0  0  0  0  0  0  0  0  0  0
   13.3467  -16.5722   24.1005 C   0  0  0  0  0  0  0  0  0  0  0  0
   11.9359  -17.0983   23.8159 C   0  0  2  0  0  0  0  0  0  0  0  0
   11.3533  -16.3044   22.7516 N   0  0  0  0  0  0  0  0  0  0  0  0
   11.0978  -17.0655   25.0140 C   0  0  0  0  0  0  0  0  0  0  0  0
   11.4186  -17.8205   26.1215 O   0  0  0  0  0  0  0  0  0  0  0  0
   10.0709  -16.3471   25.0512 O   0  0  0  0  0  0  0  0  0  0  0  0
  1  2  1  0
  2  3  1  0
  3  4  1  6
  5  3  1  0
  6  5  2  0
  7  5  1  0
  8  7  1  0
  8  9  1  1
 10  9  1  0
 10 11  2  0
 12 11  1  0
 13 12  1  0
 14 13  2  0
 14 10  1  0
 15  8  1  0
 16 15  2  0
 19 18  1  1
 18 17  1  0
 19 20  1  0
 20 15  1  0
 21 22  1  0
 21 19  1  0
 23 21  2  0
M  END
$$$$
