SHS.pdb
     RDKit          3D

 23 23  0  0  1  0  0  0  0  0999 V2000
   14.5637  -16.4221   14.9004 O   0  0  0  0  0  0  0  0  0  0  0  0
   14.2086  -16.2391   16.2353 C   0  0  0  0  0  0  0  0  0  0  0  0
   13.9634  -14.7718   16.5224 C   0  0  2  0  0  0  0  0  0  0  0  0
   15.1473  -14.0455   16.2072 N   0  0  0  0  0  0  0  0  0  0  0  0
   13.5421  -14.6270   17.9373 C   0  0  0  0  0  0  0  0  0  0  0  0
   14.2974  -14.0491   18.7604 O   0  0  0  0  0  0  0  0  0  0  0  0
   12.3056  -15.1141   18.4310 N   0  0  0  0  0  0  0  0  0  0  0  0
   11.9035  -15.0202   19.8211 C   0  0  1  0  0  0  0  0  0  0  0  0
   10.4566  -15.4357   20.0019 C   0  0  0  0  0  0  0  0  0  0  0  0
    9.5231  -14.5108   19.3250 C   0  0  0  0  0  0  0  0  0  0  0  0
    9.7697  -13.1796   19.0568 C   0  0  0  0  0  0  0  0  0  0  0  0
    8.6970  -12.6380   18.4269 N   0  0  0  0  0  0  0  0  0  0  0  0
    7.7882  -13.6081   18.2987 C   0  0  0  0  0  0  0  0  0  0  0  0
    8.2859  -14.7395   18.8407 N   0  0  0  0  0  0  0  0  0  0  0  0
   12.7170  -15.9536   20.6725 C   0  0  0  0  0  0  0  0  0  0  0  0
   12.7358  -17.1689   20.3479 O   0  0  0  0  0  0  0  0  0  0  0  0
   15.8369  -14.7265   23.0776 O   0  0  0  0  0  0  0  0  0  0  0  0
   15.7351  -15.9552   22.4502 C   0  0  0  0  0  0  0  0  0  0  0  0
   14.2939  -16.4743   22.4925 C   0  0  2  0  0  0  0  0  0  0  0  0
   13.4428  -15.5307   21.7941 N   0  0  0  0  0  0  0  0  0  0  0  0
   13.8354  -16.6772   23.8664 C   0  0  0  0  0  0  0  0  0  0  0  0
   14.4769  -17.5668   24.7011 O   0  0  0  0  0  0  0  0  0  0  0  0
   12.8480  -16.0423   24.3067 O   0  0  0  0  0  0  0  0  0  0  0  0
  1  2  1  0
  2  3  1  0
  3  4  1  1
  5  3  1  0
  6  5  2  0
  7  5  1  0
  8  7  1  0
  8  9  1  6
 10  9  1  0
 10 11  2  0
 12 11  1  0
 13 12  1  0
 14 13  2  0
 14 10  1  0
 15  8  1  0
 16 15  2  0
 19 18  1  1
 18 17  1  0
 19 20  1  0
 20 15  1  0
 21 22  1  0
 21 19  1  0
 23 21  2  0
M  END
$$$$
