SHS.pdb
     RDKit          3D

 23 23  0  0  1  0  0  0  0  0999 V2000
   10.4695  -20.1832   18.8820 O   0  0  0  0  0  0  0  0  0  0  0  0
    9.3652  -19.6155   18.2496 C   0  0  0  0  0  0  0  0  0  0  0  0
    9.6755  -18.1989   17.8110 C   0  0  2  0  0  0  0  0  0  0  0  0
   10.6722  -18.2485   16.7948 N   0  0  0  0  0  0  0  0  0  0  0  0
   10.0839  -17.4107   18.9994 C   0  0  0  0  0  0  0  0  0  0  0  0
   11.2792  -17.0405   19.1257 O   0  0  0  0  0  0  0  0  0  0  0  0
    9.1831  -17.0395   20.0294 N   0  0  0  0  0  0  0  0  0  0  0  0
    9.5591  -16.2258   21.1694 C   0  0  1  0  0  0  0  0  0  0  0  0
    8.5152  -15.1629   21.4515 C   0  0  0  0  0  0  0  0  0  0  0  0
    8.3203  -14.2551   20.3013 C   0  0  0  0  0  0  0  0  0  0  0  0
    9.0520  -13.1118   20.0515 C   0  0  0  0  0  0  0  0  0  0  0  0
    8.6031  -12.5261   18.9131 N   0  0  0  0  0  0  0  0  0  0  0  0
    7.6057  -13.2844   18.4506 C   0  0  0  0  0  0  0  0  0  0  0  0
    7.4340  -14.3287   19.2881 N   0  0  0  0  0  0  0  0  0  0  0  0
    9.6494  -17.0648   22.4128 C   0  0  0  0  0  0  0  0  0  0  0  0
    8.9672  -18.1210   22.4521 O   0  0  0  0  0  0  0  0  0  0  0  0
   12.5667  -19.6388   24.0734 O   0  0  0  0  0  0  0  0  0  0  0  0
   11.9263  -18.6367   23.3666 C   0  0  0  0  0  0  0  0  0  0  0  0
   11.0709  -17.7704   24.2973 C   0  0  2  0  0  0  0  0  0  0  0  0
   10.4498  -16.7225   23.5109 N   0  0  0  0  0  0  0  0  0  0  0  0
   11.8653  -17.2068   25.3884 C   0  0  0  0  0  0  0  0  0  0  0  0
   12.2044  -17.9718   26.4835 O   0  0  0  0  0  0  0  0  0  0  0  0
   12.2508  -16.0147   25.3431 O   0  0  0  0  0  0  0  0  0  0  0  0
  1  2  1  0
  2  3  1  0
  3  4  1  6
  5  3  1  0
  6  5  2  0
  7  5  1  0
  8  7  1  0
  8  9  1  1
 10  9  1  0
 10 11  2  0
 12 11  1  0
 13 12  1  0
 14 13  2  0
 14 10  1  0
 15  8  1  0
 16 15  2  0
 19 18  1  6
 18 17  1  0
 19 20  1  0
 20 15  1  0
 21 22  1  0
 21 19  1  0
 23 21  2  0
M  END
$$$$
