SHS.pdb
     RDKit          3D

 23 23  0  0  1  0  0  0  0  0999 V2000
    9.0044  -27.7636   25.5346 O   0  0  0  0  0  0  0  0  0  0  0  0
    7.9969  -27.1603   24.7847 C   0  0  0  0  0  0  0  0  0  0  0  0
    8.4531  -25.8088   24.2739 C   0  0  2  0  0  0  0  0  0  0  0  0
    9.5365  -26.0089   23.3713 N   0  0  0  0  0  0  0  0  0  0  0  0
    8.8030  -24.9540   25.4346 C   0  0  0  0  0  0  0  0  0  0  0  0
   10.0053  -24.6589   25.6562 O   0  0  0  0  0  0  0  0  0  0  0  0
    7.8371  -24.4355   26.3337 N   0  0  0  0  0  0  0  0  0  0  0  0
    8.1600  -23.5479   27.4340 C   0  0  1  0  0  0  0  0  0  0  0  0
    7.2179  -22.3605   27.4743 C   0  0  0  0  0  0  0  0  0  0  0  0
    7.2741  -21.5630   26.2310 C   0  0  0  0  0  0  0  0  0  0  0  0
    8.2532  -20.6434   25.9140 C   0  0  0  0  0  0  0  0  0  0  0  0
    7.9890  -20.1008   24.6988 N   0  0  0  0  0  0  0  0  0  0  0  0
    6.8636  -20.6664   24.2546 C   0  0  0  0  0  0  0  0  0  0  0  0
    6.4310  -21.5495   25.1790 N   0  0  0  0  0  0  0  0  0  0  0  0
    7.9994  -24.2549   28.7502 C   0  0  0  0  0  0  0  0  0  0  0  0
    7.1700  -25.1992   28.8053 O   0  0  0  0  0  0  0  0  0  0  0  0
    9.6096  -27.0732   31.4817 O   0  0  0  0  0  0  0  0  0  0  0  0
    9.4325  -26.1562   30.4612 C   0  0  0  0  0  0  0  0  0  0  0  0
    8.8227  -24.8550   30.9934 C   0  0  2  0  0  0  0  0  0  0  0  0
    8.7246  -23.9096   29.8984 N   0  0  0  0  0  0  0  0  0  0  0  0
    9.6111  -24.3025   32.0945 C   0  0  0  0  0  0  0  0  0  0  0  0
    9.4476  -24.7656   33.3823 O   0  0  0  0  0  0  0  0  0  0  0  0
   10.4507  -23.3960   31.8820 O   0  0  0  0  0  0  0  0  0  0  0  0
  1  2  1  0
  2  3  1  0
  3  4  1  6
  5  3  1  0
  6  5  2  0
  7  5  1  0
  8  7  1  0
  8  9  1  1
 10  9  1  0
 10 11  2  0
 12 11  1  0
 13 12  1  0
 14 13  2  0
 14 10  1  0
 15  8  1  0
 16 15  2  0
 19 18  1  6
 18 17  1  0
 19 20  1  0
 20 15  1  0
 21 22  1  0
 21 19  1  0
 23 21  2  0
M  END
$$$$
