SHS.pdb
     RDKit          3D

 23 23  0  0  1  0  0  0  0  0999 V2000
    8.0305  -12.7350   16.0263 O   0  0  0  0  0  0  0  0  0  0  0  0
    8.1711  -13.7898   16.9258 C   0  0  0  0  0  0  0  0  0  0  0  0
    8.8242  -14.9786   16.2510 C   0  0  2  0  0  0  0  0  0  0  0  0
    7.9851  -15.4100   15.1840 N   0  0  0  0  0  0  0  0  0  0  0  0
    9.0700  -16.0290   17.2692 C   0  0  0  0  0  0  0  0  0  0  0  0
    8.1646  -16.8563   17.5477 O   0  0  0  0  0  0  0  0  0  0  0  0
   10.2976  -16.1598   17.9661 N   0  0  0  0  0  0  0  0  0  0  0  0
   10.5243  -17.1338   19.0164 C   0  0  1  0  0  0  0  0  0  0  0  0
   11.5401  -18.1747   18.5879 C   0  0  0  0  0  0  0  0  0  0  0  0
   10.9399  -19.2179   17.7297 C   0  0  0  0  0  0  0  0  0  0  0  0
   11.2700  -19.4566   16.4110 C   0  0  0  0  0  0  0  0  0  0  0  0
   10.5236  -20.4852   15.9361 N   0  0  0  0  0  0  0  0  0  0  0  0
    9.7355  -20.8903   16.9354 C   0  0  0  0  0  0  0  0  0  0  0  0
    9.9860  -20.1257   18.0189 N   0  0  0  0  0  0  0  0  0  0  0  0
   11.0932  -16.4718   20.2395 C   0  0  0  0  0  0  0  0  0  0  0  0
   12.0709  -15.6965   20.0792 O   0  0  0  0  0  0  0  0  0  0  0  0
    9.1866  -16.4396   23.9158 O   0  0  0  0  0  0  0  0  0  0  0  0
   10.0546  -15.4320   23.5349 C   0  0  0  0  0  0  0  0  0  0  0  0
   11.1801  -15.9827   22.6527 C   0  0  2  0  0  0  0  0  0  0  0  0
   10.5861  -16.6807   21.5291 N   0  0  0  0  0  0  0  0  0  0  0  0
   12.0716  -16.8640   23.4060 C   0  0  0  0  0  0  0  0  0  0  0  0
   12.1952  -18.1957   23.0732 O   0  0  0  0  0  0  0  0  0  0  0  0
   12.7392  -16.4190   24.3694 O   0  0  0  0  0  0  0  0  0  0  0  0
  1  2  1  0
  2  3  1  0
  3  4  1  6
  5  3  1  0
  6  5  2  0
  7  5  1  0
  8  7  1  0
  8  9  1  6
 10  9  1  0
 10 11  2  0
 12 11  1  0
 13 12  1  0
 14 13  2  0
 14 10  1  0
 15  8  1  0
 16 15  2  0
 19 18  1  1
 18 17  1  0
 19 20  1  0
 20 15  1  0
 21 22  1  0
 21 19  1  0
 23 21  2  0
M  END
$$$$
