SHS.pdb
     RDKit          3D

 23 23  0  0  1  0  0  0  0  0999 V2000
   10.1274  -21.5297   17.9010 O   0  0  0  0  0  0  0  0  0  0  0  0
    9.0477  -20.8867   18.5030 C   0  0  0  0  0  0  0  0  0  0  0  0
    8.9312  -19.4624   17.9998 C   0  0  2  0  0  0  0  0  0  0  0  0
    9.4966  -19.3965   16.6942 N   0  0  0  0  0  0  0  0  0  0  0  0
    9.5895  -18.5576   18.9736 C   0  0  0  0  0  0  0  0  0  0  0  0
   10.8385  -18.4122   18.9493 O   0  0  0  0  0  0  0  0  0  0  0  0
    8.8758  -17.8269   19.9568 N   0  0  0  0  0  0  0  0  0  0  0  0
    9.5046  -16.9145   20.8923 C   0  0  1  0  0  0  0  0  0  0  0  0
    8.4816  -15.9990   21.5360 C   0  0  0  0  0  0  0  0  0  0  0  0
    8.0431  -14.9239   20.6212 C   0  0  0  0  0  0  0  0  0  0  0  0
    8.5688  -14.6744   19.3698 C   0  0  0  0  0  0  0  0  0  0  0  0
    7.9293  -13.6155   18.8125 N   0  0  0  0  0  0  0  0  0  0  0  0
    7.0156  -13.2023   19.6946 C   0  0  0  0  0  0  0  0  0  0  0  0
    7.0834  -13.9916   20.7872 N   0  0  0  0  0  0  0  0  0  0  0  0
   10.1548  -17.6717   22.0156 C   0  0  0  0  0  0  0  0  0  0  0  0
    9.6065  -18.7403   22.3901 O   0  0  0  0  0  0  0  0  0  0  0  0
   14.1076  -19.1319   24.0653 O   0  0  0  0  0  0  0  0  0  0  0  0
   13.4317  -18.3220   23.1704 C   0  0  0  0  0  0  0  0  0  0  0  0
   11.9796  -18.1100   23.6118 C   0  0  2  0  0  0  0  0  0  0  0  0
   11.3272  -17.2416   22.6512 N   0  0  0  0  0  0  0  0  0  0  0  0
   11.9039  -17.5505   24.9610 C   0  0  0  0  0  0  0  0  0  0  0  0
   11.3627  -16.3018   25.1786 O   0  0  0  0  0  0  0  0  0  0  0  0
   12.3320  -18.2013   25.9433 O   0  0  0  0  0  0  0  0  0  0  0  0
  1  2  1  0
  2  3  1  0
  3  4  1  6
  5  3  1  0
  6  5  2  0
  7  5  1  0
  8  7  1  0
  8  9  1  1
 10  9  1  0
 10 11  2  0
 12 11  1  0
 13 12  1  0
 14 13  2  0
 14 10  1  0
 15  8  1  0
 16 15  2  0
 19 18  1  6
 18 17  1  0
 19 20  1  0
 20 15  1  0
 21 22  1  0
 21 19  1  0
 23 21  2  0
M  END
$$$$
