SHS.pdb
     RDKit          3D

 23 23  0  0  1  0  0  0  0  0999 V2000
    9.5427  -20.8564   18.6074 O   0  0  0  0  0  0  0  0  0  0  0  0
    9.2822  -19.7728   19.4438 C   0  0  0  0  0  0  0  0  0  0  0  0
    9.1445  -18.4994   18.6345 C   0  0  2  0  0  0  0  0  0  0  0  0
    9.7501  -18.7050   17.3618 N   0  0  0  0  0  0  0  0  0  0  0  0
    9.7468  -17.3807   19.4001 C   0  0  0  0  0  0  0  0  0  0  0  0
   10.8544  -16.9025   19.0449 O   0  0  0  0  0  0  0  0  0  0  0  0
    9.1319  -16.8024   20.5391 N   0  0  0  0  0  0  0  0  0  0  0  0
    9.7065  -15.7025   21.2896 C   0  0  1  0  0  0  0  0  0  0  0  0
    8.6465  -14.6883   21.6728 C   0  0  0  0  0  0  0  0  0  0  0  0
    8.0381  -14.0448   20.4892 C   0  0  0  0  0  0  0  0  0  0  0  0
    6.7194  -14.1675   20.1011 C   0  0  0  0  0  0  0  0  0  0  0  0
    6.5098  -13.4437   18.9729 N   0  0  0  0  0  0  0  0  0  0  0  0
    7.6741  -12.8732   18.6526 C   0  0  0  0  0  0  0  0  0  0  0  0
    8.5978  -13.2355   19.5675 N   0  0  0  0  0  0  0  0  0  0  0  0
   10.3016  -16.1940   22.5788 C   0  0  0  0  0  0  0  0  0  0  0  0
    9.5163  -16.4019   23.5394 O   0  0  0  0  0  0  0  0  0  0  0  0
   13.1424  -18.7484   22.6528 O   0  0  0  0  0  0  0  0  0  0  0  0
   12.3562  -18.5149   23.7669 C   0  0  0  0  0  0  0  0  0  0  0  0
   12.1501  -17.0124   23.9870 C   0  0  2  0  0  0  0  0  0  0  0  0
   11.6730  -16.4258   22.7499 N   0  0  0  0  0  0  0  0  0  0  0  0
   13.3801  -16.3611   24.4364 C   0  0  0  0  0  0  0  0  0  0  0  0
   13.9365  -16.6690   25.6592 O   0  0  0  0  0  0  0  0  0  0  0  0
   13.9487  -15.5096   23.7128 O   0  0  0  0  0  0  0  0  0  0  0  0
  1  2  1  0
  2  3  1  0
  3  4  1  6
  5  3  1  0
  6  5  2  0
  7  5  1  0
  8  7  1  0
  8  9  1  1
 10  9  1  0
 10 11  2  0
 12 11  1  0
 13 12  1  0
 14 13  2  0
 14 10  1  0
 15  8  1  0
 16 15  2  0
 19 18  1  6
 18 17  1  0
 19 20  1  0
 20 15  1  0
 21 22  1  0
 21 19  1  0
 23 21  2  0
M  END
$$$$
