SHS.pdb
     RDKit          3D

 23 23  0  0  1  0  0  0  0  0999 V2000
   14.5016  -16.9762   18.4749 O   0  0  0  0  0  0  0  0  0  0  0  0
   13.8637  -16.4440   17.3562 C   0  0  0  0  0  0  0  0  0  0  0  0
   13.4695  -15.0027   17.6061 C   0  0  2  0  0  0  0  0  0  0  0  0
   14.6093  -14.1776   17.3853 N   0  0  0  0  0  0  0  0  0  0  0  0
   12.9176  -14.8906   18.9784 C   0  0  0  0  0  0  0  0  0  0  0  0
   13.6502  -14.4877   19.9179 O   0  0  0  0  0  0  0  0  0  0  0  0
   11.5773  -15.2194   19.3033 N   0  0  0  0  0  0  0  0  0  0  0  0
   11.0187  -15.0863   20.6349 C   0  0  1  0  0  0  0  0  0  0  0  0
    9.5094  -15.2290   20.6123 C   0  0  0  0  0  0  0  0  0  0  0  0
    8.8745  -14.2786   19.6749 C   0  0  0  0  0  0  0  0  0  0  0  0
    9.0059  -12.9054   19.7165 C   0  0  0  0  0  0  0  0  0  0  0  0
    8.2884  -12.3507   18.7074 N   0  0  0  0  0  0  0  0  0  0  0  0
    7.7132  -13.3540   18.0394 C   0  0  0  0  0  0  0  0  0  0  0  0
    8.0664  -14.5187   18.6227 N   0  0  0  0  0  0  0  0  0  0  0  0
   11.5290  -16.1758   21.5353 C   0  0  0  0  0  0  0  0  0  0  0  0
   11.7642  -17.2969   21.0153 O   0  0  0  0  0  0  0  0  0  0  0  0
   14.3562  -15.7103   23.9624 O   0  0  0  0  0  0  0  0  0  0  0  0
   13.8998  -16.9339   23.5061 C   0  0  0  0  0  0  0  0  0  0  0  0
   12.3813  -17.0501   23.6752 C   0  0  2  0  0  0  0  0  0  0  0  0
   11.7493  -15.9950   22.9073 N   0  0  0  0  0  0  0  0  0  0  0  0
   11.9900  -16.9810   25.0828 C   0  0  0  0  0  0  0  0  0  0  0  0
   12.4588  -17.9042   25.9924 O   0  0  0  0  0  0  0  0  0  0  0  0
   11.2192  -16.0773   25.4840 O   0  0  0  0  0  0  0  0  0  0  0  0
  1  2  1  0
  2  3  1  0
  3  4  1  1
  5  3  1  0
  6  5  2  0
  7  5  1  0
  8  7  1  0
  8  9  1  6
 10  9  1  0
 10 11  2  0
 12 11  1  0
 13 12  1  0
 14 13  2  0
 14 10  1  0
 15  8  1  0
 16 15  2  0
 19 18  1  1
 18 17  1  0
 19 20  1  0
 20 15  1  0
 21 22  1  0
 21 19  1  0
 23 21  2  0
M  END
$$$$
