SHS.pdb
     RDKit          3D

 23 23  0  0  1  0  0  0  0  0999 V2000
    8.9714  -15.7053   16.8243 O   0  0  0  0  0  0  0  0  0  0  0  0
    9.4532  -16.8045   16.1163 C   0  0  0  0  0  0  0  0  0  0  0  0
    8.7227  -18.0649   16.5325 C   0  0  2  0  0  0  0  0  0  0  0  0
    7.3251  -17.8576   16.3529 N   0  0  0  0  0  0  0  0  0  0  0  0
    9.0952  -18.3919   17.9307 C   0  0  0  0  0  0  0  0  0  0  0  0
    8.2932  -18.1448   18.8674 O   0  0  0  0  0  0  0  0  0  0  0  0
   10.3347  -18.9824   18.2840 N   0  0  0  0  0  0  0  0  0  0  0  0
   10.7143  -19.2959   19.6480 C   0  0  1  0  0  0  0  0  0  0  0  0
   11.9654  -20.1518   19.6852 C   0  0  0  0  0  0  0  0  0  0  0  0
   12.2529  -20.6584   21.0438 C   0  0  0  0  0  0  0  0  0  0  0  0
   11.5038  -20.3925   22.1720 C   0  0  0  0  0  0  0  0  0  0  0  0
   12.0569  -21.0182   23.2412 N   0  0  0  0  0  0  0  0  0  0  0  0
   13.1363  -21.6682   22.7983 C   0  0  0  0  0  0  0  0  0  0  0  0
   13.2557  -21.4517   21.4715 N   0  0  0  0  0  0  0  0  0  0  0  0
   11.0418  -18.0421   20.4087 C   0  0  0  0  0  0  0  0  0  0  0  0
   11.6345  -17.1230   19.7869 O   0  0  0  0  0  0  0  0  0  0  0  0
    8.7386  -16.4437   23.3366 O   0  0  0  0  0  0  0  0  0  0  0  0
    9.6026  -15.8245   22.4512 C   0  0  0  0  0  0  0  0  0  0  0  0
   10.9405  -16.5683   22.3804 C   0  0  2  0  0  0  0  0  0  0  0  0
   10.7183  -17.8598   21.7599 N   0  0  0  0  0  0  0  0  0  0  0  0
   11.5428  -16.7190   23.7046 C   0  0  0  0  0  0  0  0  0  0  0  0
   12.0857  -15.6357   24.3613 O   0  0  0  0  0  0  0  0  0  0  0  0
   11.5742  -17.8406   24.2641 O   0  0  0  0  0  0  0  0  0  0  0  0
  1  2  1  0
  2  3  1  0
  3  4  1  1
  5  3  1  0
  6  5  2  0
  7  5  1  0
  8  7  1  0
  8  9  1  6
 10  9  1  0
 10 11  2  0
 12 11  1  0
 13 12  1  0
 14 13  2  0
 14 10  1  0
 15  8  1  0
 16 15  2  0
 19 18  1  1
 18 17  1  0
 19 20  1  0
 20 15  1  0
 21 22  1  0
 21 19  1  0
 23 21  2  0
M  END
$$$$
