SHS.pdb
     RDKit          3D

 23 23  0  0  1  0  0  0  0  0999 V2000
   11.5531  -19.7047   18.0359 O   0  0  0  0  0  0  0  0  0  0  0  0
   10.2641  -19.3846   17.6144 C   0  0  0  0  0  0  0  0  0  0  0  0
   10.1853  -17.9268   17.2093 C   0  0  2  0  0  0  0  0  0  0  0  0
   11.0094  -17.7307   16.0643 N   0  0  0  0  0  0  0  0  0  0  0  0
   10.5774  -17.0883   18.3684 C   0  0  0  0  0  0  0  0  0  0  0  0
   11.7165  -16.5561   18.4006 O   0  0  0  0  0  0  0  0  0  0  0  0
    9.7219  -16.8440   19.4722 N   0  0  0  0  0  0  0  0  0  0  0  0
   10.0679  -15.9722   20.5782 C   0  0  1  0  0  0  0  0  0  0  0  0
    8.8284  -15.3628   21.2036 C   0  0  0  0  0  0  0  0  0  0  0  0
    8.0895  -14.5053   20.2530 C   0  0  0  0  0  0  0  0  0  0  0  0
    8.2795  -13.1486   20.0849 C   0  0  0  0  0  0  0  0  0  0  0  0
    7.4322  -12.6870   19.1312 N   0  0  0  0  0  0  0  0  0  0  0  0
    6.7189  -13.7319   18.7033 C   0  0  0  0  0  0  0  0  0  0  0  0
    7.1149  -14.8304   19.3799 N   0  0  0  0  0  0  0  0  0  0  0  0
   10.7507  -16.7466   21.6701 C   0  0  0  0  0  0  0  0  0  0  0  0
   10.2927  -17.8846   21.9492 O   0  0  0  0  0  0  0  0  0  0  0  0
   14.3101  -15.5151   23.4943 O   0  0  0  0  0  0  0  0  0  0  0  0
   14.0271  -16.8516   23.2764 C   0  0  0  0  0  0  0  0  0  0  0  0
   12.5185  -17.1109   23.3470 C   0  0  2  0  0  0  0  0  0  0  0  0
   11.8579  -16.2591   22.3772 N   0  0  0  0  0  0  0  0  0  0  0  0
   11.9951  -16.8778   24.6927 C   0  0  0  0  0  0  0  0  0  0  0  0
   12.4882  -17.5768   25.7733 O   0  0  0  0  0  0  0  0  0  0  0  0
   11.0864  -16.0354   24.8836 O   0  0  0  0  0  0  0  0  0  0  0  0
  1  2  1  0
  2  3  1  0
  3  4  1  6
  5  3  1  0
  6  5  2  0
  7  5  1  0
  8  7  1  0
  8  9  1  1
 10  9  1  0
 10 11  2  0
 12 11  1  0
 13 12  1  0
 14 13  2  0
 14 10  1  0
 15  8  1  0
 16 15  2  0
 19 18  1  1
 18 17  1  0
 19 20  1  0
 20 15  1  0
 21 22  1  0
 21 19  1  0
 23 21  2  0
M  END
$$$$
