ACQ.pdb
     RDKit          3D

 21 20  0  0  1  0  0  0  0  0999 V2000
    4.3401  -22.3381   17.1159 C   0  0  0  0  0  0  0  0  0  0  0  0
    3.1923  -22.0846   18.0536 C   0  0  2  0  0  0  0  0  0  0  0  0
    2.1371  -21.3203   17.3839 N   0  0  0  0  0  0  0  0  0  0  0  0
    3.6121  -21.3141   19.2534 C   0  0  0  0  0  0  0  0  0  0  0  0
    4.5526  -20.4742   19.1285 O   0  0  0  0  0  0  0  0  0  0  0  0
    3.0351  -21.4531   20.5240 N   0  0  0  0  0  0  0  0  0  0  0  0
    3.4598  -20.6107   21.6668 C   0  0  1  0  0  0  0  0  0  0  0  0
    2.1785  -20.4317   22.4751 C   0  0  0  0  0  0  0  0  0  0  0  0
    1.1687  -19.1327   21.7799 S   0  0  0  0  0  0  0  0  0  0  0  0
    4.4814  -21.3344   22.4227 C   0  0  0  0  0  0  0  0  0  0  0  0
    4.3431  -22.5714   22.6484 O   0  0  0  0  0  0  0  0  0  0  0  0
   11.5216  -21.9889   22.7149 N   0  0  0  0  0  0  0  0  0  0  0  0
   10.4935  -21.1647   23.2290 C   0  0  0  0  0  0  0  0  0  0  0  0
   10.6965  -19.9293   23.2695 O   0  0  0  0  0  0  0  0  0  0  0  0
    9.2024  -21.6904   23.7169 C   0  0  0  0  0  0  0  0  0  0  0  0
    7.9954  -21.0618   23.1292 C   0  0  0  0  0  0  0  0  0  0  0  0
    6.6773  -21.5368   23.6376 C   0  0  2  0  0  0  0  0  0  0  0  0
    5.6532  -20.7390   22.9379 N   0  0  0  0  0  0  0  0  0  0  0  0
    6.5174  -21.4210   25.0932 C   0  0  0  0  0  0  0  0  0  0  0  0
    6.9801  -22.3365   25.8149 O   0  0  0  0  0  0  0  0  0  0  0  0
    5.8893  -20.3687   25.7341 O   0  0  0  0  0  0  0  0  0  0  0  0
  2  1  1  6
  3  2  1  0
  4  2  1  0
  4  5  2  0
  6  4  1  0
  7  6  1  0
  7 10  1  0
  7  8  1  1
  9  8  1  0
 10 18  1  0
 11 10  2  0
 13 12  1  0
 13 15  1  0
 14 13  2  0
 15 16  1  0
 17 16  1  1
 17 19  1  0
 18 17  1  0
 19 20  2  0
 19 21  1  0
M  END
$$$$
