ACQ.pdb
     RDKit          3D

 21 20  0  0  1  0  0  0  0  0999 V2000
    8.6102  -18.8001   17.3259 C   0  0  0  0  0  0  0  0  0  0  0  0
    8.4061  -17.3574   16.9545 C   0  0  2  0  0  0  0  0  0  0  0  0
    9.1304  -17.0333   15.7232 N   0  0  0  0  0  0  0  0  0  0  0  0
    8.8888  -16.4347   18.0153 C   0  0  0  0  0  0  0  0  0  0  0  0
   10.1157  -16.1178   18.0223 O   0  0  0  0  0  0  0  0  0  0  0  0
    8.0746  -15.8863   19.0167 N   0  0  0  0  0  0  0  0  0  0  0  0
    8.6268  -15.0015   20.0695 C   0  0  1  0  0  0  0  0  0  0  0  0
    7.3843  -14.4122   20.7298 C   0  0  0  0  0  0  0  0  0  0  0  0
    6.5437  -13.2985   19.6147 S   0  0  0  0  0  0  0  0  0  0  0  0
    9.4015  -15.8183   21.0031 C   0  0  0  0  0  0  0  0  0  0  0  0
    9.0699  -17.0201   21.2172 O   0  0  0  0  0  0  0  0  0  0  0  0
   15.4367  -14.9420   22.2289 N   0  0  0  0  0  0  0  0  0  0  0  0
   15.0252  -16.2167   21.7749 C   0  0  0  0  0  0  0  0  0  0  0  0
   15.8817  -16.9506   21.2301 O   0  0  0  0  0  0  0  0  0  0  0  0
   13.6425  -16.7174   21.9124 C   0  0  0  0  0  0  0  0  0  0  0  0
   12.6940  -15.7948   22.5806 C   0  0  0  0  0  0  0  0  0  0  0  0
   11.2689  -16.2270   22.6415 C   0  0  2  0  0  0  0  0  0  0  0  0
   10.5326  -15.3537   21.7088 N   0  0  0  0  0  0  0  0  0  0  0  0
   10.6784  -16.1629   23.9850 C   0  0  0  0  0  0  0  0  0  0  0  0
   11.1238  -16.9369   24.8657 O   0  0  0  0  0  0  0  0  0  0  0  0
    9.6587  -15.3053   24.3558 O   0  0  0  0  0  0  0  0  0  0  0  0
  2  1  1  1
  3  2  1  0
  4  2  1  0
  4  5  2  0
  6  4  1  0
  7  6  1  0
  7 10  1  0
  7  8  1  1
  9  8  1  0
 10 18  1  0
 11 10  2  0
 13 12  1  0
 13 15  1  0
 14 13  2  0
 15 16  1  0
 17 16  1  1
 17 19  1  0
 18 17  1  0
 19 20  2  0
 19 21  1  0
M  END
$$$$
