ACQ.pdb
     RDKit          3D

 21 20  0  0  1  0  0  0  0  0999 V2000
    7.6806  -12.7140   19.9261 C   0  0  0  0  0  0  0  0  0  0  0  0
    7.5735  -13.9968   20.7033 C   0  0  2  0  0  0  0  0  0  0  0  0
    6.1875  -14.4704   20.7305 N   0  0  0  0  0  0  0  0  0  0  0  0
    8.0202  -13.8345   22.1117 C   0  0  0  0  0  0  0  0  0  0  0  0
    9.2650  -13.8069   22.3471 O   0  0  0  0  0  0  0  0  0  0  0  0
    7.1530  -13.7088   23.2066 N   0  0  0  0  0  0  0  0  0  0  0  0
    7.6622  -13.4719   24.5781 C   0  0  1  0  0  0  0  0  0  0  0  0
    6.5133  -12.7402   25.2649 C   0  0  0  0  0  0  0  0  0  0  0  0
    6.8010  -12.6215   27.0238 S   0  0  0  0  0  0  0  0  0  0  0  0
    7.9319  -14.7662   25.2033 C   0  0  0  0  0  0  0  0  0  0  0  0
    7.0616  -15.6832   25.1592 O   0  0  0  0  0  0  0  0  0  0  0  0
   11.6987  -20.0735   23.7235 N   0  0  0  0  0  0  0  0  0  0  0  0
   11.7551  -18.9036   24.5164 C   0  0  0  0  0  0  0  0  0  0  0  0
   12.7873  -18.1972   24.4480 O   0  0  0  0  0  0  0  0  0  0  0  0
   10.6613  -18.4808   25.4144 C   0  0  0  0  0  0  0  0  0  0  0  0
   10.1290  -17.1186   25.1730 C   0  0  0  0  0  0  0  0  0  0  0  0
    9.4268  -16.4618   26.3119 C   0  0  2  0  0  0  0  0  0  0  0  0
    9.1319  -15.0842   25.8756 N   0  0  0  0  0  0  0  0  0  0  0  0
   10.1921  -16.4542   27.5657 C   0  0  0  0  0  0  0  0  0  0  0  0
   10.4215  -17.5523   28.1266 O   0  0  0  0  0  0  0  0  0  0  0  0
   10.6833  -15.3169   28.1804 O   0  0  0  0  0  0  0  0  0  0  0  0
  2  1  1  6
  3  2  1  0
  4  2  1  0
  4  5  2  0
  6  4  1  0
  7  6  1  0
  7 10  1  0
  7  8  1  1
  9  8  1  0
 10 18  1  0
 11 10  2  0
 13 12  1  0
 13 15  1  0
 14 13  2  0
 15 16  1  0
 17 16  1  6
 17 19  1  0
 18 17  1  0
 19 20  2  0
 19 21  1  0
M  END
$$$$
