ACQ.pdb
     RDKit          3D

 21 20  0  0  1  0  0  0  0  0999 V2000
    7.4933  -14.4769   19.6176 C   0  0  0  0  0  0  0  0  0  0  0  0
    7.0837  -15.2361   20.8492 C   0  0  2  0  0  0  0  0  0  0  0  0
    5.6857  -14.9576   21.1868 N   0  0  0  0  0  0  0  0  0  0  0  0
    7.9114  -14.8731   22.0292 C   0  0  0  0  0  0  0  0  0  0  0  0
    9.1562  -15.1059   21.9837 O   0  0  0  0  0  0  0  0  0  0  0  0
    7.4067  -14.2862   23.1986 N   0  0  0  0  0  0  0  0  0  0  0  0
    8.2837  -13.9706   24.3508 C   0  0  1  0  0  0  0  0  0  0  0  0
    7.4964  -12.9153   25.1213 C   0  0  0  0  0  0  0  0  0  0  0  0
    6.0206  -13.6240   25.8357 S   0  0  0  0  0  0  0  0  0  0  0  0
    8.4726  -15.1886   25.1379 C   0  0  0  0  0  0  0  0  0  0  0  0
    7.5511  -16.0533   25.1954 O   0  0  0  0  0  0  0  0  0  0  0  0
   10.4870  -18.8469   22.2192 N   0  0  0  0  0  0  0  0  0  0  0  0
   10.8686  -19.5091   23.4093 C   0  0  0  0  0  0  0  0  0  0  0  0
   11.3159  -20.6754   23.3147 O   0  0  0  0  0  0  0  0  0  0  0  0
   10.7639  -18.8932   24.7476 C   0  0  0  0  0  0  0  0  0  0  0  0
   10.2611  -17.4989   24.7699 C   0  0  0  0  0  0  0  0  0  0  0  0
   10.0653  -16.8783   26.1108 C   0  0  2  0  0  0  0  0  0  0  0  0
    9.6462  -15.4861   25.8640 N   0  0  0  0  0  0  0  0  0  0  0  0
   11.2565  -16.9150   26.9697 C   0  0  0  0  0  0  0  0  0  0  0  0
   12.0798  -15.9730   26.8815 O   0  0  0  0  0  0  0  0  0  0  0  0
   11.5415  -17.9193   27.8768 O   0  0  0  0  0  0  0  0  0  0  0  0
  2  1  1  6
  3  2  1  0
  4  2  1  0
  4  5  2  0
  6  4  1  0
  7  6  1  0
  7 10  1  0
  7  8  1  1
  9  8  1  0
 10 18  1  0
 11 10  2  0
 13 12  1  0
 13 15  1  0
 14 13  2  0
 15 16  1  0
 17 16  1  6
 17 19  1  0
 18 17  1  0
 19 20  2  0
 19 21  1  0
M  END
$$$$
