ACQ.pdb
     RDKit          3D

 21 20  0  0  1  0  0  0  0  0999 V2000
    7.6693  -15.3840   19.6762 C   0  0  0  0  0  0  0  0  0  0  0  0
    7.1637  -14.2665   20.5459 C   0  0  2  0  0  0  0  0  0  0  0  0
    7.2792  -12.9805   19.8540 N   0  0  0  0  0  0  0  0  0  0  0  0
    7.9252  -14.1617   21.8182 C   0  0  0  0  0  0  0  0  0  0  0  0
    9.1907  -14.1362   21.7598 O   0  0  0  0  0  0  0  0  0  0  0  0
    7.3358  -14.0885   23.0886 N   0  0  0  0  0  0  0  0  0  0  0  0
    8.1498  -13.9068   24.3136 C   0  0  1  0  0  0  0  0  0  0  0  0
    7.1700  -13.2884   25.3059 C   0  0  0  0  0  0  0  0  0  0  0  0
    5.7905  -14.3846   25.5990 S   0  0  0  0  0  0  0  0  0  0  0  0
    8.6174  -15.2189   24.7592 C   0  0  0  0  0  0  0  0  0  0  0  0
    7.8934  -16.2412   24.5836 O   0  0  0  0  0  0  0  0  0  0  0  0
   14.0205  -15.5852   24.2166 N   0  0  0  0  0  0  0  0  0  0  0  0
   13.2071  -16.4381   23.4347 C   0  0  0  0  0  0  0  0  0  0  0  0
   13.5070  -16.5916   22.2282 O   0  0  0  0  0  0  0  0  0  0  0  0
   12.0294  -17.1495   23.9716 C   0  0  0  0  0  0  0  0  0  0  0  0
   11.7311  -16.8994   25.4019 C   0  0  0  0  0  0  0  0  0  0  0  0
   10.2927  -16.7977   25.7789 C   0  0  2  0  0  0  0  0  0  0  0  0
    9.8595  -15.4421   25.3920 N   0  0  0  0  0  0  0  0  0  0  0  0
   10.0262  -17.0387   27.2032 C   0  0  0  0  0  0  0  0  0  0  0  0
    9.6439  -16.0730   27.9062 O   0  0  0  0  0  0  0  0  0  0  0  0
   10.1663  -18.2617   27.8336 O   0  0  0  0  0  0  0  0  0  0  0  0
  2  1  1  6
  3  2  1  0
  4  2  1  0
  4  5  2  0
  6  4  1  0
  7  6  1  0
  7 10  1  0
  7  8  1  1
  9  8  1  0
 10 18  1  0
 11 10  2  0
 13 12  1  0
 13 15  1  0
 14 13  2  0
 15 16  1  0
 17 16  1  1
 17 19  1  0
 18 17  1  0
 19 20  2  0
 19 21  1  0
M  END
$$$$
