ACQ.pdb
     RDKit          3D

 21 20  0  0  1  0  0  0  0  0999 V2000
    7.7473  -17.6516   17.2436 C   0  0  0  0  0  0  0  0  0  0  0  0
    8.3147  -18.0883   18.5659 C   0  0  2  0  0  0  0  0  0  0  0  0
    7.2704  -18.6782   19.4068 N   0  0  0  0  0  0  0  0  0  0  0  0
    8.9101  -16.9536   19.3193 C   0  0  0  0  0  0  0  0  0  0  0  0
    9.9821  -16.4392   18.8814 O   0  0  0  0  0  0  0  0  0  0  0  0
    8.3636  -16.4086   20.4902 N   0  0  0  0  0  0  0  0  0  0  0  0
    9.0513  -15.3314   21.2406 C   0  0  1  0  0  0  0  0  0  0  0  0
    7.9126  -14.4123   21.6715 C   0  0  0  0  0  0  0  0  0  0  0  0
    6.7582  -15.2843   22.7192 S   0  0  0  0  0  0  0  0  0  0  0  0
    9.7317  -15.9276   22.3897 C   0  0  0  0  0  0  0  0  0  0  0  0
    9.0591  -16.4975   23.2968 O   0  0  0  0  0  0  0  0  0  0  0  0
   10.6652  -20.3792   21.8625 N   0  0  0  0  0  0  0  0  0  0  0  0
   11.8271  -19.7069   21.4170 C   0  0  0  0  0  0  0  0  0  0  0  0
   12.3927  -20.1337   20.3840 O   0  0  0  0  0  0  0  0  0  0  0  0
   12.3996  -18.5345   22.1093 C   0  0  0  0  0  0  0  0  0  0  0  0
   11.6771  -18.0984   23.3280 C   0  0  0  0  0  0  0  0  0  0  0  0
   11.7682  -16.6530   23.6801 C   0  0  2  0  0  0  0  0  0  0  0  0
   11.1316  -15.9173   22.5717 N   0  0  0  0  0  0  0  0  0  0  0  0
   13.1392  -16.1731   23.8990 C   0  0  0  0  0  0  0  0  0  0  0  0
   13.6028  -15.3212   23.1038 O   0  0  0  0  0  0  0  0  0  0  0  0
   13.9652  -16.5936   24.9254 O   0  0  0  0  0  0  0  0  0  0  0  0
  2  1  1  6
  3  2  1  0
  4  2  1  0
  4  5  2  0
  6  4  1  0
  7  6  1  0
  7 10  1  0
  7  8  1  1
  9  8  1  0
 10 18  1  0
 11 10  2  0
 13 12  1  0
 13 15  1  0
 14 13  2  0
 15 16  1  0
 17 16  1  6
 17 19  1  0
 18 17  1  0
 19 20  2  0
 19 21  1  0
M  END
$$$$
