ACQ.pdb
     RDKit          3D

 21 20  0  0  1  0  0  0  0  0999 V2000
    6.3855  -14.6827   20.3598 C   0  0  0  0  0  0  0  0  0  0  0  0
    7.1350  -13.4292   20.7181 C   0  0  2  0  0  0  0  0  0  0  0  0
    8.0366  -13.0380   19.6318 N   0  0  0  0  0  0  0  0  0  0  0  0
    7.9577  -13.6025   21.9439 C   0  0  0  0  0  0  0  0  0  0  0  0
    9.1752  -13.9269   21.8086 O   0  0  0  0  0  0  0  0  0  0  0  0
    7.4766  -13.4304   23.2498 N   0  0  0  0  0  0  0  0  0  0  0  0
    8.3340  -13.6783   24.4329 C   0  0  1  0  0  0  0  0  0  0  0  0
    7.6731  -12.8536   25.5330 C   0  0  0  0  0  0  0  0  0  0  0  0
    5.9392  -13.2595   25.6722 S   0  0  0  0  0  0  0  0  0  0  0  0
    8.3052  -15.1088   24.7357 C   0  0  0  0  0  0  0  0  0  0  0  0
    7.5181  -15.8726   24.1056 O   0  0  0  0  0  0  0  0  0  0  0  0
   11.4231  -19.4098   21.6504 N   0  0  0  0  0  0  0  0  0  0  0  0
   11.7119  -18.3479   22.5389 C   0  0  0  0  0  0  0  0  0  0  0  0
   12.4385  -17.4160   22.1235 O   0  0  0  0  0  0  0  0  0  0  0  0
   11.2003  -18.2889   23.9232 C   0  0  0  0  0  0  0  0  0  0  0  0
   10.4723  -17.0483   24.2813 C   0  0  0  0  0  0  0  0  0  0  0  0
    9.6454  -17.0904   25.5206 C   0  0  2  0  0  0  0  0  0  0  0  0
    9.1177  -15.7265   25.7111 N   0  0  0  0  0  0  0  0  0  0  0  0
   10.3756  -17.5337   26.7156 C   0  0  0  0  0  0  0  0  0  0  0  0
   10.5625  -18.7638   26.8734 O   0  0  0  0  0  0  0  0  0  0  0  0
   10.8775  -16.6892   27.6890 O   0  0  0  0  0  0  0  0  0  0  0  0
  2  1  1  6
  3  2  1  0
  4  2  1  0
  4  5  2  0
  6  4  1  0
  7  6  1  0
  7 10  1  0
  7  8  1  1
  9  8  1  0
 10 18  1  0
 11 10  2  0
 13 12  1  0
 13 15  1  0
 14 13  2  0
 15 16  1  0
 17 16  1  6
 17 19  1  0
 18 17  1  0
 19 20  2  0
 19 21  1  0
M  END
$$$$
