ACQ.pdb
     RDKit          3D

 21 20  0  0  1  0  0  0  0  0999 V2000
    6.9991  -12.9744   18.8536 C   0  0  0  0  0  0  0  0  0  0  0  0
    8.2856  -13.6728   19.1976 C   0  0  2  0  0  0  0  0  0  0  0  0
    8.1956  -15.1023   18.8908 N   0  0  0  0  0  0  0  0  0  0  0  0
    8.6220  -13.5435   20.6398 C   0  0  0  0  0  0  0  0  0  0  0  0
    8.6360  -12.3842   21.1511 O   0  0  0  0  0  0  0  0  0  0  0  0
    8.9272  -14.6237   21.4803 N   0  0  0  0  0  0  0  0  0  0  0  0
    8.9603  -14.4762   22.9546 C   0  0  1  0  0  0  0  0  0  0  0  0
    7.5017  -14.2212   23.3215 C   0  0  0  0  0  0  0  0  0  0  0  0
    7.2679  -14.3203   25.0895 S   0  0  0  0  0  0  0  0  0  0  0  0
    9.4556  -15.7238   23.5351 C   0  0  0  0  0  0  0  0  0  0  0  0
    8.8253  -16.8038   23.3443 O   0  0  0  0  0  0  0  0  0  0  0  0
   15.4161  -15.1217   22.9784 N   0  0  0  0  0  0  0  0  0  0  0  0
   15.2970  -16.5200   23.1545 C   0  0  0  0  0  0  0  0  0  0  0  0
   16.3285  -17.2184   23.0225 O   0  0  0  0  0  0  0  0  0  0  0  0
   14.0219  -17.1888   23.4837 C   0  0  0  0  0  0  0  0  0  0  0  0
   12.8616  -16.2873   23.6802 C   0  0  0  0  0  0  0  0  0  0  0  0
   11.5894  -16.9206   24.1294 C   0  0  2  0  0  0  0  0  0  0  0  0
   10.6255  -15.8207   24.3193 N   0  0  0  0  0  0  0  0  0  0  0  0
   11.7150  -17.7157   25.3582 C   0  0  0  0  0  0  0  0  0  0  0  0
   11.2707  -17.2304   26.4260 O   0  0  0  0  0  0  0  0  0  0  0  0
   12.2916  -18.9708   25.4274 O   0  0  0  0  0  0  0  0  0  0  0  0
  2  1  1  1
  3  2  1  0
  4  2  1  0
  4  5  2  0
  6  4  1  0
  7  6  1  0
  7 10  1  0
  7  8  1  1
  9  8  1  0
 10 18  1  0
 11 10  2  0
 13 12  1  0
 13 15  1  0
 14 13  2  0
 15 16  1  0
 17 16  1  1
 17 19  1  0
 18 17  1  0
 19 20  2  0
 19 21  1  0
M  END
$$$$
