EDS.pdb
     RDKit          3D

 24 23  0  0  1  0  0  0  0  0999 V2000
   12.0617  -11.3651  -10.1667 N   0  0  0  0  0  0  0  0  0  0  0  0
   13.4967  -11.2562  -10.0204 C   0  0  1  0  0  0  0  0  0  0  0  0
   14.1072  -12.0224  -11.1999 C   0  0  0  0  0  0  0  0  0  0  0  0
   13.8848  -13.5175  -10.9615 C   0  0  0  0  0  0  0  0  0  0  0  0
   14.5717  -14.2829  -12.0246 C   0  0  0  0  0  0  0  0  0  0  0  0
   15.6572  -13.8902  -12.5129 O   0  0  0  0  0  0  0  0  0  0  0  0
   13.8995   -9.8485  -10.1904 C   0  0  0  0  0  0  0  0  0  0  0  0
   13.1903   -9.1059  -10.9189 O   0  0  0  0  0  0  0  0  0  0  0  0
   14.0096  -15.4558  -12.4928 O   0  0  0  0  0  0  0  0  0  0  0  0
   15.0512   -9.2922   -9.5698 N   0  0  0  0  0  0  0  0  0  0  0  0
   15.3436   -7.8828   -9.7825 C   0  0  1  0  0  0  0  0  0  0  0  0
   15.3957   -7.2227   -8.4382 C   0  0  0  0  0  0  0  0  0  0  0  0
   15.6884   -5.7972   -8.5089 C   0  0  0  0  0  0  0  0  0  0  0  0
   15.8226   -5.1181   -9.5420 O   0  0  0  0  0  0  0  0  0  0  0  0
   16.6717   -7.7684  -10.4826 C   0  0  0  0  0  0  0  0  0  0  0  0
   17.7631   -8.1370  -10.0156 O   0  0  0  0  0  0  0  0  0  0  0  0
   15.8363   -5.1088   -7.2922 O   0  0  0  0  0  0  0  0  0  0  0  0
   17.0700   -7.9668  -14.5328 O   0  0  0  0  0  0  0  0  0  0  0  0
   18.1290   -8.0378  -13.6426 C   0  0  0  0  0  0  0  0  0  0  0  0
   18.0096   -7.0491  -12.5040 C   0  0  2  0  0  0  0  0  0  0  0  0
   16.7429   -7.1917  -11.8045 N   0  0  0  0  0  0  0  0  0  0  0  0
   18.1914   -5.6843  -12.9962 C   0  0  0  0  0  0  0  0  0  0  0  0
   19.3809   -5.3068  -13.5801 O   0  0  0  0  0  0  0  0  0  0  0  0
   17.2527   -4.8438  -12.8864 O   0  0  0  0  0  0  0  0  0  0  0  0
  2  1  1  6
  2  7  1  0
  2  3  1  0
  3  4  1  0
  4  5  1  0
  5  9  1  0
  6  5  2  0
  7  8  2  0
  7 10  1  0
 10 11  1  0
 11 15  1  0
 12 13  1  0
 11 12  1  1
 13 17  1  0
 14 13  2  0
 15 16  2  0
 15 21  1  0
 18 19  1  0
 20 19  1  6
 20 22  1  0
 21 20  1  0
 22 23  1  0
 24 22  2  0
M  END
$$$$
