EDS.pdb
     RDKit          3D

 24 23  0  0  1  0  0  0  0  0999 V2000
   18.4783   -9.8941  -11.6278 N   0  0  0  0  0  0  0  0  0  0  0  0
   18.1633   -8.6648  -12.3220 C   0  0  1  0  0  0  0  0  0  0  0  0
   17.7574   -9.0678  -13.7446 C   0  0  0  0  0  0  0  0  0  0  0  0
   19.0206   -9.4921  -14.4969 C   0  0  0  0  0  0  0  0  0  0  0  0
   19.7584   -8.2825  -14.9217 C   0  0  0  0  0  0  0  0  0  0  0  0
   19.5000   -7.7084  -16.0054 O   0  0  0  0  0  0  0  0  0  0  0  0
   16.9705   -8.0509  -11.7112 C   0  0  0  0  0  0  0  0  0  0  0  0
   16.4480   -7.0582  -12.2828 O   0  0  0  0  0  0  0  0  0  0  0  0
   20.7539   -7.7706  -14.1107 O   0  0  0  0  0  0  0  0  0  0  0  0
   16.3841   -8.5283  -10.5074 N   0  0  0  0  0  0  0  0  0  0  0  0
   15.2021   -7.8530   -9.9938 C   0  0  1  0  0  0  0  0  0  0  0  0
   14.5105   -8.7978   -9.0586 C   0  0  0  0  0  0  0  0  0  0  0  0
   13.7625   -9.8422   -9.7458 C   0  0  0  0  0  0  0  0  0  0  0  0
   13.8168  -11.0639   -9.5202 O   0  0  0  0  0  0  0  0  0  0  0  0
   15.6380   -6.6090   -9.2662 C   0  0  0  0  0  0  0  0  0  0  0  0
   16.4961   -6.5666   -8.3680 O   0  0  0  0  0  0  0  0  0  0  0  0
   12.8874   -9.4402  -10.7699 O   0  0  0  0  0  0  0  0  0  0  0  0
   15.8254   -1.7487   -9.2450 O   0  0  0  0  0  0  0  0  0  0  0  0
   15.5052   -2.9414   -9.8728 C   0  0  0  0  0  0  0  0  0  0  0  0
   15.4421   -4.1123   -8.9173 C   0  0  2  0  0  0  0  0  0  0  0  0
   15.0449   -5.3347   -9.5971 N   0  0  0  0  0  0  0  0  0  0  0  0
   14.5439   -3.8105   -7.8037 C   0  0  0  0  0  0  0  0  0  0  0  0
   14.9252   -2.9222   -6.8219 O   0  0  0  0  0  0  0  0  0  0  0  0
   13.4098   -4.3668   -7.7393 O   0  0  0  0  0  0  0  0  0  0  0  0
  2  1  1  1
  2  7  1  0
  2  3  1  0
  3  4  1  0
  4  5  1  0
  5  9  1  0
  6  5  2  0
  7  8  2  0
  7 10  1  0
 10 11  1  0
 11 15  1  0
 12 13  1  0
 11 12  1  1
 13 17  1  0
 14 13  2  0
 15 16  2  0
 15 21  1  0
 18 19  1  0
 20 19  1  6
 20 22  1  0
 21 20  1  0
 22 23  1  0
 24 22  2  0
M  END
$$$$
