EDS.pdb
     RDKit          3D

 24 23  0  0  1  0  0  0  0  0999 V2000
   24.0525   -7.7897  -16.9397 N   0  0  0  0  0  0  0  0  0  0  0  0
   23.9252   -6.3576  -17.0995 C   0  0  1  0  0  0  0  0  0  0  0  0
   23.6149   -5.7969  -15.7065 C   0  0  0  0  0  0  0  0  0  0  0  0
   22.1890   -6.2097  -15.3349 C   0  0  0  0  0  0  0  0  0  0  0  0
   21.8606   -5.6624  -14.0006 C   0  0  0  0  0  0  0  0  0  0  0  0
   22.6394   -4.8798  -13.4073 O   0  0  0  0  0  0  0  0  0  0  0  0
   25.2289   -5.7920  -17.4906 C   0  0  0  0  0  0  0  0  0  0  0  0
   26.2592   -6.4995  -17.3384 O   0  0  0  0  0  0  0  0  0  0  0  0
   20.6720   -6.0179  -13.3909 O   0  0  0  0  0  0  0  0  0  0  0  0
   25.3755   -4.4853  -18.0310 N   0  0  0  0  0  0  0  0  0  0  0  0
   26.6738   -4.0916  -18.5569 C   0  0  1  0  0  0  0  0  0  0  0  0
   27.0129   -5.0287  -19.6759 C   0  0  0  0  0  0  0  0  0  0  0  0
   28.3936   -5.4921  -19.6390 C   0  0  0  0  0  0  0  0  0  0  0  0
   29.4117   -4.7832  -19.5542 O   0  0  0  0  0  0  0  0  0  0  0  0
   26.5787   -2.6756  -19.0599 C   0  0  0  0  0  0  0  0  0  0  0  0
   25.7975   -2.2782  -19.9412 O   0  0  0  0  0  0  0  0  0  0  0  0
   28.6095   -6.8797  -19.7054 O   0  0  0  0  0  0  0  0  0  0  0  0
   28.1322    1.9601  -18.4219 O   0  0  0  0  0  0  0  0  0  0  0  0
   28.3345    0.6075  -18.2020 C   0  0  0  0  0  0  0  0  0  0  0  0
   27.3221   -0.2634  -18.9126 C   0  0  2  0  0  0  0  0  0  0  0  0
   27.4404   -1.6556  -18.5102 N   0  0  0  0  0  0  0  0  0  0  0  0
   27.4562   -0.1181  -20.3614 C   0  0  0  0  0  0  0  0  0  0  0  0
   26.6194    0.7268  -21.0574 O   0  0  0  0  0  0  0  0  0  0  0  0
   28.3446   -0.7708  -20.9813 O   0  0  0  0  0  0  0  0  0  0  0  0
  2  1  1  1
  2  7  1  0
  2  3  1  0
  3  4  1  0
  4  5  1  0
  5  9  1  0
  6  5  2  0
  7  8  2  0
  7 10  1  0
 10 11  1  0
 11 15  1  0
 12 13  1  0
 11 12  1  6
 13 17  1  0
 14 13  2  0
 15 16  2  0
 15 21  1  0
 18 19  1  0
 20 19  1  1
 20 22  1  0
 21 20  1  0
 22 23  1  0
 24 22  2  0
M  END
$$$$
