EDS.pdb
     RDKit          3D

 24 23  0  0  1  0  0  0  0  0999 V2000
   17.3818  -12.3087  -16.4428 N   0  0  0  0  0  0  0  0  0  0  0  0
   17.2559  -10.8801  -16.2537 C   0  0  1  0  0  0  0  0  0  0  0  0
   16.2158  -10.6848  -15.1440 C   0  0  0  0  0  0  0  0  0  0  0  0
   14.9312  -10.1549  -15.7848 C   0  0  0  0  0  0  0  0  0  0  0  0
   13.8103  -11.0535  -15.4328 C   0  0  0  0  0  0  0  0  0  0  0  0
   13.7745  -11.6503  -14.3312 O   0  0  0  0  0  0  0  0  0  0  0  0
   18.5244  -10.3433  -15.7288 C   0  0  0  0  0  0  0  0  0  0  0  0
   18.8439  -10.6133  -14.5414 O   0  0  0  0  0  0  0  0  0  0  0  0
   12.7786  -11.2425  -16.3332 O   0  0  0  0  0  0  0  0  0  0  0  0
   19.4022   -9.5352  -16.5019 N   0  0  0  0  0  0  0  0  0  0  0  0
   20.6738   -9.1351  -15.9190 C   0  0  1  0  0  0  0  0  0  0  0  0
   21.7614   -9.6088  -16.8346 C   0  0  0  0  0  0  0  0  0  0  0  0
   22.1598  -10.9883  -16.5882 C   0  0  0  0  0  0  0  0  0  0  0  0
   22.0978  -11.5959  -15.5050 O   0  0  0  0  0  0  0  0  0  0  0  0
   20.6960   -7.6343  -15.7993 C   0  0  0  0  0  0  0  0  0  0  0  0
   20.2147   -6.8414  -16.6267 O   0  0  0  0  0  0  0  0  0  0  0  0
   22.6674  -11.7168  -17.6782 O   0  0  0  0  0  0  0  0  0  0  0  0
   21.9327   -3.7837  -12.9870 O   0  0  0  0  0  0  0  0  0  0  0  0
   21.9562   -5.1547  -13.1841 C   0  0  0  0  0  0  0  0  0  0  0  0
   21.4138   -5.5656  -14.5350 C   0  0  2  0  0  0  0  0  0  0  0  0
   21.3133   -7.0113  -14.6521 N   0  0  0  0  0  0  0  0  0  0  0  0
   22.2378   -5.0042  -15.6046 C   0  0  0  0  0  0  0  0  0  0  0  0
   23.2754   -5.7348  -16.1413 O   0  0  0  0  0  0  0  0  0  0  0  0
   21.9986   -3.8415  -16.0412 O   0  0  0  0  0  0  0  0  0  0  0  0
  2  1  1  1
  2  7  1  0
  2  3  1  0
  3  4  1  0
  4  5  1  0
  5  9  1  0
  6  5  2  0
  7  8  2  0
  7 10  1  0
 10 11  1  0
 11 15  1  0
 12 13  1  0
 11 12  1  6
 13 17  1  0
 14 13  2  0
 15 16  2  0
 15 21  1  0
 18 19  1  0
 20 19  1  1
 20 22  1  0
 21 20  1  0
 22 23  1  0
 24 22  2  0
M  END
$$$$
