EDS.pdb
     RDKit          3D

 24 23  0  0  1  0  0  0  0  0999 V2000
   20.5553  -13.2286  -18.3295 N   0  0  0  0  0  0  0  0  0  0  0  0
   19.7977  -12.0204  -18.5718 C   0  0  1  0  0  0  0  0  0  0  0  0
   18.5937  -12.0722  -17.6236 C   0  0  0  0  0  0  0  0  0  0  0  0
   17.6238  -13.1350  -18.1448 C   0  0  0  0  0  0  0  0  0  0  0  0
   16.3665  -13.0624  -17.3691 C   0  0  0  0  0  0  0  0  0  0  0  0
   16.2331  -12.2576  -16.4176 O   0  0  0  0  0  0  0  0  0  0  0  0
   20.5966  -10.8521  -18.1601 C   0  0  0  0  0  0  0  0  0  0  0  0
   21.5409  -11.0284  -17.3463 O   0  0  0  0  0  0  0  0  0  0  0  0
   15.3140  -13.8968  -17.6959 O   0  0  0  0  0  0  0  0  0  0  0  0
   20.3494   -9.5369  -18.6398 N   0  0  0  0  0  0  0  0  0  0  0  0
   21.2656   -8.4733  -18.2573 C   0  0  1  0  0  0  0  0  0  0  0  0
   21.4440   -7.5790  -19.4464 C   0  0  0  0  0  0  0  0  0  0  0  0
   22.3489   -6.4648  -19.1970 C   0  0  0  0  0  0  0  0  0  0  0  0
   22.1809   -5.2818  -19.5412 O   0  0  0  0  0  0  0  0  0  0  0  0
   20.6639   -7.7125  -17.1057 C   0  0  0  0  0  0  0  0  0  0  0  0
   19.4975   -7.2857  -17.0590 O   0  0  0  0  0  0  0  0  0  0  0  0
   23.5358   -6.7431  -18.4970 O   0  0  0  0  0  0  0  0  0  0  0  0
   21.0554   -8.4013  -13.1711 O   0  0  0  0  0  0  0  0  0  0  0  0
   21.4783   -7.1241  -13.5015 C   0  0  0  0  0  0  0  0  0  0  0  0
   20.9310   -6.6466  -14.8284 C   0  0  2  0  0  0  0  0  0  0  0  0
   21.4601   -7.4268  -15.9354 N   0  0  0  0  0  0  0  0  0  0  0  0
   21.2053   -5.2215  -15.0069 C   0  0  0  0  0  0  0  0  0  0  0  0
   21.9262   -4.7816  -16.0956 O   0  0  0  0  0  0  0  0  0  0  0  0
   20.7794   -4.3860  -14.1583 O   0  0  0  0  0  0  0  0  0  0  0  0
  2  1  1  1
  2  7  1  0
  2  3  1  0
  3  4  1  0
  4  5  1  0
  5  9  1  0
  6  5  2  0
  7  8  2  0
  7 10  1  0
 10 11  1  0
 11 15  1  0
 12 13  1  0
 11 12  1  6
 13 17  1  0
 14 13  2  0
 15 16  2  0
 15 21  1  0
 18 19  1  0
 20 19  1  1
 20 22  1  0
 21 20  1  0
 22 23  1  0
 24 22  2  0
M  END
$$$$
