EDS.pdb
     RDKit          3D

 24 23  0  0  1  0  0  0  0  0999 V2000
   21.2670  -11.2993  -18.5923 N   0  0  0  0  0  0  0  0  0  0  0  0
   22.3372  -10.3999  -18.2207 C   0  0  1  0  0  0  0  0  0  0  0  0
   23.0818  -10.0609  -19.5175 C   0  0  0  0  0  0  0  0  0  0  0  0
   23.8191  -11.3178  -19.9846 C   0  0  0  0  0  0  0  0  0  0  0  0
   24.5260  -11.0204  -21.2494 C   0  0  0  0  0  0  0  0  0  0  0  0
   25.7695  -10.8667  -21.2806 O   0  0  0  0  0  0  0  0  0  0  0  0
   21.7632   -9.1334  -17.7317 C   0  0  0  0  0  0  0  0  0  0  0  0
   20.5744   -8.8557  -18.0396 O   0  0  0  0  0  0  0  0  0  0  0  0
   23.8056  -10.9086  -22.4238 O   0  0  0  0  0  0  0  0  0  0  0  0
   22.4903   -8.2124  -16.9292 N   0  0  0  0  0  0  0  0  0  0  0  0
   21.8023   -7.0326  -16.4275 C   0  0  1  0  0  0  0  0  0  0  0  0
   21.7005   -7.1659  -14.9384 C   0  0  0  0  0  0  0  0  0  0  0  0
   20.9869   -6.0620  -14.3100 C   0  0  0  0  0  0  0  0  0  0  0  0
   21.4634   -4.9602  -13.9855 O   0  0  0  0  0  0  0  0  0  0  0  0
   22.6056   -5.8143  -16.7983 C   0  0  0  0  0  0  0  0  0  0  0  0
   23.7908   -5.8231  -17.1729 O   0  0  0  0  0  0  0  0  0  0  0  0
   19.6206   -6.2498  -14.0380 O   0  0  0  0  0  0  0  0  0  0  0  0
   23.8038   -2.3772  -19.1447 O   0  0  0  0  0  0  0  0  0  0  0  0
   23.1619   -3.4981  -18.6440 C   0  0  0  0  0  0  0  0  0  0  0  0
   22.6960   -3.3221  -17.2157 C   0  0  2  0  0  0  0  0  0  0  0  0
   22.0017   -4.5044  -16.7316 N   0  0  0  0  0  0  0  0  0  0  0  0
   21.8564   -2.1307  -17.0992 C   0  0  0  0  0  0  0  0  0  0  0  0
   22.4219   -0.9031  -16.8313 O   0  0  0  0  0  0  0  0  0  0  0  0
   20.6036   -2.2251  -17.2448 O   0  0  0  0  0  0  0  0  0  0  0  0
  2  1  1  6
  2  7  1  0
  2  3  1  0
  3  4  1  0
  4  5  1  0
  5  9  1  0
  6  5  2  0
  7  8  2  0
  7 10  1  0
 10 11  1  0
 11 15  1  0
 12 13  1  0
 11 12  1  1
 13 17  1  0
 14 13  2  0
 15 16  2  0
 15 21  1  0
 18 19  1  0
 20 19  1  6
 20 22  1  0
 21 20  1  0
 22 23  1  0
 24 22  2  0
M  END
$$$$
