EDS.pdb
     RDKit          3D

 24 23  0  0  1  0  0  0  0  0999 V2000
   12.1624   -8.5861   -9.0633 N   0  0  0  0  0  0  0  0  0  0  0  0
   13.5150   -9.0830   -9.1889 C   0  0  1  0  0  0  0  0  0  0  0  0
   13.4323  -10.3315  -10.0753 C   0  0  0  0  0  0  0  0  0  0  0  0
   12.7188  -11.4297   -9.2838 C   0  0  0  0  0  0  0  0  0  0  0  0
   12.6336  -12.6480  -10.1184 C   0  0  0  0  0  0  0  0  0  0  0  0
   13.1958  -12.7126  -11.2367 O   0  0  0  0  0  0  0  0  0  0  0  0
   14.3283   -8.1033   -9.9316 C   0  0  0  0  0  0  0  0  0  0  0  0
   13.7584   -7.3782  -10.7887 O   0  0  0  0  0  0  0  0  0  0  0  0
   11.9209  -13.7403   -9.6606 O   0  0  0  0  0  0  0  0  0  0  0  0
   15.7252   -7.9404   -9.7241 N   0  0  0  0  0  0  0  0  0  0  0  0
   16.4235   -6.9057  -10.4716 C   0  0  1  0  0  0  0  0  0  0  0  0
   17.2472   -6.1199   -9.4972 C   0  0  0  0  0  0  0  0  0  0  0  0
   16.5322   -4.9889   -8.9209 C   0  0  0  0  0  0  0  0  0  0  0  0
   15.3773   -4.6218   -9.1998 O   0  0  0  0  0  0  0  0  0  0  0  0
   17.3031   -7.5667  -11.4994 C   0  0  0  0  0  0  0  0  0  0  0  0
   18.2007   -8.3903  -11.2525 O   0  0  0  0  0  0  0  0  0  0  0  0
   17.2060   -4.2279   -7.9497 O   0  0  0  0  0  0  0  0  0  0  0  0
   18.2101   -8.2949  -16.2699 O   0  0  0  0  0  0  0  0  0  0  0  0
   17.3702   -7.8233  -15.2742 C   0  0  0  0  0  0  0  0  0  0  0  0
   18.0255   -7.8023  -13.9110 C   0  0  2  0  0  0  0  0  0  0  0  0
   17.1351   -7.2563  -12.8995 N   0  0  0  0  0  0  0  0  0  0  0  0
   19.2840   -7.0596  -13.9646 C   0  0  0  0  0  0  0  0  0  0  0  0
   20.4844   -7.7288  -14.0627 O   0  0  0  0  0  0  0  0  0  0  0  0
   19.2729   -5.7957  -13.9208 O   0  0  0  0  0  0  0  0  0  0  0  0
  2  1  1  6
  2  7  1  0
  2  3  1  0
  3  4  1  0
  4  5  1  0
  5  9  1  0
  6  5  2  0
  7  8  2  0
  7 10  1  0
 10 11  1  0
 11 15  1  0
 12 13  1  0
 11 12  1  1
 13 17  1  0
 14 13  2  0
 15 16  2  0
 15 21  1  0
 18 19  1  0
 20 19  1  6
 20 22  1  0
 21 20  1  0
 22 23  1  0
 24 22  2  0
M  END
$$$$
