EDS.pdb
     RDKit          3D

 24 23  0  0  1  0  0  0  0  0999 V2000
   28.1395  -21.6293  -15.8336 N   0  0  0  0  0  0  0  0  0  0  0  0
   27.4412  -20.4960  -15.2676 C   0  0  1  0  0  0  0  0  0  0  0  0
   26.9864  -19.6370  -16.4535 C   0  0  0  0  0  0  0  0  0  0  0  0
   28.0775  -18.6021  -16.7368 C   0  0  0  0  0  0  0  0  0  0  0  0
   27.6756  -17.7840  -17.9017 C   0  0  0  0  0  0  0  0  0  0  0  0
   26.8806  -16.8227  -17.7800 O   0  0  0  0  0  0  0  0  0  0  0  0
   26.2121  -20.9627  -14.6011 C   0  0  0  0  0  0  0  0  0  0  0  0
   25.6552  -22.0059  -15.0331 O   0  0  0  0  0  0  0  0  0  0  0  0
   28.1842  -18.0812  -19.1522 O   0  0  0  0  0  0  0  0  0  0  0  0
   25.6277  -20.2888  -13.4941 N   0  0  0  0  0  0  0  0  0  0  0  0
   24.5480  -20.9442  -12.7719 C   0  0  1  0  0  0  0  0  0  0  0  0
   24.7747  -20.7121  -11.3089 C   0  0  0  0  0  0  0  0  0  0  0  0
   25.5706  -21.7566  -10.6779 C   0  0  0  0  0  0  0  0  0  0  0  0
   25.8493  -22.8690  -11.1587 O   0  0  0  0  0  0  0  0  0  0  0  0
   23.2407  -20.3387  -13.2096 C   0  0  0  0  0  0  0  0  0  0  0  0
   22.9091  -19.1521  -13.0458 O   0  0  0  0  0  0  0  0  0  0  0  0
   26.0808  -21.4914   -9.3951 O   0  0  0  0  0  0  0  0  0  0  0  0
   19.0203  -21.0742  -15.6448 O   0  0  0  0  0  0  0  0  0  0  0  0
   20.2569  -21.5525  -15.2434 C   0  0  0  0  0  0  0  0  0  0  0  0
   20.9800  -20.6071  -14.3098 C   0  0  2  0  0  0  0  0  0  0  0  0
   22.2554  -21.1557  -13.8779 N   0  0  0  0  0  0  0  0  0  0  0  0
   20.1316  -20.2765  -13.1656 C   0  0  0  0  0  0  0  0  0  0  0  0
   19.3877  -19.1168  -13.1618 O   0  0  0  0  0  0  0  0  0  0  0  0
   20.0788  -21.0582  -12.1727 O   0  0  0  0  0  0  0  0  0  0  0  0
  2  1  1  6
  2  7  1  0
  2  3  1  0
  3  4  1  0
  4  5  1  0
  5  9  1  0
  6  5  2  0
  7  8  2  0
  7 10  1  0
 10 11  1  0
 11 15  1  0
 12 13  1  0
 11 12  1  1
 13 17  1  0
 14 13  2  0
 15 16  2  0
 15 21  1  0
 18 19  1  0
 20 19  1  6
 20 22  1  0
 21 20  1  0
 22 23  1  0
 24 22  2  0
M  END
$$$$
