EDS.pdb
     RDKit          3D

 24 23  0  0  1  0  0  0  0  0999 V2000
   16.6205  -10.7693  -17.9043 N   0  0  0  0  0  0  0  0  0  0  0  0
   17.2306  -10.4412  -16.6344 C   0  0  1  0  0  0  0  0  0  0  0  0
   18.5121  -11.2785  -16.5456 C   0  0  0  0  0  0  0  0  0  0  0  0
   18.1125  -12.7327  -16.2863 C   0  0  0  0  0  0  0  0  0  0  0  0
   17.5944  -12.8518  -14.9059 C   0  0  0  0  0  0  0  0  0  0  0  0
   18.2871  -12.5121  -13.9181 O   0  0  0  0  0  0  0  0  0  0  0  0
   17.6596   -9.0310  -16.6486 C   0  0  0  0  0  0  0  0  0  0  0  0
   17.8484   -8.4731  -17.7613 O   0  0  0  0  0  0  0  0  0  0  0  0
   16.3211  -13.3469  -14.6953 O   0  0  0  0  0  0  0  0  0  0  0  0
   17.8697   -8.2736  -15.4641 N   0  0  0  0  0  0  0  0  0  0  0  0
   18.1847   -6.8587  -15.5899 C   0  0  1  0  0  0  0  0  0  0  0  0
   17.1566   -6.0943  -14.8126 C   0  0  0  0  0  0  0  0  0  0  0  0
   17.3649   -4.6528  -14.8465 C   0  0  0  0  0  0  0  0  0  0  0  0
   17.8400   -3.9942  -15.7882 O   0  0  0  0  0  0  0  0  0  0  0  0
   19.5610   -6.6213  -15.0273 C   0  0  0  0  0  0  0  0  0  0  0  0
   20.0042   -7.1227  -13.9799 O   0  0  0  0  0  0  0  0  0  0  0  0
   16.9951   -3.9214  -13.7043 O   0  0  0  0  0  0  0  0  0  0  0  0
   23.8839   -4.3291  -15.6543 O   0  0  0  0  0  0  0  0  0  0  0  0
   22.6088   -4.5976  -16.1247 C   0  0  0  0  0  0  0  0  0  0  0  0
   21.7976   -5.4512  -15.1753 C   0  0  2  0  0  0  0  0  0  0  0  0
   20.4822   -5.7499  -15.7181 N   0  0  0  0  0  0  0  0  0  0  0  0
   21.6959   -4.8011  -13.8695 C   0  0  0  0  0  0  0  0  0  0  0  0
   20.7432   -3.8310  -13.6464 O   0  0  0  0  0  0  0  0  0  0  0  0
   22.4859   -5.1295  -12.9381 O   0  0  0  0  0  0  0  0  0  0  0  0
  2  1  1  6
  2  7  1  0
  2  3  1  0
  3  4  1  0
  4  5  1  0
  5  9  1  0
  6  5  2  0
  7  8  2  0
  7 10  1  0
 10 11  1  0
 11 15  1  0
 12 13  1  0
 11 12  1  1
 13 17  1  0
 14 13  2  0
 15 16  2  0
 15 21  1  0
 18 19  1  0
 20 19  1  6
 20 22  1  0
 21 20  1  0
 22 23  1  0
 24 22  2  0
M  END
$$$$
