EDS.pdb
     RDKit          3D

 24 23  0  0  1  0  0  0  0  0999 V2000
   15.4948   -9.8430  -14.7464 N   0  0  0  0  0  0  0  0  0  0  0  0
   16.1705   -8.9857  -15.6956 C   0  0  1  0  0  0  0  0  0  0  0  0
   15.5351   -7.5980  -15.5477 C   0  0  0  0  0  0  0  0  0  0  0  0
   14.5106   -7.4223  -16.6707 C   0  0  0  0  0  0  0  0  0  0  0  0
   15.1902   -6.8664  -17.8611 C   0  0  0  0  0  0  0  0  0  0  0  0
   14.8459   -7.1944  -19.0207 O   0  0  0  0  0  0  0  0  0  0  0  0
   17.5827   -8.8368  -15.3003 C   0  0  0  0  0  0  0  0  0  0  0  0
   17.8528   -8.7141  -14.0768 O   0  0  0  0  0  0  0  0  0  0  0  0
   16.2266   -5.9666  -17.6970 O   0  0  0  0  0  0  0  0  0  0  0  0
   18.6520   -8.8255  -16.2370 N   0  0  0  0  0  0  0  0  0  0  0  0
   20.0164   -8.7708  -15.7345 C   0  0  1  0  0  0  0  0  0  0  0  0
   20.8429   -9.7059  -16.5639 C   0  0  0  0  0  0  0  0  0  0  0  0
   20.4993  -11.1076  -16.3644 C   0  0  0  0  0  0  0  0  0  0  0  0
   20.2689  -11.6672  -15.2780 O   0  0  0  0  0  0  0  0  0  0  0  0
   20.5200   -7.3579  -15.8655 C   0  0  0  0  0  0  0  0  0  0  0  0
   20.1911   -6.5590  -16.7591 O   0  0  0  0  0  0  0  0  0  0  0  0
   20.4170  -11.9199  -17.5087 O   0  0  0  0  0  0  0  0  0  0  0  0
   21.7551   -5.2052  -12.5516 O   0  0  0  0  0  0  0  0  0  0  0  0
   22.5742   -5.0405  -13.6566 C   0  0  0  0  0  0  0  0  0  0  0  0
   21.9085   -5.4530  -14.9508 C   0  0  2  0  0  0  0  0  0  0  0  0
   21.4625   -6.8361  -14.9040 N   0  0  0  0  0  0  0  0  0  0  0  0
   22.8096   -5.2255  -16.0797 C   0  0  0  0  0  0  0  0  0  0  0  0
   23.0572   -3.9460  -16.5269 O   0  0  0  0  0  0  0  0  0  0  0  0
   23.3661   -6.2075  -16.6504 O   0  0  0  0  0  0  0  0  0  0  0  0
  2  1  1  1
  2  7  1  0
  2  3  1  0
  3  4  1  0
  4  5  1  0
  5  9  1  0
  6  5  2  0
  7  8  2  0
  7 10  1  0
 10 11  1  0
 11 15  1  0
 12 13  1  0
 11 12  1  6
 13 17  1  0
 14 13  2  0
 15 16  2  0
 15 21  1  0
 18 19  1  0
 20 19  1  1
 20 22  1  0
 21 20  1  0
 22 23  1  0
 24 22  2  0
M  END
$$$$
