EDS.pdb
     RDKit          3D

 24 23  0  0  1  0  0  0  0  0999 V2000
   16.1580  -10.6571  -16.6384 N   0  0  0  0  0  0  0  0  0  0  0  0
   17.1710  -10.2629  -15.6841 C   0  0  1  0  0  0  0  0  0  0  0  0
   18.4073  -11.1149  -15.9950 C   0  0  0  0  0  0  0  0  0  0  0  0
   18.0679  -12.5749  -15.6873 C   0  0  0  0  0  0  0  0  0  0  0  0
   19.2437  -13.4185  -15.9936 C   0  0  0  0  0  0  0  0  0  0  0  0
   19.2242  -14.6573  -15.8046 O   0  0  0  0  0  0  0  0  0  0  0  0
   17.5607   -8.8637  -15.9354 C   0  0  0  0  0  0  0  0  0  0  0  0
   17.3931   -8.3931  -17.0910 O   0  0  0  0  0  0  0  0  0  0  0  0
   20.3899  -12.8338  -16.4988 O   0  0  0  0  0  0  0  0  0  0  0  0
   18.1167   -8.0227  -14.9331 N   0  0  0  0  0  0  0  0  0  0  0  0
   18.4557   -6.6521  -15.2846 C   0  0  1  0  0  0  0  0  0  0  0  0
   17.3901   -5.7624  -14.7203 C   0  0  0  0  0  0  0  0  0  0  0  0
   17.6351   -4.3469  -14.9630 C   0  0  0  0  0  0  0  0  0  0  0  0
   18.3054   -3.8587  -15.8897 O   0  0  0  0  0  0  0  0  0  0  0  0
   19.7969   -6.3206  -14.6858 C   0  0  0  0  0  0  0  0  0  0  0  0
   20.1477   -6.5825  -13.5225 O   0  0  0  0  0  0  0  0  0  0  0  0
   17.0605   -3.4304  -14.0652 O   0  0  0  0  0  0  0  0  0  0  0  0
   24.1963   -4.2221  -15.4485 O   0  0  0  0  0  0  0  0  0  0  0  0
   22.9719   -4.6213  -15.9590 C   0  0  0  0  0  0  0  0  0  0  0  0
   22.0613   -5.2178  -14.9087 C   0  0  2  0  0  0  0  0  0  0  0  0
   20.7944   -5.6439  -15.4809 N   0  0  0  0  0  0  0  0  0  0  0  0
   21.8555   -4.2672  -13.8168 C   0  0  0  0  0  0  0  0  0  0  0  0
   22.6051   -4.3570  -12.6642 O   0  0  0  0  0  0  0  0  0  0  0  0
   20.9850   -3.3565  -13.9288 O   0  0  0  0  0  0  0  0  0  0  0  0
  2  1  1  6
  2  7  1  0
  2  3  1  0
  3  4  1  0
  4  5  1  0
  5  9  1  0
  6  5  2  0
  7  8  2  0
  7 10  1  0
 10 11  1  0
 11 15  1  0
 12 13  1  0
 11 12  1  1
 13 17  1  0
 14 13  2  0
 15 16  2  0
 15 21  1  0
 18 19  1  0
 20 19  1  6
 20 22  1  0
 21 20  1  0
 22 23  1  0
 24 22  2  0
M  END
$$$$
