EDS.pdb
     RDKit          3D

 24 23  0  0  1  0  0  0  0  0999 V2000
   23.3880  -10.7051  -17.3571 N   0  0  0  0  0  0  0  0  0  0  0  0
   23.0521   -9.5775  -18.1987 C   0  0  1  0  0  0  0  0  0  0  0  0
   22.2530  -10.1458  -19.3776 C   0  0  0  0  0  0  0  0  0  0  0  0
   22.8057  -11.5358  -19.7003 C   0  0  0  0  0  0  0  0  0  0  0  0
   22.0766  -12.0867  -20.8634 C   0  0  0  0  0  0  0  0  0  0  0  0
   21.5505  -13.2236  -20.8240 O   0  0  0  0  0  0  0  0  0  0  0  0
   22.1342   -8.6819  -17.4720 C   0  0  0  0  0  0  0  0  0  0  0  0
   21.6791   -7.6739  -18.0735 O   0  0  0  0  0  0  0  0  0  0  0  0
   21.9701  -11.3368  -22.0197 O   0  0  0  0  0  0  0  0  0  0  0  0
   21.7402   -8.9047  -16.1244 N   0  0  0  0  0  0  0  0  0  0  0  0
   20.8961   -7.9142  -15.4737 C   0  0  1  0  0  0  0  0  0  0  0  0
   20.1752   -8.5990  -14.3526 C   0  0  0  0  0  0  0  0  0  0  0  0
   19.0489   -9.4066  -14.8018 C   0  0  0  0  0  0  0  0  0  0  0  0
   18.2042   -9.0901  -15.6578 O   0  0  0  0  0  0  0  0  0  0  0  0
   21.7721   -6.8092  -14.9458 C   0  0  0  0  0  0  0  0  0  0  0  0
   22.7709   -6.9685  -14.2233 O   0  0  0  0  0  0  0  0  0  0  0  0
   18.8907  -10.6744  -14.2154 O   0  0  0  0  0  0  0  0  0  0  0  0
   22.5577   -3.4963  -17.0500 O   0  0  0  0  0  0  0  0  0  0  0  0
   22.2615   -3.1587  -15.7395 C   0  0  0  0  0  0  0  0  0  0  0  0
   22.3110   -4.3431  -14.7999 C   0  0  2  0  0  0  0  0  0  0  0  0
   21.4749   -5.4346  -15.2730 N   0  0  0  0  0  0  0  0  0  0  0  0
   21.9325   -3.9343  -13.4480 C   0  0  0  0  0  0  0  0  0  0  0  0
   22.6749   -2.9909  -12.7717 O   0  0  0  0  0  0  0  0  0  0  0  0
   20.9180   -4.4481  -12.8943 O   0  0  0  0  0  0  0  0  0  0  0  0
  2  1  1  1
  2  7  1  0
  2  3  1  0
  3  4  1  0
  4  5  1  0
  5  9  1  0
  6  5  2  0
  7  8  2  0
  7 10  1  0
 10 11  1  0
 11 15  1  0
 12 13  1  0
 11 12  1  1
 13 17  1  0
 14 13  2  0
 15 16  2  0
 15 21  1  0
 18 19  1  0
 20 19  1  6
 20 22  1  0
 21 20  1  0
 22 23  1  0
 24 22  2  0
M  END
$$$$
