EDS.pdb
     RDKit          3D

 24 23  0  0  1  0  0  0  0  0999 V2000
   15.6333  -12.8541  -15.8935 N   0  0  0  0  0  0  0  0  0  0  0  0
   15.7962  -11.5122  -15.3785 C   0  0  1  0  0  0  0  0  0  0  0  0
   15.3567  -11.5604  -13.9103 C   0  0  0  0  0  0  0  0  0  0  0  0
   13.8385  -11.7483  -13.8746 C   0  0  0  0  0  0  0  0  0  0  0  0
   13.3616  -11.5609  -12.4870 C   0  0  0  0  0  0  0  0  0  0  0  0
   13.7181  -10.5729  -11.8031 O   0  0  0  0  0  0  0  0  0  0  0  0
   17.2283  -11.1632  -15.3689 C   0  0  0  0  0  0  0  0  0  0  0  0
   18.0608  -12.0379  -15.7251 O   0  0  0  0  0  0  0  0  0  0  0  0
   12.5055  -12.4912  -11.9282 O   0  0  0  0  0  0  0  0  0  0  0  0
   17.7113   -9.8851  -14.9763 N   0  0  0  0  0  0  0  0  0  0  0  0
   19.1108   -9.5669  -15.2151 C   0  0  1  0  0  0  0  0  0  0  0  0
   19.3671   -9.7225  -16.6833 C   0  0  0  0  0  0  0  0  0  0  0  0
   20.7336   -9.3931  -17.0663 C   0  0  0  0  0  0  0  0  0  0  0  0
   21.7613   -9.5988  -16.3970 O   0  0  0  0  0  0  0  0  0  0  0  0
   19.3616   -8.1476  -14.7794 C   0  0  0  0  0  0  0  0  0  0  0  0
   18.6221   -7.1797  -15.0272 O   0  0  0  0  0  0  0  0  0  0  0  0
   20.9221   -8.7801  -18.3173 O   0  0  0  0  0  0  0  0  0  0  0  0
   22.3191   -5.1322  -12.2291 O   0  0  0  0  0  0  0  0  0  0  0  0
   22.0454   -6.4097  -12.6897 C   0  0  0  0  0  0  0  0  0  0  0  0
   20.8023   -6.4729  -13.5492 C   0  0  2  0  0  0  0  0  0  0  0  0
   20.5405   -7.8270  -14.0097 N   0  0  0  0  0  0  0  0  0  0  0  0
   20.9150   -5.5444  -14.6732 C   0  0  0  0  0  0  0  0  0  0  0  0
   20.4216   -4.2621  -14.5700 O   0  0  0  0  0  0  0  0  0  0  0  0
   21.4683   -5.9184  -15.7473 O   0  0  0  0  0  0  0  0  0  0  0  0
  2  1  1  1
  2  7  1  0
  2  3  1  0
  3  4  1  0
  4  5  1  0
  5  9  1  0
  6  5  2  0
  7  8  2  0
  7 10  1  0
 10 11  1  0
 11 15  1  0
 12 13  1  0
 11 12  1  6
 13 17  1  0
 14 13  2  0
 15 16  2  0
 15 21  1  0
 18 19  1  0
 20 19  1  6
 20 22  1  0
 21 20  1  0
 22 23  1  0
 24 22  2  0
M  END
$$$$
