EDS.pdb
     RDKit          3D

 24 23  0  0  1  0  0  0  0  0999 V2000
   24.3700  -22.0521  -17.8344 N   0  0  0  0  0  0  0  0  0  0  0  0
   24.5922  -23.1453  -16.9135 C   0  0  1  0  0  0  0  0  0  0  0  0
   23.2791  -23.9355  -16.8617 C   0  0  0  0  0  0  0  0  0  0  0  0
   22.2293  -23.0673  -16.1647 C   0  0  0  0  0  0  0  0  0  0  0  0
   21.6132  -23.8436  -15.0666 C   0  0  0  0  0  0  0  0  0  0  0  0
   22.1832  -23.9689  -13.9574 O   0  0  0  0  0  0  0  0  0  0  0  0
   25.6019  -24.0601  -17.4758 C   0  0  0  0  0  0  0  0  0  0  0  0
   25.5142  -24.3754  -18.6916 O   0  0  0  0  0  0  0  0  0  0  0  0
   20.3841  -24.4450  -15.2622 O   0  0  0  0  0  0  0  0  0  0  0  0
   26.6689  -24.6019  -16.7084 N   0  0  0  0  0  0  0  0  0  0  0  0
   27.5968  -25.5168  -17.3558 C   0  0  1  0  0  0  0  0  0  0  0  0
   28.9791  -24.9703  -17.1661 C   0  0  0  0  0  0  0  0  0  0  0  0
   29.2012  -23.7126  -17.8672 C   0  0  0  0  0  0  0  0  0  0  0  0
   28.6706  -23.3543  -18.9332 O   0  0  0  0  0  0  0  0  0  0  0  0
   27.4669  -26.8701  -16.7086 C   0  0  0  0  0  0  0  0  0  0  0  0
   27.4921  -27.0854  -15.4847 O   0  0  0  0  0  0  0  0  0  0  0  0
   30.1049  -22.8039  -17.2895 O   0  0  0  0  0  0  0  0  0  0  0  0
   24.9854  -29.6990  -18.0804 O   0  0  0  0  0  0  0  0  0  0  0  0
   26.2357  -30.2383  -17.8258 C   0  0  0  0  0  0  0  0  0  0  0  0
   27.0869  -29.3595  -16.9362 C   0  0  2  0  0  0  0  0  0  0  0  0
   27.2978  -28.0477  -17.5269 N   0  0  0  0  0  0  0  0  0  0  0  0
   28.3589  -30.0174  -16.6408 C   0  0  0  0  0  0  0  0  0  0  0  0
   28.4445  -30.9448  -15.6254 O   0  0  0  0  0  0  0  0  0  0  0  0
   29.3878  -29.7352  -17.3201 O   0  0  0  0  0  0  0  0  0  0  0  0
  2  1  1  6
  2  7  1  0
  2  3  1  0
  3  4  1  0
  4  5  1  0
  5  9  1  0
  6  5  2  0
  7  8  2  0
  7 10  1  0
 10 11  1  0
 11 15  1  0
 12 13  1  0
 11 12  1  1
 13 17  1  0
 14 13  2  0
 15 16  2  0
 15 21  1  0
 18 19  1  0
 20 19  1  6
 20 22  1  0
 21 20  1  0
 22 23  1  0
 24 22  2  0
M  END
$$$$
