PVT.pdb
     RDKit          3D

 22 22  0  0  1  0  0  0  0  0999 V2000
   28.3534  -21.2980  -15.9140 N   0  0  0  0  0  0  0  0  0  0  0  0
   29.1741  -20.4933  -16.8008 C   0  0  0  0  0  0  0  0  0  0  0  0
   28.2461  -19.3072  -17.0592 C   0  0  0  0  0  0  0  0  0  0  0  0
   27.4262  -19.1965  -15.7889 C   0  0  0  0  0  0  0  0  0  0  0  0
   27.9409  -20.3326  -14.9448 C   0  0  1  0  0  0  0  0  0  0  0  0
   26.9366  -20.8382  -13.9874 C   0  0  0  0  0  0  0  0  0  0  0  0
   26.3481  -21.9119  -14.2983 O   0  0  0  0  0  0  0  0  0  0  0  0
   26.8669  -20.8132   -9.8819 C   0  0  0  0  0  0  0  0  0  0  0  0
   25.6283  -20.2899  -10.5264 C   0  0  2  0  0  0  0  0  0  0  0  0
   24.4203  -20.7440   -9.7570 C   0  0  0  0  0  0  0  0  0  0  0  0
   25.5097  -20.6355  -11.9910 C   0  0  2  0  0  0  0  0  0  0  0  0
   26.6174  -20.1835  -12.7687 N   0  0  0  0  0  0  0  0  0  0  0  0
   24.1997  -20.1492  -12.5468 C   0  0  0  0  0  0  0  0  0  0  0  0
   24.0138  -18.9116  -12.6713 O   0  0  0  0  0  0  0  0  0  0  0  0
   22.5784  -20.2732  -15.7776 C   0  0  0  0  0  0  0  0  0  0  0  0
   21.6289  -20.9651  -14.8432 C   0  0  1  0  0  0  0  0  0  0  0  0
   21.6523  -22.3481  -14.9570 O   0  0  0  0  0  0  0  0  0  0  0  0
   21.8726  -20.5677  -13.4012 C   0  0  2  0  0  0  0  0  0  0  0  0
   23.1639  -21.0229  -12.9372 N   0  0  0  0  0  0  0  0  0  0  0  0
   20.7693  -21.0705  -12.5443 C   0  0  0  0  0  0  0  0  0  0  0  0
   21.0310  -21.9693  -11.7065 O   0  0  0  0  0  0  0  0  0  0  0  0
   19.4631  -20.6104  -12.6088 O   0  0  0  0  0  0  0  0  0  0  0  0
  1  5  1  0
  2  1  1  0
  3  4  1  0
  3  2  1  0
  4  5  1  0
  6  7  2  0
  5  6  1  1
  9  8  1  1
  9 11  1  0
 10  9  1  0
 11 12  1  6
 11 13  1  0
 12  6  1  0
 13 19  1  0
 14 13  2  0
 16 17  1  0
 16 15  1  6
 18 16  1  0
 18 19  1  1
 20 18  1  0
 20 22  1  0
 21 20  2  0
M  END
$$$$
