PVT.pdb
     RDKit          3D

 22 22  0  0  1  0  0  0  0  0999 V2000
   20.1274  -11.9914  -17.6942 N   0  0  0  0  0  0  0  0  0  0  0  0
   20.8969  -12.8545  -18.5719 C   0  0  0  0  0  0  0  0  0  0  0  0
   21.5313  -11.8264  -19.5075 C   0  0  0  0  0  0  0  0  0  0  0  0
   21.6801  -10.5870  -18.6474 C   0  0  0  0  0  0  0  0  0  0  0  0
   21.1003  -11.0125  -17.3241 C   0  0  1  0  0  0  0  0  0  0  0  0
   20.5474   -9.8835  -16.5491 C   0  0  0  0  0  0  0  0  0  0  0  0
   19.4098   -9.4598  -16.8988 O   0  0  0  0  0  0  0  0  0  0  0  0
   21.1168   -9.0384  -12.4674 C   0  0  0  0  0  0  0  0  0  0  0  0
   20.0803   -8.5424  -13.4178 C   0  0  2  0  0  0  0  0  0  0  0  0
   18.9648   -9.5432  -13.5261 C   0  0  0  0  0  0  0  0  0  0  0  0
   20.6242   -8.1756  -14.7771 C   0  0  2  0  0  0  0  0  0  0  0  0
   21.2251   -9.2752  -15.4599 N   0  0  0  0  0  0  0  0  0  0  0  0
   21.5584   -7.0014  -14.6759 C   0  0  0  0  0  0  0  0  0  0  0  0
   22.7764   -7.2116  -14.4438 O   0  0  0  0  0  0  0  0  0  0  0  0
   22.6929   -4.5489  -17.1759 C   0  0  0  0  0  0  0  0  0  0  0  0
   22.0325   -3.7656  -16.0787 C   0  0  1  0  0  0  0  0  0  0  0  0
   20.7436   -3.3569  -16.3913 O   0  0  0  0  0  0  0  0  0  0  0  0
   22.0217   -4.5322  -14.7715 C   0  0  2  0  0  0  0  0  0  0  0  0
   21.1284   -5.6673  -14.8303 N   0  0  0  0  0  0  0  0  0  0  0  0
   21.6806   -3.6187  -13.6518 C   0  0  0  0  0  0  0  0  0  0  0  0
   20.6022   -3.8107  -13.0367 O   0  0  0  0  0  0  0  0  0  0  0  0
   22.4787   -2.5629  -13.2391 O   0  0  0  0  0  0  0  0  0  0  0  0
  1  5  1  0
  2  1  1  0
  3  4  1  0
  3  2  1  0
  4  5  1  0
  6  7  2  0
  5  6  1  6
  9  8  1  1
  9 11  1  0
 10  9  1  0
 11 12  1  1
 11 13  1  0
 12  6  1  0
 13 19  1  0
 14 13  2  0
 16 17  1  0
 16 15  1  6
 18 16  1  0
 18 19  1  6
 20 18  1  0
 20 22  1  0
 21 20  2  0
M  END
$$$$
