PVT.pdb
     RDKit          3D

 22 22  0  0  1  0  0  0  0  0999 V2000
   28.4272  -21.7254  -15.8142 N   0  0  0  0  0  0  0  0  0  0  0  0
   29.2642  -20.9888  -16.7438 C   0  0  0  0  0  0  0  0  0  0  0  0
   28.2695  -19.9588  -17.2773 C   0  0  0  0  0  0  0  0  0  0  0  0
   27.3135  -19.7362  -16.1221 C   0  0  0  0  0  0  0  0  0  0  0  0
   27.8325  -20.6682  -15.0589 C   0  0  1  0  0  0  0  0  0  0  0  0
   26.7802  -21.1188  -14.1258 C   0  0  0  0  0  0  0  0  0  0  0  0
   26.1971  -22.2026  -14.4107 O   0  0  0  0  0  0  0  0  0  0  0  0
   26.8076  -21.1066  -10.0970 C   0  0  0  0  0  0  0  0  0  0  0  0
   25.5393  -20.5718  -10.6705 C   0  0  2  0  0  0  0  0  0  0  0  0
   24.3698  -21.0431   -9.8536 C   0  0  0  0  0  0  0  0  0  0  0  0
   25.3507  -20.8874  -12.1345 C   0  0  2  0  0  0  0  0  0  0  0  0
   26.4108  -20.4021  -12.9573 N   0  0  0  0  0  0  0  0  0  0  0  0
   24.0073  -20.4089  -12.6120 C   0  0  0  0  0  0  0  0  0  0  0  0
   23.7830  -19.1723  -12.6569 O   0  0  0  0  0  0  0  0  0  0  0  0
   19.9136  -21.1250  -15.2117 C   0  0  0  0  0  0  0  0  0  0  0  0
   21.2622  -21.5780  -14.7325 C   0  0  1  0  0  0  0  0  0  0  0  0
   22.2551  -21.4701  -15.6962 O   0  0  0  0  0  0  0  0  0  0  0  0
   21.6871  -20.8422  -13.4777 C   0  0  2  0  0  0  0  0  0  0  0  0
   22.9814  -21.2890  -13.0140 N   0  0  0  0  0  0  0  0  0  0  0  0
   20.6454  -20.9858  -12.4295 C   0  0  0  0  0  0  0  0  0  0  0  0
   20.6346  -22.0384  -11.7438 O   0  0  0  0  0  0  0  0  0  0  0  0
   19.6795  -20.0294  -12.1570 O   0  0  0  0  0  0  0  0  0  0  0  0
  1  5  1  0
  2  1  1  0
  3  4  1  0
  3  2  1  0
  4  5  1  0
  6  7  2  0
  5  6  1  6
  9  8  1  1
  9 11  1  0
 10  9  1  0
 11 12  1  6
 11 13  1  0
 12  6  1  0
 13 19  1  0
 14 13  2  0
 16 17  1  0
 16 15  1  6
 18 16  1  0
 18 19  1  1
 20 18  1  0
 20 22  1  0
 21 20  2  0
M  END
$$$$
