PVT.pdb
     RDKit          3D

 22 22  0  0  1  0  0  0  0  0999 V2000
   20.6796  -11.1297  -18.7116 N   0  0  0  0  0  0  0  0  0  0  0  0
   20.1957  -11.9763  -19.7870 C   0  0  0  0  0  0  0  0  0  0  0  0
   19.1538  -12.8161  -19.0495 C   0  0  0  0  0  0  0  0  0  0  0  0
   18.6479  -11.8982  -17.9543 C   0  0  0  0  0  0  0  0  0  0  0  0
   19.4577  -10.6439  -18.1526 C   0  0  1  0  0  0  0  0  0  0  0  0
   19.6357   -9.8716  -16.9065 C   0  0  0  0  0  0  0  0  0  0  0  0
   18.5944   -9.3679  -16.3988 O   0  0  0  0  0  0  0  0  0  0  0  0
   21.7893   -9.0144  -12.6618 C   0  0  0  0  0  0  0  0  0  0  0  0
   21.7141   -9.7333  -13.9660 C   0  0  2  0  0  0  0  0  0  0  0  0
   23.0951  -10.1084  -14.4236 C   0  0  0  0  0  0  0  0  0  0  0  0
   20.9658   -8.9777  -15.0371 C   0  0  2  0  0  0  0  0  0  0  0  0
   20.8939   -9.6798  -16.2773 N   0  0  0  0  0  0  0  0  0  0  0  0
   21.5347   -7.5961  -15.2080 C   0  0  0  0  0  0  0  0  0  0  0  0
   22.5943   -7.4524  -15.8700 O   0  0  0  0  0  0  0  0  0  0  0  0
   20.7111   -4.7908  -17.1943 C   0  0  0  0  0  0  0  0  0  0  0  0
   20.5955   -4.2989  -15.7807 C   0  0  1  0  0  0  0  0  0  0  0  0
   19.2889   -4.2637  -15.3139 O   0  0  0  0  0  0  0  0  0  0  0  0
   21.4543   -5.1114  -14.8327 C   0  0  2  0  0  0  0  0  0  0  0  0
   20.9306   -6.4474  -14.6565 N   0  0  0  0  0  0  0  0  0  0  0  0
   21.5936   -4.3978  -13.5382 C   0  0  0  0  0  0  0  0  0  0  0  0
   21.1168   -4.9374  -12.5088 O   0  0  0  0  0  0  0  0  0  0  0  0
   22.2187   -3.1692  -13.3911 O   0  0  0  0  0  0  0  0  0  0  0  0
  1  5  1  0
  2  1  1  0
  3  4  1  0
  3  2  1  0
  4  5  1  0
  6  7  2  0
  5  6  1  1
  9  8  1  1
  9 11  1  0
 10  9  1  0
 11 12  1  6
 11 13  1  0
 12  6  1  0
 13 19  1  0
 14 13  2  0
 16 17  1  0
 16 15  1  6
 18 16  1  0
 18 19  1  1
 20 18  1  0
 20 22  1  0
 21 20  2  0
M  END
$$$$
