PVT.pdb
     RDKit          3D

 22 22  0  0  1  0  0  0  0  0999 V2000
   24.4451  -12.2543  -15.3492 N   0  0  0  0  0  0  0  0  0  0  0  0
   25.3750  -13.3328  -15.6313 C   0  0  0  0  0  0  0  0  0  0  0  0
   24.5876  -14.1315  -16.6691 C   0  0  0  0  0  0  0  0  0  0  0  0
   23.7440  -13.0885  -17.3751 C   0  0  0  0  0  0  0  0  0  0  0  0
   24.1072  -11.8111  -16.6648 C   0  0  1  0  0  0  0  0  0  0  0  0
   23.0245  -10.8072  -16.6978 C   0  0  0  0  0  0  0  0  0  0  0  0
   22.7645  -10.2916  -17.8213 O   0  0  0  0  0  0  0  0  0  0  0  0
   19.4313  -11.1486  -16.1430 C   0  0  0  0  0  0  0  0  0  0  0  0
   19.8819  -10.0082  -15.2945 C   0  0  2  0  0  0  0  0  0  0  0  0
   18.8347   -8.9309  -15.2873 C   0  0  0  0  0  0  0  0  0  0  0  0
   21.2342   -9.4587  -15.6787 C   0  0  2  0  0  0  0  0  0  0  0  0
   22.2879  -10.4123  -15.5502 N   0  0  0  0  0  0  0  0  0  0  0  0
   21.5282   -8.1937  -14.9203 C   0  0  0  0  0  0  0  0  0  0  0  0
   21.8403   -8.2722  -13.7046 O   0  0  0  0  0  0  0  0  0  0  0  0
   24.2144   -5.6065  -15.6785 C   0  0  0  0  0  0  0  0  0  0  0  0
   22.8801   -4.9195  -15.6428 C   0  0  1  0  0  0  0  0  0  0  0  0
   22.3638   -4.6509  -16.9027 O   0  0  0  0  0  0  0  0  0  0  0  0
   21.8675   -5.7042  -14.8331 C   0  0  2  0  0  0  0  0  0  0  0  0
   21.4693   -6.9158  -15.5137 N   0  0  0  0  0  0  0  0  0  0  0  0
   20.7015   -4.8437  -14.5101 C   0  0  0  0  0  0  0  0  0  0  0  0
   19.6283   -5.0401  -15.1329 O   0  0  0  0  0  0  0  0  0  0  0  0
   20.7202   -3.8329  -13.5615 O   0  0  0  0  0  0  0  0  0  0  0  0
  1  5  1  0
  2  1  1  0
  3  4  1  0
  3  2  1  0
  4  5  1  0
  6  7  2  0
  5  6  1  1
  9  8  1  6
  9 11  1  0
 10  9  1  0
 11 12  1  1
 11 13  1  0
 12  6  1  0
 13 19  1  0
 14 13  2  0
 16 17  1  0
 16 15  1  6
 18 16  1  0
 18 19  1  6
 20 18  1  0
 20 22  1  0
 21 20  2  0
M  END
$$$$
