PVT.pdb
     RDKit          3D

 22 22  0  0  1  0  0  0  0  0999 V2000
   19.9306  -13.0872  -17.7064 N   0  0  0  0  0  0  0  0  0  0  0  0
   19.1344  -13.4780  -18.8556 C   0  0  0  0  0  0  0  0  0  0  0  0
   18.2399  -12.2502  -19.0208 C   0  0  0  0  0  0  0  0  0  0  0  0
   19.0903  -11.1030  -18.5119 C   0  0  0  0  0  0  0  0  0  0  0  0
   20.3663  -11.7804  -18.0862 C   0  0  1  0  0  0  0  0  0  0  0  0
   21.0743  -11.0514  -17.0147 C   0  0  0  0  0  0  0  0  0  0  0  0
   20.5928  -11.1476  -15.8507 O   0  0  0  0  0  0  0  0  0  0  0  0
   24.5942  -11.4658  -15.8628 C   0  0  0  0  0  0  0  0  0  0  0  0
   24.3482  -10.0027  -16.0125 C   0  0  2  0  0  0  0  0  0  0  0  0
   25.0072   -9.2555  -14.8878 C   0  0  0  0  0  0  0  0  0  0  0  0
   22.8884   -9.6386  -16.1342 C   0  0  2  0  0  0  0  0  0  0  0  0
   22.2392  -10.2709  -17.2364 N   0  0  0  0  0  0  0  0  0  0  0  0
   22.7145   -8.1451  -16.1635 C   0  0  0  0  0  0  0  0  0  0  0  0
   23.1429   -7.5024  -17.1559 O   0  0  0  0  0  0  0  0  0  0  0  0
   20.0791   -5.9765  -16.7931 C   0  0  0  0  0  0  0  0  0  0  0  0
   20.5057   -5.5832  -15.4086 C   0  0  1  0  0  0  0  0  0  0  0  0
   19.6747   -6.0787  -14.4136 O   0  0  0  0  0  0  0  0  0  0  0  0
   21.9380   -5.9903  -15.1268 C   0  0  2  0  0  0  0  0  0  0  0  0
   22.0891   -7.4280  -15.1227 N   0  0  0  0  0  0  0  0  0  0  0  0
   22.3950   -5.3835  -13.8512 C   0  0  0  0  0  0  0  0  0  0  0  0
   22.6704   -6.1498  -12.8946 O   0  0  0  0  0  0  0  0  0  0  0  0
   22.5383   -4.0198  -13.6463 O   0  0  0  0  0  0  0  0  0  0  0  0
  1  5  1  0
  2  1  1  0
  3  4  1  0
  3  2  1  0
  4  5  1  0
  6  7  2  0
  5  6  1  1
  9  8  1  1
  9 11  1  0
 10  9  1  0
 11 12  1  6
 11 13  1  0
 12  6  1  0
 13 19  1  0
 14 13  2  0
 16 17  1  0
 16 15  1  6
 18 16  1  0
 18 19  1  1
 20 18  1  0
 20 22  1  0
 21 20  2  0
M  END
$$$$
