PVT.pdb
     RDKit          3D

 22 22  0  0  1  0  0  0  0  0999 V2000
   28.2223  -21.8240  -15.6587 N   0  0  0  0  0  0  0  0  0  0  0  0
   29.0058  -21.1146  -16.6538 C   0  0  0  0  0  0  0  0  0  0  0  0
   27.9826  -20.0984  -17.1591 C   0  0  0  0  0  0  0  0  0  0  0  0
   27.0928  -19.8426  -15.9587 C   0  0  0  0  0  0  0  0  0  0  0  0
   27.6707  -20.7455  -14.9009 C   0  0  1  0  0  0  0  0  0  0  0  0
   26.6724  -21.1687  -13.8983 C   0  0  0  0  0  0  0  0  0  0  0  0
   26.0223  -22.2208  -14.1556 O   0  0  0  0  0  0  0  0  0  0  0  0
   26.6219  -21.0071   -9.7663 C   0  0  0  0  0  0  0  0  0  0  0  0
   25.4442  -20.3948  -10.4455 C   0  0  2  0  0  0  0  0  0  0  0  0
   24.1948  -20.6838   -9.6627 C   0  0  0  0  0  0  0  0  0  0  0  0
   25.2940  -20.8013  -11.8914 C   0  0  2  0  0  0  0  0  0  0  0  0
   26.4235  -20.4597  -12.6937 N   0  0  0  0  0  0  0  0  0  0  0  0
   24.0146  -20.2580  -12.4655 C   0  0  0  0  0  0  0  0  0  0  0  0
   23.9322  -19.0272  -12.7101 O   0  0  0  0  0  0  0  0  0  0  0  0
   21.5120  -22.4229  -14.9640 C   0  0  0  0  0  0  0  0  0  0  0  0
   21.5272  -20.9346  -14.7684 C   0  0  1  0  0  0  0  0  0  0  0  0
   20.4211  -20.2955  -15.3107 O   0  0  0  0  0  0  0  0  0  0  0  0
   21.6647  -20.5632  -13.3056 C   0  0  2  0  0  0  0  0  0  0  0  0
   22.8962  -21.0708  -12.7437 N   0  0  0  0  0  0  0  0  0  0  0  0
   20.4772  -21.0351  -12.5498 C   0  0  0  0  0  0  0  0  0  0  0  0
   20.6524  -21.8786  -11.6354 O   0  0  0  0  0  0  0  0  0  0  0  0
   19.1815  -20.6034  -12.7885 O   0  0  0  0  0  0  0  0  0  0  0  0
  1  5  1  0
  2  1  1  0
  3  4  1  0
  3  2  1  0
  4  5  1  0
  6  7  2  0
  5  6  1  1
  9  8  1  1
  9 11  1  0
 10  9  1  0
 11 12  1  6
 11 13  1  0
 12  6  1  0
 13 19  1  0
 14 13  2  0
 16 17  1  0
 16 15  1  1
 18 16  1  0
 18 19  1  1
 20 18  1  0
 20 22  1  0
 21 20  2  0
M  END
$$$$
