PVT.pdb
     RDKit          3D

 22 22  0  0  1  0  0  0  0  0999 V2000
   18.2977  -11.9429  -18.3580 N   0  0  0  0  0  0  0  0  0  0  0  0
   17.8090  -12.0875  -19.7173 C   0  0  0  0  0  0  0  0  0  0  0  0
   17.5072  -10.6327  -20.0741 C   0  0  0  0  0  0  0  0  0  0  0  0
   18.5096   -9.8378  -19.2609 C   0  0  0  0  0  0  0  0  0  0  0  0
   19.2639  -10.9008  -18.5064 C   0  0  1  0  0  0  0  0  0  0  0  0
   19.8190  -10.4137  -17.2276 C   0  0  0  0  0  0  0  0  0  0  0  0
   19.0085  -10.2999  -16.2653 O   0  0  0  0  0  0  0  0  0  0  0  0
   22.6349  -11.8574  -15.1557 C   0  0  0  0  0  0  0  0  0  0  0  0
   22.8476  -10.3857  -15.2658 C   0  0  2  0  0  0  0  0  0  0  0  0
   23.3278   -9.8385  -13.9515 C   0  0  0  0  0  0  0  0  0  0  0  0
   21.6411   -9.6306  -15.7683 C   0  0  2  0  0  0  0  0  0  0  0  0
   21.1864  -10.0788  -17.0445 N   0  0  0  0  0  0  0  0  0  0  0  0
   21.8983   -8.1490  -15.7542 C   0  0  0  0  0  0  0  0  0  0  0  0
   22.6475   -7.6534  -16.6344 O   0  0  0  0  0  0  0  0  0  0  0  0
   20.6158   -3.5786  -14.8044 C   0  0  0  0  0  0  0  0  0  0  0  0
   20.3623   -5.0466  -14.9897 C   0  0  1  0  0  0  0  0  0  0  0  0
   19.8377   -5.3631  -16.2350 O   0  0  0  0  0  0  0  0  0  0  0  0
   21.6116   -5.8669  -14.7389 C   0  0  2  0  0  0  0  0  0  0  0  0
   21.3343   -7.2847  -14.7932 N   0  0  0  0  0  0  0  0  0  0  0  0
   22.2243   -5.4734  -13.4450 C   0  0  0  0  0  0  0  0  0  0  0  0
   22.9132   -4.4235  -13.4096 O   0  0  0  0  0  0  0  0  0  0  0  0
   22.0847   -6.1926  -12.2680 O   0  0  0  0  0  0  0  0  0  0  0  0
  1  5  1  0
  2  1  1  0
  3  4  1  0
  3  2  1  0
  4  5  1  0
  6  7  2  0
  5  6  1  1
  9  8  1  1
  9 11  1  0
 10  9  1  0
 11 12  1  6
 11 13  1  0
 12  6  1  0
 13 19  1  0
 14 13  2  0
 16 17  1  0
 16 15  1  6
 18 16  1  0
 18 19  1  1
 20 18  1  0
 20 22  1  0
 21 20  2  0
M  END
$$$$
