PVT.pdb
     RDKit          3D

 22 22  0  0  1  0  0  0  0  0999 V2000
   25.8715  -12.2864  -17.1978 N   0  0  0  0  0  0  0  0  0  0  0  0
   26.9768  -12.9821  -16.5640 C   0  0  0  0  0  0  0  0  0  0  0  0
   27.7501  -11.8105  -15.9606 C   0  0  0  0  0  0  0  0  0  0  0  0
   26.6814  -10.7778  -15.6616 C   0  0  0  0  0  0  0  0  0  0  0  0
   25.4164  -11.4404  -16.1401 C   0  0  1  0  0  0  0  0  0  0  0  0
   24.3808  -10.4719  -16.5529 C   0  0  0  0  0  0  0  0  0  0  0  0
   24.5253   -9.9380  -17.6886 O   0  0  0  0  0  0  0  0  0  0  0  0
   20.2783  -10.4982  -15.4524 C   0  0  0  0  0  0  0  0  0  0  0  0
   20.9813   -9.8689  -16.6071 C   0  0  2  0  0  0  0  0  0  0  0  0
   21.1648  -10.8774  -17.7056 C   0  0  0  0  0  0  0  0  0  0  0  0
   22.2892   -9.2108  -16.2402 C   0  0  2  0  0  0  0  0  0  0  0  0
   23.2638  -10.1289  -15.7465 N   0  0  0  0  0  0  0  0  0  0  0  0
   22.0607   -8.0704  -15.2868 C   0  0  0  0  0  0  0  0  0  0  0  0
   22.0952   -8.2955  -14.0501 O   0  0  0  0  0  0  0  0  0  0  0  0
   23.8775   -4.6619  -14.9468 C   0  0  0  0  0  0  0  0  0  0  0  0
   22.4151   -4.4380  -15.2010 C   0  0  1  0  0  0  0  0  0  0  0  0
   22.1314   -4.0783  -16.5111 O   0  0  0  0  0  0  0  0  0  0  0  0
   21.5876   -5.6470  -14.8134 C   0  0  2  0  0  0  0  0  0  0  0  0
   21.8077   -6.7521  -15.7191 N   0  0  0  0  0  0  0  0  0  0  0  0
   20.1526   -5.2744  -14.7356 C   0  0  0  0  0  0  0  0  0  0  0  0
   19.3756   -5.7176  -15.6177 O   0  0  0  0  0  0  0  0  0  0  0  0
   19.6117   -4.4653  -13.7482 O   0  0  0  0  0  0  0  0  0  0  0  0
  1  5  1  0
  2  1  1  0
  3  4  1  0
  3  2  1  0
  4  5  1  0
  6  7  2  0
  5  6  1  6
  9  8  1  1
  9 11  1  0
 10  9  1  0
 11 12  1  1
 11 13  1  0
 12  6  1  0
 13 19  1  0
 14 13  2  0
 16 17  1  0
 16 15  1  6
 18 16  1  0
 18 19  1  6
 20 18  1  0
 20 22  1  0
 21 20  2  0
M  END
$$$$
