PVT.pdb
     RDKit          3D

 22 22  0  0  1  0  0  0  0  0999 V2000
   28.3074  -20.9381  -16.0494 N   0  0  0  0  0  0  0  0  0  0  0  0
   29.1302  -20.0309  -16.8288 C   0  0  0  0  0  0  0  0  0  0  0  0
   28.2447  -18.7859  -16.8561 C   0  0  0  0  0  0  0  0  0  0  0  0
   27.4745  -18.8523  -15.5521 C   0  0  0  0  0  0  0  0  0  0  0  0
   27.9696  -20.1275  -14.9222 C   0  0  1  0  0  0  0  0  0  0  0  0
   26.9784  -20.7445  -14.0178 C   0  0  0  0  0  0  0  0  0  0  0  0
   26.4199  -21.8014  -14.4264 O   0  0  0  0  0  0  0  0  0  0  0  0
   26.8992  -20.9818   -9.9273 C   0  0  0  0  0  0  0  0  0  0  0  0
   25.6203  -20.5158  -10.5362 C   0  0  2  0  0  0  0  0  0  0  0  0
   24.4557  -21.1335   -9.8154 C   0  0  0  0  0  0  0  0  0  0  0  0
   25.5325  -20.7488  -12.0249 C   0  0  2  0  0  0  0  0  0  0  0  0
   26.6401  -20.2113  -12.7463 N   0  0  0  0  0  0  0  0  0  0  0  0
   24.2192  -20.2519  -12.5635 C   0  0  0  0  0  0  0  0  0  0  0  0
   23.9887  -19.0157  -12.5589 O   0  0  0  0  0  0  0  0  0  0  0  0
   22.7462  -20.3632  -15.9530 C   0  0  0  0  0  0  0  0  0  0  0  0
   21.7755  -21.0620  -15.0459 C   0  0  1  0  0  0  0  0  0  0  0  0
   21.8234  -22.4454  -15.1472 O   0  0  0  0  0  0  0  0  0  0  0  0
   21.9635  -20.6496  -13.5999 C   0  0  2  0  0  0  0  0  0  0  0  0
   23.2284  -21.1143  -13.0765 N   0  0  0  0  0  0  0  0  0  0  0  0
   20.8191  -21.1284  -12.7841 C   0  0  0  0  0  0  0  0  0  0  0  0
   21.0311  -22.0307  -11.9362 O   0  0  0  0  0  0  0  0  0  0  0  0
   19.5258  -20.6421  -12.8978 O   0  0  0  0  0  0  0  0  0  0  0  0
  1  5  1  0
  2  1  1  0
  3  4  1  0
  3  2  1  0
  4  5  1  0
  6  7  2  0
  5  6  1  6
  9  8  1  1
  9 11  1  0
 10  9  1  0
 11 12  1  6
 11 13  1  0
 12  6  1  0
 13 19  1  0
 14 13  2  0
 16 17  1  0
 16 15  1  6
 18 16  1  0
 18 19  1  1
 20 18  1  0
 20 22  1  0
 21 20  2  0
M  END
$$$$
