PVT.pdb
     RDKit          3D

 22 22  0  0  1  0  0  0  0  0999 V2000
   16.4732  -10.7411  -14.0018 N   0  0  0  0  0  0  0  0  0  0  0  0
   17.4932  -11.5368  -14.6603 C   0  0  0  0  0  0  0  0  0  0  0  0
   18.4877  -10.4521  -15.0717 C   0  0  0  0  0  0  0  0  0  0  0  0
   18.3313   -9.3849  -14.0065 C   0  0  0  0  0  0  0  0  0  0  0  0
   17.2567   -9.9441  -13.1116 C   0  0  1  0  0  0  0  0  0  0  0  0
   16.4866   -8.8951  -12.4134 C   0  0  0  0  0  0  0  0  0  0  0  0
   15.5032   -8.4050  -13.0369 O   0  0  0  0  0  0  0  0  0  0  0  0
   14.8313   -8.9125   -8.8497 C   0  0  0  0  0  0  0  0  0  0  0  0
   15.6728   -7.6990   -9.0567 C   0  0  2  0  0  0  0  0  0  0  0  0
   15.0282   -6.5114   -8.3999 C   0  0  0  0  0  0  0  0  0  0  0  0
   15.9950   -7.4196  -10.5046 C   0  0  2  0  0  0  0  0  0  0  0  0
   16.8000   -8.4311  -11.1088 N   0  0  0  0  0  0  0  0  0  0  0  0
   16.6037   -6.0531  -10.6588 C   0  0  0  0  0  0  0  0  0  0  0  0
   17.7628   -5.8501  -10.2153 O   0  0  0  0  0  0  0  0  0  0  0  0
   17.4847   -4.2568  -13.8597 C   0  0  0  0  0  0  0  0  0  0  0  0
   16.4982   -3.4300  -13.0872 C   0  0  1  0  0  0  0  0  0  0  0  0
   15.1917   -3.5695  -13.5341 O   0  0  0  0  0  0  0  0  0  0  0  0
   16.5634   -3.7229  -11.6018 C   0  0  2  0  0  0  0  0  0  0  0  0
   15.9299   -4.9823  -11.2818 N   0  0  0  0  0  0  0  0  0  0  0  0
   15.9703   -2.5967  -10.8374 C   0  0  0  0  0  0  0  0  0  0  0  0
   14.8697   -2.7847  -10.2615 O   0  0  0  0  0  0  0  0  0  0  0  0
   16.5549   -1.3454  -10.7172 O   0  0  0  0  0  0  0  0  0  0  0  0
  1  5  1  0
  2  1  1  0
  3  4  1  0
  3  2  1  0
  4  5  1  0
  6  7  2  0
  5  6  1  6
  9  8  1  6
  9 11  1  0
 10  9  1  0
 11 12  1  1
 11 13  1  0
 12  6  1  0
 13 19  1  0
 14 13  2  0
 16 17  1  0
 16 15  1  6
 18 16  1  0
 18 19  1  6
 20 18  1  0
 20 22  1  0
 21 20  2  0
M  END
$$$$
