PVT.pdb
     RDKit          3D

 22 22  0  0  1  0  0  0  0  0999 V2000
   18.4739  -12.7068  -16.0894 N   0  0  0  0  0  0  0  0  0  0  0  0
   19.7335  -13.2698  -16.5409 C   0  0  0  0  0  0  0  0  0  0  0  0
   20.5134  -12.0009  -16.8822 C   0  0  0  0  0  0  0  0  0  0  0  0
   19.9631  -10.9612  -15.9261 C   0  0  0  0  0  0  0  0  0  0  0  0
   18.9155  -11.7202  -15.1549 C   0  0  1  0  0  0  0  0  0  0  0  0
   17.8344  -10.8521  -14.6465 C   0  0  0  0  0  0  0  0  0  0  0  0
   16.8756  -10.6206  -15.4359 O   0  0  0  0  0  0  0  0  0  0  0  0
   15.4525  -11.0754  -11.6146 C   0  0  0  0  0  0  0  0  0  0  0  0
   16.1654   -9.7657  -11.6215 C   0  0  2  0  0  0  0  0  0  0  0  0
   15.2479   -8.6814  -11.1315 C   0  0  0  0  0  0  0  0  0  0  0  0
   16.7749   -9.4096  -12.9556 C   0  0  2  0  0  0  0  0  0  0  0  0
   17.8319  -10.2857  -13.3447 N   0  0  0  0  0  0  0  0  0  0  0  0
   17.2059   -7.9689  -12.9748 C   0  0  0  0  0  0  0  0  0  0  0  0
   18.1691   -7.6127  -12.2489 O   0  0  0  0  0  0  0  0  0  0  0  0
   16.6133   -5.6398  -16.3512 C   0  0  0  0  0  0  0  0  0  0  0  0
   17.6200   -5.3633  -15.2724 C   0  0  1  0  0  0  0  0  0  0  0  0
   18.1401   -4.0774  -15.3195 O   0  0  0  0  0  0  0  0  0  0  0  0
   17.0523   -5.6338  -13.8936 C   0  0  2  0  0  0  0  0  0  0  0  0
   16.5755   -6.9934  -13.7744 N   0  0  0  0  0  0  0  0  0  0  0  0
   15.9885   -4.6463  -13.5816 C   0  0  0  0  0  0  0  0  0  0  0  0
   14.7943   -5.0358  -13.5964 O   0  0  0  0  0  0  0  0  0  0  0  0
   16.2286   -3.3161  -13.2733 O   0  0  0  0  0  0  0  0  0  0  0  0
  1  5  1  0
  2  1  1  0
  3  4  1  0
  3  2  1  0
  4  5  1  0
  6  7  2  0
  5  6  1  6
  9  8  1  6
  9 11  1  0
 10  9  1  0
 11 12  1  1
 11 13  1  0
 12  6  1  0
 13 19  1  0
 14 13  2  0
 16 17  1  0
 16 15  1  6
 18 16  1  0
 18 19  1  6
 20 18  1  0
 20 22  1  0
 21 20  2  0
M  END
$$$$
