PVT.pdb
     RDKit          3D

 22 22  0  0  1  0  0  0  0  0999 V2000
   21.0386  -25.3174  -15.8292 N   0  0  0  0  0  0  0  0  0  0  0  0
   20.8069  -25.4240  -17.2584 C   0  0  0  0  0  0  0  0  0  0  0  0
   21.5089  -26.7453  -17.5688 C   0  0  0  0  0  0  0  0  0  0  0  0
   21.3693  -27.5468  -16.2897 C   0  0  0  0  0  0  0  0  0  0  0  0
   20.6308  -26.6082  -15.3721 C   0  0  1  0  0  0  0  0  0  0  0  0
   20.9182  -26.8552  -13.9447 C   0  0  0  0  0  0  0  0  0  0  0  0
   21.9073  -26.2429  -13.4521 O   0  0  0  0  0  0  0  0  0  0  0  0
   19.0424  -26.0304  -10.9445 C   0  0  0  0  0  0  0  0  0  0  0  0
   19.4200  -27.4660  -10.8030 C   0  0  2  0  0  0  0  0  0  0  0  0
   19.7968  -27.7578   -9.3782 C   0  0  0  0  0  0  0  0  0  0  0  0
   20.4997  -27.9102  -11.7597 C   0  0  2  0  0  0  0  0  0  0  0  0
   20.1487  -27.7275  -13.1307 N   0  0  0  0  0  0  0  0  0  0  0  0
   20.9141  -29.3269  -11.4718 C   0  0  0  0  0  0  0  0  0  0  0  0
   20.3286  -30.2653  -12.0703 O   0  0  0  0  0  0  0  0  0  0  0  0
   24.1201  -32.4348   -9.2327 C   0  0  0  0  0  0  0  0  0  0  0  0
   23.7019  -31.0338   -9.5730 C   0  0  1  0  0  0  0  0  0  0  0  0
   24.6524  -30.3367  -10.3056 O   0  0  0  0  0  0  0  0  0  0  0  0
   22.3744  -31.0072  -10.3036 C   0  0  2  0  0  0  0  0  0  0  0  0
   21.9355  -29.6531  -10.5558 N   0  0  0  0  0  0  0  0  0  0  0  0
   21.3625  -31.7830   -9.5430 C   0  0  0  0  0  0  0  0  0  0  0  0
   21.2812  -33.0189   -9.7532 O   0  0  0  0  0  0  0  0  0  0  0  0
   20.4975  -31.2296   -8.6116 O   0  0  0  0  0  0  0  0  0  0  0  0
  1  5  1  0
  2  1  1  0
  3  4  1  0
  3  2  1  0
  4  5  1  0
  6  7  2  0
  5  6  1  1
  9  8  1  1
  9 11  1  0
 10  9  1  0
 11 12  1  6
 11 13  1  0
 12  6  1  0
 13 19  1  0
 14 13  2  0
 16 17  1  0
 16 15  1  6
 18 16  1  0
 18 19  1  1
 20 18  1  0
 20 22  1  0
 21 20  2  0
M  END
$$$$
