VKF.pdb
     RDKit          3D

 28 28  0  0  1  0  0  0  0  0999 V2000
    7.3923  -13.1784   20.4087 C   0  0  0  0  0  0  0  0  0  0  0  0
    8.5920  -13.2986   19.4940 C   0  0  2  0  0  0  0  0  0  0  0  0
    8.4261  -12.3045   18.3789 C   0  0  0  0  0  0  0  0  0  0  0  0
    8.6455  -14.7322   18.9895 C   0  0  2  0  0  0  0  0  0  0  0  0
    7.5136  -14.9072   18.1090 N   0  0  0  0  0  0  0  0  0  0  0  0
    8.5390  -15.7010   20.1024 C   0  0  0  0  0  0  0  0  0  0  0  0
    7.4020  -16.0916   20.5338 O   0  0  0  0  0  0  0  0  0  0  0  0
    9.6678  -16.2320   20.7313 N   0  0  0  0  0  0  0  0  0  0  0  0
    9.6410  -17.0644   21.9133 C   0  0  1  0  0  0  0  0  0  0  0  0
   10.3305  -18.3660   21.5711 C   0  0  0  0  0  0  0  0  0  0  0  0
    9.9452  -18.9174   20.2513 C   0  0  0  0  0  0  0  0  0  0  0  0
   10.7908  -20.1169   19.9282 C   0  0  0  0  0  0  0  0  0  0  0  0
   10.4063  -20.6795   18.5869 C   0  0  0  0  0  0  0  0  0  0  0  0
   11.5178  -20.6092   17.6446 N   0  0  0  0  0  0  0  0  0  0  0  0
   10.1876  -16.3990   23.0986 C   0  0  0  0  0  0  0  0  0  0  0  0
   11.0612  -15.4746   23.0385 O   0  0  0  0  0  0  0  0  0  0  0  0
    9.7591  -16.7617   24.4049 N   0  0  0  0  0  0  0  0  0  0  0  0
    9.2918  -15.7367   25.3590 C   0  0  1  0  0  0  0  0  0  0  0  0
    8.2899  -14.8629   24.6798 C   0  0  0  0  0  0  0  0  0  0  0  0
    7.8295  -13.7815   25.5819 C   0  0  0  0  0  0  0  0  0  0  0  0
    8.7510  -13.0337   26.3209 C   0  0  0  0  0  0  0  0  0  0  0  0
    8.3398  -12.0171   27.1531 C   0  0  0  0  0  0  0  0  0  0  0  0
    6.9927  -11.7048   27.2824 C   0  0  0  0  0  0  0  0  0  0  0  0
    6.0884  -12.4371   26.5584 C   0  0  0  0  0  0  0  0  0  0  0  0
    6.5055  -13.4494   25.7304 C   0  0  0  0  0  0  0  0  0  0  0  0
    8.7961  -16.4045   26.5685 C   0  0  0  0  0  0  0  0  0  0  0  0
    9.3233  -16.1518   27.8298 O   0  0  0  0  0  0  0  0  0  0  0  0
    7.8661  -17.2362   26.4927 O   0  0  0  0  0  0  0  0  0  0  0  0
  2  1  1  1
  2  3  1  0
  4  2  1  0
  4  5  1  6
  6  8  1  0
  6  4  1  0
  7  6  2  0
  9  8  1  0
  9 10  1  6
 11 10  1  0
 12 11  1  0
 13 12  1  0
 14 13  1  0
 15  9  1  0
 15 16  2  0
 17 15  1  0
 18 17  1  0
 18 26  1  0
 19 20  1  0
 18 19  1  6
 20 25  2  0
 21 20  1  0
 22 21  2  0
 22 23  1  0
 23 24  2  0
 24 25  1  0
 26 28  2  0
 26 27  1  0
M  END
$$$$
