VKF.pdb
     RDKit          3D

 28 28  0  0  1  0  0  0  0  0999 V2000
    7.4595  -13.1208   20.9131 C   0  0  0  0  0  0  0  0  0  0  0  0
    8.3475  -13.3742   19.7141 C   0  0  2  0  0  0  0  0  0  0  0  0
    7.8621  -12.5070   18.5864 C   0  0  0  0  0  0  0  0  0  0  0  0
    8.2637  -14.8561   19.3832 C   0  0  2  0  0  0  0  0  0  0  0  0
    6.9317  -15.0963   18.8780 N   0  0  0  0  0  0  0  0  0  0  0  0
    8.4760  -15.6911   20.5857 C   0  0  0  0  0  0  0  0  0  0  0  0
    7.4991  -16.2688   21.1717 O   0  0  0  0  0  0  0  0  0  0  0  0
    9.7454  -15.8872   21.1353 N   0  0  0  0  0  0  0  0  0  0  0  0
   10.0777  -16.9062   22.1057 C   0  0  1  0  0  0  0  0  0  0  0  0
   10.1927  -18.2206   21.3668 C   0  0  0  0  0  0  0  0  0  0  0  0
   10.5935  -19.3573   22.2281 C   0  0  0  0  0  0  0  0  0  0  0  0
   10.6131  -20.6281   21.4263 C   0  0  0  0  0  0  0  0  0  0  0  0
   10.9141  -21.8020   22.3179 C   0  0  0  0  0  0  0  0  0  0  0  0
   10.9350  -23.0497   21.5621 N   0  0  0  0  0  0  0  0  0  0  0  0
   11.2572  -16.5738   22.9088 C   0  0  0  0  0  0  0  0  0  0  0  0
   12.2559  -17.3532   23.0364 O   0  0  0  0  0  0  0  0  0  0  0  0
   11.3462  -15.3352   23.6013 N   0  0  0  0  0  0  0  0  0  0  0  0
   11.4346  -15.2975   25.0745 C   0  0  1  0  0  0  0  0  0  0  0  0
   10.0603  -15.1532   25.6392 C   0  0  0  0  0  0  0  0  0  0  0  0
   10.0983  -15.0801   27.1184 C   0  0  0  0  0  0  0  0  0  0  0  0
   10.1577  -16.2476   27.8851 C   0  0  0  0  0  0  0  0  0  0  0  0
   10.2070  -16.1957   29.2598 C   0  0  0  0  0  0  0  0  0  0  0  0
   10.1991  -14.9773   29.9263 C   0  0  0  0  0  0  0  0  0  0  0  0
   10.1410  -13.8320   29.1759 C   0  0  0  0  0  0  0  0  0  0  0  0
   10.0921  -13.8912   27.8052 C   0  0  0  0  0  0  0  0  0  0  0  0
   12.1608  -16.4862   25.5372 C   0  0  0  0  0  0  0  0  0  0  0  0
   11.6866  -17.7770   25.3327 O   0  0  0  0  0  0  0  0  0  0  0  0
   13.2487  -16.3648   26.1405 O   0  0  0  0  0  0  0  0  0  0  0  0
  2  1  1  1
  2  3  1  0
  4  2  1  0
  4  5  1  1
  6  8  1  0
  6  4  1  0
  7  6  2  0
  9  8  1  0
  9 10  1  6
 11 10  1  0
 12 11  1  0
 13 12  1  0
 14 13  1  0
 15  9  1  0
 15 16  2  0
 17 15  1  0
 18 17  1  0
 18 26  1  0
 19 20  1  0
 18 19  1  1
 20 25  2  0
 21 20  1  0
 22 21  2  0
 22 23  1  0
 23 24  2  0
 24 25  1  0
 26 28  2  0
 26 27  1  0
M  END
$$$$
