VKF.pdb
     RDKit          3D

 28 28  0  0  1  0  0  0  0  0999 V2000
    7.8802  -12.4207   18.8383 C   0  0  0  0  0  0  0  0  0  0  0  0
    7.7307  -13.2359   20.1045 C   0  0  2  0  0  0  0  0  0  0  0  0
    8.6640  -12.6659   21.1356 C   0  0  0  0  0  0  0  0  0  0  0  0
    8.0568  -14.6816   19.7635 C   0  0  2  0  0  0  0  0  0  0  0  0
    7.1530  -15.0753   18.7074 N   0  0  0  0  0  0  0  0  0  0  0  0
    7.8484  -15.5713   20.9268 C   0  0  0  0  0  0  0  0  0  0  0  0
    6.6844  -15.7558   21.4193 O   0  0  0  0  0  0  0  0  0  0  0  0
    8.9061  -16.2483   21.5390 N   0  0  0  0  0  0  0  0  0  0  0  0
    8.7676  -17.1748   22.6404 C   0  0  1  0  0  0  0  0  0  0  0  0
    9.5247  -18.4324   22.2774 C   0  0  0  0  0  0  0  0  0  0  0  0
    9.4215  -19.5062   23.2926 C   0  0  0  0  0  0  0  0  0  0  0  0
   10.1999  -20.7119   22.8470 C   0  0  0  0  0  0  0  0  0  0  0  0
   10.0277  -21.8365   23.8315 C   0  0  0  0  0  0  0  0  0  0  0  0
   10.8560  -22.9835   23.4760 N   0  0  0  0  0  0  0  0  0  0  0  0
    9.1596  -16.5995   23.9296 C   0  0  0  0  0  0  0  0  0  0  0  0
   10.2092  -15.8967   24.0890 O   0  0  0  0  0  0  0  0  0  0  0  0
    8.3682  -16.8029   25.0932 N   0  0  0  0  0  0  0  0  0  0  0  0
    8.8137  -16.3002   26.4078 C   0  0  1  0  0  0  0  0  0  0  0  0
    7.6581  -15.6528   27.0963 C   0  0  0  0  0  0  0  0  0  0  0  0
    7.5218  -14.2354   26.6874 C   0  0  0  0  0  0  0  0  0  0  0  0
    8.5395  -13.3168   26.9616 C   0  0  0  0  0  0  0  0  0  0  0  0
    8.4333  -11.9996   26.5764 C   0  0  0  0  0  0  0  0  0  0  0  0
    7.3079  -11.5443   25.9018 C   0  0  0  0  0  0  0  0  0  0  0  0
    6.3096  -12.4437   25.6323 C   0  0  0  0  0  0  0  0  0  0  0  0
    6.4221  -13.7559   26.0194 C   0  0  0  0  0  0  0  0  0  0  0  0
    9.4267  -17.4045   27.1556 C   0  0  0  0  0  0  0  0  0  0  0  0
   10.2312  -17.1951   28.2700 O   0  0  0  0  0  0  0  0  0  0  0  0
    9.2363  -18.5878   26.8011 O   0  0  0  0  0  0  0  0  0  0  0  0
  2  1  1  6
  2  3  1  0
  4  2  1  0
  4  5  1  6
  6  8  1  0
  6  4  1  0
  7  6  2  0
  9  8  1  0
  9 10  1  6
 11 10  1  0
 12 11  1  0
 13 12  1  0
 14 13  1  0
 15  9  1  0
 15 16  2  0
 17 15  1  0
 18 17  1  0
 18 26  1  0
 19 20  1  0
 18 19  1  1
 20 25  2  0
 21 20  1  0
 22 21  2  0
 22 23  1  0
 23 24  2  0
 24 25  1  0
 26 28  2  0
 26 27  1  0
M  END
$$$$
