VKF.pdb
     RDKit          3D

 28 28  0  0  1  0  0  0  0  0999 V2000
    7.6656  -12.4227   18.3742 C   0  0  0  0  0  0  0  0  0  0  0  0
    7.7612  -13.3943   19.5305 C   0  0  2  0  0  0  0  0  0  0  0  0
    8.6337  -12.7745   20.5858 C   0  0  0  0  0  0  0  0  0  0  0  0
    8.3366  -14.6954   18.9933 C   0  0  2  0  0  0  0  0  0  0  0  0
    7.4142  -15.1774   17.9912 N   0  0  0  0  0  0  0  0  0  0  0  0
    8.4579  -15.7135   20.0596 C   0  0  0  0  0  0  0  0  0  0  0  0
    7.4288  -16.1536   20.6752 O   0  0  0  0  0  0  0  0  0  0  0  0
    9.6940  -16.2396   20.4428 N   0  0  0  0  0  0  0  0  0  0  0  0
    9.8954  -17.1684   21.5326 C   0  0  1  0  0  0  0  0  0  0  0  0
   10.8108  -18.2645   21.0353 C   0  0  0  0  0  0  0  0  0  0  0  0
   10.1399  -19.2504   20.1563 C   0  0  0  0  0  0  0  0  0  0  0  0
   11.1460  -20.2288   19.6190 C   0  0  0  0  0  0  0  0  0  0  0  0
   10.4672  -21.2457   18.7423 C   0  0  0  0  0  0  0  0  0  0  0  0
    9.4987  -22.0336   19.4968 N   0  0  0  0  0  0  0  0  0  0  0  0
   10.3606  -16.5214   22.7621 C   0  0  0  0  0  0  0  0  0  0  0  0
   11.3033  -15.6659   22.7858 O   0  0  0  0  0  0  0  0  0  0  0  0
    9.7680  -16.8246   24.0184 N   0  0  0  0  0  0  0  0  0  0  0  0
   10.2734  -16.2083   25.2610 C   0  0  1  0  0  0  0  0  0  0  0  0
    9.1149  -15.7214   26.0668 C   0  0  0  0  0  0  0  0  0  0  0  0
    9.5676  -15.1462   27.3549 C   0  0  0  0  0  0  0  0  0  0  0  0
    9.5596  -13.7627   27.5559 C   0  0  0  0  0  0  0  0  0  0  0  0
    9.9646  -13.2139   28.7516 C   0  0  0  0  0  0  0  0  0  0  0  0
   10.3942  -14.0224   29.7959 C   0  0  0  0  0  0  0  0  0  0  0  0
   10.4025  -15.3788   29.6002 C   0  0  0  0  0  0  0  0  0  0  0  0
    9.9972  -15.9193   28.4052 C   0  0  0  0  0  0  0  0  0  0  0  0
   11.1336  -17.1746   25.9545 C   0  0  0  0  0  0  0  0  0  0  0  0
   12.3216  -16.8053   26.5751 O   0  0  0  0  0  0  0  0  0  0  0  0
   10.8121  -18.3814   26.0055 O   0  0  0  0  0  0  0  0  0  0  0  0
  2  1  1  6
  2  3  1  0
  4  2  1  0
  4  5  1  6
  6  8  1  0
  6  4  1  0
  7  6  2  0
  9  8  1  0
  9 10  1  6
 11 10  1  0
 12 11  1  0
 13 12  1  0
 14 13  1  0
 15  9  1  0
 15 16  2  0
 17 15  1  0
 18 17  1  0
 18 26  1  0
 19 20  1  0
 18 19  1  1
 20 25  2  0
 21 20  1  0
 22 21  2  0
 22 23  1  0
 23 24  2  0
 24 25  1  0
 26 28  2  0
 26 27  1  0
M  END
$$$$
