VKF.pdb
     RDKit          3D

 28 28  0  0  1  0  0  0  0  0999 V2000
    8.1763  -12.2339   18.8371 C   0  0  0  0  0  0  0  0  0  0  0  0
    7.7938  -13.1465   19.9822 C   0  0  2  0  0  0  0  0  0  0  0  0
    8.5800  -12.7262   21.1923 C   0  0  0  0  0  0  0  0  0  0  0  0
    8.1023  -14.5737   19.5573 C   0  0  2  0  0  0  0  0  0  0  0  0
    7.3237  -14.8327   18.3683 N   0  0  0  0  0  0  0  0  0  0  0  0
    7.7137  -15.5447   20.6034 C   0  0  0  0  0  0  0  0  0  0  0  0
    6.4865  -15.7557   20.8882 O   0  0  0  0  0  0  0  0  0  0  0  0
    8.6622  -16.2730   21.3256 N   0  0  0  0  0  0  0  0  0  0  0  0
    8.3544  -17.2217   22.3725 C   0  0  1  0  0  0  0  0  0  0  0  0
    8.9230  -18.5602   21.9577 C   0  0  0  0  0  0  0  0  0  0  0  0
    8.6341  -19.6543   22.9137 C   0  0  0  0  0  0  0  0  0  0  0  0
    9.2845  -20.9272   22.4502 C   0  0  0  0  0  0  0  0  0  0  0  0
    8.9041  -22.0666   23.3562 C   0  0  0  0  0  0  0  0  0  0  0  0
    7.7001  -22.7407   22.8828 N   0  0  0  0  0  0  0  0  0  0  0  0
    8.7923  -16.7782   23.6985 C   0  0  0  0  0  0  0  0  0  0  0  0
    9.9427  -16.2805   23.9223 O   0  0  0  0  0  0  0  0  0  0  0  0
    7.9336  -16.8843   24.8267 N   0  0  0  0  0  0  0  0  0  0  0  0
    8.3806  -16.4394   26.1614 C   0  0  1  0  0  0  0  0  0  0  0  0
    7.2317  -15.8019   26.8700 C   0  0  0  0  0  0  0  0  0  0  0  0
    7.1112  -14.3706   26.5070 C   0  0  0  0  0  0  0  0  0  0  0  0
    8.1763  -13.4915   26.7247 C   0  0  0  0  0  0  0  0  0  0  0  0
    8.0845  -12.1618   26.3806 C   0  0  0  0  0  0  0  0  0  0  0  0
    6.9268  -11.6543   25.8052 C   0  0  0  0  0  0  0  0  0  0  0  0
    5.8820  -12.5151   25.5912 C   0  0  0  0  0  0  0  0  0  0  0  0
    5.9805  -13.8400   25.9367 C   0  0  0  0  0  0  0  0  0  0  0  0
    8.9739  -17.5808   26.8684 C   0  0  0  0  0  0  0  0  0  0  0  0
    9.8720  -17.4236   27.9180 O   0  0  0  0  0  0  0  0  0  0  0  0
    8.6797  -18.7494   26.5368 O   0  0  0  0  0  0  0  0  0  0  0  0
  2  1  1  6
  2  3  1  0
  4  2  1  0
  4  5  1  6
  6  8  1  0
  6  4  1  0
  7  6  2  0
  9  8  1  0
  9 10  1  6
 11 10  1  0
 12 11  1  0
 13 12  1  0
 14 13  1  0
 15  9  1  0
 15 16  2  0
 17 15  1  0
 18 17  1  0
 18 26  1  0
 19 20  1  0
 18 19  1  1
 20 25  2  0
 21 20  1  0
 22 21  2  0
 22 23  1  0
 23 24  2  0
 24 25  1  0
 26 28  2  0
 26 27  1  0
M  END
$$$$
