VKF.pdb
     RDKit          3D

 28 28  0  0  1  0  0  0  0  0999 V2000
    4.2016  -16.9126   20.6384 C   0  0  0  0  0  0  0  0  0  0  0  0
    4.8083  -18.2931   20.7662 C   0  0  2  0  0  0  0  0  0  0  0  0
    3.6854  -19.2803   20.9202 C   0  0  0  0  0  0  0  0  0  0  0  0
    5.7370  -18.2791   21.9703 C   0  0  2  0  0  0  0  0  0  0  0  0
    4.9324  -17.9149   23.1137 N   0  0  0  0  0  0  0  0  0  0  0  0
    6.8163  -17.2805   21.8085 C   0  0  0  0  0  0  0  0  0  0  0  0
    7.8585  -17.5380   21.1163 O   0  0  0  0  0  0  0  0  0  0  0  0
    6.7494  -16.0166   22.3999 N   0  0  0  0  0  0  0  0  0  0  0  0
    7.8389  -15.0672   22.4475 C   0  0  1  0  0  0  0  0  0  0  0  0
    7.3553  -13.7845   21.8090 C   0  0  0  0  0  0  0  0  0  0  0  0
    6.9645  -13.9346   20.3880 C   0  0  0  0  0  0  0  0  0  0  0  0
    8.1147  -13.5613   19.4961 C   0  0  0  0  0  0  0  0  0  0  0  0
    7.7039  -13.6496   18.0514 C   0  0  0  0  0  0  0  0  0  0  0  0
    8.8098  -13.3063   17.1641 N   0  0  0  0  0  0  0  0  0  0  0  0
    8.3878  -14.8876   23.7940 C   0  0  0  0  0  0  0  0  0  0  0  0
    8.0449  -13.9342   24.5651 O   0  0  0  0  0  0  0  0  0  0  0  0
    9.3531  -15.7906   24.3176 N   0  0  0  0  0  0  0  0  0  0  0  0
    9.8192  -15.6731   25.7135 C   0  0  1  0  0  0  0  0  0  0  0  0
    8.6672  -15.9158   26.6314 C   0  0  0  0  0  0  0  0  0  0  0  0
    7.8385  -14.6966   26.7782 C   0  0  0  0  0  0  0  0  0  0  0  0
    8.3139  -13.5985   27.5013 C   0  0  0  0  0  0  0  0  0  0  0  0
    7.5614  -12.4537   27.6355 C   0  0  0  0  0  0  0  0  0  0  0  0
    6.3038  -12.3570   27.0542 C   0  0  0  0  0  0  0  0  0  0  0  0
    5.8366  -13.4327   26.3450 C   0  0  0  0  0  0  0  0  0  0  0  0
    6.5925  -14.5712   26.2151 C   0  0  0  0  0  0  0  0  0  0  0  0
   10.9568  -16.5792   25.9122 C   0  0  0  0  0  0  0  0  0  0  0  0
   11.4029  -17.4454   24.9204 O   0  0  0  0  0  0  0  0  0  0  0  0
   11.5668  -16.5949   27.0030 O   0  0  0  0  0  0  0  0  0  0  0  0
  2  1  1  1
  2  3  1  0
  4  2  1  0
  4  5  1  1
  6  8  1  0
  6  4  1  0
  7  6  2  0
  9  8  1  0
  9 10  1  1
 11 10  1  0
 12 11  1  0
 13 12  1  0
 14 13  1  0
 15  9  1  0
 15 16  2  0
 17 15  1  0
 18 17  1  0
 18 26  1  0
 19 20  1  0
 18 19  1  1
 20 25  2  0
 21 20  1  0
 22 21  2  0
 22 23  1  0
 23 24  2  0
 24 25  1  0
 26 28  2  0
 26 27  1  0
M  END
$$$$
