VKF.pdb
     RDKit          3D

 28 28  0  0  1  0  0  0  0  0999 V2000
    8.3789  -12.3723   18.4422 C   0  0  0  0  0  0  0  0  0  0  0  0
    7.9338  -13.0995   19.6926 C   0  0  2  0  0  0  0  0  0  0  0  0
    8.6994  -12.5331   20.8554 C   0  0  0  0  0  0  0  0  0  0  0  0
    8.2059  -14.5813   19.4858 C   0  0  2  0  0  0  0  0  0  0  0  0
    7.4733  -14.9795   18.3060 N   0  0  0  0  0  0  0  0  0  0  0  0
    7.7322  -15.3831   20.6352 C   0  0  0  0  0  0  0  0  0  0  0  0
    6.4928  -15.4364   20.9396 O   0  0  0  0  0  0  0  0  0  0  0  0
    8.6101  -16.1156   21.4380 N   0  0  0  0  0  0  0  0  0  0  0  0
    8.2134  -16.9448   22.5542 C   0  0  1  0  0  0  0  0  0  0  0  0
    8.4987  -18.3818   22.1797 C   0  0  0  0  0  0  0  0  0  0  0  0
    8.1097  -19.3596   23.2224 C   0  0  0  0  0  0  0  0  0  0  0  0
    8.5091  -20.7459   22.8021 C   0  0  0  0  0  0  0  0  0  0  0  0
    7.9890  -21.7587   23.7857 C   0  0  0  0  0  0  0  0  0  0  0  0
    8.1722  -23.1193   23.2920 N   0  0  0  0  0  0  0  0  0  0  0  0
    8.8201  -16.5321   23.8223 C   0  0  0  0  0  0  0  0  0  0  0  0
   10.0396  -16.1824   23.9304 O   0  0  0  0  0  0  0  0  0  0  0  0
    8.0586  -16.5014   25.0226 N   0  0  0  0  0  0  0  0  0  0  0  0
    8.6790  -16.1024   26.3014 C   0  0  1  0  0  0  0  0  0  0  0  0
    7.6296  -15.5180   27.1879 C   0  0  0  0  0  0  0  0  0  0  0  0
    7.2864  -14.1393   26.7678 C   0  0  0  0  0  0  0  0  0  0  0  0
    6.0762  -13.8758   26.1194 C   0  0  0  0  0  0  0  0  0  0  0  0
    5.7371  -12.5983   25.7348 C   0  0  0  0  0  0  0  0  0  0  0  0
    6.5911  -11.5312   25.9811 C   0  0  0  0  0  0  0  0  0  0  0  0
    7.7778  -11.7880   26.6168 C   0  0  0  0  0  0  0  0  0  0  0  0
    8.1095  -13.0646   26.9976 C   0  0  0  0  0  0  0  0  0  0  0  0
    9.3807  -17.2594   26.8702 C   0  0  0  0  0  0  0  0  0  0  0  0
    9.0831  -18.5670   26.5033 O   0  0  0  0  0  0  0  0  0  0  0  0
   10.2840  -17.0942   27.7181 O   0  0  0  0  0  0  0  0  0  0  0  0
  2  1  1  6
  2  3  1  0
  4  2  1  0
  4  5  1  6
  6  8  1  0
  6  4  1  0
  7  6  2  0
  9  8  1  0
  9 10  1  6
 11 10  1  0
 12 11  1  0
 13 12  1  0
 14 13  1  0
 15  9  1  0
 15 16  2  0
 17 15  1  0
 18 17  1  0
 18 26  1  0
 19 20  1  0
 18 19  1  1
 20 25  2  0
 21 20  1  0
 22 21  2  0
 22 23  1  0
 23 24  2  0
 24 25  1  0
 26 28  2  0
 26 27  1  0
M  END
$$$$
