VKF.pdb
     RDKit          3D

 28 28  0  0  1  0  0  0  0  0999 V2000
    6.5297  -13.8242   19.2927 C   0  0  0  0  0  0  0  0  0  0  0  0
    7.6978  -13.0060   19.7991 C   0  0  2  0  0  0  0  0  0  0  0  0
    8.3546  -12.3536   18.6149 C   0  0  0  0  0  0  0  0  0  0  0  0
    8.6362  -13.9487   20.5361 C   0  0  2  0  0  0  0  0  0  0  0  0
    9.1256  -14.8964   19.5617 N   0  0  0  0  0  0  0  0  0  0  0  0
    7.9301  -14.6861   21.6066 C   0  0  0  0  0  0  0  0  0  0  0  0
    7.3764  -14.0716   22.5799 O   0  0  0  0  0  0  0  0  0  0  0  0
    7.8348  -16.0799   21.6057 N   0  0  0  0  0  0  0  0  0  0  0  0
    7.3296  -16.8748   22.7028 C   0  0  1  0  0  0  0  0  0  0  0  0
    7.2738  -18.3126   22.2373 C   0  0  0  0  0  0  0  0  0  0  0  0
    6.7883  -19.2567   23.2705 C   0  0  0  0  0  0  0  0  0  0  0  0
    6.1154  -20.4314   22.6183 C   0  0  0  0  0  0  0  0  0  0  0  0
    5.5346  -21.3452   23.6629 C   0  0  0  0  0  0  0  0  0  0  0  0
    4.9538  -22.5393   23.0585 N   0  0  0  0  0  0  0  0  0  0  0  0
    8.0810  -16.6841   23.9459 C   0  0  0  0  0  0  0  0  0  0  0  0
    9.3488  -16.5720   23.9839 O   0  0  0  0  0  0  0  0  0  0  0  0
    7.4155  -16.6132   25.2003 N   0  0  0  0  0  0  0  0  0  0  0  0
    8.1750  -16.3995   26.4481 C   0  0  1  0  0  0  0  0  0  0  0  0
    7.3515  -15.5759   27.3820 C   0  0  0  0  0  0  0  0  0  0  0  0
    7.3587  -14.1499   26.9804 C   0  0  0  0  0  0  0  0  0  0  0  0
    6.2016  -13.5492   26.4755 C   0  0  0  0  0  0  0  0  0  0  0  0
    6.1888  -12.2220   26.1106 C   0  0  0  0  0  0  0  0  0  0  0  0
    7.3294  -11.4393   26.2342 C   0  0  0  0  0  0  0  0  0  0  0  0
    8.4643  -12.0269   26.7291 C   0  0  0  0  0  0  0  0  0  0  0  0
    8.4699  -13.3510   27.0912 C   0  0  0  0  0  0  0  0  0  0  0  0
    8.5829  -17.7033   26.9849 C   0  0  0  0  0  0  0  0  0  0  0  0
    9.5560  -17.8337   27.9693 O   0  0  0  0  0  0  0  0  0  0  0  0
    8.0534  -18.7530   26.5607 O   0  0  0  0  0  0  0  0  0  0  0  0
  2  1  1  6
  2  3  1  0
  4  2  1  0
  4  5  1  6
  6  8  1  0
  6  4  1  0
  7  6  2  0
  9  8  1  0
  9 10  1  6
 11 10  1  0
 12 11  1  0
 13 12  1  0
 14 13  1  0
 15  9  1  0
 15 16  2  0
 17 15  1  0
 18 17  1  0
 18 26  1  0
 19 20  1  0
 18 19  1  1
 20 25  2  0
 21 20  1  0
 22 21  2  0
 22 23  1  0
 23 24  2  0
 24 25  1  0
 26 28  2  0
 26 27  1  0
M  END
$$$$
