VKF.pdb
     RDKit          3D

 28 28  0  0  1  0  0  0  0  0999 V2000
    8.1281  -12.2392   18.5690 C   0  0  0  0  0  0  0  0  0  0  0  0
    7.5713  -13.1052   19.6782 C   0  0  2  0  0  0  0  0  0  0  0  0
    7.9793  -12.4964   20.9905 C   0  0  0  0  0  0  0  0  0  0  0  0
    8.1281  -14.5080   19.4919 C   0  0  2  0  0  0  0  0  0  0  0  0
    7.6927  -14.9604   18.1907 N   0  0  0  0  0  0  0  0  0  0  0  0
    7.6077  -15.4366   20.5191 C   0  0  0  0  0  0  0  0  0  0  0  0
    6.3662  -15.7312   20.5775 O   0  0  0  0  0  0  0  0  0  0  0  0
    8.4419  -16.0324   21.4682 N   0  0  0  0  0  0  0  0  0  0  0  0
    7.9964  -16.9179   22.5209 C   0  0  1  0  0  0  0  0  0  0  0  0
    8.3157  -18.3328   22.0934 C   0  0  0  0  0  0  0  0  0  0  0  0
    7.8983  -19.3619   23.0738 C   0  0  0  0  0  0  0  0  0  0  0  0
    8.3668  -20.7180   22.6270 C   0  0  0  0  0  0  0  0  0  0  0  0
    7.8512  -21.7806   23.5589 C   0  0  0  0  0  0  0  0  0  0  0  0
    8.3987  -23.0906   23.2235 N   0  0  0  0  0  0  0  0  0  0  0  0
    8.5321  -16.5624   23.8375 C   0  0  0  0  0  0  0  0  0  0  0  0
    9.7408  -16.2095   24.0261 O   0  0  0  0  0  0  0  0  0  0  0  0
    7.7087  -16.5950   24.9961 N   0  0  0  0  0  0  0  0  0  0  0  0
    8.2839  -16.3791   26.3385 C   0  0  1  0  0  0  0  0  0  0  0  0
    7.2963  -15.6355   27.1753 C   0  0  0  0  0  0  0  0  0  0  0  0
    7.3573  -14.1805   26.9027 C   0  0  0  0  0  0  0  0  0  0  0  0
    8.4974  -13.4434   27.2367 C   0  0  0  0  0  0  0  0  0  0  0  0
    8.5745  -12.0936   26.9777 C   0  0  0  0  0  0  0  0  0  0  0  0
    7.5178  -11.4236   26.3751 C   0  0  0  0  0  0  0  0  0  0  0  0
    6.3996  -12.1450   26.0471 C   0  0  0  0  0  0  0  0  0  0  0  0
    6.3296  -13.4909   26.3082 C   0  0  0  0  0  0  0  0  0  0  0  0
    8.6972  -17.6743   26.8919 C   0  0  0  0  0  0  0  0  0  0  0  0
    9.6878  -17.7900   27.8606 O   0  0  0  0  0  0  0  0  0  0  0  0
    8.1565  -18.7297   26.4970 O   0  0  0  0  0  0  0  0  0  0  0  0
  2  1  1  6
  2  3  1  0
  4  2  1  0
  4  5  1  6
  6  8  1  0
  6  4  1  0
  7  6  2  0
  9  8  1  0
  9 10  1  6
 11 10  1  0
 12 11  1  0
 13 12  1  0
 14 13  1  0
 15  9  1  0
 15 16  2  0
 17 15  1  0
 18 17  1  0
 18 26  1  0
 19 20  1  0
 18 19  1  1
 20 25  2  0
 21 20  1  0
 22 21  2  0
 22 23  1  0
 23 24  2  0
 24 25  1  0
 26 28  2  0
 26 27  1  0
M  END
$$$$
