VKF.pdb
     RDKit          3D

 28 28  0  0  1  0  0  0  0  0999 V2000
    7.7818  -12.3253   18.8897 C   0  0  0  0  0  0  0  0  0  0  0  0
    7.6536  -13.1968   20.1203 C   0  0  2  0  0  0  0  0  0  0  0  0
    8.4366  -12.5512   21.2290 C   0  0  0  0  0  0  0  0  0  0  0  0
    8.1825  -14.5775   19.7648 C   0  0  2  0  0  0  0  0  0  0  0  0
    7.3882  -15.0562   18.6570 N   0  0  0  0  0  0  0  0  0  0  0  0
    8.0393  -15.5189   20.8969 C   0  0  0  0  0  0  0  0  0  0  0  0
    6.8906  -15.9302   21.2749 O   0  0  0  0  0  0  0  0  0  0  0  0
    9.1446  -16.0006   21.6026 N   0  0  0  0  0  0  0  0  0  0  0  0
    9.0798  -16.9413   22.6988 C   0  0  1  0  0  0  0  0  0  0  0  0
    9.9131  -18.1444   22.3181 C   0  0  0  0  0  0  0  0  0  0  0  0
    9.8696  -19.2406   23.3136 C   0  0  0  0  0  0  0  0  0  0  0  0
   10.6690  -20.4141   22.8217 C   0  0  0  0  0  0  0  0  0  0  0  0
   10.5844  -21.5507   23.8038 C   0  0  0  0  0  0  0  0  0  0  0  0
   11.2905  -22.7290   23.3127 N   0  0  0  0  0  0  0  0  0  0  0  0
    9.4485  -16.3500   23.9876 C   0  0  0  0  0  0  0  0  0  0  0  0
   10.4920  -15.6401   24.1558 O   0  0  0  0  0  0  0  0  0  0  0  0
    8.6398  -16.5446   25.1407 N   0  0  0  0  0  0  0  0  0  0  0  0
    9.0398  -15.9866   26.4476 C   0  0  1  0  0  0  0  0  0  0  0  0
    7.8184  -15.5296   27.1740 C   0  0  0  0  0  0  0  0  0  0  0  0
    7.4025  -14.1822   26.7195 C   0  0  0  0  0  0  0  0  0  0  0  0
    8.2413  -13.0797   26.9078 C   0  0  0  0  0  0  0  0  0  0  0  0
    7.8748  -11.8240   26.4792 C   0  0  0  0  0  0  0  0  0  0  0  0
    6.6568  -11.6162   25.8452 C   0  0  0  0  0  0  0  0  0  0  0  0
    5.8336  -12.6962   25.6599 C   0  0  0  0  0  0  0  0  0  0  0  0
    6.2055  -13.9457   26.0898 C   0  0  0  0  0  0  0  0  0  0  0  0
    9.8371  -16.9872   27.1671 C   0  0  0  0  0  0  0  0  0  0  0  0
   10.6215  -16.6647   28.2687 O   0  0  0  0  0  0  0  0  0  0  0  0
    9.8303  -18.1816   26.7990 O   0  0  0  0  0  0  0  0  0  0  0  0
  2  1  1  6
  2  3  1  0
  4  2  1  0
  4  5  1  6
  6  8  1  0
  6  4  1  0
  7  6  2  0
  9  8  1  0
  9 10  1  6
 11 10  1  0
 12 11  1  0
 13 12  1  0
 14 13  1  0
 15  9  1  0
 15 16  2  0
 17 15  1  0
 18 17  1  0
 18 26  1  0
 19 20  1  0
 18 19  1  1
 20 25  2  0
 21 20  1  0
 22 21  2  0
 22 23  1  0
 23 24  2  0
 24 25  1  0
 26 28  2  0
 26 27  1  0
M  END
$$$$
