VKF.pdb
     RDKit          3D

 28 28  0  0  1  0  0  0  0  0999 V2000
    8.4071  -12.5980   17.9012 C   0  0  0  0  0  0  0  0  0  0  0  0
    8.0605  -13.5587   19.0180 C   0  0  2  0  0  0  0  0  0  0  0  0
    8.6322  -13.0102   20.2953 C   0  0  0  0  0  0  0  0  0  0  0  0
    8.6445  -14.9156   18.6570 C   0  0  2  0  0  0  0  0  0  0  0  0
    8.0506  -15.3041   17.3987 N   0  0  0  0  0  0  0  0  0  0  0  0
    8.3130  -15.9349   19.6765 C   0  0  0  0  0  0  0  0  0  0  0  0
    7.1033  -16.2777   19.9013 O   0  0  0  0  0  0  0  0  0  0  0  0
    9.2989  -16.5679   20.4374 N   0  0  0  0  0  0  0  0  0  0  0  0
    9.0489  -17.3561   21.6236 C   0  0  1  0  0  0  0  0  0  0  0  0
   10.0081  -18.5251   21.6057 C   0  0  0  0  0  0  0  0  0  0  0  0
    9.8177  -19.4368   20.4537 C   0  0  0  0  0  0  0  0  0  0  0  0
   10.8471  -20.5310   20.4881 C   0  0  0  0  0  0  0  0  0  0  0  0
   10.6912  -21.4307   19.2924 C   0  0  0  0  0  0  0  0  0  0  0  0
   11.6383  -22.5396   19.3366 N   0  0  0  0  0  0  0  0  0  0  0  0
    9.0979  -16.5694   22.8586 C   0  0  0  0  0  0  0  0  0  0  0  0
   10.1469  -15.9720   23.2634 O   0  0  0  0  0  0  0  0  0  0  0  0
    7.9491  -16.4315   23.6849 N   0  0  0  0  0  0  0  0  0  0  0  0
    7.9742  -15.5576   24.8745 C   0  0  1  0  0  0  0  0  0  0  0  0
    7.2001  -14.3156   24.5801 C   0  0  0  0  0  0  0  0  0  0  0  0
    7.1636  -13.4199   25.7597 C   0  0  0  0  0  0  0  0  0  0  0  0
    8.3174  -12.7502   26.1780 C   0  0  0  0  0  0  0  0  0  0  0  0
    8.2964  -11.9045   27.2639 C   0  0  0  0  0  0  0  0  0  0  0  0
    7.1239  -11.6919   27.9772 C   0  0  0  0  0  0  0  0  0  0  0  0
    5.9921  -12.3476   27.5682 C   0  0  0  0  0  0  0  0  0  0  0  0
    6.0203  -13.1896   26.4843 C   0  0  0  0  0  0  0  0  0  0  0  0
    7.4878  -16.3176   26.0323 C   0  0  0  0  0  0  0  0  0  0  0  0
    6.3613  -17.1301   25.9718 O   0  0  0  0  0  0  0  0  0  0  0  0
    8.0881  -16.2516   27.1266 O   0  0  0  0  0  0  0  0  0  0  0  0
  2  1  1  6
  2  3  1  0
  4  2  1  0
  4  5  1  6
  6  8  1  0
  6  4  1  0
  7  6  2  0
  9  8  1  0
  9 10  1  1
 11 10  1  0
 12 11  1  0
 13 12  1  0
 14 13  1  0
 15  9  1  0
 15 16  2  0
 17 15  1  0
 18 17  1  0
 18 26  1  0
 19 20  1  0
 18 19  1  6
 20 25  2  0
 21 20  1  0
 22 21  2  0
 22 23  1  0
 23 24  2  0
 24 25  1  0
 26 28  2  0
 26 27  1  0
M  END
$$$$
