VKF.pdb
     RDKit          3D

 28 28  0  0  1  0  0  0  0  0999 V2000
    7.3044  -12.7172   20.4504 C   0  0  0  0  0  0  0  0  0  0  0  0
    8.5091  -13.1665   19.6522 C   0  0  2  0  0  0  0  0  0  0  0  0
    8.5640  -12.3457   18.3943 C   0  0  0  0  0  0  0  0  0  0  0  0
    8.3468  -14.6517   19.3687 C   0  0  2  0  0  0  0  0  0  0  0  0
    7.1968  -14.7884   18.5050 N   0  0  0  0  0  0  0  0  0  0  0  0
    8.1037  -15.4157   20.6120 C   0  0  0  0  0  0  0  0  0  0  0  0
    6.9692  -15.3832   21.1981 O   0  0  0  0  0  0  0  0  0  0  0  0
    9.0950  -16.2039   21.2015 N   0  0  0  0  0  0  0  0  0  0  0  0
    8.9124  -17.0134   22.3857 C   0  0  1  0  0  0  0  0  0  0  0  0
    9.2269  -18.4449   22.0134 C   0  0  0  0  0  0  0  0  0  0  0  0
    9.0527  -19.4044   23.1285 C   0  0  0  0  0  0  0  0  0  0  0  0
    9.5229  -20.7692   22.7108 C   0  0  0  0  0  0  0  0  0  0  0  0
    9.5911  -21.6843   23.9031 C   0  0  0  0  0  0  0  0  0  0  0  0
   10.8265  -21.4860   24.6532 N   0  0  0  0  0  0  0  0  0  0  0  0
    9.6683  -16.5227   23.5408 C   0  0  0  0  0  0  0  0  0  0  0  0
   10.8590  -16.8903   23.8020 O   0  0  0  0  0  0  0  0  0  0  0  0
    9.0954  -15.5899   24.4482 N   0  0  0  0  0  0  0  0  0  0  0  0
    9.2000  -15.7922   25.9068 C   0  0  1  0  0  0  0  0  0  0  0  0
    7.8370  -15.6981   26.5083 C   0  0  0  0  0  0  0  0  0  0  0  0
    7.3644  -14.2942   26.5369 C   0  0  0  0  0  0  0  0  0  0  0  0
    8.1957  -13.2568   26.1041 C   0  0  0  0  0  0  0  0  0  0  0  0
    7.7663  -11.9490   26.1121 C   0  0  0  0  0  0  0  0  0  0  0  0
    6.4903  -11.6220   26.5522 C   0  0  0  0  0  0  0  0  0  0  0  0
    5.6743  -12.6380   26.9767 C   0  0  0  0  0  0  0  0  0  0  0  0
    6.1090  -13.9401   26.9659 C   0  0  0  0  0  0  0  0  0  0  0  0
    9.8913  -17.0617   26.1617 C   0  0  0  0  0  0  0  0  0  0  0  0
   10.5292  -17.3352   27.3663 O   0  0  0  0  0  0  0  0  0  0  0  0
    9.9243  -17.9489   25.2819 O   0  0  0  0  0  0  0  0  0  0  0  0
  2  1  1  1
  2  3  1  0
  4  2  1  0
  4  5  1  6
  6  8  1  0
  6  4  1  0
  7  6  2  0
  9  8  1  0
  9 10  1  6
 11 10  1  0
 12 11  1  0
 13 12  1  0
 14 13  1  0
 15  9  1  0
 15 16  2  0
 17 15  1  0
 18 17  1  0
 18 26  1  0
 19 20  1  0
 18 19  1  6
 20 25  2  0
 21 20  1  0
 22 21  2  0
 22 23  1  0
 23 24  2  0
 24 25  1  0
 26 28  2  0
 26 27  1  0
M  END
$$$$
