VKF.pdb
     RDKit          3D

 28 28  0  0  1  0  0  0  0  0999 V2000
    8.0860  -12.7764   18.2003 C   0  0  0  0  0  0  0  0  0  0  0  0
    7.8854  -13.4265   19.5521 C   0  0  2  0  0  0  0  0  0  0  0  0
    8.7374  -12.6933   20.5499 C   0  0  0  0  0  0  0  0  0  0  0  0
    8.2749  -14.8907   19.4222 C   0  0  2  0  0  0  0  0  0  0  0  0
    7.4709  -15.4434   18.3567 N   0  0  0  0  0  0  0  0  0  0  0  0
    7.9945  -15.6370   20.6683 C   0  0  0  0  0  0  0  0  0  0  0  0
    6.8920  -15.4877   21.2958 O   0  0  0  0  0  0  0  0  0  0  0  0
    8.9144  -16.5346   21.2157 N   0  0  0  0  0  0  0  0  0  0  0  0
    8.7643  -17.1967   22.4924 C   0  0  1  0  0  0  0  0  0  0  0  0
    8.9599  -18.6787   22.2642 C   0  0  0  0  0  0  0  0  0  0  0  0
    7.8526  -19.3196   21.5173 C   0  0  0  0  0  0  0  0  0  0  0  0
    8.1279  -20.7872   21.3483 C   0  0  0  0  0  0  0  0  0  0  0  0
    7.0757  -21.4178   20.4773 C   0  0  0  0  0  0  0  0  0  0  0  0
    5.9340  -21.8671   21.2666 N   0  0  0  0  0  0  0  0  0  0  0  0
    9.6293  -16.6394   23.5353 C   0  0  0  0  0  0  0  0  0  0  0  0
   10.8913  -16.5281   23.4084 O   0  0  0  0  0  0  0  0  0  0  0  0
    9.0889  -16.1849   24.7694 N   0  0  0  0  0  0  0  0  0  0  0  0
    9.9738  -15.7370   25.8629 C   0  0  1  0  0  0  0  0  0  0  0  0
    9.9777  -14.2447   25.9030 C   0  0  0  0  0  0  0  0  0  0  0  0
    8.6244  -13.7173   26.1954 C   0  0  0  0  0  0  0  0  0  0  0  0
    7.6722  -13.6037   25.1781 C   0  0  0  0  0  0  0  0  0  0  0  0
    6.4066  -13.1279   25.4365 C   0  0  0  0  0  0  0  0  0  0  0  0
    6.0386  -12.7460   26.7200 C   0  0  0  0  0  0  0  0  0  0  0  0
    6.9711  -12.8570   27.7183 C   0  0  0  0  0  0  0  0  0  0  0  0
    8.2314  -13.3323   27.4535 C   0  0  0  0  0  0  0  0  0  0  0  0
    9.5466  -16.3782   27.1123 C   0  0  0  0  0  0  0  0  0  0  0  0
   10.2654  -16.2583   28.2963 O   0  0  0  0  0  0  0  0  0  0  0  0
    8.5018  -17.0635   27.1436 O   0  0  0  0  0  0  0  0  0  0  0  0
  2  1  1  6
  2  3  1  0
  4  2  1  0
  4  5  1  6
  6  8  1  0
  6  4  1  0
  7  6  2  0
  9  8  1  0
  9 10  1  6
 11 10  1  0
 12 11  1  0
 13 12  1  0
 14 13  1  0
 15  9  1  0
 15 16  2  0
 17 15  1  0
 18 17  1  0
 18 26  1  0
 19 20  1  0
 18 19  1  1
 20 25  2  0
 21 20  1  0
 22 21  2  0
 22 23  1  0
 23 24  2  0
 24 25  1  0
 26 28  2  0
 26 27  1  0
M  END
$$$$
