VGQ.pdb
     RDKit          3D

 21 20  0  0  1  0  0  0  0  0999 V2000
   19.4378  -15.8181  -18.0355 C   0  0  0  0  0  0  0  0  0  0  0  0
   18.5706  -15.7114  -16.8147 C   0  0  2  0  0  0  0  0  0  0  0  0
   17.3145  -16.5140  -16.9227 C   0  0  0  0  0  0  0  0  0  0  0  0
   18.3140  -14.2781  -16.4031 C   0  0  2  0  0  0  0  0  0  0  0  0
   17.3656  -13.7623  -17.4081 N   0  0  0  0  0  0  0  0  0  0  0  0
   19.4990  -13.4197  -16.4140 C   0  0  0  0  0  0  0  0  0  0  0  0
   20.3697  -13.5813  -15.4913 O   0  0  0  0  0  0  0  0  0  0  0  0
   19.7811  -12.4097  -17.3648 N   0  0  0  0  0  0  0  0  0  0  0  0
   20.8893  -11.5450  -17.1814 C   0  0  0  0  0  0  0  0  0  0  0  0
   20.6119  -10.1300  -16.9753 C   0  0  0  0  0  0  0  0  0  0  0  0
   19.9656   -9.5516  -17.9158 O   0  0  0  0  0  0  0  0  0  0  0  0
   16.2221   -7.4897  -15.2360 N   0  0  0  0  0  0  0  0  0  0  0  0
   17.0691   -6.3699  -15.1326 C   0  0  0  0  0  0  0  0  0  0  0  0
   16.4966   -5.2482  -14.9180 O   0  0  0  0  0  0  0  0  0  0  0  0
   18.5477   -6.4492  -15.2602 C   0  0  0  0  0  0  0  0  0  0  0  0
   18.9958   -7.8926  -15.4773 C   0  0  0  0  0  0  0  0  0  0  0  0
   20.4853   -7.9772  -15.6705 C   0  0  2  0  0  0  0  0  0  0  0  0
   20.9584   -9.3151  -15.8873 N   0  0  0  0  0  0  0  0  0  0  0  0
   21.2170   -7.2962  -14.5757 C   0  0  0  0  0  0  0  0  0  0  0  0
   21.0551   -6.0604  -14.4274 O   0  0  0  0  0  0  0  0  0  0  0  0
   22.0737   -7.9379  -13.6991 O   0  0  0  0  0  0  0  0  0  0  0  0
  2  1  1  6
  2  3  1  0
  4  2  1  0
  4  5  1  6
  6  4  1  0
  6  7  2  0
  8  6  1  0
  9  8  1  0
  9 10  1  0
 10 18  1  0
 11 10  2  0
 13 15  1  0
 13 12  1  0
 14 13  2  0
 17 16  1  1
 16 15  1  0
 17 19  1  0
 18 17  1  0
 19 20  2  0
 19 21  1  0
M  END
$$$$
