VGQ.pdb
     RDKit          3D

 21 20  0  0  1  0  0  0  0  0999 V2000
   24.3995  -19.3171  -15.5366 C   0  0  0  0  0  0  0  0  0  0  0  0
   25.2156  -18.2746  -16.2443 C   0  0  2  0  0  0  0  0  0  0  0  0
   24.6213  -17.8604  -17.5516 C   0  0  0  0  0  0  0  0  0  0  0  0
   26.6757  -18.6548  -16.3611 C   0  0  2  0  0  0  0  0  0  0  0  0
   26.6923  -19.8027  -17.2872 N   0  0  0  0  0  0  0  0  0  0  0  0
   27.2980  -19.0752  -15.1052 C   0  0  0  0  0  0  0  0  0  0  0  0
   27.4024  -18.2139  -14.1656 O   0  0  0  0  0  0  0  0  0  0  0  0
   27.8044  -20.3667  -14.8238 N   0  0  0  0  0  0  0  0  0  0  0  0
   28.4063  -20.6406  -13.5699 C   0  0  0  0  0  0  0  0  0  0  0  0
   27.5303  -21.0341  -12.4746 C   0  0  0  0  0  0  0  0  0  0  0  0
   28.1164  -21.3141  -11.3725 O   0  0  0  0  0  0  0  0  0  0  0  0
   25.0068  -21.3810   -7.0538 N   0  0  0  0  0  0  0  0  0  0  0  0
   25.5979  -20.4404   -7.9186 C   0  0  0  0  0  0  0  0  0  0  0  0
   26.7905  -20.0830   -7.6321 O   0  0  0  0  0  0  0  0  0  0  0  0
   24.9059  -19.8738   -9.1055 C   0  0  0  0  0  0  0  0  0  0  0  0
   25.7977  -19.9550  -10.3422 C   0  0  0  0  0  0  0  0  0  0  0  0
   25.2965  -20.9940  -11.3077 C   0  0  2  0  0  0  0  0  0  0  0  0
   26.1323  -21.1497  -12.4645 N   0  0  0  0  0  0  0  0  0  0  0  0
   23.8779  -20.7626  -11.6704 C   0  0  0  0  0  0  0  0  0  0  0  0
   23.6232  -20.2440  -12.7846 O   0  0  0  0  0  0  0  0  0  0  0  0
   22.8068  -21.0830  -10.8552 O   0  0  0  0  0  0  0  0  0  0  0  0
  2  1  1  6
  2  3  1  0
  4  2  1  0
  4  5  1  6
  6  4  1  0
  6  7  2  0
  8  6  1  0
  9  8  1  0
  9 10  1  0
 10 18  1  0
 11 10  2  0
 13 15  1  0
 13 12  1  0
 14 13  2  0
 17 16  1  6
 16 15  1  0
 17 19  1  0
 18 17  1  0
 19 20  2  0
 19 21  1  0
M  END
$$$$
