VGQ.pdb
     RDKit          3D

 21 20  0  0  1  0  0  0  0  0999 V2000
   17.1254  -12.1821  -14.6290 C   0  0  0  0  0  0  0  0  0  0  0  0
   17.2354  -13.0011  -15.8823 C   0  0  2  0  0  0  0  0  0  0  0  0
   17.1787  -14.4717  -15.6220 C   0  0  0  0  0  0  0  0  0  0  0  0
   18.4190  -12.6049  -16.7378 C   0  0  2  0  0  0  0  0  0  0  0  0
   19.5947  -13.1337  -16.0211 N   0  0  0  0  0  0  0  0  0  0  0  0
   18.5972  -11.1616  -16.9004 C   0  0  0  0  0  0  0  0  0  0  0  0
   17.7982  -10.5391  -17.6812 O   0  0  0  0  0  0  0  0  0  0  0  0
   19.5858  -10.3727  -16.2649 N   0  0  0  0  0  0  0  0  0  0  0  0
   19.6584   -8.9794  -16.5157 C   0  0  0  0  0  0  0  0  0  0  0  0
   20.6092   -8.2030  -15.7315 C   0  0  0  0  0  0  0  0  0  0  0  0
   21.1394   -8.8165  -14.7419 O   0  0  0  0  0  0  0  0  0  0  0  0
   23.2154   -2.4327  -16.8212 N   0  0  0  0  0  0  0  0  0  0  0  0
   23.0845   -3.5747  -17.6340 C   0  0  0  0  0  0  0  0  0  0  0  0
   23.3191   -3.4103  -18.8790 O   0  0  0  0  0  0  0  0  0  0  0  0
   22.6977   -4.9106  -17.1100 C   0  0  0  0  0  0  0  0  0  0  0  0
   22.3577   -4.8316  -15.6236 C   0  0  0  0  0  0  0  0  0  0  0  0
   21.9637   -6.1789  -15.0827 C   0  0  2  0  0  0  0  0  0  0  0  0
   21.0209   -6.8743  -15.9123 N   0  0  0  0  0  0  0  0  0  0  0  0
   21.5098   -6.0899  -13.6743 C   0  0  0  0  0  0  0  0  0  0  0  0
   20.2855   -5.9278  -13.4505 O   0  0  0  0  0  0  0  0  0  0  0  0
   22.3534   -6.1743  -12.5809 O   0  0  0  0  0  0  0  0  0  0  0  0
  2  1  1  1
  2  3  1  0
  4  2  1  0
  4  5  1  1
  6  4  1  0
  6  7  2  0
  8  6  1  0
  9  8  1  0
  9 10  1  0
 10 18  1  0
 11 10  2  0
 13 15  1  0
 13 12  1  0
 14 13  2  0
 17 16  1  6
 16 15  1  0
 17 19  1  0
 18 17  1  0
 19 20  2  0
 19 21  1  0
M  END
$$$$
