VGQ.pdb
     RDKit          3D

 21 20  0  0  1  0  0  0  0  0999 V2000
   14.2815  -13.0587  -14.6009 C   0  0  0  0  0  0  0  0  0  0  0  0
   14.3494  -14.1446  -15.6352 C   0  0  2  0  0  0  0  0  0  0  0  0
   13.8395  -15.4570  -15.1338 C   0  0  0  0  0  0  0  0  0  0  0  0
   15.7150  -14.2557  -16.2775 C   0  0  2  0  0  0  0  0  0  0  0  0
   16.5616  -14.8950  -15.2528 N   0  0  0  0  0  0  0  0  0  0  0  0
   16.3252  -12.9752  -16.6368 C   0  0  0  0  0  0  0  0  0  0  0  0
   15.8074  -12.3083  -17.5973 O   0  0  0  0  0  0  0  0  0  0  0  0
   17.4536  -12.3916  -16.0123 N   0  0  0  0  0  0  0  0  0  0  0  0
   17.9625  -11.1509  -16.4717 C   0  0  0  0  0  0  0  0  0  0  0  0
   18.2626  -10.1349  -15.4719 C   0  0  0  0  0  0  0  0  0  0  0  0
   17.7044  -10.3000  -14.3327 O   0  0  0  0  0  0  0  0  0  0  0  0
   22.9274   -5.6812  -14.9562 N   0  0  0  0  0  0  0  0  0  0  0  0
   22.1608   -5.5948  -13.7785 C   0  0  0  0  0  0  0  0  0  0  0  0
   22.5593   -4.7494  -12.9075 O   0  0  0  0  0  0  0  0  0  0  0  0
   20.9523   -6.4225  -13.5276 C   0  0  0  0  0  0  0  0  0  0  0  0
   20.6365   -7.3000  -14.7365 C   0  0  0  0  0  0  0  0  0  0  0  0
   19.3602   -8.0697  -14.5322 C   0  0  2  0  0  0  0  0  0  0  0  0
   19.0782   -8.9997  -15.5888 N   0  0  0  0  0  0  0  0  0  0  0  0
   18.2158   -7.1669  -14.2621 C   0  0  0  0  0  0  0  0  0  0  0  0
   17.5474   -6.7422  -15.2358 O   0  0  0  0  0  0  0  0  0  0  0  0
   17.8325   -6.7577  -12.9972 O   0  0  0  0  0  0  0  0  0  0  0  0
  2  1  1  1
  2  3  1  0
  4  2  1  0
  4  5  1  1
  6  4  1  0
  6  7  2  0
  8  6  1  0
  9  8  1  0
  9 10  1  0
 10 18  1  0
 11 10  2  0
 13 15  1  0
 13 12  1  0
 14 13  2  0
 17 16  1  6
 16 15  1  0
 17 19  1  0
 18 17  1  0
 19 20  2  0
 19 21  1  0
M  END
$$$$
