VGQ.pdb
     RDKit          3D

 21 20  0  0  1  0  0  0  0  0999 V2000
   28.7813  -21.8833  -18.6628 C   0  0  0  0  0  0  0  0  0  0  0  0
   28.0880  -22.2622  -17.3864 C   0  0  2  0  0  0  0  0  0  0  0  0
   29.0407  -22.6253  -16.2936 C   0  0  0  0  0  0  0  0  0  0  0  0
   27.0115  -23.3054  -17.5930 C   0  0  2  0  0  0  0  0  0  0  0  0
   26.0483  -23.0732  -16.5004 N   0  0  0  0  0  0  0  0  0  0  0  0
   27.4784  -24.6891  -17.5007 C   0  0  0  0  0  0  0  0  0  0  0  0
   28.1024  -25.1835  -18.5016 O   0  0  0  0  0  0  0  0  0  0  0  0
   27.3039  -25.5495  -16.3903 N   0  0  0  0  0  0  0  0  0  0  0  0
   27.8575  -26.8544  -16.4034 C   0  0  0  0  0  0  0  0  0  0  0  0
   27.1542  -27.8761  -17.1671 C   0  0  0  0  0  0  0  0  0  0  0  0
   26.8960  -27.5759  -18.3836 O   0  0  0  0  0  0  0  0  0  0  0  0
   29.3418  -32.1673  -15.3024 N   0  0  0  0  0  0  0  0  0  0  0  0
   28.0310  -32.4650  -15.7209 C   0  0  0  0  0  0  0  0  0  0  0  0
   27.2794  -33.0335  -14.8584 O   0  0  0  0  0  0  0  0  0  0  0  0
   27.5158  -32.1512  -17.0792 C   0  0  0  0  0  0  0  0  0  0  0  0
   26.1295  -31.5163  -16.9992 C   0  0  0  0  0  0  0  0  0  0  0  0
   26.1269  -30.1368  -17.5992 C   0  0  2  0  0  0  0  0  0  0  0  0
   26.7201  -29.1430  -16.7499 N   0  0  0  0  0  0  0  0  0  0  0  0
   24.7730  -29.7440  -18.0580 C   0  0  0  0  0  0  0  0  0  0  0  0
   24.2666  -28.6935  -17.5939 O   0  0  0  0  0  0  0  0  0  0  0  0
   24.0243  -30.4645  -18.9714 O   0  0  0  0  0  0  0  0  0  0  0  0
  2  1  1  6
  2  3  1  0
  4  2  1  0
  4  5  1  1
  6  4  1  0
  6  7  2  0
  8  6  1  0
  9  8  1  0
  9 10  1  0
 10 18  1  0
 11 10  2  0
 13 15  1  0
 13 12  1  0
 14 13  2  0
 17 16  1  1
 16 15  1  0
 17 19  1  0
 18 17  1  0
 19 20  2  0
 19 21  1  0
M  END
$$$$
