VGQ.pdb
     RDKit          3D

 21 20  0  0  1  0  0  0  0  0999 V2000
   20.5492  -17.3028  -16.7127 C   0  0  0  0  0  0  0  0  0  0  0  0
   20.8950  -15.8829  -17.0564 C   0  0  2  0  0  0  0  0  0  0  0  0
   21.4193  -15.7334  -18.4480 C   0  0  0  0  0  0  0  0  0  0  0  0
   21.7883  -15.2321  -16.0228 C   0  0  2  0  0  0  0  0  0  0  0  0
   21.0036  -15.2637  -14.7743 N   0  0  0  0  0  0  0  0  0  0  0  0
   22.1339  -13.8389  -16.3070 C   0  0  0  0  0  0  0  0  0  0  0  0
   23.1392  -13.6088  -17.0634 O   0  0  0  0  0  0  0  0  0  0  0  0
   21.4506  -12.6999  -15.8178 N   0  0  0  0  0  0  0  0  0  0  0  0
   21.7845  -11.4071  -16.2936 C   0  0  0  0  0  0  0  0  0  0  0  0
   21.0069  -10.2830  -15.7900 C   0  0  0  0  0  0  0  0  0  0  0  0
   19.8516  -10.5755  -15.3249 O   0  0  0  0  0  0  0  0  0  0  0  0
   21.6515   -4.3883  -13.2743 N   0  0  0  0  0  0  0  0  0  0  0  0
   22.4268   -5.5436  -13.0594 C   0  0  0  0  0  0  0  0  0  0  0  0
   23.2594   -5.4917  -12.0918 O   0  0  0  0  0  0  0  0  0  0  0  0
   22.3115   -6.7711  -13.8894 C   0  0  0  0  0  0  0  0  0  0  0  0
   21.2585   -6.5902  -14.9802 C   0  0  0  0  0  0  0  0  0  0  0  0
   20.5164   -7.8730  -15.2386 C   0  0  2  0  0  0  0  0  0  0  0  0
   21.3515   -8.9239  -15.7474 N   0  0  0  0  0  0  0  0  0  0  0  0
   19.3202   -7.6501  -16.0855 C   0  0  0  0  0  0  0  0  0  0  0  0
   19.4493   -7.7211  -17.3320 O   0  0  0  0  0  0  0  0  0  0  0  0
   18.0604   -7.3666  -15.5890 O   0  0  0  0  0  0  0  0  0  0  0  0
  2  1  1  1
  2  3  1  0
  4  2  1  0
  4  5  1  1
  6  4  1  0
  6  7  2  0
  8  6  1  0
  9  8  1  0
  9 10  1  0
 10 18  1  0
 11 10  2  0
 13 15  1  0
 13 12  1  0
 14 13  2  0
 17 16  1  6
 16 15  1  0
 17 19  1  0
 18 17  1  0
 19 20  2  0
 19 21  1  0
M  END
$$$$
