VGQ.pdb
     RDKit          3D

 21 20  0  0  1  0  0  0  0  0999 V2000
   19.1574  -21.6511  -12.3741 C   0  0  0  0  0  0  0  0  0  0  0  0
   18.8961  -22.9454  -13.0882 C   0  0  2  0  0  0  0  0  0  0  0  0
   18.3159  -22.7497  -14.4516 C   0  0  0  0  0  0  0  0  0  0  0  0
   18.1027  -23.9252  -12.2513 C   0  0  2  0  0  0  0  0  0  0  0  0
   16.8049  -23.2619  -12.0252 N   0  0  0  0  0  0  0  0  0  0  0  0
   18.6916  -24.2283  -10.9465 C   0  0  0  0  0  0  0  0  0  0  0  0
   19.7420  -24.9571  -10.9130 O   0  0  0  0  0  0  0  0  0  0  0  0
   18.2030  -23.7842   -9.6943 N   0  0  0  0  0  0  0  0  0  0  0  0
   18.8430  -24.1849   -8.4946 C   0  0  0  0  0  0  0  0  0  0  0  0
   18.0272  -24.8461   -7.4851 C   0  0  0  0  0  0  0  0  0  0  0  0
   16.8601  -25.2050   -7.8670 O   0  0  0  0  0  0  0  0  0  0  0  0
   18.2613  -28.9154   -1.5451 N   0  0  0  0  0  0  0  0  0  0  0  0
   18.0169  -27.5685   -1.8736 C   0  0  0  0  0  0  0  0  0  0  0  0
   18.4465  -26.6987   -1.0423 O   0  0  0  0  0  0  0  0  0  0  0  0
   17.3039  -27.1446   -3.1069 C   0  0  0  0  0  0  0  0  0  0  0  0
   18.1816  -26.2225   -3.9498 C   0  0  0  0  0  0  0  0  0  0  0  0
   17.4915  -25.8329   -5.2286 C   0  0  2  0  0  0  0  0  0  0  0  0
   18.3463  -25.1411   -6.1514 N   0  0  0  0  0  0  0  0  0  0  0  0
   16.2352  -25.0909   -4.9664 C   0  0  0  0  0  0  0  0  0  0  0  0
   16.2872  -23.8398   -4.8811 O   0  0  0  0  0  0  0  0  0  0  0  0
   14.9987  -25.6911   -4.8081 O   0  0  0  0  0  0  0  0  0  0  0  0
  2  1  1  1
  2  3  1  0
  4  2  1  0
  4  5  1  1
  6  4  1  0
  6  7  2  0
  8  6  1  0
  9  8  1  0
  9 10  1  0
 10 18  1  0
 11 10  2  0
 13 15  1  0
 13 12  1  0
 14 13  2  0
 17 16  1  1
 16 15  1  0
 17 19  1  0
 18 17  1  0
 19 20  2  0
 19 21  1  0
M  END
$$$$
