VGQ.pdb
     RDKit          3D

 21 20  0  0  1  0  0  0  0  0999 V2000
   27.0297  -14.6544  -15.4810 C   0  0  0  0  0  0  0  0  0  0  0  0
   26.0602  -15.4028  -16.3490 C   0  0  2  0  0  0  0  0  0  0  0  0
   26.7331  -16.3535  -17.2855 C   0  0  0  0  0  0  0  0  0  0  0  0
   25.0778  -14.4899  -17.0500 C   0  0  2  0  0  0  0  0  0  0  0  0
   25.9008  -13.6972  -17.9826 N   0  0  0  0  0  0  0  0  0  0  0  0
   24.3711  -13.5621  -16.1664 C   0  0  0  0  0  0  0  0  0  0  0  0
   23.5182  -14.0433  -15.3439 O   0  0  0  0  0  0  0  0  0  0  0  0
   24.5436  -12.1575  -16.1322 N   0  0  0  0  0  0  0  0  0  0  0  0
   23.8368  -11.3736  -15.1860 C   0  0  0  0  0  0  0  0  0  0  0  0
   23.0302  -10.2717  -15.6932 C   0  0  0  0  0  0  0  0  0  0  0  0
   23.4164   -9.7714  -16.8055 O   0  0  0  0  0  0  0  0  0  0  0  0
   18.2455  -11.3896  -15.6002 N   0  0  0  0  0  0  0  0  0  0  0  0
   18.2003  -10.5726  -16.7459 C   0  0  0  0  0  0  0  0  0  0  0  0
   17.5547  -11.0384  -17.7451 O   0  0  0  0  0  0  0  0  0  0  0  0
   18.8534   -9.2400  -16.8255 C   0  0  0  0  0  0  0  0  0  0  0  0
   19.5874   -8.9183  -15.5258 C   0  0  0  0  0  0  0  0  0  0  0  0
   21.0567   -8.7057  -15.7686 C   0  0  2  0  0  0  0  0  0  0  0  0
   21.8893   -9.6837  -15.1273 N   0  0  0  0  0  0  0  0  0  0  0  0
   21.4689   -7.3198  -15.4411 C   0  0  0  0  0  0  0  0  0  0  0  0
   22.0291   -7.1081  -14.3380 O   0  0  0  0  0  0  0  0  0  0  0  0
   21.2753   -6.2350  -16.2778 O   0  0  0  0  0  0  0  0  0  0  0  0
  2  1  1  6
  2  3  1  0
  4  2  1  0
  4  5  1  6
  6  4  1  0
  6  7  2  0
  8  6  1  0
  9  8  1  0
  9 10  1  0
 10 18  1  0
 11 10  2  0
 13 15  1  0
 13 12  1  0
 14 13  2  0
 17 16  1  1
 16 15  1  0
 17 19  1  0
 18 17  1  0
 19 20  2  0
 19 21  1  0
M  END
$$$$
