VGQ.pdb
     RDKit          3D

 21 20  0  0  1  0  0  0  0  0999 V2000
   26.4877  -14.7566  -14.8554 C   0  0  0  0  0  0  0  0  0  0  0  0
   25.5926  -15.2548  -15.9528 C   0  0  2  0  0  0  0  0  0  0  0  0
   26.2464  -16.2889  -16.8112 C   0  0  0  0  0  0  0  0  0  0  0  0
   24.9752  -14.1325  -16.7585 C   0  0  2  0  0  0  0  0  0  0  0  0
   26.1084  -13.5146  -17.4722 N   0  0  0  0  0  0  0  0  0  0  0  0
   24.3224  -13.0958  -15.9583 C   0  0  0  0  0  0  0  0  0  0  0  0
   23.1893  -13.3653  -15.4299 O   0  0  0  0  0  0  0  0  0  0  0  0
   24.8330  -11.7997  -15.7069 N   0  0  0  0  0  0  0  0  0  0  0  0
   24.1464  -10.9180  -14.8347 C   0  0  0  0  0  0  0  0  0  0  0  0
   23.2176   -9.9683  -15.4323 C   0  0  0  0  0  0  0  0  0  0  0  0
   23.2179   -9.9261  -16.7110 O   0  0  0  0  0  0  0  0  0  0  0  0
   17.2103   -9.3331  -14.8201 N   0  0  0  0  0  0  0  0  0  0  0  0
   17.5438   -8.3328  -15.7529 C   0  0  0  0  0  0  0  0  0  0  0  0
   16.5703   -7.8218  -16.4035 O   0  0  0  0  0  0  0  0  0  0  0  0
   18.9360   -7.8719  -15.9941 C   0  0  0  0  0  0  0  0  0  0  0  0
   19.9287   -8.6983  -15.1800 C   0  0  0  0  0  0  0  0  0  0  0  0
   21.3459   -8.2804  -15.4626 C   0  0  2  0  0  0  0  0  0  0  0  0
   22.3247   -9.0926  -14.7969 N   0  0  0  0  0  0  0  0  0  0  0  0
   21.5502   -6.8350  -15.2047 C   0  0  0  0  0  0  0  0  0  0  0  0
   22.0815   -6.4909  -14.1208 O   0  0  0  0  0  0  0  0  0  0  0  0
   21.1911   -5.8315  -16.0869 O   0  0  0  0  0  0  0  0  0  0  0  0
  2  1  1  1
  2  3  1  0
  4  2  1  0
  4  5  1  1
  6  4  1  0
  6  7  2  0
  8  6  1  0
  9  8  1  0
  9 10  1  0
 10 18  1  0
 11 10  2  0
 13 15  1  0
 13 12  1  0
 14 13  2  0
 17 16  1  1
 16 15  1  0
 17 19  1  0
 18 17  1  0
 19 20  2  0
 19 21  1  0
M  END
$$$$
