VGQ.pdb
     RDKit          3D

 21 20  0  0  1  0  0  0  0  0999 V2000
   18.8531  -15.7898  -14.7977 C   0  0  0  0  0  0  0  0  0  0  0  0
   19.1951  -16.3801  -16.1350 C   0  0  2  0  0  0  0  0  0  0  0  0
   19.6283  -17.8077  -16.0459 C   0  0  0  0  0  0  0  0  0  0  0  0
   20.1637  -15.5241  -16.9216 C   0  0  2  0  0  0  0  0  0  0  0  0
   21.4477  -15.6564  -16.2079 N   0  0  0  0  0  0  0  0  0  0  0  0
   19.8173  -14.1034  -16.9740 C   0  0  0  0  0  0  0  0  0  0  0  0
   18.8309  -13.7494  -17.7070 O   0  0  0  0  0  0  0  0  0  0  0  0
   20.4796  -13.0635  -16.2786 N   0  0  0  0  0  0  0  0  0  0  0  0
   19.9751  -11.7395  -16.3234 C   0  0  0  0  0  0  0  0  0  0  0  0
   20.6912  -10.7206  -15.5678 C   0  0  0  0  0  0  0  0  0  0  0  0
   20.6948  -10.8759  -14.2980 O   0  0  0  0  0  0  0  0  0  0  0  0
   26.5822  -11.0034  -15.0457 N   0  0  0  0  0  0  0  0  0  0  0  0
   25.6700  -10.0389  -15.5142 C   0  0  0  0  0  0  0  0  0  0  0  0
   26.1323   -9.1795  -16.3387 O   0  0  0  0  0  0  0  0  0  0  0  0
   24.2445   -9.9915  -15.0964 C   0  0  0  0  0  0  0  0  0  0  0  0
   23.5977   -8.6769  -15.5260 C   0  0  0  0  0  0  0  0  0  0  0  0
   22.1226   -8.6736  -15.2307 C   0  0  2  0  0  0  0  0  0  0  0  0
   21.3753   -9.5918  -16.0427 N   0  0  0  0  0  0  0  0  0  0  0  0
   21.5603   -7.3027  -15.2753 C   0  0  0  0  0  0  0  0  0  0  0  0
   20.8062   -6.9972  -16.2310 O   0  0  0  0  0  0  0  0  0  0  0  0
   21.8137   -6.3292  -14.3253 O   0  0  0  0  0  0  0  0  0  0  0  0
  2  1  1  1
  2  3  1  0
  4  2  1  0
  4  5  1  1
  6  4  1  0
  6  7  2  0
  8  6  1  0
  9  8  1  0
  9 10  1  0
 10 18  1  0
 11 10  2  0
 13 15  1  0
 13 12  1  0
 14 13  2  0
 17 16  1  6
 16 15  1  0
 17 19  1  0
 18 17  1  0
 19 20  2  0
 19 21  1  0
M  END
$$$$
