GRF.pdb
     RDKit          3D

 27 27  0  0  1  0  0  0  0  0999 V2000
    5.8548  -20.8640   23.4522 N   0  0  0  0  0  0  0  0  0  0  0  0
    5.6547  -19.4581   23.5968 C   0  0  0  0  0  0  0  0  0  0  0  0
    6.8632  -18.6755   23.1670 C   0  0  0  0  0  0  0  0  0  0  0  0
    7.8984  -19.2823   22.8713 O   0  0  0  0  0  0  0  0  0  0  0  0
    9.4896  -13.8870   18.9654 N   0  0  0  0  0  0  0  0  0  0  0  0
    8.5160  -12.9328   19.3885 C   0  0  0  0  0  0  0  0  0  0  0  0
    8.8069  -11.6746   19.4804 N   0  0  0  0  0  0  0  0  0  0  0  0
    7.1978  -13.3352   19.7222 N   0  0  0  0  0  0  0  0  0  0  0  0
    6.7972  -14.7501   19.5614 C   0  0  0  0  0  0  0  0  0  0  0  0
    6.6393  -15.3984   20.8850 C   0  0  0  0  0  0  0  0  0  0  0  0
    7.7212  -15.2831   21.8738 C   0  0  0  0  0  0  0  0  0  0  0  0
    7.9721  -16.4596   22.7724 C   0  0  2  0  0  0  0  0  0  0  0  0
    6.8330  -17.2591   23.0965 N   0  0  0  0  0  0  0  0  0  0  0  0
    8.7922  -16.0667   23.9299 C   0  0  0  0  0  0  0  0  0  0  0  0
    9.9075  -15.5451   23.7411 O   0  0  0  0  0  0  0  0  0  0  0  0
    8.0580  -11.0172   19.7889 N   0  0  0  0  0  0  0  0  0  0  0  0
    8.3176  -16.2791   25.2388 C   0  0  1  0  0  0  0  0  0  0  0  0
    9.0812  -15.8056   26.4010 C   0  0  0  0  0  0  0  0  0  0  0  0
    8.1612  -15.0745   27.3582 C   0  0  0  0  0  0  0  0  0  0  0  0
    7.5546  -13.8614   26.7800 C   0  0  0  0  0  0  0  0  0  0  0  0
    6.2108  -13.7725   26.4640 C   0  0  0  0  0  0  0  0  0  0  0  0
    5.6714  -12.6440   25.9397 C   0  0  0  0  0  0  0  0  0  0  0  0
    6.4885  -11.5587   25.7176 C   0  0  0  0  0  0  0  0  0  0  0  0
    7.8378  -11.6305   26.0287 C   0  0  0  0  0  0  0  0  0  0  0  0
    8.3748  -12.7744   26.5582 C   0  0  0  0  0  0  0  0  0  0  0  0
    9.7566  -16.9570   27.0133 O   0  0  0  0  0  0  0  0  0  0  0  0
   10.4651  -16.8209   28.0696 O   0  0  0  0  0  0  0  0  0  0  0  0
  2  1  1  0
  3  2  1  0
  3 13  1  0
  4  3  2  0
  5  6  1  0
  6  8  1  0
  6  7  2  0
  8  9  1  0
  9 10  1  0
 12 11  1  1
 11 10  1  0
 13 12  1  0
 14 15  2  0
 14 12  1  0
 16 14  1  0
 17 16  1  0
 17 25  1  0
 17 18  1  6
 19 18  1  0
 20 19  2  0
 21 20  1  0
 22 23  1  0
 22 21  2  0
 23 24  2  0
 24 19  1  0
 25 26  2  0
 25 27  1  0
M  END
$$$$
