GRF.pdb
     RDKit          3D

 27 27  0  0  1  0  0  0  0  0999 V2000
   13.2784  -17.4961   19.8896 N   0  0  0  0  0  0  0  0  0  0  0  0
   12.8362  -17.9618   21.1644 C   0  0  0  0  0  0  0  0  0  0  0  0
   12.0267  -16.9231   21.8879 C   0  0  0  0  0  0  0  0  0  0  0  0
   12.6125  -16.0368   22.5193 O   0  0  0  0  0  0  0  0  0  0  0  0
    7.7728  -12.7245   19.0874 N   0  0  0  0  0  0  0  0  0  0  0  0
    7.6782  -13.8102   18.1655 C   0  0  0  0  0  0  0  0  0  0  0  0
    8.1379  -13.7070   16.9596 N   0  0  0  0  0  0  0  0  0  0  0  0
    7.0761  -15.0372   18.5433 N   0  0  0  0  0  0  0  0  0  0  0  0
    6.9599  -15.3898   19.9753 C   0  0  0  0  0  0  0  0  0  0  0  0
    8.2961  -15.4023   20.6167 C   0  0  0  0  0  0  0  0  0  0  0  0
    8.4101  -15.7944   22.0291 C   0  0  0  0  0  0  0  0  0  0  0  0
    9.7881  -16.0252   22.5792 C   0  0  2  0  0  0  0  0  0  0  0  0
   10.6088  -16.9453   21.8569 N   0  0  0  0  0  0  0  0  0  0  0  0
    9.7377  -16.2610   24.0312 C   0  0  0  0  0  0  0  0  0  0  0  0
    9.8723  -17.4197   24.4682 O   0  0  0  0  0  0  0  0  0  0  0  0
    8.0968  -14.5475   16.3432 N   0  0  0  0  0  0  0  0  0  0  0  0
    9.5392  -15.1843   24.9171 C   0  0  2  0  0  0  0  0  0  0  0  0
    9.5701  -15.3919   26.3710 C   0  0  0  0  0  0  0  0  0  0  0  0
    9.4664  -14.0584   27.0838 C   0  0  0  0  0  0  0  0  0  0  0  0
    8.3184  -13.2442   26.6441 C   0  0  0  0  0  0  0  0  0  0  0  0
    8.1220  -12.8750   25.3255 C   0  0  0  0  0  0  0  0  0  0  0  0
    7.0547  -12.1318   24.9412 C   0  0  0  0  0  0  0  0  0  0  0  0
    6.1435  -11.7359   25.8940 C   0  0  0  0  0  0  0  0  0  0  0  0
    6.3249  -12.0972   27.2204 C   0  0  0  0  0  0  0  0  0  0  0  0
    7.4060  -12.8484   27.6003 C   0  0  0  0  0  0  0  0  0  0  0  0
    8.4942  -16.3251   26.7298 O   0  0  0  0  0  0  0  0  0  0  0  0
    7.5506  -16.5911   25.9083 O   0  0  0  0  0  0  0  0  0  0  0  0
  2  1  1  0
  3  2  1  0
  3 13  1  0
  4  3  2  0
  5  6  1  0
  6  8  1  0
  6  7  2  0
  8  9  1  0
  9 10  1  0
 12 11  1  6
 11 10  1  0
 13 12  1  0
 14 15  2  0
 14 12  1  0
 16 14  1  0
 17 16  1  0
 17 25  1  0
 17 18  1  6
 19 18  1  0
 20 19  2  0
 21 20  1  0
 22 23  1  0
 22 21  2  0
 23 24  2  0
 24 19  1  0
 25 26  2  0
 25 27  1  0
M  END
$$$$
