GRF.pdb
     RDKit          3D

 27 27  0  0  1  0  0  0  0  0999 V2000
    6.0404  -20.9864   23.5455 N   0  0  0  0  0  0  0  0  0  0  0  0
    5.8782  -19.6777   24.0918 C   0  0  0  0  0  0  0  0  0  0  0  0
    6.7676  -18.6752   23.4124 C   0  0  0  0  0  0  0  0  0  0  0  0
    7.9363  -18.9849   23.1561 O   0  0  0  0  0  0  0  0  0  0  0  0
    8.8826  -11.8057   19.3601 N   0  0  0  0  0  0  0  0  0  0  0  0
    8.9851  -13.1958   19.0528 C   0  0  0  0  0  0  0  0  0  0  0  0
   10.1218  -13.8129   19.1116 N   0  0  0  0  0  0  0  0  0  0  0  0
    7.8426  -13.9446   18.6725 N   0  0  0  0  0  0  0  0  0  0  0  0
    7.2791  -14.9499   19.5999 C   0  0  0  0  0  0  0  0  0  0  0  0
    7.1943  -14.3989   20.9734 C   0  0  0  0  0  0  0  0  0  0  0  0
    6.4512  -15.1435   22.0004 C   0  0  0  0  0  0  0  0  0  0  0  0
    7.1353  -16.3154   22.6433 C   0  0  2  0  0  0  0  0  0  0  0  0
    6.2882  -17.3867   23.0634 N   0  0  0  0  0  0  0  0  0  0  0  0
    8.0989  -15.8636   23.6601 C   0  0  0  0  0  0  0  0  0  0  0  0
    9.0357  -15.1139   23.3254 O   0  0  0  0  0  0  0  0  0  0  0  0
   10.1376  -14.8363   18.9106 N   0  0  0  0  0  0  0  0  0  0  0  0
    7.9608  -16.2763   24.9996 C   0  0  1  0  0  0  0  0  0  0  0  0
    8.8816  -15.7884   26.0350 C   0  0  0  0  0  0  0  0  0  0  0  0
    8.0940  -15.1979   27.1874 C   0  0  0  0  0  0  0  0  0  0  0  0
    7.4294  -13.9246   26.8544 C   0  0  0  0  0  0  0  0  0  0  0  0
    6.0539  -13.7788   26.8363 C   0  0  0  0  0  0  0  0  0  0  0  0
    5.4629  -12.5961   26.5345 C   0  0  0  0  0  0  0  0  0  0  0  0
    6.2586  -11.5125   26.2387 C   0  0  0  0  0  0  0  0  0  0  0  0
    7.6391  -11.6409   26.2524 C   0  0  0  0  0  0  0  0  0  0  0  0
    8.2283  -12.8394   26.5584 C   0  0  0  0  0  0  0  0  0  0  0  0
    9.7556  -16.8972   26.4393 O   0  0  0  0  0  0  0  0  0  0  0  0
   10.6191  -16.7502   27.3714 O   0  0  0  0  0  0  0  0  0  0  0  0
  2  1  1  0
  3  2  1  0
  3 13  1  0
  4  3  2  0
  5  6  1  0
  6  8  1  0
  6  7  2  0
  8  9  1  0
  9 10  1  0
 12 11  1  1
 11 10  1  0
 13 12  1  0
 14 15  2  0
 14 12  1  0
 16 14  1  0
 17 16  1  0
 17 25  1  0
 17 18  1  1
 19 18  1  0
 20 19  2  0
 21 20  1  0
 22 23  1  0
 22 21  2  0
 23 24  2  0
 24 19  1  0
 25 26  2  0
 25 27  1  0
M  END
$$$$
