GRF.pdb
     RDKit          3D

 27 27  0  0  1  0  0  0  0  0999 V2000
   14.1617  -18.9407   21.5670 N   0  0  0  0  0  0  0  0  0  0  0  0
   12.7759  -18.9431   21.9089 C   0  0  0  0  0  0  0  0  0  0  0  0
   12.2876  -17.5685   22.2689 C   0  0  0  0  0  0  0  0  0  0  0  0
   12.7041  -17.0342   23.3026 O   0  0  0  0  0  0  0  0  0  0  0  0
    8.4811  -13.0169   17.6682 N   0  0  0  0  0  0  0  0  0  0  0  0
    7.8509  -14.2638   17.9604 C   0  0  0  0  0  0  0  0  0  0  0  0
    7.6418  -15.1424   17.0327 N   0  0  0  0  0  0  0  0  0  0  0  0
    7.4335  -14.5785   19.2786 N   0  0  0  0  0  0  0  0  0  0  0  0
    7.6840  -13.6213   20.3782 C   0  0  0  0  0  0  0  0  0  0  0  0
    8.6699  -14.1770   21.3354 C   0  0  0  0  0  0  0  0  0  0  0  0
    9.4561  -15.3582   20.9506 C   0  0  0  0  0  0  0  0  0  0  0  0
   10.4846  -15.8581   21.9238 C   0  0  2  0  0  0  0  0  0  0  0  0
   11.3612  -16.8797   21.4447 N   0  0  0  0  0  0  0  0  0  0  0  0
    9.8710  -16.1430   23.2311 C   0  0  0  0  0  0  0  0  0  0  0  0
   10.6015  -16.3906   24.2092 O   0  0  0  0  0  0  0  0  0  0  0  0
    7.2086  -16.0517   17.3042 N   0  0  0  0  0  0  0  0  0  0  0  0
    8.4698  -16.1346   23.3727 C   0  0  2  0  0  0  0  0  0  0  0  0
    7.8383  -15.5504   24.5634 C   0  0  0  0  0  0  0  0  0  0  0  0
    8.1572  -14.0708   24.6416 C   0  0  0  0  0  0  0  0  0  0  0  0
    7.5187  -13.3910   25.7836 C   0  0  0  0  0  0  0  0  0  0  0  0
    6.1690  -13.0894   25.8177 C   0  0  0  0  0  0  0  0  0  0  0  0
    5.6002  -12.4702   26.8819 C   0  0  0  0  0  0  0  0  0  0  0  0
    6.3924  -12.1344   27.9563 C   0  0  0  0  0  0  0  0  0  0  0  0
    7.7471  -12.4295   27.9389 C   0  0  0  0  0  0  0  0  0  0  0  0
    8.3140  -13.0553   26.8598 C   0  0  0  0  0  0  0  0  0  0  0  0
    6.3975  -15.8298   24.5094 O   0  0  0  0  0  0  0  0  0  0  0  0
    5.7148  -15.9829   25.5802 O   0  0  0  0  0  0  0  0  0  0  0  0
  2  1  1  0
  3  2  1  0
  3 13  1  0
  4  3  2  0
  5  6  1  0
  6  8  1  0
  6  7  2  0
  8  9  1  0
  9 10  1  0
 12 11  1  6
 11 10  1  0
 13 12  1  0
 14 15  2  0
 14 12  1  0
 16 14  1  0
 17 16  1  0
 17 25  1  0
 17 18  1  6
 19 18  1  0
 20 19  2  0
 21 20  1  0
 22 23  1  0
 22 21  2  0
 23 24  2  0
 24 19  1  0
 25 26  2  0
 25 27  1  0
M  END
$$$$
