GRF.pdb
     RDKit          3D

 27 27  0  0  1  0  0  0  0  0999 V2000
    8.2411  -15.3896   15.1957 N   0  0  0  0  0  0  0  0  0  0  0  0
    9.4148  -15.7676   15.9148 C   0  0  0  0  0  0  0  0  0  0  0  0
    9.0806  -16.3889   17.2414 C   0  0  0  0  0  0  0  0  0  0  0  0
    7.9677  -16.1833   17.7381 O   0  0  0  0  0  0  0  0  0  0  0  0
    8.7172  -24.5111   18.8643 N   0  0  0  0  0  0  0  0  0  0  0  0
    8.9033  -23.2897   18.1495 C   0  0  0  0  0  0  0  0  0  0  0  0
    9.1745  -23.2890   16.8835 N   0  0  0  0  0  0  0  0  0  0  0  0
    8.7971  -22.0373   18.8060 N   0  0  0  0  0  0  0  0  0  0  0  0
    8.8750  -20.7858   18.0211 C   0  0  0  0  0  0  0  0  0  0  0  0
   10.1471  -20.0775   18.2986 C   0  0  0  0  0  0  0  0  0  0  0  0
   10.2226  -19.1620   19.4465 C   0  0  0  0  0  0  0  0  0  0  0  0
    9.7928  -17.7393   19.2326 C   0  0  2  0  0  0  0  0  0  0  0  0
   10.0181  -17.2025   17.9276 N   0  0  0  0  0  0  0  0  0  0  0  0
   10.2586  -16.8820   20.3347 C   0  0  0  0  0  0  0  0  0  0  0  0
   11.4057  -16.3982   20.2911 O   0  0  0  0  0  0  0  0  0  0  0  0
    9.2983  -24.2081   16.4059 N   0  0  0  0  0  0  0  0  0  0  0  0
    9.4127  -16.6118   21.4279 C   0  0  1  0  0  0  0  0  0  0  0  0
    9.8291  -15.6855   22.4892 C   0  0  0  0  0  0  0  0  0  0  0  0
    8.6902  -14.7444   22.8271 C   0  0  0  0  0  0  0  0  0  0  0  0
    8.2444  -13.9264   21.6843 C   0  0  0  0  0  0  0  0  0  0  0  0
    7.0726  -14.1782   20.9935 C   0  0  0  0  0  0  0  0  0  0  0  0
    6.6771  -13.4083   19.9495 C   0  0  0  0  0  0  0  0  0  0  0  0
    7.4674  -12.3470   19.5701 C   0  0  0  0  0  0  0  0  0  0  0  0
    8.6451  -12.0801   20.2516 C   0  0  0  0  0  0  0  0  0  0  0  0
    9.0375  -12.8629   21.3055 C   0  0  0  0  0  0  0  0  0  0  0  0
   10.2890  -16.4740   23.6398 O   0  0  0  0  0  0  0  0  0  0  0  0
   10.8441  -15.9113   24.6454 O   0  0  0  0  0  0  0  0  0  0  0  0
  2  1  1  0
  3  2  1  0
  3 13  1  0
  4  3  2  0
  5  6  1  0
  6  8  1  0
  6  7  2  0
  8  9  1  0
  9 10  1  0
 12 11  1  6
 11 10  1  0
 13 12  1  0
 14 15  2  0
 14 12  1  0
 16 14  1  0
 17 16  1  0
 17 25  1  0
 17 18  1  6
 19 18  1  0
 20 19  2  0
 21 20  1  0
 22 23  1  0
 22 21  2  0
 23 24  2  0
 24 19  1  0
 25 26  2  0
 25 27  1  0
M  END
$$$$
