GRF.pdb
     RDKit          3D

 27 27  0  0  1  0  0  0  0  0999 V2000
    6.2450  -21.0891   24.4684 N   0  0  0  0  0  0  0  0  0  0  0  0
    6.0377  -19.7106   24.7757 C   0  0  0  0  0  0  0  0  0  0  0  0
    7.0988  -18.8377   24.1678 C   0  0  0  0  0  0  0  0  0  0  0  0
    8.2473  -19.2794   24.0525 O   0  0  0  0  0  0  0  0  0  0  0  0
    8.0197  -12.1978   18.1839 N   0  0  0  0  0  0  0  0  0  0  0  0
    8.0379  -13.5601   17.7582 C   0  0  0  0  0  0  0  0  0  0  0  0
    8.3225  -13.8761   16.5353 N   0  0  0  0  0  0  0  0  0  0  0  0
    7.7438  -14.6110   18.6637 N   0  0  0  0  0  0  0  0  0  0  0  0
    7.7025  -14.3400   20.1174 C   0  0  0  0  0  0  0  0  0  0  0  0
    7.3456  -15.5694   20.8645 C   0  0  0  0  0  0  0  0  0  0  0  0
    7.2169  -15.5076   22.3278 C   0  0  0  0  0  0  0  0  0  0  0  0
    7.7663  -16.6554   23.1248 C   0  0  2  0  0  0  0  0  0  0  0  0
    6.8032  -17.5223   23.7272 N   0  0  0  0  0  0  0  0  0  0  0  0
    8.8297  -16.1980   24.0338 C   0  0  0  0  0  0  0  0  0  0  0  0
    9.8963  -15.7639   23.5587 O   0  0  0  0  0  0  0  0  0  0  0  0
    8.3257  -14.8863   16.2756 N   0  0  0  0  0  0  0  0  0  0  0  0
    8.6407  -16.2510   25.4284 C   0  0  1  0  0  0  0  0  0  0  0  0
    9.7159  -15.8561   26.3480 C   0  0  0  0  0  0  0  0  0  0  0  0
   10.0096  -14.3774   26.1920 C   0  0  0  0  0  0  0  0  0  0  0  0
    8.8244  -13.5198   26.3762 C   0  0  0  0  0  0  0  0  0  0  0  0
    8.4062  -13.0749   27.6175 C   0  0  0  0  0  0  0  0  0  0  0  0
    7.3171  -12.2800   27.7638 C   0  0  0  0  0  0  0  0  0  0  0  0
    6.6110  -11.9079   26.6423 C   0  0  0  0  0  0  0  0  0  0  0  0
    7.0164  -12.3447   25.3903 C   0  0  0  0  0  0  0  0  0  0  0  0
    8.1180  -13.1475   25.2511 C   0  0  0  0  0  0  0  0  0  0  0  0
    9.3194  -16.2265   27.7128 O   0  0  0  0  0  0  0  0  0  0  0  0
    8.1831  -16.7654   27.9460 O   0  0  0  0  0  0  0  0  0  0  0  0
  2  1  1  0
  3  2  1  0
  3 13  1  0
  4  3  2  0
  5  6  1  0
  6  8  1  0
  6  7  2  0
  8  9  1  0
  9 10  1  0
 12 11  1  1
 11 10  1  0
 13 12  1  0
 14 15  2  0
 14 12  1  0
 16 14  1  0
 17 16  1  0
 17 25  1  0
 17 18  1  6
 19 18  1  0
 20 19  2  0
 21 20  1  0
 22 23  1  0
 22 21  2  0
 23 24  2  0
 24 19  1  0
 25 26  2  0
 25 27  1  0
M  END
$$$$
