GRF.pdb
     RDKit          3D

 27 27  0  0  1  0  0  0  0  0999 V2000
    5.0000  -20.0473   23.3046 N   0  0  0  0  0  0  0  0  0  0  0  0
    4.9873  -18.6680   23.6720 C   0  0  0  0  0  0  0  0  0  0  0  0
    6.3291  -18.0237   23.4673 C   0  0  0  0  0  0  0  0  0  0  0  0
    7.3496  -18.6499   23.7737 O   0  0  0  0  0  0  0  0  0  0  0  0
    8.0735  -12.5376   17.3293 N   0  0  0  0  0  0  0  0  0  0  0  0
    8.9257  -13.4822   17.9766 C   0  0  0  0  0  0  0  0  0  0  0  0
   10.1337  -13.6901   17.5598 N   0  0  0  0  0  0  0  0  0  0  0  0
    8.4739  -14.2233   19.0979 N   0  0  0  0  0  0  0  0  0  0  0  0
    7.0626  -14.1191   19.5288 C   0  0  0  0  0  0  0  0  0  0  0  0
    6.8197  -14.9675   20.7198 C   0  0  0  0  0  0  0  0  0  0  0  0
    7.7595  -14.9050   21.8486 C   0  0  0  0  0  0  0  0  0  0  0  0
    7.6639  -15.9776   22.8951 C   0  0  2  0  0  0  0  0  0  0  0  0
    6.4406  -16.7152   22.9313 N   0  0  0  0  0  0  0  0  0  0  0  0
    8.1114  -15.4720   24.2030 C   0  0  0  0  0  0  0  0  0  0  0  0
    7.8189  -14.3098   24.5428 O   0  0  0  0  0  0  0  0  0  0  0  0
   10.6791  -14.4644   17.9971 N   0  0  0  0  0  0  0  0  0  0  0  0
    8.8634  -16.2972   25.0617 C   0  0  1  0  0  0  0  0  0  0  0  0
    9.2091  -15.8528   26.4184 C   0  0  0  0  0  0  0  0  0  0  0  0
    7.9450  -15.5702   27.2053 C   0  0  0  0  0  0  0  0  0  0  0  0
    7.4093  -14.2135   26.9903 C   0  0  0  0  0  0  0  0  0  0  0  0
    6.1076  -13.9764   26.5862 C   0  0  0  0  0  0  0  0  0  0  0  0
    5.6326  -12.7196   26.4016 C   0  0  0  0  0  0  0  0  0  0  0  0
    6.4733  -11.6526   26.6239 C   0  0  0  0  0  0  0  0  0  0  0  0
    7.7810  -11.8721   27.0295 C   0  0  0  0  0  0  0  0  0  0  0  0
    8.2531  -13.1451   27.2139 C   0  0  0  0  0  0  0  0  0  0  0  0
   10.0607  -16.8756   27.0393 O   0  0  0  0  0  0  0  0  0  0  0  0
   10.5681  -16.6958   28.1996 O   0  0  0  0  0  0  0  0  0  0  0  0
  2  1  1  0
  3  2  1  0
  3 13  1  0
  4  3  2  0
  5  6  1  0
  6  8  1  0
  6  7  2  0
  8  9  1  0
  9 10  1  0
 12 11  1  6
 11 10  1  0
 13 12  1  0
 14 15  2  0
 14 12  1  0
 16 14  1  0
 17 16  1  0
 17 25  1  0
 17 18  1  1
 19 18  1  0
 20 19  2  0
 21 20  1  0
 22 23  1  0
 22 21  2  0
 23 24  2  0
 24 19  1  0
 25 26  2  0
 25 27  1  0
M  END
$$$$
