GRF.pdb
     RDKit          3D

 27 27  0  0  1  0  0  0  0  0999 V2000
    5.6790  -21.2260   24.8834 N   0  0  0  0  0  0  0  0  0  0  0  0
    5.5425  -19.8250   24.6466 C   0  0  0  0  0  0  0  0  0  0  0  0
    6.8473  -19.1971   24.2457 C   0  0  0  0  0  0  0  0  0  0  0  0
    7.8808  -19.8728   24.2981 O   0  0  0  0  0  0  0  0  0  0  0  0
    7.0609  -12.6686   18.6737 N   0  0  0  0  0  0  0  0  0  0  0  0
    8.2354  -12.7526   19.4804 C   0  0  0  0  0  0  0  0  0  0  0  0
    9.3167  -12.1179   19.1575 N   0  0  0  0  0  0  0  0  0  0  0  0
    8.2537  -13.5358   20.6624 N   0  0  0  0  0  0  0  0  0  0  0  0
    7.0370  -14.2661   21.0803 C   0  0  0  0  0  0  0  0  0  0  0  0
    7.3038  -15.0631   22.3012 C   0  0  0  0  0  0  0  0  0  0  0  0
    8.0283  -16.3369   22.1822 C   0  0  0  0  0  0  0  0  0  0  0  0
    8.1186  -17.2040   23.4048 C   0  0  2  0  0  0  0  0  0  0  0  0
    6.9096  -17.8484   23.8108 N   0  0  0  0  0  0  0  0  0  0  0  0
    8.8330  -16.5076   24.4870 C   0  0  0  0  0  0  0  0  0  0  0  0
    9.8371  -15.8222   24.2156 O   0  0  0  0  0  0  0  0  0  0  0  0
   10.1687  -12.2683   19.7402 N   0  0  0  0  0  0  0  0  0  0  0  0
    8.3831  -16.6163   25.8172 C   0  0  1  0  0  0  0  0  0  0  0  0
    9.0349  -15.8605   26.8950 C   0  0  0  0  0  0  0  0  0  0  0  0
    7.9989  -15.0696   27.6684 C   0  0  0  0  0  0  0  0  0  0  0  0
    7.4753  -13.9059   26.9297 C   0  0  0  0  0  0  0  0  0  0  0  0
    6.1636  -13.8194   26.4988 C   0  0  0  0  0  0  0  0  0  0  0  0
    5.7003  -12.7361   25.8272 C   0  0  0  0  0  0  0  0  0  0  0  0
    6.5636  -11.6954   25.5693 C   0  0  0  0  0  0  0  0  0  0  0  0
    7.8816  -11.7655   25.9941 C   0  0  0  0  0  0  0  0  0  0  0  0
    8.3417  -12.8636   26.6722 C   0  0  0  0  0  0  0  0  0  0  0  0
    9.7881  -16.8023   27.7331 O   0  0  0  0  0  0  0  0  0  0  0  0
    9.7528  -18.0607   27.5064 O   0  0  0  0  0  0  0  0  0  0  0  0
  2  1  1  0
  3  2  1  0
  3 13  1  0
  4  3  2  0
  5  6  1  0
  6  8  1  0
  6  7  2  0
  8  9  1  0
  9 10  1  0
 12 11  1  6
 11 10  1  0
 13 12  1  0
 14 15  2  0
 14 12  1  0
 16 14  1  0
 17 16  1  0
 17 25  1  0
 17 18  1  1
 19 18  1  0
 20 19  2  0
 21 20  1  0
 22 23  1  0
 22 21  2  0
 23 24  2  0
 24 19  1  0
 25 26  2  0
 25 27  1  0
M  END
$$$$
