GRF.pdb
     RDKit          3D

 27 27  0  0  1  0  0  0  0  0999 V2000
   -1.5210  -29.0968   25.0695 N   0  0  0  0  0  0  0  0  0  0  0  0
   -1.6693  -29.0028   26.4861 C   0  0  0  0  0  0  0  0  0  0  0  0
   -2.9043  -28.2372   26.8682 C   0  0  0  0  0  0  0  0  0  0  0  0
   -3.1007  -27.1244   26.3675 O   0  0  0  0  0  0  0  0  0  0  0  0
   -9.5766  -32.7575   29.8863 N   0  0  0  0  0  0  0  0  0  0  0  0
   -8.9697  -32.9188   28.6045 C   0  0  0  0  0  0  0  0  0  0  0  0
   -9.2892  -33.9072   27.8317 N   0  0  0  0  0  0  0  0  0  0  0  0
   -7.9962  -31.9995   28.1378 N   0  0  0  0  0  0  0  0  0  0  0  0
   -7.5927  -30.8592   28.9894 C   0  0  0  0  0  0  0  0  0  0  0  0
   -6.5737  -30.0321   28.3005 C   0  0  0  0  0  0  0  0  0  0  0  0
   -6.0205  -28.8559   28.9877 C   0  0  0  0  0  0  0  0  0  0  0  0
   -4.9820  -28.0496   28.2623 C   0  0  2  0  0  0  0  0  0  0  0  0
   -3.8420  -28.7698   27.7897 N   0  0  0  0  0  0  0  0  0  0  0  0
   -4.6629  -26.8200   29.0058 C   0  0  0  0  0  0  0  0  0  0  0  0
   -3.7592  -26.8399   29.8629 O   0  0  0  0  0  0  0  0  0  0  0  0
   -8.8186  -33.9787   26.9035 N   0  0  0  0  0  0  0  0  0  0  0  0
   -5.3742  -25.6319   28.7483 C   0  0  2  0  0  0  0  0  0  0  0  0
   -5.0817  -24.4034   29.4987 C   0  0  0  0  0  0  0  0  0  0  0  0
   -5.0777  -23.2146   28.5585 C   0  0  0  0  0  0  0  0  0  0  0  0
   -4.9452  -21.9189   29.2493 C   0  0  0  0  0  0  0  0  0  0  0  0
   -5.9384  -21.3944   30.0569 C   0  0  0  0  0  0  0  0  0  0  0  0
   -5.7929  -20.2037   30.6895 C   0  0  0  0  0  0  0  0  0  0  0  0
   -4.6217  -19.5006   30.5203 C   0  0  0  0  0  0  0  0  0  0  0  0
   -3.6156  -20.0116   29.7145 C   0  0  0  0  0  0  0  0  0  0  0  0
   -3.7706  -21.2155   29.0789 C   0  0  0  0  0  0  0  0  0  0  0  0
   -6.0617  -24.2785   30.5854 O   0  0  0  0  0  0  0  0  0  0  0  0
   -7.2650  -24.6865   30.4385 O   0  0  0  0  0  0  0  0  0  0  0  0
  2  1  1  0
  3  2  1  0
  3 13  1  0
  4  3  2  0
  5  6  1  0
  6  8  1  0
  6  7  2  0
  8  9  1  0
  9 10  1  0
 12 11  1  1
 11 10  1  0
 13 12  1  0
 14 15  2  0
 14 12  1  0
 16 14  1  0
 17 16  1  0
 17 25  1  0
 17 18  1  6
 19 18  1  0
 20 19  2  0
 21 20  1  0
 22 23  1  0
 22 21  2  0
 23 24  2  0
 24 19  1  0
 25 26  2  0
 25 27  1  0
M  END
$$$$
