GRF.pdb
     RDKit          3D

 27 27  0  0  1  0  0  0  0  0999 V2000
    8.3999  -16.9951   17.2372 N   0  0  0  0  0  0  0  0  0  0  0  0
    9.3393  -16.5739   18.2260 C   0  0  0  0  0  0  0  0  0  0  0  0
    8.8888  -16.9349   19.6132 C   0  0  0  0  0  0  0  0  0  0  0  0
    7.7488  -16.6237   19.9750 O   0  0  0  0  0  0  0  0  0  0  0  0
    8.1015  -22.6240   23.1846 N   0  0  0  0  0  0  0  0  0  0  0  0
    9.0169  -23.1949   22.2500 C   0  0  0  0  0  0  0  0  0  0  0  0
    8.6667  -24.1788   21.4849 N   0  0  0  0  0  0  0  0  0  0  0  0
   10.3408  -22.7007   22.1313 N   0  0  0  0  0  0  0  0  0  0  0  0
   10.7042  -21.4116   22.7592 C   0  0  0  0  0  0  0  0  0  0  0  0
    9.9700  -20.2959   22.1163 C   0  0  0  0  0  0  0  0  0  0  0  0
   10.2049  -18.9208   22.5803 C   0  0  0  0  0  0  0  0  0  0  0  0
    9.4556  -17.8159   21.8932 C   0  0  2  0  0  0  0  0  0  0  0  0
    9.7479  -17.6231   20.5078 N   0  0  0  0  0  0  0  0  0  0  0  0
    9.4837  -16.5855   22.7006 C   0  0  0  0  0  0  0  0  0  0  0  0
   10.4783  -15.8378   22.6426 O   0  0  0  0  0  0  0  0  0  0  0  0
    9.3749  -24.5643   20.8231 N   0  0  0  0  0  0  0  0  0  0  0  0
    8.3940  -16.2581   23.5307 C   0  0  2  0  0  0  0  0  0  0  0  0
    8.4147  -15.0408   24.3526 C   0  0  0  0  0  0  0  0  0  0  0  0
    7.0670  -14.3508   24.2846 C   0  0  0  0  0  0  0  0  0  0  0  0
    6.9614  -13.1776   25.1714 C   0  0  0  0  0  0  0  0  0  0  0  0
    7.5307  -11.9540   24.8674 C   0  0  0  0  0  0  0  0  0  0  0  0
    7.4151  -10.8851   25.6941 C   0  0  0  0  0  0  0  0  0  0  0  0
    6.7101  -11.0266   26.8678 C   0  0  0  0  0  0  0  0  0  0  0  0
    6.1328  -12.2459   27.1881 C   0  0  0  0  0  0  0  0  0  0  0  0
    6.2543  -13.3210   26.3474 C   0  0  0  0  0  0  0  0  0  0  0  0
    8.8077  -15.4095   25.7188 O   0  0  0  0  0  0  0  0  0  0  0  0
    9.3602  -14.5592   26.4984 O   0  0  0  0  0  0  0  0  0  0  0  0
  2  1  1  0
  3  2  1  0
  3 13  1  0
  4  3  2  0
  5  6  1  0
  6  8  1  0
  6  7  2  0
  8  9  1  0
  9 10  1  0
 12 11  1  1
 11 10  1  0
 13 12  1  0
 14 15  2  0
 14 12  1  0
 16 14  1  0
 17 16  1  0
 17 25  1  0
 17 18  1  6
 19 18  1  0
 20 19  2  0
 21 20  1  0
 22 23  1  0
 22 21  2  0
 23 24  2  0
 24 19  1  0
 25 26  2  0
 25 27  1  0
M  END
$$$$
