GRF.pdb
     RDKit          3D

 27 27  0  0  1  0  0  0  0  0999 V2000
    5.9885  -20.8679   23.5557 N   0  0  0  0  0  0  0  0  0  0  0  0
    5.5711  -19.5167   23.7495 C   0  0  0  0  0  0  0  0  0  0  0  0
    6.5426  -18.5410   23.1480 C   0  0  0  0  0  0  0  0  0  0  0  0
    7.5989  -18.9643   22.6657 O   0  0  0  0  0  0  0  0  0  0  0  0
   10.2685  -13.9688   18.6985 N   0  0  0  0  0  0  0  0  0  0  0  0
    9.2970  -12.9505   18.9367 C   0  0  0  0  0  0  0  0  0  0  0  0
    9.6528  -11.7436   19.2418 N   0  0  0  0  0  0  0  0  0  0  0  0
    7.9099  -13.2306   18.8466 N   0  0  0  0  0  0  0  0  0  0  0  0
    7.0813  -13.2478   20.0719 C   0  0  0  0  0  0  0  0  0  0  0  0
    7.5922  -14.2571   21.0298 C   0  0  0  0  0  0  0  0  0  0  0  0
    6.6363  -15.1103   21.7507 C   0  0  0  0  0  0  0  0  0  0  0  0
    7.1936  -16.1676   22.6596 C   0  0  2  0  0  0  0  0  0  0  0  0
    6.2667  -17.1499   23.1261 N   0  0  0  0  0  0  0  0  0  0  0  0
    8.0263  -15.5643   23.7128 C   0  0  0  0  0  0  0  0  0  0  0  0
    8.0812  -14.3240   23.8146 O   0  0  0  0  0  0  0  0  0  0  0  0
    8.9070  -11.0590   19.4934 N   0  0  0  0  0  0  0  0  0  0  0  0
    8.7537  -16.3844   24.5972 C   0  0  1  0  0  0  0  0  0  0  0  0
    9.1236  -15.9039   25.9351 C   0  0  0  0  0  0  0  0  0  0  0  0
    7.8798  -15.4874   26.6945 C   0  0  0  0  0  0  0  0  0  0  0  0
    7.5100  -14.0751   26.4881 C   0  0  0  0  0  0  0  0  0  0  0  0
    6.2237  -13.6749   26.1737 C   0  0  0  0  0  0  0  0  0  0  0  0
    5.9032  -12.3692   25.9954 C   0  0  0  0  0  0  0  0  0  0  0  0
    6.8894  -11.4187   26.1323 C   0  0  0  0  0  0  0  0  0  0  0  0
    8.1841  -11.8023   26.4473 C   0  0  0  0  0  0  0  0  0  0  0  0
    8.4996  -13.1236   26.6259 C   0  0  0  0  0  0  0  0  0  0  0  0
    9.8889  -16.9587   26.6123 O   0  0  0  0  0  0  0  0  0  0  0  0
    9.9400  -18.1451   26.1370 O   0  0  0  0  0  0  0  0  0  0  0  0
  2  1  1  0
  3  2  1  0
  3 13  1  0
  4  3  2  0
  5  6  1  0
  6  8  1  0
  6  7  2  0
  8  9  1  0
  9 10  1  0
 12 11  1  1
 11 10  1  0
 13 12  1  0
 14 15  2  0
 14 12  1  0
 16 14  1  0
 17 16  1  0
 17 25  1  0
 17 18  1  1
 19 18  1  0
 20 19  2  0
 21 20  1  0
 22 23  1  0
 22 21  2  0
 23 24  2  0
 24 19  1  0
 25 26  2  0
 25 27  1  0
M  END
$$$$
