GRF.pdb
     RDKit          3D

 27 27  0  0  1  0  0  0  0  0999 V2000
    6.4542  -21.1574   23.2962 N   0  0  0  0  0  0  0  0  0  0  0  0
    5.9447  -19.8351   23.4678 C   0  0  0  0  0  0  0  0  0  0  0  0
    6.9316  -18.7945   23.0198 C   0  0  0  0  0  0  0  0  0  0  0  0
    8.0873  -19.1390   22.7491 O   0  0  0  0  0  0  0  0  0  0  0  0
    7.5284  -14.3448   18.1757 N   0  0  0  0  0  0  0  0  0  0  0  0
    8.4265  -13.2775   18.4785 C   0  0  0  0  0  0  0  0  0  0  0  0
    9.3903  -12.9642   17.6728 N   0  0  0  0  0  0  0  0  0  0  0  0
    8.2902  -12.5268   19.6737 N   0  0  0  0  0  0  0  0  0  0  0  0
    7.3355  -12.9667   20.7144 C   0  0  0  0  0  0  0  0  0  0  0  0
    7.8566  -14.1576   21.4267 C   0  0  0  0  0  0  0  0  0  0  0  0
    6.9159  -15.1967   21.8704 C   0  0  0  0  0  0  0  0  0  0  0  0
    7.4800  -16.3825   22.5984 C   0  0  2  0  0  0  0  0  0  0  0  0
    6.5585  -17.4309   22.9042 N   0  0  0  0  0  0  0  0  0  0  0  0
    8.3127  -15.9508   23.7328 C   0  0  0  0  0  0  0  0  0  0  0  0
    9.2932  -15.2110   23.5257 O   0  0  0  0  0  0  0  0  0  0  0  0
    9.9603  -12.1185   17.8921 N   0  0  0  0  0  0  0  0  0  0  0  0
    8.0013  -16.3713   25.0404 C   0  0  1  0  0  0  0  0  0  0  0  0
    8.8607  -16.0022   26.1731 C   0  0  0  0  0  0  0  0  0  0  0  0
    8.0429  -15.2822   27.2266 C   0  0  0  0  0  0  0  0  0  0  0  0
    7.6208  -13.9292   26.8203 C   0  0  0  0  0  0  0  0  0  0  0  0
    6.3313  -13.6362   26.4140 C   0  0  0  0  0  0  0  0  0  0  0  0
    5.9619  -12.3826   26.0515 C   0  0  0  0  0  0  0  0  0  0  0  0
    6.9003  -11.3764   26.0906 C   0  0  0  0  0  0  0  0  0  0  0  0
    8.1974  -11.6524   26.4955 C   0  0  0  0  0  0  0  0  0  0  0  0
    8.5625  -12.9217   26.8602 C   0  0  0  0  0  0  0  0  0  0  0  0
    9.5122  -17.2181   26.6773 O   0  0  0  0  0  0  0  0  0  0  0  0
    9.2316  -18.3671   26.1903 O   0  0  0  0  0  0  0  0  0  0  0  0
  2  1  1  0
  3  2  1  0
  3 13  1  0
  4  3  2  0
  5  6  1  0
  6  8  1  0
  6  7  2  0
  8  9  1  0
  9 10  1  0
 12 11  1  1
 11 10  1  0
 13 12  1  0
 14 15  2  0
 14 12  1  0
 16 14  1  0
 17 16  1  0
 17 25  1  0
 17 18  1  1
 19 18  1  0
 20 19  2  0
 21 20  1  0
 22 23  1  0
 22 21  2  0
 23 24  2  0
 24 19  1  0
 25 26  2  0
 25 27  1  0
M  END
$$$$
