GRF.pdb
     RDKit          3D

 27 27  0  0  1  0  0  0  0  0999 V2000
    5.1772  -20.0164   22.1654 N   0  0  0  0  0  0  0  0  0  0  0  0
    5.0531  -18.6361   22.5073 C   0  0  0  0  0  0  0  0  0  0  0  0
    6.3828  -17.9367   22.4960 C   0  0  0  0  0  0  0  0  0  0  0  0
    7.3913  -18.5571   22.8504 O   0  0  0  0  0  0  0  0  0  0  0  0
    8.6305  -13.7040   15.7800 N   0  0  0  0  0  0  0  0  0  0  0  0
    8.3906  -13.4090   17.1558 C   0  0  0  0  0  0  0  0  0  0  0  0
    9.0671  -12.4935   17.7725 N   0  0  0  0  0  0  0  0  0  0  0  0
    7.4021  -14.1118   17.8906 N   0  0  0  0  0  0  0  0  0  0  0  0
    7.1232  -13.7372   19.2942 C   0  0  0  0  0  0  0  0  0  0  0  0
    7.9691  -14.5273   20.2201 C   0  0  0  0  0  0  0  0  0  0  0  0
    7.7121  -14.4541   21.6658 C   0  0  0  0  0  0  0  0  0  0  0  0
    7.6065  -15.7475   22.4212 C   0  0  2  0  0  0  0  0  0  0  0  0
    6.4966  -16.5832   22.0873 N   0  0  0  0  0  0  0  0  0  0  0  0
    7.7920  -15.5256   23.8644 C   0  0  0  0  0  0  0  0  0  0  0  0
    6.7997  -15.2931   24.5806 O   0  0  0  0  0  0  0  0  0  0  0  0
    8.8961  -12.3577   18.7925 N   0  0  0  0  0  0  0  0  0  0  0  0
    9.0814  -15.5767   24.4288 C   0  0  1  0  0  0  0  0  0  0  0  0
    9.2661  -15.5366   25.8855 C   0  0  0  0  0  0  0  0  0  0  0  0
    7.9184  -15.5886   26.5769 C   0  0  0  0  0  0  0  0  0  0  0  0
    7.2762  -14.2685   26.7139 C   0  0  0  0  0  0  0  0  0  0  0  0
    5.9273  -14.0633   26.4858 C   0  0  0  0  0  0  0  0  0  0  0  0
    5.3551  -12.8417   26.6250 C   0  0  0  0  0  0  0  0  0  0  0  0
    6.1429  -11.7786   27.0043 C   0  0  0  0  0  0  0  0  0  0  0  0
    7.4968  -11.9665   27.2372 C   0  0  0  0  0  0  0  0  0  0  0  0
    8.0672  -13.2041   27.0944 C   0  0  0  0  0  0  0  0  0  0  0  0
   10.1573  -16.6383   26.2712 O   0  0  0  0  0  0  0  0  0  0  0  0
   10.5791  -17.4796   25.4050 O   0  0  0  0  0  0  0  0  0  0  0  0
  2  1  1  0
  3  2  1  0
  3 13  1  0
  4  3  2  0
  5  6  1  0
  6  8  1  0
  6  7  2  0
  8  9  1  0
  9 10  1  0
 12 11  1  6
 11 10  1  0
 13 12  1  0
 14 15  2  0
 14 12  1  0
 16 14  1  0
 17 16  1  0
 17 25  1  0
 17 18  1  1
 19 18  1  0
 20 19  2  0
 21 20  1  0
 22 23  1  0
 22 21  2  0
 23 24  2  0
 24 19  1  0
 25 26  2  0
 25 27  1  0
M  END
$$$$
