GRF.pdb
     RDKit          3D

 27 27  0  0  1  0  0  0  0  0999 V2000
    5.8787  -19.6791   21.6146 N   0  0  0  0  0  0  0  0  0  0  0  0
    5.7995  -18.6873   22.6381 C   0  0  0  0  0  0  0  0  0  0  0  0
    6.8496  -17.6260   22.4691 C   0  0  0  0  0  0  0  0  0  0  0  0
    8.0419  -17.9427   22.5442 O   0  0  0  0  0  0  0  0  0  0  0  0
    8.2981  -15.5370   17.7802 N   0  0  0  0  0  0  0  0  0  0  0  0
    8.3512  -14.2237   17.2235 C   0  0  0  0  0  0  0  0  0  0  0  0
    9.0635  -13.9699   16.1727 N   0  0  0  0  0  0  0  0  0  0  0  0
    7.6240  -13.1548   17.8062 N   0  0  0  0  0  0  0  0  0  0  0  0
    6.7834  -13.4002   18.9985 C   0  0  0  0  0  0  0  0  0  0  0  0
    7.6309  -13.6224   20.1941 C   0  0  0  0  0  0  0  0  0  0  0  0
    6.9909  -13.9555   21.4751 C   0  0  0  0  0  0  0  0  0  0  0  0
    7.4411  -15.2055   22.1748 C   0  0  2  0  0  0  0  0  0  0  0  0
    6.4943  -16.2744   22.2263 N   0  0  0  0  0  0  0  0  0  0  0  0
    8.0696  -14.8832   23.4662 C   0  0  0  0  0  0  0  0  0  0  0  0
    7.8690  -13.7678   23.9832 O   0  0  0  0  0  0  0  0  0  0  0  0
    9.1230  -12.9813   15.8450 N   0  0  0  0  0  0  0  0  0  0  0  0
    8.8901  -15.8295   24.1103 C   0  0  1  0  0  0  0  0  0  0  0  0
    9.3403  -15.6169   25.4923 C   0  0  0  0  0  0  0  0  0  0  0  0
    8.1418  -15.4306   26.4011 C   0  0  0  0  0  0  0  0  0  0  0  0
    7.6947  -14.0295   26.5051 C   0  0  0  0  0  0  0  0  0  0  0  0
    8.5708  -12.9740   26.6838 C   0  0  0  0  0  0  0  0  0  0  0  0
    8.1388  -11.6912   26.7694 C   0  0  0  0  0  0  0  0  0  0  0  0
    6.7893  -11.4373   26.6750 C   0  0  0  0  0  0  0  0  0  0  0  0
    5.8971  -12.4834   26.4955 C   0  0  0  0  0  0  0  0  0  0  0  0
    6.3417  -13.7766   26.4100 C   0  0  0  0  0  0  0  0  0  0  0  0
   10.1921  -16.7479   25.8825 O   0  0  0  0  0  0  0  0  0  0  0  0
   10.7568  -16.7833   27.0296 O   0  0  0  0  0  0  0  0  0  0  0  0
  2  1  1  0
  3  2  1  0
  3 13  1  0
  4  3  2  0
  5  6  1  0
  6  8  1  0
  6  7  2  0
  8  9  1  0
  9 10  1  0
 12 11  1  1
 11 10  1  0
 13 12  1  0
 14 15  2  0
 14 12  1  0
 16 14  1  0
 17 16  1  0
 17 25  1  0
 17 18  1  1
 19 18  1  0
 20 19  2  0
 21 20  1  0
 22 23  1  0
 22 21  2  0
 23 24  2  0
 24 19  1  0
 25 26  2  0
 25 27  1  0
M  END
$$$$
