GRF.pdb
     RDKit          3D

 27 27  0  0  1  0  0  0  0  0999 V2000
    8.4332  -12.5746   18.1416 N   0  0  0  0  0  0  0  0  0  0  0  0
    8.4103  -13.9634   18.4705 C   0  0  0  0  0  0  0  0  0  0  0  0
    8.0053  -14.1918   19.8993 C   0  0  0  0  0  0  0  0  0  0  0  0
    8.1769  -13.2879   20.7245 O   0  0  0  0  0  0  0  0  0  0  0  0
    5.2739  -19.6204   24.2476 N   0  0  0  0  0  0  0  0  0  0  0  0
    6.1531  -20.4650   23.5053 C   0  0  0  0  0  0  0  0  0  0  0  0
    6.8887  -21.3512   24.0967 N   0  0  0  0  0  0  0  0  0  0  0  0
    6.2481  -20.3584   22.0945 N   0  0  0  0  0  0  0  0  0  0  0  0
    5.5190  -19.2833   21.3868 C   0  0  0  0  0  0  0  0  0  0  0  0
    6.4019  -18.1124   21.1713 C   0  0  0  0  0  0  0  0  0  0  0  0
    6.0912  -16.8453   21.8492 C   0  0  0  0  0  0  0  0  0  0  0  0
    7.0445  -15.7010   21.6585 C   0  0  2  0  0  0  0  0  0  0  0  0
    7.4328  -15.4222   20.3119 N   0  0  0  0  0  0  0  0  0  0  0  0
    8.1630  -15.7892   22.6112 C   0  0  0  0  0  0  0  0  0  0  0  0
    9.2059  -16.3831   22.2775 O   0  0  0  0  0  0  0  0  0  0  0  0
    7.4835  -21.9716   23.5056 N   0  0  0  0  0  0  0  0  0  0  0  0
    8.0532  -15.2058   23.8884 C   0  0  2  0  0  0  0  0  0  0  0  0
    9.1809  -15.2389   24.8291 C   0  0  0  0  0  0  0  0  0  0  0  0
    9.4327  -13.8495   25.3799 C   0  0  0  0  0  0  0  0  0  0  0  0
    8.2094  -13.1708   25.8454 C   0  0  0  0  0  0  0  0  0  0  0  0
    7.3122  -12.5670   24.9828 C   0  0  0  0  0  0  0  0  0  0  0  0
    6.1886  -11.9544   25.4317 C   0  0  0  0  0  0  0  0  0  0  0  0
    5.9380  -11.9355   26.7850 C   0  0  0  0  0  0  0  0  0  0  0  0
    6.8266  -12.5360   27.6639 C   0  0  0  0  0  0  0  0  0  0  0  0
    7.9595  -13.1529   27.2022 C   0  0  0  0  0  0  0  0  0  0  0  0
    8.8869  -16.2303   25.8720 O   0  0  0  0  0  0  0  0  0  0  0  0
    7.7469  -16.8072   25.9310 O   0  0  0  0  0  0  0  0  0  0  0  0
  2  1  1  0
  3  2  1  0
  3 13  1  0
  4  3  2  0
  5  6  1  0
  6  8  1  0
  6  7  2  0
  8  9  1  0
  9 10  1  0
 12 11  1  6
 11 10  1  0
 13 12  1  0
 14 15  2  0
 14 12  1  0
 16 14  1  0
 17 16  1  0
 17 25  1  0
 17 18  1  6
 19 18  1  0
 20 19  2  0
 21 20  1  0
 22 23  1  0
 22 21  2  0
 23 24  2  0
 24 19  1  0
 25 26  2  0
 25 27  1  0
M  END
$$$$
