IMD.pdb
     RDKit          3D

 25 24  0  0  1  0  0  0  0  0999 V2000
   30.9968  -21.7583  -19.5511 C   0  0  0  0  0  0  0  0  0  0  0  0
   31.2659  -20.7581  -18.4872 C   0  0  0  0  0  0  0  0  0  0  0  0
   30.0403  -20.1745  -17.8568 C   0  0  2  0  0  0  0  0  0  0  0  0
   29.2443  -21.2930  -17.1744 C   0  0  0  0  0  0  0  0  0  0  0  0
   29.1430  -19.3835  -18.7620 C   0  0  2  0  0  0  0  0  0  0  0  0
   29.9587  -18.2071  -19.1790 N   0  0  0  0  0  0  0  0  0  0  0  0
   27.8752  -18.9307  -18.2081 C   0  0  0  0  0  0  0  0  0  0  0  0
   27.8340  -18.1208  -17.2033 O   0  0  0  0  0  0  0  0  0  0  0  0
   23.7399  -16.3028  -21.2461 C   0  0  0  0  0  0  0  0  0  0  0  0
   22.4839  -16.6519  -19.9848 S   0  0  0  0  0  0  0  0  0  0  0  0
   23.3405  -17.4903  -18.5866 C   0  0  0  0  0  0  0  0  0  0  0  0
   24.6244  -18.0532  -19.1023 C   0  0  0  0  0  0  0  0  0  0  0  0
   25.3702  -18.8200  -18.0163 C   0  0  2  0  0  0  0  0  0  0  0  0
   26.5998  -19.3057  -18.6889 N   0  0  0  0  0  0  0  0  0  0  0  0
   24.6053  -19.8704  -17.3755 C   0  0  0  0  0  0  0  0  0  0  0  0
   24.4795  -21.0131  -17.8814 O   0  0  0  0  0  0  0  0  0  0  0  0
   23.9498  -19.6711  -16.1308 N   0  0  0  0  0  0  0  0  0  0  0  0
   23.2216  -20.7690  -15.4762 C   0  0  1  0  0  0  0  0  0  0  0  0
   22.8001  -20.3231  -14.1038 C   0  0  0  0  0  0  0  0  0  0  0  0
   21.6380  -19.4346  -14.0718 C   0  0  0  0  0  0  0  0  0  0  0  0
   21.1198  -19.0333  -15.1437 O   0  0  0  0  0  0  0  0  0  0  0  0
   22.1031  -21.2346  -16.3055 C   0  0  0  0  0  0  0  0  0  0  0  0
   21.6394  -20.4185  -17.3254 O   0  0  0  0  0  0  0  0  0  0  0  0
   21.0731  -19.0082  -12.8818 O   0  0  0  0  0  0  0  0  0  0  0  0
   21.5443  -22.3357  -16.1376 O   0  0  0  0  0  0  0  0  0  0  0  0
  1  2  1  0
  2  3  1  0
  3  4  1  6
  3  5  1  0
  5  7  1  0
  5  6  1  1
  7  8  2  0
  9 10  1  0
 10 11  1  0
 11 12  1  0
 13 12  1  6
 14 13  1  0
 14  7  1  0
 15 13  1  0
 16 15  2  0
 17 15  1  0
 18 19  1  1
 18 17  1  0
 19 20  1  0
 20 21  2  0
 20 24  1  0
 22 23  1  0
 22 18  1  0
 25 22  2  0
M  END
$$$$
