IMD.pdb
     RDKit          3D

 25 24  0  0  1  0  0  0  0  0999 V2000
   15.8637  -14.2858  -17.0584 C   0  0  0  0  0  0  0  0  0  0  0  0
   16.4229  -12.9863  -17.5092 C   0  0  0  0  0  0  0  0  0  0  0  0
   17.5387  -12.4609  -16.6612 C   0  0  2  0  0  0  0  0  0  0  0  0
   17.0737  -12.3954  -15.2019 C   0  0  0  0  0  0  0  0  0  0  0  0
   18.1202  -11.1416  -17.0755 C   0  0  2  0  0  0  0  0  0  0  0  0
   18.6270  -11.3631  -18.4601 N   0  0  0  0  0  0  0  0  0  0  0  0
   19.1835  -10.5958  -16.2445 C   0  0  0  0  0  0  0  0  0  0  0  0
   18.9917  -10.3391  -14.9937 O   0  0  0  0  0  0  0  0  0  0  0  0
   26.7518  -10.0533  -14.6019 C   0  0  0  0  0  0  0  0  0  0  0  0
   25.4361  -10.7109  -15.6634 S   0  0  0  0  0  0  0  0  0  0  0  0
   23.8964   -9.7892  -15.2496 C   0  0  0  0  0  0  0  0  0  0  0  0
   22.7900  -10.3367  -16.0907 C   0  0  0  0  0  0  0  0  0  0  0  0
   21.4661   -9.6456  -15.7849 C   0  0  2  0  0  0  0  0  0  0  0  0
   20.4922  -10.3017  -16.6911 N   0  0  0  0  0  0  0  0  0  0  0  0
   21.4890   -8.2020  -15.9042 C   0  0  0  0  0  0  0  0  0  0  0  0
   21.7971   -7.6218  -16.9748 O   0  0  0  0  0  0  0  0  0  0  0  0
   21.1621   -7.3519  -14.8137 N   0  0  0  0  0  0  0  0  0  0  0  0
   21.1926   -5.8885  -14.9610 C   0  0  1  0  0  0  0  0  0  0  0  0
   19.8080   -5.3478  -14.7362 C   0  0  0  0  0  0  0  0  0  0  0  0
   19.7024   -3.8887  -14.7602 C   0  0  0  0  0  0  0  0  0  0  0  0
   20.6466   -3.1942  -15.2126 O   0  0  0  0  0  0  0  0  0  0  0  0
   22.2021   -5.2861  -14.0814 C   0  0  0  0  0  0  0  0  0  0  0  0
   22.4639   -3.9294  -14.1919 O   0  0  0  0  0  0  0  0  0  0  0  0
   18.5789   -3.2268  -14.2945 O   0  0  0  0  0  0  0  0  0  0  0  0
   22.8412   -5.9380  -13.2332 O   0  0  0  0  0  0  0  0  0  0  0  0
  1  2  1  0
  2  3  1  0
  3  4  1  1
  3  5  1  0
  5  7  1  0
  5  6  1  6
  7  8  2  0
  9 10  1  0
 10 11  1  0
 11 12  1  0
 13 12  1  6
 14 13  1  0
 14  7  1  0
 15 13  1  0
 16 15  2  0
 17 15  1  0
 18 19  1  1
 18 17  1  0
 19 20  1  0
 20 21  2  0
 20 24  1  0
 22 23  1  0
 22 18  1  0
 25 22  2  0
M  END
$$$$
