IMD.pdb
     RDKit          3D

 25 24  0  0  1  0  0  0  0  0999 V2000
   21.6144  -17.8600  -18.4491 C   0  0  0  0  0  0  0  0  0  0  0  0
   22.9905  -17.5389  -17.9932 C   0  0  0  0  0  0  0  0  0  0  0  0
   23.1333  -16.2004  -17.3390 C   0  0  2  0  0  0  0  0  0  0  0  0
   22.4618  -15.1375  -18.2162 C   0  0  0  0  0  0  0  0  0  0  0  0
   24.5310  -15.7766  -16.9967 C   0  0  2  0  0  0  0  0  0  0  0  0
   25.0525  -16.8546  -16.1085 N   0  0  0  0  0  0  0  0  0  0  0  0
   24.6913  -14.4840  -16.3468 C   0  0  0  0  0  0  0  0  0  0  0  0
   24.2537  -14.2770  -15.1497 O   0  0  0  0  0  0  0  0  0  0  0  0
   29.1551  -10.5714  -17.8305 C   0  0  0  0  0  0  0  0  0  0  0  0
   28.6286   -9.5559  -16.4227 S   0  0  0  0  0  0  0  0  0  0  0  0
   26.9746  -10.1737  -15.8992 C   0  0  0  0  0  0  0  0  0  0  0  0
   26.7654  -11.5163  -16.5196 C   0  0  0  0  0  0  0  0  0  0  0  0
   25.3852  -12.0721  -16.1881 C   0  0  2  0  0  0  0  0  0  0  0  0
   25.3211  -13.3580  -16.9246 N   0  0  0  0  0  0  0  0  0  0  0  0
   24.2815  -11.1800  -16.4799 C   0  0  0  0  0  0  0  0  0  0  0  0
   23.8215  -11.0388  -17.6400 O   0  0  0  0  0  0  0  0  0  0  0  0
   23.6497  -10.4091  -15.4674 N   0  0  0  0  0  0  0  0  0  0  0  0
   22.5948   -9.4403  -15.8033 C   0  0  1  0  0  0  0  0  0  0  0  0
   21.8946   -9.0256  -14.5393 C   0  0  0  0  0  0  0  0  0  0  0  0
   20.8507   -8.0152  -14.7134 C   0  0  0  0  0  0  0  0  0  0  0  0
   20.5790   -7.2200  -13.7795 O   0  0  0  0  0  0  0  0  0  0  0  0
   23.1351   -8.3087  -16.5670 C   0  0  0  0  0  0  0  0  0  0  0  0
   24.3485   -7.7593  -16.1835 O   0  0  0  0  0  0  0  0  0  0  0  0
   20.1338   -7.8968  -15.8921 O   0  0  0  0  0  0  0  0  0  0  0  0
   22.5532   -7.8126  -17.5509 O   0  0  0  0  0  0  0  0  0  0  0  0
  1  2  1  0
  2  3  1  0
  3  4  1  6
  3  5  1  0
  5  7  1  0
  5  6  1  1
  7  8  2  0
  9 10  1  0
 10 11  1  0
 11 12  1  0
 13 12  1  6
 14 13  1  0
 14  7  1  0
 15 13  1  0
 16 15  2  0
 17 15  1  0
 18 19  1  1
 18 17  1  0
 19 20  1  0
 20 21  2  0
 20 24  1  0
 22 23  1  0
 22 18  1  0
 25 22  2  0
M  END
$$$$
