IMD.pdb
     RDKit          3D

 25 24  0  0  1  0  0  0  0  0999 V2000
   21.7760  -19.6608  -16.4334 C   0  0  0  0  0  0  0  0  0  0  0  0
   23.1373  -19.5606  -15.8489 C   0  0  0  0  0  0  0  0  0  0  0  0
   23.3271  -20.3276  -14.5778 C   0  0  2  0  0  0  0  0  0  0  0  0
   23.4751  -21.8176  -14.9065 C   0  0  0  0  0  0  0  0  0  0  0  0
   22.2757  -20.1350  -13.5253 C   0  0  2  0  0  0  0  0  0  0  0  0
   22.2386  -18.6642  -13.2840 N   0  0  0  0  0  0  0  0  0  0  0  0
   22.4652  -20.8353  -12.2632 C   0  0  0  0  0  0  0  0  0  0  0  0
   22.6252  -22.1160  -12.2249 O   0  0  0  0  0  0  0  0  0  0  0  0
   25.5457  -19.7596   -6.8050 C   0  0  0  0  0  0  0  0  0  0  0  0
   26.2371  -19.8834   -8.4774 S   0  0  0  0  0  0  0  0  0  0  0  0
   24.9636  -20.6973   -9.5298 C   0  0  0  0  0  0  0  0  0  0  0  0
   23.6263  -20.4480   -8.9127 C   0  0  0  0  0  0  0  0  0  0  0  0
   22.5056  -21.0432   -9.7574 C   0  0  2  0  0  0  0  0  0  0  0  0
   22.4992  -20.2197  -10.9911 N   0  0  0  0  0  0  0  0  0  0  0  0
   21.2167  -21.1137   -9.0995 C   0  0  0  0  0  0  0  0  0  0  0  0
   20.3221  -20.2513   -9.2821 O   0  0  0  0  0  0  0  0  0  0  0  0
   20.8851  -22.1672   -8.2057 N   0  0  0  0  0  0  0  0  0  0  0  0
   19.5605  -22.8057   -8.2490 C   0  0  1  0  0  0  0  0  0  0  0  0
   19.2772  -23.2438   -9.6589 C   0  0  0  0  0  0  0  0  0  0  0  0
   17.9765  -22.8295  -10.1857 C   0  0  0  0  0  0  0  0  0  0  0  0
   17.2031  -22.1324   -9.4827 O   0  0  0  0  0  0  0  0  0  0  0  0
   19.4631  -23.8961   -7.2705 C   0  0  0  0  0  0  0  0  0  0  0  0
   20.6057  -24.6114   -6.9478 O   0  0  0  0  0  0  0  0  0  0  0  0
   17.5536  -23.1822  -11.4561 O   0  0  0  0  0  0  0  0  0  0  0  0
   18.3963  -24.2141   -6.7106 O   0  0  0  0  0  0  0  0  0  0  0  0
  1  2  1  0
  2  3  1  0
  3  4  1  6
  3  5  1  0
  5  7  1  0
  5  6  1  1
  7  8  2  0
  9 10  1  0
 10 11  1  0
 11 12  1  0
 13 12  1  1
 14 13  1  0
 14  7  1  0
 15 13  1  0
 16 15  2  0
 17 15  1  0
 18 19  1  6
 18 17  1  0
 19 20  1  0
 20 21  2  0
 20 24  1  0
 22 23  1  0
 22 18  1  0
 25 22  2  0
M  END
$$$$
