IMD.pdb
     RDKit          3D

 25 24  0  0  1  0  0  0  0  0999 V2000
   18.6181  -15.2712  -17.0636 C   0  0  0  0  0  0  0  0  0  0  0  0
   19.1714  -14.0173  -17.6348 C   0  0  0  0  0  0  0  0  0  0  0  0
   19.8854  -13.1462  -16.6493 C   0  0  2  0  0  0  0  0  0  0  0  0
   18.9614  -12.8737  -15.4567 C   0  0  0  0  0  0  0  0  0  0  0  0
   20.4322  -11.8548  -17.1817 C   0  0  2  0  0  0  0  0  0  0  0  0
   21.3081  -12.2497  -18.3218 N   0  0  0  0  0  0  0  0  0  0  0  0
   21.1804  -11.0191  -16.2539 C   0  0  0  0  0  0  0  0  0  0  0  0
   20.6706  -10.6455  -15.1279 O   0  0  0  0  0  0  0  0  0  0  0  0
   27.3163  -12.9717  -15.4609 C   0  0  0  0  0  0  0  0  0  0  0  0
   26.8268  -11.2646  -15.8305 S   0  0  0  0  0  0  0  0  0  0  0  0
   25.0583  -11.0925  -15.3463 C   0  0  0  0  0  0  0  0  0  0  0  0
   24.6024   -9.7258  -15.7402 C   0  0  0  0  0  0  0  0  0  0  0  0
   23.1005   -9.5617  -15.5375 C   0  0  2  0  0  0  0  0  0  0  0  0
   22.4952  -10.5457  -16.4678 N   0  0  0  0  0  0  0  0  0  0  0  0
   22.6041   -8.2123  -15.7158 C   0  0  0  0  0  0  0  0  0  0  0  0
   22.2886   -7.7569  -16.8430 O   0  0  0  0  0  0  0  0  0  0  0  0
   22.4424   -7.3197  -14.6223 N   0  0  0  0  0  0  0  0  0  0  0  0
   21.8836   -5.9736  -14.8222 C   0  0  1  0  0  0  0  0  0  0  0  0
   20.5418   -6.0978  -15.4885 C   0  0  0  0  0  0  0  0  0  0  0  0
   19.8137   -4.8393  -15.6523 C   0  0  0  0  0  0  0  0  0  0  0  0
   20.3968   -3.8279  -16.1167 O   0  0  0  0  0  0  0  0  0  0  0  0
   21.8394   -5.2231  -13.5610 C   0  0  0  0  0  0  0  0  0  0  0  0
   21.6400   -3.8521  -13.6033 O   0  0  0  0  0  0  0  0  0  0  0  0
   18.4782   -4.7143  -15.3089 O   0  0  0  0  0  0  0  0  0  0  0  0
   21.9734   -5.7606  -12.4448 O   0  0  0  0  0  0  0  0  0  0  0  0
  1  2  1  0
  2  3  1  0
  3  4  1  1
  3  5  1  0
  5  7  1  0
  5  6  1  6
  7  8  2  0
  9 10  1  0
 10 11  1  0
 11 12  1  0
 13 12  1  6
 14 13  1  0
 14  7  1  0
 15 13  1  0
 16 15  2  0
 17 15  1  0
 18 19  1  1
 18 17  1  0
 19 20  1  0
 20 21  2  0
 20 24  1  0
 22 23  1  0
 22 18  1  0
 25 22  2  0
M  END
$$$$
