IMD.pdb
     RDKit          3D

 25 24  0  0  1  0  0  0  0  0999 V2000
   18.6050  -24.0721  -10.9096 C   0  0  0  0  0  0  0  0  0  0  0  0
   17.6211  -24.7945  -10.0642 C   0  0  0  0  0  0  0  0  0  0  0  0
   17.9935  -24.8888   -8.6177 C   0  0  2  0  0  0  0  0  0  0  0  0
   19.3616  -25.5693   -8.4937 C   0  0  0  0  0  0  0  0  0  0  0  0
   16.9994  -25.5653   -7.7209 C   0  0  2  0  0  0  0  0  0  0  0  0
   15.6678  -25.0974   -8.2016 N   0  0  0  0  0  0  0  0  0  0  0  0
   17.1204  -25.3181   -6.2915 C   0  0  0  0  0  0  0  0  0  0  0  0
   18.2555  -25.4291   -5.6860 O   0  0  0  0  0  0  0  0  0  0  0  0
   14.0289  -21.2682   -2.3128 C   0  0  0  0  0  0  0  0  0  0  0  0
   13.7503  -22.8465   -1.4632 S   0  0  0  0  0  0  0  0  0  0  0  0
   15.1148  -23.9776   -1.9632 C   0  0  0  0  0  0  0  0  0  0  0  0
   15.0212  -24.1905   -3.4387 C   0  0  0  0  0  0  0  0  0  0  0  0
   16.2317  -24.9510   -3.9678 C   0  0  2  0  0  0  0  0  0  0  0  0
   16.0567  -24.9399   -5.4407 N   0  0  0  0  0  0  0  0  0  0  0  0
   16.4090  -26.2780   -3.4140 C   0  0  0  0  0  0  0  0  0  0  0  0
   16.3004  -27.3165   -4.1121 O   0  0  0  0  0  0  0  0  0  0  0  0
   16.7189  -26.4856   -2.0431 N   0  0  0  0  0  0  0  0  0  0  0  0
   16.9478  -27.8402   -1.5170 C   0  0  1  0  0  0  0  0  0  0  0  0
   18.0339  -28.4977   -2.3219 C   0  0  0  0  0  0  0  0  0  0  0  0
   18.4615  -29.8077   -1.8301 C   0  0  0  0  0  0  0  0  0  0  0  0
   17.7338  -30.4520   -1.0339 O   0  0  0  0  0  0  0  0  0  0  0  0
   17.2282  -27.8112   -0.0761 C   0  0  0  0  0  0  0  0  0  0  0  0
   18.3467  -27.1284    0.3757 O   0  0  0  0  0  0  0  0  0  0  0  0
   19.6624  -30.3796   -2.2148 O   0  0  0  0  0  0  0  0  0  0  0  0
   16.5056  -28.3741    0.7688 O   0  0  0  0  0  0  0  0  0  0  0  0
  1  2  1  0
  2  3  1  0
  3  4  1  6
  3  5  1  0
  5  7  1  0
  5  6  1  6
  7  8  2  0
  9 10  1  0
 10 11  1  0
 11 12  1  0
 13 12  1  1
 14 13  1  0
 14  7  1  0
 15 13  1  0
 16 15  2  0
 17 15  1  0
 18 19  1  6
 18 17  1  0
 19 20  1  0
 20 21  2  0
 20 24  1  0
 22 23  1  0
 22 18  1  0
 25 22  2  0
M  END
$$$$
