IMD.pdb
     RDKit          3D

 25 24  0  0  1  0  0  0  0  0999 V2000
   26.8803  -16.2387  -15.6994 C   0  0  0  0  0  0  0  0  0  0  0  0
   25.5210  -15.6440  -15.7557 C   0  0  0  0  0  0  0  0  0  0  0  0
   25.4807  -14.2266  -16.2347 C   0  0  2  0  0  0  0  0  0  0  0  0
   26.3733  -13.3654  -15.3336 C   0  0  0  0  0  0  0  0  0  0  0  0
   24.1200  -13.6067  -16.3543 C   0  0  2  0  0  0  0  0  0  0  0  0
   23.3473  -14.5409  -17.2221 N   0  0  0  0  0  0  0  0  0  0  0  0
   24.0513  -12.2589  -16.9000 C   0  0  0  0  0  0  0  0  0  0  0  0
   24.4781  -11.2416  -16.2289 O   0  0  0  0  0  0  0  0  0  0  0  0
   23.9588   -9.9692  -23.1996 C   0  0  0  0  0  0  0  0  0  0  0  0
   22.4494   -9.3560  -22.4020 S   0  0  0  0  0  0  0  0  0  0  0  0
   22.8180   -9.1869  -20.6056 C   0  0  0  0  0  0  0  0  0  0  0  0
   22.9999  -10.5575  -20.0404 C   0  0  0  0  0  0  0  0  0  0  0  0
   23.3365  -10.5051  -18.5545 C   0  0  2  0  0  0  0  0  0  0  0  0
   23.5366  -11.9246  -18.1735 N   0  0  0  0  0  0  0  0  0  0  0  0
   22.3639   -9.8147  -17.7321 C   0  0  0  0  0  0  0  0  0  0  0  0
   21.2620  -10.3305  -17.4199 O   0  0  0  0  0  0  0  0  0  0  0  0
   22.5989   -8.5080  -17.2262 N   0  0  0  0  0  0  0  0  0  0  0  0
   21.5636   -7.7969  -16.4602 C   0  0  1  0  0  0  0  0  0  0  0  0
   21.6717   -8.1913  -15.0135 C   0  0  0  0  0  0  0  0  0  0  0  0
   20.7402   -7.5086  -14.1151 C   0  0  0  0  0  0  0  0  0  0  0  0
   19.7435   -6.9018  -14.5807 O   0  0  0  0  0  0  0  0  0  0  0  0
   21.6443   -6.3468  -16.6752 C   0  0  0  0  0  0  0  0  0  0  0  0
   20.4716   -5.6091  -16.7185 O   0  0  0  0  0  0  0  0  0  0  0  0
   20.9160   -7.5039  -12.7417 O   0  0  0  0  0  0  0  0  0  0  0  0
   22.7228   -5.7400  -16.8222 O   0  0  0  0  0  0  0  0  0  0  0  0
  1  2  1  0
  2  3  1  0
  3  4  1  1
  3  5  1  0
  5  7  1  0
  5  6  1  6
  7  8  2  0
  9 10  1  0
 10 11  1  0
 11 12  1  0
 13 12  1  6
 14 13  1  0
 14  7  1  0
 15 13  1  0
 16 15  2  0
 17 15  1  0
 18 19  1  1
 18 17  1  0
 19 20  1  0
 20 21  2  0
 20 24  1  0
 22 23  1  0
 22 18  1  0
 25 22  2  0
M  END
$$$$
