IMD.pdb
     RDKit          3D

 25 24  0  0  1  0  0  0  0  0999 V2000
   27.4879  -17.7687  -16.7482 C   0  0  0  0  0  0  0  0  0  0  0  0
   28.1056  -18.7471  -15.8177 C   0  0  0  0  0  0  0  0  0  0  0  0
   27.2018  -19.2220  -14.7234 C   0  0  2  0  0  0  0  0  0  0  0  0
   26.6665  -18.0104  -13.9516 C   0  0  0  0  0  0  0  0  0  0  0  0
   27.7857  -20.2222  -13.7699 C   0  0  2  0  0  0  0  0  0  0  0  0
   28.1236  -21.4046  -14.6130 N   0  0  0  0  0  0  0  0  0  0  0  0
   26.9508  -20.6382  -12.6523 C   0  0  0  0  0  0  0  0  0  0  0  0
   26.2446  -21.7177  -12.7088 O   0  0  0  0  0  0  0  0  0  0  0  0
   26.2563  -20.3244   -4.8610 C   0  0  0  0  0  0  0  0  0  0  0  0
   27.0145  -19.6703   -6.3735 S   0  0  0  0  0  0  0  0  0  0  0  0
   26.1336  -20.4398   -7.7960 C   0  0  0  0  0  0  0  0  0  0  0  0
   26.7805  -19.9603   -9.0541 C   0  0  0  0  0  0  0  0  0  0  0  0
   26.1041  -20.5507  -10.2860 C   0  0  2  0  0  0  0  0  0  0  0  0
   26.8269  -19.9409  -11.4288 N   0  0  0  0  0  0  0  0  0  0  0  0
   24.6682  -20.3658  -10.3418 C   0  0  0  0  0  0  0  0  0  0  0  0
   23.8993  -20.8111   -9.4541 O   0  0  0  0  0  0  0  0  0  0  0  0
   24.0408  -19.6658  -11.4072 N   0  0  0  0  0  0  0  0  0  0  0  0
   22.6149  -19.8675  -11.7074 C   0  0  1  0  0  0  0  0  0  0  0  0
   22.4817  -20.9743  -12.7160 C   0  0  0  0  0  0  0  0  0  0  0  0
   21.1076  -21.3848  -13.0060 C   0  0  0  0  0  0  0  0  0  0  0  0
   20.2189  -20.5198  -13.2074 O   0  0  0  0  0  0  0  0  0  0  0  0
   21.8409  -20.1013  -10.4819 C   0  0  0  0  0  0  0  0  0  0  0  0
   22.0766  -21.2544   -9.7498 O   0  0  0  0  0  0  0  0  0  0  0  0
   20.7381  -22.7177  -13.0691 O   0  0  0  0  0  0  0  0  0  0  0  0
   20.9753  -19.3089  -10.0626 O   0  0  0  0  0  0  0  0  0  0  0  0
  1  2  1  0
  2  3  1  0
  3  4  1  1
  3  5  1  0
  5  7  1  0
  5  6  1  6
  7  8  2  0
  9 10  1  0
 10 11  1  0
 11 12  1  0
 13 12  1  1
 14 13  1  0
 14  7  1  0
 15 13  1  0
 16 15  2  0
 17 15  1  0
 18 19  1  6
 18 17  1  0
 19 20  1  0
 20 21  2  0
 20 24  1  0
 22 23  1  0
 22 18  1  0
 25 22  2  0
M  END
$$$$
