IMD.pdb
     RDKit          3D

 25 24  0  0  1  0  0  0  0  0999 V2000
   20.0725  -15.0400  -18.5864 C   0  0  0  0  0  0  0  0  0  0  0  0
   19.4285  -14.1013  -17.6331 C   0  0  0  0  0  0  0  0  0  0  0  0
   20.3799  -13.2086  -16.8997 C   0  0  2  0  0  0  0  0  0  0  0  0
   20.3031  -13.5156  -15.3996 C   0  0  0  0  0  0  0  0  0  0  0  0
   20.2181  -11.7354  -17.1320 C   0  0  2  0  0  0  0  0  0  0  0  0
   20.6014  -11.5272  -18.5578 N   0  0  0  0  0  0  0  0  0  0  0  0
   20.9891  -10.8415  -16.2804 C   0  0  0  0  0  0  0  0  0  0  0  0
   20.7267  -10.7231  -15.0217 O   0  0  0  0  0  0  0  0  0  0  0  0
   27.1057  -12.3876  -15.1437 C   0  0  0  0  0  0  0  0  0  0  0  0
   26.5387  -10.8302  -15.8809 S   0  0  0  0  0  0  0  0  0  0  0  0
   24.7318  -10.7014  -15.5488 C   0  0  0  0  0  0  0  0  0  0  0  0
   24.2594   -9.3834  -16.0691 C   0  0  0  0  0  0  0  0  0  0  0  0
   22.7841   -9.1598  -15.7569 C   0  0  2  0  0  0  0  0  0  0  0  0
   22.0694  -10.0393  -16.7139 N   0  0  0  0  0  0  0  0  0  0  0  0
   22.3525   -7.7777  -15.8046 C   0  0  0  0  0  0  0  0  0  0  0  0
   22.1598   -7.1718  -16.8878 O   0  0  0  0  0  0  0  0  0  0  0  0
   22.1191   -7.0214  -14.6246 N   0  0  0  0  0  0  0  0  0  0  0  0
   21.6430   -5.6315  -14.6999 C   0  0  1  0  0  0  0  0  0  0  0  0
   20.1423   -5.6354  -14.7882 C   0  0  0  0  0  0  0  0  0  0  0  0
   19.5166   -4.3135  -14.7421 C   0  0  0  0  0  0  0  0  0  0  0  0
   20.0475   -3.3422  -15.3363 O   0  0  0  0  0  0  0  0  0  0  0  0
   22.1577   -4.8314  -13.5817 C   0  0  0  0  0  0  0  0  0  0  0  0
   21.8709   -3.4759  -13.5392 O   0  0  0  0  0  0  0  0  0  0  0  0
   18.3367   -4.0840  -14.0548 O   0  0  0  0  0  0  0  0  0  0  0  0
   22.8454   -5.3129  -12.6608 O   0  0  0  0  0  0  0  0  0  0  0  0
  1  2  1  0
  2  3  1  0
  3  4  1  1
  3  5  1  0
  5  7  1  0
  5  6  1  6
  7  8  2  0
  9 10  1  0
 10 11  1  0
 11 12  1  0
 13 12  1  6
 14 13  1  0
 14  7  1  0
 15 13  1  0
 16 15  2  0
 17 15  1  0
 18 19  1  1
 18 17  1  0
 19 20  1  0
 20 21  2  0
 20 24  1  0
 22 23  1  0
 22 18  1  0
 25 22  2  0
M  END
$$$$
