IMD.pdb
     RDKit          3D

 25 24  0  0  1  0  0  0  0  0999 V2000
   15.4226  -12.3789  -17.4998 C   0  0  0  0  0  0  0  0  0  0  0  0
   16.6659  -11.7503  -18.0134 C   0  0  0  0  0  0  0  0  0  0  0  0
   17.4098  -10.9290  -17.0074 C   0  0  2  0  0  0  0  0  0  0  0  0
   16.4541   -9.9003  -16.3920 C   0  0  0  0  0  0  0  0  0  0  0  0
   18.6525  -10.2471  -17.4983 C   0  0  2  0  0  0  0  0  0  0  0  0
   19.4534  -11.3265  -18.1438 N   0  0  0  0  0  0  0  0  0  0  0  0
   19.4658   -9.5577  -16.5072 C   0  0  0  0  0  0  0  0  0  0  0  0
   18.9420   -8.7200  -15.6758 O   0  0  0  0  0  0  0  0  0  0  0  0
   22.6477  -11.6843  -11.5727 C   0  0  0  0  0  0  0  0  0  0  0  0
   22.4012  -10.2796  -12.6936 S   0  0  0  0  0  0  0  0  0  0  0  0
   22.9725  -10.8124  -14.3614 C   0  0  0  0  0  0  0  0  0  0  0  0
   22.9681   -9.6157  -15.2552 C   0  0  0  0  0  0  0  0  0  0  0  0
   21.5914   -8.9629  -15.3021 C   0  0  2  0  0  0  0  0  0  0  0  0
   20.8604   -9.7229  -16.3453 N   0  0  0  0  0  0  0  0  0  0  0  0
   21.6016   -7.5316  -15.5263 C   0  0  0  0  0  0  0  0  0  0  0  0
   21.9297   -7.0273  -16.6288 O   0  0  0  0  0  0  0  0  0  0  0  0
   21.2385   -6.6084  -14.5091 N   0  0  0  0  0  0  0  0  0  0  0  0
   21.2919   -5.1582  -14.7510 C   0  0  1  0  0  0  0  0  0  0  0  0
   19.8982   -4.6560  -15.0067 C   0  0  0  0  0  0  0  0  0  0  0  0
   19.7896   -3.2116  -15.2137 C   0  0  0  0  0  0  0  0  0  0  0  0
   20.8099   -2.5354  -15.4969 O   0  0  0  0  0  0  0  0  0  0  0  0
   21.9692   -4.4599  -13.6514 C   0  0  0  0  0  0  0  0  0  0  0  0
   22.4553   -5.2004  -12.5853 O   0  0  0  0  0  0  0  0  0  0  0  0
   18.5810   -2.5442  -15.1081 O   0  0  0  0  0  0  0  0  0  0  0  0
   22.1306   -3.2245  -13.6274 O   0  0  0  0  0  0  0  0  0  0  0  0
  1  2  1  0
  2  3  1  0
  3  4  1  6
  3  5  1  0
  5  7  1  0
  5  6  1  1
  7  8  2  0
  9 10  1  0
 10 11  1  0
 11 12  1  0
 13 12  1  6
 14 13  1  0
 14  7  1  0
 15 13  1  0
 16 15  2  0
 17 15  1  0
 18 19  1  1
 18 17  1  0
 19 20  1  0
 20 21  2  0
 20 24  1  0
 22 23  1  0
 22 18  1  0
 25 22  2  0
M  END
$$$$
