IMD.pdb
     RDKit          3D

 25 24  0  0  1  0  0  0  0  0999 V2000
   21.2594  -27.9634   -1.4046 C   0  0  0  0  0  0  0  0  0  0  0  0
   19.7998  -28.1768   -1.2352 C   0  0  0  0  0  0  0  0  0  0  0  0
   19.1146  -27.1505   -0.3884 C   0  0  2  0  0  0  0  0  0  0  0  0
   19.6577  -27.2350    1.0427 C   0  0  0  0  0  0  0  0  0  0  0  0
   17.6153  -27.1986   -0.3732 C   0  0  2  0  0  0  0  0  0  0  0  0
   17.2121  -27.0580   -1.8017 N   0  0  0  0  0  0  0  0  0  0  0  0
   16.9282  -26.1992    0.4319 C   0  0  0  0  0  0  0  0  0  0  0  0
   16.9226  -24.9535    0.0924 O   0  0  0  0  0  0  0  0  0  0  0  0
   11.3121  -26.2474    1.7085 C   0  0  0  0  0  0  0  0  0  0  0  0
   11.5592  -25.2360    3.1939 S   0  0  0  0  0  0  0  0  0  0  0  0
   13.3253  -24.7141    3.2048 C   0  0  0  0  0  0  0  0  0  0  0  0
   14.1143  -25.7386    2.4572 C   0  0  0  0  0  0  0  0  0  0  0  0
   15.5899  -25.3621    2.3895 C   0  0  2  0  0  0  0  0  0  0  0  0
   16.2155  -26.4672    1.6230 N   0  0  0  0  0  0  0  0  0  0  0  0
   16.2171  -25.1173    3.6723 C   0  0  0  0  0  0  0  0  0  0  0  0
   16.8518  -26.0080    4.2899 O   0  0  0  0  0  0  0  0  0  0  0  0
   16.1530  -23.8499    4.3112 N   0  0  0  0  0  0  0  0  0  0  0  0
   16.8550  -23.6076    5.5811 C   0  0  1  0  0  0  0  0  0  0  0  0
   18.3246  -23.8512    5.3788 C   0  0  0  0  0  0  0  0  0  0  0  0
   18.9847  -24.5836    6.4599 C   0  0  0  0  0  0  0  0  0  0  0  0
   18.3317  -24.9400    7.4723 O   0  0  0  0  0  0  0  0  0  0  0  0
   16.5543  -22.2710    6.1089 C   0  0  0  0  0  0  0  0  0  0  0  0
   16.3856  -21.2213    5.2195 O   0  0  0  0  0  0  0  0  0  0  0  0
   20.3300  -24.9076    6.4118 O   0  0  0  0  0  0  0  0  0  0  0  0
   16.4421  -22.0299    7.3263 O   0  0  0  0  0  0  0  0  0  0  0  0
  1  2  1  0
  2  3  1  0
  3  4  1  1
  3  5  1  0
  5  7  1  0
  5  6  1  6
  7  8  2  0
  9 10  1  0
 10 11  1  0
 11 12  1  0
 13 12  1  1
 14 13  1  0
 14  7  1  0
 15 13  1  0
 16 15  2  0
 17 15  1  0
 18 19  1  6
 18 17  1  0
 19 20  1  0
 20 21  2  0
 20 24  1  0
 22 23  1  0
 22 18  1  0
 25 22  2  0
M  END
$$$$
