IMD.pdb
     RDKit          3D

 25 24  0  0  1  0  0  0  0  0999 V2000
   29.8544  -20.9104  -17.0570 C   0  0  0  0  0  0  0  0  0  0  0  0
   28.7608  -20.0487  -16.5413 C   0  0  0  0  0  0  0  0  0  0  0  0
   27.8750  -20.7056  -15.5295 C   0  0  2  0  0  0  0  0  0  0  0  0
   27.3702  -22.0390  -16.0928 C   0  0  0  0  0  0  0  0  0  0  0  0
   26.7204  -19.8881  -15.0304 C   0  0  2  0  0  0  0  0  0  0  0  0
   27.3441  -18.7074  -14.3672 N   0  0  0  0  0  0  0  0  0  0  0  0
   25.7971  -20.5372  -14.1110 C   0  0  0  0  0  0  0  0  0  0  0  0
   25.1070  -21.5676  -14.4705 O   0  0  0  0  0  0  0  0  0  0  0  0
   25.8209  -20.3390   -7.4198 C   0  0  0  0  0  0  0  0  0  0  0  0
   26.9984  -20.3260   -8.7996 S   0  0  0  0  0  0  0  0  0  0  0  0
   26.2039  -21.2257  -10.1965 C   0  0  0  0  0  0  0  0  0  0  0  0
   24.9226  -20.5314  -10.5239 C   0  0  0  0  0  0  0  0  0  0  0  0
   24.5057  -20.7873  -11.9677 C   0  0  2  0  0  0  0  0  0  0  0  0
   25.5641  -20.1343  -12.7762 N   0  0  0  0  0  0  0  0  0  0  0  0
   23.1659  -20.3500  -12.3030 C   0  0  0  0  0  0  0  0  0  0  0  0
   22.9316  -19.2143  -12.7855 O   0  0  0  0  0  0  0  0  0  0  0  0
   22.0317  -21.1830  -12.1069 N   0  0  0  0  0  0  0  0  0  0  0  0
   20.7749  -20.9304  -12.8287 C   0  0  1  0  0  0  0  0  0  0  0  0
   21.0631  -20.8757  -14.3031 C   0  0  0  0  0  0  0  0  0  0  0  0
   20.1376  -20.0546  -15.0841 C   0  0  0  0  0  0  0  0  0  0  0  0
   19.7948  -18.9197  -14.6684 O   0  0  0  0  0  0  0  0  0  0  0  0
   19.7490  -21.9186  -12.4728 C   0  0  0  0  0  0  0  0  0  0  0  0
   18.4764  -21.4763  -12.1471 O   0  0  0  0  0  0  0  0  0  0  0  0
   19.6122  -20.4868  -16.2901 O   0  0  0  0  0  0  0  0  0  0  0  0
   19.9660  -23.1455  -12.4485 O   0  0  0  0  0  0  0  0  0  0  0  0
  1  2  1  0
  2  3  1  0
  3  4  1  6
  3  5  1  0
  5  7  1  0
  5  6  1  1
  7  8  2  0
  9 10  1  0
 10 11  1  0
 11 12  1  0
 13 12  1  1
 14 13  1  0
 14  7  1  0
 15 13  1  0
 16 15  2  0
 17 15  1  0
 18 19  1  6
 18 17  1  0
 19 20  1  0
 20 21  2  0
 20 24  1  0
 22 23  1  0
 22 18  1  0
 25 22  2  0
M  END
$$$$
