LYL.pdb
     RDKit          3D

 29 29  0  0  1  0  0  0  0  0999 V2000
    7.3818  -12.4379   19.7665 C   0  0  0  0  0  0  0  0  0  0  0  0
    8.1645  -13.6872   20.0938 C   0  0  2  0  0  0  0  0  0  0  0  0
    9.6450  -13.4925   19.8987 C   0  0  0  0  0  0  0  0  0  0  0  0
    7.7143  -14.8849   19.3185 C   0  0  0  0  0  0  0  0  0  0  0  0
    8.2362  -16.1872   19.8302 C   0  0  2  0  0  0  0  0  0  0  0  0
    7.7761  -17.2578   18.9605 N   0  0  0  0  0  0  0  0  0  0  0  0
    7.7506  -16.3775   21.2209 C   0  0  0  0  0  0  0  0  0  0  0  0
    6.5109  -16.4639   21.4170 O   0  0  0  0  0  0  0  0  0  0  0  0
    7.5540  -20.3603   29.0126 O   0  0  0  0  0  0  0  0  0  0  0  0
    7.8757  -19.8304   27.7636 C   0  0  0  0  0  0  0  0  0  0  0  0
    6.9177  -19.6443   26.7903 C   0  0  0  0  0  0  0  0  0  0  0  0
    7.2425  -19.1195   25.5567 C   0  0  0  0  0  0  0  0  0  0  0  0
    8.5344  -18.7535   25.2283 C   0  0  0  0  0  0  0  0  0  0  0  0
    8.8373  -18.1988   23.8921 C   0  0  0  0  0  0  0  0  0  0  0  0
    8.2818  -16.8244   23.6427 C   0  0  2  0  0  0  0  0  0  0  0  0
    8.6700  -16.4588   22.2970 N   0  0  0  0  0  0  0  0  0  0  0  0
    8.8138  -15.8021   24.5808 C   0  0  0  0  0  0  0  0  0  0  0  0
   10.0051  -15.4358   24.4750 O   0  0  0  0  0  0  0  0  0  0  0  0
    9.4933  -18.9402   26.2027 C   0  0  0  0  0  0  0  0  0  0  0  0
    9.1694  -19.4699   27.4503 C   0  0  0  0  0  0  0  0  0  0  0  0
    5.5179  -12.0326   27.0188 C   0  0  0  0  0  0  0  0  0  0  0  0
    6.6860  -12.6272   26.3261 C   0  0  1  0  0  0  0  0  0  0  0  0
    7.5590  -11.5608   25.6625 C   0  0  0  0  0  0  0  0  0  0  0  0
    7.4896  -13.5521   27.1268 C   0  0  0  0  0  0  0  0  0  0  0  0
    8.6349  -14.2920   26.5495 C   0  0  2  0  0  0  0  0  0  0  0  0
    8.0082  -15.2389   25.5828 N   0  0  0  0  0  0  0  0  0  0  0  0
    9.4388  -15.1429   27.4181 C   0  0  0  0  0  0  0  0  0  0  0  0
   10.5529  -14.6773   28.0798 O   0  0  0  0  0  0  0  0  0  0  0  0
    9.1722  -16.3785   27.6211 O   0  0  0  0  0  0  0  0  0  0  0  0
  2  1  1  6
  2  4  1  0
  3  2  1  0
  5  4  1  0
  5  6  1  6
  7  5  1  0
  7  8  2  0
  9 10  1  0
 10 20  2  0
 10 11  1  0
 11 12  2  0
 12 13  1  0
 13 14  1  0
 15 14  1  1
 15 16  1  0
 15 17  1  0
 16  7  1  0
 17 18  2  0
 19 13  2  0
 20 19  1  0
 22 21  1  1
 22 24  1  0
 23 22  1  0
 25 24  1  1
 25 27  1  0
 26 17  1  0
 26 25  1  0
 27 29  2  0
 27 28  1  0
M  END
$$$$
