LYL.pdb
     RDKit          3D

 29 29  0  0  1  0  0  0  0  0999 V2000
    3.4857  -19.2593   20.3407 C   0  0  0  0  0  0  0  0  0  0  0  0
    4.1156  -18.6541   21.5726 C   0  0  2  0  0  0  0  0  0  0  0  0
    3.5313  -17.3054   21.9003 C   0  0  0  0  0  0  0  0  0  0  0  0
    5.6045  -18.5411   21.4782 C   0  0  0  0  0  0  0  0  0  0  0  0
    6.2914  -18.2919   22.7806 C   0  0  2  0  0  0  0  0  0  0  0  0
    5.4558  -17.4299   23.6009 N   0  0  0  0  0  0  0  0  0  0  0  0
    7.6088  -17.6626   22.5075 C   0  0  0  0  0  0  0  0  0  0  0  0
    8.4645  -18.3190   21.8597 O   0  0  0  0  0  0  0  0  0  0  0  0
    7.6792  -13.5162   16.8622 O   0  0  0  0  0  0  0  0  0  0  0  0
    7.9808  -13.7090   18.2097 C   0  0  0  0  0  0  0  0  0  0  0  0
    7.1114  -13.3209   19.2064 C   0  0  0  0  0  0  0  0  0  0  0  0
    7.4158  -13.5146   20.5378 C   0  0  0  0  0  0  0  0  0  0  0  0
    8.5982  -14.1032   20.9456 C   0  0  0  0  0  0  0  0  0  0  0  0
    8.8843  -14.2871   22.3841 C   0  0  0  0  0  0  0  0  0  0  0  0
    9.1703  -15.7058   22.7905 C   0  0  2  0  0  0  0  0  0  0  0  0
    7.8873  -16.3517   22.9700 N   0  0  0  0  0  0  0  0  0  0  0  0
    9.9300  -15.8051   24.0637 C   0  0  0  0  0  0  0  0  0  0  0  0
   11.1160  -15.4091   24.1009 O   0  0  0  0  0  0  0  0  0  0  0  0
    9.4684  -14.4914   19.9477 C   0  0  0  0  0  0  0  0  0  0  0  0
    9.1648  -14.2977   18.6015 C   0  0  0  0  0  0  0  0  0  0  0  0
   10.9311  -14.1380   28.7550 C   0  0  0  0  0  0  0  0  0  0  0  0
    9.5553  -14.6614   28.5783 C   0  0  1  0  0  0  0  0  0  0  0  0
    8.5021  -13.6873   29.1088 C   0  0  0  0  0  0  0  0  0  0  0  0
    9.2249  -15.1217   27.2288 C   0  0  0  0  0  0  0  0  0  0  0  0
   10.0457  -16.1346   26.5266 C   0  0  2  0  0  0  0  0  0  0  0  0
    9.3455  -16.3337   25.2251 N   0  0  0  0  0  0  0  0  0  0  0  0
   10.1501  -17.4753   27.0889 C   0  0  0  0  0  0  0  0  0  0  0  0
    9.1433  -18.4065   26.9660 O   0  0  0  0  0  0  0  0  0  0  0  0
   11.1764  -17.8783   27.7395 O   0  0  0  0  0  0  0  0  0  0  0  0
  2  1  1  6
  2  4  1  0
  3  2  1  0
  5  4  1  0
  5  6  1  1
  7  5  1  0
  7  8  2  0
  9 10  1  0
 10 20  2  0
 10 11  1  0
 11 12  2  0
 12 13  1  0
 13 14  1  0
 15 14  1  1
 15 16  1  0
 15 17  1  0
 16  7  1  0
 17 18  2  0
 19 13  2  0
 20 19  1  0
 22 21  1  6
 22 24  1  0
 23 22  1  0
 25 24  1  1
 25 27  1  0
 26 17  1  0
 26 25  1  0
 27 29  2  0
 27 28  1  0
M  END
$$$$
