LYL.pdb
     RDKit          3D

 29 29  0  0  1  0  0  0  0  0999 V2000
   11.2190  -20.0538   19.2955 C   0  0  0  0  0  0  0  0  0  0  0  0
   10.1015  -19.1266   18.8805 C   0  0  2  0  0  0  0  0  0  0  0  0
   10.1042  -18.8687   17.3969 C   0  0  0  0  0  0  0  0  0  0  0  0
   10.1162  -17.8216   19.6119 C   0  0  0  0  0  0  0  0  0  0  0  0
   10.1428  -17.9447   21.1000 C   0  0  2  0  0  0  0  0  0  0  0  0
    8.9555  -18.6603   21.5385 N   0  0  0  0  0  0  0  0  0  0  0  0
   10.1964  -16.5811   21.6863 C   0  0  0  0  0  0  0  0  0  0  0  0
   11.1763  -15.8444   21.4034 O   0  0  0  0  0  0  0  0  0  0  0  0
    6.9709  -13.3235   17.2062 O   0  0  0  0  0  0  0  0  0  0  0  0
    7.1688  -13.5463   18.5683 C   0  0  0  0  0  0  0  0  0  0  0  0
    7.8685  -12.6534   19.3512 C   0  0  0  0  0  0  0  0  0  0  0  0
    8.0608  -12.8796   20.6983 C   0  0  0  0  0  0  0  0  0  0  0  0
    7.5679  -14.0034   21.3347 C   0  0  0  0  0  0  0  0  0  0  0  0
    7.8016  -14.2067   22.7801 C   0  0  0  0  0  0  0  0  0  0  0  0
    9.1395  -14.8008   23.1218 C   0  0  2  0  0  0  0  0  0  0  0  0
    9.1628  -16.1280   22.5444 N   0  0  0  0  0  0  0  0  0  0  0  0
    9.3673  -14.9196   24.5854 C   0  0  0  0  0  0  0  0  0  0  0  0
    8.9257  -14.0313   25.3474 O   0  0  0  0  0  0  0  0  0  0  0  0
    6.8675  -14.8971   20.5508 C   0  0  0  0  0  0  0  0  0  0  0  0
    6.6710  -14.6724   19.1896 C   0  0  0  0  0  0  0  0  0  0  0  0
   10.9318  -13.6672   28.8781 C   0  0  0  0  0  0  0  0  0  0  0  0
   10.0793  -14.8680   28.7069 C   0  0  1  0  0  0  0  0  0  0  0  0
    8.8123  -14.7942   29.5607 C   0  0  0  0  0  0  0  0  0  0  0  0
    9.7696  -15.2287   27.3226 C   0  0  0  0  0  0  0  0  0  0  0  0
   10.7893  -15.8118   26.4211 C   0  0  2  0  0  0  0  0  0  0  0  0
   10.0675  -16.0070   25.1308 N   0  0  0  0  0  0  0  0  0  0  0  0
   11.3387  -17.1263   26.7294 C   0  0  0  0  0  0  0  0  0  0  0  0
   10.6409  -18.2900   26.4957 O   0  0  0  0  0  0  0  0  0  0  0  0
   12.4998  -17.2915   27.2430 O   0  0  0  0  0  0  0  0  0  0  0  0
  2  1  1  6
  2  4  1  0
  3  2  1  0
  5  4  1  0
  5  6  1  1
  7  5  1  0
  7  8  2  0
  9 10  1  0
 10 20  2  0
 10 11  1  0
 11 12  2  0
 12 13  1  0
 13 14  1  0
 15 14  1  1
 15 16  1  0
 15 17  1  0
 16  7  1  0
 17 18  2  0
 19 13  2  0
 20 19  1  0
 22 21  1  6
 22 24  1  0
 23 22  1  0
 25 24  1  1
 25 27  1  0
 26 17  1  0
 26 25  1  0
 27 29  2  0
 27 28  1  0
M  END
$$$$
