LYL.pdb
     RDKit          3D

 29 29  0  0  1  0  0  0  0  0999 V2000
    7.8349  -13.9669   18.4415 C   0  0  0  0  0  0  0  0  0  0  0  0
    9.2628  -13.9162   18.9304 C   0  0  2  0  0  0  0  0  0  0  0  0
   10.2496  -13.9412   17.7932 C   0  0  0  0  0  0  0  0  0  0  0  0
    9.5931  -15.0075   19.8992 C   0  0  0  0  0  0  0  0  0  0  0  0
    8.6095  -15.1684   21.0113 C   0  0  2  0  0  0  0  0  0  0  0  0
    8.1233  -13.8570   21.4086 N   0  0  0  0  0  0  0  0  0  0  0  0
    9.2825  -15.8579   22.1417 C   0  0  0  0  0  0  0  0  0  0  0  0
    9.5494  -17.0818   22.0246 O   0  0  0  0  0  0  0  0  0  0  0  0
   12.4028  -16.2285   30.5497 O   0  0  0  0  0  0  0  0  0  0  0  0
   12.0513  -15.8683   29.2494 C   0  0  0  0  0  0  0  0  0  0  0  0
   12.3394  -16.6796   28.1730 C   0  0  0  0  0  0  0  0  0  0  0  0
   11.9888  -16.3174   26.8890 C   0  0  0  0  0  0  0  0  0  0  0  0
   11.3349  -15.1319   26.6100 C   0  0  0  0  0  0  0  0  0  0  0  0
   10.9821  -14.7826   25.2178 C   0  0  0  0  0  0  0  0  0  0  0  0
   10.1090  -15.7883   24.5206 C   0  0  2  0  0  0  0  0  0  0  0  0
    9.6131  -15.1456   23.3220 N   0  0  0  0  0  0  0  0  0  0  0  0
    8.9465  -16.2179   25.3403 C   0  0  0  0  0  0  0  0  0  0  0  0
    9.0882  -17.1512   26.1611 O   0  0  0  0  0  0  0  0  0  0  0  0
   11.0468  -14.3198   27.6877 C   0  0  0  0  0  0  0  0  0  0  0  0
   11.3991  -14.6819   28.9864 C   0  0  0  0  0  0  0  0  0  0  0  0
    7.3904  -13.0809   26.0817 C   0  0  0  0  0  0  0  0  0  0  0  0
    6.2229  -13.6545   26.7930 C   0  0  1  0  0  0  0  0  0  0  0  0
    5.1085  -12.6242   26.9829 C   0  0  0  0  0  0  0  0  0  0  0  0
    5.7033  -14.9074   26.2431 C   0  0  0  0  0  0  0  0  0  0  0  0
    6.5672  -16.0954   26.0559 C   0  0  2  0  0  0  0  0  0  0  0  0
    7.6931  -15.5992   25.2132 N   0  0  0  0  0  0  0  0  0  0  0  0
    6.0457  -17.2419   25.3223 C   0  0  0  0  0  0  0  0  0  0  0  0
    5.2464  -18.1940   25.9143 O   0  0  0  0  0  0  0  0  0  0  0  0
    6.2979  -17.4483   24.0842 O   0  0  0  0  0  0  0  0  0  0  0  0
  2  1  1  6
  2  4  1  0
  3  2  1  0
  5  4  1  0
  5  6  1  1
  7  5  1  0
  7  8  2  0
  9 10  1  0
 10 20  2  0
 10 11  1  0
 11 12  2  0
 12 13  1  0
 13 14  1  0
 15 14  1  1
 15 16  1  0
 15 17  1  0
 16  7  1  0
 17 18  2  0
 19 13  2  0
 20 19  1  0
 22 21  1  6
 22 24  1  0
 23 22  1  0
 25 24  1  6
 25 27  1  0
 26 17  1  0
 26 25  1  0
 27 29  2  0
 27 28  1  0
M  END
$$$$
