LYL.pdb
     RDKit          3D

 29 29  0  0  1  0  0  0  0  0999 V2000
    7.4961  -14.2526   18.5850 C   0  0  0  0  0  0  0  0  0  0  0  0
    7.4476  -13.4659   19.8731 C   0  0  2  0  0  0  0  0  0  0  0  0
    7.4060  -11.9810   19.6260 C   0  0  0  0  0  0  0  0  0  0  0  0
    8.5775  -13.7839   20.8008 C   0  0  0  0  0  0  0  0  0  0  0  0
    8.6350  -15.2094   21.2425 C   0  0  2  0  0  0  0  0  0  0  0  0
    7.2801  -15.7171   21.3860 N   0  0  0  0  0  0  0  0  0  0  0  0
    9.3737  -15.2761   22.5294 C   0  0  0  0  0  0  0  0  0  0  0  0
   10.5324  -14.7888   22.5819 O   0  0  0  0  0  0  0  0  0  0  0  0
    5.8292  -10.7016   26.3951 O   0  0  0  0  0  0  0  0  0  0  0  0
    6.4447  -11.9490   26.2989 C   0  0  0  0  0  0  0  0  0  0  0  0
    5.8315  -13.0094   25.6669 C   0  0  0  0  0  0  0  0  0  0  0  0
    6.4459  -14.2410   25.5752 C   0  0  0  0  0  0  0  0  0  0  0  0
    7.6994  -14.4809   26.1062 C   0  0  0  0  0  0  0  0  0  0  0  0
    8.3179  -15.8181   25.9877 C   0  0  0  0  0  0  0  0  0  0  0  0
    9.4169  -15.9129   24.9665 C   0  0  2  0  0  0  0  0  0  0  0  0
    8.7793  -15.8771   23.6675 N   0  0  0  0  0  0  0  0  0  0  0  0
   10.2026  -17.1698   25.0713 C   0  0  0  0  0  0  0  0  0  0  0  0
    9.6087  -18.2444   25.3105 O   0  0  0  0  0  0  0  0  0  0  0  0
    8.3130  -13.4193   26.7389 C   0  0  0  0  0  0  0  0  0  0  0  0
    7.6959  -12.1734   26.8339 C   0  0  0  0  0  0  0  0  0  0  0  0
   13.6463  -19.7372   21.7621 C   0  0  0  0  0  0  0  0  0  0  0  0
   12.2110  -19.5889   22.1027 C   0  0  1  0  0  0  0  0  0  0  0  0
   11.6182  -20.8876   22.6519 C   0  0  0  0  0  0  0  0  0  0  0  0
   11.8810  -18.4480   22.9581 C   0  0  0  0  0  0  0  0  0  0  0  0
   12.2451  -18.4172   24.3930 C   0  0  2  0  0  0  0  0  0  0  0  0
   11.5967  -17.1769   24.9078 N   0  0  0  0  0  0  0  0  0  0  0  0
   13.6470  -18.2724   24.7651 C   0  0  0  0  0  0  0  0  0  0  0  0
   14.2836  -17.0515   24.7786 O   0  0  0  0  0  0  0  0  0  0  0  0
   14.3842  -19.2650   25.0974 O   0  0  0  0  0  0  0  0  0  0  0  0
  2  1  1  6
  2  4  1  0
  3  2  1  0
  5  4  1  0
  5  6  1  1
  7  5  1  0
  7  8  2  0
  9 10  1  0
 10 20  2  0
 10 11  1  0
 11 12  2  0
 12 13  1  0
 13 14  1  0
 15 14  1  1
 15 16  1  0
 15 17  1  0
 16  7  1  0
 17 18  2  0
 19 13  2  0
 20 19  1  0
 22 21  1  1
 22 24  1  0
 23 22  1  0
 25 24  1  6
 25 27  1  0
 26 17  1  0
 26 25  1  0
 27 29  2  0
 27 28  1  0
M  END
$$$$
