LYL.pdb
     RDKit          3D

 29 29  0  0  1  0  0  0  0  0999 V2000
    9.6417  -13.7534   18.6327 C   0  0  0  0  0  0  0  0  0  0  0  0
    8.1508  -13.8701   18.4227 C   0  0  2  0  0  0  0  0  0  0  0  0
    7.5118  -12.5321   18.1597 C   0  0  0  0  0  0  0  0  0  0  0  0
    7.4465  -14.5427   19.5585 C   0  0  0  0  0  0  0  0  0  0  0  0
    8.1284  -15.7676   20.0731 C   0  0  2  0  0  0  0  0  0  0  0  0
    7.8540  -16.8769   19.1740 N   0  0  0  0  0  0  0  0  0  0  0  0
    7.6264  -16.0482   21.4425 C   0  0  0  0  0  0  0  0  0  0  0  0
    6.7690  -15.2721   21.9379 O   0  0  0  0  0  0  0  0  0  0  0  0
    8.0923  -20.2952   29.3392 O   0  0  0  0  0  0  0  0  0  0  0  0
    8.1044  -19.9472   27.9891 C   0  0  0  0  0  0  0  0  0  0  0  0
    9.2617  -19.5441   27.3582 C   0  0  0  0  0  0  0  0  0  0  0  0
    9.2669  -19.2012   26.0221 C   0  0  0  0  0  0  0  0  0  0  0  0
    8.1236  -19.2415   25.2462 C   0  0  0  0  0  0  0  0  0  0  0  0
    8.1753  -18.8611   23.8188 C   0  0  0  0  0  0  0  0  0  0  0  0
    7.6973  -17.4669   23.5233 C   0  0  2  0  0  0  0  0  0  0  0  0
    8.1078  -17.1671   22.1679 N   0  0  0  0  0  0  0  0  0  0  0  0
    8.2834  -16.4458   24.4299 C   0  0  0  0  0  0  0  0  0  0  0  0
    9.4646  -16.0749   24.2514 O   0  0  0  0  0  0  0  0  0  0  0  0
    6.9652  -19.6448   25.8780 C   0  0  0  0  0  0  0  0  0  0  0  0
    6.9555  -19.9922   27.2276 C   0  0  0  0  0  0  0  0  0  0  0  0
    6.0158  -11.4628   26.5653 C   0  0  0  0  0  0  0  0  0  0  0  0
    7.1738  -12.3722   26.7379 C   0  0  1  0  0  0  0  0  0  0  0  0
    7.6564  -12.4118   28.1888 C   0  0  0  0  0  0  0  0  0  0  0  0
    7.0021  -13.7209   26.1957 C   0  0  0  0  0  0  0  0  0  0  0  0
    8.1027  -14.7115   26.2040 C   0  0  2  0  0  0  0  0  0  0  0  0
    7.5399  -15.8888   25.4821 N   0  0  0  0  0  0  0  0  0  0  0  0
    8.5582  -15.2536   27.4781 C   0  0  0  0  0  0  0  0  0  0  0  0
    9.7043  -14.8111   28.0997 O   0  0  0  0  0  0  0  0  0  0  0  0
    7.9327  -16.1794   28.1031 O   0  0  0  0  0  0  0  0  0  0  0  0
  2  1  1  1
  2  4  1  0
  3  2  1  0
  5  4  1  0
  5  6  1  6
  7  5  1  0
  7  8  2  0
  9 10  1  0
 10 20  2  0
 10 11  1  0
 11 12  2  0
 12 13  1  0
 13 14  1  0
 15 14  1  1
 15 16  1  0
 15 17  1  0
 16  7  1  0
 17 18  2  0
 19 13  2  0
 20 19  1  0
 22 21  1  1
 22 24  1  0
 23 22  1  0
 25 24  1  1
 25 27  1  0
 26 17  1  0
 26 25  1  0
 27 29  2  0
 27 28  1  0
M  END
$$$$
