LYL.pdb
     RDKit          3D

 29 29  0  0  1  0  0  0  0  0999 V2000
    8.6218  -12.4746   18.8929 C   0  0  0  0  0  0  0  0  0  0  0  0
    7.4549  -13.4230   19.0326 C   0  0  2  0  0  0  0  0  0  0  0  0
    6.2713  -12.7675   19.6938 C   0  0  0  0  0  0  0  0  0  0  0  0
    7.8014  -14.6797   19.7667 C   0  0  0  0  0  0  0  0  0  0  0  0
    9.0089  -15.3886   19.2475 C   0  0  2  0  0  0  0  0  0  0  0  0
    8.5875  -16.4331   18.3278 N   0  0  0  0  0  0  0  0  0  0  0  0
    9.7563  -15.9552   20.3992 C   0  0  0  0  0  0  0  0  0  0  0  0
    9.4194  -17.0862   20.8352 O   0  0  0  0  0  0  0  0  0  0  0  0
   15.8836  -15.5096   17.2620 O   0  0  0  0  0  0  0  0  0  0  0  0
   15.1572  -15.3907   18.4461 C   0  0  0  0  0  0  0  0  0  0  0  0
   14.3082  -14.3277   18.6682 C   0  0  0  0  0  0  0  0  0  0  0  0
   13.5923  -14.2160   19.8419 C   0  0  0  0  0  0  0  0  0  0  0  0
   13.6837  -15.1539   20.8532 C   0  0  0  0  0  0  0  0  0  0  0  0
   12.9006  -14.9913   22.0963 C   0  0  0  0  0  0  0  0  0  0  0  0
   11.5892  -15.7259   22.1124 C   0  0  2  0  0  0  0  0  0  0  0  0
   10.8237  -15.2312   20.9878 N   0  0  0  0  0  0  0  0  0  0  0  0
   10.8065  -15.4935   23.3540 C   0  0  0  0  0  0  0  0  0  0  0  0
   10.4847  -14.3253   23.6646 O   0  0  0  0  0  0  0  0  0  0  0  0
   14.5337  -16.2177   20.6309 C   0  0  0  0  0  0  0  0  0  0  0  0
   15.2588  -16.3345   19.4465 C   0  0  0  0  0  0  0  0  0  0  0  0
    6.3862  -14.2776   24.3930 C   0  0  0  0  0  0  0  0  0  0  0  0
    7.7502  -14.4962   24.9312 C   0  0  1  0  0  0  0  0  0  0  0  0
    7.8862  -13.9834   26.3658 C   0  0  0  0  0  0  0  0  0  0  0  0
    8.2683  -15.8589   24.8002 C   0  0  0  0  0  0  0  0  0  0  0  0
    9.5736  -16.2563   25.3754 C   0  0  2  0  0  0  0  0  0  0  0  0
   10.4208  -16.5565   24.1854 N   0  0  0  0  0  0  0  0  0  0  0  0
    9.6515  -17.4641   26.1876 C   0  0  0  0  0  0  0  0  0  0  0  0
    9.9209  -18.7007   25.6453 O   0  0  0  0  0  0  0  0  0  0  0  0
    9.4692  -17.4627   27.4548 O   0  0  0  0  0  0  0  0  0  0  0  0
  2  1  1  1
  2  4  1  0
  3  2  1  0
  5  4  1  0
  5  6  1  6
  7  5  1  0
  7  8  2  0
  9 10  1  0
 10 20  2  0
 10 11  1  0
 11 12  2  0
 12 13  1  0
 13 14  1  0
 15 14  1  1
 15 16  1  0
 15 17  1  0
 16  7  1  0
 17 18  2  0
 19 13  2  0
 20 19  1  0
 22 21  1  1
 22 24  1  0
 23 22  1  0
 25 24  1  6
 25 27  1  0
 26 17  1  0
 26 25  1  0
 27 29  2  0
 27 28  1  0
M  END
$$$$
