LYL.pdb
     RDKit          3D

 29 29  0  0  1  0  0  0  0  0999 V2000
    9.4175  -13.7429   19.0165 C   0  0  0  0  0  0  0  0  0  0  0  0
    7.9114  -13.6976   18.9164 C   0  0  2  0  0  0  0  0  0  0  0  0
    7.3900  -12.2851   18.8903 C   0  0  0  0  0  0  0  0  0  0  0  0
    7.2252  -14.4606   20.0052 C   0  0  0  0  0  0  0  0  0  0  0  0
    7.7136  -15.8605   20.1844 C   0  0  2  0  0  0  0  0  0  0  0  0
    7.1106  -16.7076   19.1681 N   0  0  0  0  0  0  0  0  0  0  0  0
    7.3501  -16.3168   21.5504 C   0  0  0  0  0  0  0  0  0  0  0  0
    6.1700  -16.6984   21.7612 O   0  0  0  0  0  0  0  0  0  0  0  0
    7.8232  -20.4396   29.2467 O   0  0  0  0  0  0  0  0  0  0  0  0
    8.0192  -19.8729   27.9880 C   0  0  0  0  0  0  0  0  0  0  0  0
    6.9685  -19.6565   27.1225 C   0  0  0  0  0  0  0  0  0  0  0  0
    7.1691  -19.0953   25.8785 C   0  0  0  0  0  0  0  0  0  0  0  0
    8.4227  -18.7211   25.4321 C   0  0  0  0  0  0  0  0  0  0  0  0
    8.5913  -18.1269   24.0892 C   0  0  0  0  0  0  0  0  0  0  0  0
    8.0248  -16.7425   23.9401 C   0  0  2  0  0  0  0  0  0  0  0  0
    8.3171  -16.3191   22.5871 N   0  0  0  0  0  0  0  0  0  0  0  0
    8.6265  -15.7624   24.8810 C   0  0  0  0  0  0  0  0  0  0  0  0
    9.8181  -15.4158   24.7240 O   0  0  0  0  0  0  0  0  0  0  0  0
    9.4745  -18.9379   26.2985 C   0  0  0  0  0  0  0  0  0  0  0  0
    9.2762  -19.5045   27.5562 C   0  0  0  0  0  0  0  0  0  0  0  0
    5.6130  -11.7571   27.0264 C   0  0  0  0  0  0  0  0  0  0  0  0
    6.7703  -12.4720   26.4368 C   0  0  1  0  0  0  0  0  0  0  0  0
    7.7385  -11.5137   25.7413 C   0  0  0  0  0  0  0  0  0  0  0  0
    7.4765  -13.3809   27.3410 C   0  0  0  0  0  0  0  0  0  0  0  0
    8.5659  -14.2641   26.8658 C   0  0  2  0  0  0  0  0  0  0  0  0
    7.8865  -15.2174   25.9419 N   0  0  0  0  0  0  0  0  0  0  0  0
    9.2535  -15.1196   27.8250 C   0  0  0  0  0  0  0  0  0  0  0  0
   10.3611  -14.6986   28.5263 O   0  0  0  0  0  0  0  0  0  0  0  0
    8.8832  -16.3188   28.0774 O   0  0  0  0  0  0  0  0  0  0  0  0
  2  1  1  1
  2  4  1  0
  3  2  1  0
  5  4  1  0
  5  6  1  6
  7  5  1  0
  7  8  2  0
  9 10  1  0
 10 20  2  0
 10 11  1  0
 11 12  2  0
 12 13  1  0
 13 14  1  0
 15 14  1  1
 15 16  1  0
 15 17  1  0
 16  7  1  0
 17 18  2  0
 19 13  2  0
 20 19  1  0
 22 21  1  1
 22 24  1  0
 23 22  1  0
 25 24  1  1
 25 27  1  0
 26 17  1  0
 26 25  1  0
 27 29  2  0
 27 28  1  0
M  END
$$$$
