LYL.pdb
     RDKit          3D

 29 29  0  0  1  0  0  0  0  0999 V2000
    8.8433  -14.2319   16.1553 C   0  0  0  0  0  0  0  0  0  0  0  0
    8.5590  -14.9696   17.4419 C   0  0  2  0  0  0  0  0  0  0  0  0
    7.1615  -14.7141   17.9416 C   0  0  0  0  0  0  0  0  0  0  0  0
    9.5397  -14.6594   18.5283 C   0  0  0  0  0  0  0  0  0  0  0  0
    9.8453  -15.8065   19.4343 C   0  0  2  0  0  0  0  0  0  0  0  0
    8.8232  -16.8275   19.2691 N   0  0  0  0  0  0  0  0  0  0  0  0
    9.8857  -15.3070   20.8325 C   0  0  0  0  0  0  0  0  0  0  0  0
   10.8481  -14.5753   21.1806 O   0  0  0  0  0  0  0  0  0  0  0  0
    5.4207  -11.7217   27.6070 O   0  0  0  0  0  0  0  0  0  0  0  0
    5.8467  -12.5010   26.5321 C   0  0  0  0  0  0  0  0  0  0  0  0
    5.7115  -13.8727   26.5370 C   0  0  0  0  0  0  0  0  0  0  0  0
    6.1349  -14.6379   25.4704 C   0  0  0  0  0  0  0  0  0  0  0  0
    6.7135  -14.0794   24.3461 C   0  0  0  0  0  0  0  0  0  0  0  0
    7.1563  -14.9389   23.2280 C   0  0  0  0  0  0  0  0  0  0  0  0
    8.6411  -14.9476   22.9933 C   0  0  2  0  0  0  0  0  0  0  0  0
    8.8592  -15.6518   21.7475 N   0  0  0  0  0  0  0  0  0  0  0  0
    9.3964  -15.6442   24.0668 C   0  0  0  0  0  0  0  0  0  0  0  0
    9.8926  -16.7687   23.8348 O   0  0  0  0  0  0  0  0  0  0  0  0
    6.8489  -12.7063   24.3414 C   0  0  0  0  0  0  0  0  0  0  0  0
    6.4224  -11.9294   25.4168 C   0  0  0  0  0  0  0  0  0  0  0  0
   12.5354  -15.5236   28.6095 C   0  0  0  0  0  0  0  0  0  0  0  0
   11.0840  -15.2621   28.7613 C   0  0  1  0  0  0  0  0  0  0  0  0
   10.7998  -14.2537   29.8757 C   0  0  0  0  0  0  0  0  0  0  0  0
   10.3749  -14.9107   27.5301 C   0  0  0  0  0  0  0  0  0  0  0  0
   10.4497  -15.7573   26.3175 C   0  0  2  0  0  0  0  0  0  0  0  0
    9.5648  -15.0673   25.3352 N   0  0  0  0  0  0  0  0  0  0  0  0
    9.9346  -17.1198   26.3720 C   0  0  0  0  0  0  0  0  0  0  0  0
    8.5862  -17.3983   26.3751 O   0  0  0  0  0  0  0  0  0  0  0  0
   10.6946  -18.1486   26.4276 O   0  0  0  0  0  0  0  0  0  0  0  0
  2  1  1  6
  2  4  1  0
  3  2  1  0
  5  4  1  0
  5  6  1  1
  7  5  1  0
  7  8  2  0
  9 10  1  0
 10 20  2  0
 10 11  1  0
 11 12  2  0
 12 13  1  0
 13 14  1  0
 15 14  1  1
 15 16  1  0
 15 17  1  0
 16  7  1  0
 17 18  2  0
 19 13  2  0
 20 19  1  0
 22 21  1  6
 22 24  1  0
 23 22  1  0
 25 24  1  1
 25 27  1  0
 26 17  1  0
 26 25  1  0
 27 29  2  0
 27 28  1  0
M  END
$$$$
