LYL.pdb
     RDKit          3D

 29 29  0  0  1  0  0  0  0  0999 V2000
    9.5906  -13.3763   18.7907 C   0  0  0  0  0  0  0  0  0  0  0  0
    8.1827  -13.4089   19.3360 C   0  0  2  0  0  0  0  0  0  0  0  0
    7.6664  -12.0290   19.6475 C   0  0  0  0  0  0  0  0  0  0  0  0
    8.0390  -14.2780   20.5453 C   0  0  0  0  0  0  0  0  0  0  0  0
    8.5641  -15.6660   20.3776 C   0  0  2  0  0  0  0  0  0  0  0  0
    7.7222  -16.3811   19.4321 N   0  0  0  0  0  0  0  0  0  0  0  0
    8.5695  -16.3330   21.7047 C   0  0  0  0  0  0  0  0  0  0  0  0
    7.4967  -16.8359   22.1278 O   0  0  0  0  0  0  0  0  0  0  0  0
   12.3879  -20.5772   28.5892 O   0  0  0  0  0  0  0  0  0  0  0  0
   12.1088  -19.8283   27.4468 C   0  0  0  0  0  0  0  0  0  0  0  0
   12.9975  -18.8928   26.9622 C   0  0  0  0  0  0  0  0  0  0  0  0
   12.7153  -18.1552   25.8313 C   0  0  0  0  0  0  0  0  0  0  0  0
   11.5370  -18.3097   25.1254 C   0  0  0  0  0  0  0  0  0  0  0  0
   11.2750  -17.4944   23.9207 C   0  0  0  0  0  0  0  0  0  0  0  0
    9.8432  -17.0693   23.7499 C   0  0  2  0  0  0  0  0  0  0  0  0
    9.7608  -16.3968   22.4707 N   0  0  0  0  0  0  0  0  0  0  0  0
    9.3843  -16.1305   24.8063 C   0  0  0  0  0  0  0  0  0  0  0  0
    9.3156  -16.5280   25.9903 O   0  0  0  0  0  0  0  0  0  0  0  0
   10.6473  -19.2461   25.6107 C   0  0  0  0  0  0  0  0  0  0  0  0
   10.9285  -19.9935   26.7528 C   0  0  0  0  0  0  0  0  0  0  0  0
    5.4517  -11.9079   25.8950 C   0  0  0  0  0  0  0  0  0  0  0  0
    6.8081  -12.3605   26.2863 C   0  0  1  0  0  0  0  0  0  0  0  0
    6.8496  -12.8521   27.7342 C   0  0  0  0  0  0  0  0  0  0  0  0
    7.4384  -13.3203   25.3787 C   0  0  0  0  0  0  0  0  0  0  0  0
    8.7943  -13.8590   25.6311 C   0  0  2  0  0  0  0  0  0  0  0  0
    9.0263  -14.8074   24.5039 N   0  0  0  0  0  0  0  0  0  0  0  0
    9.0278  -14.6574   26.8281 C   0  0  0  0  0  0  0  0  0  0  0  0
    8.4057  -15.8673   27.0398 O   0  0  0  0  0  0  0  0  0  0  0  0
    9.8180  -14.2896   27.7658 O   0  0  0  0  0  0  0  0  0  0  0  0
  2  1  1  1
  2  4  1  0
  3  2  1  0
  5  4  1  0
  5  6  1  6
  7  5  1  0
  7  8  2  0
  9 10  1  0
 10 20  2  0
 10 11  1  0
 11 12  2  0
 12 13  1  0
 13 14  1  0
 15 14  1  1
 15 16  1  0
 15 17  1  0
 16  7  1  0
 17 18  2  0
 19 13  2  0
 20 19  1  0
 22 21  1  6
 22 24  1  0
 23 22  1  0
 25 24  1  1
 25 27  1  0
 26 17  1  0
 26 25  1  0
 27 29  2  0
 27 28  1  0
M  END
$$$$
