LYL.pdb
     RDKit          3D

 29 29  0  0  1  0  0  0  0  0999 V2000
    9.8023  -14.2882   19.2023 C   0  0  0  0  0  0  0  0  0  0  0  0
    8.3914  -13.9118   18.8175 C   0  0  2  0  0  0  0  0  0  0  0  0
    8.1961  -12.4190   18.7803 C   0  0  0  0  0  0  0  0  0  0  0  0
    7.3547  -14.5267   19.7039 C   0  0  0  0  0  0  0  0  0  0  0  0
    7.5938  -15.9634   20.0338 C   0  0  2  0  0  0  0  0  0  0  0  0
    6.7870  -16.7933   19.1537 N   0  0  0  0  0  0  0  0  0  0  0  0
    7.2390  -16.1868   21.4587 C   0  0  0  0  0  0  0  0  0  0  0  0
    6.0626  -15.9395   21.8298 O   0  0  0  0  0  0  0  0  0  0  0  0
    7.8382  -20.4824   29.2282 O   0  0  0  0  0  0  0  0  0  0  0  0
    7.9662  -19.9839   27.9324 C   0  0  0  0  0  0  0  0  0  0  0  0
    9.1985  -19.6812   27.3942 C   0  0  0  0  0  0  0  0  0  0  0  0
    9.3183  -19.1884   26.1115 C   0  0  0  0  0  0  0  0  0  0  0  0
    8.2208  -18.9715   25.2996 C   0  0  0  0  0  0  0  0  0  0  0  0
    8.3963  -18.4379   23.9324 C   0  0  0  0  0  0  0  0  0  0  0  0
    7.8977  -17.0330   23.7383 C   0  0  2  0  0  0  0  0  0  0  0  0
    8.2099  -16.6678   22.3729 N   0  0  0  0  0  0  0  0  0  0  0  0
    8.5468  -16.0538   24.6482 C   0  0  0  0  0  0  0  0  0  0  0  0
    9.6925  -15.6320   24.3761 O   0  0  0  0  0  0  0  0  0  0  0  0
    6.9873  -19.2743   25.8386 C   0  0  0  0  0  0  0  0  0  0  0  0
    6.8618  -19.7725   27.1340 C   0  0  0  0  0  0  0  0  0  0  0  0
    5.5893  -12.2407   27.2981 C   0  0  0  0  0  0  0  0  0  0  0  0
    6.7464  -12.8149   26.5706 C   0  0  1  0  0  0  0  0  0  0  0  0
    7.6613  -11.7271   26.0054 C   0  0  0  0  0  0  0  0  0  0  0  0
    7.5099  -13.8281   27.3005 C   0  0  0  0  0  0  0  0  0  0  0  0
    8.6049  -14.5919   26.6601 C   0  0  2  0  0  0  0  0  0  0  0  0
    7.9018  -15.5922   25.8063 N   0  0  0  0  0  0  0  0  0  0  0  0
    9.4934  -15.3911   27.4947 C   0  0  0  0  0  0  0  0  0  0  0  0
    9.3029  -16.7404   27.6925 O   0  0  0  0  0  0  0  0  0  0  0  0
   10.5044  -14.8973   28.1055 O   0  0  0  0  0  0  0  0  0  0  0  0
  2  1  1  1
  2  4  1  0
  3  2  1  0
  5  4  1  0
  5  6  1  6
  7  5  1  0
  7  8  2  0
  9 10  1  0
 10 20  2  0
 10 11  1  0
 11 12  2  0
 12 13  1  0
 13 14  1  0
 15 14  1  1
 15 16  1  0
 15 17  1  0
 16  7  1  0
 17 18  2  0
 19 13  2  0
 20 19  1  0
 22 21  1  1
 22 24  1  0
 23 22  1  0
 25 24  1  1
 25 27  1  0
 26 17  1  0
 26 25  1  0
 27 29  2  0
 27 28  1  0
M  END
$$$$
