LYL.pdb
     RDKit          3D

 29 29  0  0  1  0  0  0  0  0999 V2000
    5.3042  -20.9638   22.7103 C   0  0  0  0  0  0  0  0  0  0  0  0
    6.3613  -20.4987   23.6832 C   0  0  2  0  0  0  0  0  0  0  0  0
    6.0101  -20.8451   25.1060 C   0  0  0  0  0  0  0  0  0  0  0  0
    6.6492  -19.0338   23.5849 C   0  0  0  0  0  0  0  0  0  0  0  0
    7.0942  -18.5783   22.2341 C   0  0  2  0  0  0  0  0  0  0  0  0
    7.6233  -19.7162   21.4998 N   0  0  0  0  0  0  0  0  0  0  0  0
    8.1250  -17.5229   22.4069 C   0  0  0  0  0  0  0  0  0  0  0  0
    9.3375  -17.8534   22.3488 O   0  0  0  0  0  0  0  0  0  0  0  0
    7.5940  -13.9697   16.3871 O   0  0  0  0  0  0  0  0  0  0  0  0
    7.6838  -13.9537   17.7784 C   0  0  0  0  0  0  0  0  0  0  0  0
    8.7357  -13.3429   18.4266 C   0  0  0  0  0  0  0  0  0  0  0  0
    8.8186  -13.3305   19.8034 C   0  0  0  0  0  0  0  0  0  0  0  0
    7.8614  -13.9239   20.6049 C   0  0  0  0  0  0  0  0  0  0  0  0
    7.9933  -13.8897   22.0768 C   0  0  0  0  0  0  0  0  0  0  0  0
    8.6889  -15.0819   22.6723 C   0  0  2  0  0  0  0  0  0  0  0  0
    7.7425  -16.1764   22.6317 N   0  0  0  0  0  0  0  0  0  0  0  0
    9.1035  -14.8695   24.0833 C   0  0  0  0  0  0  0  0  0  0  0  0
   10.0041  -14.0396   24.3381 O   0  0  0  0  0  0  0  0  0  0  0  0
    6.8086  -14.5355   19.9559 C   0  0  0  0  0  0  0  0  0  0  0  0
    6.7209  -14.5503   18.5651 C   0  0  0  0  0  0  0  0  0  0  0  0
    6.2184  -12.2977   26.9328 C   0  0  0  0  0  0  0  0  0  0  0  0
    7.5059  -12.9389   26.5732 C   0  0  1  0  0  0  0  0  0  0  0  0
    8.7045  -12.1324   27.0756 C   0  0  0  0  0  0  0  0  0  0  0  0
    7.6268  -14.3532   26.9303 C   0  0  0  0  0  0  0  0  0  0  0  0
    8.8041  -15.1600   26.5357 C   0  0  2  0  0  0  0  0  0  0  0  0
    8.5064  -15.5803   25.1362 N   0  0  0  0  0  0  0  0  0  0  0  0
    9.0745  -16.4086   27.2375 C   0  0  0  0  0  0  0  0  0  0  0  0
    8.8819  -17.6398   26.6518 O   0  0  0  0  0  0  0  0  0  0  0  0
    9.5012  -16.4497   28.4438 O   0  0  0  0  0  0  0  0  0  0  0  0
  2  1  1  6
  2  4  1  0
  3  2  1  0
  5  4  1  0
  5  6  1  1
  7  5  1  0
  7  8  2  0
  9 10  1  0
 10 20  2  0
 10 11  1  0
 11 12  2  0
 12 13  1  0
 13 14  1  0
 15 14  1  1
 15 16  1  0
 15 17  1  0
 16  7  1  0
 17 18  2  0
 19 13  2  0
 20 19  1  0
 22 21  1  1
 22 24  1  0
 23 22  1  0
 25 24  1  1
 25 27  1  0
 26 17  1  0
 26 25  1  0
 27 29  2  0
 27 28  1  0
M  END
$$$$
