RLF.pdb
     RDKit          3D

 31 31  0  0  1  0  0  0  0  0999 V2000
   25.0794  -18.6940  -18.2626 N   0  0  0  0  0  0  0  0  0  0  0  0
   25.9057  -17.9688  -19.1537 C   0  0  0  0  0  0  0  0  0  0  0  0
   25.5048  -16.8362  -19.5953 N   0  0  0  0  0  0  0  0  0  0  0  0
   27.1839  -18.4851  -19.5704 N   0  0  0  0  0  0  0  0  0  0  0  0
   27.8568  -19.4615  -18.7652 C   0  0  0  0  0  0  0  0  0  0  0  0
   28.3751  -18.8129  -17.4753 C   0  0  0  0  0  0  0  0  0  0  0  0
   27.8434  -19.5287  -16.2721 C   0  0  0  0  0  0  0  0  0  0  0  0
   28.8386  -20.4549  -15.6271 C   0  0  2  0  0  0  0  0  0  0  0  0
   29.0414  -21.5544  -16.5893 N   0  0  0  0  0  0  0  0  0  0  0  0
   28.3327  -21.0040  -14.3409 C   0  0  0  0  0  0  0  0  0  0  0  0
   27.5722  -21.9818  -14.3034 O   0  0  0  0  0  0  0  0  0  0  0  0
   26.0367  -16.3541  -20.3305 C   0  0  0  0  0  0  0  0  0  0  0  0
   31.6203  -20.8687  -10.0015 C   0  0  1  0  0  0  0  0  0  0  0  0
   30.6555  -21.3785  -11.1228 C   0  0  0  0  0  0  0  0  0  0  0  0
   30.5731  -22.8846  -10.8315 C   0  0  0  0  0  0  0  0  0  0  0  0
   29.3787  -20.6632  -10.9010 C   0  0  2  0  0  0  0  0  0  0  0  0
   28.2369  -20.8426  -11.8151 N   0  0  0  0  0  0  0  0  0  0  0  0
   28.7419  -20.3810  -13.1411 C   0  0  0  0  0  0  0  0  0  0  0  0
   26.9937  -20.1149  -11.5599 O   0  0  0  0  0  0  0  0  0  0  0  0
   26.7672  -19.0207  -12.1119 N   0  0  0  0  0  0  0  0  0  0  0  0
   25.9760  -20.6124  -10.6687 C   0  0  1  0  0  0  0  0  0  0  0  0
   24.6090  -20.3589  -11.0034 C   0  0  0  0  0  0  0  0  0  0  0  0
   24.1362  -21.0666  -12.2295 C   0  0  0  0  0  0  0  0  0  0  0  0
   22.7400  -20.8286  -12.6042 C   0  0  0  0  0  0  0  0  0  0  0  0
   21.7532  -21.7266  -12.2808 C   0  0  0  0  0  0  0  0  0  0  0  0
   20.4157  -21.5342  -12.6112 C   0  0  0  0  0  0  0  0  0  0  0  0
   20.0912  -20.3758  -13.2966 C   0  0  0  0  0  0  0  0  0  0  0  0
   21.0327  -19.4642  -13.6351 C   0  0  0  0  0  0  0  0  0  0  0  0
   22.3718  -19.6852  -13.2896 C   0  0  0  0  0  0  0  0  0  0  0  0
   23.7679  -20.9086   -9.8746 O   0  0  0  0  0  0  0  0  0  0  0  0
   24.1886  -21.8997   -9.2120 O   0  0  0  0  0  0  0  0  0  0  0  0
  2  1  1  0
  2  3  2  0
  4  2  1  0
  5  4  1  0
  6  5  1  0
  7  6  1  0
  8  7  1  0
  8  9  1  6
 10  8  1  0
 10 11  2  0
 13 14  1  1
 13 12  1  0
 16 15  1  6
 15 13  1  0
 16 17  1  0
 17 10  1  0
 18 16  1  0
 19 18  2  0
 20 18  1  0
 21 22  1  1
 21 20  1  0
 22 23  1  0
 23 28  2  0
 24 25  2  0
 24 23  1  0
 25 26  1  0
 26 27  2  0
 28 27  1  0
 29 21  1  0
 30 29  2  0
 31 29  1  0
M  END
$$$$
