RLF.pdb
     RDKit          3D

 31 31  0  0  1  0  0  0  0  0999 V2000
   30.4219  -23.5315  -18.1128 N   0  0  0  0  0  0  0  0  0  0  0  0
   29.4581  -24.0621  -17.2226 C   0  0  0  0  0  0  0  0  0  0  0  0
   29.5320  -25.2945  -16.8844 N   0  0  0  0  0  0  0  0  0  0  0  0
   28.3992  -23.2401  -16.6961 N   0  0  0  0  0  0  0  0  0  0  0  0
   28.5933  -21.8266  -16.5586 C   0  0  0  0  0  0  0  0  0  0  0  0
   29.4177  -21.5288  -15.2998 C   0  0  0  0  0  0  0  0  0  0  0  0
   28.6667  -20.6181  -14.3781 C   0  0  0  0  0  0  0  0  0  0  0  0
   27.1771  -20.6323  -14.5907 C   0  0  2  0  0  0  0  0  0  0  0  0
   26.9279  -19.7237  -15.7258 N   0  0  0  0  0  0  0  0  0  0  0  0
   26.4412  -20.1477  -13.3927 C   0  0  0  0  0  0  0  0  0  0  0  0
   26.3297  -18.9395  -13.1401 O   0  0  0  0  0  0  0  0  0  0  0  0
   28.8233  -25.6991  -16.2601 C   0  0  0  0  0  0  0  0  0  0  0  0
   21.5895  -21.8857  -12.4460 C   0  0  1  0  0  0  0  0  0  0  0  0
   22.8341  -20.9481  -12.5876 C   0  0  0  0  0  0  0  0  0  0  0  0
   22.2265  -19.5536  -12.3727 C   0  0  0  0  0  0  0  0  0  0  0  0
   23.7635  -21.3598  -11.5115 C   0  0  2  0  0  0  0  0  0  0  0  0
   25.0674  -20.6959  -11.3366 N   0  0  0  0  0  0  0  0  0  0  0  0
   25.8604  -21.1056  -12.5323 C   0  0  0  0  0  0  0  0  0  0  0  0
   25.8804  -21.0119  -10.1621 O   0  0  0  0  0  0  0  0  0  0  0  0
   26.9019  -21.7190  -10.2617 N   0  0  0  0  0  0  0  0  0  0  0  0
   25.5516  -20.5328   -8.8430 C   0  0  1  0  0  0  0  0  0  0  0  0
   26.4891  -20.7714   -7.7898 C   0  0  0  0  0  0  0  0  0  0  0  0
   27.4101  -19.6288   -7.5179 C   0  0  0  0  0  0  0  0  0  0  0  0
   28.2119  -19.7335   -6.2962 C   0  0  0  0  0  0  0  0  0  0  0  0
   28.1161  -18.7947   -5.2991 C   0  0  0  0  0  0  0  0  0  0  0  0
   28.8537  -18.8621   -4.1216 C   0  0  0  0  0  0  0  0  0  0  0  0
   29.7159  -19.9351   -3.9728 C   0  0  0  0  0  0  0  0  0  0  0  0
   29.8411  -20.8830   -4.9309 C   0  0  0  0  0  0  0  0  0  0  0  0
   29.0858  -20.7886   -6.1065 C   0  0  0  0  0  0  0  0  0  0  0  0
   25.6907  -20.9529   -6.5196 O   0  0  0  0  0  0  0  0  0  0  0  0
   24.5249  -20.4695   -6.4440 O   0  0  0  0  0  0  0  0  0  0  0  0
  2  1  1  0
  2  3  2  0
  4  2  1  0
  5  4  1  0
  6  5  1  0
  7  6  1  0
  8  7  1  0
  8  9  1  6
 10  8  1  0
 10 11  2  0
 13 14  1  1
 13 12  1  0
 16 15  1  6
 15 13  1  0
 16 17  1  0
 17 10  1  0
 18 16  1  0
 19 18  2  0
 20 18  1  0
 21 22  1  1
 21 20  1  0
 22 23  1  0
 23 28  2  0
 24 25  2  0
 24 23  1  0
 25 26  1  0
 26 27  2  0
 28 27  1  0
 29 21  1  0
 30 29  2  0
 31 29  1  0
M  END
$$$$
