RLF.pdb
     RDKit          3D

 31 31  0  0  1  0  0  0  0  0999 V2000
   30.8095  -31.5824  -15.5707 N   0  0  0  0  0  0  0  0  0  0  0  0
   29.8838  -32.6121  -15.2781 C   0  0  0  0  0  0  0  0  0  0  0  0
   30.3196  -33.7540  -14.8977 N   0  0  0  0  0  0  0  0  0  0  0  0
   28.4655  -32.3954  -15.4036 N   0  0  0  0  0  0  0  0  0  0  0  0
   27.9721  -31.1123  -15.8093 C   0  0  0  0  0  0  0  0  0  0  0  0
   27.7411  -31.0928  -17.3256 C   0  0  0  0  0  0  0  0  0  0  0  0
   27.0212  -29.8452  -17.7356 C   0  0  0  0  0  0  0  0  0  0  0  0
   27.9300  -28.6697  -17.9737 C   0  0  2  0  0  0  0  0  0  0  0  0
   28.2045  -28.1017  -16.6402 N   0  0  0  0  0  0  0  0  0  0  0  0
   27.2898  -27.6388  -18.8333 C   0  0  0  0  0  0  0  0  0  0  0  0
   27.2121  -26.4530  -18.4816 O   0  0  0  0  0  0  0  0  0  0  0  0
   29.6591  -34.5157  -14.6994 C   0  0  0  0  0  0  0  0  0  0  0  0
   28.1436  -26.7942  -24.3256 C   0  0  2  0  0  0  0  0  0  0  0  0
   27.9137  -26.3706  -22.8371 C   0  0  0  0  0  0  0  0  0  0  0  0
   27.3884  -24.9338  -22.9772 C   0  0  0  0  0  0  0  0  0  0  0  0
   26.9076  -27.3184  -22.3073 C   0  0  2  0  0  0  0  0  0  0  0  0
   26.2005  -27.0496  -21.0427 N   0  0  0  0  0  0  0  0  0  0  0  0
   26.7629  -28.0417  -20.0804 C   0  0  0  0  0  0  0  0  0  0  0  0
   24.7452  -27.1902  -20.9918 O   0  0  0  0  0  0  0  0  0  0  0  0
   24.0828  -27.3755  -22.0312 N   0  0  0  0  0  0  0  0  0  0  0  0
   24.0049  -27.1221  -19.7568 C   0  0  1  0  0  0  0  0  0  0  0  0
   22.5816  -27.2448  -19.8204 C   0  0  0  0  0  0  0  0  0  0  0  0
   22.0983  -28.6190  -20.1453 C   0  0  0  0  0  0  0  0  0  0  0  0
   22.5978  -29.6912  -19.2806 C   0  0  0  0  0  0  0  0  0  0  0  0
   22.0795  -29.8933  -18.0256 C   0  0  0  0  0  0  0  0  0  0  0  0
   22.5205  -30.9039  -17.1775 C   0  0  0  0  0  0  0  0  0  0  0  0
   23.5284  -31.7303  -17.6446 C   0  0  0  0  0  0  0  0  0  0  0  0
   24.0674  -31.5661  -18.8753 C   0  0  0  0  0  0  0  0  0  0  0  0
   23.6035  -30.5392  -19.7072 C   0  0  0  0  0  0  0  0  0  0  0  0
   22.0500  -26.9502  -18.4368 O   0  0  0  0  0  0  0  0  0  0  0  0
   22.8608  -26.8042  -17.4777 O   0  0  0  0  0  0  0  0  0  0  0  0
  2  1  1  0
  2  3  2  0
  4  2  1  0
  5  4  1  0
  6  5  1  0
  7  6  1  0
  8  7  1  0
  8  9  1  1
 10  8  1  0
 10 11  2  0
 13 14  1  6
 13 12  1  0
 16 15  1  1
 15 13  1  0
 16 17  1  0
 17 10  1  0
 18 16  1  0
 19 18  2  0
 20 18  1  0
 21 22  1  6
 21 20  1  0
 22 23  1  0
 23 28  2  0
 24 25  2  0
 24 23  1  0
 25 26  1  0
 26 27  2  0
 28 27  1  0
 29 21  1  0
 30 29  2  0
 31 29  1  0
M  END
$$$$
