RLF.pdb
     RDKit          3D

 31 31  0  0  1  0  0  0  0  0999 V2000
   28.2071  -23.4519  -22.6339 N   0  0  0  0  0  0  0  0  0  0  0  0
   28.5221  -22.5304  -21.6071 C   0  0  0  0  0  0  0  0  0  0  0  0
   29.0472  -21.4050  -21.9176 N   0  0  0  0  0  0  0  0  0  0  0  0
   28.2637  -22.8398  -20.2245 N   0  0  0  0  0  0  0  0  0  0  0  0
   27.6530  -24.0883  -19.8740 C   0  0  0  0  0  0  0  0  0  0  0  0
   26.2852  -23.8410  -19.2251 C   0  0  0  0  0  0  0  0  0  0  0  0
   26.3801  -22.7719  -18.1807 C   0  0  0  0  0  0  0  0  0  0  0  0
   25.0615  -22.4267  -17.5431 C   0  0  2  0  0  0  0  0  0  0  0  0
   24.6744  -21.1210  -18.1101 N   0  0  0  0  0  0  0  0  0  0  0  0
   25.1727  -22.3154  -16.0643 C   0  0  0  0  0  0  0  0  0  0  0  0
   25.3195  -23.3134  -15.3443 O   0  0  0  0  0  0  0  0  0  0  0  0
   29.2783  -20.7257  -21.1820 C   0  0  0  0  0  0  0  0  0  0  0  0
   28.5268  -19.0608  -13.0494 C   0  0  1  0  0  0  0  0  0  0  0  0
   27.8017  -20.2965  -13.6783 C   0  0  0  0  0  0  0  0  0  0  0  0
   27.9202  -21.3523  -12.5687 C   0  0  0  0  0  0  0  0  0  0  0  0
   26.4111  -19.8544  -13.9271 C   0  0  2  0  0  0  0  0  0  0  0  0
   25.3081  -20.8272  -14.0193 N   0  0  0  0  0  0  0  0  0  0  0  0
   25.1076  -21.0293  -15.4840 C   0  0  0  0  0  0  0  0  0  0  0  0
   24.0016  -20.4842  -13.4576 O   0  0  0  0  0  0  0  0  0  0  0  0
   23.8699  -20.2454  -12.2414 N   0  0  0  0  0  0  0  0  0  0  0  0
   22.8100  -20.4052  -14.2648 C   0  0  1  0  0  0  0  0  0  0  0  0
   21.6039  -19.9597  -13.6386 C   0  0  0  0  0  0  0  0  0  0  0  0
   21.1495  -18.6068  -14.0753 C   0  0  0  0  0  0  0  0  0  0  0  0
   21.0742  -18.3965  -15.5233 C   0  0  0  0  0  0  0  0  0  0  0  0
   19.8953  -18.5637  -16.2065 C   0  0  0  0  0  0  0  0  0  0  0  0
   19.7803  -18.3665  -17.5788 C   0  0  0  0  0  0  0  0  0  0  0  0
   20.9214  -17.9839  -18.2632 C   0  0  0  0  0  0  0  0  0  0  0  0
   22.1040  -17.8079  -17.6286 C   0  0  0  0  0  0  0  0  0  0  0  0
   22.1897  -18.0143  -16.2460 C   0  0  0  0  0  0  0  0  0  0  0  0
   20.5074  -20.9076  -14.0662 O   0  0  0  0  0  0  0  0  0  0  0  0
   20.7609  -21.8078  -14.9170 O   0  0  0  0  0  0  0  0  0  0  0  0
  2  1  1  0
  2  3  2  0
  4  2  1  0
  5  4  1  0
  6  5  1  0
  7  6  1  0
  8  7  1  0
  8  9  1  6
 10  8  1  0
 10 11  2  0
 13 14  1  6
 13 12  1  0
 16 15  1  1
 15 13  1  0
 16 17  1  0
 17 10  1  0
 18 16  1  0
 19 18  2  0
 20 18  1  0
 21 22  1  1
 21 20  1  0
 22 23  1  0
 23 28  2  0
 24 25  2  0
 24 23  1  0
 25 26  1  0
 26 27  2  0
 28 27  1  0
 29 21  1  0
 30 29  2  0
 31 29  1  0
M  END
$$$$
