RLF.pdb
     RDKit          3D

 31 31  0  0  1  0  0  0  0  0999 V2000
   21.2713  -20.7769  -17.4367 N   0  0  0  0  0  0  0  0  0  0  0  0
   20.6162  -19.6498  -17.9873 C   0  0  0  0  0  0  0  0  0  0  0  0
   19.6264  -19.8279  -18.7792 N   0  0  0  0  0  0  0  0  0  0  0  0
   21.0464  -18.3118  -17.6728 N   0  0  0  0  0  0  0  0  0  0  0  0
   22.0614  -18.1019  -16.6828 C   0  0  0  0  0  0  0  0  0  0  0  0
   21.5713  -18.5927  -15.3146 C   0  0  0  0  0  0  0  0  0  0  0  0
   22.4703  -19.6665  -14.7840 C   0  0  0  0  0  0  0  0  0  0  0  0
   23.2839  -19.2433  -13.5910 C   0  0  2  0  0  0  0  0  0  0  0  0
   24.1827  -18.1801  -14.0787 N   0  0  0  0  0  0  0  0  0  0  0  0
   24.0904  -20.3662  -13.0429 C   0  0  0  0  0  0  0  0  0  0  0  0
   23.5603  -21.3998  -12.6109 O   0  0  0  0  0  0  0  0  0  0  0  0
   19.1992  -19.0243  -19.2562 C   0  0  0  0  0  0  0  0  0  0  0  0
   28.2463  -22.1949  -15.6770 C   0  0  1  0  0  0  0  0  0  0  0  0
   26.9264  -22.0136  -14.8566 C   0  0  0  0  0  0  0  0  0  0  0  0
   26.3225  -23.4259  -14.8813 C   0  0  0  0  0  0  0  0  0  0  0  0
   27.3556  -21.5780  -13.5086 C   0  0  2  0  0  0  0  0  0  0  0  0
   26.3700  -21.2971  -12.4498 N   0  0  0  0  0  0  0  0  0  0  0  0
   25.4963  -20.2322  -13.0235 C   0  0  0  0  0  0  0  0  0  0  0  0
   26.8334  -20.8088  -11.1509 O   0  0  0  0  0  0  0  0  0  0  0  0
   27.9361  -20.2392  -11.0370 N   0  0  0  0  0  0  0  0  0  0  0  0
   26.0548  -20.9570   -9.9469 C   0  0  1  0  0  0  0  0  0  0  0  0
   26.7528  -21.0208   -8.7004 C   0  0  0  0  0  0  0  0  0  0  0  0
   27.4927  -19.7736   -8.3473 C   0  0  0  0  0  0  0  0  0  0  0  0
   28.0959  -19.7469   -7.0123 C   0  0  0  0  0  0  0  0  0  0  0  0
   27.5129  -19.0524   -5.9816 C   0  0  0  0  0  0  0  0  0  0  0  0
   28.0493  -19.0084   -4.6987 C   0  0  0  0  0  0  0  0  0  0  0  0
   29.2246  -19.7059   -4.4776 C   0  0  0  0  0  0  0  0  0  0  0  0
   29.8325  -20.4035   -5.4655 C   0  0  0  0  0  0  0  0  0  0  0  0
   29.2694  -20.4292   -6.7477 C   0  0  0  0  0  0  0  0  0  0  0  0
   25.7112  -21.1882   -7.6183 O   0  0  0  0  0  0  0  0  0  0  0  0
   24.4957  -20.9666   -7.8863 O   0  0  0  0  0  0  0  0  0  0  0  0
  2  1  1  0
  2  3  2  0
  4  2  1  0
  5  4  1  0
  6  5  1  0
  7  6  1  0
  8  7  1  0
  8  9  1  6
 10  8  1  0
 10 11  2  0
 13 14  1  1
 13 12  1  0
 16 15  1  6
 15 13  1  0
 16 17  1  0
 17 10  1  0
 18 16  1  0
 19 18  2  0
 20 18  1  0
 21 22  1  6
 21 20  1  0
 22 23  1  0
 23 28  2  0
 24 25  2  0
 24 23  1  0
 25 26  1  0
 26 27  2  0
 28 27  1  0
 29 21  1  0
 30 29  2  0
 31 29  1  0
M  END
$$$$
