RLF.pdb
     RDKit          3D

 31 31  0  0  1  0  0  0  0  0999 V2000
   19.5691  -24.1385  -11.9059 N   0  0  0  0  0  0  0  0  0  0  0  0
   19.0326  -22.8418  -11.7236 C   0  0  0  0  0  0  0  0  0  0  0  0
   18.3133  -22.6030  -10.6921 N   0  0  0  0  0  0  0  0  0  0  0  0
   19.2810  -21.7927  -12.6785 N   0  0  0  0  0  0  0  0  0  0  0  0
   20.1119  -22.0465  -13.8186 C   0  0  0  0  0  0  0  0  0  0  0  0
   20.9933  -20.8253  -14.1095 C   0  0  0  0  0  0  0  0  0  0  0  0
   22.4430  -21.2002  -14.0830 C   0  0  0  0  0  0  0  0  0  0  0  0
   23.1772  -20.7022  -12.8675 C   0  0  2  0  0  0  0  0  0  0  0  0
   23.0773  -19.2312  -12.9166 N   0  0  0  0  0  0  0  0  0  0  0  0
   24.6085  -21.1060  -12.8799 C   0  0  0  0  0  0  0  0  0  0  0  0
   24.9500  -22.2960  -12.9340 O   0  0  0  0  0  0  0  0  0  0  0  0
   17.9347  -21.6604  -10.5369 C   0  0  0  0  0  0  0  0  0  0  0  0
   28.3111  -17.4758  -14.8943 C   0  0  1  0  0  0  0  0  0  0  0  0
   27.4186  -18.7455  -14.6963 C   0  0  0  0  0  0  0  0  0  0  0  0
   27.9288  -19.6862  -15.7985 C   0  0  0  0  0  0  0  0  0  0  0  0
   27.7123  -19.2256  -13.3272 C   0  0  2  0  0  0  0  0  0  0  0  0
   27.0444  -20.4195  -12.7796 N   0  0  0  0  0  0  0  0  0  0  0  0
   25.5897  -20.0912  -12.8287 C   0  0  0  0  0  0  0  0  0  0  0  0
   27.3367  -20.8384  -11.4087 O   0  0  0  0  0  0  0  0  0  0  0  0
   28.4962  -21.1385  -11.0641 N   0  0  0  0  0  0  0  0  0  0  0  0
   26.3169  -20.9282  -10.3940 C   0  0  1  0  0  0  0  0  0  0  0  0
   26.7347  -21.0767   -9.0345 C   0  0  0  0  0  0  0  0  0  0  0  0
   27.3326  -19.8458   -8.4386 C   0  0  0  0  0  0  0  0  0  0  0  0
   27.6328  -19.9125   -7.0061 C   0  0  0  0  0  0  0  0  0  0  0  0
   28.7468  -20.5668   -6.5419 C   0  0  0  0  0  0  0  0  0  0  0  0
   29.0712  -20.6463   -5.1915 C   0  0  0  0  0  0  0  0  0  0  0  0
   28.2156  -20.0283   -4.2955 C   0  0  0  0  0  0  0  0  0  0  0  0
   27.1065  -19.3725   -4.7103 C   0  0  0  0  0  0  0  0  0  0  0  0
   26.8050  -19.3095   -6.0765 C   0  0  0  0  0  0  0  0  0  0  0  0
   25.4936  -21.3544   -8.2181 O   0  0  0  0  0  0  0  0  0  0  0  0
   24.3560  -21.1211   -8.7180 O   0  0  0  0  0  0  0  0  0  0  0  0
  2  1  1  0
  2  3  2  0
  4  2  1  0
  5  4  1  0
  6  5  1  0
  7  6  1  0
  8  7  1  0
  8  9  1  6
 10  8  1  0
 10 11  2  0
 13 14  1  1
 13 12  1  0
 16 15  1  6
 15 13  1  0
 16 17  1  0
 17 10  1  0
 18 16  1  0
 19 18  2  0
 20 18  1  0
 21 22  1  1
 21 20  1  0
 22 23  1  0
 23 28  2  0
 24 25  2  0
 24 23  1  0
 25 26  1  0
 26 27  2  0
 28 27  1  0
 29 21  1  0
 30 29  2  0
 31 29  1  0
M  END
$$$$
