RLF.pdb
     RDKit          3D

 31 31  0  0  1  0  0  0  0  0999 V2000
   27.6100  -24.2145  -17.8977 N   0  0  0  0  0  0  0  0  0  0  0  0
   26.6167  -24.6343  -16.9812 C   0  0  0  0  0  0  0  0  0  0  0  0
   26.6112  -25.8497  -16.5797 N   0  0  0  0  0  0  0  0  0  0  0  0
   25.6155  -23.7187  -16.4979 N   0  0  0  0  0  0  0  0  0  0  0  0
   25.9391  -22.3334  -16.3234 C   0  0  0  0  0  0  0  0  0  0  0  0
   27.3823  -22.0697  -16.7715 C   0  0  0  0  0  0  0  0  0  0  0  0
   28.2250  -21.6327  -15.6132 C   0  0  0  0  0  0  0  0  0  0  0  0
   27.6144  -20.5216  -14.8026 C   0  0  2  0  0  0  0  0  0  0  0  0
   28.7390  -19.6530  -14.4064 N   0  0  0  0  0  0  0  0  0  0  0  0
   26.9276  -21.0344  -13.5873 C   0  0  0  0  0  0  0  0  0  0  0  0
   27.4447  -21.8939  -12.8595 O   0  0  0  0  0  0  0  0  0  0  0  0
   25.8482  -26.1895  -15.9811 C   0  0  0  0  0  0  0  0  0  0  0  0
   25.9061  -21.5921   -8.7906 C   0  0  2  0  0  0  0  0  0  0  0  0
   25.3987  -20.3158   -9.5401 C   0  0  0  0  0  0  0  0  0  0  0  0
   26.0957  -19.1810   -8.7744 C   0  0  0  0  0  0  0  0  0  0  0  0
   25.8700  -20.4634  -10.9356 C   0  0  1  0  0  0  0  0  0  0  0  0
   24.9532  -20.8903  -12.0073 N   0  0  0  0  0  0  0  0  0  0  0  0
   25.6528  -20.5150  -13.2708 C   0  0  0  0  0  0  0  0  0  0  0  0
   23.6130  -20.3080  -12.0778 O   0  0  0  0  0  0  0  0  0  0  0  0
   23.4501  -19.0724  -12.0682 N   0  0  0  0  0  0  0  0  0  0  0  0
   22.4224  -21.1166  -12.1594 C   0  0  1  0  0  0  0  0  0  0  0  0
   21.6327  -21.0293  -13.3484 C   0  0  0  0  0  0  0  0  0  0  0  0
   22.3391  -21.4683  -14.5877 C   0  0  0  0  0  0  0  0  0  0  0  0
   21.5819  -21.3330  -15.8347 C   0  0  0  0  0  0  0  0  0  0  0  0
   21.4783  -20.1241  -16.4770 C   0  0  0  0  0  0  0  0  0  0  0  0
   20.7758  -19.9555  -17.6658 C   0  0  0  0  0  0  0  0  0  0  0  0
   20.1629  -21.0737  -18.2052 C   0  0  0  0  0  0  0  0  0  0  0  0
   20.2399  -22.2843  -17.6047 C   0  0  0  0  0  0  0  0  0  0  0  0
   20.9539  -22.4237  -16.4080 C   0  0  0  0  0  0  0  0  0  0  0  0
   20.4782  -21.9905  -13.1840 O   0  0  0  0  0  0  0  0  0  0  0  0
   19.3994  -21.7785  -13.8084 O   0  0  0  0  0  0  0  0  0  0  0  0
  2  1  1  0
  2  3  2  0
  4  2  1  0
  5  4  1  0
  6  5  1  0
  7  6  1  0
  8  7  1  0
  8  9  1  1
 10  8  1  0
 10 11  2  0
 13 14  1  1
 13 12  1  0
 16 15  1  6
 15 13  1  0
 16 17  1  0
 17 10  1  0
 18 16  1  0
 19 18  2  0
 20 18  1  0
 21 22  1  1
 21 20  1  0
 22 23  1  0
 23 28  2  0
 24 25  2  0
 24 23  1  0
 25 26  1  0
 26 27  2  0
 28 27  1  0
 29 21  1  0
 30 29  2  0
 31 29  1  0
M  END
$$$$
