RLF.pdb
     RDKit          3D

 31 31  0  0  1  0  0  0  0  0999 V2000
   11.9139  -14.2890  -14.8171 N   0  0  0  0  0  0  0  0  0  0  0  0
   13.0428  -14.8350  -14.1613 C   0  0  0  0  0  0  0  0  0  0  0  0
   13.1104  -16.1009  -13.9842 N   0  0  0  0  0  0  0  0  0  0  0  0
   14.1104  -13.9908  -13.6905 N   0  0  0  0  0  0  0  0  0  0  0  0
   14.3007  -12.6919  -14.2660 C   0  0  0  0  0  0  0  0  0  0  0  0
   15.5165  -12.7038  -15.2013 C   0  0  0  0  0  0  0  0  0  0  0  0
   16.5919  -11.7993  -14.6833 C   0  0  0  0  0  0  0  0  0  0  0  0
   16.1073  -10.4191  -14.3307 C   0  0  2  0  0  0  0  0  0  0  0  0
   16.4097   -9.5786  -15.5047 N   0  0  0  0  0  0  0  0  0  0  0  0
   16.8041   -9.8753  -13.1347 C   0  0  0  0  0  0  0  0  0  0  0  0
   16.8053  -10.4765  -12.0510 O   0  0  0  0  0  0  0  0  0  0  0  0
   13.9087  -16.5072  -13.4807 C   0  0  0  0  0  0  0  0  0  0  0  0
   21.0355   -7.5398  -10.8537 C   0  0  2  0  0  0  0  0  0  0  0  0
   20.2981   -6.5883  -11.8531 C   0  0  0  0  0  0  0  0  0  0  0  0
   21.4600   -5.9842  -12.6563 C   0  0  0  0  0  0  0  0  0  0  0  0
   19.4172   -7.4652  -12.6570 C   0  0  1  0  0  0  0  0  0  0  0  0
   18.1710   -8.0142  -12.0940 N   0  0  0  0  0  0  0  0  0  0  0  0
   17.4773   -8.6396  -13.2576 C   0  0  0  0  0  0  0  0  0  0  0  0
   17.2089   -7.1087  -11.4656 O   0  0  0  0  0  0  0  0  0  0  0  0
   16.4380   -6.4140  -12.1558 N   0  0  0  0  0  0  0  0  0  0  0  0
   17.0997   -6.9689  -10.0351 C   0  0  1  0  0  0  0  0  0  0  0  0
   16.1055   -6.0780   -9.5223 C   0  0  0  0  0  0  0  0  0  0  0  0
   15.4182   -6.5688   -8.2917 C   0  0  0  0  0  0  0  0  0  0  0  0
   14.3057   -7.4968   -8.5103 C   0  0  0  0  0  0  0  0  0  0  0  0
   13.0079   -7.1227   -8.2647 C   0  0  0  0  0  0  0  0  0  0  0  0
   11.9238   -7.9707   -8.4666 C   0  0  0  0  0  0  0  0  0  0  0  0
   12.1930   -9.2444   -8.9379 C   0  0  0  0  0  0  0  0  0  0  0  0
   13.4576   -9.6541   -9.1929 C   0  0  0  0  0  0  0  0  0  0  0  0
   14.5296   -8.7784   -8.9796 C   0  0  0  0  0  0  0  0  0  0  0  0
   16.8185   -4.8127   -9.1048 O   0  0  0  0  0  0  0  0  0  0  0  0
   18.0816   -4.7999   -9.0515 O   0  0  0  0  0  0  0  0  0  0  0  0
  2  1  1  0
  2  3  2  0
  4  2  1  0
  5  4  1  0
  6  5  1  0
  7  6  1  0
  8  7  1  0
  8  9  1  6
 10  8  1  0
 10 11  2  0
 13 14  1  6
 13 12  1  0
 16 15  1  1
 15 13  1  0
 16 17  1  0
 17 10  1  0
 18 16  1  0
 19 18  2  0
 20 18  1  0
 21 22  1  1
 21 20  1  0
 22 23  1  0
 23 28  2  0
 24 25  2  0
 24 23  1  0
 25 26  1  0
 26 27  2  0
 28 27  1  0
 29 21  1  0
 30 29  2  0
 31 29  1  0
M  END
$$$$
