RLF.pdb
     RDKit          3D

 31 31  0  0  1  0  0  0  0  0999 V2000
   24.2348  -15.3133  -18.0062 N   0  0  0  0  0  0  0  0  0  0  0  0
   23.2355  -16.1901  -18.4914 C   0  0  0  0  0  0  0  0  0  0  0  0
   22.9606  -16.1928  -19.7415 N   0  0  0  0  0  0  0  0  0  0  0  0
   22.5254  -17.0734  -17.6028 N   0  0  0  0  0  0  0  0  0  0  0  0
   23.2539  -17.9207  -16.7052 C   0  0  0  0  0  0  0  0  0  0  0  0
   23.4221  -19.3164  -17.3190 C   0  0  0  0  0  0  0  0  0  0  0  0
   24.0211  -20.2633  -16.3253 C   0  0  0  0  0  0  0  0  0  0  0  0
   25.4936  -20.5011  -16.5239 C   0  0  2  0  0  0  0  0  0  0  0  0
   25.5933  -21.5138  -17.5919 N   0  0  0  0  0  0  0  0  0  0  0  0
   26.1444  -21.0130  -15.2884 C   0  0  0  0  0  0  0  0  0  0  0  0
   25.8683  -22.1262  -14.8191 O   0  0  0  0  0  0  0  0  0  0  0  0
   22.1932  -16.7763  -20.0974 C   0  0  0  0  0  0  0  0  0  0  0  0
   30.0988  -19.6771  -11.1680 C   0  0  2  0  0  0  0  0  0  0  0  0
   30.0832  -20.5636  -12.4571 C   0  0  0  0  0  0  0  0  0  0  0  0
   29.7413  -21.9541  -11.9007 C   0  0  0  0  0  0  0  0  0  0  0  0
   29.0210  -19.9934  -13.3161 C   0  0  2  0  0  0  0  0  0  0  0  0
   27.6567  -20.5501  -13.3101 N   0  0  0  0  0  0  0  0  0  0  0  0
   27.1002  -20.1937  -14.6480 C   0  0  0  0  0  0  0  0  0  0  0  0
   26.6950  -20.0785  -12.3135 O   0  0  0  0  0  0  0  0  0  0  0  0
   26.2907  -18.8996  -12.3211 N   0  0  0  0  0  0  0  0  0  0  0  0
   26.1689  -20.9359  -11.2810 C   0  0  1  0  0  0  0  0  0  0  0  0
   25.3078  -20.3529  -10.2994 C   0  0  0  0  0  0  0  0  0  0  0  0
   23.9388  -20.9457  -10.2546 C   0  0  0  0  0  0  0  0  0  0  0  0
   23.0384  -20.5528  -11.3416 C   0  0  0  0  0  0  0  0  0  0  0  0
   23.0534  -21.2053  -12.5493 C   0  0  0  0  0  0  0  0  0  0  0  0
   22.2101  -20.8683  -13.6031 C   0  0  0  0  0  0  0  0  0  0  0  0
   21.3243  -19.8241  -13.3986 C   0  0  0  0  0  0  0  0  0  0  0  0
   21.2764  -19.1539  -12.2235 C   0  0  0  0  0  0  0  0  0  0  0  0
   22.1382  -19.5153  -11.1804 C   0  0  0  0  0  0  0  0  0  0  0  0
   25.9156  -20.6468   -8.9474 O   0  0  0  0  0  0  0  0  0  0  0  0
   26.9632  -21.3512   -8.8769 O   0  0  0  0  0  0  0  0  0  0  0  0
  2  1  1  0
  2  3  2  0
  4  2  1  0
  5  4  1  0
  6  5  1  0
  7  6  1  0
  8  7  1  0
  8  9  1  6
 10  8  1  0
 10 11  2  0
 13 14  1  1
 13 12  1  0
 16 15  1  6
 15 13  1  0
 16 17  1  0
 17 10  1  0
 18 16  1  0
 19 18  2  0
 20 18  1  0
 21 22  1  1
 21 20  1  0
 22 23  1  0
 23 28  2  0
 24 25  2  0
 24 23  1  0
 25 26  1  0
 26 27  2  0
 28 27  1  0
 29 21  1  0
 30 29  2  0
 31 29  1  0
M  END
$$$$
