RLF.pdb
     RDKit          3D

 31 31  0  0  1  0  0  0  0  0999 V2000
   21.6852  -18.6058  -15.8780 N   0  0  0  0  0  0  0  0  0  0  0  0
   21.7537  -20.0165  -15.9672 C   0  0  0  0  0  0  0  0  0  0  0  0
   21.6412  -20.5759  -17.1131 N   0  0  0  0  0  0  0  0  0  0  0  0
   21.9450  -20.8280  -14.7929 N   0  0  0  0  0  0  0  0  0  0  0  0
   21.9952  -20.2122  -13.4995 C   0  0  0  0  0  0  0  0  0  0  0  0
   23.4370  -19.8098  -13.1640 C   0  0  0  0  0  0  0  0  0  0  0  0
   23.9763  -20.6526  -12.0497 C   0  0  0  0  0  0  0  0  0  0  0  0
   25.2503  -21.3747  -12.3958 C   0  0  2  0  0  0  0  0  0  0  0  0
   24.8321  -22.6633  -12.9794 N   0  0  0  0  0  0  0  0  0  0  0  0
   26.0924  -21.6204  -11.1949 C   0  0  0  0  0  0  0  0  0  0  0  0
   25.8253  -22.5182  -10.3835 O   0  0  0  0  0  0  0  0  0  0  0  0
   21.6346  -21.6008  -17.1858 C   0  0  0  0  0  0  0  0  0  0  0  0
   31.5566  -21.5551  -11.3495 C   0  0  1  0  0  0  0  0  0  0  0  0
   30.1452  -22.0576  -10.8984 C   0  0  0  0  0  0  0  0  0  0  0  0
   30.4917  -23.1333   -9.8579 C   0  0  0  0  0  0  0  0  0  0  0  0
   29.4698  -20.8734  -10.3216 C   0  0  2  0  0  0  0  0  0  0  0  0
   28.0970  -20.9622   -9.7935 N   0  0  0  0  0  0  0  0  0  0  0  0
   27.2228  -20.7982  -10.9917 C   0  0  0  0  0  0  0  0  0  0  0  0
   27.6453  -19.9837   -8.8042 O   0  0  0  0  0  0  0  0  0  0  0  0
   26.9408  -19.0119   -9.1398 N   0  0  0  0  0  0  0  0  0  0  0  0
   27.9847  -20.0844   -7.4069 C   0  0  1  0  0  0  0  0  0  0  0  0
   27.6348  -18.9932   -6.5514 C   0  0  0  0  0  0  0  0  0  0  0  0
   26.5874  -19.3187   -5.5392 C   0  0  0  0  0  0  0  0  0  0  0  0
   26.8344  -20.5137   -4.7282 C   0  0  0  0  0  0  0  0  0  0  0  0
   27.5854  -20.4524   -3.5806 C   0  0  0  0  0  0  0  0  0  0  0  0
   27.8365  -21.5614   -2.7793 C   0  0  0  0  0  0  0  0  0  0  0  0
   27.2922  -22.7701   -3.1792 C   0  0  0  0  0  0  0  0  0  0  0  0
   26.5459  -22.8750   -4.3035 C   0  0  0  0  0  0  0  0  0  0  0  0
   26.3103  -21.7410   -5.0910 C   0  0  0  0  0  0  0  0  0  0  0  0
   28.8691  -18.6445   -5.7521 O   0  0  0  0  0  0  0  0  0  0  0  0
   29.8966  -19.3753   -5.8451 O   0  0  0  0  0  0  0  0  0  0  0  0
  2  1  1  0
  2  3  2  0
  4  2  1  0
  5  4  1  0
  6  5  1  0
  7  6  1  0
  8  7  1  0
  8  9  1  1
 10  8  1  0
 10 11  2  0
 13 14  1  1
 13 12  1  0
 16 15  1  6
 15 13  1  0
 16 17  1  0
 17 10  1  0
 18 16  1  0
 19 18  2  0
 20 18  1  0
 21 22  1  1
 21 20  1  0
 22 23  1  0
 23 28  2  0
 24 25  2  0
 24 23  1  0
 25 26  1  0
 26 27  2  0
 28 27  1  0
 29 21  1  0
 30 29  2  0
 31 29  1  0
M  END
$$$$
