RLF.pdb
     RDKit          3D

 31 31  0  0  1  0  0  0  0  0999 V2000
   31.1867  -22.8080  -19.8247 N   0  0  0  0  0  0  0  0  0  0  0  0
   30.5577  -21.8804  -20.6889 C   0  0  0  0  0  0  0  0  0  0  0  0
   30.6959  -22.0132  -21.9545 N   0  0  0  0  0  0  0  0  0  0  0  0
   29.7700  -20.7934  -20.1673 N   0  0  0  0  0  0  0  0  0  0  0  0
   29.4549  -20.7458  -18.7699 C   0  0  0  0  0  0  0  0  0  0  0  0
   28.7016  -22.0166  -18.3569 C   0  0  0  0  0  0  0  0  0  0  0  0
   28.3738  -21.9867  -16.8959 C   0  0  0  0  0  0  0  0  0  0  0  0
   26.9537  -21.5866  -16.5999 C   0  0  2  0  0  0  0  0  0  0  0  0
   26.8952  -20.1297  -16.8237 N   0  0  0  0  0  0  0  0  0  0  0  0
   26.5729  -21.8915  -15.1950 C   0  0  0  0  0  0  0  0  0  0  0  0
   27.1494  -22.7709  -14.5391 O   0  0  0  0  0  0  0  0  0  0  0  0
   30.3289  -21.2935  -22.5895 C   0  0  0  0  0  0  0  0  0  0  0  0
   29.0403  -19.8349  -12.1827 C   0  0  1  0  0  0  0  0  0  0  0  0
   27.9645  -20.9295  -12.4866 C   0  0  0  0  0  0  0  0  0  0  0  0
   27.8608  -21.6753  -11.1476 C   0  0  0  0  0  0  0  0  0  0  0  0
   26.7355  -20.1868  -12.8459 C   0  0  2  0  0  0  0  0  0  0  0  0
   25.4771  -20.8947  -13.1405 N   0  0  0  0  0  0  0  0  0  0  0  0
   25.5242  -21.1475  -14.6104 C   0  0  0  0  0  0  0  0  0  0  0  0
   24.2016  -20.2326  -12.8666 O   0  0  0  0  0  0  0  0  0  0  0  0
   24.0870  -18.9958  -12.9688 N   0  0  0  0  0  0  0  0  0  0  0  0
   23.0231  -20.9605  -12.4676 C   0  0  1  0  0  0  0  0  0  0  0  0
   21.7792  -20.6102  -13.0799 C   0  0  0  0  0  0  0  0  0  0  0  0
   21.7477  -20.8040  -14.5595 C   0  0  0  0  0  0  0  0  0  0  0  0
   21.9993  -19.6061  -15.3646 C   0  0  0  0  0  0  0  0  0  0  0  0
   23.0941  -19.5190  -16.1883 C   0  0  0  0  0  0  0  0  0  0  0  0
   23.3643  -18.4033  -16.9740 C   0  0  0  0  0  0  0  0  0  0  0  0
   22.4726  -17.3465  -16.9043 C   0  0  0  0  0  0  0  0  0  0  0  0
   21.3808  -17.3907  -16.1054 C   0  0  0  0  0  0  0  0  0  0  0  0
   21.1347  -18.5273  -15.3250 C   0  0  0  0  0  0  0  0  0  0  0  0
   20.7345  -21.5537  -12.5303 O   0  0  0  0  0  0  0  0  0  0  0  0
   21.0974  -22.5482  -11.8392 O   0  0  0  0  0  0  0  0  0  0  0  0
  2  1  1  0
  2  3  2  0
  4  2  1  0
  5  4  1  0
  6  5  1  0
  7  6  1  0
  8  7  1  0
  8  9  1  1
 10  8  1  0
 10 11  2  0
 13 14  1  6
 13 12  1  0
 16 15  1  1
 15 13  1  0
 16 17  1  0
 17 10  1  0
 18 16  1  0
 19 18  2  0
 20 18  1  0
 21 22  1  1
 21 20  1  0
 22 23  1  0
 23 28  2  0
 24 25  2  0
 24 23  1  0
 25 26  1  0
 26 27  2  0
 28 27  1  0
 29 21  1  0
 30 29  2  0
 31 29  1  0
M  END
$$$$
