RPS.pdb
     RDKit          3D

 25 25  0  0  1  0  0  0  0  0999 V2000
   21.8626  -22.0081   -7.3478 N   0  0  0  0  0  0  0  0  0  0  0  0
   21.1193  -21.8317   -8.5366 C   0  0  0  0  0  0  0  0  0  0  0  0
   19.9329  -22.3521   -8.5807 N   0  0  0  0  0  0  0  0  0  0  0  0
   21.6642  -21.1108   -9.6329 N   0  0  0  0  0  0  0  0  0  0  0  0
   23.0178  -20.6699   -9.6280 C   0  0  0  0  0  0  0  0  0  0  0  0
   23.9900  -21.7216  -10.1066 C   0  0  0  0  0  0  0  0  0  0  0  0
   24.4359  -21.5201  -11.5089 C   0  0  0  0  0  0  0  0  0  0  0  0
   24.3849  -20.0890  -11.9992 C   0  0  2  0  0  0  0  0  0  0  0  0
   23.0081  -19.7040  -12.1451 N   0  0  0  0  0  0  0  0  0  0  0  0
   25.1023  -19.8718  -13.2567 C   0  0  0  0  0  0  0  0  0  0  0  0
   24.4423  -19.6621  -14.3151 O   0  0  0  0  0  0  0  0  0  0  0  0
   19.2867  -22.2443   -9.3863 N   0  0  0  0  0  0  0  0  0  0  0  0
   26.5254  -19.8863  -13.3464 C   0  0  0  0  0  0  0  0  0  0  0  0
   27.4274  -20.1229  -12.2846 C   0  0  0  0  0  0  0  0  0  0  0  0
   28.8159  -19.9404  -12.8197 C   0  0  0  0  0  0  0  0  0  0  0  0
   28.6158  -19.2507  -14.1230 C   0  0  1  0  0  0  0  0  0  0  0  0
   27.2373  -19.6575  -14.5757 C   0  0  0  0  0  0  0  0  0  0  0  0
   27.2809  -20.8650  -15.4379 O   0  0  0  0  0  0  0  0  0  0  0  0
   27.2241  -21.9872  -14.8810 O   0  0  0  0  0  0  0  0  0  0  0  0
   25.1595  -21.3303  -18.5864 C   0  0  0  0  0  0  0  0  0  0  0  0
   25.8180  -22.3565  -17.9126 C   0  0  1  0  0  0  0  0  0  0  0  0
   27.2631  -21.9327  -17.7354 N   0  0  0  0  0  0  0  0  0  0  0  0
   27.3828  -20.7964  -16.8476 C   0  0  0  0  0  0  0  0  0  0  0  0
   27.7827  -21.5468  -19.0716 O   0  0  0  0  0  0  0  0  0  0  0  0
   28.1464  -20.3772  -19.3599 O   0  0  0  0  0  0  0  0  0  0  0  0
  1  2  1  0
  2  3  2  0
  4  5  1  0
  4  2  1  0
  6  7  1  0
  6  5  1  0
  7  8  1  0
  8  9  1  6
 10 12  1  0
 10  8  1  0
 11 10  2  0
 12 16  1  0
 13 12  1  0
 13 14  1  0
 14 15  1  0
 16 15  1  0
 16 17  1  6
 17 18  2  0
 19 20  1  0
 21 20  1  1
 22 21  1  0
 22 17  1  0
 23 25  1  0
 23 21  1  0
 24 23  2  0
M  END
$$$$
