RPS.pdb
     RDKit          3D

 25 25  0  0  1  0  0  0  0  0999 V2000
   18.8671  -21.3641  -12.8790 N   0  0  0  0  0  0  0  0  0  0  0  0
   19.2361  -22.6469  -12.4152 C   0  0  0  0  0  0  0  0  0  0  0  0
   18.3707  -23.6021  -12.5523 N   0  0  0  0  0  0  0  0  0  0  0  0
   20.5087  -22.8660  -11.8229 N   0  0  0  0  0  0  0  0  0  0  0  0
   21.4603  -21.8138  -11.7054 C   0  0  0  0  0  0  0  0  0  0  0  0
   22.3221  -21.6482  -12.9344 C   0  0  0  0  0  0  0  0  0  0  0  0
   23.3120  -20.5471  -12.8184 C   0  0  0  0  0  0  0  0  0  0  0  0
   24.7221  -20.9844  -12.4848 C   0  0  2  0  0  0  0  0  0  0  0  0
   24.8561  -21.0459  -11.0554 N   0  0  0  0  0  0  0  0  0  0  0  0
   25.7567  -20.1154  -13.0484 C   0  0  0  0  0  0  0  0  0  0  0  0
   26.2716  -19.2176  -12.3214 O   0  0  0  0  0  0  0  0  0  0  0  0
   18.5274  -24.5730  -12.2190 N   0  0  0  0  0  0  0  0  0  0  0  0
   26.2161  -20.2337  -14.3933 C   0  0  0  0  0  0  0  0  0  0  0  0
   25.9033  -21.2759  -15.2948 C   0  0  0  0  0  0  0  0  0  0  0  0
   26.6862  -21.0393  -16.5512 C   0  0  0  0  0  0  0  0  0  0  0  0
   27.7019  -20.0241  -16.1612 C   0  0  1  0  0  0  0  0  0  0  0  0
   27.0814  -19.2670  -15.0155 C   0  0  0  0  0  0  0  0  0  0  0  0
   26.3440  -18.0691  -15.4895 O   0  0  0  0  0  0  0  0  0  0  0  0
   25.1827  -18.2317  -15.9341 O   0  0  0  0  0  0  0  0  0  0  0  0
   26.1674  -13.2173  -15.8010 C   0  0  0  0  0  0  0  0  0  0  0  0
   26.9249  -14.3150  -15.3984 C   0  0  2  0  0  0  0  0  0  0  0  0
   26.1875  -15.5647  -15.8386 N   0  0  0  0  0  0  0  0  0  0  0  0
   26.8969  -16.7670  -15.4580 C   0  0  0  0  0  0  0  0  0  0  0  0
   26.0837  -15.5242  -17.3191 O   0  0  0  0  0  0  0  0  0  0  0  0
   26.9646  -15.9923  -18.0862 O   0  0  0  0  0  0  0  0  0  0  0  0
  1  2  1  0
  2  3  2  0
  4  5  1  0
  4  2  1  0
  6  7  1  0
  6  5  1  0
  7  8  1  0
  8  9  1  1
 10 12  1  0
 10  8  1  0
 11 10  2  0
 12 16  1  0
 13 12  1  0
 13 14  1  0
 14 15  1  0
 16 15  1  0
 16 17  1  6
 17 18  2  0
 19 20  1  0
 21 20  1  1
 22 21  1  0
 22 17  1  0
 23 25  1  0
 23 21  1  0
 24 23  2  0
M  END
$$$$
