RPS.pdb
     RDKit          3D

 25 25  0  0  1  0  0  0  0  0999 V2000
   31.7370  -22.1256  -11.8242 N   0  0  0  0  0  0  0  0  0  0  0  0
   31.1454  -21.3857  -10.7756 C   0  0  0  0  0  0  0  0  0  0  0  0
   31.9412  -20.8050   -9.9332 N   0  0  0  0  0  0  0  0  0  0  0  0
   29.7325  -21.2918  -10.6611 N   0  0  0  0  0  0  0  0  0  0  0  0
   28.8710  -21.9355  -11.5939 C   0  0  0  0  0  0  0  0  0  0  0  0
   27.7288  -21.0612  -12.0534 C   0  0  0  0  0  0  0  0  0  0  0  0
   26.5337  -21.1397  -11.1751 C   0  0  0  0  0  0  0  0  0  0  0  0
   25.5522  -22.2378  -11.5236 C   0  0  2  0  0  0  0  0  0  0  0  0
   26.2353  -23.2309  -12.3060 N   0  0  0  0  0  0  0  0  0  0  0  0
   24.3673  -21.7627  -12.2403 C   0  0  0  0  0  0  0  0  0  0  0  0
   24.1872  -22.1207  -13.4399 O   0  0  0  0  0  0  0  0  0  0  0  0
   31.6140  -20.2989   -9.0875 N   0  0  0  0  0  0  0  0  0  0  0  0
   23.3963  -20.9052  -11.6441 C   0  0  0  0  0  0  0  0  0  0  0  0
   23.5527  -20.1703  -10.4472 C   0  0  0  0  0  0  0  0  0  0  0  0
   22.2464  -19.4952  -10.1554 C   0  0  0  0  0  0  0  0  0  0  0  0
   21.2753  -20.1786  -11.0522 C   0  0  1  0  0  0  0  0  0  0  0  0
   22.0957  -20.6751  -12.2147 C   0  0  0  0  0  0  0  0  0  0  0  0
   22.1293  -19.6852  -13.3202 O   0  0  0  0  0  0  0  0  0  0  0  0
   22.8815  -18.6896  -13.1949 O   0  0  0  0  0  0  0  0  0  0  0  0
   20.7796  -20.7490  -16.9150 C   0  0  0  0  0  0  0  0  0  0  0  0
   21.5725  -19.6035  -16.9288 C   0  0  1  0  0  0  0  0  0  0  0  0
   21.3714  -18.8932  -15.6043 N   0  0  0  0  0  0  0  0  0  0  0  0
   21.3535  -19.8228  -14.4955 C   0  0  0  0  0  0  0  0  0  0  0  0
   20.0594  -18.2006  -15.6633 O   0  0  0  0  0  0  0  0  0  0  0  0
   19.1335  -18.4036  -14.8357 O   0  0  0  0  0  0  0  0  0  0  0  0
  1  2  1  0
  2  3  2  0
  4  5  1  0
  4  2  1  0
  6  7  1  0
  6  5  1  0
  7  8  1  0
  8  9  1  6
 10 12  1  0
 10  8  1  0
 11 10  2  0
 12 16  1  0
 13 12  1  0
 13 14  1  0
 14 15  1  0
 16 15  1  0
 16 17  1  6
 17 18  2  0
 19 20  1  0
 21 20  1  1
 22 21  1  0
 22 17  1  0
 23 25  1  0
 23 21  1  0
 24 23  2  0
M  END
$$$$
