RPS.pdb
     RDKit          3D

 25 25  0  0  1  0  0  0  0  0999 V2000
   16.6347  -24.2266  -12.5790 N   0  0  0  0  0  0  0  0  0  0  0  0
   17.3961  -25.4171  -12.5743 C   0  0  0  0  0  0  0  0  0  0  0  0
   16.7533  -26.5362  -12.6944 N   0  0  0  0  0  0  0  0  0  0  0  0
   18.8098  -25.3737  -12.4413 N   0  0  0  0  0  0  0  0  0  0  0  0
   19.5445  -24.1916  -12.7405 C   0  0  0  0  0  0  0  0  0  0  0  0
   19.3294  -23.6959  -14.1506 C   0  0  0  0  0  0  0  0  0  0  0  0
   20.1026  -22.4688  -14.4702 C   0  0  0  0  0  0  0  0  0  0  0  0
   20.9510  -21.9316  -13.3378 C   0  0  2  0  0  0  0  0  0  0  0  0
   20.1465  -21.0436  -12.5446 N   0  0  0  0  0  0  0  0  0  0  0  0
   22.1637  -21.2444  -13.7856 C   0  0  0  0  0  0  0  0  0  0  0  0
   22.1526  -19.9848  -13.8994 O   0  0  0  0  0  0  0  0  0  0  0  0
   17.2103  -27.4682  -12.6674 N   0  0  0  0  0  0  0  0  0  0  0  0
   23.3699  -21.9353  -14.1040 C   0  0  0  0  0  0  0  0  0  0  0  0
   23.5912  -23.3264  -13.9907 C   0  0  0  0  0  0  0  0  0  0  0  0
   25.0267  -23.5870  -14.3356 C   0  0  0  0  0  0  0  0  0  0  0  0
   25.6604  -22.2412  -14.2962 C   0  0  1  0  0  0  0  0  0  0  0  0
   24.5466  -21.2729  -14.6009 C   0  0  0  0  0  0  0  0  0  0  0  0
   24.4609  -20.9804  -16.0536 O   0  0  0  0  0  0  0  0  0  0  0  0
   23.8090  -21.7723  -16.7751 O   0  0  0  0  0  0  0  0  0  0  0  0
   25.7428  -17.4133  -17.2726 C   0  0  0  0  0  0  0  0  0  0  0  0
   24.8960  -17.9828  -18.2209 C   0  0  1  0  0  0  0  0  0  0  0  0
   24.9540  -19.4872  -18.0400 N   0  0  0  0  0  0  0  0  0  0  0  0
   25.0800  -19.8543  -16.6460 C   0  0  0  0  0  0  0  0  0  0  0  0
   26.1499  -19.9792  -18.7695 O   0  0  0  0  0  0  0  0  0  0  0  0
   27.1255  -20.5346  -18.2012 O   0  0  0  0  0  0  0  0  0  0  0  0
  1  2  1  0
  2  3  2  0
  4  5  1  0
  4  2  1  0
  6  7  1  0
  6  5  1  0
  7  8  1  0
  8  9  1  6
 10 12  1  0
 10  8  1  0
 11 10  2  0
 12 16  1  0
 13 12  1  0
 13 14  1  0
 14 15  1  0
 16 15  1  0
 16 17  1  6
 17 18  2  0
 19 20  1  0
 21 20  1  1
 22 21  1  0
 22 17  1  0
 23 25  1  0
 23 21  1  0
 24 23  2  0
M  END
$$$$
