RPS.pdb
     RDKit          3D

 25 25  0  0  1  0  0  0  0  0999 V2000
   24.5936  -18.0296  -18.5261 N   0  0  0  0  0  0  0  0  0  0  0  0
   24.0500  -17.3023  -17.4433 C   0  0  0  0  0  0  0  0  0  0  0  0
   22.7714  -17.0895  -17.4503 N   0  0  0  0  0  0  0  0  0  0  0  0
   24.8844  -16.8283  -16.3958 N   0  0  0  0  0  0  0  0  0  0  0  0
   26.2920  -17.0395  -16.4191 C   0  0  0  0  0  0  0  0  0  0  0  0
   26.6840  -18.4775  -16.1772 C   0  0  0  0  0  0  0  0  0  0  0  0
   28.1504  -18.7073  -16.2287 C   0  0  0  0  0  0  0  0  0  0  0  0
   28.5886  -20.1254  -15.9325 C   0  0  2  0  0  0  0  0  0  0  0  0
   28.3195  -20.9381  -17.0867 N   0  0  0  0  0  0  0  0  0  0  0  0
   27.9476  -20.7049  -14.7508 C   0  0  0  0  0  0  0  0  0  0  0  0
   26.8771  -21.3638  -14.8903 O   0  0  0  0  0  0  0  0  0  0  0  0
   22.2765  -16.5337  -16.7262 N   0  0  0  0  0  0  0  0  0  0  0  0
   28.4781  -20.5594  -13.4350 C   0  0  0  0  0  0  0  0  0  0  0  0
   29.5779  -19.7546  -13.0615 C   0  0  0  0  0  0  0  0  0  0  0  0
   29.8389  -19.9908  -11.6043 C   0  0  0  0  0  0  0  0  0  0  0  0
   29.0607  -21.2196  -11.2899 C   0  0  2  0  0  0  0  0  0  0  0  0
   27.9327  -21.2372  -12.2890 C   0  0  0  0  0  0  0  0  0  0  0  0
   26.7220  -20.5637  -11.7560 O   0  0  0  0  0  0  0  0  0  0  0  0
   26.7200  -19.3106  -11.7070 O   0  0  0  0  0  0  0  0  0  0  0  0
   23.2231  -22.5200  -11.6478 C   0  0  0  0  0  0  0  0  0  0  0  0
   23.1481  -21.1321  -11.5530 C   0  0  1  0  0  0  0  0  0  0  0  0
   24.3771  -20.6589  -10.8014 N   0  0  0  0  0  0  0  0  0  0  0  0
   25.5845  -21.2756  -11.3071 C   0  0  0  0  0  0  0  0  0  0  0  0
   24.2074  -21.0464   -9.3782 O   0  0  0  0  0  0  0  0  0  0  0  0
   23.2588  -20.6377   -8.6595 O   0  0  0  0  0  0  0  0  0  0  0  0
  1  2  1  0
  2  3  2  0
  4  5  1  0
  4  2  1  0
  6  7  1  0
  6  5  1  0
  7  8  1  0
  8  9  1  6
 10 12  1  0
 10  8  1  0
 11 10  2  0
 12 16  1  0
 13 12  1  0
 13 14  1  0
 14 15  1  0
 16 15  1  0
 16 17  1  1
 17 18  2  0
 19 20  1  0
 21 20  1  6
 22 21  1  0
 22 17  1  0
 23 25  1  0
 23 21  1  0
 24 23  2  0
M  END
$$$$
