RPS.pdb
     RDKit          3D

 25 25  0  0  1  0  0  0  0  0999 V2000
   18.3519  -21.4784  -12.6694 N   0  0  0  0  0  0  0  0  0  0  0  0
   18.8336  -22.8022  -12.5583 C   0  0  0  0  0  0  0  0  0  0  0  0
   18.1080  -23.7456  -13.0718 N   0  0  0  0  0  0  0  0  0  0  0  0
   20.0659  -23.0736  -11.9056 N   0  0  0  0  0  0  0  0  0  0  0  0
   20.9893  -22.0320  -11.6072 C   0  0  0  0  0  0  0  0  0  0  0  0
   21.8991  -21.6913  -12.7633 C   0  0  0  0  0  0  0  0  0  0  0  0
   22.8239  -20.5653  -12.4760 C   0  0  0  0  0  0  0  0  0  0  0  0
   24.2181  -20.9725  -12.0505 C   0  0  2  0  0  0  0  0  0  0  0  0
   24.3040  -20.8838  -10.6188 N   0  0  0  0  0  0  0  0  0  0  0  0
   25.2786  -20.1734  -12.6669 C   0  0  0  0  0  0  0  0  0  0  0  0
   25.5950  -19.0637  -12.1490 O   0  0  0  0  0  0  0  0  0  0  0  0
   18.3737  -24.7493  -13.0561 N   0  0  0  0  0  0  0  0  0  0  0  0
   25.9792  -20.5907  -13.8368 C   0  0  0  0  0  0  0  0  0  0  0  0
   25.8401  -21.8330  -14.4957 C   0  0  0  0  0  0  0  0  0  0  0  0
   26.8416  -21.8699  -15.6107 C   0  0  0  0  0  0  0  0  0  0  0  0
   27.7661  -20.7442  -15.3066 C   0  0  1  0  0  0  0  0  0  0  0  0
   26.9432  -19.7631  -14.5121 C   0  0  0  0  0  0  0  0  0  0  0  0
   26.3045  -18.7508  -15.3899 O   0  0  0  0  0  0  0  0  0  0  0  0
   25.2886  -19.0939  -16.0402 O   0  0  0  0  0  0  0  0  0  0  0  0
   27.9110  -15.0449  -15.5054 C   0  0  0  0  0  0  0  0  0  0  0  0
   26.5561  -15.0077  -15.8275 C   0  0  1  0  0  0  0  0  0  0  0  0
   26.1619  -16.3922  -16.3040 N   0  0  0  0  0  0  0  0  0  0  0  0
   26.7940  -17.4293  -15.5174 C   0  0  0  0  0  0  0  0  0  0  0  0
   26.6121  -16.5250  -17.7126 O   0  0  0  0  0  0  0  0  0  0  0  0
   27.4850  -17.3519  -18.0836 O   0  0  0  0  0  0  0  0  0  0  0  0
  1  2  1  0
  2  3  2  0
  4  5  1  0
  4  2  1  0
  6  7  1  0
  6  5  1  0
  7  8  1  0
  8  9  1  1
 10 12  1  0
 10  8  1  0
 11 10  2  0
 12 16  1  0
 13 12  1  0
 13 14  1  0
 14 15  1  0
 16 15  1  0
 16 17  1  6
 17 18  2  0
 19 20  1  0
 21 20  1  1
 22 21  1  0
 22 17  1  0
 23 25  1  0
 23 21  1  0
 24 23  2  0
M  END
$$$$
