RPS.pdb
     RDKit          3D

 25 25  0  0  1  0  0  0  0  0999 V2000
   24.8911  -20.9345   -9.0250 N   0  0  0  0  0  0  0  0  0  0  0  0
   24.4324  -20.8925  -10.3610 C   0  0  0  0  0  0  0  0  0  0  0  0
   23.1556  -20.7726  -10.5494 N   0  0  0  0  0  0  0  0  0  0  0  0
   25.3464  -20.9805  -11.4450 N   0  0  0  0  0  0  0  0  0  0  0  0
   26.6941  -21.3924  -11.2439 C   0  0  0  0  0  0  0  0  0  0  0  0
   27.4973  -21.4513  -12.5213 C   0  0  0  0  0  0  0  0  0  0  0  0
   26.8197  -20.8082  -13.6759 C   0  0  0  0  0  0  0  0  0  0  0  0
   27.2442  -19.3828  -13.9567 C   0  0  2  0  0  0  0  0  0  0  0  0
   26.9059  -18.5721  -12.8194 N   0  0  0  0  0  0  0  0  0  0  0  0
   26.6483  -18.8192  -15.1693 C   0  0  0  0  0  0  0  0  0  0  0  0
   25.4552  -18.4007  -15.1332 O   0  0  0  0  0  0  0  0  0  0  0  0
   22.7086  -20.7836  -11.4865 N   0  0  0  0  0  0  0  0  0  0  0  0
   27.3563  -18.7193  -16.4031 C   0  0  0  0  0  0  0  0  0  0  0  0
   28.7109  -19.0583  -16.6193 C   0  0  0  0  0  0  0  0  0  0  0  0
   29.0493  -18.6958  -18.0340 C   0  0  0  0  0  0  0  0  0  0  0  0
   27.9239  -17.8227  -18.4649 C   0  0  1  0  0  0  0  0  0  0  0  0
   26.7506  -18.2478  -17.6202 C   0  0  0  0  0  0  0  0  0  0  0  0
   25.9448  -19.2961  -18.2948 O   0  0  0  0  0  0  0  0  0  0  0  0
   25.3816  -18.9999  -19.3754 O   0  0  0  0  0  0  0  0  0  0  0  0
   26.6042  -23.1611  -17.3656 C   0  0  0  0  0  0  0  0  0  0  0  0
   26.0527  -22.8884  -18.6155 C   0  0  1  0  0  0  0  0  0  0  0  0
   25.1354  -21.6912  -18.4583 N   0  0  0  0  0  0  0  0  0  0  0  0
   25.7914  -20.6009  -17.7694 C   0  0  0  0  0  0  0  0  0  0  0  0
   23.9669  -22.1263  -17.6524 O   0  0  0  0  0  0  0  0  0  0  0  0
   23.6573  -21.6072  -16.5487 O   0  0  0  0  0  0  0  0  0  0  0  0
  1  2  1  0
  2  3  2  0
  4  5  1  0
  4  2  1  0
  6  7  1  0
  6  5  1  0
  7  8  1  0
  8  9  1  1
 10 12  1  0
 10  8  1  0
 11 10  2  0
 12 16  1  0
 13 12  1  0
 13 14  1  0
 14 15  1  0
 16 15  1  0
 16 17  1  6
 17 18  2  0
 19 20  1  0
 21 20  1  6
 22 21  1  0
 22 17  1  0
 23 25  1  0
 23 21  1  0
 24 23  2  0
M  END
$$$$
