RPS.pdb
     RDKit          3D

 25 25  0  0  1  0  0  0  0  0999 V2000
   24.9411  -22.0310   -9.2720 N   0  0  0  0  0  0  0  0  0  0  0  0
   23.9150  -21.0713   -9.1193 C   0  0  0  0  0  0  0  0  0  0  0  0
   23.3734  -20.9592   -7.9470 N   0  0  0  0  0  0  0  0  0  0  0  0
   23.5029  -20.2687  -10.2167 N   0  0  0  0  0  0  0  0  0  0  0  0
   24.0003  -20.5011  -11.5302 C   0  0  0  0  0  0  0  0  0  0  0  0
   22.9232  -20.8812  -12.5179 C   0  0  0  0  0  0  0  0  0  0  0  0
   23.4438  -21.1687  -13.8788 C   0  0  0  0  0  0  0  0  0  0  0  0
   23.6094  -19.9579  -14.7717 C   0  0  2  0  0  0  0  0  0  0  0  0
   22.4390  -19.8336  -15.5961 N   0  0  0  0  0  0  0  0  0  0  0  0
   24.8097  -20.0034  -15.6086 C   0  0  0  0  0  0  0  0  0  0  0  0
   24.7095  -20.3837  -16.8107 O   0  0  0  0  0  0  0  0  0  0  0  0
   22.6031  -20.2976   -7.7298 N   0  0  0  0  0  0  0  0  0  0  0  0
   26.1010  -19.6363  -15.1275 C   0  0  0  0  0  0  0  0  0  0  0  0
   26.4021  -19.1340  -13.8415 C   0  0  0  0  0  0  0  0  0  0  0  0
   27.8617  -18.7927  -13.8179 C   0  0  0  0  0  0  0  0  0  0  0  0
   28.2601  -18.7997  -15.2517 C   0  0  1  0  0  0  0  0  0  0  0  0
   27.2950  -19.7422  -15.9235 C   0  0  0  0  0  0  0  0  0  0  0  0
   27.8263  -21.1275  -15.9659 O   0  0  0  0  0  0  0  0  0  0  0  0
   27.9012  -21.7615  -14.8865 O   0  0  0  0  0  0  0  0  0  0  0  0
   27.5054  -23.3034  -19.2833 C   0  0  0  0  0  0  0  0  0  0  0  0
   27.7288  -23.9675  -18.0792 C   0  0  1  0  0  0  0  0  0  0  0  0
   28.6901  -23.1242  -17.2643 N   0  0  0  0  0  0  0  0  0  0  0  0
   28.2456  -21.7507  -17.1651 C   0  0  0  0  0  0  0  0  0  0  0  0
   30.0032  -23.1484  -17.9567 O   0  0  0  0  0  0  0  0  0  0  0  0
   30.5314  -22.1290  -18.4716 O   0  0  0  0  0  0  0  0  0  0  0  0
  1  2  1  0
  2  3  2  0
  4  5  1  0
  4  2  1  0
  6  7  1  0
  6  5  1  0
  7  8  1  0
  8  9  1  6
 10 12  1  0
 10  8  1  0
 11 10  2  0
 12 16  1  0
 13 12  1  0
 13 14  1  0
 14 15  1  0
 16 15  1  0
 16 17  1  1
 17 18  2  0
 19 20  1  0
 21 20  1  1
 22 21  1  0
 22 17  1  0
 23 25  1  0
 23 21  1  0
 24 23  2  0
M  END
$$$$
