RPS.pdb
     RDKit          3D

 25 25  0  0  1  0  0  0  0  0999 V2000
   22.2678  -25.2413  -14.7132 N   0  0  0  0  0  0  0  0  0  0  0  0
   22.1849  -24.0551  -13.9496 C   0  0  0  0  0  0  0  0  0  0  0  0
   21.0674  -23.8170  -13.3375 N   0  0  0  0  0  0  0  0  0  0  0  0
   23.2908  -23.1673  -13.8660 N   0  0  0  0  0  0  0  0  0  0  0  0
   24.4165  -23.3057  -14.7265 C   0  0  0  0  0  0  0  0  0  0  0  0
   25.7377  -23.1903  -14.0044 C   0  0  0  0  0  0  0  0  0  0  0  0
   26.5070  -21.9737  -14.3700 C   0  0  0  0  0  0  0  0  0  0  0  0
   26.5660  -20.9057  -13.2992 C   0  0  2  0  0  0  0  0  0  0  0  0
   26.2415  -21.5068  -12.0349 N   0  0  0  0  0  0  0  0  0  0  0  0
   25.6824  -19.7668  -13.5544 C   0  0  0  0  0  0  0  0  0  0  0  0
   24.5328  -19.7476  -13.0272 O   0  0  0  0  0  0  0  0  0  0  0  0
   20.8937  -22.9674  -12.7665 N   0  0  0  0  0  0  0  0  0  0  0  0
   26.0597  -18.6661  -14.3789 C   0  0  0  0  0  0  0  0  0  0  0  0
   27.2769  -18.5282  -15.0833 C   0  0  0  0  0  0  0  0  0  0  0  0
   27.2772  -17.1749  -15.7282 C   0  0  0  0  0  0  0  0  0  0  0  0
   26.1665  -16.4501  -15.0533 C   0  0  2  0  0  0  0  0  0  0  0  0
   25.2118  -17.5254  -14.6025 C   0  0  0  0  0  0  0  0  0  0  0  0
   24.1661  -17.7884  -15.6227 O   0  0  0  0  0  0  0  0  0  0  0  0
   24.1764  -18.9008  -16.2016 O   0  0  0  0  0  0  0  0  0  0  0  0
   19.8850  -17.8285  -14.7458 C   0  0  0  0  0  0  0  0  0  0  0  0
   21.2395  -17.5305  -14.6146 C   0  0  2  0  0  0  0  0  0  0  0  0
   21.7500  -17.1155  -15.9809 N   0  0  0  0  0  0  0  0  0  0  0  0
   23.1707  -16.8414  -15.9610 C   0  0  0  0  0  0  0  0  0  0  0  0
   21.0332  -15.8741  -16.3676 O   0  0  0  0  0  0  0  0  0  0  0  0
   21.4201  -14.7225  -16.0397 O   0  0  0  0  0  0  0  0  0  0  0  0
  1  2  1  0
  2  3  2  0
  4  5  1  0
  4  2  1  0
  6  7  1  0
  6  5  1  0
  7  8  1  0
  8  9  1  1
 10 12  1  0
 10  8  1  0
 11 10  2  0
 12 16  1  0
 13 12  1  0
 13 14  1  0
 14 15  1  0
 16 15  1  0
 16 17  1  6
 17 18  2  0
 19 20  1  0
 21 20  1  6
 22 21  1  0
 22 17  1  0
 23 25  1  0
 23 21  1  0
 24 23  2  0
M  END
$$$$
