RPS.pdb
     RDKit          3D

 25 25  0  0  1  0  0  0  0  0999 V2000
   21.8675  -21.6474   -7.3993 N   0  0  0  0  0  0  0  0  0  0  0  0
   21.1995  -20.7231   -8.2339 C   0  0  0  0  0  0  0  0  0  0  0  0
   19.9704  -20.4348   -7.9402 N   0  0  0  0  0  0  0  0  0  0  0  0
   21.8616  -20.1416   -9.3482 N   0  0  0  0  0  0  0  0  0  0  0  0
   22.7963  -20.8849  -10.1231 C   0  0  0  0  0  0  0  0  0  0  0  0
   24.2200  -20.7406   -9.6410 C   0  0  0  0  0  0  0  0  0  0  0  0
   25.1688  -20.3395  -10.7109 C   0  0  0  0  0  0  0  0  0  0  0  0
   25.3014  -21.3237  -11.8531 C   0  0  2  0  0  0  0  0  0  0  0  0
   26.3755  -22.2302  -11.5539 N   0  0  0  0  0  0  0  0  0  0  0  0
   25.5277  -20.6897  -13.1531 C   0  0  0  0  0  0  0  0  0  0  0  0
   26.7138  -20.5175  -13.5573 O   0  0  0  0  0  0  0  0  0  0  0  0
   19.3733  -19.8085   -8.5141 N   0  0  0  0  0  0  0  0  0  0  0  0
   24.4629  -20.2513  -13.9944 C   0  0  0  0  0  0  0  0  0  0  0  0
   23.0834  -20.3054  -13.6933 C   0  0  0  0  0  0  0  0  0  0  0  0
   22.3358  -19.8339  -14.9041 C   0  0  0  0  0  0  0  0  0  0  0  0
   23.3516  -19.8586  -15.9913 C   0  0  1  0  0  0  0  0  0  0  0  0
   24.6762  -19.6767  -15.2961 C   0  0  0  0  0  0  0  0  0  0  0  0
   25.0632  -18.2453  -15.2268 O   0  0  0  0  0  0  0  0  0  0  0  0
   24.5570  -17.5430  -14.3195 O   0  0  0  0  0  0  0  0  0  0  0  0
   28.4252  -17.0847  -16.9962 C   0  0  0  0  0  0  0  0  0  0  0  0
   27.9396  -16.1915  -16.0437 C   0  0  1  0  0  0  0  0  0  0  0  0
   26.4260  -16.2806  -16.0642 N   0  0  0  0  0  0  0  0  0  0  0  0
   25.9713  -17.6524  -16.1356 C   0  0  0  0  0  0  0  0  0  0  0  0
   25.9523  -15.5607  -17.2732 O   0  0  0  0  0  0  0  0  0  0  0  0
   25.2563  -16.1021  -18.1710 O   0  0  0  0  0  0  0  0  0  0  0  0
  1  2  1  0
  2  3  2  0
  4  5  1  0
  4  2  1  0
  6  7  1  0
  6  5  1  0
  7  8  1  0
  8  9  1  1
 10 12  1  0
 10  8  1  0
 11 10  2  0
 12 16  1  0
 13 12  1  0
 13 14  1  0
 14 15  1  0
 16 15  1  0
 16 17  1  1
 17 18  2  0
 19 20  1  0
 21 20  1  1
 22 21  1  0
 22 17  1  0
 23 25  1  0
 23 21  1  0
 24 23  2  0
M  END
$$$$
