RPS.pdb
     RDKit          3D

 25 25  0  0  1  0  0  0  0  0999 V2000
   28.0290  -25.6702  -16.3549 N   0  0  0  0  0  0  0  0  0  0  0  0
   27.6426  -24.8968  -17.4728 C   0  0  0  0  0  0  0  0  0  0  0  0
   27.4686  -25.5189  -18.5965 N   0  0  0  0  0  0  0  0  0  0  0  0
   27.4569  -23.4933  -17.3549 N   0  0  0  0  0  0  0  0  0  0  0  0
   27.1762  -22.8879  -16.0973 C   0  0  0  0  0  0  0  0  0  0  0  0
   25.7210  -22.9762  -15.7039 C   0  0  0  0  0  0  0  0  0  0  0  0
   25.0462  -21.6549  -15.6344 C   0  0  0  0  0  0  0  0  0  0  0  0
   25.2221  -20.9124  -14.3273 C   0  0  2  0  0  0  0  0  0  0  0  0
   24.6208  -21.6866  -13.2766 N   0  0  0  0  0  0  0  0  0  0  0  0
   24.6607  -19.5604  -14.3381 C   0  0  0  0  0  0  0  0  0  0  0  0
   23.4956  -19.3726  -13.8832 O   0  0  0  0  0  0  0  0  0  0  0  0
   27.2421  -25.0407  -19.4900 N   0  0  0  0  0  0  0  0  0  0  0  0
   25.3723  -18.4327  -14.8436 C   0  0  0  0  0  0  0  0  0  0  0  0
   26.6690  -18.4458  -15.4052 C   0  0  0  0  0  0  0  0  0  0  0  0
   27.0489  -17.0265  -15.7027 C   0  0  0  0  0  0  0  0  0  0  0  0
   26.0491  -16.2176  -14.9540 C   0  0  2  0  0  0  0  0  0  0  0  0
   24.8318  -17.0993  -14.8454 C   0  0  0  0  0  0  0  0  0  0  0  0
   23.8913  -16.8710  -15.9709 O   0  0  0  0  0  0  0  0  0  0  0  0
   24.1265  -17.4476  -17.0595 O   0  0  0  0  0  0  0  0  0  0  0  0
   20.0649  -16.7351  -15.5296 C   0  0  0  0  0  0  0  0  0  0  0  0
   20.3782  -15.6318  -16.3204 C   0  0  2  0  0  0  0  0  0  0  0  0
   21.7605  -15.8627  -16.8992 N   0  0  0  0  0  0  0  0  0  0  0  0
   22.7534  -16.0372  -15.8612 C   0  0  0  0  0  0  0  0  0  0  0  0
   22.1164  -14.6633  -17.6986 O   0  0  0  0  0  0  0  0  0  0  0  0
   23.0537  -13.8819  -17.3917 O   0  0  0  0  0  0  0  0  0  0  0  0
  1  2  1  0
  2  3  2  0
  4  5  1  0
  4  2  1  0
  6  7  1  0
  6  5  1  0
  7  8  1  0
  8  9  1  1
 10 12  1  0
 10  8  1  0
 11 10  2  0
 12 16  1  0
 13 12  1  0
 13 14  1  0
 14 15  1  0
 16 15  1  0
 16 17  1  6
 17 18  2  0
 19 20  1  0
 21 20  1  6
 22 21  1  0
 22 17  1  0
 23 25  1  0
 23 21  1  0
 24 23  2  0
M  END
$$$$
