RPS.pdb
     RDKit          3D

 25 25  0  0  1  0  0  0  0  0999 V2000
   26.2811  -17.0523  -18.3233 N   0  0  0  0  0  0  0  0  0  0  0  0
   25.3135  -17.7858  -17.6003 C   0  0  0  0  0  0  0  0  0  0  0  0
   24.3133  -18.2714  -18.2665 N   0  0  0  0  0  0  0  0  0  0  0  0
   25.4444  -17.9745  -16.1983 N   0  0  0  0  0  0  0  0  0  0  0  0
   26.4535  -17.3016  -15.4530 C   0  0  0  0  0  0  0  0  0  0  0  0
   27.7218  -18.1072  -15.3024 C   0  0  0  0  0  0  0  0  0  0  0  0
   27.8276  -18.8046  -13.9954 C   0  0  0  0  0  0  0  0  0  0  0  0
   27.6068  -20.3010  -14.0468 C   0  0  2  0  0  0  0  0  0  0  0  0
   27.9105  -20.7632  -15.3732 N   0  0  0  0  0  0  0  0  0  0  0  0
   26.2519  -20.7094  -13.6716 C   0  0  0  0  0  0  0  0  0  0  0  0
   25.5023  -21.2356  -14.5439 O   0  0  0  0  0  0  0  0  0  0  0  0
   23.5490  -18.8259  -17.8346 N   0  0  0  0  0  0  0  0  0  0  0  0
   25.7309  -20.5394  -12.3550 C   0  0  0  0  0  0  0  0  0  0  0  0
   26.3428  -19.8263  -11.2996 C   0  0  0  0  0  0  0  0  0  0  0  0
   25.4893  -20.0006  -10.0795 C   0  0  0  0  0  0  0  0  0  0  0  0
   24.5806  -21.1259  -10.4289 C   0  0  2  0  0  0  0  0  0  0  0  0
   24.4713  -21.0912  -11.9315 C   0  0  0  0  0  0  0  0  0  0  0  0
   23.3162  -20.2715  -12.3752 O   0  0  0  0  0  0  0  0  0  0  0  0
   23.4226  -19.0235  -12.3127 O   0  0  0  0  0  0  0  0  0  0  0  0
   20.4484  -22.0581  -14.5785 C   0  0  0  0  0  0  0  0  0  0  0  0
   20.5738  -20.6829  -14.7624 C   0  0  1  0  0  0  0  0  0  0  0  0
   21.0268  -20.0856  -13.4443 N   0  0  0  0  0  0  0  0  0  0  0  0
   22.1147  -20.8401  -12.8603 C   0  0  0  0  0  0  0  0  0  0  0  0
   19.8699  -20.1252  -12.5146 O   0  0  0  0  0  0  0  0  0  0  0  0
   18.7853  -19.5268  -12.7358 O   0  0  0  0  0  0  0  0  0  0  0  0
  1  2  1  0
  2  3  2  0
  4  5  1  0
  4  2  1  0
  6  7  1  0
  6  5  1  0
  7  8  1  0
  8  9  1  6
 10 12  1  0
 10  8  1  0
 11 10  2  0
 12 16  1  0
 13 12  1  0
 13 14  1  0
 14 15  1  0
 16 15  1  0
 16 17  1  1
 17 18  2  0
 19 20  1  0
 21 20  1  6
 22 21  1  0
 22 17  1  0
 23 25  1  0
 23 21  1  0
 24 23  2  0
M  END
$$$$
