RPS.pdb
     RDKit          3D

 25 25  0  0  1  0  0  0  0  0999 V2000
   19.5116  -18.8742  -17.4672 N   0  0  0  0  0  0  0  0  0  0  0  0
   18.6458  -19.6053  -16.6228 C   0  0  0  0  0  0  0  0  0  0  0  0
   17.9717  -20.5753  -17.1563 N   0  0  0  0  0  0  0  0  0  0  0  0
   18.5283  -19.2778  -15.2454 N   0  0  0  0  0  0  0  0  0  0  0  0
   19.3630  -18.2925  -14.6461 C   0  0  0  0  0  0  0  0  0  0  0  0
   20.6665  -18.8502  -14.1265 C   0  0  0  0  0  0  0  0  0  0  0  0
   20.4892  -19.9297  -13.1220 C   0  0  0  0  0  0  0  0  0  0  0  0
   21.7723  -20.5549  -12.6185 C   0  0  2  0  0  0  0  0  0  0  0  0
   22.4600  -21.1482  -13.7321 N   0  0  0  0  0  0  0  0  0  0  0  0
   21.5678  -21.5521  -11.5664 C   0  0  0  0  0  0  0  0  0  0  0  0
   21.1562  -22.7058  -11.8815 O   0  0  0  0  0  0  0  0  0  0  0  0
   17.2961  -21.1637  -16.6312 N   0  0  0  0  0  0  0  0  0  0  0  0
   21.8125  -21.2815  -10.1878 C   0  0  0  0  0  0  0  0  0  0  0  0
   22.2722  -20.0607   -9.6444 C   0  0  0  0  0  0  0  0  0  0  0  0
   22.4808  -20.2683   -8.1745 C   0  0  0  0  0  0  0  0  0  0  0  0
   22.4532  -21.7468   -8.0083 C   0  0  1  0  0  0  0  0  0  0  0  0
   21.6083  -22.2550   -9.1480 C   0  0  0  0  0  0  0  0  0  0  0  0
   20.1814  -22.3752   -8.7573 O   0  0  0  0  0  0  0  0  0  0  0  0
   19.4723  -21.3416   -8.7958 O   0  0  0  0  0  0  0  0  0  0  0  0
   18.4904  -25.9836   -8.6614 C   0  0  0  0  0  0  0  0  0  0  0  0
   17.5693  -24.9385   -8.6631 C   0  0  1  0  0  0  0  0  0  0  0  0
   18.2149  -23.7599   -7.9607 N   0  0  0  0  0  0  0  0  0  0  0  0
   19.5997  -23.5986   -8.3483 C   0  0  0  0  0  0  0  0  0  0  0  0
   18.1592  -24.0244   -6.5008 O   0  0  0  0  0  0  0  0  0  0  0  0
   17.0823  -24.1254   -5.8578 O   0  0  0  0  0  0  0  0  0  0  0  0
  1  2  1  0
  2  3  2  0
  4  5  1  0
  4  2  1  0
  6  7  1  0
  6  5  1  0
  7  8  1  0
  8  9  1  6
 10 12  1  0
 10  8  1  0
 11 10  2  0
 12 16  1  0
 13 12  1  0
 13 14  1  0
 14 15  1  0
 16 15  1  0
 16 17  1  1
 17 18  2  0
 19 20  1  0
 21 20  1  6
 22 21  1  0
 22 17  1  0
 23 25  1  0
 23 21  1  0
 24 23  2  0
M  END
$$$$
