RPS.pdb
     RDKit          3D

 25 25  0  0  1  0  0  0  0  0999 V2000
   18.7165  -23.7128  -12.7019 N   0  0  0  0  0  0  0  0  0  0  0  0
   18.9837  -23.2406  -14.0068 C   0  0  0  0  0  0  0  0  0  0  0  0
   18.3465  -22.1824  -14.3999 N   0  0  0  0  0  0  0  0  0  0  0  0
   19.9158  -23.9102  -14.8441 N   0  0  0  0  0  0  0  0  0  0  0  0
   21.3189  -23.7542  -14.6609 C   0  0  0  0  0  0  0  0  0  0  0  0
   21.6911  -22.4631  -13.9719 C   0  0  0  0  0  0  0  0  0  0  0  0
   23.1503  -22.1864  -13.9830 C   0  0  0  0  0  0  0  0  0  0  0  0
   23.6376  -21.2677  -12.8833 C   0  0  2  0  0  0  0  0  0  0  0  0
   22.4991  -20.6303  -12.2813 N   0  0  0  0  0  0  0  0  0  0  0  0
   24.5941  -20.2581  -13.3405 C   0  0  0  0  0  0  0  0  0  0  0  0
   24.1805  -19.0932  -13.6086 O   0  0  0  0  0  0  0  0  0  0  0  0
   18.4353  -21.7777  -15.3520 N   0  0  0  0  0  0  0  0  0  0  0  0
   25.9851  -20.5285  -13.5006 C   0  0  0  0  0  0  0  0  0  0  0  0
   26.6716  -21.6758  -13.0431 C   0  0  0  0  0  0  0  0  0  0  0  0
   28.1276  -21.4831  -13.3433 C   0  0  0  0  0  0  0  0  0  0  0  0
   28.2448  -20.0341  -13.6613 C   0  0  1  0  0  0  0  0  0  0  0  0
   26.8865  -19.6333  -14.1762 C   0  0  0  0  0  0  0  0  0  0  0  0
   26.8054  -19.7562  -15.6532 O   0  0  0  0  0  0  0  0  0  0  0  0
   26.1963  -20.7442  -16.1282 O   0  0  0  0  0  0  0  0  0  0  0  0
   25.9982  -16.1909  -17.6981 C   0  0  0  0  0  0  0  0  0  0  0  0
   25.5824  -17.5154  -17.5808 C   0  0  1  0  0  0  0  0  0  0  0  0
   26.7989  -18.3960  -17.7906 N   0  0  0  0  0  0  0  0  0  0  0  0
   27.3829  -18.8107  -16.5334 C   0  0  0  0  0  0  0  0  0  0  0  0
   27.8032  -17.5996  -18.5399 O   0  0  0  0  0  0  0  0  0  0  0  0
   27.6223  -17.1904  -19.7160 O   0  0  0  0  0  0  0  0  0  0  0  0
  1  2  1  0
  2  3  2  0
  4  5  1  0
  4  2  1  0
  6  7  1  0
  6  5  1  0
  7  8  1  0
  8  9  1  6
 10 12  1  0
 10  8  1  0
 11 10  2  0
 12 16  1  0
 13 12  1  0
 13 14  1  0
 14 15  1  0
 16 15  1  0
 16 17  1  6
 17 18  2  0
 19 20  1  0
 21 20  1  1
 22 21  1  0
 22 17  1  0
 23 25  1  0
 23 21  1  0
 24 23  2  0
M  END
$$$$
