RPS.pdb
     RDKit          3D

 25 25  0  0  1  0  0  0  0  0999 V2000
   22.0071  -27.2258  -15.0588 N   0  0  0  0  0  0  0  0  0  0  0  0
   21.1733  -26.3866  -15.8317 C   0  0  0  0  0  0  0  0  0  0  0  0
   20.0104  -26.8493  -16.1693 N   0  0  0  0  0  0  0  0  0  0  0  0
   21.6062  -25.0897  -16.2174 N   0  0  0  0  0  0  0  0  0  0  0  0
   22.8068  -24.5268  -15.6993 C   0  0  0  0  0  0  0  0  0  0  0  0
   22.6064  -23.7870  -14.3982 C   0  0  0  0  0  0  0  0  0  0  0  0
   22.7018  -22.3113  -14.5364 C   0  0  0  0  0  0  0  0  0  0  0  0
   22.5771  -21.5362  -13.2424 C   0  0  2  0  0  0  0  0  0  0  0  0
   21.2275  -21.0568  -13.1243 N   0  0  0  0  0  0  0  0  0  0  0  0
   23.5173  -20.4194  -13.1323 C   0  0  0  0  0  0  0  0  0  0  0  0
   23.0838  -19.2357  -13.2349 O   0  0  0  0  0  0  0  0  0  0  0  0
   19.3316  -26.3271  -16.7566 N   0  0  0  0  0  0  0  0  0  0  0  0
   24.9142  -20.6048  -12.9133 C   0  0  0  0  0  0  0  0  0  0  0  0
   25.5716  -21.8387  -12.7080 C   0  0  0  0  0  0  0  0  0  0  0  0
   27.0128  -21.5427  -12.4205 C   0  0  0  0  0  0  0  0  0  0  0  0
   27.0335  -20.0834  -12.1301 C   0  0  1  0  0  0  0  0  0  0  0  0
   25.8549  -19.5165  -12.8787 C   0  0  0  0  0  0  0  0  0  0  0  0
   26.2410  -19.0583  -14.2368 O   0  0  0  0  0  0  0  0  0  0  0  0
   26.1691  -19.8839  -15.1781 O   0  0  0  0  0  0  0  0  0  0  0  0
   27.0595  -15.1814  -17.0641 C   0  0  0  0  0  0  0  0  0  0  0  0
   26.9253  -15.6461  -15.7576 C   0  0  1  0  0  0  0  0  0  0  0  0
   26.7537  -17.1512  -15.8238 N   0  0  0  0  0  0  0  0  0  0  0  0
   26.6812  -17.7404  -14.5042 C   0  0  0  0  0  0  0  0  0  0  0  0
   27.9387  -17.7057  -16.5258 O   0  0  0  0  0  0  0  0  0  0  0  0
   28.1016  -17.6301  -17.7713 O   0  0  0  0  0  0  0  0  0  0  0  0
  1  2  1  0
  2  3  2  0
  4  5  1  0
  4  2  1  0
  6  7  1  0
  6  5  1  0
  7  8  1  0
  8  9  1  6
 10 12  1  0
 10  8  1  0
 11 10  2  0
 12 16  1  0
 13 12  1  0
 13 14  1  0
 14 15  1  0
 16 15  1  0
 16 17  1  6
 17 18  2  0
 19 20  1  0
 21 20  1  6
 22 21  1  0
 22 17  1  0
 23 25  1  0
 23 21  1  0
 24 23  2  0
M  END
$$$$
