RPS.pdb
     RDKit          3D

 25 25  0  0  1  0  0  0  0  0999 V2000
   21.5345  -19.8783  -14.7715 N   0  0  0  0  0  0  0  0  0  0  0  0
   20.9414  -20.5763  -13.6953 C   0  0  0  0  0  0  0  0  0  0  0  0
   19.6787  -20.8537  -13.7884 N   0  0  0  0  0  0  0  0  0  0  0  0
   21.7111  -20.9516  -12.5618 N   0  0  0  0  0  0  0  0  0  0  0  0
   23.1274  -20.8083  -12.5497 C   0  0  0  0  0  0  0  0  0  0  0  0
   23.8592  -22.0789  -12.9109 C   0  0  0  0  0  0  0  0  0  0  0  0
   24.9297  -21.8780  -13.9206 C   0  0  0  0  0  0  0  0  0  0  0  0
   26.2465  -21.3759  -13.3685 C   0  0  2  0  0  0  0  0  0  0  0  0
   26.2633  -21.6007  -11.9493 N   0  0  0  0  0  0  0  0  0  0  0  0
   26.5049  -19.9638  -13.6556 C   0  0  0  0  0  0  0  0  0  0  0  0
   26.3195  -19.1053  -12.7454 O   0  0  0  0  0  0  0  0  0  0  0  0
   19.1532  -21.3914  -13.0721 N   0  0  0  0  0  0  0  0  0  0  0  0
   26.9599  -19.5048  -14.9268 C   0  0  0  0  0  0  0  0  0  0  0  0
   27.2499  -20.3099  -16.0513 C   0  0  0  0  0  0  0  0  0  0  0  0
   27.7905  -19.4131  -17.1241 C   0  0  0  0  0  0  0  0  0  0  0  0
   28.1116  -18.1466  -16.4120 C   0  0  2  0  0  0  0  0  0  0  0  0
   27.1815  -18.1151  -15.2267 C   0  0  0  0  0  0  0  0  0  0  0  0
   25.9218  -17.3959  -15.5415 O   0  0  0  0  0  0  0  0  0  0  0  0
   24.9773  -18.0546  -16.0382 O   0  0  0  0  0  0  0  0  0  0  0  0
   23.3461  -13.2821  -15.1589 C   0  0  0  0  0  0  0  0  0  0  0  0
   24.5805  -13.8874  -14.9339 C   0  0  2  0  0  0  0  0  0  0  0  0
   24.5093  -15.2931  -15.4982 N   0  0  0  0  0  0  0  0  0  0  0  0
   25.7502  -16.0115  -15.3040 C   0  0  0  0  0  0  0  0  0  0  0  0
   24.2520  -15.1770  -16.9558 O   0  0  0  0  0  0  0  0  0  0  0  0
   23.1054  -14.9992  -17.4427 O   0  0  0  0  0  0  0  0  0  0  0  0
  1  2  1  0
  2  3  2  0
  4  5  1  0
  4  2  1  0
  6  7  1  0
  6  5  1  0
  7  8  1  0
  8  9  1  1
 10 12  1  0
 10  8  1  0
 11 10  2  0
 12 16  1  0
 13 12  1  0
 13 14  1  0
 14 15  1  0
 16 15  1  0
 16 17  1  6
 17 18  2  0
 19 20  1  0
 21 20  1  1
 22 21  1  0
 22 17  1  0
 23 25  1  0
 23 21  1  0
 24 23  2  0
M  END
$$$$
