RPS.pdb
     RDKit          3D

 25 25  0  0  1  0  0  0  0  0999 V2000
   17.8198  -22.8565  -14.5606 N   0  0  0  0  0  0  0  0  0  0  0  0
   17.9505  -22.8565  -13.1535 C   0  0  0  0  0  0  0  0  0  0  0  0
   17.1002  -23.5622  -12.4758 N   0  0  0  0  0  0  0  0  0  0  0  0
   18.9776  -22.1067  -12.5202 N   0  0  0  0  0  0  0  0  0  0  0  0
   19.9209  -21.3575  -13.2789 C   0  0  0  0  0  0  0  0  0  0  0  0
   20.8517  -22.2219  -14.0954 C   0  0  0  0  0  0  0  0  0  0  0  0
   22.2059  -21.6363  -14.2651 C   0  0  0  0  0  0  0  0  0  0  0  0
   23.0361  -21.5626  -13.0017 C   0  0  2  0  0  0  0  0  0  0  0  0
   22.1492  -21.4406  -11.8777 N   0  0  0  0  0  0  0  0  0  0  0  0
   24.0052  -20.4653  -12.9973 C   0  0  0  0  0  0  0  0  0  0  0  0
   23.6846  -19.3613  -12.4698 O   0  0  0  0  0  0  0  0  0  0  0  0
   17.0845  -23.6041  -11.4384 N   0  0  0  0  0  0  0  0  0  0  0  0
   25.3075  -20.5827  -13.5664 C   0  0  0  0  0  0  0  0  0  0  0  0
   25.8588  -21.7404  -14.1603 C   0  0  0  0  0  0  0  0  0  0  0  0
   27.2794  -21.4306  -14.5251 C   0  0  0  0  0  0  0  0  0  0  0  0
   27.5798  -20.1755  -13.7843 C   0  0  1  0  0  0  0  0  0  0  0  0
   26.2473  -19.4940  -13.6085 C   0  0  0  0  0  0  0  0  0  0  0  0
   25.9685  -18.5478  -14.7176 O   0  0  0  0  0  0  0  0  0  0  0  0
   25.8457  -19.0174  -15.8739 O   0  0  0  0  0  0  0  0  0  0  0  0
   28.1029  -14.7633  -16.0666 C   0  0  0  0  0  0  0  0  0  0  0  0
   27.7743  -15.8214  -15.2221 C   0  0  2  0  0  0  0  0  0  0  0  0
   26.3096  -16.1448  -15.4444 N   0  0  0  0  0  0  0  0  0  0  0  0
   25.8376  -17.1528  -14.5197 C   0  0  0  0  0  0  0  0  0  0  0  0
   26.1723  -16.6685  -16.8269 O   0  0  0  0  0  0  0  0  0  0  0  0
   26.6655  -17.7634  -17.2028 O   0  0  0  0  0  0  0  0  0  0  0  0
  1  2  1  0
  2  3  2  0
  4  5  1  0
  4  2  1  0
  6  7  1  0
  6  5  1  0
  7  8  1  0
  8  9  1  1
 10 12  1  0
 10  8  1  0
 11 10  2  0
 12 16  1  0
 13 12  1  0
 13 14  1  0
 14 15  1  0
 16 15  1  0
 16 17  1  6
 17 18  2  0
 19 20  1  0
 21 20  1  1
 22 21  1  0
 22 17  1  0
 23 25  1  0
 23 21  1  0
 24 23  2  0
M  END
$$$$
