MNF.pdb
     RDKit          3D

 28 28  0  0  1  0  0  0  0  0999 V2000
    7.5856  -11.5411   21.5143 C   0  0  0  0  0  0  0  0  0  0  0  0
    6.8173  -12.1822   19.9900 S   0  0  0  0  0  0  0  0  0  0  0  0
    7.3932  -13.8797   19.6551 C   0  0  0  0  0  0  0  0  0  0  0  0
    7.6285  -14.5459   20.9930 C   0  0  0  0  0  0  0  0  0  0  0  0
    8.0384  -15.9982   20.8239 C   0  0  2  0  0  0  0  0  0  0  0  0
    6.8320  -16.6526   20.2855 N   0  0  0  0  0  0  0  0  0  0  0  0
    8.3735  -16.6446   22.0846 C   0  0  0  0  0  0  0  0  0  0  0  0
    7.4508  -17.1836   22.7849 O   0  0  0  0  0  0  0  0  0  0  0  0
   10.9098  -20.2645   25.1680 N   0  0  0  0  0  0  0  0  0  0  0  0
   11.5749  -19.0374   24.9114 C   0  0  0  0  0  0  0  0  0  0  0  0
   12.4691  -18.6366   25.6805 O   0  0  0  0  0  0  0  0  0  0  0  0
   11.1798  -18.2741   23.7312 C   0  0  0  0  0  0  0  0  0  0  0  0
    9.9214  -17.4531   23.9034 C   0  0  2  0  0  0  0  0  0  0  0  0
    9.6676  -16.7600   22.6712 N   0  0  0  0  0  0  0  0  0  0  0  0
   10.1992  -16.5145   25.0337 C   0  0  0  0  0  0  0  0  0  0  0  0
   11.0499  -15.6178   24.8061 O   0  0  0  0  0  0  0  0  0  0  0  0
    9.5778  -16.5837   26.2936 N   0  0  0  0  0  0  0  0  0  0  0  0
   10.0430  -15.7987   27.4420 C   0  0  1  0  0  0  0  0  0  0  0  0
    8.9040  -14.9900   28.0246 C   0  0  0  0  0  0  0  0  0  0  0  0
    8.4568  -13.8880   27.1423 C   0  0  0  0  0  0  0  0  0  0  0  0
    7.3381  -14.0274   26.3498 C   0  0  0  0  0  0  0  0  0  0  0  0
    6.9079  -13.0063   25.5267 C   0  0  0  0  0  0  0  0  0  0  0  0
    7.5887  -11.7940   25.4654 C   0  0  0  0  0  0  0  0  0  0  0  0
    8.7067  -11.6606   26.2605 C   0  0  0  0  0  0  0  0  0  0  0  0
    9.1347  -12.6835   27.0825 C   0  0  0  0  0  0  0  0  0  0  0  0
   10.7157  -16.6490   28.4276 C   0  0  0  0  0  0  0  0  0  0  0  0
   11.4331  -16.2209   29.5035 O   0  0  0  0  0  0  0  0  0  0  0  0
   10.6264  -17.9121   28.2703 O   0  0  0  0  0  0  0  0  0  0  0  0
  1  2  1  0
  3  2  1  0
  4  3  1  0
  5  6  1  1
  5  4  1  0
  7  5  1  0
  8  7  2  0
  9 10  1  0
 10 12  1  0
 10 11  2  0
 13 12  1  6
 13 15  1  0
 13 14  1  0
 14  7  1  0
 15 16  2  0
 17 18  1  0
 17 15  1  0
 18 19  1  1
 20 19  1  0
 21 20  2  0
 22 21  1  0
 23 24  1  0
 23 22  2  0
 24 25  2  0
 25 20  1  0
 26 18  1  0
 27 26  1  0
 28 26  2  0
M  END
$$$$
