MNF.pdb
     RDKit          3D

 28 28  0  0  1  0  0  0  0  0999 V2000
    8.3580  -11.5375   20.6261 C   0  0  0  0  0  0  0  0  0  0  0  0
    7.0155  -12.3007   19.6566 S   0  0  0  0  0  0  0  0  0  0  0  0
    7.4026  -14.0473   19.3029 C   0  0  0  0  0  0  0  0  0  0  0  0
    7.8278  -14.6856   20.6071 C   0  0  0  0  0  0  0  0  0  0  0  0
    8.3257  -16.1040   20.3929 C   0  0  2  0  0  0  0  0  0  0  0  0
    7.1433  -16.8292   19.8934 N   0  0  0  0  0  0  0  0  0  0  0  0
    8.7575  -16.7470   21.6256 C   0  0  0  0  0  0  0  0  0  0  0  0
    7.9409  -17.4843   22.2751 O   0  0  0  0  0  0  0  0  0  0  0  0
   11.9264  -19.8603   24.4958 N   0  0  0  0  0  0  0  0  0  0  0  0
   12.4381  -18.5431   24.3650 C   0  0  0  0  0  0  0  0  0  0  0  0
   13.3140  -18.1304   25.1487 O   0  0  0  0  0  0  0  0  0  0  0  0
   11.9095  -17.7026   23.2946 C   0  0  0  0  0  0  0  0  0  0  0  0
   10.4281  -17.4142   23.3925 C   0  0  2  0  0  0  0  0  0  0  0  0
   10.0428  -16.6554   22.2353 N   0  0  0  0  0  0  0  0  0  0  0  0
   10.2463  -16.6435   24.6607 C   0  0  0  0  0  0  0  0  0  0  0  0
   10.8084  -15.5203   24.7059 O   0  0  0  0  0  0  0  0  0  0  0  0
    9.5041  -17.0976   25.7658 N   0  0  0  0  0  0  0  0  0  0  0  0
    9.5747  -16.4477   27.0789 C   0  0  1  0  0  0  0  0  0  0  0  0
    8.2266  -15.8718   27.4557 C   0  0  0  0  0  0  0  0  0  0  0  0
    7.8965  -14.6269   26.7248 C   0  0  0  0  0  0  0  0  0  0  0  0
    8.2935  -13.3985   27.2069 C   0  0  0  0  0  0  0  0  0  0  0  0
    7.9966  -12.2311   26.5330 C   0  0  0  0  0  0  0  0  0  0  0  0
    7.2835  -12.2497   25.3379 C   0  0  0  0  0  0  0  0  0  0  0  0
    6.8894  -13.4813   24.8608 C   0  0  0  0  0  0  0  0  0  0  0  0
    7.1875  -14.6471   25.5370 C   0  0  0  0  0  0  0  0  0  0  0  0
   10.1224  -17.3549   28.0906 C   0  0  0  0  0  0  0  0  0  0  0  0
   10.4595  -18.6613   27.9020 O   0  0  0  0  0  0  0  0  0  0  0  0
   10.3039  -16.8849   29.2628 O   0  0  0  0  0  0  0  0  0  0  0  0
  1  2  1  0
  3  2  1  0
  4  3  1  0
  5  6  1  1
  5  4  1  0
  7  5  1  0
  8  7  2  0
  9 10  1  0
 10 12  1  0
 10 11  2  0
 13 12  1  6
 13 15  1  0
 13 14  1  0
 14  7  1  0
 15 16  2  0
 17 18  1  0
 17 15  1  0
 18 19  1  1
 20 19  1  0
 21 20  2  0
 22 21  1  0
 23 24  1  0
 23 22  2  0
 24 25  2  0
 25 20  1  0
 26 18  1  0
 27 26  1  0
 28 26  2  0
M  END
$$$$
