MNF.pdb
     RDKit          3D

 28 28  0  0  1  0  0  0  0  0999 V2000
    7.5260  -11.0444   19.4770 C   0  0  0  0  0  0  0  0  0  0  0  0
    7.5664  -12.6453   20.3487 S   0  0  0  0  0  0  0  0  0  0  0  0
    6.2454  -13.7388   19.7283 C   0  0  0  0  0  0  0  0  0  0  0  0
    6.2846  -15.0044   20.5565 C   0  0  0  0  0  0  0  0  0  0  0  0
    7.6202  -15.1640   21.2609 C   0  0  2  0  0  0  0  0  0  0  0  0
    8.3673  -16.1059   20.4075 N   0  0  0  0  0  0  0  0  0  0  0  0
    7.4975  -15.7593   22.5838 C   0  0  0  0  0  0  0  0  0  0  0  0
    6.8160  -15.1637   23.4856 O   0  0  0  0  0  0  0  0  0  0  0  0
    6.1260  -20.1856   24.0317 N   0  0  0  0  0  0  0  0  0  0  0  0
    7.3982  -19.8350   23.5097 C   0  0  0  0  0  0  0  0  0  0  0  0
    7.7511  -20.2481   22.3888 O   0  0  0  0  0  0  0  0  0  0  0  0
    8.2645  -18.9849   24.3212 C   0  0  0  0  0  0  0  0  0  0  0  0
    7.8721  -17.5245   24.3449 C   0  0  2  0  0  0  0  0  0  0  0  0
    8.0705  -16.9867   23.0278 N   0  0  0  0  0  0  0  0  0  0  0  0
    8.7621  -16.8803   25.3591 C   0  0  0  0  0  0  0  0  0  0  0  0
    9.9599  -16.7187   25.0146 O   0  0  0  0  0  0  0  0  0  0  0  0
    8.3396  -16.4617   26.6337 N   0  0  0  0  0  0  0  0  0  0  0  0
    9.2753  -15.9535   27.6426 C   0  0  1  0  0  0  0  0  0  0  0  0
    8.7156  -14.7122   28.3035 C   0  0  0  0  0  0  0  0  0  0  0  0
    8.4345  -13.6162   27.3481 C   0  0  0  0  0  0  0  0  0  0  0  0
    7.1733  -13.4464   26.8195 C   0  0  0  0  0  0  0  0  0  0  0  0
    6.8967  -12.4261   25.9319 C   0  0  0  0  0  0  0  0  0  0  0  0
    7.8830  -11.5274   25.5361 C   0  0  0  0  0  0  0  0  0  0  0  0
    9.1424  -11.7024   26.0685 C   0  0  0  0  0  0  0  0  0  0  0  0
    9.4160  -12.7237   26.9556 C   0  0  0  0  0  0  0  0  0  0  0  0
    9.6474  -17.0019   28.5961 C   0  0  0  0  0  0  0  0  0  0  0  0
   10.6662  -16.9443   29.4985 O   0  0  0  0  0  0  0  0  0  0  0  0
    8.9567  -18.0748   28.5867 O   0  0  0  0  0  0  0  0  0  0  0  0
  1  2  1  0
  3  2  1  0
  4  3  1  0
  5  6  1  6
  5  4  1  0
  7  5  1  0
  8  7  2  0
  9 10  1  0
 10 12  1  0
 10 11  2  0
 13 12  1  6
 13 15  1  0
 13 14  1  0
 14  7  1  0
 15 16  2  0
 17 18  1  0
 17 15  1  0
 18 19  1  1
 20 19  1  0
 21 20  2  0
 22 21  1  0
 23 24  1  0
 23 22  2  0
 24 25  2  0
 25 20  1  0
 26 18  1  0
 27 26  1  0
 28 26  2  0
M  END
$$$$
