MNF.pdb
     RDKit          3D

 28 28  0  0  1  0  0  0  0  0999 V2000
    8.5087  -11.9534   19.2611 C   0  0  0  0  0  0  0  0  0  0  0  0
    7.9079  -12.6366   17.6809 S   0  0  0  0  0  0  0  0  0  0  0  0
    8.1342  -14.4457   17.6453 C   0  0  0  0  0  0  0  0  0  0  0  0
    9.1471  -14.7924   18.7144 C   0  0  0  0  0  0  0  0  0  0  0  0
    9.4361  -16.2829   18.7409 C   0  0  2  0  0  0  0  0  0  0  0  0
    8.4303  -16.8610   17.8312 N   0  0  0  0  0  0  0  0  0  0  0  0
    9.2434  -16.8758   20.0564 C   0  0  0  0  0  0  0  0  0  0  0  0
    8.1858  -16.6100   20.7222 O   0  0  0  0  0  0  0  0  0  0  0  0
   12.5328  -20.5818   21.1670 N   0  0  0  0  0  0  0  0  0  0  0  0
   11.2694  -20.3038   21.7506 C   0  0  0  0  0  0  0  0  0  0  0  0
   10.3312  -21.1142   21.6294 O   0  0  0  0  0  0  0  0  0  0  0  0
   11.1120  -19.0534   22.4877 C   0  0  0  0  0  0  0  0  0  0  0  0
    9.9142  -18.2261   22.0774 C   0  0  2  0  0  0  0  0  0  0  0  0
   10.1298  -17.7622   20.7352 N   0  0  0  0  0  0  0  0  0  0  0  0
    9.8406  -17.1015   23.0599 C   0  0  0  0  0  0  0  0  0  0  0  0
   10.7770  -16.2648   23.0078 O   0  0  0  0  0  0  0  0  0  0  0  0
    8.8119  -16.9400   24.0055 N   0  0  0  0  0  0  0  0  0  0  0  0
    8.7635  -15.7979   24.9248 C   0  0  1  0  0  0  0  0  0  0  0  0
    7.5508  -14.9394   24.6363 C   0  0  0  0  0  0  0  0  0  0  0  0
    7.3791  -13.8262   25.5977 C   0  0  0  0  0  0  0  0  0  0  0  0
    8.3297  -12.8345   25.7069 C   0  0  0  0  0  0  0  0  0  0  0  0
    8.1795  -11.7889   26.5955 C   0  0  0  0  0  0  0  0  0  0  0  0
    7.0598  -11.6956   27.4167 C   0  0  0  0  0  0  0  0  0  0  0  0
    6.1125  -12.6904   27.3026 C   0  0  0  0  0  0  0  0  0  0  0  0
    6.2655  -13.7349   26.4134 C   0  0  0  0  0  0  0  0  0  0  0  0
    8.8462  -16.2369   26.3202 C   0  0  0  0  0  0  0  0  0  0  0  0
    8.1847  -17.2920   26.8723 O   0  0  0  0  0  0  0  0  0  0  0  0
    9.6077  -15.5729   27.0994 O   0  0  0  0  0  0  0  0  0  0  0  0
  1  2  1  0
  3  2  1  0
  4  3  1  0
  5  6  1  6
  5  4  1  0
  7  5  1  0
  8  7  2  0
  9 10  1  0
 10 12  1  0
 10 11  2  0
 13 12  1  1
 13 15  1  0
 13 14  1  0
 14  7  1  0
 15 16  2  0
 17 18  1  0
 17 15  1  0
 18 19  1  1
 20 19  1  0
 21 20  2  0
 22 21  1  0
 23 24  1  0
 23 22  2  0
 24 25  2  0
 25 20  1  0
 26 18  1  0
 27 26  1  0
 28 26  2  0
M  END
$$$$
