MNF.pdb
     RDKit          3D

 28 28  0  0  1  0  0  0  0  0999 V2000
    7.3327  -12.8636   19.3268 C   0  0  0  0  0  0  0  0  0  0  0  0
    7.6738  -13.3731   17.6096 S   0  0  0  0  0  0  0  0  0  0  0  0
    8.1202  -15.1402   17.5492 C   0  0  0  0  0  0  0  0  0  0  0  0
    7.2541  -15.8567   18.5619 C   0  0  0  0  0  0  0  0  0  0  0  0
    7.6635  -15.5123   19.9830 C   0  0  2  0  0  0  0  0  0  0  0  0
    8.5241  -14.3249   19.8321 N   0  0  0  0  0  0  0  0  0  0  0  0
    8.4520  -16.5592   20.6168 C   0  0  0  0  0  0  0  0  0  0  0  0
    7.8666  -17.5810   21.1122 O   0  0  0  0  0  0  0  0  0  0  0  0
   12.0142  -18.9848   19.1496 N   0  0  0  0  0  0  0  0  0  0  0  0
   11.5180  -19.0394   20.4781 C   0  0  0  0  0  0  0  0  0  0  0  0
   10.8817  -20.0365   20.8688 O   0  0  0  0  0  0  0  0  0  0  0  0
   11.7772  -17.9026   21.3568 C   0  0  0  0  0  0  0  0  0  0  0  0
   10.5363  -17.2118   21.8768 C   0  0  2  0  0  0  0  0  0  0  0  0
    9.8694  -16.5938   20.7648 N   0  0  0  0  0  0  0  0  0  0  0  0
   11.0172  -16.2094   22.8765 C   0  0  0  0  0  0  0  0  0  0  0  0
   11.8361  -15.3572   22.4490 O   0  0  0  0  0  0  0  0  0  0  0  0
   10.6127  -16.1748   24.2231 N   0  0  0  0  0  0  0  0  0  0  0  0
   10.8801  -15.0246   25.0933 C   0  0  1  0  0  0  0  0  0  0  0  0
    9.7189  -14.7955   26.0368 C   0  0  0  0  0  0  0  0  0  0  0  0
   10.1092  -14.8286   27.4648 C   0  0  0  0  0  0  0  0  0  0  0  0
    9.5427  -15.7384   28.3310 C   0  0  0  0  0  0  0  0  0  0  0  0
    9.9012  -15.7830   29.6632 C   0  0  0  0  0  0  0  0  0  0  0  0
   10.8510  -14.9091   30.1840 C   0  0  0  0  0  0  0  0  0  0  0  0
   11.4142  -14.0016   29.3127 C   0  0  0  0  0  0  0  0  0  0  0  0
   11.0535  -13.9591   27.9811 C   0  0  0  0  0  0  0  0  0  0  0  0
   12.1669  -15.1669   25.7793 C   0  0  0  0  0  0  0  0  0  0  0  0
   13.0383  -14.1615   26.0718 O   0  0  0  0  0  0  0  0  0  0  0  0
   12.5121  -16.3410   26.1403 O   0  0  0  0  0  0  0  0  0  0  0  0
  1  2  1  0
  3  2  1  0
  4  3  1  0
  5  6  1  6
  5  4  1  0
  7  5  1  0
  8  7  2  0
  9 10  1  0
 10 12  1  0
 10 11  2  0
 13 12  1  6
 13 15  1  0
 13 14  1  0
 14  7  1  0
 15 16  2  0
 17 18  1  0
 17 15  1  0
 18 19  1  1
 20 19  1  0
 21 20  2  0
 22 21  1  0
 23 24  1  0
 23 22  2  0
 24 25  2  0
 25 20  1  0
 26 18  1  0
 27 26  1  0
 28 26  2  0
M  END
$$$$
