MNF.pdb
     RDKit          3D

 28 28  0  0  1  0  0  0  0  0999 V2000
    7.1143  -11.7031   19.3276 C   0  0  0  0  0  0  0  0  0  0  0  0
    7.3979  -13.1304   18.2290 S   0  0  0  0  0  0  0  0  0  0  0  0
    8.4854  -14.3489   19.0403 C   0  0  0  0  0  0  0  0  0  0  0  0
    9.3982  -13.5843   19.9737 C   0  0  0  0  0  0  0  0  0  0  0  0
   10.3742  -14.5114   20.6762 C   0  0  2  0  0  0  0  0  0  0  0  0
   10.8212  -15.4337   19.6165 N   0  0  0  0  0  0  0  0  0  0  0  0
    9.7500  -15.3042   21.7257 C   0  0  0  0  0  0  0  0  0  0  0  0
    8.8411  -14.7834   22.4571 O   0  0  0  0  0  0  0  0  0  0  0  0
    8.1702  -20.1267   21.8134 N   0  0  0  0  0  0  0  0  0  0  0  0
    9.4679  -19.5554   21.8724 C   0  0  0  0  0  0  0  0  0  0  0  0
   10.2563  -19.6913   20.9176 O   0  0  0  0  0  0  0  0  0  0  0  0
    9.8393  -18.8135   23.0737 C   0  0  0  0  0  0  0  0  0  0  0  0
    9.3590  -17.3797   23.1031 C   0  0  2  0  0  0  0  0  0  0  0  0
   10.0372  -16.6594   22.0617 N   0  0  0  0  0  0  0  0  0  0  0  0
    9.7017  -16.8634   24.4638 C   0  0  0  0  0  0  0  0  0  0  0  0
   10.9071  -16.5592   24.6479 O   0  0  0  0  0  0  0  0  0  0  0  0
    8.7746  -16.7074   25.5100 N   0  0  0  0  0  0  0  0  0  0  0  0
    9.1733  -16.2734   26.8533 C   0  0  1  0  0  0  0  0  0  0  0  0
    8.0380  -15.5333   27.5273 C   0  0  0  0  0  0  0  0  0  0  0  0
    7.7469  -14.2194   26.9093 C   0  0  0  0  0  0  0  0  0  0  0  0
    8.7443  -13.2847   26.7345 C   0  0  0  0  0  0  0  0  0  0  0  0
    8.4874  -12.0583   26.1555 C   0  0  0  0  0  0  0  0  0  0  0  0
    7.2084  -11.7179   25.7248 C   0  0  0  0  0  0  0  0  0  0  0  0
    6.2152  -12.6570   25.9023 C   0  0  0  0  0  0  0  0  0  0  0  0
    6.4750  -13.8825   26.4818 C   0  0  0  0  0  0  0  0  0  0  0  0
    9.6847  -17.3966   27.6430 C   0  0  0  0  0  0  0  0  0  0  0  0
    9.7027  -18.7048   27.2638 O   0  0  0  0  0  0  0  0  0  0  0  0
   10.1600  -17.1331   28.7975 O   0  0  0  0  0  0  0  0  0  0  0  0
  1  2  1  0
  3  2  1  0
  4  3  1  0
  5  6  1  6
  5  4  1  0
  7  5  1  0
  8  7  2  0
  9 10  1  0
 10 12  1  0
 10 11  2  0
 13 12  1  1
 13 15  1  0
 13 14  1  0
 14  7  1  0
 15 16  2  0
 17 18  1  0
 17 15  1  0
 18 19  1  1
 20 19  1  0
 21 20  2  0
 22 21  1  0
 23 24  1  0
 23 22  2  0
 24 25  2  0
 25 20  1  0
 26 18  1  0
 27 26  1  0
 28 26  2  0
M  END
$$$$
