MNF.pdb
     RDKit          3D

 28 28  0  0  1  0  0  0  0  0999 V2000
    7.9269  -11.2056   18.5235 C   0  0  0  0  0  0  0  0  0  0  0  0
    7.7992  -12.1174   20.0973 S   0  0  0  0  0  0  0  0  0  0  0  0
    7.7423  -13.9135   19.7868 C   0  0  0  0  0  0  0  0  0  0  0  0
    7.6991  -14.6007   21.1340 C   0  0  0  0  0  0  0  0  0  0  0  0
    7.5745  -16.1065   20.9838 C   0  0  2  0  0  0  0  0  0  0  0  0
    6.1250  -16.3358   20.8429 N   0  0  0  0  0  0  0  0  0  0  0  0
    8.0308  -16.8346   22.1591 C   0  0  0  0  0  0  0  0  0  0  0  0
    7.2405  -16.9971   23.1497 O   0  0  0  0  0  0  0  0  0  0  0  0
   12.6111  -20.2671   24.4760 N   0  0  0  0  0  0  0  0  0  0  0  0
   11.3012  -19.7216   24.5006 C   0  0  0  0  0  0  0  0  0  0  0  0
   10.5742  -19.8822   25.4992 O   0  0  0  0  0  0  0  0  0  0  0  0
   10.8440  -18.9761   23.3314 C   0  0  0  0  0  0  0  0  0  0  0  0
    9.7490  -17.9716   23.6126 C   0  0  2  0  0  0  0  0  0  0  0  0
    9.3146  -17.4210   22.3590 N   0  0  0  0  0  0  0  0  0  0  0  0
   10.3630  -16.9384   24.5020 C   0  0  0  0  0  0  0  0  0  0  0  0
   11.4177  -16.4040   24.0759 O   0  0  0  0  0  0  0  0  0  0  0  0
    9.8371  -16.5495   25.7472 N   0  0  0  0  0  0  0  0  0  0  0  0
   10.5097  -15.5751   26.6131 C   0  0  1  0  0  0  0  0  0  0  0  0
   10.2549  -14.1669   26.1202 C   0  0  0  0  0  0  0  0  0  0  0  0
    8.8459  -13.7382   26.2748 C   0  0  0  0  0  0  0  0  0  0  0  0
    7.8272  -14.4193   25.6444 C   0  0  0  0  0  0  0  0  0  0  0  0
    6.5094  -14.0331   25.7842 C   0  0  0  0  0  0  0  0  0  0  0  0
    6.1579  -12.9389   26.5692 C   0  0  0  0  0  0  0  0  0  0  0  0
    7.1813  -12.2620   27.1973 C   0  0  0  0  0  0  0  0  0  0  0  0
    8.4982  -12.6502   27.0555 C   0  0  0  0  0  0  0  0  0  0  0  0
   10.1448  -15.7740   28.0181 C   0  0  0  0  0  0  0  0  0  0  0  0
    9.2625  -16.6943   28.4978 O   0  0  0  0  0  0  0  0  0  0  0  0
   10.7016  -15.0169   28.8812 O   0  0  0  0  0  0  0  0  0  0  0  0
  1  2  1  0
  3  2  1  0
  4  3  1  0
  5  6  1  1
  5  4  1  0
  7  5  1  0
  8  7  2  0
  9 10  1  0
 10 12  1  0
 10 11  2  0
 13 12  1  6
 13 15  1  0
 13 14  1  0
 14  7  1  0
 15 16  2  0
 17 18  1  0
 17 15  1  0
 18 19  1  6
 20 19  1  0
 21 20  2  0
 22 21  1  0
 23 24  1  0
 23 22  2  0
 24 25  2  0
 25 20  1  0
 26 18  1  0
 27 26  1  0
 28 26  2  0
M  END
$$$$
