MNF.pdb
     RDKit          3D

 28 28  0  0  1  0  0  0  0  0999 V2000
    8.2500  -12.6395   20.4414 C   0  0  0  0  0  0  0  0  0  0  0  0
    8.3211  -12.7627   18.6236 S   0  0  0  0  0  0  0  0  0  0  0  0
    8.1454  -14.5002   18.0983 C   0  0  0  0  0  0  0  0  0  0  0  0
    7.1819  -15.1637   19.0577 C   0  0  0  0  0  0  0  0  0  0  0  0
    7.7547  -16.4558   19.6126 C   0  0  2  0  0  0  0  0  0  0  0  0
    7.0710  -17.5122   18.8445 N   0  0  0  0  0  0  0  0  0  0  0  0
    7.4460  -16.6556   21.0213 C   0  0  0  0  0  0  0  0  0  0  0  0
    6.3449  -16.2157   21.4969 O   0  0  0  0  0  0  0  0  0  0  0  0
    5.9690  -20.0675   22.3902 N   0  0  0  0  0  0  0  0  0  0  0  0
    6.3337  -19.3710   23.5717 C   0  0  0  0  0  0  0  0  0  0  0  0
    5.4929  -19.1790   24.4706 O   0  0  0  0  0  0  0  0  0  0  0  0
    7.7088  -18.8959   23.6939 C   0  0  0  0  0  0  0  0  0  0  0  0
    7.8997  -17.4293   23.3778 C   0  0  2  0  0  0  0  0  0  0  0  0
    8.2572  -17.3135   21.9915 N   0  0  0  0  0  0  0  0  0  0  0  0
    8.9900  -16.9560   24.2849 C   0  0  0  0  0  0  0  0  0  0  0  0
   10.1509  -17.3399   23.9944 O   0  0  0  0  0  0  0  0  0  0  0  0
    8.7873  -16.1321   25.4067 N   0  0  0  0  0  0  0  0  0  0  0  0
    9.8997  -15.6068   26.2055 C   0  0  1  0  0  0  0  0  0  0  0  0
   10.0008  -14.1050   26.0458 C   0  0  0  0  0  0  0  0  0  0  0  0
    8.7401  -13.3960   26.3633 C   0  0  0  0  0  0  0  0  0  0  0  0
    7.6732  -13.4278   25.4917 C   0  0  0  0  0  0  0  0  0  0  0  0
    6.4910  -12.7753   25.7778 C   0  0  0  0  0  0  0  0  0  0  0  0
    6.3304  -12.0590   26.9602 C   0  0  0  0  0  0  0  0  0  0  0  0
    7.4010  -12.0312   27.8280 C   0  0  0  0  0  0  0  0  0  0  0  0
    8.5821  -12.6844   27.5392 C   0  0  0  0  0  0  0  0  0  0  0  0
    9.7986  -16.0372   27.6024 C   0  0  0  0  0  0  0  0  0  0  0  0
    8.7977  -16.7864   28.1432 O   0  0  0  0  0  0  0  0  0  0  0  0
   10.7329  -15.6802   28.3948 O   0  0  0  0  0  0  0  0  0  0  0  0
  1  2  1  0
  3  2  1  0
  4  3  1  0
  5  6  1  6
  5  4  1  0
  7  5  1  0
  8  7  2  0
  9 10  1  0
 10 12  1  0
 10 11  2  0
 13 12  1  1
 13 15  1  0
 13 14  1  0
 14  7  1  0
 15 16  2  0
 17 18  1  0
 17 15  1  0
 18 19  1  1
 20 19  1  0
 21 20  2  0
 22 21  1  0
 23 24  1  0
 23 22  2  0
 24 25  2  0
 25 20  1  0
 26 18  1  0
 27 26  1  0
 28 26  2  0
M  END
$$$$
