MNF.pdb
     RDKit          3D

 28 28  0  0  1  0  0  0  0  0999 V2000
    7.5061  -12.2044   18.3098 C   0  0  0  0  0  0  0  0  0  0  0  0
    7.9001  -13.5441   19.4822 S   0  0  0  0  0  0  0  0  0  0  0  0
    6.3699  -14.3457   20.0666 C   0  0  0  0  0  0  0  0  0  0  0  0
    6.7766  -15.4471   21.0210 C   0  0  0  0  0  0  0  0  0  0  0  0
    7.7497  -14.9392   22.0702 C   0  0  2  0  0  0  0  0  0  0  0  0
    8.9190  -14.4930   21.2910 N   0  0  0  0  0  0  0  0  0  0  0  0
    8.1928  -15.9807   22.9858 C   0  0  0  0  0  0  0  0  0  0  0  0
    7.3498  -16.5368   23.7684 O   0  0  0  0  0  0  0  0  0  0  0  0
   11.1377  -16.4573   21.8724 N   0  0  0  0  0  0  0  0  0  0  0  0
   11.7353  -17.6094   22.4464 C   0  0  0  0  0  0  0  0  0  0  0  0
   12.7504  -18.1127   21.9286 O   0  0  0  0  0  0  0  0  0  0  0  0
   11.1272  -18.1742   23.6476 C   0  0  0  0  0  0  0  0  0  0  0  0
    9.8956  -17.4435   24.1342 C   0  0  2  0  0  0  0  0  0  0  0  0
    9.5172  -16.4877   23.1309 N   0  0  0  0  0  0  0  0  0  0  0  0
   10.2917  -16.7888   25.4187 C   0  0  0  0  0  0  0  0  0  0  0  0
   11.1379  -15.8643   25.3255 O   0  0  0  0  0  0  0  0  0  0  0  0
    9.7821  -17.1442   26.6806 N   0  0  0  0  0  0  0  0  0  0  0  0
   10.2270  -16.4940   27.9179 C   0  0  1  0  0  0  0  0  0  0  0  0
    9.0900  -15.7143   28.5426 C   0  0  0  0  0  0  0  0  0  0  0  0
    8.5711  -14.6357   27.6707 C   0  0  0  0  0  0  0  0  0  0  0  0
    9.2098  -13.4167   27.5990 C   0  0  0  0  0  0  0  0  0  0  0  0
    8.7392  -12.4048   26.7868 C   0  0  0  0  0  0  0  0  0  0  0  0
    7.5994  -12.5769   26.0070 C   0  0  0  0  0  0  0  0  0  0  0  0
    6.9651  -13.7984   26.0829 C   0  0  0  0  0  0  0  0  0  0  0  0
    7.4378  -14.8084   26.8962 C   0  0  0  0  0  0  0  0  0  0  0  0
   10.8411  -17.4597   28.8328 C   0  0  0  0  0  0  0  0  0  0  0  0
   10.9312  -18.8053   28.6407 O   0  0  0  0  0  0  0  0  0  0  0  0
   11.3414  -17.0055   29.9152 O   0  0  0  0  0  0  0  0  0  0  0  0
  1  2  1  0
  3  2  1  0
  4  3  1  0
  5  6  1  6
  5  4  1  0
  7  5  1  0
  8  7  2  0
  9 10  1  0
 10 12  1  0
 10 11  2  0
 13 12  1  6
 13 15  1  0
 13 14  1  0
 14  7  1  0
 15 16  2  0
 17 18  1  0
 17 15  1  0
 18 19  1  1
 20 19  1  0
 21 20  2  0
 22 21  1  0
 23 24  1  0
 23 22  2  0
 24 25  2  0
 25 20  1  0
 26 18  1  0
 27 26  1  0
 28 26  2  0
M  END
$$$$
