MNF.pdb
     RDKit          3D

 28 28  0  0  1  0  0  0  0  0999 V2000
    8.1336  -11.5697   20.9208 C   0  0  0  0  0  0  0  0  0  0  0  0
    7.9129  -12.8435   19.6350 S   0  0  0  0  0  0  0  0  0  0  0  0
    6.5974  -14.0106   20.1176 C   0  0  0  0  0  0  0  0  0  0  0  0
    7.0692  -14.7284   21.3631 C   0  0  0  0  0  0  0  0  0  0  0  0
    7.9851  -15.8897   21.0195 C   0  0  2  0  0  0  0  0  0  0  0  0
    7.1015  -16.8580   20.3448 N   0  0  0  0  0  0  0  0  0  0  0  0
    8.5453  -16.5391   22.1959 C   0  0  0  0  0  0  0  0  0  0  0  0
    7.7999  -17.2727   22.9297 O   0  0  0  0  0  0  0  0  0  0  0  0
   13.7915  -18.1972   24.8670 N   0  0  0  0  0  0  0  0  0  0  0  0
   12.4347  -18.4300   24.5224 C   0  0  0  0  0  0  0  0  0  0  0  0
   11.7958  -19.3450   25.0759 O   0  0  0  0  0  0  0  0  0  0  0  0
   11.8240  -17.5711   23.5120 C   0  0  0  0  0  0  0  0  0  0  0  0
   10.3857  -17.1950   23.7897 C   0  0  2  0  0  0  0  0  0  0  0  0
    9.8904  -16.4578   22.6609 N   0  0  0  0  0  0  0  0  0  0  0  0
   10.4142  -16.3699   25.0362 C   0  0  0  0  0  0  0  0  0  0  0  0
   11.1023  -15.3195   24.9836 O   0  0  0  0  0  0  0  0  0  0  0  0
    9.7335  -16.6998   26.2220 N   0  0  0  0  0  0  0  0  0  0  0  0
    9.9084  -15.9400   27.4644 C   0  0  1  0  0  0  0  0  0  0  0  0
    8.5756  -15.4161   27.9546 C   0  0  0  0  0  0  0  0  0  0  0  0
    8.0483  -14.3000   27.1366 C   0  0  0  0  0  0  0  0  0  0  0  0
    8.6494  -13.0602   27.1623 C   0  0  0  0  0  0  0  0  0  0  0  0
    8.1709  -12.0130   26.4010 C   0  0  0  0  0  0  0  0  0  0  0  0
    7.0609  -12.1691   25.5762 C   0  0  0  0  0  0  0  0  0  0  0  0
    6.4642  -13.4115   25.5547 C   0  0  0  0  0  0  0  0  0  0  0  0
    6.9447  -14.4569   26.3172 C   0  0  0  0  0  0  0  0  0  0  0  0
   10.6290  -16.7259   28.4693 C   0  0  0  0  0  0  0  0  0  0  0  0
   11.1374  -16.2585   29.6435 O   0  0  0  0  0  0  0  0  0  0  0  0
   10.8017  -17.9671   28.2294 O   0  0  0  0  0  0  0  0  0  0  0  0
  1  2  1  0
  3  2  1  0
  4  3  1  0
  5  6  1  1
  5  4  1  0
  7  5  1  0
  8  7  2  0
  9 10  1  0
 10 12  1  0
 10 11  2  0
 13 12  1  6
 13 15  1  0
 13 14  1  0
 14  7  1  0
 15 16  2  0
 17 18  1  0
 17 15  1  0
 18 19  1  1
 20 19  1  0
 21 20  2  0
 22 21  1  0
 23 24  1  0
 23 22  2  0
 24 25  2  0
 25 20  1  0
 26 18  1  0
 27 26  1  0
 28 26  2  0
M  END
$$$$
