MNF.pdb
     RDKit          3D

 28 28  0  0  1  0  0  0  0  0999 V2000
    8.4175  -11.6554   19.4065 C   0  0  0  0  0  0  0  0  0  0  0  0
    7.8050  -11.9902   21.0909 S   0  0  0  0  0  0  0  0  0  0  0  0
    7.4375  -13.7652   21.2909 C   0  0  0  0  0  0  0  0  0  0  0  0
    8.3509  -14.5212   20.3511 C   0  0  0  0  0  0  0  0  0  0  0  0
    8.1056  -16.0179   20.4252 C   0  0  2  0  0  0  0  0  0  0  0  0
    6.6439  -16.1506   20.2866 N   0  0  0  0  0  0  0  0  0  0  0  0
    8.4879  -16.5937   21.7065 C   0  0  0  0  0  0  0  0  0  0  0  0
    7.5868  -16.8854   22.5639 O   0  0  0  0  0  0  0  0  0  0  0  0
   10.9615  -20.6879   22.7053 N   0  0  0  0  0  0  0  0  0  0  0  0
   11.4332  -19.4328   22.2403 C   0  0  0  0  0  0  0  0  0  0  0  0
   11.8302  -19.3085   21.0661 O   0  0  0  0  0  0  0  0  0  0  0  0
   11.4356  -18.3098   23.1733 C   0  0  0  0  0  0  0  0  0  0  0  0
   10.0946  -17.6328   23.3486 C   0  0  2  0  0  0  0  0  0  0  0  0
    9.8090  -16.8899   22.1529 N   0  0  0  0  0  0  0  0  0  0  0  0
   10.2391  -16.7469   24.5443 C   0  0  0  0  0  0  0  0  0  0  0  0
   11.0257  -15.7751   24.4156 O   0  0  0  0  0  0  0  0  0  0  0  0
    9.5626  -16.9408   25.7621 N   0  0  0  0  0  0  0  0  0  0  0  0
    9.8088  -16.1005   26.9389 C   0  0  1  0  0  0  0  0  0  0  0  0
    8.5064  -15.5411   27.4697 C   0  0  0  0  0  0  0  0  0  0  0  0
    7.9890  -14.4052   26.6730 C   0  0  0  0  0  0  0  0  0  0  0  0
    6.8599  -14.5443   25.8953 C   0  0  0  0  0  0  0  0  0  0  0  0
    6.3643  -13.4922   25.1519 C   0  0  0  0  0  0  0  0  0  0  0  0
    6.9871  -12.2475   25.1592 C   0  0  0  0  0  0  0  0  0  0  0  0
    8.1159  -12.1147   25.9391 C   0  0  0  0  0  0  0  0  0  0  0  0
    8.6093  -13.1686   26.6813 C   0  0  0  0  0  0  0  0  0  0  0  0
   10.5874  -16.8200   27.9503 C   0  0  0  0  0  0  0  0  0  0  0  0
   10.9827  -18.1220   27.8855 O   0  0  0  0  0  0  0  0  0  0  0  0
   10.9318  -16.1729   28.9947 O   0  0  0  0  0  0  0  0  0  0  0  0
  1  2  1  0
  3  2  1  0
  4  3  1  0
  5  6  1  1
  5  4  1  0
  7  5  1  0
  8  7  2  0
  9 10  1  0
 10 12  1  0
 10 11  2  0
 13 12  1  6
 13 15  1  0
 13 14  1  0
 14  7  1  0
 15 16  2  0
 17 18  1  0
 17 15  1  0
 18 19  1  1
 20 19  1  0
 21 20  2  0
 22 21  1  0
 23 24  1  0
 23 22  2  0
 24 25  2  0
 25 20  1  0
 26 18  1  0
 27 26  1  0
 28 26  2  0
M  END
$$$$
