EMW.pdb
     RDKit          3D

 32 33  0  0  1  0  0  0  0  0999 V2000
    8.0123  -19.2605   19.4717 N   0  0  0  0  0  0  0  0  0  0  0  0
    8.9954  -18.4085   18.7842 C   0  0  1  0  0  0  0  0  0  0  0  0
    8.5073  -18.0131   17.4352 C   0  0  0  0  0  0  0  0  0  0  0  0
    9.0854  -18.9102   16.3814 C   0  0  0  0  0  0  0  0  0  0  0  0
    9.0948  -18.1618   15.0904 C   0  0  0  0  0  0  0  0  0  0  0  0
    8.4989  -18.6090   14.1046 O   0  0  0  0  0  0  0  0  0  0  0  0
    9.3314  -17.3205   19.7038 C   0  0  0  0  0  0  0  0  0  0  0  0
   10.5096  -16.8638   19.8955 O   0  0  0  0  0  0  0  0  0  0  0  0
    9.7833  -16.9507   15.0053 O   0  0  0  0  0  0  0  0  0  0  0  0
    7.1226  -11.3803   24.1692 C   0  0  0  0  0  0  0  0  0  0  0  0
    6.6888  -12.8486   23.1823 S   0  0  0  0  0  0  0  0  0  0  0  0
    8.0179  -13.1546   21.9582 C   0  0  0  0  0  0  0  0  0  0  0  0
    7.7143  -14.3896   21.1715 C   0  0  0  0  0  0  0  0  0  0  0  0
    8.6835  -15.5078   21.3624 C   0  0  2  0  0  0  0  0  0  0  0  0
    8.3349  -16.6501   20.4956 N   0  0  0  0  0  0  0  0  0  0  0  0
    8.5915  -15.9847   22.7421 C   0  0  0  0  0  0  0  0  0  0  0  0
    7.7020  -15.6160   23.5421 O   0  0  0  0  0  0  0  0  0  0  0  0
    9.5486  -16.9123   23.2182 N   0  0  0  0  0  0  0  0  0  0  0  0
   10.5340  -16.5274   24.2197 C   0  0  1  0  0  0  0  0  0  0  0  0
   10.0728  -16.9006   25.6085 C   0  0  0  0  0  0  0  0  0  0  0  0
    8.9149  -16.0508   25.9589 C   0  0  0  0  0  0  0  0  0  0  0  0
    7.5795  -16.2920   25.7465 C   0  0  0  0  0  0  0  0  0  0  0  0
    6.8559  -15.2428   26.2151 N   0  0  0  0  0  0  0  0  0  0  0  0
    7.6814  -14.3216   26.7282 C   0  0  0  0  0  0  0  0  0  0  0  0
    7.4980  -13.1023   27.3186 C   0  0  0  0  0  0  0  0  0  0  0  0
    8.5675  -12.3301   27.7751 C   0  0  0  0  0  0  0  0  0  0  0  0
    9.8466  -12.8204   27.6217 C   0  0  0  0  0  0  0  0  0  0  0  0
   10.0353  -14.0466   27.0283 C   0  0  0  0  0  0  0  0  0  0  0  0
    8.9577  -14.8088   26.5762 C   0  0  0  0  0  0  0  0  0  0  0  0
   11.7997  -17.2584   23.9550 C   0  0  0  0  0  0  0  0  0  0  0  0
   11.8303  -18.1731   23.0611 O   0  0  0  0  0  0  0  0  0  0  0  0
   12.9831  -17.0295   24.6090 O   0  0  0  0  0  0  0  0  0  0  0  0
  2  1  1  1
  2  7  1  0
  3  4  1  0
  3  2  1  0
  5  9  1  0
  5  4  1  0
  6  5  2  0
  7  8  2  0
  7 15  1  0
 11 10  1  0
 12 11  1  0
 13 12  1  0
 14 13  1  1
 14 16  1  0
 15 14  1  0
 16 17  2  0
 18 16  1  0
 18 19  1  0
 19 20  1  1
 21 20  1  0
 22 21  2  0
 23 22  1  0
 24 23  1  0
 24 29  2  0
 25 26  2  0
 25 24  1  0
 26 27  1  0
 27 28  2  0
 29 28  1  0
 29 21  1  0
 30 32  1  0
 30 19  1  0
 31 30  2  0
M  END
$$$$
