EMW.pdb
     RDKit          3D

 32 33  0  0  1  0  0  0  0  0999 V2000
    9.0840  -18.5988   18.1703 N   0  0  0  0  0  0  0  0  0  0  0  0
    8.9345  -17.1356   18.2073 C   0  0  1  0  0  0  0  0  0  0  0  0
    8.1481  -16.6503   17.0408 C   0  0  0  0  0  0  0  0  0  0  0  0
    9.0592  -16.1117   15.9780 C   0  0  0  0  0  0  0  0  0  0  0  0
    9.3226  -17.2045   14.9966 C   0  0  0  0  0  0  0  0  0  0  0  0
   10.1267  -18.1039   15.2638 O   0  0  0  0  0  0  0  0  0  0  0  0
    8.4167  -16.7949   19.5332 C   0  0  0  0  0  0  0  0  0  0  0  0
    8.2179  -15.6053   19.9563 O   0  0  0  0  0  0  0  0  0  0  0  0
    8.6523  -17.2024   13.7723 O   0  0  0  0  0  0  0  0  0  0  0  0
    2.8886  -20.2671   20.7981 C   0  0  0  0  0  0  0  0  0  0  0  0
    4.2836  -20.0417   21.9476 S   0  0  0  0  0  0  0  0  0  0  0  0
    5.3082  -18.6369   21.3688 C   0  0  0  0  0  0  0  0  0  0  0  0
    6.5100  -18.4848   22.2457 C   0  0  0  0  0  0  0  0  0  0  0  0
    7.4784  -17.4386   21.8052 C   0  0  2  0  0  0  0  0  0  0  0  0
    8.0761  -17.7993   20.5051 N   0  0  0  0  0  0  0  0  0  0  0  0
    8.5772  -17.3739   22.7685 C   0  0  0  0  0  0  0  0  0  0  0  0
    9.6476  -18.0099   22.6386 O   0  0  0  0  0  0  0  0  0  0  0  0
    8.4439  -16.5551   23.9152 N   0  0  0  0  0  0  0  0  0  0  0  0
    9.5464  -16.3910   24.8531 C   0  0  1  0  0  0  0  0  0  0  0  0
    9.5842  -14.9871   25.4083 C   0  0  0  0  0  0  0  0  0  0  0  0
    8.1984  -14.5661   25.7052 C   0  0  0  0  0  0  0  0  0  0  0  0
    7.0641  -15.3379   25.7724 C   0  0  0  0  0  0  0  0  0  0  0  0
    6.0009  -14.5450   26.0634 N   0  0  0  0  0  0  0  0  0  0  0  0
    6.4084  -13.2755   26.1884 C   0  0  0  0  0  0  0  0  0  0  0  0
    5.7764  -12.0959   26.4679 C   0  0  0  0  0  0  0  0  0  0  0  0
    6.4646  -10.8836   26.5391 C   0  0  0  0  0  0  0  0  0  0  0  0
    7.8253  -10.8848   26.3191 C   0  0  0  0  0  0  0  0  0  0  0  0
    8.4649  -12.0693   26.0376 C   0  0  0  0  0  0  0  0  0  0  0  0
    7.7654  -13.2745   25.9694 C   0  0  0  0  0  0  0  0  0  0  0  0
    9.3490  -17.3204   25.9949 C   0  0  0  0  0  0  0  0  0  0  0  0
    8.2241  -17.9106   26.1468 O   0  0  0  0  0  0  0  0  0  0  0  0
   10.3031  -17.6128   26.9355 O   0  0  0  0  0  0  0  0  0  0  0  0
  2  1  1  1
  2  7  1  0
  3  4  1  0
  3  2  1  0
  5  9  1  0
  5  4  1  0
  6  5  2  0
  7  8  2  0
  7 15  1  0
 11 10  1  0
 12 11  1  0
 13 12  1  0
 14 13  1  1
 14 16  1  0
 15 14  1  0
 16 17  2  0
 18 16  1  0
 18 19  1  0
 19 20  1  1
 21 20  1  0
 22 21  2  0
 23 22  1  0
 24 23  1  0
 24 29  2  0
 25 26  2  0
 25 24  1  0
 26 27  1  0
 27 28  2  0
 29 28  1  0
 29 21  1  0
 30 32  1  0
 30 19  1  0
 31 30  2  0
M  END
$$$$
