EMW.pdb
     RDKit          3D

 32 33  0  0  1  0  0  0  0  0999 V2000
    8.5125  -18.9013   19.5064 N   0  0  0  0  0  0  0  0  0  0  0  0
    9.6845  -18.2782   18.8716 C   0  0  1  0  0  0  0  0  0  0  0  0
    9.5813  -18.3363   17.3882 C   0  0  0  0  0  0  0  0  0  0  0  0
   10.8551  -18.8562   16.7910 C   0  0  0  0  0  0  0  0  0  0  0  0
   10.8439  -18.5436   15.3319 C   0  0  0  0  0  0  0  0  0  0  0  0
   11.7936  -18.8755   14.6145 O   0  0  0  0  0  0  0  0  0  0  0  0
    9.8331  -16.9490   19.4660 C   0  0  0  0  0  0  0  0  0  0  0  0
    9.7437  -15.8475   18.8238 O   0  0  0  0  0  0  0  0  0  0  0  0
    9.7501  -17.8722   14.7832 O   0  0  0  0  0  0  0  0  0  0  0  0
    7.5770  -12.2421   21.0774 C   0  0  0  0  0  0  0  0  0  0  0  0
    8.4900  -13.4325   20.0442 S   0  0  0  0  0  0  0  0  0  0  0  0
    7.5833  -15.0249   20.0316 C   0  0  0  0  0  0  0  0  0  0  0  0
    7.8945  -15.8006   21.2717 C   0  0  0  0  0  0  0  0  0  0  0  0
    9.3319  -15.7918   21.6719 C   0  0  2  0  0  0  0  0  0  0  0  0
   10.1005  -16.7606   20.8668 N   0  0  0  0  0  0  0  0  0  0  0  0
    9.4389  -16.2254   23.0647 C   0  0  0  0  0  0  0  0  0  0  0  0
    8.6740  -17.0681   23.5862 O   0  0  0  0  0  0  0  0  0  0  0  0
   10.4538  -15.6757   23.8839 N   0  0  0  0  0  0  0  0  0  0  0  0
   10.5344  -16.0028   25.3011 C   0  0  1  0  0  0  0  0  0  0  0  0
    9.1587  -16.1856   25.8966 C   0  0  0  0  0  0  0  0  0  0  0  0
    8.8689  -15.0244   26.7646 C   0  0  0  0  0  0  0  0  0  0  0  0
    9.3745  -14.7374   28.0090 C   0  0  0  0  0  0  0  0  0  0  0  0
    8.8325  -13.5747   28.4543 N   0  0  0  0  0  0  0  0  0  0  0  0
    7.9859  -13.0931   27.5352 C   0  0  0  0  0  0  0  0  0  0  0  0
    7.1891  -11.9846   27.4629 C   0  0  0  0  0  0  0  0  0  0  0  0
    6.3837  -11.7202   26.3539 C   0  0  0  0  0  0  0  0  0  0  0  0
    6.3983  -12.6108   25.3020 C   0  0  0  0  0  0  0  0  0  0  0  0
    7.1985  -13.7272   25.3709 C   0  0  0  0  0  0  0  0  0  0  0  0
    7.9990  -13.9800   26.4852 C   0  0  0  0  0  0  0  0  0  0  0  0
   11.2658  -17.2862   25.4578 C   0  0  0  0  0  0  0  0  0  0  0  0
   12.0930  -17.4325   26.4229 O   0  0  0  0  0  0  0  0  0  0  0  0
   11.1264  -18.3689   24.6278 O   0  0  0  0  0  0  0  0  0  0  0  0
  2  1  1  1
  2  7  1  0
  3  4  1  0
  3  2  1  0
  5  9  1  0
  5  4  1  0
  6  5  2  0
  7  8  2  0
  7 15  1  0
 11 10  1  0
 12 11  1  0
 13 12  1  0
 14 13  1  6
 14 16  1  0
 15 14  1  0
 16 17  2  0
 18 16  1  0
 18 19  1  0
 19 20  1  6
 21 20  1  0
 22 21  2  0
 23 22  1  0
 24 23  1  0
 24 29  2  0
 25 26  2  0
 25 24  1  0
 26 27  1  0
 27 28  2  0
 29 28  1  0
 29 21  1  0
 30 32  1  0
 30 19  1  0
 31 30  2  0
M  END
$$$$
