EMW.pdb
     RDKit          3D

 32 33  0  0  1  0  0  0  0  0999 V2000
    9.5533  -18.6132   20.2083 N   0  0  0  0  0  0  0  0  0  0  0  0
   10.7600  -17.7783   20.1001 C   0  0  1  0  0  0  0  0  0  0  0  0
   11.2130  -17.6767   18.6862 C   0  0  0  0  0  0  0  0  0  0  0  0
   10.4337  -18.6157   17.8141 C   0  0  0  0  0  0  0  0  0  0  0  0
   11.1226  -18.7002   16.4931 C   0  0  0  0  0  0  0  0  0  0  0  0
   12.2620  -19.1715   16.4116 O   0  0  0  0  0  0  0  0  0  0  0  0
   10.4681  -16.5188   20.7861 C   0  0  0  0  0  0  0  0  0  0  0  0
   11.2636  -15.5205   20.8502 O   0  0  0  0  0  0  0  0  0  0  0  0
   10.4686  -18.2417   15.3485 O   0  0  0  0  0  0  0  0  0  0  0  0
    8.0831  -12.2611   18.0912 C   0  0  0  0  0  0  0  0  0  0  0  0
    8.5115  -12.9037   19.7410 S   0  0  0  0  0  0  0  0  0  0  0  0
    7.3030  -14.2011   20.2044 C   0  0  0  0  0  0  0  0  0  0  0  0
    7.4866  -14.5823   21.6388 C   0  0  0  0  0  0  0  0  0  0  0  0
    8.8808  -14.9595   22.0132 C   0  0  2  0  0  0  0  0  0  0  0  0
    9.2229  -16.2876   21.4684 N   0  0  0  0  0  0  0  0  0  0  0  0
    8.9678  -15.0683   23.4692 C   0  0  0  0  0  0  0  0  0  0  0  0
    8.3684  -14.3009   24.2559 O   0  0  0  0  0  0  0  0  0  0  0  0
    9.7664  -16.0880   24.0398 N   0  0  0  0  0  0  0  0  0  0  0  0
   10.1760  -16.0280   25.4365 C   0  0  1  0  0  0  0  0  0  0  0  0
    9.0853  -16.5415   26.3460 C   0  0  0  0  0  0  0  0  0  0  0  0
    7.8568  -15.7609   26.0869 C   0  0  0  0  0  0  0  0  0  0  0  0
    6.7057  -16.1601   25.4526 C   0  0  0  0  0  0  0  0  0  0  0  0
    5.8297  -15.1230   25.4221 N   0  0  0  0  0  0  0  0  0  0  0  0
    6.3762  -14.0561   26.0192 C   0  0  0  0  0  0  0  0  0  0  0  0
    5.9503  -12.7804   26.2646 C   0  0  0  0  0  0  0  0  0  0  0  0
    6.7482  -11.8457   26.9265 C   0  0  0  0  0  0  0  0  0  0  0  0
    8.0050  -12.2297   27.3426 C   0  0  0  0  0  0  0  0  0  0  0  0
    8.4372  -13.5121   27.0975 C   0  0  0  0  0  0  0  0  0  0  0  0
    7.6297  -14.4370   26.4349 C   0  0  0  0  0  0  0  0  0  0  0  0
   11.3657  -16.8968   25.6267 C   0  0  0  0  0  0  0  0  0  0  0  0
   11.8566  -17.5295   24.6289 O   0  0  0  0  0  0  0  0  0  0  0  0
   12.0086  -17.0868   26.8230 O   0  0  0  0  0  0  0  0  0  0  0  0
  2  1  1  6
  2  7  1  0
  3  4  1  0
  3  2  1  0
  5  9  1  0
  5  4  1  0
  6  5  2  0
  7  8  2  0
  7 15  1  0
 11 10  1  0
 12 11  1  0
 13 12  1  0
 14 13  1  1
 14 16  1  0
 15 14  1  0
 16 17  2  0
 18 16  1  0
 18 19  1  0
 19 20  1  1
 21 20  1  0
 22 21  2  0
 23 22  1  0
 24 23  1  0
 24 29  2  0
 25 26  2  0
 25 24  1  0
 26 27  1  0
 27 28  2  0
 29 28  1  0
 29 21  1  0
 30 32  1  0
 30 19  1  0
 31 30  2  0
M  END
$$$$
