EMW.pdb
     RDKit          3D

 32 33  0  0  1  0  0  0  0  0999 V2000
    8.4158  -18.3234   18.9674 N   0  0  0  0  0  0  0  0  0  0  0  0
    9.5278  -17.3610   19.0120 C   0  0  1  0  0  0  0  0  0  0  0  0
    9.4819  -16.4388   17.8450 C   0  0  0  0  0  0  0  0  0  0  0  0
   10.8039  -16.4185   17.1367 C   0  0  0  0  0  0  0  0  0  0  0  0
   10.5445  -16.2530   15.6766 C   0  0  0  0  0  0  0  0  0  0  0  0
    9.5844  -15.5810   15.2847 O   0  0  0  0  0  0  0  0  0  0  0  0
    9.5003  -16.7412   20.3376 C   0  0  0  0  0  0  0  0  0  0  0  0
   10.3854  -15.9353   20.7857 O   0  0  0  0  0  0  0  0  0  0  0  0
   11.3965  -16.8645   14.7555 O   0  0  0  0  0  0  0  0  0  0  0  0
    7.2341  -13.6072   26.4417 C   0  0  0  0  0  0  0  0  0  0  0  0
    7.3574  -14.1921   24.7211 S   0  0  0  0  0  0  0  0  0  0  0  0
    7.0770  -16.0028   24.6883 C   0  0  0  0  0  0  0  0  0  0  0  0
    7.1347  -16.5041   23.2806 C   0  0  0  0  0  0  0  0  0  0  0  0
    8.4834  -16.4356   22.6461 C   0  0  2  0  0  0  0  0  0  0  0  0
    8.4429  -16.9924   21.2801 N   0  0  0  0  0  0  0  0  0  0  0  0
    9.4103  -17.2690   23.4115 C   0  0  0  0  0  0  0  0  0  0  0  0
    9.4148  -18.5199   23.3634 O   0  0  0  0  0  0  0  0  0  0  0  0
   10.3604  -16.6486   24.2574 N   0  0  0  0  0  0  0  0  0  0  0  0
   11.3517  -17.4361   24.9780 C   0  0  1  0  0  0  0  0  0  0  0  0
   12.2860  -16.5475   25.7641 C   0  0  0  0  0  0  0  0  0  0  0  0
   11.5963  -16.1258   27.0019 C   0  0  0  0  0  0  0  0  0  0  0  0
   11.2110  -16.8949   28.0728 C   0  0  0  0  0  0  0  0  0  0  0  0
   10.5980  -16.1057   28.9921 N   0  0  0  0  0  0  0  0  0  0  0  0
   10.5716  -14.8412   28.5521 C   0  0  0  0  0  0  0  0  0  0  0  0
   10.0896  -13.6667   29.0592 C   0  0  0  0  0  0  0  0  0  0  0  0
   10.1998  -12.4589   28.3681 C   0  0  0  0  0  0  0  0  0  0  0  0
   10.8160  -12.4595   27.1351 C   0  0  0  0  0  0  0  0  0  0  0  0
   11.3022  -13.6390   26.6215 C   0  0  0  0  0  0  0  0  0  0  0  0
   11.1857  -14.8397   27.3224 C   0  0  0  0  0  0  0  0  0  0  0  0
   10.6529  -18.3206   25.9454 C   0  0  0  0  0  0  0  0  0  0  0  0
    9.4555  -18.0486   26.3048 O   0  0  0  0  0  0  0  0  0  0  0  0
   11.1990  -19.4458   26.5076 O   0  0  0  0  0  0  0  0  0  0  0  0
  2  1  1  1
  2  7  1  0
  3  4  1  0
  3  2  1  0
  5  9  1  0
  5  4  1  0
  6  5  2  0
  7  8  2  0
  7 15  1  0
 11 10  1  0
 12 11  1  0
 13 12  1  0
 14 13  1  1
 14 16  1  0
 15 14  1  0
 16 17  2  0
 18 16  1  0
 18 19  1  0
 19 20  1  1
 21 20  1  0
 22 21  2  0
 23 22  1  0
 24 23  1  0
 24 29  2  0
 25 26  2  0
 25 24  1  0
 26 27  1  0
 27 28  2  0
 29 28  1  0
 29 21  1  0
 30 32  1  0
 30 19  1  0
 31 30  2  0
M  END
$$$$
