EMW.pdb
     RDKit          3D

 32 33  0  0  1  0  0  0  0  0999 V2000
    8.9489  -19.7243   20.9964 N   0  0  0  0  0  0  0  0  0  0  0  0
   10.1783  -19.2403   20.3490 C   0  0  1  0  0  0  0  0  0  0  0  0
   10.1854  -19.5765   18.8994 C   0  0  0  0  0  0  0  0  0  0  0  0
    9.0635  -18.8777   18.1906 C   0  0  0  0  0  0  0  0  0  0  0  0
    9.1140  -19.2639   16.7501 C   0  0  0  0  0  0  0  0  0  0  0  0
   10.0174  -19.9952   16.3305 O   0  0  0  0  0  0  0  0  0  0  0  0
   10.3104  -17.8238   20.6932 C   0  0  0  0  0  0  0  0  0  0  0  0
   11.2481  -17.0572   20.2849 O   0  0  0  0  0  0  0  0  0  0  0  0
    8.1311  -18.7915   15.8789 O   0  0  0  0  0  0  0  0  0  0  0  0
    7.2422  -10.9297   20.2184 C   0  0  0  0  0  0  0  0  0  0  0  0
    7.1866  -12.7413   20.0370 S   0  0  0  0  0  0  0  0  0  0  0  0
    8.4261  -13.4885   21.1612 C   0  0  0  0  0  0  0  0  0  0  0  0
    8.3556  -14.9801   21.0816 C   0  0  0  0  0  0  0  0  0  0  0  0
    9.4547  -15.6979   21.7908 C   0  0  2  0  0  0  0  0  0  0  0  0
    9.3680  -17.1506   21.5464 N   0  0  0  0  0  0  0  0  0  0  0  0
    9.2947  -15.5047   23.2318 C   0  0  0  0  0  0  0  0  0  0  0  0
    8.9380  -14.4213   23.7477 O   0  0  0  0  0  0  0  0  0  0  0  0
    9.5518  -16.5867   24.1072 N   0  0  0  0  0  0  0  0  0  0  0  0
   10.1024  -16.3624   25.4370 C   0  0  1  0  0  0  0  0  0  0  0  0
    9.0443  -16.5353   26.5005 C   0  0  0  0  0  0  0  0  0  0  0  0
    7.8765  -15.7055   26.1349 C   0  0  0  0  0  0  0  0  0  0  0  0
    6.6494  -16.1106   25.6693 C   0  0  0  0  0  0  0  0  0  0  0  0
    5.8725  -15.0189   25.4492 N   0  0  0  0  0  0  0  0  0  0  0  0
    6.5577  -13.9106   25.7580 C   0  0  0  0  0  0  0  0  0  0  0  0
    6.2702  -12.5744   25.7282 C   0  0  0  0  0  0  0  0  0  0  0  0
    7.1978  -11.6065   26.1169 C   0  0  0  0  0  0  0  0  0  0  0  0
    8.4417  -12.0201   26.5432 C   0  0  0  0  0  0  0  0  0  0  0  0
    8.7348  -13.3634   26.5747 C   0  0  0  0  0  0  0  0  0  0  0  0
    7.7986  -14.3209   26.1834 C   0  0  0  0  0  0  0  0  0  0  0  0
   11.1655  -17.3677   25.6934 C   0  0  0  0  0  0  0  0  0  0  0  0
   11.4188  -18.2628   24.8151 O   0  0  0  0  0  0  0  0  0  0  0  0
   11.9285  -17.4219   26.8316 O   0  0  0  0  0  0  0  0  0  0  0  0
  2  1  1  6
  2  7  1  0
  3  4  1  0
  3  2  1  0
  5  9  1  0
  5  4  1  0
  6  5  2  0
  7  8  2  0
  7 15  1  0
 11 10  1  0
 12 11  1  0
 13 12  1  0
 14 13  1  6
 14 16  1  0
 15 14  1  0
 16 17  2  0
 18 16  1  0
 18 19  1  0
 19 20  1  1
 21 20  1  0
 22 21  2  0
 23 22  1  0
 24 23  1  0
 24 29  2  0
 25 26  2  0
 25 24  1  0
 26 27  1  0
 27 28  2  0
 29 28  1  0
 29 21  1  0
 30 32  1  0
 30 19  1  0
 31 30  2  0
M  END
$$$$
