EMW.pdb
     RDKit          3D

 32 33  0  0  1  0  0  0  0  0999 V2000
   10.4996  -19.4359   19.8481 N   0  0  0  0  0  0  0  0  0  0  0  0
   11.4965  -18.3589   19.9537 C   0  0  1  0  0  0  0  0  0  0  0  0
   11.8653  -17.8400   18.6086 C   0  0  0  0  0  0  0  0  0  0  0  0
   10.6794  -17.8643   17.6907 C   0  0  0  0  0  0  0  0  0  0  0  0
   11.0741  -17.2141   16.4069 C   0  0  0  0  0  0  0  0  0  0  0  0
   10.2124  -16.7710   15.6401 O   0  0  0  0  0  0  0  0  0  0  0  0
   10.9690  -17.3840   20.9094 C   0  0  0  0  0  0  0  0  0  0  0  0
   11.5558  -16.2994   21.2457 O   0  0  0  0  0  0  0  0  0  0  0  0
   12.4268  -17.1105   16.0786 O   0  0  0  0  0  0  0  0  0  0  0  0
    5.6351  -15.4535   26.3539 C   0  0  0  0  0  0  0  0  0  0  0  0
    6.5470  -16.6773   25.3596 S   0  0  0  0  0  0  0  0  0  0  0  0
    7.2100  -15.8514   23.8641 C   0  0  0  0  0  0  0  0  0  0  0  0
    7.8149  -16.8647   22.9456 C   0  0  0  0  0  0  0  0  0  0  0  0
    9.2595  -16.6500   22.6402 C   0  0  2  0  0  0  0  0  0  0  0  0
    9.7060  -17.5667   21.5735 N   0  0  0  0  0  0  0  0  0  0  0  0
   10.0485  -16.9732   23.8286 C   0  0  0  0  0  0  0  0  0  0  0  0
   10.4423  -18.1295   24.1025 O   0  0  0  0  0  0  0  0  0  0  0  0
   10.3962  -15.9388   24.7299 N   0  0  0  0  0  0  0  0  0  0  0  0
   11.3771  -16.1594   25.7841 C   0  0  1  0  0  0  0  0  0  0  0  0
   11.6261  -14.8937   26.5693 C   0  0  0  0  0  0  0  0  0  0  0  0
   10.3614  -14.4946   27.2229 C   0  0  0  0  0  0  0  0  0  0  0  0
    9.8840  -14.8570   28.4588 C   0  0  0  0  0  0  0  0  0  0  0  0
    8.6761  -14.2703   28.6607 N   0  0  0  0  0  0  0  0  0  0  0  0
    8.3502  -13.5340   27.5907 C   0  0  0  0  0  0  0  0  0  0  0  0
    7.2772  -12.7525   27.2640 C   0  0  0  0  0  0  0  0  0  0  0  0
    7.1938  -12.0780   26.0448 C   0  0  0  0  0  0  0  0  0  0  0  0
    8.2314  -12.2096   25.1469 C   0  0  0  0  0  0  0  0  0  0  0  0
    9.3127  -12.9948   25.4719 C   0  0  0  0  0  0  0  0  0  0  0  0
    9.3838  -13.6639   26.6941 C   0  0  0  0  0  0  0  0  0  0  0  0
   10.8480  -17.1770   26.7281 C   0  0  0  0  0  0  0  0  0  0  0  0
   11.6293  -17.7133   27.5878 O   0  0  0  0  0  0  0  0  0  0  0  0
    9.5465  -17.6076   26.7606 O   0  0  0  0  0  0  0  0  0  0  0  0
  2  1  1  6
  2  7  1  0
  3  4  1  0
  3  2  1  0
  5  9  1  0
  5  4  1  0
  6  5  2  0
  7  8  2  0
  7 15  1  0
 11 10  1  0
 12 11  1  0
 13 12  1  0
 14 13  1  1
 14 16  1  0
 15 14  1  0
 16 17  2  0
 18 16  1  0
 18 19  1  0
 19 20  1  1
 21 20  1  0
 22 21  2  0
 23 22  1  0
 24 23  1  0
 24 29  2  0
 25 26  2  0
 25 24  1  0
 26 27  1  0
 27 28  2  0
 29 28  1  0
 29 21  1  0
 30 32  1  0
 30 19  1  0
 31 30  2  0
M  END
$$$$
