EMW.pdb
     RDKit          3D

 32 33  0  0  1  0  0  0  0  0999 V2000
    9.2606  -18.7223   19.7937 N   0  0  0  0  0  0  0  0  0  0  0  0
   10.6587  -18.5812   20.2297 C   0  0  1  0  0  0  0  0  0  0  0  0
   11.5945  -18.7627   19.0869 C   0  0  0  0  0  0  0  0  0  0  0  0
   13.0157  -18.7749   19.5659 C   0  0  0  0  0  0  0  0  0  0  0  0
   13.8996  -18.4763   18.4013 C   0  0  0  0  0  0  0  0  0  0  0  0
   13.8624  -19.1862   17.3905 O   0  0  0  0  0  0  0  0  0  0  0  0
   10.7512  -17.3143   20.9567 C   0  0  0  0  0  0  0  0  0  0  0  0
   11.6859  -17.0068   21.7726 O   0  0  0  0  0  0  0  0  0  0  0  0
   14.7700  -17.3870   18.4630 O   0  0  0  0  0  0  0  0  0  0  0  0
    7.5638  -12.8017   22.1493 C   0  0  0  0  0  0  0  0  0  0  0  0
    7.2852  -13.7321   20.6082 S   0  0  0  0  0  0  0  0  0  0  0  0
    6.8626  -15.4648   21.0294 C   0  0  0  0  0  0  0  0  0  0  0  0
    7.7442  -15.9522   22.1346 C   0  0  0  0  0  0  0  0  0  0  0  0
    9.1863  -15.5984   21.9878 C   0  0  2  0  0  0  0  0  0  0  0  0
    9.7690  -16.2733   20.8120 N   0  0  0  0  0  0  0  0  0  0  0  0
    9.9160  -16.0881   23.1571 C   0  0  0  0  0  0  0  0  0  0  0  0
   11.1035  -16.4820   23.1147 O   0  0  0  0  0  0  0  0  0  0  0  0
    9.2637  -16.1272   24.4126 N   0  0  0  0  0  0  0  0  0  0  0  0
    9.9873  -16.4898   25.6238 C   0  0  1  0  0  0  0  0  0  0  0  0
    9.3914  -15.8149   26.8363 C   0  0  0  0  0  0  0  0  0  0  0  0
    8.0646  -15.2781   26.4656 C   0  0  0  0  0  0  0  0  0  0  0  0
    6.9352  -15.9659   26.0940 C   0  0  0  0  0  0  0  0  0  0  0  0
    5.9402  -15.0808   25.8285 N   0  0  0  0  0  0  0  0  0  0  0  0
    6.3877  -13.8327   26.0162 C   0  0  0  0  0  0  0  0  0  0  0  0
    5.8260  -12.5920   25.8971 C   0  0  0  0  0  0  0  0  0  0  0  0
    6.5424  -11.4240   26.1632 C   0  0  0  0  0  0  0  0  0  0  0  0
    7.8584  -11.5341   26.5584 C   0  0  0  0  0  0  0  0  0  0  0  0
    8.4272  -12.7804   26.6793 C   0  0  0  0  0  0  0  0  0  0  0  0
    7.7001  -13.9404   26.4103 C   0  0  0  0  0  0  0  0  0  0  0  0
    9.8790  -17.9571   25.8279 C   0  0  0  0  0  0  0  0  0  0  0  0
    9.0311  -18.6324   25.1482 O   0  0  0  0  0  0  0  0  0  0  0  0
   10.6375  -18.6787   26.7137 O   0  0  0  0  0  0  0  0  0  0  0  0
  2  1  1  6
  2  7  1  0
  3  4  1  0
  3  2  1  0
  5  9  1  0
  5  4  1  0
  6  5  2  0
  7  8  2  0
  7 15  1  0
 11 10  1  0
 12 11  1  0
 13 12  1  0
 14 13  1  1
 14 16  1  0
 15 14  1  0
 16 17  2  0
 18 16  1  0
 18 19  1  0
 19 20  1  1
 21 20  1  0
 22 21  2  0
 23 22  1  0
 24 23  1  0
 24 29  2  0
 25 26  2  0
 25 24  1  0
 26 27  1  0
 27 28  2  0
 29 28  1  0
 29 21  1  0
 30 32  1  0
 30 19  1  0
 31 30  2  0
M  END
$$$$
