EMW.pdb
     RDKit          3D

 32 33  0  0  1  0  0  0  0  0999 V2000
   11.1325  -17.0212   19.4784 N   0  0  0  0  0  0  0  0  0  0  0  0
    9.8579  -16.8941   20.2025 C   0  0  1  0  0  0  0  0  0  0  0  0
    8.7344  -17.4598   19.4075 C   0  0  0  0  0  0  0  0  0  0  0  0
    8.6486  -16.7926   18.0669 C   0  0  0  0  0  0  0  0  0  0  0  0
    7.6060  -17.4971   17.2648 C   0  0  0  0  0  0  0  0  0  0  0  0
    7.3648  -17.1438   16.1055 O   0  0  0  0  0  0  0  0  0  0  0  0
   10.0680  -17.4619   21.5350 C   0  0  0  0  0  0  0  0  0  0  0  0
    9.4101  -18.4431   22.0230 O   0  0  0  0  0  0  0  0  0  0  0  0
    6.9042  -18.5600   17.8356 O   0  0  0  0  0  0  0  0  0  0  0  0
   15.7372  -17.8513   24.1564 C   0  0  0  0  0  0  0  0  0  0  0  0
   15.0417  -19.1673   23.1064 S   0  0  0  0  0  0  0  0  0  0  0  0
   13.2668  -18.8172   22.8139 C   0  0  0  0  0  0  0  0  0  0  0  0
   12.7275  -17.9566   23.9115 C   0  0  0  0  0  0  0  0  0  0  0  0
   11.2945  -17.5702   23.7577 C   0  0  2  0  0  0  0  0  0  0  0  0
   11.0631  -16.9499   22.4389 N   0  0  0  0  0  0  0  0  0  0  0  0
   10.9663  -16.5576   24.7609 C   0  0  0  0  0  0  0  0  0  0  0  0
   11.4598  -15.4072   24.7678 O   0  0  0  0  0  0  0  0  0  0  0  0
   10.0443  -16.8744   25.7870 N   0  0  0  0  0  0  0  0  0  0  0  0
    9.9930  -16.0959   27.0172 C   0  0  1  0  0  0  0  0  0  0  0  0
    8.5805  -16.0019   27.5432 C   0  0  0  0  0  0  0  0  0  0  0  0
    7.7268  -15.4222   26.4845 C   0  0  0  0  0  0  0  0  0  0  0  0
    7.0063  -16.0727   25.5127 C   0  0  0  0  0  0  0  0  0  0  0  0
    6.3698  -15.1558   24.7393 N   0  0  0  0  0  0  0  0  0  0  0  0
    6.6543  -13.9231   25.1785 C   0  0  0  0  0  0  0  0  0  0  0  0
    6.2942  -12.6650   24.7831 C   0  0  0  0  0  0  0  0  0  0  0  0
    6.7504  -11.5211   25.4402 C   0  0  0  0  0  0  0  0  0  0  0  0
    7.5910  -11.6741   26.5219 C   0  0  0  0  0  0  0  0  0  0  0  0
    7.9556  -12.9381   26.9228 C   0  0  0  0  0  0  0  0  0  0  0  0
    7.4925  -14.0735   26.2574 C   0  0  0  0  0  0  0  0  0  0  0  0
   10.8133  -16.7765   28.0518 C   0  0  0  0  0  0  0  0  0  0  0  0
   10.9602  -16.2371   29.2026 O   0  0  0  0  0  0  0  0  0  0  0  0
   11.4503  -17.9780   27.8751 O   0  0  0  0  0  0  0  0  0  0  0  0
  2  1  1  6
  2  7  1  0
  3  4  1  0
  3  2  1  0
  5  9  1  0
  5  4  1  0
  6  5  2  0
  7  8  2  0
  7 15  1  0
 11 10  1  0
 12 11  1  0
 13 12  1  0
 14 13  1  6
 14 16  1  0
 15 14  1  0
 16 17  2  0
 18 16  1  0
 18 19  1  0
 19 20  1  1
 21 20  1  0
 22 21  2  0
 23 22  1  0
 24 23  1  0
 24 29  2  0
 25 26  2  0
 25 24  1  0
 26 27  1  0
 27 28  2  0
 29 28  1  0
 29 21  1  0
 30 32  1  0
 30 19  1  0
 31 30  2  0
M  END
$$$$
