EMW.pdb
     RDKit          3D

 32 33  0  0  1  0  0  0  0  0999 V2000
    8.6164  -19.3520   21.1101 N   0  0  0  0  0  0  0  0  0  0  0  0
    9.5952  -18.7411   20.1971 C   0  0  1  0  0  0  0  0  0  0  0  0
    9.1806  -18.9133   18.7783 C   0  0  0  0  0  0  0  0  0  0  0  0
   10.2195  -18.3518   17.8536 C   0  0  0  0  0  0  0  0  0  0  0  0
    9.9412  -18.8630   16.4795 C   0  0  0  0  0  0  0  0  0  0  0  0
    9.8675  -18.0815   15.5252 O   0  0  0  0  0  0  0  0  0  0  0  0
    9.8041  -17.3670   20.6559 C   0  0  0  0  0  0  0  0  0  0  0  0
   10.7659  -16.6113   20.2850 O   0  0  0  0  0  0  0  0  0  0  0  0
    9.7647  -20.2332   16.2807 O   0  0  0  0  0  0  0  0  0  0  0  0
    7.8080  -11.8632   20.4863 C   0  0  0  0  0  0  0  0  0  0  0  0
    7.4265  -13.2763   19.4020 S   0  0  0  0  0  0  0  0  0  0  0  0
    7.1179  -14.7545   20.4403 C   0  0  0  0  0  0  0  0  0  0  0  0
    7.7667  -14.5853   21.7770 C   0  0  0  0  0  0  0  0  0  0  0  0
    9.0661  -15.3008   21.9376 C   0  0  2  0  0  0  0  0  0  0  0  0
    8.9187  -16.7279   21.5924 N   0  0  0  0  0  0  0  0  0  0  0  0
    9.4656  -15.2484   23.3437 C   0  0  0  0  0  0  0  0  0  0  0  0
    9.8405  -14.2003   23.9163 O   0  0  0  0  0  0  0  0  0  0  0  0
    9.4341  -16.4341   24.1160 N   0  0  0  0  0  0  0  0  0  0  0  0
    9.9903  -16.4688   25.4618 C   0  0  1  0  0  0  0  0  0  0  0  0
    8.9334  -16.8294   26.4785 C   0  0  0  0  0  0  0  0  0  0  0  0
    7.7969  -15.8973   26.3194 C   0  0  0  0  0  0  0  0  0  0  0  0
    6.5486  -16.1480   25.8040 C   0  0  0  0  0  0  0  0  0  0  0  0
    5.8151  -15.0058   25.8342 N   0  0  0  0  0  0  0  0  0  0  0  0
    6.5492  -14.0144   26.3554 C   0  0  0  0  0  0  0  0  0  0  0  0
    6.3170  -12.6921   26.6133 C   0  0  0  0  0  0  0  0  0  0  0  0
    7.2885  -11.8641   27.1781 C   0  0  0  0  0  0  0  0  0  0  0  0
    8.5191  -12.4053   27.4826 C   0  0  0  0  0  0  0  0  0  0  0  0
    8.7566  -13.7352   27.2247 C   0  0  0  0  0  0  0  0  0  0  0  0
    7.7769  -14.5522   26.6598 C   0  0  0  0  0  0  0  0  0  0  0  0
   11.0446  -17.5136   25.5199 C   0  0  0  0  0  0  0  0  0  0  0  0
   11.2786  -18.2380   24.4916 O   0  0  0  0  0  0  0  0  0  0  0  0
   11.8186  -17.7792   26.6203 O   0  0  0  0  0  0  0  0  0  0  0  0
  2  1  1  1
  2  7  1  0
  3  4  1  0
  3  2  1  0
  5  9  1  0
  5  4  1  0
  6  5  2  0
  7  8  2  0
  7 15  1  0
 11 10  1  0
 12 11  1  0
 13 12  1  0
 14 13  1  1
 14 16  1  0
 15 14  1  0
 16 17  2  0
 18 16  1  0
 18 19  1  0
 19 20  1  1
 21 20  1  0
 22 21  2  0
 23 22  1  0
 24 23  1  0
 24 29  2  0
 25 26  2  0
 25 24  1  0
 26 27  1  0
 27 28  2  0
 29 28  1  0
 29 21  1  0
 30 32  1  0
 30 19  1  0
 31 30  2  0
M  END
$$$$
