EMW.pdb
     RDKit          3D

 32 33  0  0  1  0  0  0  0  0999 V2000
    8.7077  -15.4236   18.5589 N   0  0  0  0  0  0  0  0  0  0  0  0
    8.4290  -14.2795   19.4410 C   0  0  1  0  0  0  0  0  0  0  0  0
    7.4205  -13.3701   18.8323 C   0  0  0  0  0  0  0  0  0  0  0  0
    7.9751  -12.7159   17.6018 C   0  0  0  0  0  0  0  0  0  0  0  0
    7.8688  -13.6865   16.4734 C   0  0  0  0  0  0  0  0  0  0  0  0
    6.8140  -13.7935   15.8386 O   0  0  0  0  0  0  0  0  0  0  0  0
    8.1050  -14.8281   20.7587 C   0  0  0  0  0  0  0  0  0  0  0  0
    7.7053  -14.1394   21.7585 O   0  0  0  0  0  0  0  0  0  0  0  0
    8.9721  -14.4737   16.1402 O   0  0  0  0  0  0  0  0  0  0  0  0
    6.9894  -21.7958   23.6822 C   0  0  0  0  0  0  0  0  0  0  0  0
    7.8272  -20.1974   23.9297 S   0  0  0  0  0  0  0  0  0  0  0  0
    6.7166  -18.8522   23.3684 C   0  0  0  0  0  0  0  0  0  0  0  0
    7.2764  -18.2048   22.1420 C   0  0  0  0  0  0  0  0  0  0  0  0
    7.7151  -16.7905   22.3251 C   0  0  2  0  0  0  0  0  0  0  0  0
    8.2111  -16.2323   21.0522 N   0  0  0  0  0  0  0  0  0  0  0  0
    8.8377  -16.7598   23.2623 C   0  0  0  0  0  0  0  0  0  0  0  0
    9.9777  -17.1989   22.9888 O   0  0  0  0  0  0  0  0  0  0  0  0
    8.6466  -16.2090   24.5520 N   0  0  0  0  0  0  0  0  0  0  0  0
    9.7187  -16.2166   25.5382 C   0  0  1  0  0  0  0  0  0  0  0  0
    9.6293  -15.0150   26.4486 C   0  0  0  0  0  0  0  0  0  0  0  0
    8.2179  -14.5788   26.5068 C   0  0  0  0  0  0  0  0  0  0  0  0
    7.0855  -15.3506   26.6000 C   0  0  0  0  0  0  0  0  0  0  0  0
    5.9942  -14.5428   26.6148 N   0  0  0  0  0  0  0  0  0  0  0  0
    6.3815  -13.2634   26.5337 C   0  0  0  0  0  0  0  0  0  0  0  0
    5.7188  -12.0679   26.5086 C   0  0  0  0  0  0  0  0  0  0  0  0
    6.3912  -10.8481   26.4165 C   0  0  0  0  0  0  0  0  0  0  0  0
    7.7679  -10.8584   26.3490 C   0  0  0  0  0  0  0  0  0  0  0  0
    8.4383  -12.0590   26.3740 C   0  0  0  0  0  0  0  0  0  0  0  0
    7.7543  -13.2715   26.4664 C   0  0  0  0  0  0  0  0  0  0  0  0
    9.5865  -17.4312   26.3831 C   0  0  0  0  0  0  0  0  0  0  0  0
    8.4824  -18.0774   26.3986 O   0  0  0  0  0  0  0  0  0  0  0  0
   10.5820  -17.9401   27.1771 O   0  0  0  0  0  0  0  0  0  0  0  0
  2  1  1  6
  2  7  1  0
  3  4  1  0
  3  2  1  0
  5  9  1  0
  5  4  1  0
  6  5  2  0
  7  8  2  0
  7 15  1  0
 11 10  1  0
 12 11  1  0
 13 12  1  0
 14 13  1  6
 14 16  1  0
 15 14  1  0
 16 17  2  0
 18 16  1  0
 18 19  1  0
 19 20  1  1
 21 20  1  0
 22 21  2  0
 23 22  1  0
 24 23  1  0
 24 29  2  0
 25 26  2  0
 25 24  1  0
 26 27  1  0
 27 28  2  0
 29 28  1  0
 29 21  1  0
 30 32  1  0
 30 19  1  0
 31 30  2  0
M  END
$$$$
