EMW.pdb
     RDKit          3D

 32 33  0  0  1  0  0  0  0  0999 V2000
   10.5301  -14.5044   18.8337 N   0  0  0  0  0  0  0  0  0  0  0  0
    9.3312  -13.7435   19.2190 C   0  0  1  0  0  0  0  0  0  0  0  0
    8.4285  -13.5445   18.0528 C   0  0  0  0  0  0  0  0  0  0  0  0
    8.2850  -14.8181   17.2737 C   0  0  0  0  0  0  0  0  0  0  0  0
    7.3894  -14.5509   16.1104 C   0  0  0  0  0  0  0  0  0  0  0  0
    7.0182  -13.3994   15.8592 O   0  0  0  0  0  0  0  0  0  0  0  0
    8.7566  -14.4176   20.3841 C   0  0  0  0  0  0  0  0  0  0  0  0
    7.7086  -14.0336   21.0070 O   0  0  0  0  0  0  0  0  0  0  0  0
    6.9738  -15.6139   15.3070 O   0  0  0  0  0  0  0  0  0  0  0  0
    8.8928  -20.9509   22.2320 C   0  0  0  0  0  0  0  0  0  0  0  0
    9.2286  -20.1278   20.6421 S   0  0  0  0  0  0  0  0  0  0  0  0
    9.6060  -18.3622   20.9561 C   0  0  0  0  0  0  0  0  0  0  0  0
    8.5248  -17.7479   21.7868 C   0  0  0  0  0  0  0  0  0  0  0  0
    8.7150  -16.2995   22.0909 C   0  0  2  0  0  0  0  0  0  0  0  0
    9.3385  -15.6067   20.9468 N   0  0  0  0  0  0  0  0  0  0  0  0
    9.6409  -16.1689   23.2157 C   0  0  0  0  0  0  0  0  0  0  0  0
   10.8819  -16.0745   23.0811 O   0  0  0  0  0  0  0  0  0  0  0  0
    9.1276  -16.1459   24.5345 N   0  0  0  0  0  0  0  0  0  0  0  0
   10.0180  -16.1617   25.6873 C   0  0  1  0  0  0  0  0  0  0  0  0
    9.3804  -15.4840   26.8768 C   0  0  0  0  0  0  0  0  0  0  0  0
    8.0369  -15.0122   26.4791 C   0  0  0  0  0  0  0  0  0  0  0  0
    6.8951  -15.7485   26.2767 C   0  0  0  0  0  0  0  0  0  0  0  0
    5.8863  -14.9168   25.9102 N   0  0  0  0  0  0  0  0  0  0  0  0
    6.3367  -13.6564   25.8671 C   0  0  0  0  0  0  0  0  0  0  0  0
    5.7657  -12.4512   25.5666 C   0  0  0  0  0  0  0  0  0  0  0  0
    6.4885  -11.2576   25.6027 C   0  0  0  0  0  0  0  0  0  0  0  0
    7.8207  -11.3047   25.9536 C   0  0  0  0  0  0  0  0  0  0  0  0
    8.3988  -12.5152   26.2566 C   0  0  0  0  0  0  0  0  0  0  0  0
    7.6652  -13.7012   26.2168 C   0  0  0  0  0  0  0  0  0  0  0  0
   10.2897  -17.5721   26.0661 C   0  0  0  0  0  0  0  0  0  0  0  0
    9.6057  -18.5152   25.5372 O   0  0  0  0  0  0  0  0  0  0  0  0
   11.2458  -17.9668   26.9663 O   0  0  0  0  0  0  0  0  0  0  0  0
  2  1  1  6
  2  7  1  0
  3  4  1  0
  3  2  1  0
  5  9  1  0
  5  4  1  0
  6  5  2  0
  7  8  2  0
  7 15  1  0
 11 10  1  0
 12 11  1  0
 13 12  1  0
 14 13  1  6
 14 16  1  0
 15 14  1  0
 16 17  2  0
 18 16  1  0
 18 19  1  0
 19 20  1  1
 21 20  1  0
 22 21  2  0
 23 22  1  0
 24 23  1  0
 24 29  2  0
 25 26  2  0
 25 24  1  0
 26 27  1  0
 27 28  2  0
 29 28  1  0
 29 21  1  0
 30 32  1  0
 30 19  1  0
 31 30  2  0
M  END
$$$$
