EMW.pdb
     RDKit          3D

 32 33  0  0  1  0  0  0  0  0999 V2000
    8.4313  -19.3184   21.6104 N   0  0  0  0  0  0  0  0  0  0  0  0
    9.5945  -19.1543   20.7245 C   0  0  1  0  0  0  0  0  0  0  0  0
    9.2358  -19.4563   19.3122 C   0  0  0  0  0  0  0  0  0  0  0  0
    8.0218  -18.6787   18.8986 C   0  0  0  0  0  0  0  0  0  0  0  0
    7.7095  -19.0269   17.4816 C   0  0  0  0  0  0  0  0  0  0  0  0
    8.4534  -19.7806   16.8448 O   0  0  0  0  0  0  0  0  0  0  0  0
   10.1463  -17.8249   20.9898 C   0  0  0  0  0  0  0  0  0  0  0  0
   11.1721  -17.3306   20.4092 O   0  0  0  0  0  0  0  0  0  0  0  0
    6.5684  -18.4934   16.8802 O   0  0  0  0  0  0  0  0  0  0  0  0
    8.1066  -12.2316   20.3042 C   0  0  0  0  0  0  0  0  0  0  0  0
    6.9287  -13.5310   20.7964 S   0  0  0  0  0  0  0  0  0  0  0  0
    7.8598  -14.9298   21.5277 C   0  0  0  0  0  0  0  0  0  0  0  0
    9.2684  -14.5146   21.8104 C   0  0  0  0  0  0  0  0  0  0  0  0
   10.1706  -15.6187   22.2502 C   0  0  2  0  0  0  0  0  0  0  0  0
    9.5649  -16.9318   21.9561 N   0  0  0  0  0  0  0  0  0  0  0  0
   10.3338  -15.5477   23.7020 C   0  0  0  0  0  0  0  0  0  0  0  0
   10.9374  -14.6183   24.2843 O   0  0  0  0  0  0  0  0  0  0  0  0
    9.7883  -16.5737   24.5100 N   0  0  0  0  0  0  0  0  0  0  0  0
    9.9564  -16.5595   25.9570 C   0  0  1  0  0  0  0  0  0  0  0  0
    8.6631  -16.8999   26.6584 C   0  0  0  0  0  0  0  0  0  0  0  0
    7.5874  -16.0643   26.0834 C   0  0  0  0  0  0  0  0  0  0  0  0
    6.5475  -16.4458   25.2712 C   0  0  0  0  0  0  0  0  0  0  0  0
    5.7965  -15.3566   24.9655 N   0  0  0  0  0  0  0  0  0  0  0  0
    6.3167  -14.2727   25.5555 C   0  0  0  0  0  0  0  0  0  0  0  0
    5.9749  -12.9494   25.5867 C   0  0  0  0  0  0  0  0  0  0  0  0
    6.7157  -12.0079   26.3031 C   0  0  0  0  0  0  0  0  0  0  0  0
    7.8264  -12.4349   26.9989 C   0  0  0  0  0  0  0  0  0  0  0  0
    8.1736  -13.7653   26.9700 C   0  0  0  0  0  0  0  0  0  0  0  0
    7.4246  -14.6964   26.2500 C   0  0  0  0  0  0  0  0  0  0  0  0
   10.9572  -17.5900   26.3351 C   0  0  0  0  0  0  0  0  0  0  0  0
   11.4144  -18.3884   25.4460 O   0  0  0  0  0  0  0  0  0  0  0  0
   11.4533  -17.7667   27.6013 O   0  0  0  0  0  0  0  0  0  0  0  0
  2  1  1  1
  2  7  1  0
  3  4  1  0
  3  2  1  0
  5  9  1  0
  5  4  1  0
  6  5  2  0
  7  8  2  0
  7 15  1  0
 11 10  1  0
 12 11  1  0
 13 12  1  0
 14 13  1  1
 14 16  1  0
 15 14  1  0
 16 17  2  0
 18 16  1  0
 18 19  1  0
 19 20  1  1
 21 20  1  0
 22 21  2  0
 23 22  1  0
 24 23  1  0
 24 29  2  0
 25 26  2  0
 25 24  1  0
 26 27  1  0
 27 28  2  0
 29 28  1  0
 29 21  1  0
 30 32  1  0
 30 19  1  0
 31 30  2  0
M  END
$$$$
