WTV.pdb
     RDKit          3D

 29 30  0  0  1  0  0  0  0  0999 V2000
    6.0652  -16.9333   24.1782 N   0  0  0  0  0  0  0  0  0  0  0  0
    7.2699  -16.1779   24.1403 C   0  0  1  0  0  0  0  0  0  0  0  0
    7.5104  -15.4334   25.4224 C   0  0  0  0  0  0  0  0  0  0  0  0
    6.5992  -14.3143   25.6747 C   0  0  0  0  0  0  0  0  0  0  0  0
    5.3655  -14.3920   26.3310 C   0  0  0  0  0  0  0  0  0  0  0  0
    4.8091  -13.1795   26.4091 N   0  0  0  0  0  0  0  0  0  0  0  0
    5.6328  -12.2894   25.8239 C   0  0  0  0  0  0  0  0  0  0  0  0
    5.5234  -10.9291   25.6370 C   0  0  0  0  0  0  0  0  0  0  0  0
    6.5457  -10.2811   24.9836 C   0  0  0  0  0  0  0  0  0  0  0  0
    7.6579  -10.9440   24.5182 C   0  0  0  0  0  0  0  0  0  0  0  0
    7.7707  -12.3185   24.7061 C   0  0  0  0  0  0  0  0  0  0  0  0
    6.7499  -12.9710   25.3605 C   0  0  0  0  0  0  0  0  0  0  0  0
    8.4450  -17.0553   23.8982 C   0  0  0  0  0  0  0  0  0  0  0  0
    8.3101  -18.2750   24.2298 O   0  0  0  0  0  0  0  0  0  0  0  0
   11.1581  -17.6397   21.2234 C   0  0  0  0  0  0  0  0  0  0  0  0
   11.7975  -17.1679   22.4845 C   0  0  1  0  0  0  0  0  0  0  0  0
   12.2065  -15.8308   22.2839 O   0  0  0  0  0  0  0  0  0  0  0  0
   10.8830  -17.2816   23.6861 C   0  0  2  0  0  0  0  0  0  0  0  0
    9.6613  -16.5904   23.3319 N   0  0  0  0  0  0  0  0  0  0  0  0
   11.5034  -16.7098   24.9056 C   0  0  0  0  0  0  0  0  0  0  0  0
   12.4365  -15.8817   24.7730 O   0  0  0  0  0  0  0  0  0  0  0  0
   10.8097  -14.3273   27.3576 C   0  0  0  0  0  0  0  0  0  0  0  0
   11.1490  -15.5459   28.1788 C   0  0  1  0  0  0  0  0  0  0  0  0
    9.8612  -16.1338   28.7103 C   0  0  0  0  0  0  0  0  0  0  0  0
   11.8629  -16.6046   27.3932 C   0  0  2  0  0  0  0  0  0  0  0  0
   11.1118  -17.0364   26.2277 N   0  0  0  0  0  0  0  0  0  0  0  0
   12.0623  -17.7785   28.2818 C   0  0  0  0  0  0  0  0  0  0  0  0
   12.8705  -17.6692   29.4271 O   0  0  0  0  0  0  0  0  0  0  0  0
   11.5187  -18.8752   28.0279 O   0  0  0  0  0  0  0  0  0  0  0  0
  2  1  1  1
  2 13  1  0
  2  3  1  0
  3  4  1  0
  4  5  2  0
  4 12  1  0
  5  6  1  0
  6  7  1  0
  7  8  2  0
  9  8  1  0
 10  9  2  0
 11 12  2  0
 11 10  1  0
 12  7  1  0
 13 14  2  0
 13 19  1  0
 16 15  1  6
 16 17  1  0
 18 16  1  0
 18 19  1  6
 20 21  2  0
 20 18  1  0
 23 22  1  6
 23 25  1  0
 24 23  1  0
 25 26  1  6
 26 20  1  0
 27 25  1  0
 28 27  1  0
 29 27  2  0
M  END
$$$$
