WTV.pdb
     RDKit          3D

 29 30  0  0  1  0  0  0  0  0999 V2000
    7.5754  -17.1593   20.4416 N   0  0  0  0  0  0  0  0  0  0  0  0
    8.0252  -16.2943   21.4773 C   0  0  1  0  0  0  0  0  0  0  0  0
    6.9148  -15.4439   22.0250 C   0  0  0  0  0  0  0  0  0  0  0  0
    7.3323  -14.1550   22.5820 C   0  0  0  0  0  0  0  0  0  0  0  0
    8.0974  -13.1853   21.9238 C   0  0  0  0  0  0  0  0  0  0  0  0
    8.2727  -12.1228   22.7150 N   0  0  0  0  0  0  0  0  0  0  0  0
    7.6481  -12.3505   23.8860 C   0  0  0  0  0  0  0  0  0  0  0  0
    7.5328  -11.5831   25.0242 C   0  0  0  0  0  0  0  0  0  0  0  0
    6.8230  -12.0989   26.0835 C   0  0  0  0  0  0  0  0  0  0  0  0
    6.2339  -13.3414   26.0387 C   0  0  0  0  0  0  0  0  0  0  0  0
    6.3488  -14.1184   24.8897 C   0  0  0  0  0  0  0  0  0  0  0  0
    7.0579  -13.6056   23.8265 C   0  0  0  0  0  0  0  0  0  0  0  0
    8.6040  -17.0673   22.6073 C   0  0  0  0  0  0  0  0  0  0  0  0
    8.2741  -18.2931   22.6735 O   0  0  0  0  0  0  0  0  0  0  0  0
   10.3284  -19.0809   22.7383 C   0  0  0  0  0  0  0  0  0  0  0  0
   11.0099  -18.2924   23.8040 C   0  0  1  0  0  0  0  0  0  0  0  0
   12.0452  -17.5507   23.1930 O   0  0  0  0  0  0  0  0  0  0  0  0
   10.0634  -17.3832   24.5593 C   0  0  2  0  0  0  0  0  0  0  0  0
    9.4767  -16.5004   23.5733 N   0  0  0  0  0  0  0  0  0  0  0  0
   10.7617  -16.6269   25.6268 C   0  0  0  0  0  0  0  0  0  0  0  0
   11.6604  -15.8155   25.2984 O   0  0  0  0  0  0  0  0  0  0  0  0
    9.4514  -14.0217   27.5074 C   0  0  0  0  0  0  0  0  0  0  0  0
   10.0702  -14.9017   28.5644 C   0  0  1  0  0  0  0  0  0  0  0  0
    8.9642  -15.6791   29.2420 C   0  0  0  0  0  0  0  0  0  0  0  0
   11.0630  -15.8784   28.0096 C   0  0  2  0  0  0  0  0  0  0  0  0
   10.4822  -16.7572   27.0099 N   0  0  0  0  0  0  0  0  0  0  0  0
   11.5613  -16.7134   29.1328 C   0  0  0  0  0  0  0  0  0  0  0  0
   11.3275  -18.0998   29.1413 O   0  0  0  0  0  0  0  0  0  0  0  0
   12.1924  -16.2010   30.0826 O   0  0  0  0  0  0  0  0  0  0  0  0
  2  1  1  6
  2 13  1  0
  2  3  1  0
  3  4  1  0
  4  5  2  0
  4 12  1  0
  5  6  1  0
  6  7  1  0
  7  8  2  0
  9  8  1  0
 10  9  2  0
 11 12  2  0
 11 10  1  0
 12  7  1  0
 13 14  2  0
 13 19  1  0
 16 15  1  6
 16 17  1  0
 18 16  1  0
 18 19  1  6
 20 21  2  0
 20 18  1  0
 23 22  1  6
 23 25  1  0
 24 23  1  0
 25 26  1  6
 26 20  1  0
 27 25  1  0
 28 27  1  0
 29 27  2  0
M  END
$$$$
