WTV.pdb
     RDKit          3D

 29 30  0  0  1  0  0  0  0  0999 V2000
    6.3897  -17.0531   24.4453 N   0  0  0  0  0  0  0  0  0  0  0  0
    7.5261  -16.2211   24.2460 C   0  0  1  0  0  0  0  0  0  0  0  0
    7.7843  -15.3259   25.4242 C   0  0  0  0  0  0  0  0  0  0  0  0
    6.7536  -14.3166   25.6790 C   0  0  0  0  0  0  0  0  0  0  0  0
    5.4586  -14.5657   26.1478 C   0  0  0  0  0  0  0  0  0  0  0  0
    4.7922  -13.4163   26.2904 N   0  0  0  0  0  0  0  0  0  0  0  0
    5.6015  -12.4020   25.9306 C   0  0  0  0  0  0  0  0  0  0  0  0
    5.3971  -11.0403   25.8906 C   0  0  0  0  0  0  0  0  0  0  0  0
    6.4325  -10.2425   25.4623 C   0  0  0  0  0  0  0  0  0  0  0  0
    7.6486  -10.7591   25.0784 C   0  0  0  0  0  0  0  0  0  0  0  0
    7.8574  -12.1346   25.1183 C   0  0  0  0  0  0  0  0  0  0  0  0
    6.8238  -12.9369   25.5471 C   0  0  0  0  0  0  0  0  0  0  0  0
    8.7502  -17.0321   24.0157 C   0  0  0  0  0  0  0  0  0  0  0  0
    8.7475  -18.2022   24.5124 O   0  0  0  0  0  0  0  0  0  0  0  0
   13.3599  -17.5239   22.4106 C   0  0  0  0  0  0  0  0  0  0  0  0
   12.0364  -16.8398   22.3618 C   0  0  1  0  0  0  0  0  0  0  0  0
   11.4074  -17.2083   21.1519 O   0  0  0  0  0  0  0  0  0  0  0  0
   11.1598  -17.1689   23.5518 C   0  0  2  0  0  0  0  0  0  0  0  0
    9.8740  -16.5580   23.2887 N   0  0  0  0  0  0  0  0  0  0  0  0
   11.7500  -16.6805   24.8215 C   0  0  0  0  0  0  0  0  0  0  0  0
   12.6894  -15.8507   24.7673 O   0  0  0  0  0  0  0  0  0  0  0  0
   10.8030  -14.3893   27.2683 C   0  0  0  0  0  0  0  0  0  0  0  0
   11.1078  -15.6291   28.0711 C   0  0  1  0  0  0  0  0  0  0  0  0
    9.7989  -16.2968   28.4286 C   0  0  0  0  0  0  0  0  0  0  0  0
   11.9551  -16.6178   27.3281 C   0  0  2  0  0  0  0  0  0  0  0  0
   11.3225  -17.0898   26.1091 N   0  0  0  0  0  0  0  0  0  0  0  0
   12.1843  -17.7852   28.2179 C   0  0  0  0  0  0  0  0  0  0  0  0
   11.6709  -19.0481   27.8739 O   0  0  0  0  0  0  0  0  0  0  0  0
   12.8328  -17.6651   29.2799 O   0  0  0  0  0  0  0  0  0  0  0  0
  2  1  1  1
  2 13  1  0
  2  3  1  0
  3  4  1  0
  4  5  2  0
  4 12  1  0
  5  6  1  0
  6  7  1  0
  7  8  2  0
  9  8  1  0
 10  9  2  0
 11 12  2  0
 11 10  1  0
 12  7  1  0
 13 14  2  0
 13 19  1  0
 16 15  1  1
 16 17  1  0
 18 16  1  0
 18 19  1  6
 20 21  2  0
 20 18  1  0
 23 22  1  6
 23 25  1  0
 24 23  1  0
 25 26  1  6
 26 20  1  0
 27 25  1  0
 28 27  1  0
 29 27  2  0
M  END
$$$$
