WTV.pdb
     RDKit          3D

 29 30  0  0  1  0  0  0  0  0999 V2000
    7.0217  -17.1237   20.2277 N   0  0  0  0  0  0  0  0  0  0  0  0
    7.5788  -16.1470   21.0989 C   0  0  1  0  0  0  0  0  0  0  0  0
    6.5947  -15.0633   21.4355 C   0  0  0  0  0  0  0  0  0  0  0  0
    7.1239  -13.9736   22.2592 C   0  0  0  0  0  0  0  0  0  0  0  0
    8.0049  -12.9739   21.8309 C   0  0  0  0  0  0  0  0  0  0  0  0
    8.2624  -12.1279   22.8328 N   0  0  0  0  0  0  0  0  0  0  0  0
    7.5805  -12.5303   23.9220 C   0  0  0  0  0  0  0  0  0  0  0  0
    7.5078  -12.0134   25.1967 C   0  0  0  0  0  0  0  0  0  0  0  0
    6.7153  -12.6628   26.1144 C   0  0  0  0  0  0  0  0  0  0  0  0
    6.0039  -13.7976   25.7993 C   0  0  0  0  0  0  0  0  0  0  0  0
    6.0756  -14.3214   24.5118 C   0  0  0  0  0  0  0  0  0  0  0  0
    6.8672  -13.6740   23.5897 C   0  0  0  0  0  0  0  0  0  0  0  0
    8.0300  -16.7620   22.3746 C   0  0  0  0  0  0  0  0  0  0  0  0
    7.1411  -17.3757   23.0447 O   0  0  0  0  0  0  0  0  0  0  0  0
   11.1130  -19.1812   24.9925 C   0  0  0  0  0  0  0  0  0  0  0  0
   10.6586  -18.4394   23.7820 C   0  0  1  0  0  0  0  0  0  0  0  0
   10.0859  -19.3769   22.8942 O   0  0  0  0  0  0  0  0  0  0  0  0
    9.6805  -17.3294   24.1049 C   0  0  2  0  0  0  0  0  0  0  0  0
    9.3672  -16.6869   22.8460 N   0  0  0  0  0  0  0  0  0  0  0  0
   10.2419  -16.3698   25.0862 C   0  0  0  0  0  0  0  0  0  0  0  0
   11.1724  -15.6120   24.7205 O   0  0  0  0  0  0  0  0  0  0  0  0
   10.4361  -13.9713   29.4010 C   0  0  0  0  0  0  0  0  0  0  0  0
    9.6936  -14.6110   28.2547 C   0  0  1  0  0  0  0  0  0  0  0  0
    9.1754  -13.5131   27.3531 C   0  0  0  0  0  0  0  0  0  0  0  0
   10.5519  -15.5285   27.4367 C   0  0  2  0  0  0  0  0  0  0  0  0
    9.7958  -16.2459   26.4256 N   0  0  0  0  0  0  0  0  0  0  0  0
   11.1647  -16.5227   28.3550 C   0  0  0  0  0  0  0  0  0  0  0  0
   12.4382  -16.2885   28.9029 O   0  0  0  0  0  0  0  0  0  0  0  0
   10.5626  -17.5768   28.6538 O   0  0  0  0  0  0  0  0  0  0  0  0
  2  1  1  6
  2 13  1  0
  2  3  1  0
  3  4  1  0
  4  5  2  0
  4 12  1  0
  5  6  1  0
  6  7  1  0
  7  8  2  0
  9  8  1  0
 10  9  2  0
 11 12  2  0
 11 10  1  0
 12  7  1  0
 13 14  2  0
 13 19  1  0
 16 15  1  1
 16 17  1  0
 18 16  1  0
 18 19  1  6
 20 21  2  0
 20 18  1  0
 23 22  1  1
 23 25  1  0
 24 23  1  0
 25 26  1  6
 26 20  1  0
 27 25  1  0
 28 27  1  0
 29 27  2  0
M  END
$$$$
