WTV.pdb
     RDKit          3D

 29 30  0  0  1  0  0  0  0  0999 V2000
    6.5264  -17.2921   24.4028 N   0  0  0  0  0  0  0  0  0  0  0  0
    7.6589  -16.4643   24.1675 C   0  0  1  0  0  0  0  0  0  0  0  0
    7.9135  -15.5183   25.3060 C   0  0  0  0  0  0  0  0  0  0  0  0
    6.8220  -14.5861   25.5990 C   0  0  0  0  0  0  0  0  0  0  0  0
    5.5218  -14.9379   25.9793 C   0  0  0  0  0  0  0  0  0  0  0  0
    4.7915  -13.8390   26.1911 N   0  0  0  0  0  0  0  0  0  0  0  0
    5.5630  -12.7590   25.9637 C   0  0  0  0  0  0  0  0  0  0  0  0
    5.2911  -11.4106   26.0356 C   0  0  0  0  0  0  0  0  0  0  0  0
    6.3024  -10.5291   25.7320 C   0  0  0  0  0  0  0  0  0  0  0  0
    7.5593  -10.9504   25.3638 C   0  0  0  0  0  0  0  0  0  0  0  0
    7.8364  -12.3124   25.2907 C   0  0  0  0  0  0  0  0  0  0  0  0
    6.8271  -13.1984   25.5946 C   0  0  0  0  0  0  0  0  0  0  0  0
    8.8866  -17.2791   23.9718 C   0  0  0  0  0  0  0  0  0  0  0  0
    8.8991  -18.4167   24.5388 O   0  0  0  0  0  0  0  0  0  0  0  0
   13.5585  -17.6499   22.4829 C   0  0  0  0  0  0  0  0  0  0  0  0
   12.2081  -17.0289   22.3701 C   0  0  1  0  0  0  0  0  0  0  0  0
   11.6426  -17.4513   21.1466 O   0  0  0  0  0  0  0  0  0  0  0  0
   11.3032  -17.3734   23.5343 C   0  0  2  0  0  0  0  0  0  0  0  0
    9.9978  -16.8422   23.2033 N   0  0  0  0  0  0  0  0  0  0  0  0
   11.8140  -16.8183   24.8110 C   0  0  0  0  0  0  0  0  0  0  0  0
   12.1739  -15.6169   24.8424 O   0  0  0  0  0  0  0  0  0  0  0  0
   11.2248  -14.8554   27.1049 C   0  0  0  0  0  0  0  0  0  0  0  0
   11.5938  -16.0612   27.9322 C   0  0  1  0  0  0  0  0  0  0  0  0
   10.3242  -16.8067   28.2771 C   0  0  0  0  0  0  0  0  0  0  0  0
   12.5165  -17.0037   27.2195 C   0  0  2  0  0  0  0  0  0  0  0  0
   11.9257  -17.5583   26.0144 N   0  0  0  0  0  0  0  0  0  0  0  0
   12.8311  -18.1236   28.1438 C   0  0  0  0  0  0  0  0  0  0  0  0
   13.5125  -17.8761   29.3484 O   0  0  0  0  0  0  0  0  0  0  0  0
   12.4974  -19.2964   27.8678 O   0  0  0  0  0  0  0  0  0  0  0  0
  2  1  1  1
  2 13  1  0
  2  3  1  0
  3  4  1  0
  4  5  2  0
  4 12  1  0
  5  6  1  0
  6  7  1  0
  7  8  2  0
  9  8  1  0
 10  9  2  0
 11 12  2  0
 11 10  1  0
 12  7  1  0
 13 14  2  0
 13 19  1  0
 16 15  1  1
 16 17  1  0
 18 16  1  0
 18 19  1  6
 20 21  2  0
 20 18  1  0
 23 22  1  6
 23 25  1  0
 24 23  1  0
 25 26  1  6
 26 20  1  0
 27 25  1  0
 28 27  1  0
 29 27  2  0
M  END
$$$$
