WTV.pdb
     RDKit          3D

 29 30  0  0  1  0  0  0  0  0999 V2000
    8.1856  -17.7921   20.7919 N   0  0  0  0  0  0  0  0  0  0  0  0
    8.7517  -16.8372   21.6813 C   0  0  1  0  0  0  0  0  0  0  0  0
    7.7723  -15.7604   22.0519 C   0  0  0  0  0  0  0  0  0  0  0  0
    7.3678  -14.8795   20.9534 C   0  0  0  0  0  0  0  0  0  0  0  0
    6.1105  -14.8577   20.3389 C   0  0  0  0  0  0  0  0  0  0  0  0
    6.0783  -13.9163   19.3911 N   0  0  0  0  0  0  0  0  0  0  0  0
    7.2775  -13.3052   19.3504 C   0  0  0  0  0  0  0  0  0  0  0  0
    7.7567  -12.2854   18.5580 C   0  0  0  0  0  0  0  0  0  0  0  0
    9.0543  -11.8715   18.7500 C   0  0  0  0  0  0  0  0  0  0  0  0
    9.8748  -12.4394   19.6973 C   0  0  0  0  0  0  0  0  0  0  0  0
    9.3926  -13.4697   20.4992 C   0  0  0  0  0  0  0  0  0  0  0  0
    8.0939  -13.8867   20.3109 C   0  0  0  0  0  0  0  0  0  0  0  0
    9.2126  -17.4830   22.9382 C   0  0  0  0  0  0  0  0  0  0  0  0
    8.4122  -18.3192   23.4635 O   0  0  0  0  0  0  0  0  0  0  0  0
   11.5356  -19.8254   23.8907 C   0  0  0  0  0  0  0  0  0  0  0  0
   11.8360  -18.6790   24.7948 C   0  0  1  0  0  0  0  0  0  0  0  0
   13.0106  -18.0545   24.3199 O   0  0  0  0  0  0  0  0  0  0  0  0
   10.6942  -17.6887   24.8882 C   0  0  2  0  0  0  0  0  0  0  0  0
   10.4668  -17.2048   23.5429 N   0  0  0  0  0  0  0  0  0  0  0  0
   11.0019  -16.5813   25.8252 C   0  0  0  0  0  0  0  0  0  0  0  0
   11.8603  -15.7306   25.4885 O   0  0  0  0  0  0  0  0  0  0  0  0
   10.0348  -13.3921   26.9293 C   0  0  0  0  0  0  0  0  0  0  0  0
   10.0057  -14.2429   28.1743 C   0  0  1  0  0  0  0  0  0  0  0  0
    8.5805  -14.6899   28.4105 C   0  0  0  0  0  0  0  0  0  0  0  0
   10.8728  -15.4618   28.0744 C   0  0  2  0  0  0  0  0  0  0  0  0
   10.3868  -16.4132   27.0908 N   0  0  0  0  0  0  0  0  0  0  0  0
   10.8830  -16.1271   29.4028 C   0  0  0  0  0  0  0  0  0  0  0  0
   10.3786  -17.4319   29.5440 O   0  0  0  0  0  0  0  0  0  0  0  0
   11.3370  -15.5422   30.4100 O   0  0  0  0  0  0  0  0  0  0  0  0
  2  1  1  6
  2 13  1  0
  2  3  1  0
  3  4  1  0
  4  5  2  0
  4 12  1  0
  5  6  1  0
  6  7  1  0
  7  8  2  0
  9  8  1  0
 10  9  2  0
 11 12  2  0
 11 10  1  0
 12  7  1  0
 13 14  2  0
 13 19  1  0
 16 15  1  6
 16 17  1  0
 18 16  1  0
 18 19  1  6
 20 21  2  0
 20 18  1  0
 23 22  1  6
 23 25  1  0
 24 23  1  0
 25 26  1  6
 26 20  1  0
 27 25  1  0
 28 27  1  0
 29 27  2  0
M  END
$$$$
