WTV.pdb
     RDKit          3D

 29 30  0  0  1  0  0  0  0  0999 V2000
    8.8895  -17.2411   21.0285 N   0  0  0  0  0  0  0  0  0  0  0  0
    9.7316  -16.5707   21.9584 C   0  0  1  0  0  0  0  0  0  0  0  0
    9.2615  -15.1722   22.2399 C   0  0  0  0  0  0  0  0  0  0  0  0
    8.2675  -14.6469   21.3006 C   0  0  0  0  0  0  0  0  0  0  0  0
    6.8860  -14.8632   21.3611 C   0  0  0  0  0  0  0  0  0  0  0  0
    6.2754  -14.2180   20.3628 N   0  0  0  0  0  0  0  0  0  0  0  0
    7.2065  -13.5748   19.6329 C   0  0  0  0  0  0  0  0  0  0  0  0
    7.1010  -12.7835   18.5103 C   0  0  0  0  0  0  0  0  0  0  0  0
    8.2556  -12.2612   17.9756 C   0  0  0  0  0  0  0  0  0  0  0  0
    9.4946  -12.5036   18.5226 C   0  0  0  0  0  0  0  0  0  0  0  0
    9.6035  -13.3026   19.6570 C   0  0  0  0  0  0  0  0  0  0  0  0
    8.4501  -13.8270   20.1960 C   0  0  0  0  0  0  0  0  0  0  0  0
    9.7875  -17.2994   23.2527 C   0  0  0  0  0  0  0  0  0  0  0  0
    8.6904  -17.7910   23.6656 O   0  0  0  0  0  0  0  0  0  0  0  0
   11.2478  -20.3129   24.3680 C   0  0  0  0  0  0  0  0  0  0  0  0
   11.7368  -19.2767   25.3214 C   0  0  1  0  0  0  0  0  0  0  0  0
   13.0693  -18.9657   24.9706 O   0  0  0  0  0  0  0  0  0  0  0  0
   10.8735  -18.0327   25.3319 C   0  0  2  0  0  0  0  0  0  0  0  0
   10.9794  -17.4553   24.0086 N   0  0  0  0  0  0  0  0  0  0  0  0
   11.2984  -17.0771   26.3833 C   0  0  0  0  0  0  0  0  0  0  0  0
   11.8550  -16.0083   26.0342 O   0  0  0  0  0  0  0  0  0  0  0  0
   10.4041  -14.5648   27.2996 C   0  0  0  0  0  0  0  0  0  0  0  0
   10.6100  -15.0736   28.7043 C   0  0  1  0  0  0  0  0  0  0  0  0
    9.2583  -15.4221   29.2859 C   0  0  0  0  0  0  0  0  0  0  0  0
   11.4799  -16.2931   28.7668 C   0  0  2  0  0  0  0  0  0  0  0  0
   11.1179  -17.2881   27.7729 N   0  0  0  0  0  0  0  0  0  0  0  0
   11.3228  -16.8996   30.1139 C   0  0  0  0  0  0  0  0  0  0  0  0
   11.8186  -16.2363   31.2502 O   0  0  0  0  0  0  0  0  0  0  0  0
   10.7514  -18.0020   30.2587 O   0  0  0  0  0  0  0  0  0  0  0  0
  2  1  1  6
  2 13  1  0
  2  3  1  0
  3  4  1  0
  4  5  2  0
  4 12  1  0
  5  6  1  0
  6  7  1  0
  7  8  2  0
  9  8  1  0
 10  9  2  0
 11 12  2  0
 11 10  1  0
 12  7  1  0
 13 14  2  0
 13 19  1  0
 16 15  1  6
 16 17  1  0
 18 16  1  0
 18 19  1  6
 20 21  2  0
 20 18  1  0
 23 22  1  6
 23 25  1  0
 24 23  1  0
 25 26  1  6
 26 20  1  0
 27 25  1  0
 28 27  1  0
 29 27  2  0
M  END
$$$$
