WTV.pdb
     RDKit          3D

 29 30  0  0  1  0  0  0  0  0999 V2000
    6.4030  -16.7646   23.7114 N   0  0  0  0  0  0  0  0  0  0  0  0
    7.6635  -16.1196   23.8475 C   0  0  1  0  0  0  0  0  0  0  0  0
    7.8188  -15.4603   25.1881 C   0  0  0  0  0  0  0  0  0  0  0  0
    6.8137  -14.4421   25.5032 C   0  0  0  0  0  0  0  0  0  0  0  0
    5.5305  -14.6835   26.0071 C   0  0  0  0  0  0  0  0  0  0  0  0
    4.8882  -13.5280   26.2020 N   0  0  0  0  0  0  0  0  0  0  0  0
    5.7023  -12.5172   25.8432 C   0  0  0  0  0  0  0  0  0  0  0  0
    5.5193  -11.1519   25.8462 C   0  0  0  0  0  0  0  0  0  0  0  0
    6.5536  -10.3592   25.4059 C   0  0  0  0  0  0  0  0  0  0  0  0
    7.7480  -10.8842   24.9690 C   0  0  0  0  0  0  0  0  0  0  0  0
    7.9351  -12.2634   24.9653 C   0  0  0  0  0  0  0  0  0  0  0  0
    6.9025  -13.0606   25.4059 C   0  0  0  0  0  0  0  0  0  0  0  0
    8.7805  -17.0868   23.6857 C   0  0  0  0  0  0  0  0  0  0  0  0
    8.5179  -18.2973   23.9715 O   0  0  0  0  0  0  0  0  0  0  0  0
   11.7887  -17.8348   21.3975 C   0  0  0  0  0  0  0  0  0  0  0  0
   12.2880  -17.3942   22.7310 C   0  0  1  0  0  0  0  0  0  0  0  0
   12.8271  -16.0973   22.5801 O   0  0  0  0  0  0  0  0  0  0  0  0
   11.2135  -17.4150   23.7978 C   0  0  2  0  0  0  0  0  0  0  0  0
   10.0761  -16.7138   23.2405 N   0  0  0  0  0  0  0  0  0  0  0  0
   11.6790  -16.7903   25.0596 C   0  0  0  0  0  0  0  0  0  0  0  0
   12.3863  -15.7562   24.9927 O   0  0  0  0  0  0  0  0  0  0  0  0
   10.4592  -14.7107   27.5634 C   0  0  0  0  0  0  0  0  0  0  0  0
   10.9820  -15.8944   28.3379 C   0  0  1  0  0  0  0  0  0  0  0  0
    9.8088  -16.7709   28.7146 C   0  0  0  0  0  0  0  0  0  0  0  0
   11.9593  -16.7222   27.5587 C   0  0  2  0  0  0  0  0  0  0  0  0
   11.3774  -17.2847   26.3530 N   0  0  0  0  0  0  0  0  0  0  0  0
   12.4072  -17.8412   28.4274 C   0  0  0  0  0  0  0  0  0  0  0  0
   13.1610  -17.5797   29.5850 O   0  0  0  0  0  0  0  0  0  0  0  0
   12.1233  -19.0256   28.1456 O   0  0  0  0  0  0  0  0  0  0  0  0
  2  1  1  1
  2 13  1  0
  2  3  1  0
  3  4  1  0
  4  5  2  0
  4 12  1  0
  5  6  1  0
  6  7  1  0
  7  8  2  0
  9  8  1  0
 10  9  2  0
 11 12  2  0
 11 10  1  0
 12  7  1  0
 13 14  2  0
 13 19  1  0
 16 15  1  6
 16 17  1  0
 18 16  1  0
 18 19  1  6
 20 21  2  0
 20 18  1  0
 23 22  1  6
 23 25  1  0
 24 23  1  0
 25 26  1  6
 26 20  1  0
 27 25  1  0
 28 27  1  0
 29 27  2  0
M  END
$$$$
