WTV.pdb
     RDKit          3D

 29 30  0  0  1  0  0  0  0  0999 V2000
    5.8805  -17.3285   24.5920 N   0  0  0  0  0  0  0  0  0  0  0  0
    6.9976  -16.4958   24.3061 C   0  0  1  0  0  0  0  0  0  0  0  0
    7.3893  -15.6516   25.4852 C   0  0  0  0  0  0  0  0  0  0  0  0
    6.5377  -14.4845   25.7276 C   0  0  0  0  0  0  0  0  0  0  0  0
    5.2532  -14.5067   26.2831 C   0  0  0  0  0  0  0  0  0  0  0  0
    4.7745  -13.2632   26.3843 N   0  0  0  0  0  0  0  0  0  0  0  0
    5.6997  -12.4061   25.9125 C   0  0  0  0  0  0  0  0  0  0  0  0
    5.6966  -11.0339   25.7918 C   0  0  0  0  0  0  0  0  0  0  0  0
    6.8086  -10.4287   25.2541 C   0  0  0  0  0  0  0  0  0  0  0  0
    7.9076  -11.1451   24.8394 C   0  0  0  0  0  0  0  0  0  0  0  0
    7.9131  -12.5317   24.9605 C   0  0  0  0  0  0  0  0  0  0  0  0
    6.8022  -13.1416   25.4991 C   0  0  0  0  0  0  0  0  0  0  0  0
    8.1818  -17.3039   23.9137 C   0  0  0  0  0  0  0  0  0  0  0  0
    8.2853  -18.4465   24.4609 O   0  0  0  0  0  0  0  0  0  0  0  0
   11.3395  -15.6632   21.4535 C   0  0  0  0  0  0  0  0  0  0  0  0
   11.2241  -17.0956   21.8497 C   0  0  1  0  0  0  0  0  0  0  0  0
   12.5277  -17.6388   21.8788 O   0  0  0  0  0  0  0  0  0  0  0  0
   10.5276  -17.2834   23.1811 C   0  0  2  0  0  0  0  0  0  0  0  0
    9.1584  -16.8558   22.9855 N   0  0  0  0  0  0  0  0  0  0  0  0
   11.1927  -16.5174   24.2627 C   0  0  0  0  0  0  0  0  0  0  0  0
   11.2027  -15.2648   24.1930 O   0  0  0  0  0  0  0  0  0  0  0  0
   10.6668  -15.0803   27.3579 C   0  0  0  0  0  0  0  0  0  0  0  0
   11.8137  -16.0314   27.5917 C   0  0  1  0  0  0  0  0  0  0  0  0
   11.2527  -17.3286   28.1293 C   0  0  0  0  0  0  0  0  0  0  0  0
   12.5911  -16.3331   26.3458 C   0  0  2  0  0  0  0  0  0  0  0  0
   11.8261  -17.1075   25.3846 N   0  0  0  0  0  0  0  0  0  0  0  0
   13.7896  -17.1212   26.7329 C   0  0  0  0  0  0  0  0  0  0  0  0
   14.7864  -16.5428   27.5382 O   0  0  0  0  0  0  0  0  0  0  0  0
   13.9307  -18.3035   26.3519 O   0  0  0  0  0  0  0  0  0  0  0  0
  2  1  1  1
  2 13  1  0
  2  3  1  0
  3  4  1  0
  4  5  2  0
  4 12  1  0
  5  6  1  0
  6  7  1  0
  7  8  2  0
  9  8  1  0
 10  9  2  0
 11 12  2  0
 11 10  1  0
 12  7  1  0
 13 14  2  0
 13 19  1  0
 16 15  1  1
 16 17  1  0
 18 16  1  0
 18 19  1  6
 20 21  2  0
 20 18  1  0
 23 22  1  6
 23 25  1  0
 24 23  1  0
 25 26  1  6
 26 20  1  0
 27 25  1  0
 28 27  1  0
 29 27  2  0
M  END
$$$$
