WTV.pdb
     RDKit          3D

 29 30  0  0  1  0  0  0  0  0999 V2000
    6.4571  -16.8864   24.3702 N   0  0  0  0  0  0  0  0  0  0  0  0
    7.6174  -16.3241   23.7695 C   0  0  1  0  0  0  0  0  0  0  0  0
    7.9203  -14.9523   24.3010 C   0  0  0  0  0  0  0  0  0  0  0  0
    6.8406  -14.3283   25.0698 C   0  0  0  0  0  0  0  0  0  0  0  0
    5.7849  -15.0001   25.6968 C   0  0  0  0  0  0  0  0  0  0  0  0
    4.9955  -14.1270   26.3295 N   0  0  0  0  0  0  0  0  0  0  0  0
    5.4897  -12.8880   26.1455 C   0  0  0  0  0  0  0  0  0  0  0  0
    5.0517  -11.6561   26.5790 C   0  0  0  0  0  0  0  0  0  0  0  0
    5.7786  -10.5461   26.2163 C   0  0  0  0  0  0  0  0  0  0  0  0
    6.9141  -10.6308   25.4440 C   0  0  0  0  0  0  0  0  0  0  0  0
    7.3587  -11.8745   25.0050 C   0  0  0  0  0  0  0  0  0  0  0  0
    6.6344  -12.9884   25.3664 C   0  0  0  0  0  0  0  0  0  0  0  0
    8.8112  -17.1768   24.0086 C   0  0  0  0  0  0  0  0  0  0  0  0
    8.7068  -18.0371   24.9385 O   0  0  0  0  0  0  0  0  0  0  0  0
   13.4689  -18.4208   23.0000 C   0  0  0  0  0  0  0  0  0  0  0  0
   12.2263  -17.6669   22.6689 C   0  0  1  0  0  0  0  0  0  0  0  0
   11.6999  -18.2102   21.4760 O   0  0  0  0  0  0  0  0  0  0  0  0
   11.2006  -17.7054   23.7822 C   0  0  2  0  0  0  0  0  0  0  0  0
   10.0127  -17.0629   23.2606 N   0  0  0  0  0  0  0  0  0  0  0  0
   11.6944  -17.0336   25.0085 C   0  0  0  0  0  0  0  0  0  0  0  0
   12.2459  -15.9122   24.8985 O   0  0  0  0  0  0  0  0  0  0  0  0
   11.1680  -14.7088   26.8769 C   0  0  0  0  0  0  0  0  0  0  0  0
   11.3652  -15.7544   27.9457 C   0  0  1  0  0  0  0  0  0  0  0  0
   10.0048  -16.2495   28.3823 C   0  0  0  0  0  0  0  0  0  0  0  0
   12.1681  -16.9306   27.4771 C   0  0  2  0  0  0  0  0  0  0  0  0
   11.5860  -17.5755   26.3134 N   0  0  0  0  0  0  0  0  0  0  0  0
   12.2192  -17.9208   28.5835 C   0  0  0  0  0  0  0  0  0  0  0  0
   12.9366  -17.6327   29.7578 O   0  0  0  0  0  0  0  0  0  0  0  0
   11.6292  -19.0190   28.4896 O   0  0  0  0  0  0  0  0  0  0  0  0
  2  1  1  1
  2 13  1  0
  2  3  1  0
  3  4  1  0
  4  5  2  0
  4 12  1  0
  5  6  1  0
  6  7  1  0
  7  8  2  0
  9  8  1  0
 10  9  2  0
 11 12  2  0
 11 10  1  0
 12  7  1  0
 13 14  2  0
 13 19  1  0
 16 15  1  1
 16 17  1  0
 18 16  1  0
 18 19  1  6
 20 21  2  0
 20 18  1  0
 23 22  1  6
 23 25  1  0
 24 23  1  0
 25 26  1  6
 26 20  1  0
 27 25  1  0
 28 27  1  0
 29 27  2  0
M  END
$$$$
