WTV.pdb
     RDKit          3D

 29 30  0  0  1  0  0  0  0  0999 V2000
    6.0716  -17.1786   24.3706 N   0  0  0  0  0  0  0  0  0  0  0  0
    7.3138  -16.4925   24.2732 C   0  0  1  0  0  0  0  0  0  0  0  0
    7.5914  -15.6518   25.4866 C   0  0  0  0  0  0  0  0  0  0  0  0
    6.7501  -14.4608   25.6266 C   0  0  0  0  0  0  0  0  0  0  0  0
    5.5427  -14.3866   26.3305 C   0  0  0  0  0  0  0  0  0  0  0  0
    5.0527  -13.1447   26.2736 N   0  0  0  0  0  0  0  0  0  0  0  0
    5.8955  -12.3822   25.5514 C   0  0  0  0  0  0  0  0  0  0  0  0
    5.8480  -11.0519   25.1973 C   0  0  0  0  0  0  0  0  0  0  0  0
    6.8738  -10.5488   24.4312 C   0  0  0  0  0  0  0  0  0  0  0  0
    7.9301  -11.3259   24.0150 C   0  0  0  0  0  0  0  0  0  0  0  0
    7.9803  -12.6703   24.3718 C   0  0  0  0  0  0  0  0  0  0  0  0
    6.9559  -13.1778   25.1393 C   0  0  0  0  0  0  0  0  0  0  0  0
    8.4421  -17.4470   24.1150 C   0  0  0  0  0  0  0  0  0  0  0  0
    8.3073  -18.5725   24.6903 O   0  0  0  0  0  0  0  0  0  0  0  0
   11.3353  -18.1597   21.4239 C   0  0  0  0  0  0  0  0  0  0  0  0
   11.8470  -17.5625   22.6901 C   0  0  1  0  0  0  0  0  0  0  0  0
   12.1446  -16.2055   22.4348 O   0  0  0  0  0  0  0  0  0  0  0  0
   10.8715  -17.6974   23.8405 C   0  0  2  0  0  0  0  0  0  0  0  0
    9.6154  -17.1508   23.3723 N   0  0  0  0  0  0  0  0  0  0  0  0
   11.3548  -16.9993   25.0562 C   0  0  0  0  0  0  0  0  0  0  0  0
   11.9524  -15.9043   24.9226 O   0  0  0  0  0  0  0  0  0  0  0  0
   10.5701  -14.6247   27.1078 C   0  0  0  0  0  0  0  0  0  0  0  0
   10.8109  -15.7559   28.0758 C   0  0  1  0  0  0  0  0  0  0  0  0
    9.4813  -16.4052   28.3874 C   0  0  0  0  0  0  0  0  0  0  0  0
   11.7346  -16.8059   27.5356 C   0  0  2  0  0  0  0  0  0  0  0  0
   11.1871  -17.4875   26.3760 N   0  0  0  0  0  0  0  0  0  0  0  0
   11.9605  -17.8119   28.6053 C   0  0  0  0  0  0  0  0  0  0  0  0
   12.6017  -17.4413   29.8005 O   0  0  0  0  0  0  0  0  0  0  0  0
   11.5871  -18.9962   28.4617 O   0  0  0  0  0  0  0  0  0  0  0  0
  2  1  1  1
  2 13  1  0
  2  3  1  0
  3  4  1  0
  4  5  2  0
  4 12  1  0
  5  6  1  0
  6  7  1  0
  7  8  2  0
  9  8  1  0
 10  9  2  0
 11 12  2  0
 11 10  1  0
 12  7  1  0
 13 14  2  0
 13 19  1  0
 16 15  1  6
 16 17  1  0
 18 16  1  0
 18 19  1  6
 20 21  2  0
 20 18  1  0
 23 22  1  6
 23 25  1  0
 24 23  1  0
 25 26  1  6
 26 20  1  0
 27 25  1  0
 28 27  1  0
 29 27  2  0
M  END
$$$$
