SIP.pdb
     RDKit          3D

 22 22  0  0  1  0  0  0  0  0999 V2000
   27.2249  -10.0413  -20.7442 O   0  0  0  0  0  0  0  0  0  0  0  0
   26.0557   -9.6678  -20.0886 C   0  0  0  0  0  0  0  0  0  0  0  0
   25.2942  -10.9233  -19.7789 C   0  0  2  0  0  0  0  0  0  0  0  0
   24.8372  -11.5096  -21.0338 N   0  0  0  0  0  0  0  0  0  0  0  0
   24.1571  -10.7455  -18.8599 C   0  0  0  0  0  0  0  0  0  0  0  0
   23.0180  -10.5357  -19.3392 O   0  0  0  0  0  0  0  0  0  0  0  0
   23.3197  -13.8434  -14.5525 C   0  0  0  0  0  0  0  0  0  0  0  0
   23.2617  -13.0120  -15.8391 C   0  0  0  0  0  0  0  0  0  0  0  0
   23.1625  -11.5915  -15.4110 C   0  0  2  0  0  0  0  0  0  0  0  0
   21.8863  -11.3919  -14.6548 C   0  0  0  0  0  0  0  0  0  0  0  0
   23.1825  -10.5885  -16.5488 C   0  0  2  0  0  0  0  0  0  0  0  0
   24.2624  -10.7984  -17.4465 N   0  0  0  0  0  0  0  0  0  0  0  0
   22.9229   -9.2303  -16.0783 C   0  0  0  0  0  0  0  0  0  0  0  0
   23.8826   -8.7099  -15.3998 O   0  0  0  0  0  0  0  0  0  0  0  0
   21.7821   -8.4559  -16.2778 N   0  0  0  0  0  0  0  0  0  0  0  0
   20.5750   -8.9490  -16.9624 C   0  0  0  0  0  0  0  0  0  0  0  0
   19.7953   -7.7389  -17.3624 C   0  0  0  0  0  0  0  0  0  0  0  0
   20.7579   -6.5751  -17.1479 C   0  0  0  0  0  0  0  0  0  0  0  0
   21.4786   -7.1068  -15.8952 C   0  0  1  0  0  0  0  0  0  0  0  0
   20.5725   -7.0560  -14.7361 C   0  0  0  0  0  0  0  0  0  0  0  0
   20.3252   -5.9172  -14.0076 O   0  0  0  0  0  0  0  0  0  0  0  0
   19.9868   -8.1136  -14.3863 O   0  0  0  0  0  0  0  0  0  0  0  0
  2  3  1  0
  2  1  1  0
  3  4  1  6
  5  3  1  0
  6  5  2  0
  8  9  1  0
  8  7  1  0
  9 11  1  0
  9 10  1  6
 11 13  1  0
 11 12  1  1
 12  5  1  0
 13 15  1  0
 14 13  2  0
 15 19  1  0
 15 16  1  0
 16 17  1  0
 18 17  1  0
 19 20  1  1
 19 18  1  0
 20 22  2  0
 20 21  1  0
M  END
$$$$
