SIP.pdb
     RDKit          3D

 22 22  0  0  1  0  0  0  0  0999 V2000
   44.4156   -8.0371   -4.0432 O   0  0  0  0  0  0  0  0  0  0  0  0
   43.8156   -7.9485   -5.2956 C   0  0  0  0  0  0  0  0  0  0  0  0
   43.2627   -9.3041   -5.6252 C   0  0  2  0  0  0  0  0  0  0  0  0
   44.3738  -10.1910   -5.9516 N   0  0  0  0  0  0  0  0  0  0  0  0
   42.2683   -9.3184   -6.7115 C   0  0  0  0  0  0  0  0  0  0  0  0
   42.6688   -9.3319   -7.8992 O   0  0  0  0  0  0  0  0  0  0  0  0
   37.1074  -11.4078   -6.2343 C   0  0  0  0  0  0  0  0  0  0  0  0
   38.5408  -11.0981   -6.6808 C   0  0  0  0  0  0  0  0  0  0  0  0
   38.5340   -9.6862   -7.1472 C   0  0  2  0  0  0  0  0  0  0  0  0
   37.6485   -9.5674   -8.3480 C   0  0  0  0  0  0  0  0  0  0  0  0
   39.8980   -9.1427   -7.5282 C   0  0  2  0  0  0  0  0  0  0  0  0
   40.8652   -9.3203   -6.5039 N   0  0  0  0  0  0  0  0  0  0  0  0
   39.7996   -7.8359   -8.1732 C   0  0  0  0  0  0  0  0  0  0  0  0
   39.5059   -6.8706   -7.3770 O   0  0  0  0  0  0  0  0  0  0  0  0
   39.9843   -7.5266   -9.5190 N   0  0  0  0  0  0  0  0  0  0  0  0
   40.2324   -8.5396  -10.5588 C   0  0  0  0  0  0  0  0  0  0  0  0
   40.8066   -7.8088  -11.7285 C   0  0  0  0  0  0  0  0  0  0  0  0
   41.1465   -6.4243  -11.1856 C   0  0  0  0  0  0  0  0  0  0  0  0
   39.9658   -6.2691  -10.2093 C   0  0  1  0  0  0  0  0  0  0  0  0
   38.7155   -6.0747  -10.9617 C   0  0  0  0  0  0  0  0  0  0  0  0
   37.7674   -7.0542  -11.1363 O   0  0  0  0  0  0  0  0  0  0  0  0
   38.4955   -4.9481  -11.4779 O   0  0  0  0  0  0  0  0  0  0  0  0
  2  3  1  0
  2  1  1  0
  3  4  1  6
  5  3  1  0
  6  5  2  0
  8  9  1  0
  8  7  1  0
  9 11  1  0
  9 10  1  6
 11 13  1  0
 11 12  1  1
 12  5  1  0
 13 15  1  0
 14 13  2  0
 15 19  1  0
 15 16  1  0
 16 17  1  0
 18 17  1  0
 19 20  1  6
 19 18  1  0
 20 22  2  0
 20 21  1  0
M  END
$$$$
