SIP.pdb
     RDKit          3D

 22 22  0  0  1  0  0  0  0  0999 V2000
   27.1895  -18.4762  -15.7586 O   0  0  0  0  0  0  0  0  0  0  0  0
   28.1999  -18.3135  -14.8157 C   0  0  0  0  0  0  0  0  0  0  0  0
   28.6298  -19.6829  -14.3779 C   0  0  2  0  0  0  0  0  0  0  0  0
   29.1745  -20.3888  -15.5323 N   0  0  0  0  0  0  0  0  0  0  0  0
   27.5727  -20.4894  -13.7445 C   0  0  0  0  0  0  0  0  0  0  0  0
   27.1242  -21.4877  -14.3555 O   0  0  0  0  0  0  0  0  0  0  0  0
   26.5286  -20.2463   -8.2872 C   0  0  0  0  0  0  0  0  0  0  0  0
   26.7211  -20.9486   -9.6362 C   0  0  0  0  0  0  0  0  0  0  0  0
   25.5963  -20.5024  -10.5004 C   0  0  2  0  0  0  0  0  0  0  0  0
   24.3454  -21.2137  -10.0886 C   0  0  0  0  0  0  0  0  0  0  0  0
   25.8016  -20.7567  -11.9816 C   0  0  2  0  0  0  0  0  0  0  0  0
   27.0190  -20.2119  -12.4685 N   0  0  0  0  0  0  0  0  0  0  0  0
   24.5793  -20.5218  -12.7461 C   0  0  0  0  0  0  0  0  0  0  0  0
   24.2711  -19.2821  -12.8885 O   0  0  0  0  0  0  0  0  0  0  0  0
   23.7330  -21.4657  -13.3236 N   0  0  0  0  0  0  0  0  0  0  0  0
   23.8514  -22.9147  -13.0884 C   0  0  0  0  0  0  0  0  0  0  0  0
   23.0959  -23.5822  -14.1910 C   0  0  0  0  0  0  0  0  0  0  0  0
   22.8234  -22.4686  -15.1973 C   0  0  0  0  0  0  0  0  0  0  0  0
   22.6089  -21.3132  -14.2020 C   0  0  1  0  0  0  0  0  0  0  0  0
   21.3310  -21.4926  -13.4936 C   0  0  0  0  0  0  0  0  0  0  0  0
   20.1059  -21.1868  -14.0362 O   0  0  0  0  0  0  0  0  0  0  0  0
   21.3543  -21.9525  -12.3223 O   0  0  0  0  0  0  0  0  0  0  0  0
  2  3  1  0
  2  1  1  0
  3  4  1  6
  5  3  1  0
  6  5  2  0
  8  9  1  0
  8  7  1  0
  9 11  1  0
  9 10  1  1
 11 13  1  0
 11 12  1  6
 12  5  1  0
 13 15  1  0
 14 13  2  0
 15 19  1  0
 15 16  1  0
 16 17  1  0
 18 17  1  0
 19 20  1  1
 19 18  1  0
 20 22  2  0
 20 21  1  0
M  END
$$$$
