SIP.pdb
     RDKit          3D

 22 22  0  0  1  0  0  0  0  0999 V2000
   20.5378  -11.4241  -21.3104 O   0  0  0  0  0  0  0  0  0  0  0  0
   20.6094  -10.7875  -20.0751 C   0  0  0  0  0  0  0  0  0  0  0  0
   21.5552  -11.5765  -19.2178 C   0  0  2  0  0  0  0  0  0  0  0  0
   20.9420  -12.8651  -18.9162 N   0  0  0  0  0  0  0  0  0  0  0  0
   21.9643  -10.9070  -17.9714 C   0  0  0  0  0  0  0  0  0  0  0  0
   21.2148  -10.9818  -16.9694 O   0  0  0  0  0  0  0  0  0  0  0  0
   26.7286  -11.1752  -15.5058 C   0  0  0  0  0  0  0  0  0  0  0  0
   25.2618  -11.1303  -15.9487 C   0  0  0  0  0  0  0  0  0  0  0  0
   24.9534   -9.7008  -16.2181 C   0  0  2  0  0  0  0  0  0  0  0  0
   25.1952   -8.9013  -14.9761 C   0  0  0  0  0  0  0  0  0  0  0  0
   23.5270   -9.4376  -16.6620 C   0  0  2  0  0  0  0  0  0  0  0  0
   23.1688  -10.1731  -17.8225 N   0  0  0  0  0  0  0  0  0  0  0  0
   23.1972   -8.0156  -16.6102 C   0  0  0  0  0  0  0  0  0  0  0  0
   23.8187   -7.2937  -17.4731 O   0  0  0  0  0  0  0  0  0  0  0  0
   22.3075   -7.3713  -15.7534 N   0  0  0  0  0  0  0  0  0  0  0  0
   21.6069   -8.0495  -14.6498 C   0  0  0  0  0  0  0  0  0  0  0  0
   20.4559   -7.1715  -14.2804 C   0  0  0  0  0  0  0  0  0  0  0  0
   20.3730   -6.1525  -15.4125 C   0  0  0  0  0  0  0  0  0  0  0  0
   21.8801   -6.0031  -15.6919 C   0  0  1  0  0  0  0  0  0  0  0  0
   22.5251   -5.2761  -14.5862 C   0  0  0  0  0  0  0  0  0  0  0  0
   23.3313   -5.8719  -13.6461 O   0  0  0  0  0  0  0  0  0  0  0  0
   22.3313   -4.0362  -14.4902 O   0  0  0  0  0  0  0  0  0  0  0  0
  2  3  1  0
  2  1  1  0
  3  4  1  1
  5  3  1  0
  6  5  2  0
  8  9  1  0
  8  7  1  0
  9 11  1  0
  9 10  1  1
 11 13  1  0
 11 12  1  6
 12  5  1  0
 13 15  1  0
 14 13  2  0
 15 19  1  0
 15 16  1  0
 16 17  1  0
 18 17  1  0
 19 20  1  1
 19 18  1  0
 20 22  2  0
 20 21  1  0
M  END
$$$$
