SIP.pdb
     RDKit          3D

 22 22  0  0  1  0  0  0  0  0999 V2000
   21.0370   -9.1807  -22.3007 O   0  0  0  0  0  0  0  0  0  0  0  0
   20.5004   -9.1949  -21.0168 C   0  0  0  0  0  0  0  0  0  0  0  0
   21.2021  -10.2767  -20.2492 C   0  0  2  0  0  0  0  0  0  0  0  0
   20.5709  -11.5531  -20.5650 N   0  0  0  0  0  0  0  0  0  0  0  0
   21.2361  -10.0765  -18.7904 C   0  0  0  0  0  0  0  0  0  0  0  0
   20.1674  -10.1663  -18.1416 O   0  0  0  0  0  0  0  0  0  0  0  0
   24.2634  -12.5399  -15.2788 C   0  0  0  0  0  0  0  0  0  0  0  0
   23.1760  -11.8285  -16.0920 C   0  0  0  0  0  0  0  0  0  0  0  0
   23.3960  -10.3714  -15.8933 C   0  0  2  0  0  0  0  0  0  0  0  0
   23.2401  -10.0422  -14.4415 C   0  0  0  0  0  0  0  0  0  0  0  0
   22.4456   -9.4799  -16.6698 C   0  0  2  0  0  0  0  0  0  0  0  0
   22.4142   -9.7867  -18.0558 N   0  0  0  0  0  0  0  0  0  0  0  0
   22.5668   -8.0803  -16.2696 C   0  0  0  0  0  0  0  0  0  0  0  0
   23.6996   -7.5426  -16.5522 O   0  0  0  0  0  0  0  0  0  0  0  0
   21.6172   -7.2839  -15.6335 N   0  0  0  0  0  0  0  0  0  0  0  0
   20.3065   -7.7838  -15.1851 C   0  0  0  0  0  0  0  0  0  0  0  0
   19.4453   -6.5800  -14.9811 C   0  0  0  0  0  0  0  0  0  0  0  0
   20.2265   -5.4374  -15.6223 C   0  0  0  0  0  0  0  0  0  0  0  0
   21.6478   -5.9009  -15.2528 C   0  0  1  0  0  0  0  0  0  0  0  0
   21.8691   -5.7349  -13.8068 C   0  0  0  0  0  0  0  0  0  0  0  0
   21.9244   -6.7802  -12.9163 O   0  0  0  0  0  0  0  0  0  0  0  0
   22.0172   -4.5704  -13.3529 O   0  0  0  0  0  0  0  0  0  0  0  0
  2  3  1  0
  2  1  1  0
  3  4  1  1
  5  3  1  0
  6  5  2  0
  8  9  1  0
  8  7  1  0
  9 11  1  0
  9 10  1  1
 11 13  1  0
 11 12  1  6
 12  5  1  0
 13 15  1  0
 14 13  2  0
 15 19  1  0
 15 16  1  0
 16 17  1  0
 18 17  1  0
 19 20  1  1
 19 18  1  0
 20 22  2  0
 20 21  1  0
M  END
$$$$
