SIP.pdb
     RDKit          3D

 22 22  0  0  1  0  0  0  0  0999 V2000
   19.9464  -22.6450  -14.1192 O   0  0  0  0  0  0  0  0  0  0  0  0
   21.0975  -21.9298  -14.4353 C   0  0  0  0  0  0  0  0  0  0  0  0
   21.2437  -20.8405  -13.4135 C   0  0  2  0  0  0  0  0  0  0  0  0
   20.3548  -19.7424  -13.7763 N   0  0  0  0  0  0  0  0  0  0  0  0
   22.6177  -20.3411  -13.2351 C   0  0  0  0  0  0  0  0  0  0  0  0
   22.9493  -19.2681  -13.7917 O   0  0  0  0  0  0  0  0  0  0  0  0
   25.8018  -20.7671   -8.7561 C   0  0  0  0  0  0  0  0  0  0  0  0
   25.1677  -20.1648  -10.0151 C   0  0  0  0  0  0  0  0  0  0  0  0
   25.6780  -20.9648  -11.1599 C   0  0  2  0  0  0  0  0  0  0  0  0
   27.1384  -20.6915  -11.3409 C   0  0  0  0  0  0  0  0  0  0  0  0
   24.9914  -20.6803  -12.4822 C   0  0  2  0  0  0  0  0  0  0  0  0
   23.6080  -20.9997  -12.4622 N   0  0  0  0  0  0  0  0  0  0  0  0
   25.7931  -21.1309  -13.6170 C   0  0  0  0  0  0  0  0  0  0  0  0
   25.6427  -22.3722  -13.9149 O   0  0  0  0  0  0  0  0  0  0  0  0
   26.6784  -20.3856  -14.3926 N   0  0  0  0  0  0  0  0  0  0  0  0
   27.3741  -19.1836  -13.9027 C   0  0  0  0  0  0  0  0  0  0  0  0
   27.8473  -18.4490  -15.1146 C   0  0  0  0  0  0  0  0  0  0  0  0
   27.1266  -19.1243  -16.2772 C   0  0  0  0  0  0  0  0  0  0  0  0
   27.1358  -20.5676  -15.7402 C   0  0  1  0  0  0  0  0  0  0  0  0
   28.5032  -21.1110  -15.7868 C   0  0  0  0  0  0  0  0  0  0  0  0
   29.1296  -21.5085  -16.9436 O   0  0  0  0  0  0  0  0  0  0  0  0
   29.1417  -21.2206  -14.7077 O   0  0  0  0  0  0  0  0  0  0  0  0
  2  3  1  0
  2  1  1  0
  3  4  1  6
  5  3  1  0
  6  5  2  0
  8  9  1  0
  8  7  1  0
  9 11  1  0
  9 10  1  6
 11 13  1  0
 11 12  1  1
 12  5  1  0
 13 15  1  0
 14 13  2  0
 15 19  1  0
 15 16  1  0
 16 17  1  0
 18 17  1  0
 19 20  1  1
 19 18  1  0
 20 22  2  0
 20 21  1  0
M  END
$$$$
