SIP.pdb
     RDKit          3D

 22 22  0  0  1  0  0  0  0  0999 V2000
   21.8097   -8.7346  -21.4592 O   0  0  0  0  0  0  0  0  0  0  0  0
   22.8201   -9.4591  -20.8341 C   0  0  0  0  0  0  0  0  0  0  0  0
   22.1622  -10.5174  -19.9981 C   0  0  2  0  0  0  0  0  0  0  0  0
   20.9753  -10.9918  -20.7008 N   0  0  0  0  0  0  0  0  0  0  0  0
   21.8062  -10.0939  -18.6331 C   0  0  0  0  0  0  0  0  0  0  0  0
   20.6211   -9.7655  -18.3904 O   0  0  0  0  0  0  0  0  0  0  0  0
   23.7162  -12.6528  -14.4868 C   0  0  0  0  0  0  0  0  0  0  0  0
   22.6839  -11.9048  -15.3382 C   0  0  0  0  0  0  0  0  0  0  0  0
   22.9692  -10.4565  -15.1586 C   0  0  2  0  0  0  0  0  0  0  0  0
   22.3865   -9.9963  -13.8591 C   0  0  0  0  0  0  0  0  0  0  0  0
   22.4117   -9.5651  -16.2520 C   0  0  2  0  0  0  0  0  0  0  0  0
   22.7260  -10.0330  -17.5552 N   0  0  0  0  0  0  0  0  0  0  0  0
   22.6146   -8.1498  -15.9531 C   0  0  0  0  0  0  0  0  0  0  0  0
   23.8254   -7.7438  -16.0989 O   0  0  0  0  0  0  0  0  0  0  0  0
   21.6679   -7.2153  -15.5394 N   0  0  0  0  0  0  0  0  0  0  0  0
   20.2882   -7.5681  -15.1640 C   0  0  0  0  0  0  0  0  0  0  0  0
   19.4995   -6.3006  -15.2243 C   0  0  0  0  0  0  0  0  0  0  0  0
   20.4175   -5.3119  -15.9360 C   0  0  0  0  0  0  0  0  0  0  0  0
   21.7605   -5.7951  -15.3579 C   0  0  1  0  0  0  0  0  0  0  0  0
   21.8545   -5.4290  -13.9351 C   0  0  0  0  0  0  0  0  0  0  0  0
   22.1517   -4.1636  -13.4887 O   0  0  0  0  0  0  0  0  0  0  0  0
   21.6521   -6.3220  -13.0717 O   0  0  0  0  0  0  0  0  0  0  0  0
  2  3  1  0
  2  1  1  0
  3  4  1  6
  5  3  1  0
  6  5  2  0
  8  9  1  0
  8  7  1  0
  9 11  1  0
  9 10  1  1
 11 13  1  0
 11 12  1  6
 12  5  1  0
 13 15  1  0
 14 13  2  0
 15 19  1  0
 15 16  1  0
 16 17  1  0
 18 17  1  0
 19 20  1  1
 19 18  1  0
 20 22  2  0
 20 21  1  0
M  END
$$$$
