SIP.pdb
     RDKit          3D

 22 22  0  0  1  0  0  0  0  0999 V2000
   17.8399  -12.0368  -20.1285 O   0  0  0  0  0  0  0  0  0  0  0  0
   18.5277  -11.8677  -18.9306 C   0  0  0  0  0  0  0  0  0  0  0  0
   19.2226  -10.5393  -18.9958 C   0  0  2  0  0  0  0  0  0  0  0  0
   20.3259  -10.6395  -19.9447 N   0  0  0  0  0  0  0  0  0  0  0  0
   19.7126  -10.0342  -17.7020 C   0  0  0  0  0  0  0  0  0  0  0  0
   18.8988   -9.8943  -16.7589 O   0  0  0  0  0  0  0  0  0  0  0  0
   23.9491  -12.0333  -15.3041 C   0  0  0  0  0  0  0  0  0  0  0  0
   22.5897  -11.4492  -15.7051 C   0  0  0  0  0  0  0  0  0  0  0  0
   22.7548   -9.9714  -15.6982 C   0  0  2  0  0  0  0  0  0  0  0  0
   23.0325   -9.5125  -14.3010 C   0  0  0  0  0  0  0  0  0  0  0  0
   21.5492   -9.2012  -16.2024 C   0  0  2  0  0  0  0  0  0  0  0  0
   21.0644   -9.6915  -17.4436 N   0  0  0  0  0  0  0  0  0  0  0  0
   21.7223   -7.7595  -16.0436 C   0  0  0  0  0  0  0  0  0  0  0  0
   22.6911   -7.2618  -16.7260 O   0  0  0  0  0  0  0  0  0  0  0  0
   20.9742   -6.8865  -15.2568 N   0  0  0  0  0  0  0  0  0  0  0  0
   19.8576   -7.3193  -14.3997 C   0  0  0  0  0  0  0  0  0  0  0  0
   19.0618   -6.0921  -14.0952 C   0  0  0  0  0  0  0  0  0  0  0  0
   19.6008   -5.0379  -15.0570 C   0  0  0  0  0  0  0  0  0  0  0  0
   21.0791   -5.4694  -15.0588 C   0  0  1  0  0  0  0  0  0  0  0  0
   21.6987   -5.1407  -13.7645 C   0  0  0  0  0  0  0  0  0  0  0  0
   22.0076   -6.0748  -12.8049 O   0  0  0  0  0  0  0  0  0  0  0  0
   21.9638   -3.9358  -13.5156 O   0  0  0  0  0  0  0  0  0  0  0  0
  2  3  1  0
  2  1  1  0
  3  4  1  6
  5  3  1  0
  6  5  2  0
  8  9  1  0
  8  7  1  0
  9 11  1  0
  9 10  1  1
 11 13  1  0
 11 12  1  6
 12  5  1  0
 13 15  1  0
 14 13  2  0
 15 19  1  0
 15 16  1  0
 16 17  1  0
 18 17  1  0
 19 20  1  1
 19 18  1  0
 20 22  2  0
 20 21  1  0
M  END
$$$$
