SIP.pdb
     RDKit          3D

 22 22  0  0  1  0  0  0  0  0999 V2000
   23.9593  -11.8138  -19.3392 O   0  0  0  0  0  0  0  0  0  0  0  0
   23.4438  -10.5639  -19.0100 C   0  0  0  0  0  0  0  0  0  0  0  0
   21.9475  -10.6786  -19.0209 C   0  0  2  0  0  0  0  0  0  0  0  0
   21.4806  -10.5198  -20.3936 N   0  0  0  0  0  0  0  0  0  0  0  0
   21.2488   -9.7310  -18.1362 C   0  0  0  0  0  0  0  0  0  0  0  0
   20.8982   -8.6188  -18.5959 O   0  0  0  0  0  0  0  0  0  0  0  0
   17.5698  -11.2500  -14.4432 C   0  0  0  0  0  0  0  0  0  0  0  0
   18.3031  -10.5220  -15.5755 C   0  0  0  0  0  0  0  0  0  0  0  0
   19.3650   -9.7083  -14.9263 C   0  0  2  0  0  0  0  0  0  0  0  0
   18.7289   -8.6161  -14.1247 C   0  0  0  0  0  0  0  0  0  0  0  0
   20.3396   -9.0603  -15.8913 C   0  0  2  0  0  0  0  0  0  0  0  0
   20.9373   -9.9946  -16.7778 N   0  0  0  0  0  0  0  0  0  0  0  0
   21.1998   -8.0883  -15.2213 C   0  0  0  0  0  0  0  0  0  0  0  0
   22.1294   -8.6079  -14.5016 O   0  0  0  0  0  0  0  0  0  0  0  0
   21.1279   -6.6980  -15.2742 N   0  0  0  0  0  0  0  0  0  0  0  0
   20.0390   -5.9656  -15.9427 C   0  0  0  0  0  0  0  0  0  0  0  0
   20.5426   -4.5769  -16.1665 C   0  0  0  0  0  0  0  0  0  0  0  0
   22.0383   -4.6610  -15.8787 C   0  0  0  0  0  0  0  0  0  0  0  0
   21.9896   -5.6873  -14.7316 C   0  0  1  0  0  0  0  0  0  0  0  0
   21.4153   -5.0658  -13.5270 C   0  0  0  0  0  0  0  0  0  0  0  0
   22.1215   -4.2492  -12.6766 O   0  0  0  0  0  0  0  0  0  0  0  0
   20.2075   -5.2911  -13.2539 O   0  0  0  0  0  0  0  0  0  0  0  0
  2  3  1  0
  2  1  1  0
  3  4  1  6
  5  3  1  0
  6  5  2  0
  8  9  1  0
  8  7  1  0
  9 11  1  0
  9 10  1  6
 11 13  1  0
 11 12  1  1
 12  5  1  0
 13 15  1  0
 14 13  2  0
 15 19  1  0
 15 16  1  0
 16 17  1  0
 18 17  1  0
 19 20  1  1
 19 18  1  0
 20 22  2  0
 20 21  1  0
M  END
$$$$
