SIP.pdb
     RDKit          3D

 22 22  0  0  1  0  0  0  0  0999 V2000
   25.8312  -17.0310  -16.1646 O   0  0  0  0  0  0  0  0  0  0  0  0
   26.6808  -16.8458  -15.0781 C   0  0  0  0  0  0  0  0  0  0  0  0
   27.6290  -18.0084  -15.0465 C   0  0  2  0  0  0  0  0  0  0  0  0
   28.2667  -18.1220  -16.3534 N   0  0  0  0  0  0  0  0  0  0  0  0
   27.0179  -19.2940  -14.6686 C   0  0  0  0  0  0  0  0  0  0  0  0
   26.7029  -20.1039  -15.5720 O   0  0  0  0  0  0  0  0  0  0  0  0
   25.3581  -20.5757   -9.1562 C   0  0  0  0  0  0  0  0  0  0  0  0
   25.3356  -19.9692  -10.5638 C   0  0  0  0  0  0  0  0  0  0  0  0
   25.8771  -21.0130  -11.4739 C   0  0  2  0  0  0  0  0  0  0  0  0
   27.3154  -21.2598  -11.1414 C   0  0  0  0  0  0  0  0  0  0  0  0
   25.8011  -20.6635  -12.9481 C   0  0  2  0  0  0  0  0  0  0  0  0
   26.7587  -19.6874  -13.3308 N   0  0  0  0  0  0  0  0  0  0  0  0
   24.4205  -20.4963  -13.3947 C   0  0  0  0  0  0  0  0  0  0  0  0
   24.0129  -19.2775  -13.4178 O   0  0  0  0  0  0  0  0  0  0  0  0
   23.5201  -21.4836  -13.7888 N   0  0  0  0  0  0  0  0  0  0  0  0
   23.8202  -22.9245  -13.7366 C   0  0  0  0  0  0  0  0  0  0  0  0
   22.8274  -23.5929  -14.6309 C   0  0  0  0  0  0  0  0  0  0  0  0
   22.1783  -22.4495  -15.4044 C   0  0  0  0  0  0  0  0  0  0  0  0
   22.1770  -21.3922  -14.2848 C   0  0  1  0  0  0  0  0  0  0  0  0
   21.1869  -21.7522  -13.2566 C   0  0  0  0  0  0  0  0  0  0  0  0
   19.8305  -21.5947  -13.4121 O   0  0  0  0  0  0  0  0  0  0  0  0
   21.5997  -22.2329  -12.1691 O   0  0  0  0  0  0  0  0  0  0  0  0
  2  3  1  0
  2  1  1  0
  3  4  1  6
  5  3  1  0
  6  5  2  0
  8  9  1  0
  8  7  1  0
  9 11  1  0
  9 10  1  1
 11 13  1  0
 11 12  1  1
 12  5  1  0
 13 15  1  0
 14 13  2  0
 15 19  1  0
 15 16  1  0
 16 17  1  0
 18 17  1  0
 19 20  1  1
 19 18  1  0
 20 22  2  0
 20 21  1  0
M  END
$$$$
