SIP.pdb
     RDKit          3D

 22 22  0  0  1  0  0  0  0  0999 V2000
   19.5656  -23.3280  -11.5709 O   0  0  0  0  0  0  0  0  0  0  0  0
   20.6598  -22.5451  -11.9264 C   0  0  0  0  0  0  0  0  0  0  0  0
   20.7215  -21.3963  -10.9628 C   0  0  2  0  0  0  0  0  0  0  0  0
   19.6080  -20.4965  -11.2425 N   0  0  0  0  0  0  0  0  0  0  0  0
   21.9905  -20.6489  -10.9729 C   0  0  0  0  0  0  0  0  0  0  0  0
   22.0910  -19.6357  -11.7041 O   0  0  0  0  0  0  0  0  0  0  0  0
   26.9297  -19.2696   -7.7688 C   0  0  0  0  0  0  0  0  0  0  0  0
   26.4764  -19.5770   -9.2005 C   0  0  0  0  0  0  0  0  0  0  0  0
   25.1875  -20.3084   -9.0795 C   0  0  2  0  0  0  0  0  0  0  0  0
   25.4478  -21.6816   -8.5438 C   0  0  0  0  0  0  0  0  0  0  0  0
   24.4261  -20.4617  -10.3825 C   0  0  2  0  0  0  0  0  0  0  0  0
   23.1253  -21.0002  -10.1980 N   0  0  0  0  0  0  0  0  0  0  0  0
   25.2668  -21.0196  -11.4387 C   0  0  0  0  0  0  0  0  0  0  0  0
   25.2886  -22.3042  -11.4782 O   0  0  0  0  0  0  0  0  0  0  0  0
   26.0268  -20.3337  -12.3835 N   0  0  0  0  0  0  0  0  0  0  0  0
   26.4807  -18.9438  -12.2072 C   0  0  0  0  0  0  0  0  0  0  0  0
   26.8503  -18.4471  -13.5670 C   0  0  0  0  0  0  0  0  0  0  0  0
   26.2973  -19.4999  -14.5225 C   0  0  0  0  0  0  0  0  0  0  0  0
   26.5493  -20.7466  -13.6543 C   0  0  1  0  0  0  0  0  0  0  0  0
   27.9927  -21.0282  -13.5886 C   0  0  0  0  0  0  0  0  0  0  0  0
   28.7501  -20.8806  -12.4513 O   0  0  0  0  0  0  0  0  0  0  0  0
   28.5736  -21.4280  -14.6311 O   0  0  0  0  0  0  0  0  0  0  0  0
  2  3  1  0
  2  1  1  0
  3  4  1  6
  5  3  1  0
  6  5  2  0
  8  9  1  0
  8  7  1  0
  9 11  1  0
  9 10  1  6
 11 13  1  0
 11 12  1  1
 12  5  1  0
 13 15  1  0
 14 13  2  0
 15 19  1  0
 15 16  1  0
 16 17  1  0
 18 17  1  0
 19 20  1  1
 19 18  1  0
 20 22  2  0
 20 21  1  0
M  END
$$$$
