SIP.pdb
     RDKit          3D

 22 22  0  0  1  0  0  0  0  0999 V2000
   24.4430  -19.6860  -12.3933 O   0  0  0  0  0  0  0  0  0  0  0  0
   24.6289  -19.9915  -11.0484 C   0  0  0  0  0  0  0  0  0  0  0  0
   26.1043  -20.1481  -10.8236 C   0  0  2  0  0  0  0  0  0  0  0  0
   26.6601  -20.9299  -11.9224 N   0  0  0  0  0  0  0  0  0  0  0  0
   26.4714  -20.7566   -9.5336 C   0  0  0  0  0  0  0  0  0  0  0  0
   26.4791  -22.0061   -9.4335 O   0  0  0  0  0  0  0  0  0  0  0  0
   29.1703  -18.1852   -5.7298 C   0  0  0  0  0  0  0  0  0  0  0  0
   28.6867  -19.5662   -6.1866 C   0  0  0  0  0  0  0  0  0  0  0  0
   27.2110  -19.5705   -6.0036 C   0  0  2  0  0  0  0  0  0  0  0  0
   26.8811  -20.1591   -4.6677 C   0  0  0  0  0  0  0  0  0  0  0  0
   26.4492  -20.3584   -7.0523 C   0  0  2  0  0  0  0  0  0  0  0  0
   26.8253  -20.0148   -8.3776 N   0  0  0  0  0  0  0  0  0  0  0  0
   25.0264  -20.4490   -6.7342 C   0  0  0  0  0  0  0  0  0  0  0  0
   24.3478  -19.3977   -7.0280 O   0  0  0  0  0  0  0  0  0  0  0  0
   24.3406  -21.5191   -6.1638 N   0  0  0  0  0  0  0  0  0  0  0  0
   25.0099  -22.6720   -5.5378 C   0  0  0  0  0  0  0  0  0  0  0  0
   23.9899  -23.7614   -5.4658 C   0  0  0  0  0  0  0  0  0  0  0  0
   22.8435  -23.2711   -6.3446 C   0  0  0  0  0  0  0  0  0  0  0  0
   22.9354  -21.7691   -6.0176 C   0  0  1  0  0  0  0  0  0  0  0  0
   22.4756  -21.5269   -4.6402 C   0  0  0  0  0  0  0  0  0  0  0  0
   21.1546  -21.5389   -4.2613 O   0  0  0  0  0  0  0  0  0  0  0  0
   23.3373  -21.2946   -3.7527 O   0  0  0  0  0  0  0  0  0  0  0  0
  2  3  1  0
  2  1  1  0
  3  4  1  6
  5  3  1  0
  6  5  2  0
  8  9  1  0
  8  7  1  0
  9 11  1  0
  9 10  1  1
 11 13  1  0
 11 12  1  6
 12  5  1  0
 13 15  1  0
 14 13  2  0
 15 19  1  0
 15 16  1  0
 16 17  1  0
 18 17  1  0
 19 20  1  1
 19 18  1  0
 20 22  2  0
 20 21  1  0
M  END
$$$$
