WQI.pdb
     RDKit          3D

 32 33  0  0  1  0  0  0  0  0999 V2000
    6.2931  -17.9734   24.6195 N   0  0  0  0  0  0  0  0  0  0  0  0
    7.1027  -17.1954   23.6676 C   0  0  1  0  0  0  0  0  0  0  0  0
    7.7367  -16.0510   24.3484 C   0  0  0  0  0  0  0  0  0  0  0  0
    6.9066  -15.0380   24.9433 C   0  0  0  0  0  0  0  0  0  0  0  0
    5.8357  -15.3092   25.7745 C   0  0  0  0  0  0  0  0  0  0  0  0
    5.2782  -14.1637   26.1517 N   0  0  0  0  0  0  0  0  0  0  0  0
    5.9250  -13.1161   25.6114 C   0  0  0  0  0  0  0  0  0  0  0  0
    5.7808  -11.7474   25.6625 C   0  0  0  0  0  0  0  0  0  0  0  0
    6.6502  -10.9483   24.9625 C   0  0  0  0  0  0  0  0  0  0  0  0
    7.6790  -11.4837   24.1984 C   0  0  0  0  0  0  0  0  0  0  0  0
    7.8219  -12.8450   24.1480 C   0  0  0  0  0  0  0  0  0  0  0  0
    6.9553  -13.6588   24.8464 C   0  0  0  0  0  0  0  0  0  0  0  0
    8.2204  -18.1107   23.2771 C   0  0  0  0  0  0  0  0  0  0  0  0
    8.0681  -18.7505   22.2060 O   0  0  0  0  0  0  0  0  0  0  0  0
   10.9099  -15.8558   19.6385 N   0  0  0  0  0  0  0  0  0  0  0  0
   11.8642  -16.1705   20.6425 C   0  0  0  0  0  0  0  0  0  0  0  0
   12.9490  -16.6800   20.2796 O   0  0  0  0  0  0  0  0  0  0  0  0
   11.6353  -15.9256   22.0811 C   0  0  0  0  0  0  0  0  0  0  0  0
   10.4047  -16.6364   22.5124 C   0  0  0  0  0  0  0  0  0  0  0  0
   10.6129  -17.5568   23.6891 C   0  0  2  0  0  0  0  0  0  0  0  0
    9.3908  -18.2936   24.0091 N   0  0  0  0  0  0  0  0  0  0  0  0
   11.0879  -16.8186   24.8890 C   0  0  0  0  0  0  0  0  0  0  0  0
   12.1465  -16.1109   24.8322 O   0  0  0  0  0  0  0  0  0  0  0  0
    8.9192  -13.1322   27.6023 C   0  0  0  0  0  0  0  0  0  0  0  0
    9.8495  -14.1557   27.0305 C   0  0  0  0  0  0  0  0  0  0  0  0
   10.0357  -15.3428   27.9532 C   0  0  2  0  0  0  0  0  0  0  0  0
   10.5513  -14.9304   29.3024 C   0  0  0  0  0  0  0  0  0  0  0  0
   10.9918  -16.3551   27.3610 C   0  0  2  0  0  0  0  0  0  0  0  0
   10.4023  -16.8678   26.1182 N   0  0  0  0  0  0  0  0  0  0  0  0
   11.3067  -17.4456   28.2883 C   0  0  0  0  0  0  0  0  0  0  0  0
   10.8180  -18.5835   28.0906 O   0  0  0  0  0  0  0  0  0  0  0  0
   12.1259  -17.2407   29.3662 O   0  0  0  0  0  0  0  0  0  0  0  0
  2  1  1  1
  2  3  1  0
  3  4  1  0
  4  5  2  0
  5  6  1  0
  7  6  1  0
  8  7  2  0
  9  8  1  0
 10 11  1  0
 10  9  2  0
 11 12  2  0
 12  4  1  0
 12  7  1  0
 13  2  1  0
 13 21  1  0
 14 13  2  0
 16 18  1  0
 16 15  1  0
 17 16  2  0
 19 18  1  0
 20 21  1  0
 20 19  1  6
 22 20  1  0
 23 22  2  0
 24 25  1  0
 26 25  1  0
 26 27  1  1
 26 28  1  0
 28 29  1  6
 29 22  1  0
 30 32  1  0
 30 28  1  0
 31 30  2  0
M  END
$$$$
