WQI.pdb
     RDKit          3D

 32 33  0  0  1  0  0  0  0  0999 V2000
    6.1324  -18.7285   23.4602 N   0  0  0  0  0  0  0  0  0  0  0  0
    6.6919  -17.3911   23.7158 C   0  0  1  0  0  0  0  0  0  0  0  0
    6.4336  -16.9845   25.1097 C   0  0  0  0  0  0  0  0  0  0  0  0
    6.2727  -15.5886   25.4175 C   0  0  0  0  0  0  0  0  0  0  0  0
    5.2180  -15.0776   26.1506 C   0  0  0  0  0  0  0  0  0  0  0  0
    5.3596  -13.7606   26.2547 N   0  0  0  0  0  0  0  0  0  0  0  0
    6.4712  -13.3475   25.6211 C   0  0  0  0  0  0  0  0  0  0  0  0
    7.0836  -12.1310   25.4164 C   0  0  0  0  0  0  0  0  0  0  0  0
    8.2507  -12.0732   24.6960 C   0  0  0  0  0  0  0  0  0  0  0  0
    8.8367  -13.2142   24.1634 C   0  0  0  0  0  0  0  0  0  0  0  0
    8.2271  -14.4237   24.3674 C   0  0  0  0  0  0  0  0  0  0  0  0
    7.0545  -14.4955   25.0891 C   0  0  0  0  0  0  0  0  0  0  0  0
    8.1739  -17.5685   23.6083 C   0  0  0  0  0  0  0  0  0  0  0  0
    8.6338  -18.6681   24.0074 O   0  0  0  0  0  0  0  0  0  0  0  0
   12.6878  -17.9427   20.3183 N   0  0  0  0  0  0  0  0  0  0  0  0
   13.1376  -16.6833   20.7971 C   0  0  0  0  0  0  0  0  0  0  0  0
   13.9867  -16.0668   20.1138 O   0  0  0  0  0  0  0  0  0  0  0  0
   12.6525  -16.0753   22.0529 C   0  0  0  0  0  0  0  0  0  0  0  0
   11.1694  -16.0032   22.0249 C   0  0  0  0  0  0  0  0  0  0  0  0
   10.4980  -16.8476   23.0790 C   0  0  2  0  0  0  0  0  0  0  0  0
    9.0545  -16.6139   23.1058 N   0  0  0  0  0  0  0  0  0  0  0  0
   11.0749  -16.6071   24.4279 C   0  0  0  0  0  0  0  0  0  0  0  0
   12.3012  -16.8667   24.6592 O   0  0  0  0  0  0  0  0  0  0  0  0
    9.0785  -12.3956   27.0977 C   0  0  0  0  0  0  0  0  0  0  0  0
   10.0114  -13.4337   26.5571 C   0  0  0  0  0  0  0  0  0  0  0  0
   10.0590  -14.6731   27.4270 C   0  0  2  0  0  0  0  0  0  0  0  0
   10.6109  -14.3799   28.7929 C   0  0  0  0  0  0  0  0  0  0  0  0
   10.8987  -15.7595   26.7912 C   0  0  2  0  0  0  0  0  0  0  0  0
   10.3066  -16.0918   25.4897 N   0  0  0  0  0  0  0  0  0  0  0  0
   11.0200  -16.9493   27.6384 C   0  0  0  0  0  0  0  0  0  0  0  0
   10.4398  -18.0085   27.3005 O   0  0  0  0  0  0  0  0  0  0  0  0
   11.7569  -16.9217   28.7921 O   0  0  0  0  0  0  0  0  0  0  0  0
  2  1  1  1
  2  3  1  0
  3  4  1  0
  4  5  2  0
  5  6  1  0
  7  6  1  0
  8  7  2  0
  9  8  1  0
 10 11  1  0
 10  9  2  0
 11 12  2  0
 12  4  1  0
 12  7  1  0
 13  2  1  0
 13 21  1  0
 14 13  2  0
 16 18  1  0
 16 15  1  0
 17 16  2  0
 19 18  1  0
 20 21  1  0
 20 19  1  6
 22 20  1  0
 23 22  2  0
 24 25  1  0
 26 25  1  0
 26 27  1  1
 26 28  1  0
 28 29  1  6
 29 22  1  0
 30 32  1  0
 30 28  1  0
 31 30  2  0
M  END
$$$$
