WQI.pdb
     RDKit          3D

 32 33  0  0  1  0  0  0  0  0999 V2000
    7.1241  -18.9562   20.6778 N   0  0  0  0  0  0  0  0  0  0  0  0
    7.8568  -17.7004   20.9082 C   0  0  1  0  0  0  0  0  0  0  0  0
    6.9433  -16.5470   20.8059 C   0  0  0  0  0  0  0  0  0  0  0  0
    7.3902  -15.3518   20.1419 C   0  0  0  0  0  0  0  0  0  0  0  0
    7.6272  -15.2681   18.7825 C   0  0  0  0  0  0  0  0  0  0  0  0
    8.0298  -14.0368   18.4873 N   0  0  0  0  0  0  0  0  0  0  0  0
    8.0785  -13.2717   19.5918 C   0  0  0  0  0  0  0  0  0  0  0  0
    8.4155  -11.9635   19.8594 C   0  0  0  0  0  0  0  0  0  0  0  0
    8.3489  -11.4972   21.1488 C   0  0  0  0  0  0  0  0  0  0  0  0
    7.9486  -12.3124   22.1996 C   0  0  0  0  0  0  0  0  0  0  0  0
    7.6135  -13.6134   21.9328 C   0  0  0  0  0  0  0  0  0  0  0  0
    7.6762  -14.0940   20.6420 C   0  0  0  0  0  0  0  0  0  0  0  0
    8.2811  -17.7616   22.3419 C   0  0  0  0  0  0  0  0  0  0  0  0
    7.3772  -18.0052   23.1805 O   0  0  0  0  0  0  0  0  0  0  0  0
   14.0255  -18.8721   25.1427 N   0  0  0  0  0  0  0  0  0  0  0  0
   12.9053  -19.3158   25.8952 C   0  0  0  0  0  0  0  0  0  0  0  0
   13.0633  -20.2978   26.6558 O   0  0  0  0  0  0  0  0  0  0  0  0
   11.5761  -18.6758   25.8204 C   0  0  0  0  0  0  0  0  0  0  0  0
   11.2424  -18.3971   24.4004 C   0  0  0  0  0  0  0  0  0  0  0  0
    9.9242  -17.6886   24.2116 C   0  0  2  0  0  0  0  0  0  0  0  0
    9.5841  -17.5697   22.7942 N   0  0  0  0  0  0  0  0  0  0  0  0
    9.9252  -16.3443   24.8465 C   0  0  0  0  0  0  0  0  0  0  0  0
   10.5291  -15.3698   24.2894 O   0  0  0  0  0  0  0  0  0  0  0  0
    6.0537  -13.3541   26.1258 C   0  0  0  0  0  0  0  0  0  0  0  0
    7.4218  -13.8998   25.8598 C   0  0  0  0  0  0  0  0  0  0  0  0
    8.1670  -14.2312   27.1364 C   0  0  2  0  0  0  0  0  0  0  0  0
    8.3924  -13.0142   27.9875 C   0  0  0  0  0  0  0  0  0  0  0  0
    9.5077  -14.8676   26.8414 C   0  0  2  0  0  0  0  0  0  0  0  0
    9.2715  -16.0929   26.0682 N   0  0  0  0  0  0  0  0  0  0  0  0
   10.2807  -15.1465   28.0549 C   0  0  0  0  0  0  0  0  0  0  0  0
   10.3363  -16.3197   28.4944 O   0  0  0  0  0  0  0  0  0  0  0  0
   10.9427  -14.1462   28.7152 O   0  0  0  0  0  0  0  0  0  0  0  0
  2  1  1  1
  2  3  1  0
  3  4  1  0
  4  5  2  0
  5  6  1  0
  7  6  1  0
  8  7  2  0
  9  8  1  0
 10 11  1  0
 10  9  2  0
 11 12  2  0
 12  4  1  0
 12  7  1  0
 13  2  1  0
 13 21  1  0
 14 13  2  0
 16 18  1  0
 16 15  1  0
 17 16  2  0
 19 18  1  0
 20 21  1  0
 20 19  1  6
 22 20  1  0
 23 22  2  0
 24 25  1  0
 26 25  1  0
 26 27  1  6
 26 28  1  0
 28 29  1  1
 29 22  1  0
 30 32  1  0
 30 28  1  0
 31 30  2  0
M  END
$$$$
