WQI.pdb
     RDKit          3D

 32 33  0  0  1  0  0  0  0  0999 V2000
    6.2390  -18.2315   23.1868 N   0  0  0  0  0  0  0  0  0  0  0  0
    6.9231  -16.9754   23.5349 C   0  0  1  0  0  0  0  0  0  0  0  0
    6.8480  -16.7358   24.9882 C   0  0  0  0  0  0  0  0  0  0  0  0
    6.3965  -15.4572   25.4683 C   0  0  0  0  0  0  0  0  0  0  0  0
    5.2838  -15.2841   26.2703 C   0  0  0  0  0  0  0  0  0  0  0  0
    5.1368  -13.9905   26.5353 N   0  0  0  0  0  0  0  0  0  0  0  0
    6.1059  -13.2684   25.9461 C   0  0  0  0  0  0  0  0  0  0  0  0
    6.4282  -11.9307   25.8873 C   0  0  0  0  0  0  0  0  0  0  0  0
    7.5260  -11.5298   25.1673 C   0  0  0  0  0  0  0  0  0  0  0  0
    8.3275  -12.4405   24.4912 C   0  0  0  0  0  0  0  0  0  0  0  0
    8.0065  -13.7707   24.5500 C   0  0  0  0  0  0  0  0  0  0  0  0
    6.9063  -14.1865   25.2697 C   0  0  0  0  0  0  0  0  0  0  0  0
    8.3671  -17.2295   23.2353 C   0  0  0  0  0  0  0  0  0  0  0  0
    8.7851  -18.3943   23.4552 O   0  0  0  0  0  0  0  0  0  0  0  0
   14.4983  -14.1842   20.6660 N   0  0  0  0  0  0  0  0  0  0  0  0
   13.3263  -14.9496   20.4244 C   0  0  0  0  0  0  0  0  0  0  0  0
   12.7341  -14.7845   19.3335 O   0  0  0  0  0  0  0  0  0  0  0  0
   12.7812  -15.9218   21.3937 C   0  0  0  0  0  0  0  0  0  0  0  0
   11.3308  -15.6666   21.5853 C   0  0  0  0  0  0  0  0  0  0  0  0
   10.6840  -16.5642   22.6105 C   0  0  2  0  0  0  0  0  0  0  0  0
    9.2555  -16.2784   22.7399 N   0  0  0  0  0  0  0  0  0  0  0  0
   11.3451  -16.4515   23.9373 C   0  0  0  0  0  0  0  0  0  0  0  0
   12.5883  -16.7043   24.0606 O   0  0  0  0  0  0  0  0  0  0  0  0
    8.9994  -13.0916   27.6231 C   0  0  0  0  0  0  0  0  0  0  0  0
   10.0652  -13.7705   26.8210 C   0  0  0  0  0  0  0  0  0  0  0  0
   10.3540  -15.1722   27.3180 C   0  0  2  0  0  0  0  0  0  0  0  0
   10.9413  -15.1683   28.7004 C   0  0  0  0  0  0  0  0  0  0  0  0
   11.3053  -15.8988   26.3925 C   0  0  2  0  0  0  0  0  0  0  0  0
   10.6404  -16.0678   25.0947 N   0  0  0  0  0  0  0  0  0  0  0  0
   11.7477  -17.1870   26.9338 C   0  0  0  0  0  0  0  0  0  0  0  0
   11.1154  -18.2292   26.6395 O   0  0  0  0  0  0  0  0  0  0  0  0
   12.8401  -17.2693   27.7551 O   0  0  0  0  0  0  0  0  0  0  0  0
  2  1  1  1
  2  3  1  0
  3  4  1  0
  4  5  2  0
  5  6  1  0
  7  6  1  0
  8  7  2  0
  9  8  1  0
 10 11  1  0
 10  9  2  0
 11 12  2  0
 12  4  1  0
 12  7  1  0
 13  2  1  0
 13 21  1  0
 14 13  2  0
 16 18  1  0
 16 15  1  0
 17 16  2  0
 19 18  1  0
 20 21  1  0
 20 19  1  6
 22 20  1  0
 23 22  2  0
 24 25  1  0
 26 25  1  0
 26 27  1  1
 26 28  1  0
 28 29  1  6
 29 22  1  0
 30 32  1  0
 30 28  1  0
 31 30  2  0
M  END
$$$$
