WQI.pdb
     RDKit          3D

 32 33  0  0  1  0  0  0  0  0999 V2000
    6.3775  -17.0292   24.5312 N   0  0  0  0  0  0  0  0  0  0  0  0
    7.5887  -16.5920   23.8181 C   0  0  1  0  0  0  0  0  0  0  0  0
    7.8811  -15.1786   24.1218 C   0  0  0  0  0  0  0  0  0  0  0  0
    6.9288  -14.4095   24.8774 C   0  0  0  0  0  0  0  0  0  0  0  0
    5.9040  -14.9661   25.6197 C   0  0  0  0  0  0  0  0  0  0  0  0
    5.2044  -13.9924   26.1921 N   0  0  0  0  0  0  0  0  0  0  0  0
    5.7094  -12.7883   25.8713 C   0  0  0  0  0  0  0  0  0  0  0  0
    5.3900  -11.4833   26.1741 C   0  0  0  0  0  0  0  0  0  0  0  0
    6.1473  -10.4629   25.6548 C   0  0  0  0  0  0  0  0  0  0  0  0
    7.2346  -10.7098   24.8267 C   0  0  0  0  0  0  0  0  0  0  0  0
    7.5517  -12.0079   24.5260 C   0  0  0  0  0  0  0  0  0  0  0  0
    6.7990  -13.0419   25.0410 C   0  0  0  0  0  0  0  0  0  0  0  0
    8.7015  -17.3820   24.4322 C   0  0  0  0  0  0  0  0  0  0  0  0
    8.7496  -17.3932   25.6882 O   0  0  0  0  0  0  0  0  0  0  0  0
   14.1837  -16.6808   21.7742 N   0  0  0  0  0  0  0  0  0  0  0  0
   13.0173  -16.0552   21.2583 C   0  0  0  0  0  0  0  0  0  0  0  0
   13.1253  -14.8876   20.8189 O   0  0  0  0  0  0  0  0  0  0  0  0
   11.6963  -16.7150   21.2179 C   0  0  0  0  0  0  0  0  0  0  0  0
   10.9583  -16.4177   22.4719 C   0  0  0  0  0  0  0  0  0  0  0  0
   10.9983  -17.5365   23.4827 C   0  0  2  0  0  0  0  0  0  0  0  0
    9.6642  -18.0886   23.7160 N   0  0  0  0  0  0  0  0  0  0  0  0
   11.5957  -17.0948   24.7704 C   0  0  0  0  0  0  0  0  0  0  0  0
   12.8274  -16.7724   24.8316 O   0  0  0  0  0  0  0  0  0  0  0  0
    9.1842  -13.5447   27.7961 C   0  0  0  0  0  0  0  0  0  0  0  0
   10.2800  -14.3811   27.2130 C   0  0  0  0  0  0  0  0  0  0  0  0
   10.4477  -15.6985   27.9419 C   0  0  2  0  0  0  0  0  0  0  0  0
   10.9097  -15.5025   29.3577 C   0  0  0  0  0  0  0  0  0  0  0  0
   11.4366  -16.5976   27.2326 C   0  0  2  0  0  0  0  0  0  0  0  0
   10.8416  -17.0147   25.9571 N   0  0  0  0  0  0  0  0  0  0  0  0
   11.8275  -17.7566   28.0400 C   0  0  0  0  0  0  0  0  0  0  0  0
   12.4487  -17.5781   29.1147 O   0  0  0  0  0  0  0  0  0  0  0  0
   11.5247  -19.0303   27.6389 O   0  0  0  0  0  0  0  0  0  0  0  0
  2  1  1  1
  2  3  1  0
  3  4  1  0
  4  5  2  0
  5  6  1  0
  7  6  1  0
  8  7  2  0
  9  8  1  0
 10 11  1  0
 10  9  2  0
 11 12  2  0
 12  4  1  0
 12  7  1  0
 13  2  1  0
 13 21  1  0
 14 13  2  0
 16 18  1  0
 16 15  1  0
 17 16  2  0
 19 18  1  0
 20 21  1  0
 20 19  1  6
 22 20  1  0
 23 22  2  0
 24 25  1  0
 26 25  1  0
 26 27  1  1
 26 28  1  0
 28 29  1  6
 29 22  1  0
 30 32  1  0
 30 28  1  0
 31 30  2  0
M  END
$$$$
