WQI.pdb
     RDKit          3D

 32 33  0  0  1  0  0  0  0  0999 V2000
    6.5781  -17.2748   24.6923 N   0  0  0  0  0  0  0  0  0  0  0  0
    7.6565  -16.3941   24.2145 C   0  0  1  0  0  0  0  0  0  0  0  0
    7.9228  -15.3284   25.1987 C   0  0  0  0  0  0  0  0  0  0  0  0
    6.8767  -14.3979   25.5289 C   0  0  0  0  0  0  0  0  0  0  0  0
    5.6506  -14.7692   26.0484 C   0  0  0  0  0  0  0  0  0  0  0  0
    4.9126  -13.6810   26.2392 N   0  0  0  0  0  0  0  0  0  0  0  0
    5.5848  -12.5765   25.8706 C   0  0  0  0  0  0  0  0  0  0  0  0
    5.3109  -11.2269   25.8533 C   0  0  0  0  0  0  0  0  0  0  0  0
    6.2616  -10.3489   25.3955 C   0  0  0  0  0  0  0  0  0  0  0  0
    7.5011  -10.7848   24.9457 C   0  0  0  0  0  0  0  0  0  0  0  0
    7.7729  -12.1272   24.9631 C   0  0  0  0  0  0  0  0  0  0  0  0
    6.8266  -13.0196   25.4205 C   0  0  0  0  0  0  0  0  0  0  0  0
    8.8793  -17.2566   24.2031 C   0  0  0  0  0  0  0  0  0  0  0  0
    8.9189  -18.1784   25.0567 O   0  0  0  0  0  0  0  0  0  0  0  0
   13.5976  -18.2237   19.7917 N   0  0  0  0  0  0  0  0  0  0  0  0
   12.2203  -17.8980   19.9139 C   0  0  0  0  0  0  0  0  0  0  0  0
   11.6769  -17.2882   18.9648 O   0  0  0  0  0  0  0  0  0  0  0  0
   11.4096  -18.2437   21.0992 C   0  0  0  0  0  0  0  0  0  0  0  0
   12.0926  -17.7537   22.3236 C   0  0  0  0  0  0  0  0  0  0  0  0
   11.2263  -17.7824   23.5579 C   0  0  2  0  0  0  0  0  0  0  0  0
    9.9509  -17.1052   23.3267 N   0  0  0  0  0  0  0  0  0  0  0  0
   11.9151  -17.1786   24.7289 C   0  0  0  0  0  0  0  0  0  0  0  0
   12.8346  -16.3123   24.5587 O   0  0  0  0  0  0  0  0  0  0  0  0
    9.7788  -15.3637   29.2925 C   0  0  0  0  0  0  0  0  0  0  0  0
   10.3933  -16.4145   28.4215 C   0  0  0  0  0  0  0  0  0  0  0  0
   11.7689  -16.0182   27.9259 C   0  0  2  0  0  0  0  0  0  0  0  0
   11.7155  -14.8268   27.0127 C   0  0  0  0  0  0  0  0  0  0  0  0
   12.4383  -17.1588   27.1907 C   0  0  2  0  0  0  0  0  0  0  0  0
   11.5885  -17.5303   26.0529 N   0  0  0  0  0  0  0  0  0  0  0  0
   12.7012  -18.3124   28.0557 C   0  0  0  0  0  0  0  0  0  0  0  0
   13.4924  -18.1915   29.0212 O   0  0  0  0  0  0  0  0  0  0  0  0
   12.0961  -19.5190   27.8258 O   0  0  0  0  0  0  0  0  0  0  0  0
  2  1  1  1
  2  3  1  0
  3  4  1  0
  4  5  2  0
  5  6  1  0
  7  6  1  0
  8  7  2  0
  9  8  1  0
 10 11  1  0
 10  9  2  0
 11 12  2  0
 12  4  1  0
 12  7  1  0
 13  2  1  0
 13 21  1  0
 14 13  2  0
 16 18  1  0
 16 15  1  0
 17 16  2  0
 19 18  1  0
 20 21  1  0
 20 19  1  6
 22 20  1  0
 23 22  2  0
 24 25  1  0
 26 25  1  0
 26 27  1  6
 26 28  1  0
 28 29  1  6
 29 22  1  0
 30 32  1  0
 30 28  1  0
 31 30  2  0
M  END
$$$$
