WQI.pdb
     RDKit          3D

 32 33  0  0  1  0  0  0  0  0999 V2000
    6.2180  -17.7088   23.5504 N   0  0  0  0  0  0  0  0  0  0  0  0
    7.2291  -16.6440   23.6529 C   0  0  1  0  0  0  0  0  0  0  0  0
    7.3266  -16.1609   25.0430 C   0  0  0  0  0  0  0  0  0  0  0  0
    6.5768  -14.9988   25.4386 C   0  0  0  0  0  0  0  0  0  0  0  0
    5.2868  -15.0455   25.9333 C   0  0  0  0  0  0  0  0  0  0  0  0
    4.8792  -13.8094   26.2000 N   0  0  0  0  0  0  0  0  0  0  0  0
    5.8399  -12.9154   25.9074 C   0  0  0  0  0  0  0  0  0  0  0  0
    5.9546  -11.5451   25.9839 C   0  0  0  0  0  0  0  0  0  0  0  0
    7.1209  -10.9401   25.5862 C   0  0  0  0  0  0  0  0  0  0  0  0
    8.1969  -11.6749   25.1052 C   0  0  0  0  0  0  0  0  0  0  0  0
    8.0821  -13.0376   25.0295 C   0  0  0  0  0  0  0  0  0  0  0  0
    6.9160  -13.6576   25.4257 C   0  0  0  0  0  0  0  0  0  0  0  0
    8.5311  -17.3221   23.3622 C   0  0  0  0  0  0  0  0  0  0  0  0
    8.5772  -18.5582   23.5848 O   0  0  0  0  0  0  0  0  0  0  0  0
   11.5779  -14.4203   19.4160 N   0  0  0  0  0  0  0  0  0  0  0  0
   12.4300  -14.9570   20.4179 C   0  0  0  0  0  0  0  0  0  0  0  0
   13.6376  -15.1230   20.1315 O   0  0  0  0  0  0  0  0  0  0  0  0
   11.9586  -15.3239   21.7688 C   0  0  0  0  0  0  0  0  0  0  0  0
   11.9115  -16.8034   21.8896 C   0  0  0  0  0  0  0  0  0  0  0  0
   10.9913  -17.2973   22.9778 C   0  0  2  0  0  0  0  0  0  0  0  0
    9.6678  -16.6840   22.8723 N   0  0  0  0  0  0  0  0  0  0  0  0
   11.5564  -17.0520   24.3309 C   0  0  0  0  0  0  0  0  0  0  0  0
   12.7581  -17.3840   24.5965 O   0  0  0  0  0  0  0  0  0  0  0  0
   10.0105  -12.6074   26.9535 C   0  0  0  0  0  0  0  0  0  0  0  0
   10.8387  -13.7527   26.4608 C   0  0  0  0  0  0  0  0  0  0  0  0
   10.6330  -15.0073   27.2847 C   0  0  2  0  0  0  0  0  0  0  0  0
   11.0894  -14.8282   28.7045 C   0  0  0  0  0  0  0  0  0  0  0  0
   11.3709  -16.1851   26.6865 C   0  0  2  0  0  0  0  0  0  0  0  0
   10.8033  -16.4538   25.3596 N   0  0  0  0  0  0  0  0  0  0  0  0
   11.3179  -17.3772   27.5376 C   0  0  0  0  0  0  0  0  0  0  0  0
   10.5035  -18.2918   27.2676 O   0  0  0  0  0  0  0  0  0  0  0  0
   12.1436  -17.5071   28.6220 O   0  0  0  0  0  0  0  0  0  0  0  0
  2  1  1  1
  2  3  1  0
  3  4  1  0
  4  5  2  0
  5  6  1  0
  7  6  1  0
  8  7  2  0
  9  8  1  0
 10 11  1  0
 10  9  2  0
 11 12  2  0
 12  4  1  0
 12  7  1  0
 13  2  1  0
 13 21  1  0
 14 13  2  0
 16 18  1  0
 16 15  1  0
 17 16  2  0
 19 18  1  0
 20 21  1  0
 20 19  1  6
 22 20  1  0
 23 22  2  0
 24 25  1  0
 26 25  1  0
 26 27  1  1
 26 28  1  0
 28 29  1  6
 29 22  1  0
 30 32  1  0
 30 28  1  0
 31 30  2  0
M  END
$$$$
