WQI.pdb
     RDKit          3D

 32 33  0  0  1  0  0  0  0  0999 V2000
    6.3133  -17.6866   24.4610 N   0  0  0  0  0  0  0  0  0  0  0  0
    7.2006  -16.5453   24.1837 C   0  0  1  0  0  0  0  0  0  0  0  0
    7.4087  -15.7478   25.4068 C   0  0  0  0  0  0  0  0  0  0  0  0
    6.5313  -14.6421   25.6839 C   0  0  0  0  0  0  0  0  0  0  0  0
    5.2822  -14.7753   26.2612 C   0  0  0  0  0  0  0  0  0  0  0  0
    4.7283  -13.5734   26.3790 N   0  0  0  0  0  0  0  0  0  0  0  0
    5.5489  -12.6199   25.9046 C   0  0  0  0  0  0  0  0  0  0  0  0
    5.4859  -11.2495   25.7825 C   0  0  0  0  0  0  0  0  0  0  0  0
    6.5434  -10.5695   25.2313 C   0  0  0  0  0  0  0  0  0  0  0  0
    7.6838  -11.2280   24.7898 C   0  0  0  0  0  0  0  0  0  0  0  0
    7.7458  -12.5908   24.9115 C   0  0  0  0  0  0  0  0  0  0  0  0
    6.6904  -13.2857   25.4633 C   0  0  0  0  0  0  0  0  0  0  0  0
    8.5272  -17.1597   23.8642 C   0  0  0  0  0  0  0  0  0  0  0  0
    8.8358  -18.1891   24.5161 O   0  0  0  0  0  0  0  0  0  0  0  0
   12.5305  -17.9297   19.8832 N   0  0  0  0  0  0  0  0  0  0  0  0
   13.4419  -17.4763   20.8740 C   0  0  0  0  0  0  0  0  0  0  0  0
   14.6096  -17.9276   20.8453 O   0  0  0  0  0  0  0  0  0  0  0  0
   13.0762  -16.5057   21.9258 C   0  0  0  0  0  0  0  0  0  0  0  0
   11.6109  -16.2671   21.8883 C   0  0  0  0  0  0  0  0  0  0  0  0
   10.8563  -16.9295   23.0138 C   0  0  2  0  0  0  0  0  0  0  0  0
    9.4200  -16.6735   22.9125 N   0  0  0  0  0  0  0  0  0  0  0  0
   11.3557  -16.4928   24.3443 C   0  0  0  0  0  0  0  0  0  0  0  0
   12.2541  -15.5927   24.4310 O   0  0  0  0  0  0  0  0  0  0  0  0
    9.6974  -13.3871   27.6310 C   0  0  0  0  0  0  0  0  0  0  0  0
   10.6152  -14.3580   26.9563 C   0  0  0  0  0  0  0  0  0  0  0  0
   10.5203  -15.7478   27.5515 C   0  0  2  0  0  0  0  0  0  0  0  0
   10.8423  -15.7539   29.0187 C   0  0  0  0  0  0  0  0  0  0  0  0
   11.4522  -16.7115   26.8499 C   0  0  2  0  0  0  0  0  0  0  0  0
   10.8677  -17.0439   25.5449 N   0  0  0  0  0  0  0  0  0  0  0  0
   11.7142  -17.9196   27.6373 C   0  0  0  0  0  0  0  0  0  0  0  0
   12.3416  -17.8264   28.7191 O   0  0  0  0  0  0  0  0  0  0  0  0
   11.2843  -19.1473   27.2098 O   0  0  0  0  0  0  0  0  0  0  0  0
  2  1  1  1
  2  3  1  0
  3  4  1  0
  4  5  2  0
  5  6  1  0
  7  6  1  0
  8  7  2  0
  9  8  1  0
 10 11  1  0
 10  9  2  0
 11 12  2  0
 12  4  1  0
 12  7  1  0
 13  2  1  0
 13 21  1  0
 14 13  2  0
 16 18  1  0
 16 15  1  0
 17 16  2  0
 19 18  1  0
 20 21  1  0
 20 19  1  6
 22 20  1  0
 23 22  2  0
 24 25  1  0
 26 25  1  0
 26 27  1  1
 26 28  1  0
 28 29  1  6
 29 22  1  0
 30 32  1  0
 30 28  1  0
 31 30  2  0
M  END
$$$$
