WQI.pdb
     RDKit          3D

 32 33  0  0  1  0  0  0  0  0999 V2000
    6.4342  -18.9620   21.1326 N   0  0  0  0  0  0  0  0  0  0  0  0
    7.3376  -17.8014   21.0727 C   0  0  1  0  0  0  0  0  0  0  0  0
    6.5635  -16.5561   20.9142 C   0  0  0  0  0  0  0  0  0  0  0  0
    7.2038  -15.3956   20.3553 C   0  0  0  0  0  0  0  0  0  0  0  0
    7.7287  -15.3454   19.0773 C   0  0  0  0  0  0  0  0  0  0  0  0
    8.2491  -14.1408   18.8690 N   0  0  0  0  0  0  0  0  0  0  0  0
    8.1020  -13.3618   19.9549 C   0  0  0  0  0  0  0  0  0  0  0  0
    8.4428  -12.0681   20.2820 C   0  0  0  0  0  0  0  0  0  0  0  0
    8.1281  -11.5788   21.5254 C   0  0  0  0  0  0  0  0  0  0  0  0
    7.4710  -12.3560   22.4704 C   0  0  0  0  0  0  0  0  0  0  0  0
    7.1323  -13.6425   22.1444 C   0  0  0  0  0  0  0  0  0  0  0  0
    7.4428  -14.1461   20.8989 C   0  0  0  0  0  0  0  0  0  0  0  0
    7.9585  -17.7282   22.4323 C   0  0  0  0  0  0  0  0  0  0  0  0
    7.2025  -17.9803   23.4042 O   0  0  0  0  0  0  0  0  0  0  0  0
   12.5944  -20.5469   24.0633 N   0  0  0  0  0  0  0  0  0  0  0  0
   12.5335  -19.7440   25.2336 C   0  0  0  0  0  0  0  0  0  0  0  0
   13.0994  -20.1707   26.2659 O   0  0  0  0  0  0  0  0  0  0  0  0
   11.8390  -18.4414   25.2854 C   0  0  0  0  0  0  0  0  0  0  0  0
   11.2530  -18.1418   23.9541 C   0  0  0  0  0  0  0  0  0  0  0  0
    9.8701  -17.5430   24.0174 C   0  0  2  0  0  0  0  0  0  0  0  0
    9.2900  -17.4055   22.6819 N   0  0  0  0  0  0  0  0  0  0  0  0
    9.8708  -16.2260   24.7071 C   0  0  0  0  0  0  0  0  0  0  0  0
   10.4357  -15.2179   24.1691 O   0  0  0  0  0  0  0  0  0  0  0  0
    6.0498  -13.3457   26.5311 C   0  0  0  0  0  0  0  0  0  0  0  0
    7.3821  -13.8730   26.0986 C   0  0  0  0  0  0  0  0  0  0  0  0
    8.2478  -14.2812   27.2730 C   0  0  2  0  0  0  0  0  0  0  0  0
    8.5441  -13.1228   28.1821 C   0  0  0  0  0  0  0  0  0  0  0  0
    9.5590  -14.8769   26.8089 C   0  0  2  0  0  0  0  0  0  0  0  0
    9.2591  -16.0375   25.9615 N   0  0  0  0  0  0  0  0  0  0  0  0
   10.4382  -15.2457   27.9221 C   0  0  0  0  0  0  0  0  0  0  0  0
   10.5254  -16.4483   28.2665 O   0  0  0  0  0  0  0  0  0  0  0  0
   11.1652  -14.2975   28.5908 O   0  0  0  0  0  0  0  0  0  0  0  0
  2  1  1  1
  2  3  1  0
  3  4  1  0
  4  5  2  0
  5  6  1  0
  7  6  1  0
  8  7  2  0
  9  8  1  0
 10 11  1  0
 10  9  2  0
 11 12  2  0
 12  4  1  0
 12  7  1  0
 13  2  1  0
 13 21  1  0
 14 13  2  0
 16 18  1  0
 16 15  1  0
 17 16  2  0
 19 18  1  0
 20 21  1  0
 20 19  1  6
 22 20  1  0
 23 22  2  0
 24 25  1  0
 26 25  1  0
 26 27  1  1
 26 28  1  0
 28 29  1  1
 29 22  1  0
 30 32  1  0
 30 28  1  0
 31 30  2  0
M  END
$$$$
