WQI.pdb
     RDKit          3D

 32 33  0  0  1  0  0  0  0  0999 V2000
    6.3949  -17.6037   24.0234 N   0  0  0  0  0  0  0  0  0  0  0  0
    7.4120  -16.5621   23.8057 C   0  0  1  0  0  0  0  0  0  0  0  0
    7.7408  -15.8919   25.0776 C   0  0  0  0  0  0  0  0  0  0  0  0
    6.9120  -14.8101   25.5380 C   0  0  0  0  0  0  0  0  0  0  0  0
    5.6173  -14.9716   25.9950 C   0  0  0  0  0  0  0  0  0  0  0  0
    5.1281  -13.7858   26.3411 N   0  0  0  0  0  0  0  0  0  0  0  0
    6.0371  -12.8159   26.1392 C   0  0  0  0  0  0  0  0  0  0  0  0
    6.0647  -11.4507   26.3186 C   0  0  0  0  0  0  0  0  0  0  0  0
    7.1991  -10.7482   25.9959 C   0  0  0  0  0  0  0  0  0  0  0  0
    8.3285  -11.3785   25.4900 C   0  0  0  0  0  0  0  0  0  0  0  0
    8.3004  -12.7363   25.3118 C   0  0  0  0  0  0  0  0  0  0  0  0
    7.1672  -13.4536   25.6319 C   0  0  0  0  0  0  0  0  0  0  0  0
    8.6455  -17.3085   23.4047 C   0  0  0  0  0  0  0  0  0  0  0  0
    8.8442  -18.4071   23.9821 O   0  0  0  0  0  0  0  0  0  0  0  0
   12.4207  -19.1660   20.3649 N   0  0  0  0  0  0  0  0  0  0  0  0
   13.4580  -18.3288   20.8559 C   0  0  0  0  0  0  0  0  0  0  0  0
   14.6335  -18.7557   20.7930 O   0  0  0  0  0  0  0  0  0  0  0  0
   13.2132  -16.9907   21.4315 C   0  0  0  0  0  0  0  0  0  0  0  0
   11.7601  -16.6887   21.3763 C   0  0  0  0  0  0  0  0  0  0  0  0
   10.9920  -17.1653   22.5837 C   0  0  2  0  0  0  0  0  0  0  0  0
    9.5651  -16.8721   22.4544 N   0  0  0  0  0  0  0  0  0  0  0  0
   11.5187  -16.5726   23.8413 C   0  0  0  0  0  0  0  0  0  0  0  0
   12.4674  -15.7221   23.8041 O   0  0  0  0  0  0  0  0  0  0  0  0
   10.1679  -13.2404   28.2560 C   0  0  0  0  0  0  0  0  0  0  0  0
   11.0554  -14.3944   27.9084 C   0  0  0  0  0  0  0  0  0  0  0  0
   10.6277  -15.0837   26.6289 C   0  0  2  0  0  0  0  0  0  0  0  0
    9.1908  -15.5188   26.6784 C   0  0  0  0  0  0  0  0  0  0  0  0
   11.4881  -16.2951   26.3426 C   0  0  2  0  0  0  0  0  0  0  0  0
   11.0027  -16.9181   25.1052 N   0  0  0  0  0  0  0  0  0  0  0  0
   11.5006  -17.2546   27.4504 C   0  0  0  0  0  0  0  0  0  0  0  0
   10.9387  -18.3668   27.3091 O   0  0  0  0  0  0  0  0  0  0  0  0
   12.1163  -16.9552   28.6362 O   0  0  0  0  0  0  0  0  0  0  0  0
  2  1  1  1
  2  3  1  0
  3  4  1  0
  4  5  2  0
  5  6  1  0
  7  6  1  0
  8  7  2  0
  9  8  1  0
 10 11  1  0
 10  9  2  0
 11 12  2  0
 12  4  1  0
 12  7  1  0
 13  2  1  0
 13 21  1  0
 14 13  2  0
 16 18  1  0
 16 15  1  0
 17 16  2  0
 19 18  1  0
 20 21  1  0
 20 19  1  6
 22 20  1  0
 23 22  2  0
 24 25  1  0
 26 25  1  0
 26 27  1  1
 26 28  1  0
 28 29  1  6
 29 22  1  0
 30 32  1  0
 30 28  1  0
 31 30  2  0
M  END
$$$$
