WQI.pdb
     RDKit          3D

 32 33  0  0  1  0  0  0  0  0999 V2000
    6.5529  -17.8991   23.9025 N   0  0  0  0  0  0  0  0  0  0  0  0
    7.2837  -16.6219   23.8638 C   0  0  1  0  0  0  0  0  0  0  0  0
    7.3593  -16.0327   25.2138 C   0  0  0  0  0  0  0  0  0  0  0  0
    6.5079  -14.9218   25.5456 C   0  0  0  0  0  0  0  0  0  0  0  0
    5.2915  -15.0486   26.1902 C   0  0  0  0  0  0  0  0  0  0  0  0
    4.7551  -13.8430   26.3457 N   0  0  0  0  0  0  0  0  0  0  0  0
    5.5564  -12.8931   25.8325 C   0  0  0  0  0  0  0  0  0  0  0  0
    5.4983  -11.5215   25.7224 C   0  0  0  0  0  0  0  0  0  0  0  0
    6.5295  -10.8466   25.1178 C   0  0  0  0  0  0  0  0  0  0  0  0
    7.6382  -11.5113   24.6100 C   0  0  0  0  0  0  0  0  0  0  0  0
    7.6953  -12.8754   24.7198 C   0  0  0  0  0  0  0  0  0  0  0  0
    6.6661  -13.5653   25.3248 C   0  0  0  0  0  0  0  0  0  0  0  0
    8.6867  -16.9938   23.4996 C   0  0  0  0  0  0  0  0  0  0  0  0
    9.0799  -18.1253   23.8804 O   0  0  0  0  0  0  0  0  0  0  0  0
   12.8591  -15.0324   19.0656 N   0  0  0  0  0  0  0  0  0  0  0  0
   13.6179  -15.3074   20.2346 C   0  0  0  0  0  0  0  0  0  0  0  0
   14.7947  -14.8821   20.2818 O   0  0  0  0  0  0  0  0  0  0  0  0
   13.0850  -16.0652   21.3851 C   0  0  0  0  0  0  0  0  0  0  0  0
   11.6398  -15.7638   21.5471 C   0  0  0  0  0  0  0  0  0  0  0  0
   10.9900  -16.4931   22.6964 C   0  0  2  0  0  0  0  0  0  0  0  0
    9.5632  -16.1836   22.7823 N   0  0  0  0  0  0  0  0  0  0  0  0
   11.6537  -16.1849   23.9906 C   0  0  0  0  0  0  0  0  0  0  0  0
   12.3009  -15.0969   24.1391 O   0  0  0  0  0  0  0  0  0  0  0  0
   10.7040  -13.9437   28.7780 C   0  0  0  0  0  0  0  0  0  0  0  0
   11.5964  -15.0307   28.2656 C   0  0  0  0  0  0  0  0  0  0  0  0
   11.1940  -15.5010   26.8829 C   0  0  2  0  0  0  0  0  0  0  0  0
    9.7502  -15.9115   26.8270 C   0  0  0  0  0  0  0  0  0  0  0  0
   12.0443  -16.6677   26.4297 C   0  0  2  0  0  0  0  0  0  0  0  0
   11.5978  -17.0648   25.0887 N   0  0  0  0  0  0  0  0  0  0  0  0
   11.9964  -17.7982   27.3613 C   0  0  0  0  0  0  0  0  0  0  0  0
   11.3097  -18.8068   27.0720 O   0  0  0  0  0  0  0  0  0  0  0  0
   12.6897  -17.7694   28.5417 O   0  0  0  0  0  0  0  0  0  0  0  0
  2  1  1  1
  2  3  1  0
  3  4  1  0
  4  5  2  0
  5  6  1  0
  7  6  1  0
  8  7  2  0
  9  8  1  0
 10 11  1  0
 10  9  2  0
 11 12  2  0
 12  4  1  0
 12  7  1  0
 13  2  1  0
 13 21  1  0
 14 13  2  0
 16 18  1  0
 16 15  1  0
 17 16  2  0
 19 18  1  0
 20 21  1  0
 20 19  1  6
 22 20  1  0
 23 22  2  0
 24 25  1  0
 26 25  1  0
 26 27  1  1
 26 28  1  0
 28 29  1  6
 29 22  1  0
 30 32  1  0
 30 28  1  0
 31 30  2  0
M  END
$$$$
