WQI.pdb
     RDKit          3D

 32 33  0  0  1  0  0  0  0  0999 V2000
    6.7329  -18.6612   23.7094 N   0  0  0  0  0  0  0  0  0  0  0  0
    7.2490  -17.2828   23.7332 C   0  0  1  0  0  0  0  0  0  0  0  0
    7.2901  -16.7739   25.1169 C   0  0  0  0  0  0  0  0  0  0  0  0
    6.5257  -15.6046   25.4598 C   0  0  0  0  0  0  0  0  0  0  0  0
    5.3286  -15.6415   26.1501 C   0  0  0  0  0  0  0  0  0  0  0  0
    4.8778  -14.4011   26.3038 N   0  0  0  0  0  0  0  0  0  0  0  0
    5.7195  -13.5137   25.7454 C   0  0  0  0  0  0  0  0  0  0  0  0
    5.7468  -12.1431   25.6134 C   0  0  0  0  0  0  0  0  0  0  0  0
    6.7964  -11.5465   24.9601 C   0  0  0  0  0  0  0  0  0  0  0  0
    7.8398  -12.2902   24.4242 C   0  0  0  0  0  0  0  0  0  0  0  0
    7.8120  -13.6533   24.5558 C   0  0  0  0  0  0  0  0  0  0  0  0
    6.7635  -14.2649   25.2097 C   0  0  0  0  0  0  0  0  0  0  0  0
    8.6756  -17.4000   23.2968 C   0  0  0  0  0  0  0  0  0  0  0  0
    9.2516  -18.4855   23.5608 O   0  0  0  0  0  0  0  0  0  0  0  0
   12.2064  -13.5795   19.6453 N   0  0  0  0  0  0  0  0  0  0  0  0
   13.1253  -14.5505   20.1255 C   0  0  0  0  0  0  0  0  0  0  0  0
   14.3098  -14.4836   19.7250 O   0  0  0  0  0  0  0  0  0  0  0  0
   12.7485  -15.6245   21.0670 C   0  0  0  0  0  0  0  0  0  0  0  0
   11.3163  -15.4797   21.4325 C   0  0  0  0  0  0  0  0  0  0  0  0
   10.8300  -16.5158   22.4147 C   0  0  2  0  0  0  0  0  0  0  0  0
    9.3880  -16.4048   22.6324 N   0  0  0  0  0  0  0  0  0  0  0  0
   11.5467  -16.4231   23.7139 C   0  0  0  0  0  0  0  0  0  0  0  0
   12.8081  -16.5986   23.7672 O   0  0  0  0  0  0  0  0  0  0  0  0
   10.7437  -14.0612   29.3711 C   0  0  0  0  0  0  0  0  0  0  0  0
   11.4719  -15.0067   28.4678 C   0  0  0  0  0  0  0  0  0  0  0  0
   10.8129  -15.1263   27.1089 C   0  0  2  0  0  0  0  0  0  0  0  0
    9.3970  -15.6170   27.2124 C   0  0  0  0  0  0  0  0  0  0  0  0
   11.5828  -16.0640   26.2048 C   0  0  2  0  0  0  0  0  0  0  0  0
   10.8765  -16.1428   24.9203 N   0  0  0  0  0  0  0  0  0  0  0  0
   11.7648  -17.3942   26.7928 C   0  0  0  0  0  0  0  0  0  0  0  0
   11.0499  -18.3459   26.3979 O   0  0  0  0  0  0  0  0  0  0  0  0
   12.7029  -17.6131   27.7658 O   0  0  0  0  0  0  0  0  0  0  0  0
  2  1  1  1
  2  3  1  0
  3  4  1  0
  4  5  2  0
  5  6  1  0
  7  6  1  0
  8  7  2  0
  9  8  1  0
 10 11  1  0
 10  9  2  0
 11 12  2  0
 12  4  1  0
 12  7  1  0
 13  2  1  0
 13 21  1  0
 14 13  2  0
 16 18  1  0
 16 15  1  0
 17 16  2  0
 19 18  1  0
 20 21  1  0
 20 19  1  6
 22 20  1  0
 23 22  2  0
 24 25  1  0
 26 25  1  0
 26 27  1  1
 26 28  1  0
 28 29  1  6
 29 22  1  0
 30 32  1  0
 30 28  1  0
 31 30  2  0
M  END
$$$$
