WQI.pdb
     RDKit          3D

 32 33  0  0  1  0  0  0  0  0999 V2000
    6.2611  -18.6737   23.8647 N   0  0  0  0  0  0  0  0  0  0  0  0
    6.8643  -17.3360   23.9813 C   0  0  1  0  0  0  0  0  0  0  0  0
    6.6321  -16.7840   25.3291 C   0  0  0  0  0  0  0  0  0  0  0  0
    6.2264  -15.4108   25.4670 C   0  0  0  0  0  0  0  0  0  0  0  0
    5.1762  -14.9937   26.2633 C   0  0  0  0  0  0  0  0  0  0  0  0
    5.0588  -13.6735   26.1703 N   0  0  0  0  0  0  0  0  0  0  0  0
    5.9881  -13.1679   25.3405 C   0  0  0  0  0  0  0  0  0  0  0  0
    6.3156  -11.9072   24.8932 C   0  0  0  0  0  0  0  0  0  0  0  0
    7.3615  -11.7497   24.0181 C   0  0  0  0  0  0  0  0  0  0  0  0
    8.1048  -12.8328   23.5671 C   0  0  0  0  0  0  0  0  0  0  0  0
    7.7786  -14.0863   24.0123 C   0  0  0  0  0  0  0  0  0  0  0  0
    6.7303  -14.2581   24.8914 C   0  0  0  0  0  0  0  0  0  0  0  0
    8.3390  -17.5704   23.8827 C   0  0  0  0  0  0  0  0  0  0  0  0
    8.7798  -18.5965   24.4595 O   0  0  0  0  0  0  0  0  0  0  0  0
   12.5731  -17.3047   19.9929 N   0  0  0  0  0  0  0  0  0  0  0  0
   13.4092  -16.9773   21.0937 C   0  0  0  0  0  0  0  0  0  0  0  0
   14.6332  -17.2213   20.9917 O   0  0  0  0  0  0  0  0  0  0  0  0
   12.9031  -16.3680   22.3405 C   0  0  0  0  0  0  0  0  0  0  0  0
   11.4285  -16.2161   22.2517 C   0  0  0  0  0  0  0  0  0  0  0  0
   10.6782  -16.8809   23.3787 C   0  0  2  0  0  0  0  0  0  0  0  0
    9.2323  -16.7422   23.2080 N   0  0  0  0  0  0  0  0  0  0  0  0
   11.0852  -16.3442   24.7041 C   0  0  0  0  0  0  0  0  0  0  0  0
   11.6545  -15.2070   24.7907 O   0  0  0  0  0  0  0  0  0  0  0  0
   10.8007  -12.7343   27.0677 C   0  0  0  0  0  0  0  0  0  0  0  0
   11.4256  -14.0718   26.8212 C   0  0  0  0  0  0  0  0  0  0  0  0
   10.6215  -15.2029   27.4288 C   0  0  2  0  0  0  0  0  0  0  0  0
   10.4126  -15.0144   28.9043 C   0  0  0  0  0  0  0  0  0  0  0  0
   11.2952  -16.5391   27.2046 C   0  0  2  0  0  0  0  0  0  0  0  0
   10.8641  -17.0549   25.8996 N   0  0  0  0  0  0  0  0  0  0  0  0
   11.0144  -17.5007   28.2744 C   0  0  0  0  0  0  0  0  0  0  0  0
   11.4760  -17.2977   29.4226 O   0  0  0  0  0  0  0  0  0  0  0  0
   10.2563  -18.6164   28.0391 O   0  0  0  0  0  0  0  0  0  0  0  0
  2  1  1  1
  2  3  1  0
  3  4  1  0
  4  5  2  0
  5  6  1  0
  7  6  1  0
  8  7  2  0
  9  8  1  0
 10 11  1  0
 10  9  2  0
 11 12  2  0
 12  4  1  0
 12  7  1  0
 13  2  1  0
 13 21  1  0
 14 13  2  0
 16 18  1  0
 16 15  1  0
 17 16  2  0
 19 18  1  0
 20 21  1  0
 20 19  1  6
 22 20  1  0
 23 22  2  0
 24 25  1  0
 26 25  1  0
 26 27  1  1
 26 28  1  0
 28 29  1  6
 29 22  1  0
 30 32  1  0
 30 28  1  0
 31 30  2  0
M  END
$$$$
