WQI.pdb
     RDKit          3D

 32 33  0  0  1  0  0  0  0  0999 V2000
    6.1713  -18.0654   24.9029 N   0  0  0  0  0  0  0  0  0  0  0  0
    7.0435  -16.9683   24.4528 C   0  0  1  0  0  0  0  0  0  0  0  0
    7.1710  -15.9475   25.5096 C   0  0  0  0  0  0  0  0  0  0  0  0
    6.7830  -14.5911   25.2286 C   0  0  0  0  0  0  0  0  0  0  0  0
    5.8604  -13.8828   25.9757 C   0  0  0  0  0  0  0  0  0  0  0  0
    5.7236  -12.6672   25.4571 N   0  0  0  0  0  0  0  0  0  0  0  0
    6.5167  -12.5135   24.3824 C   0  0  0  0  0  0  0  0  0  0  0  0
    6.7675  -11.4934   23.4918 C   0  0  0  0  0  0  0  0  0  0  0  0
    7.6711  -11.6877   22.4767 C   0  0  0  0  0  0  0  0  0  0  0  0
    8.3449  -12.8920   22.3203 C   0  0  0  0  0  0  0  0  0  0  0  0
    8.0951  -13.9061   23.2064 C   0  0  0  0  0  0  0  0  0  0  0  0
    7.1898  -13.7238   24.2304 C   0  0  0  0  0  0  0  0  0  0  0  0
    8.3989  -17.5877   24.3154 C   0  0  0  0  0  0  0  0  0  0  0  0
    8.6818  -18.4965   25.1362 O   0  0  0  0  0  0  0  0  0  0  0  0
   13.6009  -15.8345   20.5427 N   0  0  0  0  0  0  0  0  0  0  0  0
   13.6887  -17.1078   21.1661 C   0  0  0  0  0  0  0  0  0  0  0  0
   14.3720  -17.9909   20.5993 O   0  0  0  0  0  0  0  0  0  0  0  0
   13.0163  -17.4324   22.4407 C   0  0  0  0  0  0  0  0  0  0  0  0
   11.5621  -17.1589   22.3144 C   0  0  0  0  0  0  0  0  0  0  0  0
   10.7658  -17.5139   23.5452 C   0  0  2  0  0  0  0  0  0  0  0  0
    9.3438  -17.2283   23.3577 N   0  0  0  0  0  0  0  0  0  0  0  0
   11.2697  -16.8053   24.7511 C   0  0  0  0  0  0  0  0  0  0  0  0
   12.1296  -15.8713   24.6365 O   0  0  0  0  0  0  0  0  0  0  0  0
    9.8239  -13.1510   27.2372 C   0  0  0  0  0  0  0  0  0  0  0  0
    9.6801  -14.5566   26.7432 C   0  0  0  0  0  0  0  0  0  0  0  0
   10.1427  -15.5752   27.7647 C   0  0  2  0  0  0  0  0  0  0  0  0
   10.5704  -14.9271   29.0506 C   0  0  0  0  0  0  0  0  0  0  0  0
   11.2947  -16.4011   27.2352 C   0  0  2  0  0  0  0  0  0  0  0  0
   10.8279  -17.1285   26.0486 N   0  0  0  0  0  0  0  0  0  0  0  0
   11.8414  -17.3185   28.2390 C   0  0  0  0  0  0  0  0  0  0  0  0
   11.4696  -18.5161   28.2472 O   0  0  0  0  0  0  0  0  0  0  0  0
   12.7513  -16.8878   29.1671 O   0  0  0  0  0  0  0  0  0  0  0  0
  2  1  1  1
  2  3  1  0
  3  4  1  0
  4  5  2  0
  5  6  1  0
  7  6  1  0
  8  7  2  0
  9  8  1  0
 10 11  1  0
 10  9  2  0
 11 12  2  0
 12  4  1  0
 12  7  1  0
 13  2  1  0
 13 21  1  0
 14 13  2  0
 16 18  1  0
 16 15  1  0
 17 16  2  0
 19 18  1  0
 20 21  1  0
 20 19  1  6
 22 20  1  0
 23 22  2  0
 24 25  1  0
 26 25  1  0
 26 27  1  1
 26 28  1  0
 28 29  1  6
 29 22  1  0
 30 32  1  0
 30 28  1  0
 31 30  2  0
M  END
$$$$
