WQI.pdb
     RDKit          3D

 32 33  0  0  1  0  0  0  0  0999 V2000
    8.0964  -18.4731   22.2082 N   0  0  0  0  0  0  0  0  0  0  0  0
    8.8494  -17.2136   22.3243 C   0  0  1  0  0  0  0  0  0  0  0  0
    8.0123  -16.1707   22.9464 C   0  0  0  0  0  0  0  0  0  0  0  0
    7.2247  -15.3072   22.1078 C   0  0  0  0  0  0  0  0  0  0  0  0
    5.8433  -15.3301   22.0595 C   0  0  0  0  0  0  0  0  0  0  0  0
    5.4243  -14.4172   21.1899 N   0  0  0  0  0  0  0  0  0  0  0  0
    6.4650  -13.7682   20.6389 C   0  0  0  0  0  0  0  0  0  0  0  0
    6.6069  -12.7614   19.7099 C   0  0  0  0  0  0  0  0  0  0  0  0
    7.8636  -12.3269   19.3690 C   0  0  0  0  0  0  0  0  0  0  0  0
    9.0050  -12.8770   19.9378 C   0  0  0  0  0  0  0  0  0  0  0  0
    8.8632  -13.8782   20.8616 C   0  0  0  0  0  0  0  0  0  0  0  0
    7.6065  -14.3238   21.2127 C   0  0  0  0  0  0  0  0  0  0  0  0
    9.9379  -17.5068   23.3084 C   0  0  0  0  0  0  0  0  0  0  0  0
    9.7441  -18.4800   24.0799 O   0  0  0  0  0  0  0  0  0  0  0  0
   17.1276  -16.4479   24.8444 N   0  0  0  0  0  0  0  0  0  0  0  0
   15.8892  -16.3290   24.1587 C   0  0  0  0  0  0  0  0  0  0  0  0
   15.7521  -15.3749   23.3594 O   0  0  0  0  0  0  0  0  0  0  0  0
   14.7677  -17.2721   24.3453 C   0  0  0  0  0  0  0  0  0  0  0  0
   13.5659  -16.7540   23.6432 C   0  0  0  0  0  0  0  0  0  0  0  0
   12.2658  -17.3081   24.1700 C   0  0  2  0  0  0  0  0  0  0  0  0
   11.1239  -16.7856   23.4203 N   0  0  0  0  0  0  0  0  0  0  0  0
   12.0926  -17.0242   25.6191 C   0  0  0  0  0  0  0  0  0  0  0  0
   12.8781  -17.5472   26.4759 O   0  0  0  0  0  0  0  0  0  0  0  0
    7.9686  -13.4558   27.1595 C   0  0  0  0  0  0  0  0  0  0  0  0
    8.7637  -14.7109   26.9784 C   0  0  0  0  0  0  0  0  0  0  0  0
   10.0964  -14.6560   27.6966 C   0  0  2  0  0  0  0  0  0  0  0  0
   10.9553  -13.5273   27.2019 C   0  0  0  0  0  0  0  0  0  0  0  0
   10.8623  -15.9508   27.5346 C   0  0  2  0  0  0  0  0  0  0  0  0
   11.0723  -16.1811   26.1001 N   0  0  0  0  0  0  0  0  0  0  0  0
   10.1863  -17.0901   28.1616 C   0  0  0  0  0  0  0  0  0  0  0  0
    9.9848  -17.0825   29.3993 O   0  0  0  0  0  0  0  0  0  0  0  0
    9.7718  -18.1616   27.4167 O   0  0  0  0  0  0  0  0  0  0  0  0
  2  1  1  1
  2  3  1  0
  3  4  1  0
  4  5  2  0
  5  6  1  0
  7  6  1  0
  8  7  2  0
  9  8  1  0
 10 11  1  0
 10  9  2  0
 11 12  2  0
 12  4  1  0
 12  7  1  0
 13  2  1  0
 13 21  1  0
 14 13  2  0
 16 18  1  0
 16 15  1  0
 17 16  2  0
 19 18  1  0
 20 21  1  0
 20 19  1  6
 22 20  1  0
 23 22  2  0
 24 25  1  0
 26 25  1  0
 26 27  1  6
 26 28  1  0
 28 29  1  6
 29 22  1  0
 30 32  1  0
 30 28  1  0
 31 30  2  0
M  END
$$$$
