NAI.pdb
     RDKit          3D

 22 21  0  0  1  0  0  0  0  0999 V2000
   19.3733  -19.6148  -11.9905 N   0  0  0  0  0  0  0  0  0  0  0  0
   20.6188  -20.1762  -12.4418 C   0  0  0  0  0  0  0  0  0  0  0  0
   20.8475  -20.1698  -13.6583 O   0  0  0  0  0  0  0  0  0  0  0  0
   21.5776  -20.7430  -11.4893 C   0  0  0  0  0  0  0  0  0  0  0  0
   22.8823  -20.0395  -11.5382 C   0  0  2  0  0  0  0  0  0  0  0  0
   23.4441  -20.1158  -12.8508 N   0  0  0  0  0  0  0  0  0  0  0  0
   23.8593  -20.4933  -10.5189 C   0  0  0  0  0  0  0  0  0  0  0  0
   23.4768  -20.6303   -9.3208 O   0  0  0  0  0  0  0  0  0  0  0  0
   27.5054  -21.6622  -10.5735 C   0  0  0  0  0  0  0  0  0  0  0  0
   26.2233  -21.2136   -9.9203 C   0  0  2  0  0  0  0  0  0  0  0  0
   25.1995  -20.7953  -10.8263 N   0  0  0  0  0  0  0  0  0  0  0  0
   26.4443  -20.3044   -8.7727 C   0  0  0  0  0  0  0  0  0  0  0  0
   26.2773  -19.0708   -8.7783 O   0  0  0  0  0  0  0  0  0  0  0  0
   28.0637  -19.9795   -2.6785 C   0  0  0  0  0  0  0  0  0  0  0  0
   27.7053  -19.4490   -4.0392 C   0  0  0  0  0  0  0  0  0  0  0  0
   27.4541  -20.4761   -5.0890 C   0  0  2  0  0  0  0  0  0  0  0  0
   28.6470  -21.4782   -4.9807 C   0  0  0  0  0  0  0  0  0  0  0  0
   27.3238  -20.0354   -6.4726 C   0  0  2  0  0  0  0  0  0  0  0  0
   26.8862  -20.8934   -7.5078 N   0  0  0  0  0  0  0  0  0  0  0  0
   28.5978  -19.2872   -6.9117 C   0  0  0  0  0  0  0  0  0  0  0  0
   29.4804  -19.8058   -7.5941 O   0  0  0  0  0  0  0  0  0  0  0  0
   28.7541  -17.9442   -6.5226 O   0  0  0  0  0  0  0  0  0  0  0  0
  1  2  1  0
  2  3  2  0
  4  2  1  0
  4  5  1  0
  5  6  1  6
  7  5  1  0
  7 11  1  0
  8  7  2  0
 10  9  1  6
 10 11  1  0
 10 12  1  0
 12 19  1  0
 13 12  2  0
 15 16  1  0
 15 14  1  0
 16 18  1  0
 16 17  1  6
 18 20  1  0
 18 19  1  6
 20 22  1  0
 21 20  2  0
M  END
$$$$
