NAI.pdb
     RDKit          3D

 22 21  0  0  1  0  0  0  0  0999 V2000
   14.8375  -16.0118  -15.3641 N   0  0  0  0  0  0  0  0  0  0  0  0
   15.7719  -15.6116  -14.3458 C   0  0  0  0  0  0  0  0  0  0  0  0
   15.7159  -16.1887  -13.2522 O   0  0  0  0  0  0  0  0  0  0  0  0
   16.7499  -14.5496  -14.5977 C   0  0  0  0  0  0  0  0  0  0  0  0
   16.5306  -13.9011  -15.9133 C   0  0  2  0  0  0  0  0  0  0  0  0
   16.7368  -14.8371  -16.9742 N   0  0  0  0  0  0  0  0  0  0  0  0
   17.3329  -12.6728  -16.1299 C   0  0  0  0  0  0  0  0  0  0  0  0
   18.5011  -12.7787  -16.6040 O   0  0  0  0  0  0  0  0  0  0  0  0
   16.6620   -8.9223  -16.0555 C   0  0  0  0  0  0  0  0  0  0  0  0
   17.5439  -10.1427  -15.9889 C   0  0  2  0  0  0  0  0  0  0  0  0
   16.8472  -11.3827  -15.8444 N   0  0  0  0  0  0  0  0  0  0  0  0
   18.7014   -9.9730  -15.0812 C   0  0  0  0  0  0  0  0  0  0  0  0
   18.7134  -10.2236  -13.8619 O   0  0  0  0  0  0  0  0  0  0  0  0
   23.8001  -11.7908  -16.1725 C   0  0  0  0  0  0  0  0  0  0  0  0
   22.4356  -11.2938  -15.7821 C   0  0  0  0  0  0  0  0  0  0  0  0
   22.3894   -9.9280  -15.1882 C   0  0  2  0  0  0  0  0  0  0  0  0
   23.2950   -9.9989  -13.9179 C   0  0  0  0  0  0  0  0  0  0  0  0
   21.0912   -9.3759  -14.8201 C   0  0  2  0  0  0  0  0  0  0  0  0
   19.9545   -9.4799  -15.6545 N   0  0  0  0  0  0  0  0  0  0  0  0
   21.2538   -7.9238  -14.3298 C   0  0  0  0  0  0  0  0  0  0  0  0
   21.8294   -7.6281  -13.2834 O   0  0  0  0  0  0  0  0  0  0  0  0
   20.7282   -6.8862  -15.1214 O   0  0  0  0  0  0  0  0  0  0  0  0
  1  2  1  0
  2  3  2  0
  4  2  1  0
  4  5  1  0
  5  6  1  6
  7  5  1  0
  7 11  1  0
  8  7  2  0
 10  9  1  1
 10 11  1  0
 10 12  1  0
 12 19  1  0
 13 12  2  0
 15 16  1  0
 15 14  1  0
 16 18  1  0
 16 17  1  1
 18 20  1  0
 18 19  1  6
 20 22  1  0
 21 20  2  0
M  END
$$$$
