NAI.pdb
     RDKit          3D

 22 21  0  0  1  0  0  0  0  0999 V2000
   13.2784  -10.1905  -16.9305 N   0  0  0  0  0  0  0  0  0  0  0  0
   13.8338   -9.8592  -15.6452 C   0  0  0  0  0  0  0  0  0  0  0  0
   13.0613   -9.8037  -14.6797 O   0  0  0  0  0  0  0  0  0  0  0  0
   15.2661   -9.5892  -15.4916 C   0  0  0  0  0  0  0  0  0  0  0  0
   15.9894   -9.7087  -16.7808 C   0  0  2  0  0  0  0  0  0  0  0  0
   16.1357  -11.0827  -17.1480 N   0  0  0  0  0  0  0  0  0  0  0  0
   17.2978   -9.0114  -16.8138 C   0  0  0  0  0  0  0  0  0  0  0  0
   18.3499   -9.6692  -16.5665 O   0  0  0  0  0  0  0  0  0  0  0  0
   18.5015   -5.5026  -17.7500 C   0  0  0  0  0  0  0  0  0  0  0  0
   18.6246   -6.8629  -17.1126 C   0  0  2  0  0  0  0  0  0  0  0  0
   17.4275   -7.6444  -17.1240 N   0  0  0  0  0  0  0  0  0  0  0  0
   19.3321   -6.8323  -15.8122 C   0  0  0  0  0  0  0  0  0  0  0  0
   18.7932   -6.8240  -14.6901 O   0  0  0  0  0  0  0  0  0  0  0  0
   23.0398  -10.3236  -14.1316 C   0  0  0  0  0  0  0  0  0  0  0  0
   22.0242   -9.2789  -14.5037 C   0  0  0  0  0  0  0  0  0  0  0  0
   22.4004   -7.8708  -14.1937 C   0  0  2  0  0  0  0  0  0  0  0  0
   22.5867   -7.8244  -12.6439 C   0  0  0  0  0  0  0  0  0  0  0  0
   21.4912   -6.8054  -14.5983 C   0  0  2  0  0  0  0  0  0  0  0  0
   20.7955   -6.8235  -15.8291 N   0  0  0  0  0  0  0  0  0  0  0  0
   22.1599   -5.4322  -14.3913 C   0  0  0  0  0  0  0  0  0  0  0  0
   22.4747   -4.6908  -15.3213 O   0  0  0  0  0  0  0  0  0  0  0  0
   22.4130   -5.0014  -13.0761 O   0  0  0  0  0  0  0  0  0  0  0  0
  1  2  1  0
  2  3  2  0
  4  2  1  0
  4  5  1  0
  5  6  1  1
  7  5  1  0
  7 11  1  0
  8  7  2  0
 10  9  1  1
 10 11  1  0
 10 12  1  0
 12 19  1  0
 13 12  2  0
 15 16  1  0
 15 14  1  0
 16 18  1  0
 16 17  1  1
 18 20  1  0
 18 19  1  6
 20 22  1  0
 21 20  2  0
M  END
$$$$
