NAI.pdb
     RDKit          3D

 22 21  0  0  1  0  0  0  0  0999 V2000
   28.7622  -17.0110  -16.7550 N   0  0  0  0  0  0  0  0  0  0  0  0
   28.4538  -18.1997  -16.0052 C   0  0  0  0  0  0  0  0  0  0  0  0
   28.7471  -19.2918  -16.5086 O   0  0  0  0  0  0  0  0  0  0  0  0
   27.8063  -18.1147  -14.6932 C   0  0  0  0  0  0  0  0  0  0  0  0
   26.7687  -19.1607  -14.5234 C   0  0  2  0  0  0  0  0  0  0  0  0
   25.7370  -19.0068  -15.5012 N   0  0  0  0  0  0  0  0  0  0  0  0
   26.1949  -19.2355  -13.1580 C   0  0  0  0  0  0  0  0  0  0  0  0
   25.9010  -18.1621  -12.5564 O   0  0  0  0  0  0  0  0  0  0  0  0
   24.1830  -21.5715  -11.1664 C   0  0  0  0  0  0  0  0  0  0  0  0
   25.3659  -20.6384  -11.2058 C   0  0  2  0  0  0  0  0  0  0  0  0
   25.9460  -20.4547  -12.4996 N   0  0  0  0  0  0  0  0  0  0  0  0
   26.3406  -20.8913  -10.1202 C   0  0  0  0  0  0  0  0  0  0  0  0
   27.2023  -21.7896  -10.1099 O   0  0  0  0  0  0  0  0  0  0  0  0
   29.3386  -19.3844   -4.9555 C   0  0  0  0  0  0  0  0  0  0  0  0
   28.3991  -20.2677   -5.7291 C   0  0  0  0  0  0  0  0  0  0  0  0
   27.7963  -19.6603   -6.9490 C   0  0  2  0  0  0  0  0  0  0  0  0
   27.0620  -18.3752   -6.4511 C   0  0  0  0  0  0  0  0  0  0  0  0
   26.8712  -20.4643   -7.7386 C   0  0  2  0  0  0  0  0  0  0  0  0
   26.3106  -20.0078   -8.9537 N   0  0  0  0  0  0  0  0  0  0  0  0
   25.7660  -21.0417   -6.8326 C   0  0  0  0  0  0  0  0  0  0  0  0
   25.9958  -21.8030   -5.8939 O   0  0  0  0  0  0  0  0  0  0  0  0
   24.4319  -20.6726   -7.0845 O   0  0  0  0  0  0  0  0  0  0  0  0
  1  2  1  0
  2  3  2  0
  4  2  1  0
  4  5  1  0
  5  6  1  6
  7  5  1  0
  7 11  1  0
  8  7  2  0
 10  9  1  6
 10 11  1  0
 10 12  1  0
 12 19  1  0
 13 12  2  0
 15 16  1  0
 15 14  1  0
 16 18  1  0
 16 17  1  1
 18 20  1  0
 18 19  1  6
 20 22  1  0
 21 20  2  0
M  END
$$$$
