NAI.pdb
     RDKit          3D

 22 21  0  0  1  0  0  0  0  0999 V2000
   29.0482  -22.4818  -15.9040 N   0  0  0  0  0  0  0  0  0  0  0  0
   27.8388  -22.3929  -15.1294 C   0  0  0  0  0  0  0  0  0  0  0  0
   26.8203  -22.9277  -15.5863 O   0  0  0  0  0  0  0  0  0  0  0  0
   27.8173  -21.6843  -13.8468 C   0  0  0  0  0  0  0  0  0  0  0  0
   26.6196  -20.8194  -13.7166 C   0  0  2  0  0  0  0  0  0  0  0  0
   26.6379  -19.7857  -14.7042 N   0  0  0  0  0  0  0  0  0  0  0  0
   26.4214  -20.2509  -12.3613 C   0  0  0  0  0  0  0  0  0  0  0  0
   27.1888  -19.3262  -11.9656 O   0  0  0  0  0  0  0  0  0  0  0  0
   23.6726  -20.2244   -9.7810 C   0  0  0  0  0  0  0  0  0  0  0  0
   25.1280  -20.2088  -10.1724 C   0  0  2  0  0  0  0  0  0  0  0  0
   25.4023  -20.6848  -11.4923 N   0  0  0  0  0  0  0  0  0  0  0  0
   26.0173  -20.7523   -9.1206 C   0  0  0  0  0  0  0  0  0  0  0  0
   26.3805  -21.9383   -9.0153 O   0  0  0  0  0  0  0  0  0  0  0  0
   30.2737  -19.4553   -4.7341 C   0  0  0  0  0  0  0  0  0  0  0  0
   29.1440  -20.2595   -5.3157 C   0  0  0  0  0  0  0  0  0  0  0  0
   28.3784  -19.6019   -6.4119 C   0  0  2  0  0  0  0  0  0  0  0  0
   27.8192  -18.2823   -5.7915 C   0  0  0  0  0  0  0  0  0  0  0  0
   27.2848  -20.3396   -7.0327 C   0  0  2  0  0  0  0  0  0  0  0  0
   26.5349  -19.8237   -8.1146 N   0  0  0  0  0  0  0  0  0  0  0  0
   26.3366  -20.8907   -5.9498 C   0  0  0  0  0  0  0  0  0  0  0  0
   26.6989  -21.6775   -5.0761 O   0  0  0  0  0  0  0  0  0  0  0  0
   24.9953  -20.4658   -5.9540 O   0  0  0  0  0  0  0  0  0  0  0  0
  1  2  1  0
  2  3  2  0
  4  2  1  0
  4  5  1  0
  5  6  1  6
  7  5  1  0
  7 11  1  0
  8  7  2  0
 10  9  1  1
 10 11  1  0
 10 12  1  0
 12 19  1  0
 13 12  2  0
 15 16  1  0
 15 14  1  0
 16 18  1  0
 16 17  1  1
 18 20  1  0
 18 19  1  6
 20 22  1  0
 21 20  2  0
M  END
$$$$
