NAI.pdb
     RDKit          3D

 22 21  0  0  1  0  0  0  0  0999 V2000
   13.6127  -13.1675  -15.5216 N   0  0  0  0  0  0  0  0  0  0  0  0
   14.3354  -12.7067  -14.3659 C   0  0  0  0  0  0  0  0  0  0  0  0
   13.8397  -12.9207  -13.2521 O   0  0  0  0  0  0  0  0  0  0  0  0
   15.6117  -12.0007  -14.5089 C   0  0  0  0  0  0  0  0  0  0  0  0
   15.9605  -11.7787  -15.9332 C   0  0  2  0  0  0  0  0  0  0  0  0
   16.2992  -13.0157  -16.5650 N   0  0  0  0  0  0  0  0  0  0  0  0
   17.0224  -10.7666  -16.1512 C   0  0  0  0  0  0  0  0  0  0  0  0
   18.2324  -11.1358  -16.1439 O   0  0  0  0  0  0  0  0  0  0  0  0
   17.0900   -7.0509  -17.0660 C   0  0  0  0  0  0  0  0  0  0  0  0
   17.6884   -8.3547  -16.6037 C   0  0  2  0  0  0  0  0  0  0  0  0
   16.7451   -9.4059  -16.3823 N   0  0  0  0  0  0  0  0  0  0  0  0
   18.6896   -8.1837  -15.5262 C   0  0  0  0  0  0  0  0  0  0  0  0
   18.4608   -8.2404  -14.3039 O   0  0  0  0  0  0  0  0  0  0  0  0
   23.2353  -10.9759  -14.8311 C   0  0  0  0  0  0  0  0  0  0  0  0
   22.0005  -10.1252  -14.9438 C   0  0  0  0  0  0  0  0  0  0  0  0
   22.2066   -8.6592  -14.7750 C   0  0  2  0  0  0  0  0  0  0  0  0
   22.8258   -8.4901  -13.3514 C   0  0  0  0  0  0  0  0  0  0  0  0
   21.0523   -7.7779  -14.9024 C   0  0  2  0  0  0  0  0  0  0  0  0
   20.0790   -7.9382  -15.9154 N   0  0  0  0  0  0  0  0  0  0  0  0
   21.5009   -6.3050  -14.8313 C   0  0  0  0  0  0  0  0  0  0  0  0
   22.1546   -5.8458  -13.8956 O   0  0  0  0  0  0  0  0  0  0  0  0
   21.1555   -5.4472  -15.8916 O   0  0  0  0  0  0  0  0  0  0  0  0
  1  2  1  0
  2  3  2  0
  4  2  1  0
  4  5  1  0
  5  6  1  1
  7  5  1  0
  7 11  1  0
  8  7  2  0
 10  9  1  1
 10 11  1  0
 10 12  1  0
 12 19  1  0
 13 12  2  0
 15 16  1  0
 15 14  1  0
 16 18  1  0
 16 17  1  1
 18 20  1  0
 18 19  1  6
 20 22  1  0
 21 20  2  0
M  END
$$$$
