NAI.pdb
     RDKit          3D

 22 21  0  0  1  0  0  0  0  0999 V2000
   30.7802  -18.1162  -18.6839 N   0  0  0  0  0  0  0  0  0  0  0  0
   29.4769  -17.6107  -19.0249 C   0  0  0  0  0  0  0  0  0  0  0  0
   29.2118  -17.4611  -20.2247 O   0  0  0  0  0  0  0  0  0  0  0  0
   28.5026  -17.2779  -17.9820 C   0  0  0  0  0  0  0  0  0  0  0  0
   27.4508  -18.3165  -17.8607 C   0  0  2  0  0  0  0  0  0  0  0  0
   26.6170  -18.3236  -19.0221 N   0  0  0  0  0  0  0  0  0  0  0  0
   26.6352  -18.2182  -16.6260 C   0  0  0  0  0  0  0  0  0  0  0  0
   27.2201  -18.1997  -15.5043 O   0  0  0  0  0  0  0  0  0  0  0  0
   22.9744  -17.5109  -15.8305 C   0  0  0  0  0  0  0  0  0  0  0  0
   24.3543  -18.0303  -15.5179 C   0  0  2  0  0  0  0  0  0  0  0  0
   25.2304  -18.1292  -16.6434 N   0  0  0  0  0  0  0  0  0  0  0  0
   24.3403  -19.2206  -14.6373 C   0  0  0  0  0  0  0  0  0  0  0  0
   24.1074  -20.3894  -14.9965 O   0  0  0  0  0  0  0  0  0  0  0  0
   27.5960  -20.9030  -12.0220 C   0  0  0  0  0  0  0  0  0  0  0  0
   26.8067  -19.9623  -11.1541 C   0  0  0  0  0  0  0  0  0  0  0  0
   25.3374  -20.2057  -11.1048 C   0  0  2  0  0  0  0  0  0  0  0  0
   25.1748  -21.6279  -10.4807 C   0  0  0  0  0  0  0  0  0  0  0  0
   24.5820  -20.1405  -12.3501 C   0  0  2  0  0  0  0  0  0  0  0  0
   24.6372  -19.0253  -13.2175 N   0  0  0  0  0  0  0  0  0  0  0  0
   23.1149  -20.5416  -12.1004 C   0  0  0  0  0  0  0  0  0  0  0  0
   22.2287  -19.7262  -11.8486 O   0  0  0  0  0  0  0  0  0  0  0  0
   22.7706  -21.9037  -12.1742 O   0  0  0  0  0  0  0  0  0  0  0  0
  1  2  1  0
  2  3  2  0
  4  2  1  0
  4  5  1  0
  5  6  1  6
  7  5  1  0
  7 11  1  0
  8  7  2  0
 10  9  1  6
 10 11  1  0
 10 12  1  0
 12 19  1  0
 13 12  2  0
 15 16  1  0
 15 14  1  0
 16 18  1  0
 16 17  1  6
 18 20  1  0
 18 19  1  1
 20 22  1  0
 21 20  2  0
M  END
$$$$
