NAI.pdb
     RDKit          3D

 22 21  0  0  1  0  0  0  0  0999 V2000
   17.1703  -16.0258  -17.2369 N   0  0  0  0  0  0  0  0  0  0  0  0
   16.4331  -14.8462  -17.6048 C   0  0  0  0  0  0  0  0  0  0  0  0
   15.1975  -14.8983  -17.5528 O   0  0  0  0  0  0  0  0  0  0  0  0
   17.1269  -13.6288  -18.0340 C   0  0  0  0  0  0  0  0  0  0  0  0
   16.7661  -12.4638  -17.1900 C   0  0  2  0  0  0  0  0  0  0  0  0
   15.4573  -11.9922  -17.5196 N   0  0  0  0  0  0  0  0  0  0  0  0
   17.7509  -11.3556  -17.2257 C   0  0  0  0  0  0  0  0  0  0  0  0
   18.9691  -11.6098  -16.9976 O   0  0  0  0  0  0  0  0  0  0  0  0
   17.6344   -7.6471  -18.1644 C   0  0  0  0  0  0  0  0  0  0  0  0
   18.2614   -8.8912  -17.5895 C   0  0  2  0  0  0  0  0  0  0  0  0
   17.3941  -10.0255  -17.5179 N   0  0  0  0  0  0  0  0  0  0  0  0
   19.0440   -8.6313  -16.3597 C   0  0  0  0  0  0  0  0  0  0  0  0
   18.5966   -8.6327  -15.1980 O   0  0  0  0  0  0  0  0  0  0  0  0
   23.4750  -11.2427  -14.7792 C   0  0  0  0  0  0  0  0  0  0  0  0
   22.2503  -10.4407  -15.1228 C   0  0  0  0  0  0  0  0  0  0  0  0
   22.3790   -8.9642  -14.9687 C   0  0  2  0  0  0  0  0  0  0  0  0
   22.7137   -8.7337  -13.4608 C   0  0  0  0  0  0  0  0  0  0  0  0
   21.2446   -8.1271  -15.3403 C   0  0  2  0  0  0  0  0  0  0  0  0
   20.4749   -8.3592  -16.5034 N   0  0  0  0  0  0  0  0  0  0  0  0
   21.6354   -6.6386  -15.2555 C   0  0  0  0  0  0  0  0  0  0  0  0
   21.8886   -6.0694  -14.1946 O   0  0  0  0  0  0  0  0  0  0  0  0
   21.7167   -5.8979  -16.4490 O   0  0  0  0  0  0  0  0  0  0  0  0
  1  2  1  0
  2  3  2  0
  4  2  1  0
  4  5  1  0
  5  6  1  6
  7  5  1  0
  7 11  1  0
  8  7  2  0
 10  9  1  1
 10 11  1  0
 10 12  1  0
 12 19  1  0
 13 12  2  0
 15 16  1  0
 15 14  1  0
 16 18  1  0
 16 17  1  1
 18 20  1  0
 18 19  1  6
 20 22  1  0
 21 20  2  0
M  END
$$$$
