NAI.pdb
     RDKit          3D

 22 21  0  0  1  0  0  0  0  0999 V2000
   18.6971  -13.3027  -22.4572 N   0  0  0  0  0  0  0  0  0  0  0  0
   18.0317  -12.9528  -21.2303 C   0  0  0  0  0  0  0  0  0  0  0  0
   16.8540  -13.3074  -21.0911 O   0  0  0  0  0  0  0  0  0  0  0  0
   18.7276  -12.1946  -20.1869 C   0  0  0  0  0  0  0  0  0  0  0  0
   20.1032  -11.8255  -20.6005 C   0  0  2  0  0  0  0  0  0  0  0  0
   20.9270  -12.9900  -20.6976 N   0  0  0  0  0  0  0  0  0  0  0  0
   20.7426  -10.7966  -19.7449 C   0  0  0  0  0  0  0  0  0  0  0  0
   21.4214  -11.1668  -18.7436 O   0  0  0  0  0  0  0  0  0  0  0  0
   21.0390   -6.9781  -19.8368 C   0  0  0  0  0  0  0  0  0  0  0  0
   21.1677   -8.3458  -19.2168 C   0  0  2  0  0  0  0  0  0  0  0  0
   20.6413   -9.4166  -20.0044 N   0  0  0  0  0  0  0  0  0  0  0  0
   20.7742   -8.3750  -17.7896 C   0  0  0  0  0  0  0  0  0  0  0  0
   19.6548   -8.6955  -17.3493 O   0  0  0  0  0  0  0  0  0  0  0  0
   23.4506  -10.9219  -13.8052 C   0  0  0  0  0  0  0  0  0  0  0  0
   22.5633  -10.2205  -14.7962 C   0  0  0  0  0  0  0  0  0  0  0  0
   22.1734   -8.8264  -14.4427 C   0  0  2  0  0  0  0  0  0  0  0  0
   21.3218   -8.9532  -13.1398 C   0  0  0  0  0  0  0  0  0  0  0  0
   21.4320   -8.0441  -15.4245 C   0  0  2  0  0  0  0  0  0  0  0  0
   21.7827   -8.0099  -16.7938 N   0  0  0  0  0  0  0  0  0  0  0  0
   21.2110   -6.6112  -14.9013 C   0  0  0  0  0  0  0  0  0  0  0  0
   20.5634   -6.3587  -13.8862 O   0  0  0  0  0  0  0  0  0  0  0  0
   21.7857   -5.5419  -15.6125 O   0  0  0  0  0  0  0  0  0  0  0  0
  1  2  1  0
  2  3  2  0
  4  2  1  0
  4  5  1  0
  5  6  1  1
  7  5  1  0
  7 11  1  0
  8  7  2  0
 10  9  1  6
 10 11  1  0
 10 12  1  0
 12 19  1  0
 13 12  2  0
 15 16  1  0
 15 14  1  0
 16 18  1  0
 16 17  1  1
 18 20  1  0
 18 19  1  6
 20 22  1  0
 21 20  2  0
M  END
$$$$
