NAI.pdb
     RDKit          3D

 22 21  0  0  1  0  0  0  0  0999 V2000
   14.8150  -15.2703  -16.5625 N   0  0  0  0  0  0  0  0  0  0  0  0
   15.0696  -14.3076  -15.5240 C   0  0  0  0  0  0  0  0  0  0  0  0
   14.2729  -14.2549  -14.5781 O   0  0  0  0  0  0  0  0  0  0  0  0
   16.2306  -13.4160  -15.5929 C   0  0  0  0  0  0  0  0  0  0  0  0
   16.9706  -13.5746  -16.8683 C   0  0  2  0  0  0  0  0  0  0  0  0
   17.5450  -14.8810  -16.9555 N   0  0  0  0  0  0  0  0  0  0  0  0
   17.9946  -12.5304  -17.1141 C   0  0  0  0  0  0  0  0  0  0  0  0
   19.2132  -12.8078  -16.9178 O   0  0  0  0  0  0  0  0  0  0  0  0
   18.0221   -9.0308  -18.6391 C   0  0  0  0  0  0  0  0  0  0  0  0
   18.5723  -10.1481  -17.7902 C   0  0  2  0  0  0  0  0  0  0  0  0
   17.6737  -11.2388  -17.5732 N   0  0  0  0  0  0  0  0  0  0  0  0
   19.2656   -9.6653  -16.5742 C   0  0  0  0  0  0  0  0  0  0  0  0
   18.7873   -9.6391  -15.4252 O   0  0  0  0  0  0  0  0  0  0  0  0
   22.3664  -11.2847  -13.9492 C   0  0  0  0  0  0  0  0  0  0  0  0
   22.9618  -10.5697  -15.1305 C   0  0  0  0  0  0  0  0  0  0  0  0
   22.6673   -9.1118  -15.2206 C   0  0  2  0  0  0  0  0  0  0  0  0
   23.0346   -8.5286  -13.8193 C   0  0  0  0  0  0  0  0  0  0  0  0
   21.3137   -8.6986  -15.5709 C   0  0  2  0  0  0  0  0  0  0  0  0
   20.6407   -9.1845  -16.7155 N   0  0  0  0  0  0  0  0  0  0  0  0
   21.1949   -7.1634  -15.5020 C   0  0  0  0  0  0  0  0  0  0  0  0
   21.1830   -6.4446  -16.5004 O   0  0  0  0  0  0  0  0  0  0  0  0
   21.0841   -6.5558  -14.2378 O   0  0  0  0  0  0  0  0  0  0  0  0
  1  2  1  0
  2  3  2  0
  4  2  1  0
  4  5  1  0
  5  6  1  1
  7  5  1  0
  7 11  1  0
  8  7  2  0
 10  9  1  1
 10 11  1  0
 10 12  1  0
 12 19  1  0
 13 12  2  0
 15 16  1  0
 15 14  1  0
 16 18  1  0
 16 17  1  1
 18 20  1  0
 18 19  1  6
 20 22  1  0
 21 20  2  0
M  END
$$$$
