NAI.pdb
     RDKit          3D

 22 21  0  0  1  0  0  0  0  0999 V2000
   25.9584  -20.0565  -16.8764 N   0  0  0  0  0  0  0  0  0  0  0  0
   25.4207  -18.7514  -16.5972 C   0  0  0  0  0  0  0  0  0  0  0  0
   24.8824  -18.1379  -17.5278 O   0  0  0  0  0  0  0  0  0  0  0  0
   25.5173  -18.1692  -15.2558 C   0  0  0  0  0  0  0  0  0  0  0  0
   26.2467  -19.0602  -14.3211 C   0  0  2  0  0  0  0  0  0  0  0  0
   26.2354  -20.4071  -14.8007 N   0  0  0  0  0  0  0  0  0  0  0  0
   25.7696  -18.9956  -12.9184 C   0  0  0  0  0  0  0  0  0  0  0  0
   25.8237  -17.8920  -12.3022 O   0  0  0  0  0  0  0  0  0  0  0  0
   23.3432  -20.7881  -10.8005 C   0  0  0  0  0  0  0  0  0  0  0  0
   24.6996  -20.1412  -10.9162 C   0  0  2  0  0  0  0  0  0  0  0  0
   25.2416  -20.1097  -12.2388 N   0  0  0  0  0  0  0  0  0  0  0  0
   25.6466  -20.5881   -9.8693 C   0  0  0  0  0  0  0  0  0  0  0  0
   26.5511  -21.4304  -10.0171 O   0  0  0  0  0  0  0  0  0  0  0  0
   28.5511  -17.8340   -6.0329 C   0  0  0  0  0  0  0  0  0  0  0  0
   28.0593  -18.8704   -7.0052 C   0  0  0  0  0  0  0  0  0  0  0  0
   26.9927  -19.7791   -6.4985 C   0  0  2  0  0  0  0  0  0  0  0  0
   27.7094  -20.7397   -5.4972 C   0  0  0  0  0  0  0  0  0  0  0  0
   26.2396  -20.5701   -7.4643 C   0  0  2  0  0  0  0  0  0  0  0  0
   25.5310  -19.9869   -8.5399 N   0  0  0  0  0  0  0  0  0  0  0  0
   25.3416  -21.5856   -6.7308 C   0  0  0  0  0  0  0  0  0  0  0  0
   24.1157  -21.4911   -6.6883 O   0  0  0  0  0  0  0  0  0  0  0  0
   25.9518  -22.6784   -6.0882 O   0  0  0  0  0  0  0  0  0  0  0  0
  1  2  1  0
  2  3  2  0
  4  2  1  0
  4  5  1  0
  5  6  1  6
  7  5  1  0
  7 11  1  0
  8  7  2  0
 10  9  1  6
 10 11  1  0
 10 12  1  0
 12 19  1  0
 13 12  2  0
 15 16  1  0
 15 14  1  0
 16 18  1  0
 16 17  1  1
 18 20  1  0
 18 19  1  1
 20 22  1  0
 21 20  2  0
M  END
$$$$
