QTP.pdb
     RDKit          3D

 24 24  0  0  1  0  0  0  0  0999 V2000
   15.1609  -14.0852   18.5833 N   0  0  0  0  0  0  0  0  0  0  0  0
   14.5519  -14.9331   19.5608 C   0  0  0  0  0  0  0  0  0  0  0  0
   14.9964  -16.0644   19.8580 O   0  0  0  0  0  0  0  0  0  0  0  0
   13.3397  -14.4171   20.2348 C   0  0  0  0  0  0  0  0  0  0  0  0
   12.1834  -14.2495   19.2819 C   0  0  0  0  0  0  0  0  0  0  0  0
   11.0928  -15.2202   19.6587 C   0  0  2  0  0  0  0  0  0  0  0  0
   10.5734  -15.7625   18.3995 N   0  0  0  0  0  0  0  0  0  0  0  0
   10.0037  -14.5932   20.4478 C   0  0  0  0  0  0  0  0  0  0  0  0
    9.1153  -13.9060   19.8680 O   0  0  0  0  0  0  0  0  0  0  0  0
    7.2672  -14.7477   20.6706 C   0  0  0  0  0  0  0  0  0  0  0  0
    7.4994  -14.9817   22.1313 C   0  0  1  0  0  0  0  0  0  0  0  0
    7.7455  -16.3714   22.2572 O   0  0  0  0  0  0  0  0  0  0  0  0
    8.7175  -14.2374   22.6087 C   0  0  2  0  0  0  0  0  0  0  0  0
    9.8835  -14.7121   21.8453 N   0  0  0  0  0  0  0  0  0  0  0  0
    8.9417  -14.4866   24.0340 C   0  0  0  0  0  0  0  0  0  0  0  0
   10.0397  -15.1269   24.3000 O   0  0  0  0  0  0  0  0  0  0  0  0
    8.1510  -14.1305   25.1301 N   0  0  0  0  0  0  0  0  0  0  0  0
    6.8102  -13.6226   25.1306 C   0  0  0  0  0  0  0  0  0  0  0  0
    6.9536  -12.4392   26.1007 C   0  0  0  0  0  0  0  0  0  0  0  0
    8.1341  -12.7812   26.9874 C   0  0  0  0  0  0  0  0  0  0  0  0
    8.5750  -14.1482   26.5093 C   0  0  1  0  0  0  0  0  0  0  0  0
    7.8481  -15.1688   27.3215 C   0  0  0  0  0  0  0  0  0  0  0  0
    8.3002  -15.4583   28.5974 O   0  0  0  0  0  0  0  0  0  0  0  0
    6.8336  -15.7924   26.9118 O   0  0  0  0  0  0  0  0  0  0  0  0
  2  3  2  0
  2  1  1  0
  4  2  1  0
  5  4  1  0
  6  8  1  0
  6  5  1  0
  6  7  1  6
  8 14  1  0
  8  9  2  0
 11 10  1  6
 11 12  1  0
 13 11  1  0
 13 14  1  6
 15 17  1  0
 15 13  1  0
 16 15  2  0
 17 21  1  0
 18 17  1  0
 18 19  1  0
 19 20  1  0
 21 20  1  0
 22 23  1  0
 21 22  1  1
 24 22  2  0
M  END
$$$$
