QTP.pdb
     RDKit          3D

 24 24  0  0  1  0  0  0  0  0999 V2000
    8.1871  -13.0564   16.2733 N   0  0  0  0  0  0  0  0  0  0  0  0
    8.9676  -14.0407   16.9567 C   0  0  0  0  0  0  0  0  0  0  0  0
   10.1992  -14.1787   16.7838 O   0  0  0  0  0  0  0  0  0  0  0  0
    8.2535  -14.9216   17.9077 C   0  0  0  0  0  0  0  0  0  0  0  0
    7.8494  -14.1959   19.1659 C   0  0  0  0  0  0  0  0  0  0  0  0
    8.7293  -14.6554   20.3011 C   0  0  2  0  0  0  0  0  0  0  0  0
    9.0906  -16.0448   20.0033 N   0  0  0  0  0  0  0  0  0  0  0  0
    8.0673  -14.5585   21.6255 C   0  0  0  0  0  0  0  0  0  0  0  0
    7.5347  -13.4718   21.9903 O   0  0  0  0  0  0  0  0  0  0  0  0
    5.6878  -17.1873   23.3537 C   0  0  0  0  0  0  0  0  0  0  0  0
    6.8115  -16.8269   24.2757 C   0  0  1  0  0  0  0  0  0  0  0  0
    7.7873  -17.8384   24.0959 O   0  0  0  0  0  0  0  0  0  0  0  0
    7.4199  -15.5048   23.8918 C   0  0  2  0  0  0  0  0  0  0  0  0
    7.9863  -15.6271   22.5383 N   0  0  0  0  0  0  0  0  0  0  0  0
    8.4854  -15.1423   24.8282 C   0  0  0  0  0  0  0  0  0  0  0  0
    9.6858  -15.3722   24.3895 O   0  0  0  0  0  0  0  0  0  0  0  0
    8.3889  -14.5865   26.1071 N   0  0  0  0  0  0  0  0  0  0  0  0
    7.2050  -14.2814   26.8560 C   0  0  0  0  0  0  0  0  0  0  0  0
    7.5286  -12.8570   27.3337 C   0  0  0  0  0  0  0  0  0  0  0  0
    9.0413  -12.7650   27.3427 C   0  0  0  0  0  0  0  0  0  0  0  0
    9.5004  -14.1419   26.9128 C   0  0  1  0  0  0  0  0  0  0  0  0
    9.6826  -14.9647   28.1455 C   0  0  0  0  0  0  0  0  0  0  0  0
    8.8155  -16.0169   28.3850 O   0  0  0  0  0  0  0  0  0  0  0  0
   10.5898  -14.7580   28.9940 O   0  0  0  0  0  0  0  0  0  0  0  0
  2  3  2  0
  2  1  1  0
  4  2  1  0
  5  4  1  0
  6  8  1  0
  6  5  1  0
  6  7  1  6
  8 14  1  0
  8  9  2  0
 11 10  1  6
 11 12  1  0
 13 11  1  0
 13 14  1  6
 15 17  1  0
 15 13  1  0
 16 15  2  0
 17 21  1  0
 18 17  1  0
 18 19  1  0
 19 20  1  0
 21 20  1  0
 22 23  1  0
 21 22  1  1
 24 22  2  0
M  END
$$$$
