QTP.pdb
     RDKit          3D

 24 24  0  0  1  0  0  0  0  0999 V2000
    7.7763  -12.7447   17.3900 N   0  0  0  0  0  0  0  0  0  0  0  0
    8.4201  -13.9582   16.9924 C   0  0  0  0  0  0  0  0  0  0  0  0
    8.8067  -14.1766   15.8226 O   0  0  0  0  0  0  0  0  0  0  0  0
    8.6241  -14.9838   18.0397 C   0  0  0  0  0  0  0  0  0  0  0  0
    8.0813  -14.5500   19.3778 C   0  0  0  0  0  0  0  0  0  0  0  0
    9.0771  -14.9106   20.4511 C   0  0  2  0  0  0  0  0  0  0  0  0
    9.4691  -16.3004   20.1967 N   0  0  0  0  0  0  0  0  0  0  0  0
    8.5319  -14.7630   21.8232 C   0  0  0  0  0  0  0  0  0  0  0  0
    7.9642  -13.6875   22.1676 O   0  0  0  0  0  0  0  0  0  0  0  0
    6.0949  -17.0528   23.6440 C   0  0  0  0  0  0  0  0  0  0  0  0
    7.3072  -16.8911   24.5080 C   0  0  1  0  0  0  0  0  0  0  0  0
    8.1383  -17.9977   24.2042 O   0  0  0  0  0  0  0  0  0  0  0  0
    8.0503  -15.6286   24.1619 C   0  0  2  0  0  0  0  0  0  0  0  0
    8.6032  -15.7696   22.8047 N   0  0  0  0  0  0  0  0  0  0  0  0
    9.1460  -15.4060   25.1071 C   0  0  0  0  0  0  0  0  0  0  0  0
   10.3209  -15.7153   24.6483 O   0  0  0  0  0  0  0  0  0  0  0  0
    9.1017  -14.9091   26.4128 N   0  0  0  0  0  0  0  0  0  0  0  0
    7.9499  -14.5590   27.1914 C   0  0  0  0  0  0  0  0  0  0  0  0
    8.3785  -13.1864   27.7338 C   0  0  0  0  0  0  0  0  0  0  0  0
    9.8939  -13.2018   27.7273 C   0  0  0  0  0  0  0  0  0  0  0  0
   10.2499  -14.5846   27.2245 C   0  0  1  0  0  0  0  0  0  0  0  0
   10.3851  -15.4784   28.4129 C   0  0  0  0  0  0  0  0  0  0  0  0
    9.4772  -16.5091   28.5851 O   0  0  0  0  0  0  0  0  0  0  0  0
   11.2876  -15.3512   29.2818 O   0  0  0  0  0  0  0  0  0  0  0  0
  2  3  2  0
  2  1  1  0
  4  2  1  0
  5  4  1  0
  6  8  1  0
  6  5  1  0
  6  7  1  6
  8 14  1  0
  8  9  2  0
 11 10  1  6
 11 12  1  0
 13 11  1  0
 13 14  1  6
 15 17  1  0
 15 13  1  0
 16 15  2  0
 17 21  1  0
 18 17  1  0
 18 19  1  0
 19 20  1  0
 21 20  1  0
 22 23  1  0
 21 22  1  1
 24 22  2  0
M  END
$$$$
