QTP.pdb
     RDKit          3D

 24 24  0  0  1  0  0  0  0  0999 V2000
   13.3992  -18.7768   24.3704 N   0  0  0  0  0  0  0  0  0  0  0  0
   13.3422  -19.3263   23.0514 C   0  0  0  0  0  0  0  0  0  0  0  0
   13.3480  -20.5563   22.8214 O   0  0  0  0  0  0  0  0  0  0  0  0
   13.2729  -18.3665   21.9271 C   0  0  0  0  0  0  0  0  0  0  0  0
   12.6254  -17.0647   22.3259 C   0  0  0  0  0  0  0  0  0  0  0  0
   11.2709  -16.9696   21.6701 C   0  0  2  0  0  0  0  0  0  0  0  0
   11.5170  -16.9258   20.2254 N   0  0  0  0  0  0  0  0  0  0  0  0
   10.4962  -15.7814   22.1058 C   0  0  0  0  0  0  0  0  0  0  0  0
   11.0670  -14.6594   22.2203 O   0  0  0  0  0  0  0  0  0  0  0  0
    6.7281  -14.6831   21.0901 C   0  0  0  0  0  0  0  0  0  0  0  0
    6.9244  -14.8228   22.5681 C   0  0  1  0  0  0  0  0  0  0  0  0
    6.5302  -16.1480   22.8782 O   0  0  0  0  0  0  0  0  0  0  0  0
    8.3747  -14.6591   22.9363 C   0  0  2  0  0  0  0  0  0  0  0  0
    9.1226  -15.8137   22.4120 N   0  0  0  0  0  0  0  0  0  0  0  0
    8.5288  -14.6064   24.3913 C   0  0  0  0  0  0  0  0  0  0  0  0
    9.5581  -15.2554   24.8452 O   0  0  0  0  0  0  0  0  0  0  0  0
    7.7356  -13.9591   25.3428 N   0  0  0  0  0  0  0  0  0  0  0  0
    6.5940  -13.1196   25.1248 C   0  0  0  0  0  0  0  0  0  0  0  0
    6.9327  -11.9335   26.0415 C   0  0  0  0  0  0  0  0  0  0  0  0
    7.8570  -12.4923   27.1047 C   0  0  0  0  0  0  0  0  0  0  0  0
    7.9652  -13.9641   26.7675 C   0  0  1  0  0  0  0  0  0  0  0  0
    6.8937  -14.6818   27.5202 C   0  0  0  0  0  0  0  0  0  0  0  0
    5.7924  -15.1588   26.8303 O   0  0  0  0  0  0  0  0  0  0  0  0
    6.9300  -14.8834   28.7627 O   0  0  0  0  0  0  0  0  0  0  0  0
  2  3  2  0
  2  1  1  0
  4  2  1  0
  5  4  1  0
  6  8  1  0
  6  5  1  0
  6  7  1  6
  8 14  1  0
  8  9  2  0
 11 10  1  6
 11 12  1  0
 13 11  1  0
 13 14  1  1
 15 17  1  0
 15 13  1  0
 16 15  2  0
 17 21  1  0
 18 17  1  0
 18 19  1  0
 19 20  1  0
 21 20  1  0
 22 23  1  0
 21 22  1  1
 24 22  2  0
M  END
$$$$
