QTP.pdb
     RDKit          3D

 24 24  0  0  1  0  0  0  0  0999 V2000
   14.6580  -16.6075   19.4197 N   0  0  0  0  0  0  0  0  0  0  0  0
   14.2363  -15.4555   18.6846 C   0  0  0  0  0  0  0  0  0  0  0  0
   14.3434  -15.3596   17.4417 O   0  0  0  0  0  0  0  0  0  0  0  0
   13.6487  -14.3416   19.4620 C   0  0  0  0  0  0  0  0  0  0  0  0
   12.1451  -14.4247   19.5326 C   0  0  0  0  0  0  0  0  0  0  0  0
   11.7469  -14.9698   20.8810 C   0  0  2  0  0  0  0  0  0  0  0  0
   11.3997  -16.3782   20.6677 N   0  0  0  0  0  0  0  0  0  0  0  0
   10.6104  -14.2369   21.4917 C   0  0  0  0  0  0  0  0  0  0  0  0
   10.6802  -12.9862   21.6613 O   0  0  0  0  0  0  0  0  0  0  0  0
    6.8267  -14.2932   20.6874 C   0  0  0  0  0  0  0  0  0  0  0  0
    7.0191  -14.6546   22.1278 C   0  0  1  0  0  0  0  0  0  0  0  0
    7.0314  -16.0710   22.1639 O   0  0  0  0  0  0  0  0  0  0  0  0
    8.3445  -14.1538   22.6360 C   0  0  2  0  0  0  0  0  0  0  0  0
    9.4173  -14.8550   21.9113 N   0  0  0  0  0  0  0  0  0  0  0  0
    8.4763  -14.4233   24.0691 C   0  0  0  0  0  0  0  0  0  0  0  0
    9.5648  -15.0501   24.3988 O   0  0  0  0  0  0  0  0  0  0  0  0
    7.6074  -14.0984   25.1146 N   0  0  0  0  0  0  0  0  0  0  0  0
    6.3348  -13.4421   25.0406 C   0  0  0  0  0  0  0  0  0  0  0  0
    6.4887  -12.3947   26.1547 C   0  0  0  0  0  0  0  0  0  0  0  0
    7.5194  -12.9643   27.1086 C   0  0  0  0  0  0  0  0  0  0  0  0
    7.8682  -14.3135   26.5174 C   0  0  1  0  0  0  0  0  0  0  0  0
    6.9524  -15.3249   27.1242 C   0  0  0  0  0  0  0  0  0  0  0  0
    5.9504  -15.8770   26.3448 O   0  0  0  0  0  0  0  0  0  0  0  0
    7.0360  -15.7130   28.3192 O   0  0  0  0  0  0  0  0  0  0  0  0
  2  3  2  0
  2  1  1  0
  4  2  1  0
  5  4  1  0
  6  8  1  0
  6  5  1  0
  6  7  1  6
  8 14  1  0
  8  9  2  0
 11 10  1  6
 11 12  1  0
 13 11  1  0
 13 14  1  6
 15 17  1  0
 15 13  1  0
 16 15  2  0
 17 21  1  0
 18 17  1  0
 18 19  1  0
 19 20  1  0
 21 20  1  0
 22 23  1  0
 21 22  1  1
 24 22  2  0
M  END
$$$$
