QTP.pdb
     RDKit          3D

 24 24  0  0  1  0  0  0  0  0999 V2000
   10.4751  -14.3655   18.5610 N   0  0  0  0  0  0  0  0  0  0  0  0
    9.1665  -13.7886   18.5661 C   0  0  0  0  0  0  0  0  0  0  0  0
    8.8295  -12.8493   17.8111 O   0  0  0  0  0  0  0  0  0  0  0  0
    8.1879  -14.3534   19.5219 C   0  0  0  0  0  0  0  0  0  0  0  0
    8.7626  -15.4963   20.3198 C   0  0  0  0  0  0  0  0  0  0  0  0
    7.7210  -15.9873   21.2933 C   0  0  2  0  0  0  0  0  0  0  0  0
    6.4266  -15.8302   20.6228 N   0  0  0  0  0  0  0  0  0  0  0  0
    7.7365  -15.2512   22.5815 C   0  0  0  0  0  0  0  0  0  0  0  0
    6.9511  -14.2780   22.7652 O   0  0  0  0  0  0  0  0  0  0  0  0
    6.0604  -14.6186   24.7385 C   0  0  0  0  0  0  0  0  0  0  0  0
    7.1412  -15.2529   25.5582 C   0  0  1  0  0  0  0  0  0  0  0  0
    6.9167  -16.6489   25.4647 O   0  0  0  0  0  0  0  0  0  0  0  0
    8.4996  -14.9498   24.9851 C   0  0  2  0  0  0  0  0  0  0  0  0
    8.5928  -15.5690   23.6527 N   0  0  0  0  0  0  0  0  0  0  0  0
    9.5501  -15.4981   25.8450 C   0  0  0  0  0  0  0  0  0  0  0  0
   10.4456  -16.1985   25.2172 O   0  0  0  0  0  0  0  0  0  0  0  0
    9.7212  -15.3684   27.2262 N   0  0  0  0  0  0  0  0  0  0  0  0
    8.8241  -14.7872   28.1817 C   0  0  0  0  0  0  0  0  0  0  0  0
    9.7901  -13.8892   28.9706 C   0  0  0  0  0  0  0  0  0  0  0  0
   11.1593  -14.5159   28.7995 C   0  0  0  0  0  0  0  0  0  0  0  0
   10.9014  -15.7510   27.9632 C   0  0  1  0  0  0  0  0  0  0  0  0
   10.6520  -16.8880   28.8984 C   0  0  0  0  0  0  0  0  0  0  0  0
   11.7155  -17.4214   29.6061 O   0  0  0  0  0  0  0  0  0  0  0  0
    9.5170  -17.3999   29.0866 O   0  0  0  0  0  0  0  0  0  0  0  0
  2  3  2  0
  2  1  1  0
  4  2  1  0
  5  4  1  0
  6  8  1  0
  6  5  1  0
  6  7  1  6
  8 14  1  0
  8  9  2  0
 11 10  1  6
 11 12  1  0
 13 11  1  0
 13 14  1  6
 15 17  1  0
 15 13  1  0
 16 15  2  0
 17 21  1  0
 18 17  1  0
 18 19  1  0
 19 20  1  0
 21 20  1  0
 22 23  1  0
 21 22  1  1
 24 22  2  0
M  END
$$$$
