QTP.pdb
     RDKit          3D

 24 24  0  0  1  0  0  0  0  0999 V2000
   12.1088  -19.7293   20.4289 N   0  0  0  0  0  0  0  0  0  0  0  0
   12.3162  -18.3538   20.7605 C   0  0  0  0  0  0  0  0  0  0  0  0
   12.6791  -17.9702   21.8949 O   0  0  0  0  0  0  0  0  0  0  0  0
   12.0820  -17.3622   19.6871 C   0  0  0  0  0  0  0  0  0  0  0  0
   11.2921  -16.1725   20.1705 C   0  0  0  0  0  0  0  0  0  0  0  0
    9.8206  -16.4739   20.0372 C   0  0  2  0  0  0  0  0  0  0  0  0
    9.5347  -16.4943   18.5994 N   0  0  0  0  0  0  0  0  0  0  0  0
    8.9593  -15.4830   20.7286 C   0  0  0  0  0  0  0  0  0  0  0  0
    8.0306  -14.9013   20.0988 O   0  0  0  0  0  0  0  0  0  0  0  0
    6.3881  -15.6700   21.3765 C   0  0  0  0  0  0  0  0  0  0  0  0
    6.8371  -15.5494   22.7999 C   0  0  1  0  0  0  0  0  0  0  0  0
    7.2628  -16.8482   23.1735 O   0  0  0  0  0  0  0  0  0  0  0  0
    8.0092  -14.6122   22.9171 C   0  0  2  0  0  0  0  0  0  0  0  0
    9.1064  -15.1308   22.0836 N   0  0  0  0  0  0  0  0  0  0  0  0
    8.4592  -14.5295   24.3079 C   0  0  0  0  0  0  0  0  0  0  0  0
    9.6773  -14.9356   24.5022 O   0  0  0  0  0  0  0  0  0  0  0  0
    7.7701  -14.0753   25.4359 N   0  0  0  0  0  0  0  0  0  0  0  0
    6.3655  -13.8245   25.5775 C   0  0  0  0  0  0  0  0  0  0  0  0
    6.3888  -12.4435   26.2514 C   0  0  0  0  0  0  0  0  0  0  0  0
    7.7256  -12.3595   26.9605 C   0  0  0  0  0  0  0  0  0  0  0  0
    8.3743  -13.7006   26.6916 C   0  0  1  0  0  0  0  0  0  0  0  0
    7.9978  -14.6184   27.8076 C   0  0  0  0  0  0  0  0  0  0  0  0
    7.1074  -15.6486   27.5587 O   0  0  0  0  0  0  0  0  0  0  0  0
    8.4468  -14.5121   28.9793 O   0  0  0  0  0  0  0  0  0  0  0  0
  2  3  2  0
  2  1  1  0
  4  2  1  0
  5  4  1  0
  6  8  1  0
  6  5  1  0
  6  7  1  6
  8 14  1  0
  8  9  2  0
 11 10  1  6
 11 12  1  0
 13 11  1  0
 13 14  1  6
 15 17  1  0
 15 13  1  0
 16 15  2  0
 17 21  1  0
 18 17  1  0
 18 19  1  0
 19 20  1  0
 21 20  1  0
 22 23  1  0
 21 22  1  1
 24 22  2  0
M  END
$$$$
