QTP.pdb
     RDKit          3D

 24 24  0  0  1  0  0  0  0  0999 V2000
   13.4667  -17.6101   12.8463 N   0  0  0  0  0  0  0  0  0  0  0  0
   14.0059  -17.5969   14.1708 C   0  0  0  0  0  0  0  0  0  0  0  0
   15.2216  -17.4266   14.4133 O   0  0  0  0  0  0  0  0  0  0  0  0
   13.0528  -17.7965   15.2852 C   0  0  0  0  0  0  0  0  0  0  0  0
   12.2248  -16.5661   15.5564 C   0  0  0  0  0  0  0  0  0  0  0  0
   10.7798  -16.8705   15.2516 C   0  0  2  0  0  0  0  0  0  0  0  0
   10.5101  -16.2973   13.9293 N   0  0  0  0  0  0  0  0  0  0  0  0
    9.8438  -16.3191   16.2623 C   0  0  0  0  0  0  0  0  0  0  0  0
    9.5469  -15.0905   16.2481 O   0  0  0  0  0  0  0  0  0  0  0  0
    6.3362  -17.2656   19.6430 C   0  0  0  0  0  0  0  0  0  0  0  0
    7.4590  -17.7373   18.7716 C   0  0  1  0  0  0  0  0  0  0  0  0
    6.8415  -18.4335   17.7031 O   0  0  0  0  0  0  0  0  0  0  0  0
    8.2241  -16.5729   18.2020 C   0  0  2  0  0  0  0  0  0  0  0  0
    9.2407  -17.0922   17.2724 N   0  0  0  0  0  0  0  0  0  0  0  0
    8.8876  -15.8258   19.2723 C   0  0  0  0  0  0  0  0  0  0  0  0
   10.1126  -16.1912   19.5012 O   0  0  0  0  0  0  0  0  0  0  0  0
    8.3927  -14.7862   20.0647 N   0  0  0  0  0  0  0  0  0  0  0  0
    7.0795  -14.2109   20.0565 C   0  0  0  0  0  0  0  0  0  0  0  0
    7.4242  -12.7133   20.0377 C   0  0  0  0  0  0  0  0  0  0  0  0
    8.8045  -12.6061   20.6541 C   0  0  0  0  0  0  0  0  0  0  0  0
    9.1572  -14.0302   21.0270 C   0  0  1  0  0  0  0  0  0  0  0  0
    8.7011  -14.2576   22.4306 C   0  0  0  0  0  0  0  0  0  0  0  0
    7.5864  -15.0472   22.6550 O   0  0  0  0  0  0  0  0  0  0  0  0
    9.2761  -13.7685   23.4385 O   0  0  0  0  0  0  0  0  0  0  0  0
  2  3  2  0
  2  1  1  0
  4  2  1  0
  5  4  1  0
  6  8  1  0
  6  5  1  0
  6  7  1  6
  8 14  1  0
  8  9  2  0
 11 10  1  1
 11 12  1  0
 13 11  1  0
 13 14  1  6
 15 17  1  0
 15 13  1  0
 16 15  2  0
 17 21  1  0
 18 17  1  0
 18 19  1  0
 19 20  1  0
 21 20  1  0
 22 23  1  0
 21 22  1  1
 24 22  2  0
M  END
$$$$
