QTP.pdb
     RDKit          3D

 24 24  0  0  1  0  0  0  0  0999 V2000
   14.3386  -14.6471   17.4223 N   0  0  0  0  0  0  0  0  0  0  0  0
   14.8048  -14.3981   18.7511 C   0  0  0  0  0  0  0  0  0  0  0  0
   15.8603  -13.7742   19.0006 O   0  0  0  0  0  0  0  0  0  0  0  0
   13.9748  -14.9164   19.8614 C   0  0  0  0  0  0  0  0  0  0  0  0
   12.7100  -15.5740   19.3708 C   0  0  0  0  0  0  0  0  0  0  0  0
   12.0173  -16.2351   20.5357 C   0  0  2  0  0  0  0  0  0  0  0  0
   11.1312  -17.2527   19.9622 N   0  0  0  0  0  0  0  0  0  0  0  0
   11.2474  -15.2812   21.3717 C   0  0  0  0  0  0  0  0  0  0  0  0
   11.8410  -14.3370   21.9666 O   0  0  0  0  0  0  0  0  0  0  0  0
    7.5150  -13.9368   20.5730 C   0  0  0  0  0  0  0  0  0  0  0  0
    7.6542  -14.4449   21.9748 C   0  0  1  0  0  0  0  0  0  0  0  0
    7.2145  -15.7913   21.9344 O   0  0  0  0  0  0  0  0  0  0  0  0
    9.0941  -14.4272   22.4132 C   0  0  2  0  0  0  0  0  0  0  0  0
    9.8538  -15.3536   21.5575 N   0  0  0  0  0  0  0  0  0  0  0  0
    9.2080  -14.8575   23.8080 C   0  0  0  0  0  0  0  0  0  0  0  0
   10.0627  -15.8151   24.0054 O   0  0  0  0  0  0  0  0  0  0  0  0
    8.5375  -14.3825   24.9387 N   0  0  0  0  0  0  0  0  0  0  0  0
    7.4879  -13.4080   25.0050 C   0  0  0  0  0  0  0  0  0  0  0  0
    7.9997  -12.5146   26.1459 C   0  0  0  0  0  0  0  0  0  0  0  0
    8.9044  -13.3989   26.9803 C   0  0  0  0  0  0  0  0  0  0  0  0
    8.8315  -14.7506   26.3026 C   0  0  1  0  0  0  0  0  0  0  0  0
    7.7230  -15.5196   26.9426 C   0  0  0  0  0  0  0  0  0  0  0  0
    7.9144  -16.0467   28.2082 O   0  0  0  0  0  0  0  0  0  0  0  0
    6.6075  -15.7216   26.3943 O   0  0  0  0  0  0  0  0  0  0  0  0
  2  3  2  0
  2  1  1  0
  4  2  1  0
  5  4  1  0
  6  8  1  0
  6  5  1  0
  6  7  1  6
  8 14  1  0
  8  9  2  0
 11 10  1  6
 11 12  1  0
 13 11  1  0
 13 14  1  6
 15 17  1  0
 15 13  1  0
 16 15  2  0
 17 21  1  0
 18 17  1  0
 18 19  1  0
 19 20  1  0
 21 20  1  0
 22 23  1  0
 21 22  1  1
 24 22  2  0
M  END
$$$$
