TIY.pdb
     RDKit          3D

 28 28  0  0  1  0  0  0  0  0999 V2000
   10.8481  -20.0204   18.3307 C   0  0  0  0  0  0  0  0  0  0  0  0
   10.7450  -18.8992   19.3406 C   0  0  1  0  0  0  0  0  0  0  0  0
   11.6549  -19.0687   20.3528 O   0  0  0  0  0  0  0  0  0  0  0  0
   10.8393  -17.5570   18.6422 C   0  0  2  0  0  0  0  0  0  0  0  0
   12.1234  -17.5535   17.9540 N   0  0  0  0  0  0  0  0  0  0  0  0
   10.7232  -16.4219   19.5795 C   0  0  0  0  0  0  0  0  0  0  0  0
   11.7433  -15.8554   20.0982 O   0  0  0  0  0  0  0  0  0  0  0  0
    6.5445  -12.6780   19.2200 C   0  0  0  0  0  0  0  0  0  0  0  0
    7.8528  -13.3204   19.5273 C   0  0  0  0  0  0  0  0  0  0  0  0
    7.8946  -14.2154   20.7088 C   0  0  2  0  0  0  0  0  0  0  0  0
    7.4815  -13.3948   21.9271 C   0  0  0  0  0  0  0  0  0  0  0  0
    9.1692  -14.9550   20.9408 C   0  0  2  0  0  0  0  0  0  0  0  0
    9.4327  -15.9444   19.9141 N   0  0  0  0  0  0  0  0  0  0  0  0
    9.3074  -15.5074   22.2990 C   0  0  0  0  0  0  0  0  0  0  0  0
    8.7895  -16.6121   22.5681 O   0  0  0  0  0  0  0  0  0  0  0  0
   10.9754  -16.0898   30.9816 O   0  0  0  0  0  0  0  0  0  0  0  0
   10.7767  -15.6499   29.6690 C   0  0  0  0  0  0  0  0  0  0  0  0
    9.5097  -15.5879   29.1436 C   0  0  0  0  0  0  0  0  0  0  0  0
    9.3039  -15.1551   27.8495 C   0  0  0  0  0  0  0  0  0  0  0  0
   10.3532  -14.7686   27.0320 C   0  0  0  0  0  0  0  0  0  0  0  0
   10.0991  -14.3128   25.6454 C   0  0  0  0  0  0  0  0  0  0  0  0
   10.1073  -15.4455   24.6355 C   0  0  2  0  0  0  0  0  0  0  0  0
   10.0141  -14.8276   23.3201 N   0  0  0  0  0  0  0  0  0  0  0  0
    8.9520  -16.3480   24.7903 C   0  0  0  0  0  0  0  0  0  0  0  0
    7.6316  -15.9817   24.5746 O   0  0  0  0  0  0  0  0  0  0  0  0
   11.6242  -14.8292   27.5538 C   0  0  0  0  0  0  0  0  0  0  0  0
   11.8291  -15.2677   28.8645 C   0  0  0  0  0  0  0  0  0  0  0  0
    9.1528  -17.5375   25.1418 O   0  0  0  0  0  0  0  0  0  0  0  0
  2  1  1  6
  2  3  1  0
  4  5  1  1
  4  2  1  0
  6  4  1  0
  7  6  2  0
  9  8  1  0
 10  9  1  0
 10 11  1  1
 12 10  1  0
 12 13  1  6
 13  6  1  0
 14 12  1  0
 15 14  2  0
 16 17  1  0
 17 18  2  0
 18 19  1  0
 20 21  1  0
 20 19  2  0
 22 21  1  1
 22 24  1  0
 22 23  1  0
 23 14  1  0
 24 25  1  0
 26 20  1  0
 27 26  2  0
 27 17  1  0
 28 24  2  0
M  END
$$$$
