TIY.pdb
     RDKit          3D

 28 28  0  0  1  0  0  0  0  0999 V2000
   10.4756  -18.3361   17.0056 C   0  0  0  0  0  0  0  0  0  0  0  0
   11.0674  -17.3084   16.0669 C   0  0  1  0  0  0  0  0  0  0  0  0
   11.3791  -17.8745   14.8571 O   0  0  0  0  0  0  0  0  0  0  0  0
   10.1532  -16.1031   15.9687 C   0  0  2  0  0  0  0  0  0  0  0  0
   10.5540  -15.3944   14.7605 N   0  0  0  0  0  0  0  0  0  0  0  0
   10.2332  -15.2334   17.1594 C   0  0  0  0  0  0  0  0  0  0  0  0
   10.8746  -14.1292   17.1588 O   0  0  0  0  0  0  0  0  0  0  0  0
    6.4585  -12.4593   18.6561 C   0  0  0  0  0  0  0  0  0  0  0  0
    7.7413  -13.2031   18.5153 C   0  0  0  0  0  0  0  0  0  0  0  0
    8.0781  -14.1613   19.5957 C   0  0  2  0  0  0  0  0  0  0  0  0
    7.8588  -13.4526   20.9291 C   0  0  0  0  0  0  0  0  0  0  0  0
    9.4215  -14.8057   19.5212 C   0  0  2  0  0  0  0  0  0  0  0  0
    9.5736  -15.6396   18.3449 N   0  0  0  0  0  0  0  0  0  0  0  0
    9.8270  -15.4994   20.7553 C   0  0  0  0  0  0  0  0  0  0  0  0
    9.4391  -15.0639   21.8603 O   0  0  0  0  0  0  0  0  0  0  0  0
   17.9936  -14.6624   18.8693 O   0  0  0  0  0  0  0  0  0  0  0  0
   16.6273  -14.8573   19.0958 C   0  0  0  0  0  0  0  0  0  0  0  0
   15.7186  -13.9022   18.7122 C   0  0  0  0  0  0  0  0  0  0  0  0
   14.3685  -14.0858   18.9315 C   0  0  0  0  0  0  0  0  0  0  0  0
   13.8752  -15.2278   19.5408 C   0  0  0  0  0  0  0  0  0  0  0  0
   12.4201  -15.3925   19.7656 C   0  0  0  0  0  0  0  0  0  0  0  0
   12.0923  -16.4851   20.7665 C   0  0  2  0  0  0  0  0  0  0  0  0
   10.6461  -16.6539   20.7358 N   0  0  0  0  0  0  0  0  0  0  0  0
   12.4725  -16.1214   22.1437 C   0  0  0  0  0  0  0  0  0  0  0  0
   13.6859  -16.4394   22.7361 O   0  0  0  0  0  0  0  0  0  0  0  0
   14.7817  -16.1872   19.9268 C   0  0  0  0  0  0  0  0  0  0  0  0
   16.1479  -15.9983   19.7034 C   0  0  0  0  0  0  0  0  0  0  0  0
   11.6561  -15.4784   22.8499 O   0  0  0  0  0  0  0  0  0  0  0  0
  2  1  1  1
  2  3  1  0
  4  5  1  6
  4  2  1  0
  6  4  1  0
  7  6  2  0
  9  8  1  0
 10  9  1  0
 10 11  1  1
 12 10  1  0
 12 13  1  6
 13  6  1  0
 14 12  1  0
 15 14  2  0
 16 17  1  0
 17 18  2  0
 18 19  1  0
 20 21  1  0
 20 19  2  0
 22 21  1  6
 22 24  1  0
 22 23  1  0
 23 14  1  0
 24 25  1  0
 26 20  1  0
 27 26  2  0
 27 17  1  0
 28 24  2  0
M  END
$$$$
