TIY.pdb
     RDKit          3D

 28 28  0  0  1  0  0  0  0  0999 V2000
    9.6137  -20.4739   21.1238 C   0  0  0  0  0  0  0  0  0  0  0  0
    9.2327  -20.3646   19.6642 C   0  0  1  0  0  0  0  0  0  0  0  0
    8.7379  -21.5560   19.1983 O   0  0  0  0  0  0  0  0  0  0  0  0
    8.3047  -19.1846   19.4537 C   0  0  2  0  0  0  0  0  0  0  0  0
    7.9174  -19.2258   18.0497 N   0  0  0  0  0  0  0  0  0  0  0  0
    8.9373  -17.8972   19.8043 C   0  0  0  0  0  0  0  0  0  0  0  0
   10.0923  -17.5626   19.3744 O   0  0  0  0  0  0  0  0  0  0  0  0
    7.4706  -12.0883   20.7827 C   0  0  0  0  0  0  0  0  0  0  0  0
    8.3735  -13.2315   21.0938 C   0  0  0  0  0  0  0  0  0  0  0  0
    7.8554  -14.5892   20.7990 C   0  0  2  0  0  0  0  0  0  0  0  0
    6.5043  -14.7310   21.4936 C   0  0  0  0  0  0  0  0  0  0  0  0
    8.7638  -15.7316   21.1079 C   0  0  2  0  0  0  0  0  0  0  0  0
    8.2364  -17.0014   20.6478 N   0  0  0  0  0  0  0  0  0  0  0  0
    9.2091  -15.7858   22.5106 C   0  0  0  0  0  0  0  0  0  0  0  0
    8.4596  -16.2900   23.3737 O   0  0  0  0  0  0  0  0  0  0  0  0
   10.2830  -15.2941   30.7449 O   0  0  0  0  0  0  0  0  0  0  0  0
   10.0917  -15.2683   29.3597 C   0  0  0  0  0  0  0  0  0  0  0  0
   10.1068  -16.4355   28.6367 C   0  0  0  0  0  0  0  0  0  0  0  0
    9.9188  -16.4199   27.2696 C   0  0  0  0  0  0  0  0  0  0  0  0
    9.7091  -15.2408   26.5736 C   0  0  0  0  0  0  0  0  0  0  0  0
    9.5149  -15.2578   25.1049 C   0  0  0  0  0  0  0  0  0  0  0  0
   10.8184  -15.3476   24.3330 C   0  0  2  0  0  0  0  0  0  0  0  0
   10.4681  -15.2850   22.9209 N   0  0  0  0  0  0  0  0  0  0  0  0
   11.5246  -16.6208   24.5642 C   0  0  0  0  0  0  0  0  0  0  0  0
   12.6811  -16.7546   25.3185 O   0  0  0  0  0  0  0  0  0  0  0  0
    9.6933  -14.0692   27.2935 C   0  0  0  0  0  0  0  0  0  0  0  0
    9.8838  -14.0884   28.6775 C   0  0  0  0  0  0  0  0  0  0  0  0
   11.0656  -17.6721   24.0517 O   0  0  0  0  0  0  0  0  0  0  0  0
  2  1  1  1
  2  3  1  0
  4  5  1  6
  4  2  1  0
  6  4  1  0
  7  6  2  0
  9  8  1  0
 10  9  1  0
 10 11  1  1
 12 10  1  0
 12 13  1  1
 13  6  1  0
 14 12  1  0
 15 14  2  0
 16 17  1  0
 17 18  2  0
 18 19  1  0
 20 21  1  0
 20 19  2  0
 22 21  1  1
 22 24  1  0
 22 23  1  0
 23 14  1  0
 24 25  1  0
 26 20  1  0
 27 26  2  0
 27 17  1  0
 28 24  2  0
M  END
$$$$
