TIY.pdb
     RDKit          3D

 28 28  0  0  1  0  0  0  0  0999 V2000
   -2.3298  -25.6478   19.1939 C   0  0  0  0  0  0  0  0  0  0  0  0
   -0.9820  -25.2116   18.6643 C   0  0  1  0  0  0  0  0  0  0  0  0
   -0.7089  -25.8188   17.4652 O   0  0  0  0  0  0  0  0  0  0  0  0
   -0.9015  -23.6983   18.6240 C   0  0  2  0  0  0  0  0  0  0  0  0
    0.4186  -23.3819   18.0949 N   0  0  0  0  0  0  0  0  0  0  0  0
   -1.1159  -23.0845   19.9498 C   0  0  0  0  0  0  0  0  0  0  0  0
   -0.2624  -23.1806   20.8947 O   0  0  0  0  0  0  0  0  0  0  0  0
   -3.3032  -18.1480   20.4131 C   0  0  0  0  0  0  0  0  0  0  0  0
   -2.6102  -19.4502   20.6202 C   0  0  0  0  0  0  0  0  0  0  0  0
   -3.3593  -20.4932   21.3618 C   0  0  2  0  0  0  0  0  0  0  0  0
   -3.7186  -19.9215   22.7302 C   0  0  0  0  0  0  0  0  0  0  0  0
   -2.7094  -21.8316   21.4700 C   0  0  2  0  0  0  0  0  0  0  0  0
   -2.3121  -22.3626   20.1805 N   0  0  0  0  0  0  0  0  0  0  0  0
   -3.4698  -22.8087   22.2674 C   0  0  0  0  0  0  0  0  0  0  0  0
   -4.5396  -23.2700   21.8159 O   0  0  0  0  0  0  0  0  0  0  0  0
    1.8836  -27.4006   24.1658 O   0  0  0  0  0  0  0  0  0  0  0  0
    0.5648  -26.9643   24.0031 C   0  0  0  0  0  0  0  0  0  0  0  0
    0.2076  -26.2372   22.8946 C   0  0  0  0  0  0  0  0  0  0  0  0
   -1.0912  -25.8026   22.7255 C   0  0  0  0  0  0  0  0  0  0  0  0
   -2.0810  -26.0766   23.6549 C   0  0  0  0  0  0  0  0  0  0  0  0
   -3.4652  -25.5917   23.4459 C   0  0  0  0  0  0  0  0  0  0  0  0
   -3.7689  -24.3128   24.2042 C   0  0  2  0  0  0  0  0  0  0  0  0
   -3.0281  -23.2508   23.5377 N   0  0  0  0  0  0  0  0  0  0  0  0
   -3.3140  -24.3660   25.6055 C   0  0  0  0  0  0  0  0  0  0  0  0
   -3.8593  -25.1888   26.5801 O   0  0  0  0  0  0  0  0  0  0  0  0
   -1.7279  -26.8045   24.7670 C   0  0  0  0  0  0  0  0  0  0  0  0
   -0.4121  -27.2432   24.9352 C   0  0  0  0  0  0  0  0  0  0  0  0
   -2.3674  -23.6224   25.9658 O   0  0  0  0  0  0  0  0  0  0  0  0
  2  1  1  6
  2  3  1  0
  4  5  1  1
  4  2  1  0
  6  4  1  0
  7  6  2  0
  9  8  1  0
 10  9  1  0
 10 11  1  1
 12 10  1  0
 12 13  1  6
 13  6  1  0
 14 12  1  0
 15 14  2  0
 16 17  1  0
 17 18  2  0
 18 19  1  0
 20 21  1  0
 20 19  2  0
 22 21  1  6
 22 24  1  0
 22 23  1  0
 23 14  1  0
 24 25  1  0
 26 20  1  0
 27 26  2  0
 27 17  1  0
 28 24  2  0
M  END
$$$$
