TIY.pdb
     RDKit          3D

 28 28  0  0  1  0  0  0  0  0999 V2000
   11.1084  -18.4051   15.7018 C   0  0  0  0  0  0  0  0  0  0  0  0
   11.3231  -17.5375   14.4817 C   0  0  1  0  0  0  0  0  0  0  0  0
   11.2192  -18.2780   13.3319 O   0  0  0  0  0  0  0  0  0  0  0  0
   10.4023  -16.3341   14.5280 C   0  0  2  0  0  0  0  0  0  0  0  0
   10.5641  -15.6573   13.2480 N   0  0  0  0  0  0  0  0  0  0  0  0
   10.7034  -15.4342   15.6593 C   0  0  0  0  0  0  0  0  0  0  0  0
   11.8182  -14.8209   15.7683 O   0  0  0  0  0  0  0  0  0  0  0  0
    7.5302  -12.2991   20.0205 C   0  0  0  0  0  0  0  0  0  0  0  0
    8.7909  -12.8969   19.4989 C   0  0  0  0  0  0  0  0  0  0  0  0
    8.6632  -13.8208   18.3461 C   0  0  2  0  0  0  0  0  0  0  0  0
    7.5908  -14.8494   18.6926 C   0  0  0  0  0  0  0  0  0  0  0  0
    9.9197  -14.4656   17.8655 C   0  0  2  0  0  0  0  0  0  0  0  0
    9.7187  -15.2445   16.6592 N   0  0  0  0  0  0  0  0  0  0  0  0
   10.6466  -15.2174   18.9025 C   0  0  0  0  0  0  0  0  0  0  0  0
   10.4649  -16.4490   19.0089 O   0  0  0  0  0  0  0  0  0  0  0  0
   17.1093  -14.6243   16.3893 O   0  0  0  0  0  0  0  0  0  0  0  0
   16.2689  -14.6486   17.5070 C   0  0  0  0  0  0  0  0  0  0  0  0
   15.2169  -13.7714   17.6017 C   0  0  0  0  0  0  0  0  0  0  0  0
   14.3824  -13.7881   18.7007 C   0  0  0  0  0  0  0  0  0  0  0  0
   14.5660  -14.6795   19.7450 C   0  0  0  0  0  0  0  0  0  0  0  0
   13.6547  -14.6688   20.9130 C   0  0  0  0  0  0  0  0  0  0  0  0
   12.3628  -15.4261   20.6672 C   0  0  2  0  0  0  0  0  0  0  0  0
   11.5540  -14.5908   19.7903 N   0  0  0  0  0  0  0  0  0  0  0  0
   11.5957  -15.6506   21.9060 C   0  0  0  0  0  0  0  0  0  0  0  0
   10.3239  -15.1519   22.1466 O   0  0  0  0  0  0  0  0  0  0  0  0
   15.6185  -15.5600   19.6546 C   0  0  0  0  0  0  0  0  0  0  0  0
   16.4615  -15.5406   18.5406 C   0  0  0  0  0  0  0  0  0  0  0  0
   12.1100  -16.3389   22.8229 O   0  0  0  0  0  0  0  0  0  0  0  0
  2  1  1  1
  2  3  1  0
  4  5  1  6
  4  2  1  0
  6  4  1  0
  7  6  2  0
  9  8  1  0
 10  9  1  0
 10 11  1  1
 12 10  1  0
 12 13  1  6
 13  6  1  0
 14 12  1  0
 15 14  2  0
 16 17  1  0
 17 18  2  0
 18 19  1  0
 20 21  1  0
 20 19  2  0
 22 21  1  1
 22 24  1  0
 22 23  1  0
 23 14  1  0
 24 25  1  0
 26 20  1  0
 27 26  2  0
 27 17  1  0
 28 24  2  0
M  END
$$$$
