TIY.pdb
     RDKit          3D

 28 28  0  0  1  0  0  0  0  0999 V2000
   10.1951  -19.5022   15.9559 C   0  0  0  0  0  0  0  0  0  0  0  0
   10.2704  -18.7944   17.2904 C   0  0  1  0  0  0  0  0  0  0  0  0
   11.1325  -19.4418   18.1383 O   0  0  0  0  0  0  0  0  0  0  0  0
   10.5895  -17.3266   17.0859 C   0  0  2  0  0  0  0  0  0  0  0  0
   11.8566  -17.2890   16.3678 N   0  0  0  0  0  0  0  0  0  0  0  0
   10.6648  -16.5810   18.3582 C   0  0  0  0  0  0  0  0  0  0  0  0
   11.7627  -16.4103   18.9876 O   0  0  0  0  0  0  0  0  0  0  0  0
    6.7421  -12.6191   19.2418 C   0  0  0  0  0  0  0  0  0  0  0  0
    8.0222  -13.3803   19.2195 C   0  0  0  0  0  0  0  0  0  0  0  0
    8.1807  -14.4474   20.2368 C   0  0  2  0  0  0  0  0  0  0  0  0
    8.0390  -13.8019   21.6121 C   0  0  0  0  0  0  0  0  0  0  0  0
    9.4109  -15.2856   20.1385 C   0  0  2  0  0  0  0  0  0  0  0  0
    9.4753  -16.0352   18.8990 N   0  0  0  0  0  0  0  0  0  0  0  0
    9.6603  -16.1316   21.3179 C   0  0  0  0  0  0  0  0  0  0  0  0
    9.0049  -17.1847   21.4676 O   0  0  0  0  0  0  0  0  0  0  0  0
   14.5263  -22.0306   23.7113 O   0  0  0  0  0  0  0  0  0  0  0  0
   14.0031  -20.7337   23.6957 C   0  0  0  0  0  0  0  0  0  0  0  0
   13.5253  -20.1937   22.5273 C   0  0  0  0  0  0  0  0  0  0  0  0
   13.0072  -18.9149   22.5023 C   0  0  0  0  0  0  0  0  0  0  0  0
   12.9465  -18.1279   23.6406 C   0  0  0  0  0  0  0  0  0  0  0  0
   12.3882  -16.7570   23.5794 C   0  0  0  0  0  0  0  0  0  0  0  0
   10.8843  -16.7351   23.3771 C   0  0  2  0  0  0  0  0  0  0  0  0
   10.6259  -15.7937   22.2964 N   0  0  0  0  0  0  0  0  0  0  0  0
   10.1613  -16.2583   24.5701 C   0  0  0  0  0  0  0  0  0  0  0  0
    9.4222  -15.0859   24.6272 O   0  0  0  0  0  0  0  0  0  0  0  0
   13.4241  -18.6646   24.8133 C   0  0  0  0  0  0  0  0  0  0  0  0
   13.9480  -19.9596   24.8353 C   0  0  0  0  0  0  0  0  0  0  0  0
   10.2035  -16.9454   25.6212 O   0  0  0  0  0  0  0  0  0  0  0  0
  2  1  1  6
  2  3  1  0
  4  5  1  1
  4  2  1  0
  6  4  1  0
  7  6  2  0
  9  8  1  0
 10  9  1  0
 10 11  1  1
 12 10  1  0
 12 13  1  6
 13  6  1  0
 14 12  1  0
 15 14  2  0
 16 17  1  0
 17 18  2  0
 18 19  1  0
 20 21  1  0
 20 19  2  0
 22 21  1  1
 22 24  1  0
 22 23  1  0
 23 14  1  0
 24 25  1  0
 26 20  1  0
 27 26  2  0
 27 17  1  0
 28 24  2  0
M  END
$$$$
