TIY.pdb
     RDKit          3D

 28 28  0  0  1  0  0  0  0  0999 V2000
   10.9554  -20.0939   18.4946 C   0  0  0  0  0  0  0  0  0  0  0  0
   10.7193  -18.9894   19.5005 C   0  0  1  0  0  0  0  0  0  0  0  0
   11.4677  -19.1914   20.6320 O   0  0  0  0  0  0  0  0  0  0  0  0
   10.9333  -17.6366   18.8506 C   0  0  2  0  0  0  0  0  0  0  0  0
   12.2943  -17.6533   18.3309 N   0  0  0  0  0  0  0  0  0  0  0  0
   10.7255  -16.5175   19.7911 C   0  0  0  0  0  0  0  0  0  0  0  0
   11.6954  -15.9146   20.3627 O   0  0  0  0  0  0  0  0  0  0  0  0
    6.6293  -12.8192   19.0433 C   0  0  0  0  0  0  0  0  0  0  0  0
    7.8959  -13.4661   19.4860 C   0  0  0  0  0  0  0  0  0  0  0  0
    7.8157  -14.3387   20.6823 C   0  0  2  0  0  0  0  0  0  0  0  0
    7.2991  -13.4909   21.8410 C   0  0  0  0  0  0  0  0  0  0  0  0
    9.0542  -15.0861   21.0472 C   0  0  2  0  0  0  0  0  0  0  0  0
    9.4018  -16.0978   20.0684 N   0  0  0  0  0  0  0  0  0  0  0  0
    9.0576  -15.6132   22.4223 C   0  0  0  0  0  0  0  0  0  0  0  0
    8.5664  -16.7394   22.6493 O   0  0  0  0  0  0  0  0  0  0  0  0
   10.6152  -16.4403   31.1035 O   0  0  0  0  0  0  0  0  0  0  0  0
   10.5197  -15.9476   29.7981 C   0  0  0  0  0  0  0  0  0  0  0  0
   10.8396  -16.7491   28.7302 C   0  0  0  0  0  0  0  0  0  0  0  0
   10.7484  -16.2716   27.4386 C   0  0  0  0  0  0  0  0  0  0  0  0
   10.3351  -14.9783   27.1644 C   0  0  0  0  0  0  0  0  0  0  0  0
   10.2520  -14.4948   25.7665 C   0  0  0  0  0  0  0  0  0  0  0  0
    9.5692  -15.4797   24.8355 C   0  0  2  0  0  0  0  0  0  0  0  0
    9.6040  -14.8851   23.5065 N   0  0  0  0  0  0  0  0  0  0  0  0
    8.1559  -15.7044   25.1898 C   0  0  0  0  0  0  0  0  0  0  0  0
    7.6914  -16.7794   25.9333 O   0  0  0  0  0  0  0  0  0  0  0  0
   10.0137  -14.1717   28.2309 C   0  0  0  0  0  0  0  0  0  0  0  0
   10.1071  -14.6581   29.5373 C   0  0  0  0  0  0  0  0  0  0  0  0
    7.2932  -14.8775   24.8016 O   0  0  0  0  0  0  0  0  0  0  0  0
  2  1  1  6
  2  3  1  0
  4  5  1  1
  4  2  1  0
  6  4  1  0
  7  6  2  0
  9  8  1  0
 10  9  1  0
 10 11  1  1
 12 10  1  0
 12 13  1  6
 13  6  1  0
 14 12  1  0
 15 14  2  0
 16 17  1  0
 17 18  2  0
 18 19  1  0
 20 21  1  0
 20 19  2  0
 22 21  1  1
 22 24  1  0
 22 23  1  0
 23 14  1  0
 24 25  1  0
 26 20  1  0
 27 26  2  0
 27 17  1  0
 28 24  2  0
M  END
$$$$
