TIY.pdb
     RDKit          3D

 28 28  0  0  1  0  0  0  0  0999 V2000
    7.7607  -20.4474   18.8448 C   0  0  0  0  0  0  0  0  0  0  0  0
    8.2053  -19.4055   19.8470 C   0  0  1  0  0  0  0  0  0  0  0  0
    9.0619  -19.9499   20.7696 O   0  0  0  0  0  0  0  0  0  0  0  0
    8.7607  -18.1922   19.1275 C   0  0  2  0  0  0  0  0  0  0  0  0
    9.8514  -18.6846   18.2964 N   0  0  0  0  0  0  0  0  0  0  0  0
    9.2198  -17.1426   20.0591 C   0  0  0  0  0  0  0  0  0  0  0  0
   10.4218  -17.0847   20.4864 O   0  0  0  0  0  0  0  0  0  0  0  0
    7.1805  -11.9965   19.7647 C   0  0  0  0  0  0  0  0  0  0  0  0
    8.0483  -13.1760   20.0373 C   0  0  0  0  0  0  0  0  0  0  0  0
    7.7989  -13.9087   21.3022 C   0  0  2  0  0  0  0  0  0  0  0  0
    7.9919  -12.9259   22.4533 C   0  0  0  0  0  0  0  0  0  0  0  0
    8.5729  -15.1673   21.5080 C   0  0  2  0  0  0  0  0  0  0  0  0
    8.2925  -16.1646   20.4935 N   0  0  0  0  0  0  0  0  0  0  0  0
    8.4818  -15.7152   22.8718 C   0  0  0  0  0  0  0  0  0  0  0  0
    7.5203  -16.4538   23.1738 O   0  0  0  0  0  0  0  0  0  0  0  0
    6.2528  -10.5406   26.7826 O   0  0  0  0  0  0  0  0  0  0  0  0
    6.6126  -11.8551   26.4685 C   0  0  0  0  0  0  0  0  0  0  0  0
    7.9362  -12.2129   26.3988 C   0  0  0  0  0  0  0  0  0  0  0  0
    8.3008  -13.5076   26.0897 C   0  0  0  0  0  0  0  0  0  0  0  0
    7.3595  -14.4923   25.8390 C   0  0  0  0  0  0  0  0  0  0  0  0
    7.7839  -15.8721   25.5055 C   0  0  0  0  0  0  0  0  0  0  0  0
    9.2662  -15.9815   25.1993 C   0  0  2  0  0  0  0  0  0  0  0  0
    9.4538  -15.4354   23.8623 N   0  0  0  0  0  0  0  0  0  0  0  0
    9.7377  -17.3782   25.1838 C   0  0  0  0  0  0  0  0  0  0  0  0
   10.2483  -18.0251   24.0680 O   0  0  0  0  0  0  0  0  0  0  0  0
    6.0323  -14.1385   25.9076 C   0  0  0  0  0  0  0  0  0  0  0  0
    5.6666  -12.8270   26.2208 C   0  0  0  0  0  0  0  0  0  0  0  0
    9.6825  -18.0500   26.2442 O   0  0  0  0  0  0  0  0  0  0  0  0
  2  1  1  6
  2  3  1  0
  4  5  1  1
  4  2  1  0
  6  4  1  0
  7  6  2  0
  9  8  1  0
 10  9  1  0
 10 11  1  1
 12 10  1  0
 12 13  1  6
 13  6  1  0
 14 12  1  0
 15 14  2  0
 16 17  1  0
 17 18  2  0
 18 19  1  0
 20 21  1  0
 20 19  2  0
 22 21  1  6
 22 24  1  0
 22 23  1  0
 23 14  1  0
 24 25  1  0
 26 20  1  0
 27 26  2  0
 27 17  1  0
 28 24  2  0
M  END
$$$$
