TIY.pdb
     RDKit          3D

 28 28  0  0  1  0  0  0  0  0999 V2000
   10.3040  -18.1419   14.1023 C   0  0  0  0  0  0  0  0  0  0  0  0
   10.6234  -17.4121   15.3880 C   0  0  1  0  0  0  0  0  0  0  0  0
   11.9252  -17.6285   15.7617 O   0  0  0  0  0  0  0  0  0  0  0  0
   10.2506  -15.9479   15.2639 C   0  0  2  0  0  0  0  0  0  0  0  0
   11.0215  -15.4328   14.1401 N   0  0  0  0  0  0  0  0  0  0  0  0
   10.5211  -15.1882   16.5009 C   0  0  0  0  0  0  0  0  0  0  0  0
   11.6540  -14.6494   16.7394 O   0  0  0  0  0  0  0  0  0  0  0  0
    6.3149  -12.6211   19.1623 C   0  0  0  0  0  0  0  0  0  0  0  0
    7.6716  -12.9772   18.6611 C   0  0  0  0  0  0  0  0  0  0  0  0
    8.3976  -14.0384   19.3999 C   0  0  2  0  0  0  0  0  0  0  0  0
    8.5964  -13.5529   20.8328 C   0  0  0  0  0  0  0  0  0  0  0  0
    9.6719  -14.5215   18.7930 C   0  0  2  0  0  0  0  0  0  0  0  0
    9.4852  -15.0522   17.4567 N   0  0  0  0  0  0  0  0  0  0  0  0
   10.4427  -15.4336   19.6549 C   0  0  0  0  0  0  0  0  0  0  0  0
   10.2551  -16.6657   19.5677 O   0  0  0  0  0  0  0  0  0  0  0  0
   16.4212  -15.1375   16.5590 O   0  0  0  0  0  0  0  0  0  0  0  0
   15.7154  -15.1736   17.7659 C   0  0  0  0  0  0  0  0  0  0  0  0
   15.8346  -16.2531   18.6059 C   0  0  0  0  0  0  0  0  0  0  0  0
   15.1421  -16.2975   19.7988 C   0  0  0  0  0  0  0  0  0  0  0  0
   14.3059  -15.2679   20.1978 C   0  0  0  0  0  0  0  0  0  0  0  0
   13.5730  -15.3482   21.4828 C   0  0  0  0  0  0  0  0  0  0  0  0
   12.1803  -15.9334   21.3383 C   0  0  2  0  0  0  0  0  0  0  0  0
   11.3992  -14.9616   20.5858 N   0  0  0  0  0  0  0  0  0  0  0  0
   11.5148  -16.1340   22.6384 C   0  0  0  0  0  0  0  0  0  0  0  0
   11.8950  -17.0782   23.5808 O   0  0  0  0  0  0  0  0  0  0  0  0
   14.1832  -14.1845   19.3596 C   0  0  0  0  0  0  0  0  0  0  0  0
   14.8857  -14.1426   18.1526 C   0  0  0  0  0  0  0  0  0  0  0  0
   10.5313  -15.4106   22.9357 O   0  0  0  0  0  0  0  0  0  0  0  0
  2  1  1  6
  2  3  1  0
  4  5  1  6
  4  2  1  0
  6  4  1  0
  7  6  2  0
  9  8  1  0
 10  9  1  0
 10 11  1  1
 12 10  1  0
 12 13  1  6
 13  6  1  0
 14 12  1  0
 15 14  2  0
 16 17  1  0
 17 18  2  0
 18 19  1  0
 20 21  1  0
 20 19  2  0
 22 21  1  1
 22 24  1  0
 22 23  1  0
 23 14  1  0
 24 25  1  0
 26 20  1  0
 27 26  2  0
 27 17  1  0
 28 24  2  0
M  END
$$$$
