TIY.pdb
     RDKit          3D

 28 28  0  0  1  0  0  0  0  0999 V2000
   10.1061  -19.7136   20.7157 C   0  0  0  0  0  0  0  0  0  0  0  0
   11.1062  -19.2900   19.6631 C   0  0  1  0  0  0  0  0  0  0  0  0
   11.3954  -20.3305   18.8176 O   0  0  0  0  0  0  0  0  0  0  0  0
   10.6245  -18.0366   18.9595 C   0  0  2  0  0  0  0  0  0  0  0  0
   11.5991  -17.7673   17.9104 N   0  0  0  0  0  0  0  0  0  0  0  0
   10.4859  -16.8893   19.8786 C   0  0  0  0  0  0  0  0  0  0  0  0
   11.4900  -16.3422   20.4469 O   0  0  0  0  0  0  0  0  0  0  0  0
    6.5469  -13.0904   18.9164 C   0  0  0  0  0  0  0  0  0  0  0  0
    7.7936  -13.7559   19.3873 C   0  0  0  0  0  0  0  0  0  0  0  0
    7.7080  -14.5040   20.6647 C   0  0  2  0  0  0  0  0  0  0  0  0
    7.2911  -13.5184   21.7524 C   0  0  0  0  0  0  0  0  0  0  0  0
    8.9120  -15.2921   21.0583 C   0  0  2  0  0  0  0  0  0  0  0  0
    9.1914  -16.3773   20.1381 N   0  0  0  0  0  0  0  0  0  0  0  0
    8.9101  -15.7355   22.4626 C   0  0  0  0  0  0  0  0  0  0  0  0
    8.2918  -16.7746   22.7775 O   0  0  0  0  0  0  0  0  0  0  0  0
   10.7315  -16.2309   31.1221 O   0  0  0  0  0  0  0  0  0  0  0  0
   10.6269  -15.8058   29.7939 C   0  0  0  0  0  0  0  0  0  0  0  0
   10.9907  -16.6428   28.7681 C   0  0  0  0  0  0  0  0  0  0  0  0
   10.8910  -16.2320   27.4544 C   0  0  0  0  0  0  0  0  0  0  0  0
   10.4250  -14.9724   27.1154 C   0  0  0  0  0  0  0  0  0  0  0  0
   10.3340  -14.5604   25.6952 C   0  0  0  0  0  0  0  0  0  0  0  0
    9.5920  -15.5629   24.8308 C   0  0  2  0  0  0  0  0  0  0  0  0
    9.5912  -15.0225   23.4784 N   0  0  0  0  0  0  0  0  0  0  0  0
    8.1880  -15.7358   25.2458 C   0  0  0  0  0  0  0  0  0  0  0  0
    7.1485  -14.8938   24.8788 O   0  0  0  0  0  0  0  0  0  0  0  0
   10.0594  -14.1305   28.1395 C   0  0  0  0  0  0  0  0  0  0  0  0
   10.1616  -14.5494   29.4684 C   0  0  0  0  0  0  0  0  0  0  0  0
    7.8878  -16.7069   25.9844 O   0  0  0  0  0  0  0  0  0  0  0  0
  2  1  1  1
  2  3  1  0
  4  5  1  6
  4  2  1  0
  6  4  1  0
  7  6  2  0
  9  8  1  0
 10  9  1  0
 10 11  1  1
 12 10  1  0
 12 13  1  6
 13  6  1  0
 14 12  1  0
 15 14  2  0
 16 17  1  0
 17 18  2  0
 18 19  1  0
 20 21  1  0
 20 19  2  0
 22 21  1  1
 22 24  1  0
 22 23  1  0
 23 14  1  0
 24 25  1  0
 26 20  1  0
 27 26  2  0
 27 17  1  0
 28 24  2  0
M  END
$$$$
