WGC.pdb
     RDKit          3D

 25 26  0  0  1  0  0  0  0  0999 V2000
   25.7328  -18.6667  -17.7514 N   0  0  0  0  0  0  0  0  0  0  0  0
   25.4235  -19.5497  -16.6140 C   0  0  1  0  0  0  0  0  0  0  0  0
   24.5772  -20.6644  -17.1208 C   0  0  0  0  0  0  0  0  0  0  0  0
   23.2272  -20.1444  -17.4599 C   0  0  0  0  0  0  0  0  0  0  0  0
   22.7283  -19.9818  -18.7545 C   0  0  0  0  0  0  0  0  0  0  0  0
   21.4917  -19.4959  -18.7269 N   0  0  0  0  0  0  0  0  0  0  0  0
   21.1623  -19.3335  -17.4328 C   0  0  0  0  0  0  0  0  0  0  0  0
   20.0104  -18.8665  -16.8150 C   0  0  0  0  0  0  0  0  0  0  0  0
   19.9451  -18.8063  -15.4395 C   0  0  0  0  0  0  0  0  0  0  0  0
   21.0058  -19.2019  -14.6414 C   0  0  0  0  0  0  0  0  0  0  0  0
   22.1618  -19.6702  -15.2451 C   0  0  0  0  0  0  0  0  0  0  0  0
   22.2176  -19.7268  -16.6249 C   0  0  0  0  0  0  0  0  0  0  0  0
   26.6960  -19.9407  -16.0250 C   0  0  0  0  0  0  0  0  0  0  0  0
   27.7128  -19.9775  -16.7912 O   0  0  0  0  0  0  0  0  0  0  0  0
   26.9261  -20.2897  -14.6669 N   0  0  0  0  0  0  0  0  0  0  0  0
   28.1951  -20.6922  -14.1422 C   0  0  0  0  0  0  0  0  0  0  0  0
   28.1669  -20.7767  -12.6389 C   0  0  0  0  0  0  0  0  0  0  0  0
   29.1193  -21.2086  -11.9621 O   0  0  0  0  0  0  0  0  0  0  0  0
   26.9976  -20.3423  -11.9600 N   0  0  0  0  0  0  0  0  0  0  0  0
   26.1575  -21.3231  -11.3169 C   0  0  1  0  0  0  0  0  0  0  0  0
   26.1398  -21.0384   -9.8290 C   0  0  0  0  0  0  0  0  0  0  0  0
   25.6175  -19.3295   -9.5061 S   0  0  0  0  0  0  0  0  0  0  0  0
   24.7968  -21.2266  -11.8898 C   0  0  0  0  0  0  0  0  0  0  0  0
   24.5151  -20.2316  -12.6101 O   0  0  0  0  0  0  0  0  0  0  0  0
   23.7970  -22.1661  -11.6873 O   0  0  0  0  0  0  0  0  0  0  0  0
  2  1  1  6
  2 13  1  0
  3  2  1  0
  4  3  1  0
  5  4  2  0
  6  5  1  0
  7  6  1  0
  7 12  2  0
  8  7  1  0
  9  8  2  0
  9 10  1  0
 10 11  2  0
 11 12  1  0
 12  4  1  0
 13 14  2  0
 15 13  1  0
 15 16  1  0
 17 19  1  0
 17 16  1  0
 18 17  2  0
 20 19  1  0
 20 21  1  1
 21 22  1  0
 23 20  1  0
 24 23  2  0
 25 23  1  0
M  END
$$$$
