WGC.pdb
     RDKit          3D

 25 26  0  0  1  0  0  0  0  0999 V2000
   24.2929  -21.0023  -14.9586 N   0  0  0  0  0  0  0  0  0  0  0  0
   24.8142  -19.6294  -14.8463 C   0  0  1  0  0  0  0  0  0  0  0  0
   23.8383  -18.8364  -14.0499 C   0  0  0  0  0  0  0  0  0  0  0  0
   22.5387  -18.7873  -14.7686 C   0  0  0  0  0  0  0  0  0  0  0  0
   21.4677  -19.6588  -14.5570 C   0  0  0  0  0  0  0  0  0  0  0  0
   20.4482  -19.3570  -15.3542 N   0  0  0  0  0  0  0  0  0  0  0  0
   20.8267  -18.2979  -16.0920 C   0  0  0  0  0  0  0  0  0  0  0  0
   20.1760  -17.5660  -17.0757 C   0  0  0  0  0  0  0  0  0  0  0  0
   20.8164  -16.5045  -17.6784 C   0  0  0  0  0  0  0  0  0  0  0  0
   22.1061  -16.1383  -17.3302 C   0  0  0  0  0  0  0  0  0  0  0  0
   22.7672  -16.8604  -16.3496 C   0  0  0  0  0  0  0  0  0  0  0  0
   22.1168  -17.9229  -15.7513 C   0  0  0  0  0  0  0  0  0  0  0  0
   26.1531  -19.7310  -14.2843 C   0  0  0  0  0  0  0  0  0  0  0  0
   26.7591  -18.6456  -14.0069 O   0  0  0  0  0  0  0  0  0  0  0  0
   26.8643  -20.9299  -14.0083 N   0  0  0  0  0  0  0  0  0  0  0  0
   28.1700  -20.9762  -13.4247 C   0  0  0  0  0  0  0  0  0  0  0  0
   28.0988  -21.0361  -11.9216 C   0  0  0  0  0  0  0  0  0  0  0  0
   29.0416  -21.4306  -11.2094 O   0  0  0  0  0  0  0  0  0  0  0  0
   26.8984  -20.6223  -11.2855 N   0  0  0  0  0  0  0  0  0  0  0  0
   26.5967  -21.1247   -9.9672 C   0  0  1  0  0  0  0  0  0  0  0  0
   27.2464  -20.2134   -8.9460 C   0  0  0  0  0  0  0  0  0  0  0  0
   26.6297  -18.5138   -9.1146 S   0  0  0  0  0  0  0  0  0  0  0  0
   25.1273  -21.1475   -9.7964 C   0  0  0  0  0  0  0  0  0  0  0  0
   24.4025  -20.7818  -10.7602 O   0  0  0  0  0  0  0  0  0  0  0  0
   24.4834  -21.5485   -8.6354 O   0  0  0  0  0  0  0  0  0  0  0  0
  2  1  1  1
  2 13  1  0
  3  2  1  0
  4  3  1  0
  5  4  2  0
  6  5  1  0
  7  6  1  0
  7 12  2  0
  8  7  1  0
  9  8  2  0
  9 10  1  0
 10 11  2  0
 11 12  1  0
 12  4  1  0
 13 14  2  0
 15 13  1  0
 15 16  1  0
 17 19  1  0
 17 16  1  0
 18 17  2  0
 20 19  1  0
 20 21  1  1
 21 22  1  0
 23 20  1  0
 24 23  2  0
 25 23  1  0
M  END
$$$$
