WGC.pdb
     RDKit          3D

 25 26  0  0  1  0  0  0  0  0999 V2000
   26.8103  -20.5104   -9.7261 N   0  0  0  0  0  0  0  0  0  0  0  0
   25.5793  -21.2024   -9.3075 C   0  0  1  0  0  0  0  0  0  0  0  0
   25.3265  -20.8580   -7.8817 C   0  0  0  0  0  0  0  0  0  0  0  0
   26.3971  -19.9490   -7.3961 C   0  0  0  0  0  0  0  0  0  0  0  0
   26.7260  -18.7160   -7.9642 C   0  0  0  0  0  0  0  0  0  0  0  0
   27.7268  -18.1431   -7.3036 N   0  0  0  0  0  0  0  0  0  0  0  0
   28.0670  -18.9779   -6.3052 C   0  0  0  0  0  0  0  0  0  0  0  0
   29.0324  -18.8984   -5.3110 C   0  0  0  0  0  0  0  0  0  0  0  0
   29.1634  -19.9223   -4.3976 C   0  0  0  0  0  0  0  0  0  0  0  0
   28.3521  -21.0442   -4.4390 C   0  0  0  0  0  0  0  0  0  0  0  0
   27.3842  -21.1365   -5.4263 C   0  0  0  0  0  0  0  0  0  0  0  0
   27.2607  -20.1048   -6.3374 C   0  0  0  0  0  0  0  0  0  0  0  0
   24.5365  -20.8129  -10.2454 C   0  0  0  0  0  0  0  0  0  0  0  0
   23.5055  -21.5569  -10.3218 O   0  0  0  0  0  0  0  0  0  0  0  0
   24.5477  -19.6743  -11.0956 N   0  0  0  0  0  0  0  0  0  0  0  0
   23.7559  -19.5455  -12.2805 C   0  0  0  0  0  0  0  0  0  0  0  0
   24.6074  -19.6109  -13.5209 C   0  0  0  0  0  0  0  0  0  0  0  0
   24.2053  -19.2519  -14.6439 O   0  0  0  0  0  0  0  0  0  0  0  0
   25.9335  -20.1055  -13.4043 N   0  0  0  0  0  0  0  0  0  0  0  0
   26.7422  -20.2250  -14.5929 C   0  0  1  0  0  0  0  0  0  0  0  0
   28.1310  -19.7051  -14.2829 C   0  0  0  0  0  0  0  0  0  0  0  0
   28.0741  -18.4671  -12.9557 S   0  0  0  0  0  0  0  0  0  0  0  0
   26.7875  -21.6493  -14.9909 C   0  0  0  0  0  0  0  0  0  0  0  0
   26.0281  -22.4644  -14.4018 O   0  0  0  0  0  0  0  0  0  0  0  0
   27.6175  -22.1567  -15.9794 O   0  0  0  0  0  0  0  0  0  0  0  0
  2  1  1  6
  2 13  1  0
  3  2  1  0
  4  3  1  0
  5  4  2  0
  6  5  1  0
  7  6  1  0
  7 12  2  0
  8  7  1  0
  9  8  2  0
  9 10  1  0
 10 11  2  0
 11 12  1  0
 12  4  1  0
 13 14  2  0
 15 13  1  0
 15 16  1  0
 17 19  1  0
 17 16  1  0
 18 17  2  0
 20 19  1  0
 20 21  1  1
 21 22  1  0
 23 20  1  0
 24 23  2  0
 25 23  1  0
M  END
$$$$
