WGC.pdb
     RDKit          3D

 25 26  0  0  1  0  0  0  0  0999 V2000
   24.2097  -18.5611  -15.4936 N   0  0  0  0  0  0  0  0  0  0  0  0
   24.9942  -19.4649  -16.3520 C   0  0  1  0  0  0  0  0  0  0  0  0
   25.1565  -18.8064  -17.6770 C   0  0  0  0  0  0  0  0  0  0  0  0
   23.8231  -18.6368  -18.3105 C   0  0  0  0  0  0  0  0  0  0  0  0
   22.9726  -17.5455  -18.1179 C   0  0  0  0  0  0  0  0  0  0  0  0
   21.8540  -17.6881  -18.8211 N   0  0  0  0  0  0  0  0  0  0  0  0
   21.9494  -18.8582  -19.4777 C   0  0  0  0  0  0  0  0  0  0  0  0
   21.0890  -19.5116  -20.3492 C   0  0  0  0  0  0  0  0  0  0  0  0
   21.4504  -20.7278  -20.8879 C   0  0  0  0  0  0  0  0  0  0  0  0
   22.6610  -21.3285  -20.5844 C   0  0  0  0  0  0  0  0  0  0  0  0
   23.5296  -20.6871  -19.7159 C   0  0  0  0  0  0  0  0  0  0  0  0
   23.1581  -19.4681  -19.1810 C   0  0  0  0  0  0  0  0  0  0  0  0
   26.2282  -19.7594  -15.6382 C   0  0  0  0  0  0  0  0  0  0  0  0
   27.0481  -20.5646  -16.1874 O   0  0  0  0  0  0  0  0  0  0  0  0
   26.6195  -19.2355  -14.3766 N   0  0  0  0  0  0  0  0  0  0  0  0
   27.7171  -19.7310  -13.6036 C   0  0  0  0  0  0  0  0  0  0  0  0
   27.2394  -20.4956  -12.3974 C   0  0  0  0  0  0  0  0  0  0  0  0
   26.9206  -21.6992  -12.4350 O   0  0  0  0  0  0  0  0  0  0  0  0
   27.1485  -19.8110  -11.1564 N   0  0  0  0  0  0  0  0  0  0  0  0
   26.5224  -20.4721  -10.0374 C   0  0  1  0  0  0  0  0  0  0  0  0
   26.8453  -19.6939   -8.7782 C   0  0  0  0  0  0  0  0  0  0  0  0
   25.9696  -20.3904   -7.3480 S   0  0  0  0  0  0  0  0  0  0  0  0
   25.0623  -20.5155  -10.2723 C   0  0  0  0  0  0  0  0  0  0  0  0
   24.5458  -19.6428  -11.0204 O   0  0  0  0  0  0  0  0  0  0  0  0
   24.2115  -21.4613   -9.7200 O   0  0  0  0  0  0  0  0  0  0  0  0
  2  1  1  1
  2 13  1  0
  3  2  1  0
  4  3  1  0
  5  4  2  0
  6  5  1  0
  7  6  1  0
  7 12  2  0
  8  7  1  0
  9  8  2  0
  9 10  1  0
 10 11  2  0
 11 12  1  0
 12  4  1  0
 13 14  2  0
 15 13  1  0
 15 16  1  0
 17 19  1  0
 17 16  1  0
 18 17  2  0
 20 19  1  0
 20 21  1  1
 21 22  1  0
 23 20  1  0
 24 23  2  0
 25 23  1  0
M  END
$$$$
