WGC.pdb
     RDKit          3D

 25 26  0  0  1  0  0  0  0  0999 V2000
   25.1477  -19.5478   -9.3377 N   0  0  0  0  0  0  0  0  0  0  0  0
   26.4223  -20.2517   -9.5592 C   0  0  1  0  0  0  0  0  0  0  0  0
   26.7716  -20.9664   -8.3012 C   0  0  0  0  0  0  0  0  0  0  0  0
   27.2239  -19.9825   -7.2838 C   0  0  0  0  0  0  0  0  0  0  0  0
   26.9869  -18.6067   -7.3323 C   0  0  0  0  0  0  0  0  0  0  0  0
   27.5191  -17.9979   -6.2777 N   0  0  0  0  0  0  0  0  0  0  0  0
   28.1060  -18.9495   -5.5297 C   0  0  0  0  0  0  0  0  0  0  0  0
   28.8059  -18.8951   -4.3322 C   0  0  0  0  0  0  0  0  0  0  0  0
   29.3087  -20.0525   -3.7776 C   0  0  0  0  0  0  0  0  0  0  0  0
   29.1366  -21.2858   -4.3839 C   0  0  0  0  0  0  0  0  0  0  0  0
   28.4399  -21.3546   -5.5797 C   0  0  0  0  0  0  0  0  0  0  0  0
   27.9396  -20.1886   -6.1278 C   0  0  0  0  0  0  0  0  0  0  0  0
   26.2413  -21.0926  -10.7336 C   0  0  0  0  0  0  0  0  0  0  0  0
   25.0506  -21.2824  -11.1440 O   0  0  0  0  0  0  0  0  0  0  0  0
   27.2673  -21.7320  -11.4805 N   0  0  0  0  0  0  0  0  0  0  0  0
   27.8577  -21.1905  -12.6662 C   0  0  0  0  0  0  0  0  0  0  0  0
   26.8104  -20.6600  -13.6093 C   0  0  0  0  0  0  0  0  0  0  0  0
   25.5902  -20.8573  -13.4542 O   0  0  0  0  0  0  0  0  0  0  0  0
   27.2346  -19.8973  -14.7296 N   0  0  0  0  0  0  0  0  0  0  0  0
   26.2461  -19.1988  -15.5146 C   0  0  1  0  0  0  0  0  0  0  0  0
   26.8936  -17.9691  -16.1179 C   0  0  0  0  0  0  0  0  0  0  0  0
   27.6853  -16.9612  -14.8317 S   0  0  0  0  0  0  0  0  0  0  0  0
   25.7541  -20.1097  -16.5717 C   0  0  0  0  0  0  0  0  0  0  0  0
   26.3813  -21.1820  -16.7834 O   0  0  0  0  0  0  0  0  0  0  0  0
   24.6369  -19.8631  -17.3555 O   0  0  0  0  0  0  0  0  0  0  0  0
  2  1  1  1
  2 13  1  0
  3  2  1  0
  4  3  1  0
  5  4  2  0
  6  5  1  0
  7  6  1  0
  7 12  2  0
  8  7  1  0
  9  8  2  0
  9 10  1  0
 10 11  2  0
 11 12  1  0
 12  4  1  0
 13 14  2  0
 15 13  1  0
 15 16  1  0
 17 19  1  0
 17 16  1  0
 18 17  2  0
 20 19  1  0
 20 21  1  6
 21 22  1  0
 23 20  1  0
 24 23  2  0
 25 23  1  0
M  END
$$$$
