WGC.pdb
     RDKit          3D

 25 26  0  0  1  0  0  0  0  0999 V2000
   25.0659  -19.6655   -9.6184 N   0  0  0  0  0  0  0  0  0  0  0  0
   26.3137  -20.2484  -10.1404 C   0  0  1  0  0  0  0  0  0  0  0  0
   26.8553  -21.1674   -9.1024 C   0  0  0  0  0  0  0  0  0  0  0  0
   27.1337  -20.4002   -7.8606 C   0  0  0  0  0  0  0  0  0  0  0  0
   26.3075  -19.4105   -7.3228 C   0  0  0  0  0  0  0  0  0  0  0  0
   26.8319  -18.9113   -6.2083 N   0  0  0  0  0  0  0  0  0  0  0  0
   27.9941  -19.5552   -5.9985 C   0  0  0  0  0  0  0  0  0  0  0  0
   28.9526  -19.4482   -5.0002 C   0  0  0  0  0  0  0  0  0  0  0  0
   30.0720  -20.2520   -5.0341 C   0  0  0  0  0  0  0  0  0  0  0  0
   30.2753  -21.1762   -6.0455 C   0  0  0  0  0  0  0  0  0  0  0  0
   29.3263  -21.2934   -7.0484 C   0  0  0  0  0  0  0  0  0  0  0  0
   28.2075  -20.4831   -7.0056 C   0  0  0  0  0  0  0  0  0  0  0  0
   25.9898  -20.8622  -11.4199 C   0  0  0  0  0  0  0  0  0  0  0  0
   25.0836  -21.7571  -11.4310 O   0  0  0  0  0  0  0  0  0  0  0  0
   26.5860  -20.5634  -12.6748 N   0  0  0  0  0  0  0  0  0  0  0  0
   27.2759  -21.5184  -13.4870 C   0  0  0  0  0  0  0  0  0  0  0  0
   26.3190  -22.3078  -14.3406 C   0  0  0  0  0  0  0  0  0  0  0  0
   26.6904  -23.1179  -15.2110 O   0  0  0  0  0  0  0  0  0  0  0  0
   24.9252  -22.1198  -14.1432 N   0  0  0  0  0  0  0  0  0  0  0  0
   24.0030  -23.0650  -14.7241 C   0  0  1  0  0  0  0  0  0  0  0  0
   22.9103  -23.3519  -13.7147 C   0  0  0  0  0  0  0  0  0  0  0  0
   22.0684  -24.9133  -14.1027 S   0  0  0  0  0  0  0  0  0  0  0  0
   23.4403  -22.4763  -15.9594 C   0  0  0  0  0  0  0  0  0  0  0  0
   23.3131  -21.2243  -16.0269 O   0  0  0  0  0  0  0  0  0  0  0  0
   23.0381  -23.2148  -17.0621 O   0  0  0  0  0  0  0  0  0  0  0  0
  2  1  1  1
  2 13  1  0
  3  2  1  0
  4  3  1  0
  5  4  2  0
  6  5  1  0
  7  6  1  0
  7 12  2  0
  8  7  1  0
  9  8  2  0
  9 10  1  0
 10 11  2  0
 11 12  1  0
 12  4  1  0
 13 14  2  0
 15 13  1  0
 15 16  1  0
 17 19  1  0
 17 16  1  0
 18 17  2  0
 20 19  1  0
 20 21  1  1
 21 22  1  0
 23 20  1  0
 24 23  2  0
 25 23  1  0
M  END
$$$$
