WGC.pdb
     RDKit          3D

 25 26  0  0  1  0  0  0  0  0999 V2000
   26.0764  -22.5633  -12.1465 N   0  0  0  0  0  0  0  0  0  0  0  0
   25.3613  -21.3946  -11.6060 C   0  0  1  0  0  0  0  0  0  0  0  0
   26.3368  -20.2758  -11.4956 C   0  0  0  0  0  0  0  0  0  0  0  0
   27.4193  -20.6561  -10.5513 C   0  0  0  0  0  0  0  0  0  0  0  0
   28.6060  -21.3030  -10.9045 C   0  0  0  0  0  0  0  0  0  0  0  0
   29.3698  -21.5058   -9.8360 N   0  0  0  0  0  0  0  0  0  0  0  0
   28.7075  -21.0030   -8.7787 C   0  0  0  0  0  0  0  0  0  0  0  0
   29.0208  -20.9350   -7.4281 C   0  0  0  0  0  0  0  0  0  0  0  0
   28.1367  -20.3505   -6.5468 C   0  0  0  0  0  0  0  0  0  0  0  0
   26.9286  -19.8211   -6.9697 C   0  0  0  0  0  0  0  0  0  0  0  0
   26.6033  -19.8823   -8.3152 C   0  0  0  0  0  0  0  0  0  0  0  0
   27.4962  -20.4702   -9.1910 C   0  0  0  0  0  0  0  0  0  0  0  0
   24.2225  -21.1551  -12.4804 C   0  0  0  0  0  0  0  0  0  0  0  0
   24.3592  -21.4356  -13.7153 O   0  0  0  0  0  0  0  0  0  0  0  0
   22.9573  -20.6348  -12.0958 N   0  0  0  0  0  0  0  0  0  0  0  0
   22.1087  -19.8642  -12.9523 C   0  0  0  0  0  0  0  0  0  0  0  0
   20.8095  -20.5756  -13.2240 C   0  0  0  0  0  0  0  0  0  0  0  0
   19.9067  -20.0982  -13.9374 O   0  0  0  0  0  0  0  0  0  0  0  0
   20.6038  -21.8530  -12.6385 N   0  0  0  0  0  0  0  0  0  0  0  0
   19.3417  -22.5211  -12.8436 C   0  0  1  0  0  0  0  0  0  0  0  0
   19.3475  -23.8118  -12.0504 C   0  0  0  0  0  0  0  0  0  0  0  0
   19.7088  -23.4909  -10.3001 S   0  0  0  0  0  0  0  0  0  0  0  0
   18.2551  -21.6259  -12.3887 C   0  0  0  0  0  0  0  0  0  0  0  0
   17.1010  -21.7865  -12.8685 O   0  0  0  0  0  0  0  0  0  0  0  0
   18.4197  -20.6096  -11.4594 O   0  0  0  0  0  0  0  0  0  0  0  0
  2  1  1  6
  2 13  1  0
  3  2  1  0
  4  3  1  0
  5  4  2  0
  6  5  1  0
  7  6  1  0
  7 12  2  0
  8  7  1  0
  9  8  2  0
  9 10  1  0
 10 11  2  0
 11 12  1  0
 12  4  1  0
 13 14  2  0
 15 13  1  0
 15 16  1  0
 17 19  1  0
 17 16  1  0
 18 17  2  0
 20 19  1  0
 20 21  1  1
 21 22  1  0
 23 20  1  0
 24 23  2  0
 25 23  1  0
M  END
$$$$
