WGC.pdb
     RDKit          3D

 25 26  0  0  1  0  0  0  0  0999 V2000
   26.8681  -20.6425  -11.9439 N   0  0  0  0  0  0  0  0  0  0  0  0
   25.9910  -21.5466  -11.1805 C   0  0  1  0  0  0  0  0  0  0  0  0
   25.9563  -21.0649   -9.7727 C   0  0  0  0  0  0  0  0  0  0  0  0
   27.3448  -20.9479   -9.2565 C   0  0  0  0  0  0  0  0  0  0  0  0
   28.4782  -21.4960   -9.8619 C   0  0  0  0  0  0  0  0  0  0  0  0
   29.5708  -21.2185   -9.1582 N   0  0  0  0  0  0  0  0  0  0  0  0
   29.1794  -20.4942   -8.0944 C   0  0  0  0  0  0  0  0  0  0  0  0
   29.8830  -19.9358   -7.0362 C   0  0  0  0  0  0  0  0  0  0  0  0
   29.2118  -19.2262   -6.0637 C   0  0  0  0  0  0  0  0  0  0  0  0
   27.8388  -19.0489   -6.1076 C   0  0  0  0  0  0  0  0  0  0  0  0
   27.1240  -19.6009   -7.1585 C   0  0  0  0  0  0  0  0  0  0  0  0
   27.8060  -20.3107   -8.1286 C   0  0  0  0  0  0  0  0  0  0  0  0
   24.7095  -21.5733  -11.8704 C   0  0  0  0  0  0  0  0  0  0  0  0
   23.6814  -21.8941  -11.1903 O   0  0  0  0  0  0  0  0  0  0  0  0
   24.4818  -21.2744  -13.2408 N   0  0  0  0  0  0  0  0  0  0  0  0
   23.2982  -21.6366  -13.9588 C   0  0  0  0  0  0  0  0  0  0  0  0
   22.2012  -20.6249  -13.7568 C   0  0  0  0  0  0  0  0  0  0  0  0
   22.3332  -19.6076  -13.0501 O   0  0  0  0  0  0  0  0  0  0  0  0
   20.9557  -20.8411  -14.4040 N   0  0  0  0  0  0  0  0  0  0  0  0
   19.9137  -19.8534  -14.2629 C   0  0  1  0  0  0  0  0  0  0  0  0
   19.2324  -19.6793  -15.6048 C   0  0  0  0  0  0  0  0  0  0  0  0
   20.3799  -18.9757  -16.8236 S   0  0  0  0  0  0  0  0  0  0  0  0
   18.9539  -20.3237  -13.2398 C   0  0  0  0  0  0  0  0  0  0  0  0
   18.7796  -21.5642  -13.1016 O   0  0  0  0  0  0  0  0  0  0  0  0
   18.2236  -19.4847  -12.4116 O   0  0  0  0  0  0  0  0  0  0  0  0
  2  1  1  6
  2 13  1  0
  3  2  1  0
  4  3  1  0
  5  4  2  0
  6  5  1  0
  7  6  1  0
  7 12  2  0
  8  7  1  0
  9  8  2  0
  9 10  1  0
 10 11  2  0
 11 12  1  0
 12  4  1  0
 13 14  2  0
 15 13  1  0
 15 16  1  0
 17 19  1  0
 17 16  1  0
 18 17  2  0
 20 19  1  0
 20 21  1  6
 21 22  1  0
 23 20  1  0
 24 23  2  0
 25 23  1  0
M  END
$$$$
