WGC.pdb
     RDKit          3D

 25 26  0  0  1  0  0  0  0  0999 V2000
   29.1941  -29.6058  -16.6823 N   0  0  0  0  0  0  0  0  0  0  0  0
   27.7238  -29.6190  -16.5962 C   0  0  1  0  0  0  0  0  0  0  0  0
   27.1946  -28.8153  -17.7317 C   0  0  0  0  0  0  0  0  0  0  0  0
   27.5328  -27.3835  -17.5229 C   0  0  0  0  0  0  0  0  0  0  0  0
   28.7002  -26.7583  -17.9675 C   0  0  0  0  0  0  0  0  0  0  0  0
   28.7088  -25.4744  -17.6244 N   0  0  0  0  0  0  0  0  0  0  0  0
   27.5642  -25.2382  -16.9585 C   0  0  0  0  0  0  0  0  0  0  0  0
   27.0441  -24.0909  -16.3753 C   0  0  0  0  0  0  0  0  0  0  0  0
   25.8195  -24.1361  -15.7443 C   0  0  0  0  0  0  0  0  0  0  0  0
   25.0797  -25.3048  -15.6716 C   0  0  0  0  0  0  0  0  0  0  0  0
   25.5870  -26.4574  -16.2496 C   0  0  0  0  0  0  0  0  0  0  0  0
   26.8157  -26.4020  -16.8800 C   0  0  0  0  0  0  0  0  0  0  0  0
   27.3153  -31.0159  -16.5672 C   0  0  0  0  0  0  0  0  0  0  0  0
   28.2330  -31.8962  -16.4948 O   0  0  0  0  0  0  0  0  0  0  0  0
   25.9826  -31.5071  -16.6111 N   0  0  0  0  0  0  0  0  0  0  0  0
   25.6369  -32.8930  -16.6973 C   0  0  0  0  0  0  0  0  0  0  0  0
   24.6944  -33.2944  -15.5935 C   0  0  0  0  0  0  0  0  0  0  0  0
   24.3904  -32.5415  -14.6488 O   0  0  0  0  0  0  0  0  0  0  0  0
   24.1242  -34.5945  -15.6320 N   0  0  0  0  0  0  0  0  0  0  0  0
   23.1912  -34.9795  -14.6012 C   0  0  1  0  0  0  0  0  0  0  0  0
   22.3357  -36.1138  -15.1275 C   0  0  0  0  0  0  0  0  0  0  0  0
   21.1268  -36.6416  -13.8796 S   0  0  0  0  0  0  0  0  0  0  0  0
   23.9558  -35.4038  -13.4078 C   0  0  0  0  0  0  0  0  0  0  0  0
   23.4863  -35.1447  -12.2674 O   0  0  0  0  0  0  0  0  0  0  0  0
   25.1683  -36.0753  -13.4567 O   0  0  0  0  0  0  0  0  0  0  0  0
  2  1  1  6
  2 13  1  0
  3  2  1  0
  4  3  1  0
  5  4  2  0
  6  5  1  0
  7  6  1  0
  7 12  2  0
  8  7  1  0
  9  8  2  0
  9 10  1  0
 10 11  2  0
 11 12  1  0
 12  4  1  0
 13 14  2  0
 15 13  1  0
 15 16  1  0
 17 19  1  0
 17 16  1  0
 18 17  2  0
 20 19  1  0
 20 21  1  6
 21 22  1  0
 23 20  1  0
 24 23  2  0
 25 23  1  0
M  END
$$$$
