WGC.pdb
     RDKit          3D

 25 26  0  0  1  0  0  0  0  0999 V2000
   24.0905  -21.7455  -13.7474 N   0  0  0  0  0  0  0  0  0  0  0  0
   24.7177  -20.4683  -14.1276 C   0  0  1  0  0  0  0  0  0  0  0  0
   23.8405  -19.3685  -13.6416 C   0  0  0  0  0  0  0  0  0  0  0  0
   22.4785  -19.5346  -14.2123 C   0  0  0  0  0  0  0  0  0  0  0  0
   21.3249  -19.8134  -13.4757 C   0  0  0  0  0  0  0  0  0  0  0  0
   20.2654  -19.9036  -14.2729 N   0  0  0  0  0  0  0  0  0  0  0  0
   20.6989  -19.6886  -15.5279 C   0  0  0  0  0  0  0  0  0  0  0  0
   20.0414  -19.6618  -16.7501 C   0  0  0  0  0  0  0  0  0  0  0  0
   20.7498  -19.4108  -17.9056 C   0  0  0  0  0  0  0  0  0  0  0  0
   22.1156  -19.1810  -17.8878 C   0  0  0  0  0  0  0  0  0  0  0  0
   22.7845  -19.2047  -16.6745 C   0  0  0  0  0  0  0  0  0  0  0  0
   22.0655  -19.4573  -15.5216 C   0  0  0  0  0  0  0  0  0  0  0  0
   26.0689  -20.4841  -13.5863 C   0  0  0  0  0  0  0  0  0  0  0  0
   26.7121  -19.3848  -13.5766 O   0  0  0  0  0  0  0  0  0  0  0  0
   26.7546  -21.6119  -13.0599 N   0  0  0  0  0  0  0  0  0  0  0  0
   28.0691  -21.5652  -12.4964 C   0  0  0  0  0  0  0  0  0  0  0  0
   28.0227  -21.3168  -11.0119 C   0  0  0  0  0  0  0  0  0  0  0  0
   29.0282  -21.3747  -10.2789 O   0  0  0  0  0  0  0  0  0  0  0  0
   26.7715  -21.0007  -10.4189 N   0  0  0  0  0  0  0  0  0  0  0  0
   26.6899  -20.8737   -8.9842 C   0  0  1  0  0  0  0  0  0  0  0  0
   27.3257  -19.5587   -8.5818 C   0  0  0  0  0  0  0  0  0  0  0  0
   27.0768  -19.2375   -6.8120 S   0  0  0  0  0  0  0  0  0  0  0  0
   25.2652  -20.9152   -8.5876 C   0  0  0  0  0  0  0  0  0  0  0  0
   24.3920  -20.6076   -9.4427 O   0  0  0  0  0  0  0  0  0  0  0  0
   24.8174  -21.2737   -7.3249 O   0  0  0  0  0  0  0  0  0  0  0  0
  2  1  1  1
  2 13  1  0
  3  2  1  0
  4  3  1  0
  5  4  2  0
  6  5  1  0
  7  6  1  0
  7 12  2  0
  8  7  1  0
  9  8  2  0
  9 10  1  0
 10 11  2  0
 11 12  1  0
 12  4  1  0
 13 14  2  0
 15 13  1  0
 15 16  1  0
 17 19  1  0
 17 16  1  0
 18 17  2  0
 20 19  1  0
 20 21  1  6
 21 22  1  0
 23 20  1  0
 24 23  2  0
 25 23  1  0
M  END
$$$$
