WGC.pdb
     RDKit          3D

 25 26  0  0  1  0  0  0  0  0999 V2000
   25.0737  -20.3123  -10.4043 N   0  0  0  0  0  0  0  0  0  0  0  0
   26.5455  -20.2579  -10.3943 C   0  0  1  0  0  0  0  0  0  0  0  0
   27.0333  -21.3166   -9.4689 C   0  0  0  0  0  0  0  0  0  0  0  0
   26.6798  -20.9527   -8.0722 C   0  0  0  0  0  0  0  0  0  0  0  0
   25.3965  -21.0146   -7.5238 C   0  0  0  0  0  0  0  0  0  0  0  0
   25.4059  -20.6235   -6.2538 N   0  0  0  0  0  0  0  0  0  0  0  0
   26.6767  -20.3028   -5.9511 C   0  0  0  0  0  0  0  0  0  0  0  0
   27.2692  -19.8396   -4.7843 C   0  0  0  0  0  0  0  0  0  0  0  0
   28.6242  -19.5884   -4.7553 C   0  0  0  0  0  0  0  0  0  0  0  0
   29.4261  -19.7855   -5.8673 C   0  0  0  0  0  0  0  0  0  0  0  0
   28.8476  -20.2476   -7.0386 C   0  0  0  0  0  0  0  0  0  0  0  0
   27.4883  -20.4966   -7.0577 C   0  0  0  0  0  0  0  0  0  0  0  0
   26.9816  -20.3788  -11.7778 C   0  0  0  0  0  0  0  0  0  0  0  0
   28.1500  -20.8399  -11.9886 O   0  0  0  0  0  0  0  0  0  0  0  0
   26.2305  -20.0325  -12.9333 N   0  0  0  0  0  0  0  0  0  0  0  0
   26.6169  -20.3562  -14.2726 C   0  0  0  0  0  0  0  0  0  0  0  0
   25.5673  -21.1872  -14.9623 C   0  0  0  0  0  0  0  0  0  0  0  0
   24.8023  -20.7332  -15.8343 O   0  0  0  0  0  0  0  0  0  0  0  0
   25.4442  -22.5551  -14.6010 N   0  0  0  0  0  0  0  0  0  0  0  0
   24.3850  -23.3402  -15.1866 C   0  0  1  0  0  0  0  0  0  0  0  0
   24.5299  -24.7717  -14.7119 C   0  0  0  0  0  0  0  0  0  0  0  0
   24.6965  -24.8376  -12.9049 S   0  0  0  0  0  0  0  0  0  0  0  0
   23.0868  -22.7715  -14.7621 C   0  0  0  0  0  0  0  0  0  0  0  0
   22.0603  -23.0380  -15.4429 O   0  0  0  0  0  0  0  0  0  0  0  0
   22.9181  -21.9555  -13.6535 O   0  0  0  0  0  0  0  0  0  0  0  0
  2  1  1  6
  2 13  1  0
  3  2  1  0
  4  3  1  0
  5  4  2  0
  6  5  1  0
  7  6  1  0
  7 12  2  0
  8  7  1  0
  9  8  2  0
  9 10  1  0
 10 11  2  0
 11 12  1  0
 12  4  1  0
 13 14  2  0
 15 13  1  0
 15 16  1  0
 17 19  1  0
 17 16  1  0
 18 17  2  0
 20 19  1  0
 20 21  1  1
 21 22  1  0
 23 20  1  0
 24 23  2  0
 25 23  1  0
M  END
$$$$
