WGC.pdb
     RDKit          3D

 25 26  0  0  1  0  0  0  0  0999 V2000
   26.2089  -22.3831  -12.6883 N   0  0  0  0  0  0  0  0  0  0  0  0
   25.4269  -21.4063  -11.9114 C   0  0  1  0  0  0  0  0  0  0  0  0
   26.2962  -20.2245  -11.6603 C   0  0  0  0  0  0  0  0  0  0  0  0
   27.4259  -20.6208  -10.7800 C   0  0  0  0  0  0  0  0  0  0  0  0
   28.6360  -21.1643  -11.2177 C   0  0  0  0  0  0  0  0  0  0  0  0
   29.4413  -21.4134  -10.1904 N   0  0  0  0  0  0  0  0  0  0  0  0
   28.7835  -21.0432   -9.0770 C   0  0  0  0  0  0  0  0  0  0  0  0
   29.1324  -21.0736   -7.7338 C   0  0  0  0  0  0  0  0  0  0  0  0
   28.2435  -20.6199   -6.7830 C   0  0  0  0  0  0  0  0  0  0  0  0
   26.9956  -20.1276   -7.1279 C   0  0  0  0  0  0  0  0  0  0  0  0
   26.6345  -20.0915   -8.4652 C   0  0  0  0  0  0  0  0  0  0  0  0
   27.5326  -20.5486   -9.4110 C   0  0  0  0  0  0  0  0  0  0  0  0
   24.2091  -21.1454  -12.6650 C   0  0  0  0  0  0  0  0  0  0  0  0
   23.2866  -20.4873  -12.0836 O   0  0  0  0  0  0  0  0  0  0  0  0
   23.9381  -21.5528  -13.9991 N   0  0  0  0  0  0  0  0  0  0  0  0
   23.1878  -22.7200  -14.3487 C   0  0  0  0  0  0  0  0  0  0  0  0
   21.7219  -22.4079  -14.4954 C   0  0  0  0  0  0  0  0  0  0  0  0
   21.2307  -21.9080  -15.5252 O   0  0  0  0  0  0  0  0  0  0  0  0
   20.8574  -22.6983  -13.4067 N   0  0  0  0  0  0  0  0  0  0  0  0
   19.4320  -22.5792  -13.5946 C   0  0  1  0  0  0  0  0  0  0  0  0
   18.7362  -23.2930  -12.4537 C   0  0  0  0  0  0  0  0  0  0  0  0
   19.3846  -24.9776  -12.2566 S   0  0  0  0  0  0  0  0  0  0  0  0
   19.0776  -21.1429  -13.6142 C   0  0  0  0  0  0  0  0  0  0  0  0
   19.8311  -20.3277  -13.0177 O   0  0  0  0  0  0  0  0  0  0  0  0
   17.9602  -20.6241  -14.2512 O   0  0  0  0  0  0  0  0  0  0  0  0
  2  1  1  6
  2 13  1  0
  3  2  1  0
  4  3  1  0
  5  4  2  0
  6  5  1  0
  7  6  1  0
  7 12  2  0
  8  7  1  0
  9  8  2  0
  9 10  1  0
 10 11  2  0
 11 12  1  0
 12  4  1  0
 13 14  2  0
 15 13  1  0
 15 16  1  0
 17 19  1  0
 17 16  1  0
 18 17  2  0
 20 19  1  0
 20 21  1  1
 21 22  1  0
 23 20  1  0
 24 23  2  0
 25 23  1  0
M  END
$$$$
