FTM.pdb
     RDKit          3D

 27 27  0  0  1  0  0  0  0  0999 V2000
    8.3404  -17.4142   18.9696 N   0  0  0  0  0  0  0  0  0  0  0  0
    8.4248  -16.4356   20.0330 C   0  0  1  0  0  0  0  0  0  0  0  0
    7.2174  -15.5325   19.9524 C   0  0  0  0  0  0  0  0  0  0  0  0
    7.2562  -14.4582   20.9719 C   0  0  0  0  0  0  0  0  0  0  0  0
    6.7138  -14.7428   22.2284 C   0  0  0  0  0  0  0  0  0  0  0  0
    6.7026  -13.8183   23.2263 C   0  0  0  0  0  0  0  0  0  0  0  0
    7.2396  -12.5567   23.0056 C   0  0  0  0  0  0  0  0  0  0  0  0
    7.7775  -12.2738   21.7600 C   0  0  0  0  0  0  0  0  0  0  0  0
    7.7938  -13.2038   20.7416 C   0  0  0  0  0  0  0  0  0  0  0  0
    8.5578  -17.0845   21.3446 C   0  0  0  0  0  0  0  0  0  0  0  0
    8.0329  -18.1824   21.6453 O   0  0  0  0  0  0  0  0  0  0  0  0
    9.5924  -19.2457   22.4871 C   0  0  0  0  0  0  0  0  0  0  0  0
   10.3219  -18.3619   23.4700 C   0  0  1  0  0  0  0  0  0  0  0  0
   11.5551  -18.0743   22.8312 O   0  0  0  0  0  0  0  0  0  0  0  0
    9.5310  -17.0947   23.6601 C   0  0  2  0  0  0  0  0  0  0  0  0
    9.3236  -16.4490   22.3519 N   0  0  0  0  0  0  0  0  0  0  0  0
   10.3015  -16.1439   24.4738 C   0  0  0  0  0  0  0  0  0  0  0  0
   10.7742  -15.0774   23.9245 O   0  0  0  0  0  0  0  0  0  0  0  0
    7.4752  -11.7510   24.7323 C   0  0  0  0  0  0  0  0  0  0  0  0
    7.4144  -12.2982   26.4348 S   0  0  0  0  0  0  0  0  0  0  0  0
    8.8576  -13.1712   26.9797 C   0  0  0  0  0  0  0  0  0  0  0  0
    9.1791  -14.4646   26.3593 C   0  0  0  0  0  0  0  0  0  0  0  0
   10.4775  -15.0976   26.7372 C   0  0  2  0  0  0  0  0  0  0  0  0
   10.5724  -16.2983   25.8380 N   0  0  0  0  0  0  0  0  0  0  0  0
   10.4878  -15.5575   28.1254 C   0  0  0  0  0  0  0  0  0  0  0  0
    9.9512  -16.5857   28.5605 O   0  0  0  0  0  0  0  0  0  0  0  0
   11.1646  -14.7774   29.0782 O   0  0  0  0  0  0  0  0  0  0  0  0
  2  1  1  6
  2 10  1  0
  3  2  1  0
  3  4  1  0
  4  9  2  0
  5  4  1  0
  5  6  2  0
  6  7  1  0
  7  8  2  0
  9  8  1  0
 10 16  1  0
 11 10  2  0
 13 12  1  6
 13 14  1  0
 15 17  1  0
 15 13  1  0
 15 16  1  6
 17 24  1  0
 18 17  2  0
 19 20  1  0
 20 21  1  0
 23 22  1  6
 22 21  1  0
 23 25  1  0
 24 23  1  0
 25 26  2  0
 25 27  1  0
M  END
$$$$
