FTM.pdb
     RDKit          3D

 27 27  0  0  1  0  0  0  0  0999 V2000
    8.4561  -17.0389   17.9081 N   0  0  0  0  0  0  0  0  0  0  0  0
    8.5495  -16.1110   19.0152 C   0  0  1  0  0  0  0  0  0  0  0  0
    7.5843  -14.9753   18.7737 C   0  0  0  0  0  0  0  0  0  0  0  0
    7.5446  -14.0265   19.9108 C   0  0  0  0  0  0  0  0  0  0  0  0
    6.6795  -14.3239   20.9678 C   0  0  0  0  0  0  0  0  0  0  0  0
    6.5737  -13.5105   22.0532 C   0  0  0  0  0  0  0  0  0  0  0  0
    7.3378  -12.3531   22.1265 C   0  0  0  0  0  0  0  0  0  0  0  0
    8.1956  -12.0576   21.0788 C   0  0  0  0  0  0  0  0  0  0  0  0
    8.3103  -12.8753   19.9740 C   0  0  0  0  0  0  0  0  0  0  0  0
    8.3152  -16.7877   20.2984 C   0  0  0  0  0  0  0  0  0  0  0  0
    7.4089  -17.6307   20.4965 O   0  0  0  0  0  0  0  0  0  0  0  0
    9.4858  -19.4070   21.4844 C   0  0  0  0  0  0  0  0  0  0  0  0
   10.0237  -18.4552   22.5255 C   0  0  1  0  0  0  0  0  0  0  0  0
   11.2719  -18.0335   22.0001 O   0  0  0  0  0  0  0  0  0  0  0  0
    9.0874  -17.2812   22.6370 C   0  0  2  0  0  0  0  0  0  0  0  0
    9.1539  -16.4855   21.3985 N   0  0  0  0  0  0  0  0  0  0  0  0
    9.5273  -16.3944   23.7231 C   0  0  0  0  0  0  0  0  0  0  0  0
   10.4820  -15.5547   23.5083 O   0  0  0  0  0  0  0  0  0  0  0  0
    6.2731  -11.2013   26.1394 C   0  0  0  0  0  0  0  0  0  0  0  0
    6.7041  -12.7515   26.9222 S   0  0  0  0  0  0  0  0  0  0  0  0
    8.1353  -13.5465   26.2430 C   0  0  0  0  0  0  0  0  0  0  0  0
    8.5282  -14.8635   26.7647 C   0  0  0  0  0  0  0  0  0  0  0  0
    9.6548  -15.5608   26.0763 C   0  0  2  0  0  0  0  0  0  0  0  0
    8.9801  -16.3788   25.0110 N   0  0  0  0  0  0  0  0  0  0  0  0
   10.3748  -16.4681   26.9692 C   0  0  0  0  0  0  0  0  0  0  0  0
   10.1938  -17.6890   27.0745 O   0  0  0  0  0  0  0  0  0  0  0  0
   11.3734  -15.9297   27.7984 O   0  0  0  0  0  0  0  0  0  0  0  0
  2  1  1  6
  2 10  1  0
  3  2  1  0
  3  4  1  0
  4  9  2  0
  5  4  1  0
  5  6  2  0
  6  7  1  0
  7  8  2  0
  9  8  1  0
 10 16  1  0
 11 10  2  0
 13 12  1  6
 13 14  1  0
 15 17  1  0
 15 13  1  0
 15 16  1  6
 17 24  1  0
 18 17  2  0
 19 20  1  0
 20 21  1  0
 23 22  1  1
 22 21  1  0
 23 25  1  0
 24 23  1  0
 25 26  2  0
 25 27  1  0
M  END
$$$$
