FTM.pdb
     RDKit          3D

 27 27  0  0  1  0  0  0  0  0999 V2000
    8.0559  -17.3542   17.8797 N   0  0  0  0  0  0  0  0  0  0  0  0
    8.3775  -16.3683   18.8897 C   0  0  1  0  0  0  0  0  0  0  0  0
    7.4303  -15.2018   18.7419 C   0  0  0  0  0  0  0  0  0  0  0  0
    7.5789  -14.2205   19.8419 C   0  0  0  0  0  0  0  0  0  0  0  0
    8.4703  -13.1620   19.6445 C   0  0  0  0  0  0  0  0  0  0  0  0
    8.6741  -12.2140   20.5989 C   0  0  0  0  0  0  0  0  0  0  0  0
    7.9868  -12.2871   21.8033 C   0  0  0  0  0  0  0  0  0  0  0  0
    7.1029  -13.3364   21.9997 C   0  0  0  0  0  0  0  0  0  0  0  0
    6.8890  -14.3026   21.0389 C   0  0  0  0  0  0  0  0  0  0  0  0
    8.3444  -16.9552   20.2364 C   0  0  0  0  0  0  0  0  0  0  0  0
    7.3867  -17.6236   20.6917 O   0  0  0  0  0  0  0  0  0  0  0  0
   10.4535  -19.4491   21.4905 C   0  0  0  0  0  0  0  0  0  0  0  0
   10.6611  -18.3440   22.4978 C   0  0  1  0  0  0  0  0  0  0  0  0
   11.8412  -17.6904   22.0596 O   0  0  0  0  0  0  0  0  0  0  0  0
    9.4909  -17.3990   22.4267 C   0  0  2  0  0  0  0  0  0  0  0  0
    9.4543  -16.7680   21.0956 N   0  0  0  0  0  0  0  0  0  0  0  0
    9.6705  -16.3097   23.3967 C   0  0  0  0  0  0  0  0  0  0  0  0
   10.4441  -15.3208   23.1030 O   0  0  0  0  0  0  0  0  0  0  0  0
    5.8996  -11.9160   26.1380 C   0  0  0  0  0  0  0  0  0  0  0  0
    6.8156  -12.6149   27.5070 S   0  0  0  0  0  0  0  0  0  0  0  0
    8.2966  -13.4704   27.0419 C   0  0  0  0  0  0  0  0  0  0  0  0
    8.2309  -14.4622   25.9587 C   0  0  0  0  0  0  0  0  0  0  0  0
    9.4904  -15.1913   25.6250 C   0  0  2  0  0  0  0  0  0  0  0  0
    9.0519  -16.2482   24.6504 N   0  0  0  0  0  0  0  0  0  0  0  0
   10.0753  -15.8518   26.7913 C   0  0  0  0  0  0  0  0  0  0  0  0
    9.9683  -17.0504   27.0848 O   0  0  0  0  0  0  0  0  0  0  0  0
   10.8373  -15.0756   27.6812 O   0  0  0  0  0  0  0  0  0  0  0  0
  2  1  1  6
  2 10  1  0
  3  2  1  0
  3  4  1  0
  4  9  2  0
  5  4  1  0
  5  6  2  0
  6  7  1  0
  7  8  2  0
  9  8  1  0
 10 16  1  0
 11 10  2  0
 13 12  1  6
 13 14  1  0
 15 17  1  0
 15 13  1  0
 15 16  1  6
 17 24  1  0
 18 17  2  0
 19 20  1  0
 20 21  1  0
 23 22  1  1
 22 21  1  0
 23 25  1  0
 24 23  1  0
 25 26  2  0
 25 27  1  0
M  END
$$$$
