FTM.pdb
     RDKit          3D

 27 27  0  0  1  0  0  0  0  0999 V2000
    6.9523  -17.2340   19.9489 N   0  0  0  0  0  0  0  0  0  0  0  0
    8.0216  -17.2268   20.9246 C   0  0  1  0  0  0  0  0  0  0  0  0
    9.0408  -16.1913   20.5135 C   0  0  0  0  0  0  0  0  0  0  0  0
    8.4542  -14.8332   20.4339 C   0  0  0  0  0  0  0  0  0  0  0  0
    8.1337  -14.3434   19.1645 C   0  0  0  0  0  0  0  0  0  0  0  0
    7.5934  -13.1068   18.9928 C   0  0  0  0  0  0  0  0  0  0  0  0
    7.3487  -12.3002   20.0965 C   0  0  0  0  0  0  0  0  0  0  0  0
    7.6663  -12.7851   21.3554 C   0  0  0  0  0  0  0  0  0  0  0  0
    8.2144  -14.0373   21.5405 C   0  0  0  0  0  0  0  0  0  0  0  0
    7.5034  -17.0013   22.2810 C   0  0  0  0  0  0  0  0  0  0  0  0
    6.3728  -16.5229   22.5341 O   0  0  0  0  0  0  0  0  0  0  0  0
    6.4874  -19.2433   24.5768 C   0  0  0  0  0  0  0  0  0  0  0  0
    7.5733  -18.5500   25.3637 C   0  0  1  0  0  0  0  0  0  0  0  0
    8.7170  -19.3671   25.1737 O   0  0  0  0  0  0  0  0  0  0  0  0
    7.8076  -17.1873   24.7673 C   0  0  2  0  0  0  0  0  0  0  0  0
    8.3143  -17.3381   23.3918 N   0  0  0  0  0  0  0  0  0  0  0  0
    8.8571  -16.4873   25.5210 C   0  0  0  0  0  0  0  0  0  0  0  0
   10.0566  -16.4475   25.0494 O   0  0  0  0  0  0  0  0  0  0  0  0
    6.9509  -11.4115   25.6040 C   0  0  0  0  0  0  0  0  0  0  0  0
    7.4015  -12.9590   26.3811 S   0  0  0  0  0  0  0  0  0  0  0  0
    8.7911  -12.8557   27.4767 C   0  0  0  0  0  0  0  0  0  0  0  0
    9.2112  -14.0627   28.2031 C   0  0  0  0  0  0  0  0  0  0  0  0
    9.8311  -15.1594   27.4016 C   0  0  2  0  0  0  0  0  0  0  0  0
    8.6610  -15.8356   26.7438 N   0  0  0  0  0  0  0  0  0  0  0  0
   10.5196  -16.1395   28.2408 C   0  0  0  0  0  0  0  0  0  0  0  0
    9.9981  -17.1000   28.8237 O   0  0  0  0  0  0  0  0  0  0  0  0
   11.9067  -16.0024   28.4198 O   0  0  0  0  0  0  0  0  0  0  0  0
  2  1  1  6
  2 10  1  0
  3  2  1  0
  3  4  1  0
  4  9  2  0
  5  4  1  0
  5  6  2  0
  6  7  1  0
  7  8  2  0
  9  8  1  0
 10 16  1  0
 11 10  2  0
 13 12  1  6
 13 14  1  0
 15 17  1  0
 15 13  1  0
 15 16  1  6
 17 24  1  0
 18 17  2  0
 19 20  1  0
 20 21  1  0
 23 22  1  1
 22 21  1  0
 23 25  1  0
 24 23  1  0
 25 26  2  0
 25 27  1  0
M  END
$$$$
