FTM.pdb
     RDKit          3D

 27 27  0  0  1  0  0  0  0  0999 V2000
    7.7042  -15.1865   19.6479 N   0  0  0  0  0  0  0  0  0  0  0  0
    7.9713  -14.7717   21.0088 C   0  0  1  0  0  0  0  0  0  0  0  0
    6.8978  -13.7989   21.4345 C   0  0  0  0  0  0  0  0  0  0  0  0
    7.0767  -13.3495   22.8348 C   0  0  0  0  0  0  0  0  0  0  0  0
    6.3000  -13.9733   23.8156 C   0  0  0  0  0  0  0  0  0  0  0  0
    6.3940  -13.6256   25.1275 C   0  0  0  0  0  0  0  0  0  0  0  0
    7.2788  -12.6284   25.5164 C   0  0  0  0  0  0  0  0  0  0  0  0
    8.0490  -12.0094   24.5446 C   0  0  0  0  0  0  0  0  0  0  0  0
    7.9615  -12.3543   23.2120 C   0  0  0  0  0  0  0  0  0  0  0  0
    8.0728  -15.9293   21.9082 C   0  0  0  0  0  0  0  0  0  0  0  0
    7.3005  -16.9161   21.8783 O   0  0  0  0  0  0  0  0  0  0  0  0
    8.7574  -18.6541   21.8019 C   0  0  0  0  0  0  0  0  0  0  0  0
    9.8729  -18.2564   22.7382 C   0  0  1  0  0  0  0  0  0  0  0  0
   10.8766  -17.7347   21.8825 O   0  0  0  0  0  0  0  0  0  0  0  0
    9.3689  -17.1779   23.6603 C   0  0  2  0  0  0  0  0  0  0  0  0
    9.1014  -15.9563   22.8809 N   0  0  0  0  0  0  0  0  0  0  0  0
   10.4119  -16.8277   24.6345 C   0  0  0  0  0  0  0  0  0  0  0  0
   11.0802  -15.7355   24.4823 O   0  0  0  0  0  0  0  0  0  0  0  0
    8.6059  -13.5847   28.3764 C   0  0  0  0  0  0  0  0  0  0  0  0
   10.1632  -13.8465   29.2178 S   0  0  0  0  0  0  0  0  0  0  0  0
   11.0845  -15.2474   28.6428 C   0  0  0  0  0  0  0  0  0  0  0  0
   10.6496  -15.9244   27.4125 C   0  0  0  0  0  0  0  0  0  0  0  0
   11.5579  -16.9683   26.8516 C   0  0  2  0  0  0  0  0  0  0  0  0
   10.7515  -17.5995   25.7514 N   0  0  0  0  0  0  0  0  0  0  0  0
   11.8896  -18.0010   27.8326 C   0  0  0  0  0  0  0  0  0  0  0  0
   12.8537  -17.9900   28.6102 O   0  0  0  0  0  0  0  0  0  0  0  0
   11.0505  -19.1246   27.9232 O   0  0  0  0  0  0  0  0  0  0  0  0
  2  1  1  6
  2 10  1  0
  3  2  1  0
  3  4  1  0
  4  9  2  0
  5  4  1  0
  5  6  2  0
  6  7  1  0
  7  8  2  0
  9  8  1  0
 10 16  1  0
 11 10  2  0
 13 12  1  6
 13 14  1  0
 15 17  1  0
 15 13  1  0
 15 16  1  6
 17 24  1  0
 18 17  2  0
 19 20  1  0
 20 21  1  0
 23 22  1  1
 22 21  1  0
 23 25  1  0
 24 23  1  0
 25 26  2  0
 25 27  1  0
M  END
$$$$
