FTM.pdb
     RDKit          3D

 27 27  0  0  1  0  0  0  0  0999 V2000
    7.8539  -17.0601   20.2862 N   0  0  0  0  0  0  0  0  0  0  0  0
    8.4282  -16.3173   21.3880 C   0  0  1  0  0  0  0  0  0  0  0  0
    7.5091  -15.1673   21.7237 C   0  0  0  0  0  0  0  0  0  0  0  0
    7.6070  -14.0688   20.7345 C   0  0  0  0  0  0  0  0  0  0  0  0
    6.6803  -14.0601   19.6879 C   0  0  0  0  0  0  0  0  0  0  0  0
    6.6938  -13.0927   18.7315 C   0  0  0  0  0  0  0  0  0  0  0  0
    7.6458  -12.0829   18.7834 C   0  0  0  0  0  0  0  0  0  0  0  0
    8.5649  -12.0909   19.8207 C   0  0  0  0  0  0  0  0  0  0  0  0
    8.5599  -13.0669   20.7953 C   0  0  0  0  0  0  0  0  0  0  0  0
    8.6852  -17.1899   22.5420 C   0  0  0  0  0  0  0  0  0  0  0  0
    8.2776  -18.3714   22.6380 O   0  0  0  0  0  0  0  0  0  0  0  0
    9.7047  -19.5628   23.4812 C   0  0  0  0  0  0  0  0  0  0  0  0
   10.5016  -18.7162   24.4442 C   0  0  1  0  0  0  0  0  0  0  0  0
   11.6362  -18.3113   23.6955 O   0  0  0  0  0  0  0  0  0  0  0  0
    9.6791  -17.5139   24.8258 C   0  0  2  0  0  0  0  0  0  0  0  0
    9.4401  -16.6875   23.6295 N   0  0  0  0  0  0  0  0  0  0  0  0
   10.4326  -16.6730   25.7665 C   0  0  0  0  0  0  0  0  0  0  0  0
   11.4725  -16.0333   25.3517 O   0  0  0  0  0  0  0  0  0  0  0  0
    7.6129  -11.6055   25.9999 C   0  0  0  0  0  0  0  0  0  0  0  0
    8.1295  -12.5345   27.4393 S   0  0  0  0  0  0  0  0  0  0  0  0
    9.4968  -13.6271   27.1589 C   0  0  0  0  0  0  0  0  0  0  0  0
    9.9911  -14.4441   28.2766 C   0  0  0  0  0  0  0  0  0  0  0  0
   10.9330  -15.5541   27.9450 C   0  0  2  0  0  0  0  0  0  0  0  0
   10.1069  -16.4972   27.1160 N   0  0  0  0  0  0  0  0  0  0  0  0
   11.3925  -16.2669   29.1364 C   0  0  0  0  0  0  0  0  0  0  0  0
   10.8674  -17.2705   29.6378 O   0  0  0  0  0  0  0  0  0  0  0  0
   12.5380  -15.7891   29.7955 O   0  0  0  0  0  0  0  0  0  0  0  0
  2  1  1  6
  2 10  1  0
  3  2  1  0
  3  4  1  0
  4  9  2  0
  5  4  1  0
  5  6  2  0
  6  7  1  0
  7  8  2  0
  9  8  1  0
 10 16  1  0
 11 10  2  0
 13 12  1  6
 13 14  1  0
 15 17  1  0
 15 13  1  0
 15 16  1  6
 17 24  1  0
 18 17  2  0
 19 20  1  0
 20 21  1  0
 23 22  1  1
 22 21  1  0
 23 25  1  0
 24 23  1  0
 25 26  2  0
 25 27  1  0
M  END
$$$$
