FTM.pdb
     RDKit          3D

 27 27  0  0  1  0  0  0  0  0999 V2000
    7.0540  -17.5615   18.3452 N   0  0  0  0  0  0  0  0  0  0  0  0
    7.5490  -16.5390   19.2425 C   0  0  1  0  0  0  0  0  0  0  0  0
    6.5208  -15.4366   19.3293 C   0  0  0  0  0  0  0  0  0  0  0  0
    6.9706  -14.3222   20.1958 C   0  0  0  0  0  0  0  0  0  0  0  0
    7.7607  -13.3292   19.6096 C   0  0  0  0  0  0  0  0  0  0  0  0
    8.2220  -12.2691   20.3268 C   0  0  0  0  0  0  0  0  0  0  0  0
    7.9082  -12.1578   21.6750 C   0  0  0  0  0  0  0  0  0  0  0  0
    7.1249  -13.1421   22.2569 C   0  0  0  0  0  0  0  0  0  0  0  0
    6.6522  -14.2208   21.5389 C   0  0  0  0  0  0  0  0  0  0  0  0
    7.8854  -17.1019   20.5574 C   0  0  0  0  0  0  0  0  0  0  0  0
    7.0706  -17.7005   21.2984 O   0  0  0  0  0  0  0  0  0  0  0  0
   10.9953  -19.2324   21.0821 C   0  0  0  0  0  0  0  0  0  0  0  0
   11.0080  -18.1705   22.1551 C   0  0  1  0  0  0  0  0  0  0  0  0
   11.8765  -17.1713   21.6461 O   0  0  0  0  0  0  0  0  0  0  0  0
    9.6155  -17.6170   22.3040 C   0  0  2  0  0  0  0  0  0  0  0  0
    9.2096  -16.9732   21.0422 N   0  0  0  0  0  0  0  0  0  0  0  0
    9.6049  -16.5636   23.3286 C   0  0  0  0  0  0  0  0  0  0  0  0
    9.7812  -15.3357   22.9770 O   0  0  0  0  0  0  0  0  0  0  0  0
    7.5164  -11.2431   26.6134 C   0  0  0  0  0  0  0  0  0  0  0  0
    6.6909  -12.8110   26.3651 S   0  0  0  0  0  0  0  0  0  0  0  0
    7.6625  -14.2306   26.7923 C   0  0  0  0  0  0  0  0  0  0  0  0
    8.0066  -15.1963   25.7386 C   0  0  0  0  0  0  0  0  0  0  0  0
    9.4379  -15.6078   25.6324 C   0  0  2  0  0  0  0  0  0  0  0  0
    9.4101  -16.7839   24.6968 N   0  0  0  0  0  0  0  0  0  0  0  0
    9.9852  -16.0498   26.9145 C   0  0  0  0  0  0  0  0  0  0  0  0
   10.2147  -15.3339   27.8989 O   0  0  0  0  0  0  0  0  0  0  0  0
   10.2886  -17.4128   27.0724 O   0  0  0  0  0  0  0  0  0  0  0  0
  2  1  1  6
  2 10  1  0
  3  2  1  0
  3  4  1  0
  4  9  2  0
  5  4  1  0
  5  6  2  0
  6  7  1  0
  7  8  2  0
  9  8  1  0
 10 16  1  0
 11 10  2  0
 13 12  1  6
 13 14  1  0
 15 17  1  0
 15 13  1  0
 15 16  1  6
 17 24  1  0
 18 17  2  0
 19 20  1  0
 20 21  1  0
 23 22  1  1
 22 21  1  0
 23 25  1  0
 24 23  1  0
 25 26  2  0
 25 27  1  0
M  END
$$$$
