FTM.pdb
     RDKit          3D

 27 27  0  0  1  0  0  0  0  0999 V2000
    5.4400  -17.2842   25.0871 N   0  0  0  0  0  0  0  0  0  0  0  0
    6.4807  -16.3076   24.8444 C   0  0  1  0  0  0  0  0  0  0  0  0
    6.8133  -15.6248   26.1494 C   0  0  0  0  0  0  0  0  0  0  0  0
    6.8267  -14.1491   26.0185 C   0  0  0  0  0  0  0  0  0  0  0  0
    5.7722  -13.4412   26.6025 C   0  0  0  0  0  0  0  0  0  0  0  0
    5.6987  -12.0845   26.5319 C   0  0  0  0  0  0  0  0  0  0  0  0
    6.6882  -11.3725   25.8667 C   0  0  0  0  0  0  0  0  0  0  0  0
    7.7339  -12.0737   25.2875 C   0  0  0  0  0  0  0  0  0  0  0  0
    7.8180  -13.4489   25.3532 C   0  0  0  0  0  0  0  0  0  0  0  0
    7.6557  -16.9267   24.2158 C   0  0  0  0  0  0  0  0  0  0  0  0
    8.1100  -18.0534   24.5247 O   0  0  0  0  0  0  0  0  0  0  0  0
    9.7777  -14.8370   21.1063 C   0  0  0  0  0  0  0  0  0  0  0  0
    9.7380  -16.3427   21.2090 C   0  0  1  0  0  0  0  0  0  0  0  0
   10.9939  -16.7599   20.6987 O   0  0  0  0  0  0  0  0  0  0  0  0
    9.6177  -16.7252   22.6605 C   0  0  2  0  0  0  0  0  0  0  0  0
    8.3372  -16.2256   23.1915 N   0  0  0  0  0  0  0  0  0  0  0  0
   10.6749  -16.0649   23.4390 C   0  0  0  0  0  0  0  0  0  0  0  0
   10.9218  -14.8151   23.2399 O   0  0  0  0  0  0  0  0  0  0  0  0
   10.7376  -15.6304   29.6674 C   0  0  0  0  0  0  0  0  0  0  0  0
   10.4178  -14.4567   28.3553 S   0  0  0  0  0  0  0  0  0  0  0  0
   10.7887  -15.0525   26.7276 C   0  0  0  0  0  0  0  0  0  0  0  0
   12.0454  -15.7838   26.5106 C   0  0  0  0  0  0  0  0  0  0  0  0
   12.5322  -15.8998   25.1039 C   0  0  2  0  0  0  0  0  0  0  0  0
   11.4598  -16.6939   24.4119 N   0  0  0  0  0  0  0  0  0  0  0  0
   13.7893  -16.6412   25.0107 C   0  0  0  0  0  0  0  0  0  0  0  0
   13.9257  -17.8045   24.6075 O   0  0  0  0  0  0  0  0  0  0  0  0
   14.9719  -15.9957   25.4102 O   0  0  0  0  0  0  0  0  0  0  0  0
  2  1  1  1
  2 10  1  0
  3  2  1  0
  3  4  1  0
  4  9  2  0
  5  4  1  0
  5  6  2  0
  6  7  1  0
  7  8  2  0
  9  8  1  0
 10 16  1  0
 11 10  2  0
 13 12  1  1
 13 14  1  0
 15 17  1  0
 15 13  1  0
 15 16  1  1
 17 24  1  0
 18 17  2  0
 19 20  1  0
 20 21  1  0
 23 22  1  1
 22 21  1  0
 23 25  1  0
 24 23  1  0
 25 26  2  0
 25 27  1  0
M  END
$$$$
