FTM.pdb
     RDKit          3D

 27 27  0  0  1  0  0  0  0  0999 V2000
    5.7614  -16.0419   25.2754 N   0  0  0  0  0  0  0  0  0  0  0  0
    6.9332  -15.3736   24.7502 C   0  0  1  0  0  0  0  0  0  0  0  0
    7.5859  -14.5973   25.8688 C   0  0  0  0  0  0  0  0  0  0  0  0
    6.8869  -13.3201   26.1424 C   0  0  0  0  0  0  0  0  0  0  0  0
    7.5212  -12.1403   25.7427 C   0  0  0  0  0  0  0  0  0  0  0  0
    6.9570  -10.9205   25.9538 C   0  0  0  0  0  0  0  0  0  0  0  0
    5.7210  -10.8300   26.5806 C   0  0  0  0  0  0  0  0  0  0  0  0
    5.0916  -11.9993   26.9772 C   0  0  0  0  0  0  0  0  0  0  0  0
    5.6549  -13.2408   26.7680 C   0  0  0  0  0  0  0  0  0  0  0  0
    7.8516  -16.3292   24.1156 C   0  0  0  0  0  0  0  0  0  0  0  0
    7.9136  -17.5472   24.4051 O   0  0  0  0  0  0  0  0  0  0  0  0
    8.3305  -16.5322   20.4419 C   0  0  0  0  0  0  0  0  0  0  0  0
    9.7376  -16.5046   20.9880 C   0  0  1  0  0  0  0  0  0  0  0  0
   10.1720  -15.1731   20.7644 O   0  0  0  0  0  0  0  0  0  0  0  0
    9.6884  -16.7903   22.4657 C   0  0  2  0  0  0  0  0  0  0  0  0
    8.7343  -15.8694   23.1084 N   0  0  0  0  0  0  0  0  0  0  0  0
   10.9997  -16.5163   23.0700 C   0  0  0  0  0  0  0  0  0  0  0  0
   11.4122  -15.2983   23.1637 O   0  0  0  0  0  0  0  0  0  0  0  0
   10.2673  -13.5619   27.3522 C   0  0  0  0  0  0  0  0  0  0  0  0
   11.4523  -14.8415   27.7522 S   0  0  0  0  0  0  0  0  0  0  0  0
   12.4308  -15.3937   26.3813 C   0  0  0  0  0  0  0  0  0  0  0  0
   12.1340  -16.7025   25.7811 C   0  0  0  0  0  0  0  0  0  0  0  0
   12.9158  -17.0896   24.5694 C   0  0  2  0  0  0  0  0  0  0  0  0
   11.8660  -17.4937   23.5725 N   0  0  0  0  0  0  0  0  0  0  0  0
   13.7872  -18.2383   24.8145 C   0  0  0  0  0  0  0  0  0  0  0  0
   13.4472  -19.4294   24.8124 O   0  0  0  0  0  0  0  0  0  0  0  0
   15.1457  -17.9963   25.0803 O   0  0  0  0  0  0  0  0  0  0  0  0
  2  1  1  1
  2 10  1  0
  3  2  1  0
  3  4  1  0
  4  9  2  0
  5  4  1  0
  5  6  2  0
  6  7  1  0
  7  8  2  0
  9  8  1  0
 10 16  1  0
 11 10  2  0
 13 12  1  1
 13 14  1  0
 15 17  1  0
 15 13  1  0
 15 16  1  1
 17 24  1  0
 18 17  2  0
 19 20  1  0
 20 21  1  0
 23 22  1  1
 22 21  1  0
 23 25  1  0
 24 23  1  0
 25 26  2  0
 25 27  1  0
M  END
$$$$
