FTM.pdb
     RDKit          3D

 27 27  0  0  1  0  0  0  0  0999 V2000
    8.4282  -16.9641   19.0504 N   0  0  0  0  0  0  0  0  0  0  0  0
    9.5473  -16.7818   19.9504 C   0  0  1  0  0  0  0  0  0  0  0  0
   10.0569  -15.3681   19.8039 C   0  0  0  0  0  0  0  0  0  0  0  0
    9.0364  -14.3652   20.1882 C   0  0  0  0  0  0  0  0  0  0  0  0
    8.1703  -13.9122   19.1889 C   0  0  0  0  0  0  0  0  0  0  0  0
    7.2033  -12.9907   19.4472 C   0  0  0  0  0  0  0  0  0  0  0  0
    7.0616  -12.4789   20.7304 C   0  0  0  0  0  0  0  0  0  0  0  0
    7.9200  -12.9276   21.7217 C   0  0  0  0  0  0  0  0  0  0  0  0
    8.9036  -13.8613   21.4704 C   0  0  0  0  0  0  0  0  0  0  0  0
    9.1760  -17.1073   21.3344 C   0  0  0  0  0  0  0  0  0  0  0  0
    8.0402  -16.9083   21.8259 O   0  0  0  0  0  0  0  0  0  0  0  0
   10.2185  -20.4271   22.9973 C   0  0  0  0  0  0  0  0  0  0  0  0
   10.5824  -19.3085   23.9436 C   0  0  1  0  0  0  0  0  0  0  0  0
   11.9650  -19.0925   23.7122 O   0  0  0  0  0  0  0  0  0  0  0  0
    9.7976  -18.0804   23.5650 C   0  0  2  0  0  0  0  0  0  0  0  0
   10.1463  -17.6844   22.1892 N   0  0  0  0  0  0  0  0  0  0  0  0
   10.1831  -16.9565   24.4299 C   0  0  0  0  0  0  0  0  0  0  0  0
   10.9951  -16.0610   23.9811 O   0  0  0  0  0  0  0  0  0  0  0  0
    6.7713  -12.1993   26.5310 C   0  0  0  0  0  0  0  0  0  0  0  0
    7.8022  -12.5477   27.9514 S   0  0  0  0  0  0  0  0  0  0  0  0
    9.2170  -13.5577   27.6045 C   0  0  0  0  0  0  0  0  0  0  0  0
    9.0489  -14.7424   26.7506 C   0  0  0  0  0  0  0  0  0  0  0  0
   10.2524  -15.5973   26.5266 C   0  0  2  0  0  0  0  0  0  0  0  0
    9.7279  -16.7653   25.7393 N   0  0  0  0  0  0  0  0  0  0  0  0
   10.8174  -16.0998   27.7784 C   0  0  0  0  0  0  0  0  0  0  0  0
   11.4442  -15.4379   28.6171 O   0  0  0  0  0  0  0  0  0  0  0  0
   10.6472  -17.4607   28.0846 O   0  0  0  0  0  0  0  0  0  0  0  0
  2  1  1  6
  2 10  1  0
  3  2  1  0
  3  4  1  0
  4  9  2  0
  5  4  1  0
  5  6  2  0
  6  7  1  0
  7  8  2  0
  9  8  1  0
 10 16  1  0
 11 10  2  0
 13 12  1  6
 13 14  1  0
 15 17  1  0
 15 13  1  0
 15 16  1  6
 17 24  1  0
 18 17  2  0
 19 20  1  0
 20 21  1  0
 23 22  1  1
 22 21  1  0
 23 25  1  0
 24 23  1  0
 25 26  2  0
 25 27  1  0
M  END
$$$$
