FTM.pdb
     RDKit          3D

 27 27  0  0  1  0  0  0  0  0999 V2000
    7.5279  -15.1740   19.8291 N   0  0  0  0  0  0  0  0  0  0  0  0
    7.9545  -14.7536   21.1470 C   0  0  1  0  0  0  0  0  0  0  0  0
    6.9077  -13.8278   21.7188 C   0  0  0  0  0  0  0  0  0  0  0  0
    7.2607  -13.3605   23.0797 C   0  0  0  0  0  0  0  0  0  0  0  0
    7.9635  -12.1567   23.1851 C   0  0  0  0  0  0  0  0  0  0  0  0
    8.3326  -11.6499   24.3925 C   0  0  0  0  0  0  0  0  0  0  0  0
    8.0101  -12.3343   25.5570 C   0  0  0  0  0  0  0  0  0  0  0  0
    7.3134  -13.5279   25.4532 C   0  0  0  0  0  0  0  0  0  0  0  0
    6.9345  -14.0504   24.2342 C   0  0  0  0  0  0  0  0  0  0  0  0
    8.2202  -15.9095   22.0146 C   0  0  0  0  0  0  0  0  0  0  0  0
    7.4649  -16.9048   22.1153 O   0  0  0  0  0  0  0  0  0  0  0  0
   11.2713  -19.1560   23.1565 C   0  0  0  0  0  0  0  0  0  0  0  0
   10.6844  -17.9578   22.4499 C   0  0  1  0  0  0  0  0  0  0  0  0
    9.8428  -18.5179   21.4551 O   0  0  0  0  0  0  0  0  0  0  0  0
    9.8640  -17.1691   23.4360 C   0  0  2  0  0  0  0  0  0  0  0  0
    9.3996  -15.9246   22.7981 N   0  0  0  0  0  0  0  0  0  0  0  0
   10.7040  -16.7640   24.5717 C   0  0  0  0  0  0  0  0  0  0  0  0
   11.0757  -15.5339   24.6780 O   0  0  0  0  0  0  0  0  0  0  0  0
    8.3652  -13.4063   27.9725 C   0  0  0  0  0  0  0  0  0  0  0  0
    8.6557  -14.7872   29.0726 S   0  0  0  0  0  0  0  0  0  0  0  0
   10.0654  -15.7773   28.6554 C   0  0  0  0  0  0  0  0  0  0  0  0
   10.1649  -16.3308   27.2971 C   0  0  0  0  0  0  0  0  0  0  0  0
   11.4210  -17.0586   26.9482 C   0  0  2  0  0  0  0  0  0  0  0  0
   11.1468  -17.6242   25.5828 N   0  0  0  0  0  0  0  0  0  0  0  0
   11.6923  -18.1677   27.8621 C   0  0  0  0  0  0  0  0  0  0  0  0
   11.2742  -19.3283   27.7501 O   0  0  0  0  0  0  0  0  0  0  0  0
   12.5028  -17.9210   28.9832 O   0  0  0  0  0  0  0  0  0  0  0  0
  2  1  1  6
  2 10  1  0
  3  2  1  0
  3  4  1  0
  4  9  2  0
  5  4  1  0
  5  6  2  0
  6  7  1  0
  7  8  2  0
  9  8  1  0
 10 16  1  0
 11 10  2  0
 13 12  1  1
 13 14  1  0
 15 17  1  0
 15 13  1  0
 15 16  1  6
 17 24  1  0
 18 17  2  0
 19 20  1  0
 20 21  1  0
 23 22  1  1
 22 21  1  0
 23 25  1  0
 24 23  1  0
 25 26  2  0
 25 27  1  0
M  END
$$$$
