FTM.pdb
     RDKit          3D

 27 27  0  0  1  0  0  0  0  0999 V2000
    5.5462  -17.0407   25.2443 N   0  0  0  0  0  0  0  0  0  0  0  0
    6.6043  -16.1239   24.8761 C   0  0  1  0  0  0  0  0  0  0  0  0
    6.9225  -15.2530   26.0678 C   0  0  0  0  0  0  0  0  0  0  0  0
    6.6109  -13.8269   25.8147 C   0  0  0  0  0  0  0  0  0  0  0  0
    5.4711  -13.2982   26.4275 C   0  0  0  0  0  0  0  0  0  0  0  0
    5.1043  -11.9999   26.2517 C   0  0  0  0  0  0  0  0  0  0  0  0
    5.8713  -11.1681   25.4466 C   0  0  0  0  0  0  0  0  0  0  0  0
    7.0014  -11.6916   24.8386 C   0  0  0  0  0  0  0  0  0  0  0  0
    7.3821  -13.0062   25.0102 C   0  0  0  0  0  0  0  0  0  0  0  0
    7.7820  -16.8444   24.3730 C   0  0  0  0  0  0  0  0  0  0  0  0
    8.1624  -17.9600   24.7997 O   0  0  0  0  0  0  0  0  0  0  0  0
    8.7287  -17.0186   20.6500 C   0  0  0  0  0  0  0  0  0  0  0  0
    9.9746  -16.6081   21.3973 C   0  0  1  0  0  0  0  0  0  0  0  0
   10.0519  -15.2054   21.2017 O   0  0  0  0  0  0  0  0  0  0  0  0
    9.7850  -16.9159   22.8591 C   0  0  2  0  0  0  0  0  0  0  0  0
    8.5546  -16.2622   23.3390 N   0  0  0  0  0  0  0  0  0  0  0  0
   10.8906  -16.3396   23.6371 C   0  0  0  0  0  0  0  0  0  0  0  0
   11.1105  -15.0703   23.5815 O   0  0  0  0  0  0  0  0  0  0  0  0
   11.1911  -16.6600   29.7020 C   0  0  0  0  0  0  0  0  0  0  0  0
   10.4023  -15.5187   28.5719 S   0  0  0  0  0  0  0  0  0  0  0  0
   11.1052  -15.4892   26.9450 C   0  0  0  0  0  0  0  0  0  0  0  0
   12.2567  -16.3559   26.6554 C   0  0  0  0  0  0  0  0  0  0  0  0
   12.7908  -16.3364   25.2612 C   0  0  2  0  0  0  0  0  0  0  0  0
   11.7511  -17.0718   24.4628 N   0  0  0  0  0  0  0  0  0  0  0  0
   14.0589  -17.0550   25.1423 C   0  0  0  0  0  0  0  0  0  0  0  0
   14.2116  -18.2041   24.7056 O   0  0  0  0  0  0  0  0  0  0  0  0
   15.2330  -16.4027   25.5555 O   0  0  0  0  0  0  0  0  0  0  0  0
  2  1  1  1
  2 10  1  0
  3  2  1  0
  3  4  1  0
  4  9  2  0
  5  4  1  0
  5  6  2  0
  6  7  1  0
  7  8  2  0
  9  8  1  0
 10 16  1  0
 11 10  2  0
 13 12  1  6
 13 14  1  0
 15 17  1  0
 15 13  1  0
 15 16  1  1
 17 24  1  0
 18 17  2  0
 19 20  1  0
 20 21  1  0
 23 22  1  1
 22 21  1  0
 23 25  1  0
 24 23  1  0
 25 26  2  0
 25 27  1  0
M  END
$$$$
