FTM.pdb
     RDKit          3D

 27 27  0  0  1  0  0  0  0  0999 V2000
    5.6836  -16.7487   23.4223 N   0  0  0  0  0  0  0  0  0  0  0  0
    6.8999  -16.1057   23.8725 C   0  0  1  0  0  0  0  0  0  0  0  0
    6.7091  -15.6640   25.3037 C   0  0  0  0  0  0  0  0  0  0  0  0
    6.5991  -14.1913   25.4224 C   0  0  0  0  0  0  0  0  0  0  0  0
    5.5356  -13.6835   26.1742 C   0  0  0  0  0  0  0  0  0  0  0  0
    5.3525  -12.3453   26.3371 C   0  0  0  0  0  0  0  0  0  0  0  0
    6.2357  -11.4502   25.7477 C   0  0  0  0  0  0  0  0  0  0  0  0
    7.2902  -11.9530   25.0022 C   0  0  0  0  0  0  0  0  0  0  0  0
    7.4849  -13.3077   24.8309 C   0  0  0  0  0  0  0  0  0  0  0  0
    8.0625  -16.9884   23.7044 C   0  0  0  0  0  0  0  0  0  0  0  0
    8.0194  -18.2378   23.7970 O   0  0  0  0  0  0  0  0  0  0  0  0
    9.9999  -17.0759   20.7213 C   0  0  0  0  0  0  0  0  0  0  0  0
   11.0588  -16.8751   21.7784 C   0  0  1  0  0  0  0  0  0  0  0  0
   11.3178  -15.4808   21.7516 O   0  0  0  0  0  0  0  0  0  0  0  0
   10.4881  -17.2685   23.1152 C   0  0  2  0  0  0  0  0  0  0  0  0
    9.3255  -16.4154   23.4187 N   0  0  0  0  0  0  0  0  0  0  0  0
   11.4759  -17.0140   24.1731 C   0  0  0  0  0  0  0  0  0  0  0  0
   11.9488  -15.8242   24.3257 O   0  0  0  0  0  0  0  0  0  0  0  0
   11.0849  -13.0298   27.8671 C   0  0  0  0  0  0  0  0  0  0  0  0
   10.8741  -14.5716   28.7505 S   0  0  0  0  0  0  0  0  0  0  0  0
   11.8980  -15.8977   28.1720 C   0  0  0  0  0  0  0  0  0  0  0  0
   11.6422  -16.4596   26.8379 C   0  0  0  0  0  0  0  0  0  0  0  0
   12.5639  -17.5340   26.3627 C   0  0  2  0  0  0  0  0  0  0  0  0
   11.9610  -17.9812   25.0606 N   0  0  0  0  0  0  0  0  0  0  0  0
   12.5990  -18.6780   27.2731 C   0  0  0  0  0  0  0  0  0  0  0  0
   11.8529  -19.6661   27.2371 O   0  0  0  0  0  0  0  0  0  0  0  0
   13.5623  -18.6829   28.2962 O   0  0  0  0  0  0  0  0  0  0  0  0
  2  1  1  1
  2 10  1  0
  3  2  1  0
  3  4  1  0
  4  9  2  0
  5  4  1  0
  5  6  2  0
  6  7  1  0
  7  8  2  0
  9  8  1  0
 10 16  1  0
 11 10  2  0
 13 12  1  6
 13 14  1  0
 15 17  1  0
 15 13  1  0
 15 16  1  1
 17 24  1  0
 18 17  2  0
 19 20  1  0
 20 21  1  0
 23 22  1  1
 22 21  1  0
 23 25  1  0
 24 23  1  0
 25 26  2  0
 25 27  1  0
M  END
$$$$
