FTM.pdb
     RDKit          3D

 27 27  0  0  1  0  0  0  0  0999 V2000
    8.3467  -17.6577   19.5621 N   0  0  0  0  0  0  0  0  0  0  0  0
    8.4016  -16.5691   20.5148 C   0  0  1  0  0  0  0  0  0  0  0  0
    7.2556  -15.6267   20.2349 C   0  0  0  0  0  0  0  0  0  0  0  0
    7.2042  -14.5083   21.2052 C   0  0  0  0  0  0  0  0  0  0  0  0
    7.8048  -13.3028   20.8308 C   0  0  0  0  0  0  0  0  0  0  0  0
    7.8093  -12.2218   21.6567 C   0  0  0  0  0  0  0  0  0  0  0  0
    7.2065  -12.3033   22.9051 C   0  0  0  0  0  0  0  0  0  0  0  0
    6.6109  -13.4982   23.2769 C   0  0  0  0  0  0  0  0  0  0  0  0
    6.6007  -14.6001   22.4473 C   0  0  0  0  0  0  0  0  0  0  0  0
    8.3961  -17.0698   21.8963 C   0  0  0  0  0  0  0  0  0  0  0  0
    7.4526  -17.7166   22.4088 O   0  0  0  0  0  0  0  0  0  0  0  0
    9.9816  -19.6486   23.2889 C   0  0  0  0  0  0  0  0  0  0  0  0
   10.5500  -18.5212   24.1167 C   0  0  1  0  0  0  0  0  0  0  0  0
   11.7491  -18.1675   23.4468 O   0  0  0  0  0  0  0  0  0  0  0  0
    9.5837  -17.3667   24.0896 C   0  0  2  0  0  0  0  0  0  0  0  0
    9.5177  -16.8186   22.7234 N   0  0  0  0  0  0  0  0  0  0  0  0
   10.0796  -16.2816   24.9477 C   0  0  0  0  0  0  0  0  0  0  0  0
   11.0440  -15.5342   24.5306 O   0  0  0  0  0  0  0  0  0  0  0  0
    7.0578  -12.3036   25.2403 C   0  0  0  0  0  0  0  0  0  0  0  0
    8.2690  -11.5600   26.3274 S   0  0  0  0  0  0  0  0  0  0  0  0
    9.6351  -12.6125   26.7374 C   0  0  0  0  0  0  0  0  0  0  0  0
    9.3624  -13.9184   27.3549 C   0  0  0  0  0  0  0  0  0  0  0  0
   10.3388  -15.0158   27.0876 C   0  0  2  0  0  0  0  0  0  0  0  0
    9.5775  -15.9766   26.2178 N   0  0  0  0  0  0  0  0  0  0  0  0
   10.7374  -15.7141   28.3091 C   0  0  0  0  0  0  0  0  0  0  0  0
   10.2656  -16.7787   28.7316 O   0  0  0  0  0  0  0  0  0  0  0  0
   11.7513  -15.1451   29.0984 O   0  0  0  0  0  0  0  0  0  0  0  0
  2  1  1  6
  2 10  1  0
  3  2  1  0
  3  4  1  0
  4  9  2  0
  5  4  1  0
  5  6  2  0
  6  7  1  0
  7  8  2  0
  9  8  1  0
 10 16  1  0
 11 10  2  0
 13 12  1  6
 13 14  1  0
 15 17  1  0
 15 13  1  0
 15 16  1  6
 17 24  1  0
 18 17  2  0
 19 20  1  0
 20 21  1  0
 23 22  1  1
 22 21  1  0
 23 25  1  0
 24 23  1  0
 25 26  2  0
 25 27  1  0
M  END
$$$$
