FTM.pdb
     RDKit          3D

 27 27  0  0  1  0  0  0  0  0999 V2000
    8.4310  -17.6196   19.1810 N   0  0  0  0  0  0  0  0  0  0  0  0
    8.4385  -16.7562   20.3430 C   0  0  1  0  0  0  0  0  0  0  0  0
    7.1484  -15.9721   20.3679 C   0  0  0  0  0  0  0  0  0  0  0  0
    7.3764  -14.5324   20.6330 C   0  0  0  0  0  0  0  0  0  0  0  0
    7.0753  -14.0577   21.9129 C   0  0  0  0  0  0  0  0  0  0  0  0
    7.2502  -12.7508   22.2480 C   0  0  0  0  0  0  0  0  0  0  0  0
    7.7389  -11.8552   21.3058 C   0  0  0  0  0  0  0  0  0  0  0  0
    8.0376  -12.3252   20.0367 C   0  0  0  0  0  0  0  0  0  0  0  0
    7.8640  -13.6480   19.6867 C   0  0  0  0  0  0  0  0  0  0  0  0
    8.6556  -17.5251   21.5763 C   0  0  0  0  0  0  0  0  0  0  0  0
    8.1712  -18.6604   21.7947 O   0  0  0  0  0  0  0  0  0  0  0  0
    9.6769  -19.8411   22.6951 C   0  0  0  0  0  0  0  0  0  0  0  0
   10.4699  -18.9374   23.6081 C   0  0  1  0  0  0  0  0  0  0  0  0
   11.6329  -18.6206   22.8605 O   0  0  0  0  0  0  0  0  0  0  0  0
    9.6681  -17.6898   23.8690 C   0  0  2  0  0  0  0  0  0  0  0  0
    9.4608  -16.9697   22.6002 N   0  0  0  0  0  0  0  0  0  0  0  0
   10.4277  -16.7826   24.7407 C   0  0  0  0  0  0  0  0  0  0  0  0
   11.5222  -16.2563   24.3077 O   0  0  0  0  0  0  0  0  0  0  0  0
    6.6446  -12.2195   26.7168 C   0  0  0  0  0  0  0  0  0  0  0  0
    8.4299  -12.3399   26.7218 S   0  0  0  0  0  0  0  0  0  0  0  0
    9.0560  -13.9963   26.8007 C   0  0  0  0  0  0  0  0  0  0  0  0
   10.5081  -14.2092   26.7155 C   0  0  0  0  0  0  0  0  0  0  0  0
   11.0019  -15.6095   26.8720 C   0  0  2  0  0  0  0  0  0  0  0  0
   10.0522  -16.4256   26.0406 N   0  0  0  0  0  0  0  0  0  0  0  0
   10.9220  -16.0750   28.2561 C   0  0  0  0  0  0  0  0  0  0  0  0
   10.1206  -16.9063   28.7044 O   0  0  0  0  0  0  0  0  0  0  0  0
   11.8301  -15.5448   29.1883 O   0  0  0  0  0  0  0  0  0  0  0  0
  2  1  1  6
  2 10  1  0
  3  2  1  0
  3  4  1  0
  4  9  2  0
  5  4  1  0
  5  6  2  0
  6  7  1  0
  7  8  2  0
  9  8  1  0
 10 16  1  0
 11 10  2  0
 13 12  1  6
 13 14  1  0
 15 17  1  0
 15 13  1  0
 15 16  1  6
 17 24  1  0
 18 17  2  0
 19 20  1  0
 20 21  1  0
 23 22  1  1
 22 21  1  0
 23 25  1  0
 24 23  1  0
 25 26  2  0
 25 27  1  0
M  END
$$$$
