FTM.pdb
     RDKit          3D

 27 27  0  0  1  0  0  0  0  0999 V2000
    5.5072  -16.9174   24.7773 N   0  0  0  0  0  0  0  0  0  0  0  0
    6.6858  -16.1113   24.5391 C   0  0  1  0  0  0  0  0  0  0  0  0
    6.9743  -15.3024   25.7810 C   0  0  0  0  0  0  0  0  0  0  0  0
    6.6257  -13.8728   25.6083 C   0  0  0  0  0  0  0  0  0  0  0  0
    5.4939  -13.4003   26.2789 C   0  0  0  0  0  0  0  0  0  0  0  0
    5.0951  -12.1035   26.1785 C   0  0  0  0  0  0  0  0  0  0  0  0
    5.8205  -11.2162   25.3943 C   0  0  0  0  0  0  0  0  0  0  0  0
    6.9428  -11.6840   24.7290 C   0  0  0  0  0  0  0  0  0  0  0  0
    7.3556  -12.9967   24.8240 C   0  0  0  0  0  0  0  0  0  0  0  0
    7.8259  -16.9429   24.1297 C   0  0  0  0  0  0  0  0  0  0  0  0
    7.9862  -18.1384   24.4711 O   0  0  0  0  0  0  0  0  0  0  0  0
    9.0542  -17.2676   20.6518 C   0  0  0  0  0  0  0  0  0  0  0  0
   10.2961  -16.9409   21.4456 C   0  0  1  0  0  0  0  0  0  0  0  0
   10.5147  -15.5615   21.1983 O   0  0  0  0  0  0  0  0  0  0  0  0
   10.0086  -17.1643   22.9067 C   0  0  2  0  0  0  0  0  0  0  0  0
    8.8224  -16.3811   23.2952 N   0  0  0  0  0  0  0  0  0  0  0  0
   11.1241  -16.6561   23.7173 C   0  0  0  0  0  0  0  0  0  0  0  0
   11.4502  -15.4112   23.6370 O   0  0  0  0  0  0  0  0  0  0  0  0
   10.7726  -13.6947   28.2318 C   0  0  0  0  0  0  0  0  0  0  0  0
   10.7441  -15.4408   28.6216 S   0  0  0  0  0  0  0  0  0  0  0  0
   11.4937  -16.4809   27.3975 C   0  0  0  0  0  0  0  0  0  0  0  0
   12.2717  -15.8563   26.3179 C   0  0  0  0  0  0  0  0  0  0  0  0
   12.9886  -16.7689   25.3785 C   0  0  2  0  0  0  0  0  0  0  0  0
   11.8856  -17.4300   24.6003 N   0  0  0  0  0  0  0  0  0  0  0  0
   13.7448  -17.8055   26.0802 C   0  0  0  0  0  0  0  0  0  0  0  0
   14.8067  -17.6464   26.6978 O   0  0  0  0  0  0  0  0  0  0  0  0
   13.2409  -19.1173   26.0692 O   0  0  0  0  0  0  0  0  0  0  0  0
  2  1  1  1
  2 10  1  0
  3  2  1  0
  3  4  1  0
  4  9  2  0
  5  4  1  0
  5  6  2  0
  6  7  1  0
  7  8  2  0
  9  8  1  0
 10 16  1  0
 11 10  2  0
 13 12  1  6
 13 14  1  0
 15 17  1  0
 15 13  1  0
 15 16  1  1
 17 24  1  0
 18 17  2  0
 19 20  1  0
 20 21  1  0
 23 22  1  1
 22 21  1  0
 23 25  1  0
 24 23  1  0
 25 26  2  0
 25 27  1  0
M  END
$$$$
