ISM.pdb
     RDKit          3D

 23 22  0  0  1  0  0  0  0  0999 V2000
    7.9069  -11.8545   18.9462 C   0  0  0  0  0  0  0  0  0  0  0  0
    7.9935  -13.3696   18.7604 C   0  0  0  0  0  0  0  0  0  0  0  0
    8.2437  -14.0079   20.0908 C   0  0  2  0  0  0  0  0  0  0  0  0
    9.4644  -13.4552   20.7809 C   0  0  0  0  0  0  0  0  0  0  0  0
    8.1967  -15.5203   20.0759 C   0  0  2  0  0  0  0  0  0  0  0  0
    6.9466  -15.8738   19.4375 N   0  0  0  0  0  0  0  0  0  0  0  0
    8.3008  -16.0119   21.4486 C   0  0  0  0  0  0  0  0  0  0  0  0
    7.3607  -15.8475   22.2640 O   0  0  0  0  0  0  0  0  0  0  0  0
   11.8221  -17.7655   23.0498 O   0  0  0  0  0  0  0  0  0  0  0  0
   10.5796  -18.3891   23.2352 C   0  0  0  0  0  0  0  0  0  0  0  0
    9.5423  -17.2813   23.2595 C   0  0  2  0  0  0  0  0  0  0  0  0
    9.4484  -16.7020   21.9657 N   0  0  0  0  0  0  0  0  0  0  0  0
    9.9352  -16.3270   24.3235 C   0  0  0  0  0  0  0  0  0  0  0  0
   10.3057  -15.1920   23.9259 O   0  0  0  0  0  0  0  0  0  0  0  0
    5.9343  -13.6581   27.1740 C   0  0  0  0  0  0  0  0  0  0  0  0
    7.3195  -12.4883   27.4232 S   0  0  0  0  0  0  0  0  0  0  0  0
    8.8177  -13.5400   27.6373 C   0  0  0  0  0  0  0  0  0  0  0  0
    8.7870  -14.6453   26.6316 C   0  0  0  0  0  0  0  0  0  0  0  0
    9.9777  -15.5296   26.6909 C   0  0  2  0  0  0  0  0  0  0  0  0
    9.9213  -16.5971   25.6911 N   0  0  0  0  0  0  0  0  0  0  0  0
   10.2819  -16.0916   28.0329 C   0  0  0  0  0  0  0  0  0  0  0  0
   10.0849  -17.2621   28.3911 O   0  0  0  0  0  0  0  0  0  0  0  0
   10.8451  -15.2559   29.0233 O   0  0  0  0  0  0  0  0  0  0  0  0
  2  1  1  0
  3  4  1  6
  3  2  1  0
  5  6  1  1
  5  3  1  0
  7  5  1  0
  8  7  2  0
  9 10  1  0
 11 10  1  6
 11 12  1  0
 12  7  1  0
 13 11  1  0
 13 20  1  0
 14 13  2  0
 15 16  1  0
 17 16  1  0
 18 17  1  0
 19 20  1  0
 19 18  1  1
 19 21  1  0
 21 23  1  0
 22 21  2  0
M  END
$$$$
