ISM.pdb
     RDKit          3D

 23 22  0  0  1  0  0  0  0  0999 V2000
    7.7040  -11.9931   19.3864 C   0  0  0  0  0  0  0  0  0  0  0  0
    7.7651  -13.5023   19.1500 C   0  0  0  0  0  0  0  0  0  0  0  0
    8.0696  -14.1844   20.4470 C   0  0  2  0  0  0  0  0  0  0  0  0
    9.2644  -13.5923   21.1494 C   0  0  0  0  0  0  0  0  0  0  0  0
    8.1113  -15.6947   20.3629 C   0  0  2  0  0  0  0  0  0  0  0  0
    6.8803  -16.0918   19.7132 N   0  0  0  0  0  0  0  0  0  0  0  0
    8.2523  -16.2414   21.7113 C   0  0  0  0  0  0  0  0  0  0  0  0
    7.3039  -16.1835   22.5316 O   0  0  0  0  0  0  0  0  0  0  0  0
   11.8333  -17.9268   22.9590 O   0  0  0  0  0  0  0  0  0  0  0  0
   10.6580  -18.5235   23.4387 C   0  0  0  0  0  0  0  0  0  0  0  0
    9.6112  -17.4259   23.4952 C   0  0  2  0  0  0  0  0  0  0  0  0
    9.4472  -16.8706   22.1979 N   0  0  0  0  0  0  0  0  0  0  0  0
   10.0457  -16.4490   24.5219 C   0  0  0  0  0  0  0  0  0  0  0  0
   10.3905  -15.3199   24.0863 O   0  0  0  0  0  0  0  0  0  0  0  0
    6.5730  -13.1783   27.1225 C   0  0  0  0  0  0  0  0  0  0  0  0
    8.0764  -12.2783   27.6509 S   0  0  0  0  0  0  0  0  0  0  0  0
    9.3608  -13.5752   27.9057 C   0  0  0  0  0  0  0  0  0  0  0  0
    9.2764  -14.5718   26.7950 C   0  0  0  0  0  0  0  0  0  0  0  0
   10.3259  -15.6194   26.8618 C   0  0  2  0  0  0  0  0  0  0  0  0
   10.0953  -16.6926   25.8936 N   0  0  0  0  0  0  0  0  0  0  0  0
   10.5696  -16.1851   28.2146 C   0  0  0  0  0  0  0  0  0  0  0  0
   10.9339  -15.5468   29.2131 O   0  0  0  0  0  0  0  0  0  0  0  0
   10.3844  -17.5690   28.4313 O   0  0  0  0  0  0  0  0  0  0  0  0
  2  1  1  0
  3  4  1  6
  3  2  1  0
  5  6  1  1
  5  3  1  0
  7  5  1  0
  8  7  2  0
  9 10  1  0
 11 10  1  6
 11 12  1  0
 12  7  1  0
 13 11  1  0
 13 20  1  0
 14 13  2  0
 15 16  1  0
 17 16  1  0
 18 17  1  0
 19 20  1  0
 19 18  1  1
 19 21  1  0
 21 23  1  0
 22 21  2  0
M  END
$$$$
