ISM.pdb
     RDKit          3D

 23 22  0  0  1  0  0  0  0  0999 V2000
    6.1129  -11.5993   26.4942 C   0  0  0  0  0  0  0  0  0  0  0  0
    5.6755  -12.9381   25.8995 C   0  0  0  0  0  0  0  0  0  0  0  0
    6.8761  -13.6366   25.3422 C   0  0  2  0  0  0  0  0  0  0  0  0
    7.6876  -12.7574   24.4255 C   0  0  0  0  0  0  0  0  0  0  0  0
    6.5888  -15.0043   24.7619 C   0  0  2  0  0  0  0  0  0  0  0  0
    5.7577  -15.6829   25.7335 N   0  0  0  0  0  0  0  0  0  0  0  0
    7.8557  -15.6889   24.5105 C   0  0  0  0  0  0  0  0  0  0  0  0
    8.5795  -16.0727   25.4615 O   0  0  0  0  0  0  0  0  0  0  0  0
   10.1019  -15.3171   21.1340 O   0  0  0  0  0  0  0  0  0  0  0  0
    9.8264  -16.6601   21.4299 C   0  0  0  0  0  0  0  0  0  0  0  0
    9.5388  -16.7216   22.9190 C   0  0  2  0  0  0  0  0  0  0  0  0
    8.3648  -15.9720   23.1985 N   0  0  0  0  0  0  0  0  0  0  0  0
   10.7486  -16.2385   23.6263 C   0  0  0  0  0  0  0  0  0  0  0  0
   10.8809  -14.9886   23.6855 O   0  0  0  0  0  0  0  0  0  0  0  0
   10.4763  -13.4649   28.2496 C   0  0  0  0  0  0  0  0  0  0  0  0
   10.9327  -15.1033   28.9255 S   0  0  0  0  0  0  0  0  0  0  0  0
   12.1775  -15.7890   27.7521 C   0  0  0  0  0  0  0  0  0  0  0  0
   11.4898  -16.1834   26.4850 C   0  0  0  0  0  0  0  0  0  0  0  0
   12.4211  -16.6626   25.4332 C   0  0  2  0  0  0  0  0  0  0  0  0
   11.7174  -17.0531   24.2107 N   0  0  0  0  0  0  0  0  0  0  0  0
   13.3567  -17.7365   25.8585 C   0  0  0  0  0  0  0  0  0  0  0  0
   13.1551  -18.9558   25.7592 O   0  0  0  0  0  0  0  0  0  0  0  0
   14.5986  -17.3864   26.4343 O   0  0  0  0  0  0  0  0  0  0  0  0
  2  1  1  0
  3  4  1  6
  3  2  1  0
  5  6  1  1
  5  3  1  0
  7  5  1  0
  8  7  2  0
  9 10  1  0
 11 10  1  6
 11 12  1  0
 12  7  1  0
 13 11  1  0
 13 20  1  0
 14 13  2  0
 15 16  1  0
 17 16  1  0
 18 17  1  0
 19 20  1  0
 19 18  1  1
 19 21  1  0
 21 23  1  0
 22 21  2  0
M  END
$$$$
