ISM.pdb
     RDKit          3D

 23 22  0  0  1  0  0  0  0  0999 V2000
    7.3988  -11.9171   19.6455 C   0  0  0  0  0  0  0  0  0  0  0  0
    7.7348  -13.3883   19.4005 C   0  0  0  0  0  0  0  0  0  0  0  0
    7.9842  -14.0546   20.7173 C   0  0  2  0  0  0  0  0  0  0  0  0
    8.9136  -13.2645   21.6025 C   0  0  0  0  0  0  0  0  0  0  0  0
    8.3533  -15.5186   20.6157 C   0  0  2  0  0  0  0  0  0  0  0  0
    7.3868  -16.1118   19.7162 N   0  0  0  0  0  0  0  0  0  0  0  0
    8.3312  -16.1075   21.9535 C   0  0  0  0  0  0  0  0  0  0  0  0
    7.2626  -16.1765   22.6086 O   0  0  0  0  0  0  0  0  0  0  0  0
   11.7497  -17.6904   23.4922 O   0  0  0  0  0  0  0  0  0  0  0  0
   10.5760  -18.2182   24.0500 C   0  0  0  0  0  0  0  0  0  0  0  0
    9.5232  -17.1299   23.9449 C   0  0  2  0  0  0  0  0  0  0  0  0
    9.4903  -16.6401   22.6118 N   0  0  0  0  0  0  0  0  0  0  0  0
    9.8452  -16.0997   24.9610 C   0  0  0  0  0  0  0  0  0  0  0  0
   10.7864  -15.3191   24.6642 O   0  0  0  0  0  0  0  0  0  0  0  0
    6.2619  -11.1966   27.3070 C   0  0  0  0  0  0  0  0  0  0  0  0
    6.1990  -12.8119   26.4489 S   0  0  0  0  0  0  0  0  0  0  0  0
    7.9574  -13.2914   26.1756 C   0  0  0  0  0  0  0  0  0  0  0  0
    8.4813  -13.9526   27.4094 C   0  0  0  0  0  0  0  0  0  0  0  0
    9.5836  -14.9102   27.1424 C   0  0  2  0  0  0  0  0  0  0  0  0
    9.1939  -15.9453   26.1838 N   0  0  0  0  0  0  0  0  0  0  0  0
   10.1935  -15.5252   28.3504 C   0  0  0  0  0  0  0  0  0  0  0  0
   10.1951  -16.7338   28.6272 O   0  0  0  0  0  0  0  0  0  0  0  0
   10.8391  -14.6996   29.2981 O   0  0  0  0  0  0  0  0  0  0  0  0
  2  1  1  0
  3  4  1  6
  3  2  1  0
  5  6  1  6
  5  3  1  0
  7  5  1  0
  8  7  2  0
  9 10  1  0
 11 10  1  6
 11 12  1  0
 12  7  1  0
 13 11  1  0
 13 20  1  0
 14 13  2  0
 15 16  1  0
 17 16  1  0
 18 17  1  0
 19 20  1  0
 19 18  1  1
 19 21  1  0
 21 23  1  0
 22 21  2  0
M  END
$$$$
