ISM.pdb
     RDKit          3D

 23 22  0  0  1  0  0  0  0  0999 V2000
    8.0259  -11.8771   20.1850 C   0  0  0  0  0  0  0  0  0  0  0  0
    7.6564  -13.2935   19.7438 C   0  0  0  0  0  0  0  0  0  0  0  0
    8.0822  -14.2587   20.8054 C   0  0  2  0  0  0  0  0  0  0  0  0
    9.4754  -13.9883   21.3129 C   0  0  0  0  0  0  0  0  0  0  0  0
    7.8416  -15.7122   20.4599 C   0  0  2  0  0  0  0  0  0  0  0  0
    6.4718  -15.7908   19.9988 N   0  0  0  0  0  0  0  0  0  0  0  0
    8.0977  -16.5302   21.6441 C   0  0  0  0  0  0  0  0  0  0  0  0
    7.4491  -16.3495   22.7035 O   0  0  0  0  0  0  0  0  0  0  0  0
   11.5763  -18.7677   22.0184 O   0  0  0  0  0  0  0  0  0  0  0  0
   10.4147  -19.4034   22.4809 C   0  0  0  0  0  0  0  0  0  0  0  0
    9.4444  -18.3004   22.8626 C   0  0  2  0  0  0  0  0  0  0  0  0
    9.0800  -17.5756   21.6964 N   0  0  0  0  0  0  0  0  0  0  0  0
   10.0959  -17.4768   23.9088 C   0  0  0  0  0  0  0  0  0  0  0  0
   10.4386  -16.3191   23.5541 O   0  0  0  0  0  0  0  0  0  0  0  0
    9.6660  -12.5961   29.2081 C   0  0  0  0  0  0  0  0  0  0  0  0
    9.0280  -13.6626   27.8647 S   0  0  0  0  0  0  0  0  0  0  0  0
   10.3165  -14.9555   27.6102 C   0  0  0  0  0  0  0  0  0  0  0  0
    9.9038  -15.8411   26.4792 C   0  0  0  0  0  0  0  0  0  0  0  0
   10.8431  -16.9648   26.2372 C   0  0  2  0  0  0  0  0  0  0  0  0
   10.3453  -17.8888   25.2170 N   0  0  0  0  0  0  0  0  0  0  0  0
   11.2628  -17.7110   27.4523 C   0  0  0  0  0  0  0  0  0  0  0  0
   10.7499  -18.7580   27.8741 O   0  0  0  0  0  0  0  0  0  0  0  0
   12.3365  -17.2221   28.2300 O   0  0  0  0  0  0  0  0  0  0  0  0
  2  1  1  0
  3  4  1  6
  3  2  1  0
  5  6  1  1
  5  3  1  0
  7  5  1  0
  8  7  2  0
  9 10  1  0
 11 10  1  6
 11 12  1  0
 12  7  1  0
 13 11  1  0
 13 20  1  0
 14 13  2  0
 15 16  1  0
 17 16  1  0
 18 17  1  0
 19 20  1  0
 19 18  1  1
 19 21  1  0
 21 23  1  0
 22 21  2  0
M  END
$$$$
