ISM.pdb
     RDKit          3D

 23 22  0  0  1  0  0  0  0  0999 V2000
   13.0419  -20.5426   23.1945 C   0  0  0  0  0  0  0  0  0  0  0  0
   11.8698  -20.4608   22.2162 C   0  0  0  0  0  0  0  0  0  0  0  0
   11.3974  -19.0426   22.1428 C   0  0  2  0  0  0  0  0  0  0  0  0
   11.2789  -18.3977   23.5000 C   0  0  0  0  0  0  0  0  0  0  0  0
   10.1771  -18.8358   21.2722 C   0  0  2  0  0  0  0  0  0  0  0  0
   10.4787  -19.4695   20.0062 N   0  0  0  0  0  0  0  0  0  0  0  0
    9.9183  -17.4022   21.1506 C   0  0  0  0  0  0  0  0  0  0  0  0
   10.7583  -16.6400   20.6129 O   0  0  0  0  0  0  0  0  0  0  0  0
    6.7218  -16.0612   19.9940 O   0  0  0  0  0  0  0  0  0  0  0  0
    6.9439  -15.2409   21.1098 C   0  0  0  0  0  0  0  0  0  0  0  0
    8.4128  -15.3854   21.4637 C   0  0  2  0  0  0  0  0  0  0  0  0
    8.7215  -16.7633   21.6198 N   0  0  0  0  0  0  0  0  0  0  0  0
    8.6612  -14.5680   22.6750 C   0  0  0  0  0  0  0  0  0  0  0  0
    8.0998  -13.4420   22.6955 O   0  0  0  0  0  0  0  0  0  0  0  0
    7.1001  -10.7128   26.5544 C   0  0  0  0  0  0  0  0  0  0  0  0
    6.1443  -12.2723   26.6149 S   0  0  0  0  0  0  0  0  0  0  0  0
    7.4026  -13.6186   26.6421 C   0  0  0  0  0  0  0  0  0  0  0  0
    7.7680  -13.9747   25.2373 C   0  0  0  0  0  0  0  0  0  0  0  0
    8.9931  -14.8073   25.1397 C   0  0  2  0  0  0  0  0  0  0  0  0
    9.4509  -14.9536   23.7572 N   0  0  0  0  0  0  0  0  0  0  0  0
    8.9093  -16.1355   25.8016 C   0  0  0  0  0  0  0  0  0  0  0  0
    8.5404  -17.1911   25.2661 O   0  0  0  0  0  0  0  0  0  0  0  0
    9.2702  -16.2563   27.1624 O   0  0  0  0  0  0  0  0  0  0  0  0
  2  1  1  0
  3  4  1  1
  3  2  1  0
  5  6  1  6
  5  3  1  0
  7  5  1  0
  8  7  2  0
  9 10  1  0
 11 10  1  1
 11 12  1  0
 12  7  1  0
 13 11  1  0
 13 20  1  0
 14 13  2  0
 15 16  1  0
 17 16  1  0
 18 17  1  0
 19 20  1  0
 19 18  1  6
 19 21  1  0
 21 23  1  0
 22 21  2  0
M  END
$$$$
