ISM.pdb
     RDKit          3D

 23 22  0  0  1  0  0  0  0  0999 V2000
    9.0377  -12.5174   17.7200 C   0  0  0  0  0  0  0  0  0  0  0  0
    7.6107  -12.8776   18.1341 C   0  0  0  0  0  0  0  0  0  0  0  0
    7.6630  -13.7304   19.3630 C   0  0  2  0  0  0  0  0  0  0  0  0
    8.1336  -12.9723   20.5777 C   0  0  0  0  0  0  0  0  0  0  0  0
    8.3681  -15.0558   19.1731 C   0  0  2  0  0  0  0  0  0  0  0  0
    7.7597  -15.6680   18.0111 N   0  0  0  0  0  0  0  0  0  0  0  0
    8.2162  -15.8527   20.3891 C   0  0  0  0  0  0  0  0  0  0  0  0
    7.0914  -15.9973   20.9273 O   0  0  0  0  0  0  0  0  0  0  0  0
   11.5334  -17.4735   22.1959 O   0  0  0  0  0  0  0  0  0  0  0  0
   10.3512  -18.2024   22.3917 C   0  0  0  0  0  0  0  0  0  0  0  0
    9.2105  -17.2063   22.2894 C   0  0  2  0  0  0  0  0  0  0  0  0
    9.3033  -16.5165   21.0510 N   0  0  0  0  0  0  0  0  0  0  0  0
    9.2804  -16.3258   23.4799 C   0  0  0  0  0  0  0  0  0  0  0  0
    9.9547  -15.2729   23.3383 O   0  0  0  0  0  0  0  0  0  0  0  0
    6.7467  -11.1449   27.9979 C   0  0  0  0  0  0  0  0  0  0  0  0
    6.4222  -12.4151   26.7209 S   0  0  0  0  0  0  0  0  0  0  0  0
    7.7004  -13.7161   26.9865 C   0  0  0  0  0  0  0  0  0  0  0  0
    7.5947  -14.7347   25.8979 C   0  0  0  0  0  0  0  0  0  0  0  0
    8.7641  -15.6464   25.8280 C   0  0  2  0  0  0  0  0  0  0  0  0
    8.6675  -16.5810   24.7058 N   0  0  0  0  0  0  0  0  0  0  0  0
    9.0729  -16.3762   27.0856 C   0  0  0  0  0  0  0  0  0  0  0  0
    8.9132  -17.5907   27.2777 O   0  0  0  0  0  0  0  0  0  0  0  0
    9.5953  -15.6655   28.1894 O   0  0  0  0  0  0  0  0  0  0  0  0
  2  1  1  0
  3  4  1  1
  3  2  1  0
  5  6  1  6
  5  3  1  0
  7  5  1  0
  8  7  2  0
  9 10  1  0
 11 10  1  1
 11 12  1  0
 12  7  1  0
 13 11  1  0
 13 20  1  0
 14 13  2  0
 15 16  1  0
 17 16  1  0
 18 17  1  0
 19 20  1  0
 19 18  1  1
 19 21  1  0
 21 23  1  0
 22 21  2  0
M  END
$$$$
