ISM.pdb
     RDKit          3D

 23 22  0  0  1  0  0  0  0  0999 V2000
    7.7515  -11.6958   19.2362 C   0  0  0  0  0  0  0  0  0  0  0  0
    7.6943  -13.1982   18.9587 C   0  0  0  0  0  0  0  0  0  0  0  0
    8.0435  -13.9367   20.2127 C   0  0  2  0  0  0  0  0  0  0  0  0
    9.2740  -13.3874   20.8880 C   0  0  0  0  0  0  0  0  0  0  0  0
    8.0623  -15.4426   20.0653 C   0  0  2  0  0  0  0  0  0  0  0  0
    6.8028  -15.7983   19.4471 N   0  0  0  0  0  0  0  0  0  0  0  0
    8.2468  -16.0463   21.3838 C   0  0  0  0  0  0  0  0  0  0  0  0
    7.3850  -15.9000   22.2847 O   0  0  0  0  0  0  0  0  0  0  0  0
   11.9428  -17.5374   22.9593 O   0  0  0  0  0  0  0  0  0  0  0  0
   10.8018  -18.3529   22.9478 C   0  0  0  0  0  0  0  0  0  0  0  0
    9.6065  -17.4206   23.0252 C   0  0  2  0  0  0  0  0  0  0  0  0
    9.3907  -16.8322   21.7503 N   0  0  0  0  0  0  0  0  0  0  0  0
    9.8745  -16.4424   24.1063 C   0  0  0  0  0  0  0  0  0  0  0  0
   10.1774  -15.2817   23.7262 O   0  0  0  0  0  0  0  0  0  0  0  0
    6.8143  -11.6613   25.9425 C   0  0  0  0  0  0  0  0  0  0  0  0
    6.3993  -13.1364   26.9431 S   0  0  0  0  0  0  0  0  0  0  0  0
    8.0126  -13.9449   27.3182 C   0  0  0  0  0  0  0  0  0  0  0  0
    8.3121  -14.9540   26.2572 C   0  0  0  0  0  0  0  0  0  0  0  0
    9.6005  -15.6619   26.4637 C   0  0  2  0  0  0  0  0  0  0  0  0
    9.8145  -16.7166   25.4718 N   0  0  0  0  0  0  0  0  0  0  0  0
    9.8196  -16.1886   27.8363 C   0  0  0  0  0  0  0  0  0  0  0  0
   10.0338  -15.5069   28.8495 O   0  0  0  0  0  0  0  0  0  0  0  0
    9.7923  -17.5842   28.0561 O   0  0  0  0  0  0  0  0  0  0  0  0
  2  1  1  0
  3  4  1  6
  3  2  1  0
  5  6  1  1
  5  3  1  0
  7  5  1  0
  8  7  2  0
  9 10  1  0
 11 10  1  6
 11 12  1  0
 12  7  1  0
 13 11  1  0
 13 20  1  0
 14 13  2  0
 15 16  1  0
 17 16  1  0
 18 17  1  0
 19 20  1  0
 19 18  1  1
 19 21  1  0
 21 23  1  0
 22 21  2  0
M  END
$$$$
