ISM.pdb
     RDKit          3D

 23 22  0  0  1  0  0  0  0  0999 V2000
    7.3498  -12.0320   19.4256 C   0  0  0  0  0  0  0  0  0  0  0  0
    7.3597  -13.5541   19.2822 C   0  0  0  0  0  0  0  0  0  0  0  0
    7.8402  -14.1589   20.5642 C   0  0  2  0  0  0  0  0  0  0  0  0
    9.1400  -13.5610   21.0384 C   0  0  0  0  0  0  0  0  0  0  0  0
    7.8349  -15.6720   20.5807 C   0  0  2  0  0  0  0  0  0  0  0  0
    6.5351  -16.0714   20.0847 N   0  0  0  0  0  0  0  0  0  0  0  0
    8.0973  -16.1327   21.9430 C   0  0  0  0  0  0  0  0  0  0  0  0
    7.2785  -15.9070   22.8674 O   0  0  0  0  0  0  0  0  0  0  0  0
   11.8330  -17.4874   23.1549 O   0  0  0  0  0  0  0  0  0  0  0  0
   10.7491  -18.2667   23.5853 C   0  0  0  0  0  0  0  0  0  0  0  0
    9.5477  -17.3405   23.6369 C   0  0  2  0  0  0  0  0  0  0  0  0
    9.2741  -16.8585   22.3288 N   0  0  0  0  0  0  0  0  0  0  0  0
    9.8483  -16.2763   24.6240 C   0  0  0  0  0  0  0  0  0  0  0  0
   10.3027  -15.2045   24.1464 O   0  0  0  0  0  0  0  0  0  0  0  0
    7.2919  -11.0845   26.4456 C   0  0  0  0  0  0  0  0  0  0  0  0
    7.0394  -12.3113   27.7800 S   0  0  0  0  0  0  0  0  0  0  0  0
    8.6138  -13.2649   27.8746 C   0  0  0  0  0  0  0  0  0  0  0  0
    8.5659  -14.3867   26.8881 C   0  0  0  0  0  0  0  0  0  0  0  0
    9.7899  -15.2265   26.8904 C   0  0  2  0  0  0  0  0  0  0  0  0
    9.6660  -16.3830   26.0020 N   0  0  0  0  0  0  0  0  0  0  0  0
   10.2618  -15.6528   28.2339 C   0  0  0  0  0  0  0  0  0  0  0  0
   10.1859  -16.7993   28.6996 O   0  0  0  0  0  0  0  0  0  0  0  0
   10.8553  -14.7020   29.0944 O   0  0  0  0  0  0  0  0  0  0  0  0
  2  1  1  0
  3  4  1  6
  3  2  1  0
  5  6  1  1
  5  3  1  0
  7  5  1  0
  8  7  2  0
  9 10  1  0
 11 10  1  6
 11 12  1  0
 12  7  1  0
 13 11  1  0
 13 20  1  0
 14 13  2  0
 15 16  1  0
 17 16  1  0
 18 17  1  0
 19 20  1  0
 19 18  1  1
 19 21  1  0
 21 23  1  0
 22 21  2  0
M  END
$$$$
