ISM.pdb
     RDKit          3D

 23 22  0  0  1  0  0  0  0  0999 V2000
    8.0628  -11.9388   20.7822 C   0  0  0  0  0  0  0  0  0  0  0  0
    7.6047  -13.3807   21.0026 C   0  0  0  0  0  0  0  0  0  0  0  0
    8.4002  -14.2837   20.1128 C   0  0  2  0  0  0  0  0  0  0  0  0
    8.4253  -13.8148   18.6806 C   0  0  0  0  0  0  0  0  0  0  0  0
    8.0674  -15.7528   20.2569 C   0  0  2  0  0  0  0  0  0  0  0  0
    6.7086  -15.9022   19.7809 N   0  0  0  0  0  0  0  0  0  0  0  0
    8.2328  -16.1419   21.6562 C   0  0  0  0  0  0  0  0  0  0  0  0
    7.3716  -15.8337   22.5159 O   0  0  0  0  0  0  0  0  0  0  0  0
   11.8294  -17.6593   23.3199 O   0  0  0  0  0  0  0  0  0  0  0  0
   10.6338  -18.3574   23.5442 C   0  0  0  0  0  0  0  0  0  0  0  0
    9.5192  -17.3285   23.4918 C   0  0  2  0  0  0  0  0  0  0  0  0
    9.3564  -16.8852   22.1519 N   0  0  0  0  0  0  0  0  0  0  0  0
    9.8636  -16.2502   24.4489 C   0  0  0  0  0  0  0  0  0  0  0  0
   10.4516  -15.2530   23.9558 O   0  0  0  0  0  0  0  0  0  0  0  0
    6.2364  -12.8064   26.6474 C   0  0  0  0  0  0  0  0  0  0  0  0
    7.4964  -11.9126   27.6287 S   0  0  0  0  0  0  0  0  0  0  0  0
    8.9725  -13.0160   27.6539 C   0  0  0  0  0  0  0  0  0  0  0  0
    8.7471  -14.1556   26.7135 C   0  0  0  0  0  0  0  0  0  0  0  0
    9.8730  -15.1224   26.6783 C   0  0  2  0  0  0  0  0  0  0  0  0
    9.5872  -16.2694   25.8152 N   0  0  0  0  0  0  0  0  0  0  0  0
   10.3547  -15.5809   28.0076 C   0  0  0  0  0  0  0  0  0  0  0  0
   10.3288  -16.7477   28.4259 O   0  0  0  0  0  0  0  0  0  0  0  0
   10.8975  -14.6397   28.9110 O   0  0  0  0  0  0  0  0  0  0  0  0
  2  1  1  0
  3  4  1  6
  3  2  1  0
  5  6  1  1
  5  3  1  0
  7  5  1  0
  8  7  2  0
  9 10  1  0
 11 10  1  6
 11 12  1  0
 12  7  1  0
 13 11  1  0
 13 20  1  0
 14 13  2  0
 15 16  1  0
 17 16  1  0
 18 17  1  0
 19 20  1  0
 19 18  1  1
 19 21  1  0
 21 23  1  0
 22 21  2  0
M  END
$$$$
