ISM.pdb
     RDKit          3D

 23 22  0  0  1  0  0  0  0  0999 V2000
    6.4233  -11.7740   26.8742 C   0  0  0  0  0  0  0  0  0  0  0  0
    5.8113  -12.8452   25.9712 C   0  0  0  0  0  0  0  0  0  0  0  0
    6.9105  -13.6907   25.4082 C   0  0  2  0  0  0  0  0  0  0  0  0
    7.9836  -12.8759   24.7327 C   0  0  0  0  0  0  0  0  0  0  0  0
    6.4335  -14.8612   24.5762 C   0  0  2  0  0  0  0  0  0  0  0  0
    5.3612  -15.4753   25.3300 N   0  0  0  0  0  0  0  0  0  0  0  0
    7.5586  -15.7634   24.3373 C   0  0  0  0  0  0  0  0  0  0  0  0
    8.0591  -16.4304   25.2756 O   0  0  0  0  0  0  0  0  0  0  0  0
    9.7657  -15.1546   21.1627 O   0  0  0  0  0  0  0  0  0  0  0  0
    9.7726  -16.5415   21.3721 C   0  0  0  0  0  0  0  0  0  0  0  0
    9.3121  -16.7625   22.8014 C   0  0  2  0  0  0  0  0  0  0  0  0
    8.1682  -15.9583   23.0524 N   0  0  0  0  0  0  0  0  0  0  0  0
   10.4630  -16.4728   23.6895 C   0  0  0  0  0  0  0  0  0  0  0  0
   10.9050  -15.2957   23.6400 O   0  0  0  0  0  0  0  0  0  0  0  0
   10.8007  -13.2586   28.9600 C   0  0  0  0  0  0  0  0  0  0  0  0
   10.5034  -15.0576   29.1174 S   0  0  0  0  0  0  0  0  0  0  0  0
   11.6898  -15.8549   27.9541 C   0  0  0  0  0  0  0  0  0  0  0  0
   10.9436  -16.3486   26.7569 C   0  0  0  0  0  0  0  0  0  0  0  0
   11.8195  -16.9650   25.7291 C   0  0  2  0  0  0  0  0  0  0  0  0
   11.0673  -17.3903   24.5477 N   0  0  0  0  0  0  0  0  0  0  0  0
   12.6866  -18.0693   26.2170 C   0  0  0  0  0  0  0  0  0  0  0  0
   12.4790  -19.2808   26.0545 O   0  0  0  0  0  0  0  0  0  0  0  0
   13.8627  -17.7612   26.9370 O   0  0  0  0  0  0  0  0  0  0  0  0
  2  1  1  0
  3  4  1  6
  3  2  1  0
  5  6  1  1
  5  3  1  0
  7  5  1  0
  8  7  2  0
  9 10  1  0
 11 10  1  6
 11 12  1  0
 12  7  1  0
 13 11  1  0
 13 20  1  0
 14 13  2  0
 15 16  1  0
 17 16  1  0
 18 17  1  0
 19 20  1  0
 19 18  1  1
 19 21  1  0
 21 23  1  0
 22 21  2  0
M  END
$$$$
