ISM.pdb
     RDKit          3D

 23 22  0  0  1  0  0  0  0  0999 V2000
    7.9493  -11.9942   18.4080 C   0  0  0  0  0  0  0  0  0  0  0  0
    8.2822  -13.4597   18.1272 C   0  0  0  0  0  0  0  0  0  0  0  0
    8.4030  -14.1877   19.4293 C   0  0  2  0  0  0  0  0  0  0  0  0
    9.2804  -13.4663   20.4201 C   0  0  0  0  0  0  0  0  0  0  0  0
    8.7350  -15.6578   19.2937 C   0  0  2  0  0  0  0  0  0  0  0  0
    7.7990  -16.1902   18.3264 N   0  0  0  0  0  0  0  0  0  0  0  0
    8.6282  -16.2916   20.6067 C   0  0  0  0  0  0  0  0  0  0  0  0
    7.5515  -16.2589   21.2512 O   0  0  0  0  0  0  0  0  0  0  0  0
   11.9935  -17.6423   22.5591 O   0  0  0  0  0  0  0  0  0  0  0  0
   10.8652  -18.4542   22.7461 C   0  0  0  0  0  0  0  0  0  0  0  0
    9.6548  -17.5600   22.5481 C   0  0  2  0  0  0  0  0  0  0  0  0
    9.7087  -16.9828   21.2511 N   0  0  0  0  0  0  0  0  0  0  0  0
    9.6474  -16.5703   23.6516 C   0  0  0  0  0  0  0  0  0  0  0  0
   10.3322  -15.5329   23.4560 O   0  0  0  0  0  0  0  0  0  0  0  0
    6.6283  -11.1611   27.4815 C   0  0  0  0  0  0  0  0  0  0  0  0
    6.1981  -12.8097   26.8132 S   0  0  0  0  0  0  0  0  0  0  0  0
    7.7317  -13.8193   26.9719 C   0  0  0  0  0  0  0  0  0  0  0  0
    7.7711  -14.8255   25.8675 C   0  0  0  0  0  0  0  0  0  0  0  0
    8.9862  -15.6780   25.8896 C   0  0  2  0  0  0  0  0  0  0  0  0
    8.9536  -16.7104   24.8526 N   0  0  0  0  0  0  0  0  0  0  0  0
    9.3132  -16.2787   27.2093 C   0  0  0  0  0  0  0  0  0  0  0  0
    9.2895  -17.4879   27.4821 O   0  0  0  0  0  0  0  0  0  0  0  0
    9.6886  -15.4370   28.2805 O   0  0  0  0  0  0  0  0  0  0  0  0
  2  1  1  0
  3  4  1  1
  3  2  1  0
  5  6  1  6
  5  3  1  0
  7  5  1  0
  8  7  2  0
  9 10  1  0
 11 10  1  1
 11 12  1  0
 12  7  1  0
 13 11  1  0
 13 20  1  0
 14 13  2  0
 15 16  1  0
 17 16  1  0
 18 17  1  0
 19 20  1  0
 19 18  1  1
 19 21  1  0
 21 23  1  0
 22 21  2  0
M  END
$$$$
