ISM.pdb
     RDKit          3D

 23 22  0  0  1  0  0  0  0  0999 V2000
    8.1841  -11.6483   18.5018 C   0  0  0  0  0  0  0  0  0  0  0  0
    8.4607  -13.1047   18.1281 C   0  0  0  0  0  0  0  0  0  0  0  0
    8.5621  -13.9161   19.3817 C   0  0  2  0  0  0  0  0  0  0  0  0
    9.4769  -13.2938   20.4053 C   0  0  0  0  0  0  0  0  0  0  0  0
    8.8318  -15.3874   19.1524 C   0  0  2  0  0  0  0  0  0  0  0  0
    7.9134  -15.8038   18.1140 N   0  0  0  0  0  0  0  0  0  0  0  0
    8.6416  -16.1065   20.4109 C   0  0  0  0  0  0  0  0  0  0  0  0
    7.5218  -16.1260   20.9779 O   0  0  0  0  0  0  0  0  0  0  0  0
   11.8738  -17.6293   22.4893 O   0  0  0  0  0  0  0  0  0  0  0  0
   10.7246  -18.4325   22.5269 C   0  0  0  0  0  0  0  0  0  0  0  0
    9.5428  -17.5010   22.3279 C   0  0  2  0  0  0  0  0  0  0  0  0
    9.6835  -16.8283   21.0846 N   0  0  0  0  0  0  0  0  0  0  0  0
    9.4851  -16.5982   23.5021 C   0  0  0  0  0  0  0  0  0  0  0  0
   10.2052  -15.5686   23.4320 O   0  0  0  0  0  0  0  0  0  0  0  0
    6.6454  -11.5889   27.9377 C   0  0  0  0  0  0  0  0  0  0  0  0
    6.5754  -12.6901   26.4776 S   0  0  0  0  0  0  0  0  0  0  0  0
    7.1960  -14.3233   27.0642 C   0  0  0  0  0  0  0  0  0  0  0  0
    7.3040  -15.2526   25.8986 C   0  0  0  0  0  0  0  0  0  0  0  0
    8.6589  -15.8361   25.7334 C   0  0  2  0  0  0  0  0  0  0  0  0
    8.7100  -16.8094   24.6414 N   0  0  0  0  0  0  0  0  0  0  0  0
    9.2551  -16.4101   26.9681 C   0  0  0  0  0  0  0  0  0  0  0  0
    9.5196  -17.6065   27.1577 O   0  0  0  0  0  0  0  0  0  0  0  0
    9.5642  -15.5563   28.0507 O   0  0  0  0  0  0  0  0  0  0  0  0
  2  1  1  0
  3  4  1  1
  3  2  1  0
  5  6  1  6
  5  3  1  0
  7  5  1  0
  8  7  2  0
  9 10  1  0
 11 10  1  1
 11 12  1  0
 12  7  1  0
 13 11  1  0
 13 20  1  0
 14 13  2  0
 15 16  1  0
 17 16  1  0
 18 17  1  0
 19 20  1  0
 19 18  1  1
 19 21  1  0
 21 23  1  0
 22 21  2  0
M  END
$$$$
