WDE.pdb
     RDKit          3D

 32 33  0  0  1  0  0  0  0  0999 V2000
    7.2815  -17.1082   23.5095 N   0  0  0  0  0  0  0  0  0  0  0  0
    8.2758  -16.1017   23.2970 C   0  0  1  0  0  0  0  0  0  0  0  0
    8.6419  -15.4081   24.6046 C   0  0  0  0  0  0  0  0  0  0  0  0
    7.4702  -14.8081   25.2779 C   0  0  0  0  0  0  0  0  0  0  0  0
    6.4052  -15.4785   25.8146 C   0  0  0  0  0  0  0  0  0  0  0  0
    5.5711  -14.5416   26.2962 N   0  0  0  0  0  0  0  0  0  0  0  0
    6.0727  -13.3076   26.0834 C   0  0  0  0  0  0  0  0  0  0  0  0
    5.5912  -12.0528   26.3934 C   0  0  0  0  0  0  0  0  0  0  0  0
    6.3190  -10.9523   26.0576 C   0  0  0  0  0  0  0  0  0  0  0  0
    7.5501  -11.0368   25.4041 C   0  0  0  0  0  0  0  0  0  0  0  0
    8.0011  -12.3025   25.1081 C   0  0  0  0  0  0  0  0  0  0  0  0
    7.2856  -13.4332   25.4352 C   0  0  0  0  0  0  0  0  0  0  0  0
    9.5439  -16.6248   22.6995 C   0  0  0  0  0  0  0  0  0  0  0  0
    9.9660  -17.7701   22.8522 O   0  0  0  0  0  0  0  0  0  0  0  0
   10.2768  -15.7078   21.9126 N   0  0  0  0  0  0  0  0  0  0  0  0
   11.6443  -15.8941   21.4598 C   0  0  1  0  0  0  0  0  0  0  0  0
   11.9311  -14.9986   20.3304 C   0  0  0  0  0  0  0  0  0  0  0  0
   13.2440  -15.1754   19.6860 C   0  0  0  0  0  0  0  0  0  0  0  0
   13.4636  -16.0996   18.8813 O   0  0  0  0  0  0  0  0  0  0  0  0
   12.6032  -15.8844   22.5599 C   0  0  0  0  0  0  0  0  0  0  0  0
   12.7689  -14.8379   23.2256 O   0  0  0  0  0  0  0  0  0  0  0  0
   14.2762  -14.2928   19.9730 O   0  0  0  0  0  0  0  0  0  0  0  0
   13.3373  -17.0416   22.8738 N   0  0  0  0  0  0  0  0  0  0  0  0
   14.3113  -17.1041   23.9498 C   0  0  1  0  0  0  0  0  0  0  0  0
   14.1093  -18.4239   24.6947 C   0  0  0  0  0  0  0  0  0  0  0  0
   12.7457  -18.5376   25.2872 C   0  0  0  0  0  0  0  0  0  0  0  0
   12.8852  -19.1651   26.6289 C   0  0  0  0  0  0  0  0  0  0  0  0
   11.9613  -19.1571   27.4720 O   0  0  0  0  0  0  0  0  0  0  0  0
   15.6594  -17.0921   23.3088 C   0  0  0  0  0  0  0  0  0  0  0  0
   16.7787  -16.8734   24.0843 O   0  0  0  0  0  0  0  0  0  0  0  0
   14.0836  -19.7894   26.9842 O   0  0  0  0  0  0  0  0  0  0  0  0
   15.8190  -17.2759   22.0756 O   0  0  0  0  0  0  0  0  0  0  0  0
  2  3  1  0
  2  1  1  1
  3  4  1  0
  4  5  2  0
  5  6  1  0
  7  6  1  0
  8  7  2  0
  9  8  1  0
 10 11  1  0
 10  9  2  0
 11 12  2  0
 12  4  1  0
 12  7  1  0
 13 14  2  0
 13  2  1  0
 15 13  1  0
 16 15  1  0
 16 17  1  6
 18 17  1  0
 19 18  2  0
 20 16  1  0
 20 21  2  0
 22 18  1  0
 23 20  1  0
 24 23  1  0
 24 25  1  6
 26 27  1  0
 26 25  1  0
 27 31  1  0
 28 27  2  0
 29 24  1  0
 30 29  1  0
 32 29  2  0
M  END
$$$$
