WDE.pdb
     RDKit          3D

 32 33  0  0  1  0  0  0  0  0999 V2000
    6.5039  -17.2549   23.9076 N   0  0  0  0  0  0  0  0  0  0  0  0
    7.7068  -16.4976   23.7451 C   0  0  1  0  0  0  0  0  0  0  0  0
    8.1289  -15.8504   25.0594 C   0  0  0  0  0  0  0  0  0  0  0  0
    7.1767  -14.8150   25.5154 C   0  0  0  0  0  0  0  0  0  0  0  0
    5.9147  -15.0236   26.0007 C   0  0  0  0  0  0  0  0  0  0  0  0
    5.4053  -13.8090   26.2666 N   0  0  0  0  0  0  0  0  0  0  0  0
    6.3004  -12.8451   25.9678 C   0  0  0  0  0  0  0  0  0  0  0  0
    6.2401  -11.4708   26.0676 C   0  0  0  0  0  0  0  0  0  0  0  0
    7.3127  -10.7222   25.6899 C   0  0  0  0  0  0  0  0  0  0  0  0
    8.4897  -11.2907   25.1988 C   0  0  0  0  0  0  0  0  0  0  0  0
    8.5167  -12.6635   25.1106 C   0  0  0  0  0  0  0  0  0  0  0  0
    7.4464  -13.4456   25.4848 C   0  0  0  0  0  0  0  0  0  0  0  0
    8.8657  -17.3067   23.2541 C   0  0  0  0  0  0  0  0  0  0  0  0
    9.2009  -18.3964   23.7161 O   0  0  0  0  0  0  0  0  0  0  0  0
    9.5993  -16.7442   22.1850 N   0  0  0  0  0  0  0  0  0  0  0  0
   10.9800  -17.0548   21.8579 C   0  0  1  0  0  0  0  0  0  0  0  0
   11.3691  -16.3830   20.6102 C   0  0  0  0  0  0  0  0  0  0  0  0
   10.8262  -16.9639   19.3700 C   0  0  0  0  0  0  0  0  0  0  0  0
   10.7119  -18.1937   19.2137 O   0  0  0  0  0  0  0  0  0  0  0  0
   11.8758  -16.8846   22.9974 C   0  0  0  0  0  0  0  0  0  0  0  0
   12.2332  -15.7342   23.3357 O   0  0  0  0  0  0  0  0  0  0  0  0
   10.4245  -16.1286   18.3368 O   0  0  0  0  0  0  0  0  0  0  0  0
   12.3358  -18.0035   23.7138 N   0  0  0  0  0  0  0  0  0  0  0  0
   13.0729  -17.9068   24.9619 C   0  0  1  0  0  0  0  0  0  0  0  0
   12.4421  -18.8779   25.9603 C   0  0  0  0  0  0  0  0  0  0  0  0
   13.2605  -19.0302   27.1974 C   0  0  0  0  0  0  0  0  0  0  0  0
   12.5878  -20.0340   28.0652 C   0  0  0  0  0  0  0  0  0  0  0  0
   11.9428  -19.7117   29.0873 O   0  0  0  0  0  0  0  0  0  0  0  0
   14.4732  -18.3315   24.6667 C   0  0  0  0  0  0  0  0  0  0  0  0
   15.4920  -17.9508   25.5147 O   0  0  0  0  0  0  0  0  0  0  0  0
   12.6680  -21.3926   27.7493 O   0  0  0  0  0  0  0  0  0  0  0  0
   14.7662  -19.0312   23.6643 O   0  0  0  0  0  0  0  0  0  0  0  0
  2  3  1  0
  2  1  1  1
  3  4  1  0
  4  5  2  0
  5  6  1  0
  7  6  1  0
  8  7  2  0
  9  8  1  0
 10 11  1  0
 10  9  2  0
 11 12  2  0
 12  4  1  0
 12  7  1  0
 13 14  2  0
 13  2  1  0
 15 13  1  0
 16 15  1  0
 16 17  1  6
 18 17  1  0
 19 18  2  0
 20 16  1  0
 20 21  2  0
 22 18  1  0
 23 20  1  0
 24 23  1  0
 24 25  1  1
 26 27  1  0
 26 25  1  0
 27 31  1  0
 28 27  2  0
 29 24  1  0
 30 29  1  0
 32 29  2  0
M  END
$$$$
