WDE.pdb
     RDKit          3D

 32 33  0  0  1  0  0  0  0  0999 V2000
    8.8474  -18.2156   21.1959 N   0  0  0  0  0  0  0  0  0  0  0  0
    9.8333  -17.2489   20.8217 C   0  0  1  0  0  0  0  0  0  0  0  0
    9.7301  -15.9976   21.6867 C   0  0  0  0  0  0  0  0  0  0  0  0
    8.4853  -15.2379   21.4423 C   0  0  0  0  0  0  0  0  0  0  0  0
    7.3093  -15.3544   22.1316 C   0  0  0  0  0  0  0  0  0  0  0  0
    6.4472  -14.4982   21.5579 N   0  0  0  0  0  0  0  0  0  0  0  0
    7.0379  -13.8471   20.5347 C   0  0  0  0  0  0  0  0  0  0  0  0
    6.5686  -12.8885   19.6610 C   0  0  0  0  0  0  0  0  0  0  0  0
    7.3975  -12.3895   18.7032 C   0  0  0  0  0  0  0  0  0  0  0  0
    8.7216  -12.8096   18.5627 C   0  0  0  0  0  0  0  0  0  0  0  0
    9.1578  -13.7674   19.4488 C   0  0  0  0  0  0  0  0  0  0  0  0
    8.3413  -14.2905   20.4272 C   0  0  0  0  0  0  0  0  0  0  0  0
   11.2390  -17.7503   20.9287 C   0  0  0  0  0  0  0  0  0  0  0  0
   11.6299  -18.5547   21.7732 O   0  0  0  0  0  0  0  0  0  0  0  0
   12.1482  -17.2395   19.9749 N   0  0  0  0  0  0  0  0  0  0  0  0
   13.5946  -17.3499   20.0492 C   0  0  1  0  0  0  0  0  0  0  0  0
   14.2028  -16.9033   18.7882 C   0  0  0  0  0  0  0  0  0  0  0  0
   13.8917  -17.7167   17.5999 C   0  0  0  0  0  0  0  0  0  0  0  0
   13.7494  -18.9517   17.6661 O   0  0  0  0  0  0  0  0  0  0  0  0
   14.1365  -16.7729   21.2752 C   0  0  0  0  0  0  0  0  0  0  0  0
   14.0680  -15.5372   21.4592 O   0  0  0  0  0  0  0  0  0  0  0  0
   13.7484  -17.1025   16.3635 O   0  0  0  0  0  0  0  0  0  0  0  0
   14.7316  -17.5970   22.2465 N   0  0  0  0  0  0  0  0  0  0  0  0
   15.1422  -17.1217   23.5565 C   0  0  1  0  0  0  0  0  0  0  0  0
   14.9557  -18.2649   24.5544 C   0  0  0  0  0  0  0  0  0  0  0  0
   15.4602  -17.9185   25.9141 C   0  0  0  0  0  0  0  0  0  0  0  0
   15.2768  -19.1118   26.7834 C   0  0  0  0  0  0  0  0  0  0  0  0
   15.0146  -19.0190   28.0029 O   0  0  0  0  0  0  0  0  0  0  0  0
   16.5914  -16.7786   23.4531 C   0  0  0  0  0  0  0  0  0  0  0  0
   17.1656  -15.9606   24.4035 O   0  0  0  0  0  0  0  0  0  0  0  0
   15.4001  -20.3936   26.2412 O   0  0  0  0  0  0  0  0  0  0  0  0
   17.3197  -17.2103   22.5240 O   0  0  0  0  0  0  0  0  0  0  0  0
  2  3  1  0
  2  1  1  1
  3  4  1  0
  4  5  2  0
  5  6  1  0
  7  6  1  0
  8  7  2  0
  9  8  1  0
 10 11  1  0
 10  9  2  0
 11 12  2  0
 12  4  1  0
 12  7  1  0
 13 14  2  0
 13  2  1  0
 15 13  1  0
 16 15  1  0
 16 17  1  6
 18 17  1  0
 19 18  2  0
 20 16  1  0
 20 21  2  0
 22 18  1  0
 23 20  1  0
 24 23  1  0
 24 25  1  1
 26 27  1  0
 26 25  1  0
 27 31  1  0
 28 27  2  0
 29 24  1  0
 30 29  1  0
 32 29  2  0
M  END
$$$$
