WDE.pdb
     RDKit          3D

 32 33  0  0  1  0  0  0  0  0999 V2000
    7.2179  -17.4263   25.0753 N   0  0  0  0  0  0  0  0  0  0  0  0
    7.6472  -16.6746   23.9362 C   0  0  1  0  0  0  0  0  0  0  0  0
    8.0375  -15.2548   24.3317 C   0  0  0  0  0  0  0  0  0  0  0  0
    6.9985  -14.5840   25.1423 C   0  0  0  0  0  0  0  0  0  0  0  0
    5.8320  -15.1377   25.5943 C   0  0  0  0  0  0  0  0  0  0  0  0
    5.1854  -14.1671   26.2618 N   0  0  0  0  0  0  0  0  0  0  0  0
    5.9027  -13.0248   26.2474 C   0  0  0  0  0  0  0  0  0  0  0  0
    5.6599  -11.7793   26.7880 C   0  0  0  0  0  0  0  0  0  0  0  0
    6.5745  -10.7848   26.6209 C   0  0  0  0  0  0  0  0  0  0  0  0
    7.7659  -10.9707   25.9169 C   0  0  0  0  0  0  0  0  0  0  0  0
    7.9768  -12.2238   25.3894 C   0  0  0  0  0  0  0  0  0  0  0  0
    7.0688  -13.2483   25.5422 C   0  0  0  0  0  0  0  0  0  0  0  0
    8.8172  -17.2766   23.2239 C   0  0  0  0  0  0  0  0  0  0  0  0
    9.5311  -18.1665   23.6839 O   0  0  0  0  0  0  0  0  0  0  0  0
    9.0863  -16.7587   21.9367 N   0  0  0  0  0  0  0  0  0  0  0  0
   10.2728  -17.0416   21.1481 C   0  0  1  0  0  0  0  0  0  0  0  0
   10.0197  -16.7528   19.7296 C   0  0  0  0  0  0  0  0  0  0  0  0
    9.0308  -17.6178   19.0631 C   0  0  0  0  0  0  0  0  0  0  0  0
    8.9404  -18.8329   19.3185 O   0  0  0  0  0  0  0  0  0  0  0  0
   11.4798  -16.4603   21.7270 C   0  0  0  0  0  0  0  0  0  0  0  0
   11.7205  -15.2437   21.5608 O   0  0  0  0  0  0  0  0  0  0  0  0
    8.1662  -17.0765   18.1218 O   0  0  0  0  0  0  0  0  0  0  0  0
   12.3686  -17.2586   22.4682 N   0  0  0  0  0  0  0  0  0  0  0  0
   13.5252  -16.7288   23.1696 C   0  0  1  0  0  0  0  0  0  0  0  0
   13.8424  -17.6666   24.3348 C   0  0  0  0  0  0  0  0  0  0  0  0
   12.7295  -17.7374   25.3247 C   0  0  0  0  0  0  0  0  0  0  0  0
   13.0978  -18.7513   26.3492 C   0  0  0  0  0  0  0  0  0  0  0  0
   12.2746  -19.1942   27.1803 O   0  0  0  0  0  0  0  0  0  0  0  0
   14.6577  -16.7380   22.1969 C   0  0  0  0  0  0  0  0  0  0  0  0
   15.8452  -16.1212   22.5306 O   0  0  0  0  0  0  0  0  0  0  0  0
   14.4057  -19.2393   26.4070 O   0  0  0  0  0  0  0  0  0  0  0  0
   14.5728  -17.2923   21.0719 O   0  0  0  0  0  0  0  0  0  0  0  0
  2  3  1  0
  2  1  1  1
  3  4  1  0
  4  5  2  0
  5  6  1  0
  7  6  1  0
  8  7  2  0
  9  8  1  0
 10 11  1  0
 10  9  2  0
 11 12  2  0
 12  4  1  0
 12  7  1  0
 13 14  2  0
 13  2  1  0
 15 13  1  0
 16 15  1  0
 16 17  1  6
 18 17  1  0
 19 18  2  0
 20 16  1  0
 20 21  2  0
 22 18  1  0
 23 20  1  0
 24 23  1  0
 24 25  1  1
 26 27  1  0
 26 25  1  0
 27 31  1  0
 28 27  2  0
 29 24  1  0
 30 29  1  0
 32 29  2  0
M  END
$$$$
