WDE.pdb
     RDKit          3D

 32 33  0  0  1  0  0  0  0  0999 V2000
    6.5996  -17.5385   24.1986 N   0  0  0  0  0  0  0  0  0  0  0  0
    7.6431  -16.6591   23.7690 C   0  0  1  0  0  0  0  0  0  0  0  0
    8.2296  -15.8880   24.9464 C   0  0  0  0  0  0  0  0  0  0  0  0
    7.2495  -14.9758   25.5740 C   0  0  0  0  0  0  0  0  0  0  0  0
    6.0812  -15.3321   26.1904 C   0  0  0  0  0  0  0  0  0  0  0  0
    5.4988  -14.1884   26.5887 N   0  0  0  0  0  0  0  0  0  0  0  0
    6.2581  -13.1272   26.2468 C   0  0  0  0  0  0  0  0  0  0  0  0
    6.0844  -11.7723   26.4376 C   0  0  0  0  0  0  0  0  0  0  0  0
    7.0291  -10.9036   25.9834 C   0  0  0  0  0  0  0  0  0  0  0  0
    8.1841  -11.3278   25.3233 C   0  0  0  0  0  0  0  0  0  0  0  0
    8.3262  -12.6850   25.1481 C   0  0  0  0  0  0  0  0  0  0  0  0
    7.3863  -13.5867   25.5965 C   0  0  0  0  0  0  0  0  0  0  0  0
    8.7757  -17.3579   23.0851 C   0  0  0  0  0  0  0  0  0  0  0  0
    9.1688  -18.4891   23.3663 O   0  0  0  0  0  0  0  0  0  0  0  0
    9.4104  -16.6333   22.0508 N   0  0  0  0  0  0  0  0  0  0  0  0
   10.7708  -16.8459   21.5882 C   0  0  1  0  0  0  0  0  0  0  0  0
   10.9942  -16.1307   20.3241 C   0  0  0  0  0  0  0  0  0  0  0  0
   12.2802  -16.3927   19.6548 C   0  0  0  0  0  0  0  0  0  0  0  0
   12.8821  -15.5097   19.0161 O   0  0  0  0  0  0  0  0  0  0  0  0
   11.7584  -16.6334   22.6414 C   0  0  0  0  0  0  0  0  0  0  0  0
   12.0788  -15.4670   22.9616 O   0  0  0  0  0  0  0  0  0  0  0  0
   12.8511  -17.6555   19.7308 O   0  0  0  0  0  0  0  0  0  0  0  0
   12.3478  -17.7296   23.2953 N   0  0  0  0  0  0  0  0  0  0  0  0
   13.2538  -17.5961   24.4231 C   0  0  1  0  0  0  0  0  0  0  0  0
   12.9356  -18.7107   25.4202 C   0  0  0  0  0  0  0  0  0  0  0  0
   12.6574  -18.1856   26.7877 C   0  0  0  0  0  0  0  0  0  0  0  0
   12.3554  -19.3473   27.6667 C   0  0  0  0  0  0  0  0  0  0  0  0
   11.1854  -19.7077   27.9231 O   0  0  0  0  0  0  0  0  0  0  0  0
   14.6348  -17.7824   23.8878 C   0  0  0  0  0  0  0  0  0  0  0  0
   15.7076  -17.2582   24.5779 O   0  0  0  0  0  0  0  0  0  0  0  0
   13.4002  -20.0760   28.2407 O   0  0  0  0  0  0  0  0  0  0  0  0
   14.8635  -18.4057   22.8204 O   0  0  0  0  0  0  0  0  0  0  0  0
  2  3  1  0
  2  1  1  1
  3  4  1  0
  4  5  2  0
  5  6  1  0
  7  6  1  0
  8  7  2  0
  9  8  1  0
 10 11  1  0
 10  9  2  0
 11 12  2  0
 12  4  1  0
 12  7  1  0
 13 14  2  0
 13  2  1  0
 15 13  1  0
 16 15  1  0
 16 17  1  6
 18 17  1  0
 19 18  2  0
 20 16  1  0
 20 21  2  0
 22 18  1  0
 23 20  1  0
 24 23  1  0
 24 25  1  1
 26 27  1  0
 26 25  1  0
 27 31  1  0
 28 27  2  0
 29 24  1  0
 30 29  1  0
 32 29  2  0
M  END
$$$$
