WDE.pdb
     RDKit          3D

 32 33  0  0  1  0  0  0  0  0999 V2000
    6.1749  -17.5793   24.1141 N   0  0  0  0  0  0  0  0  0  0  0  0
    7.3145  -16.8934   23.5874 C   0  0  1  0  0  0  0  0  0  0  0  0
    8.1566  -16.2900   24.7062 C   0  0  0  0  0  0  0  0  0  0  0  0
    7.4053  -15.3085   25.5177 C   0  0  0  0  0  0  0  0  0  0  0  0
    6.3800  -15.5785   26.3823 C   0  0  0  0  0  0  0  0  0  0  0  0
    5.9811  -14.3952   26.8785 N   0  0  0  0  0  0  0  0  0  0  0  0
    6.7183  -13.3920   26.3592 C   0  0  0  0  0  0  0  0  0  0  0  0
    6.6859  -12.0277   26.5594 C   0  0  0  0  0  0  0  0  0  0  0  0
    7.5653  -11.2301   25.8930 C   0  0  0  0  0  0  0  0  0  0  0  0
    8.5136  -11.7376   25.0026 C   0  0  0  0  0  0  0  0  0  0  0  0
    8.5185  -13.1019   24.8246 C   0  0  0  0  0  0  0  0  0  0  0  0
    7.6403  -13.9327   25.4848 C   0  0  0  0  0  0  0  0  0  0  0  0
    8.2165  -17.7639   22.7703 C   0  0  0  0  0  0  0  0  0  0  0  0
    8.3644  -18.9726   22.9446 O   0  0  0  0  0  0  0  0  0  0  0  0
    8.9291  -17.1131   21.7378 N   0  0  0  0  0  0  0  0  0  0  0  0
    9.8609  -17.7542   20.8265 C   0  0  1  0  0  0  0  0  0  0  0  0
    9.8536  -17.0672   19.5275 C   0  0  0  0  0  0  0  0  0  0  0  0
   10.7956  -17.5851   18.5201 C   0  0  0  0  0  0  0  0  0  0  0  0
   11.0627  -18.7978   18.4302 O   0  0  0  0  0  0  0  0  0  0  0  0
   11.1671  -17.9859   21.4348 C   0  0  0  0  0  0  0  0  0  0  0  0
   12.0650  -18.5525   20.7727 O   0  0  0  0  0  0  0  0  0  0  0  0
   11.4102  -16.7082   17.6371 O   0  0  0  0  0  0  0  0  0  0  0  0
   11.4193  -17.5757   22.7556 N   0  0  0  0  0  0  0  0  0  0  0  0
   12.6636  -17.8479   23.4543 C   0  0  1  0  0  0  0  0  0  0  0  0
   13.6471  -16.7247   23.1241 C   0  0  0  0  0  0  0  0  0  0  0  0
   14.9506  -16.8869   23.8297 C   0  0  0  0  0  0  0  0  0  0  0  0
   15.8429  -15.7791   23.3940 C   0  0  0  0  0  0  0  0  0  0  0  0
   15.9722  -14.7238   24.0529 O   0  0  0  0  0  0  0  0  0  0  0  0
   12.3496  -17.8256   24.9135 C   0  0  0  0  0  0  0  0  0  0  0  0
   11.3226  -17.0295   25.3756 O   0  0  0  0  0  0  0  0  0  0  0  0
   16.5709  -15.8974   22.2073 O   0  0  0  0  0  0  0  0  0  0  0  0
   12.9904  -18.5116   25.7495 O   0  0  0  0  0  0  0  0  0  0  0  0
  2  3  1  0
  2  1  1  1
  3  4  1  0
  4  5  2  0
  5  6  1  0
  7  6  1  0
  8  7  2  0
  9  8  1  0
 10 11  1  0
 10  9  2  0
 11 12  2  0
 12  4  1  0
 12  7  1  0
 13 14  2  0
 13  2  1  0
 15 13  1  0
 16 15  1  0
 16 17  1  6
 18 17  1  0
 19 18  2  0
 20 16  1  0
 20 21  2  0
 22 18  1  0
 23 20  1  0
 24 23  1  0
 24 25  1  1
 26 27  1  0
 26 25  1  0
 27 31  1  0
 28 27  2  0
 29 24  1  0
 30 29  1  0
 32 29  2  0
M  END
$$$$
