WDE.pdb
     RDKit          3D

 32 33  0  0  1  0  0  0  0  0999 V2000
    6.6676  -17.1685   23.5141 N   0  0  0  0  0  0  0  0  0  0  0  0
    7.9414  -16.6004   23.1956 C   0  0  1  0  0  0  0  0  0  0  0  0
    8.6527  -16.1103   24.4520 C   0  0  0  0  0  0  0  0  0  0  0  0
    7.7808  -15.2830   25.3133 C   0  0  0  0  0  0  0  0  0  0  0  0
    6.7523  -15.7262   26.0991 C   0  0  0  0  0  0  0  0  0  0  0  0
    6.2244  -14.6368   26.6824 N   0  0  0  0  0  0  0  0  0  0  0  0
    6.8835  -13.5260   26.2935 C   0  0  0  0  0  0  0  0  0  0  0  0
    6.7148  -12.1958   26.6166 C   0  0  0  0  0  0  0  0  0  0  0  0
    7.5405  -11.2618   26.0695 C   0  0  0  0  0  0  0  0  0  0  0  0
    8.5668  -11.5939   25.1828 C   0  0  0  0  0  0  0  0  0  0  0  0
    8.7073  -12.9287   24.8805 C   0  0  0  0  0  0  0  0  0  0  0  0
    7.8861  -13.8949   25.4185 C   0  0  0  0  0  0  0  0  0  0  0  0
    8.8667  -17.5490   22.5007 C   0  0  0  0  0  0  0  0  0  0  0  0
    9.0315  -18.7245   22.8235 O   0  0  0  0  0  0  0  0  0  0  0  0
    9.5814  -17.0177   21.4033 N   0  0  0  0  0  0  0  0  0  0  0  0
   10.5730  -17.7338   20.6199 C   0  0  1  0  0  0  0  0  0  0  0  0
   10.4080  -17.4289   19.1919 C   0  0  0  0  0  0  0  0  0  0  0  0
    9.0506  -17.6080   18.6480 C   0  0  0  0  0  0  0  0  0  0  0  0
    8.3553  -18.6023   18.9269 O   0  0  0  0  0  0  0  0  0  0  0  0
   11.9200  -17.5976   21.1648 C   0  0  0  0  0  0  0  0  0  0  0  0
   12.8902  -17.4611   20.3865 O   0  0  0  0  0  0  0  0  0  0  0  0
    8.5166  -16.6479   17.7998 O   0  0  0  0  0  0  0  0  0  0  0  0
   12.1303  -17.6182   22.5547 N   0  0  0  0  0  0  0  0  0  0  0  0
   13.4462  -17.5464   23.1660 C   0  0  1  0  0  0  0  0  0  0  0  0
   14.0337  -16.1675   22.8638 C   0  0  0  0  0  0  0  0  0  0  0  0
   15.2976  -15.9132   23.6129 C   0  0  0  0  0  0  0  0  0  0  0  0
   16.1289  -14.9866   22.7982 C   0  0  0  0  0  0  0  0  0  0  0  0
   16.1445  -15.0234   21.5480 O   0  0  0  0  0  0  0  0  0  0  0  0
   13.2437  -17.6927   24.6378 C   0  0  0  0  0  0  0  0  0  0  0  0
   11.9739  -17.5785   25.1637 O   0  0  0  0  0  0  0  0  0  0  0  0
   16.9322  -14.0340   23.4301 O   0  0  0  0  0  0  0  0  0  0  0  0
   14.1948  -17.9191   25.4279 O   0  0  0  0  0  0  0  0  0  0  0  0
  2  3  1  0
  2  1  1  1
  3  4  1  0
  4  5  2  0
  5  6  1  0
  7  6  1  0
  8  7  2  0
  9  8  1  0
 10 11  1  0
 10  9  2  0
 11 12  2  0
 12  4  1  0
 12  7  1  0
 13 14  2  0
 13  2  1  0
 15 13  1  0
 16 15  1  0
 16 17  1  6
 18 17  1  0
 19 18  2  0
 20 16  1  0
 20 21  2  0
 22 18  1  0
 23 20  1  0
 24 23  1  0
 24 25  1  1
 26 27  1  0
 26 25  1  0
 27 31  1  0
 28 27  2  0
 29 24  1  0
 30 29  1  0
 32 29  2  0
M  END
$$$$
