WDE.pdb
     RDKit          3D

 32 33  0  0  1  0  0  0  0  0999 V2000
    6.5926  -17.6754   24.3973 N   0  0  0  0  0  0  0  0  0  0  0  0
    7.4664  -16.7147   23.7971 C   0  0  1  0  0  0  0  0  0  0  0  0
    8.1296  -15.8402   24.8555 C   0  0  0  0  0  0  0  0  0  0  0  0
    7.1618  -14.9837   25.5740 C   0  0  0  0  0  0  0  0  0  0  0  0
    6.0186  -15.3944   26.2034 C   0  0  0  0  0  0  0  0  0  0  0  0
    5.4382  -14.2869   26.6955 N   0  0  0  0  0  0  0  0  0  0  0  0
    6.1745  -13.1960   26.4000 C   0  0  0  0  0  0  0  0  0  0  0  0
    5.9934  -11.8589   26.6858 C   0  0  0  0  0  0  0  0  0  0  0  0
    6.9133  -10.9503   26.2593 C   0  0  0  0  0  0  0  0  0  0  0  0
    8.0498  -11.3157   25.5351 C   0  0  0  0  0  0  0  0  0  0  0  0
    8.1999  -12.6565   25.2657 C   0  0  0  0  0  0  0  0  0  0  0  0
    7.2850  -13.5975   25.6840 C   0  0  0  0  0  0  0  0  0  0  0  0
    8.5576  -17.3245   22.9748 C   0  0  0  0  0  0  0  0  0  0  0  0
    9.0984  -18.4013   23.2224 O   0  0  0  0  0  0  0  0  0  0  0  0
    8.9655  -16.5798   21.8450 N   0  0  0  0  0  0  0  0  0  0  0  0
   10.1374  -16.8582   21.0333 C   0  0  1  0  0  0  0  0  0  0  0  0
    9.9206  -16.3973   19.6548 C   0  0  0  0  0  0  0  0  0  0  0  0
    8.8940  -17.1234   18.8873 C   0  0  0  0  0  0  0  0  0  0  0  0
    8.7347  -18.3530   18.9994 O   0  0  0  0  0  0  0  0  0  0  0  0
   11.3762  -16.4323   21.6764 C   0  0  0  0  0  0  0  0  0  0  0  0
   11.7453  -15.2408   21.5781 O   0  0  0  0  0  0  0  0  0  0  0  0
    8.0712  -16.4300   18.0105 O   0  0  0  0  0  0  0  0  0  0  0  0
   12.1525  -17.3517   22.4036 N   0  0  0  0  0  0  0  0  0  0  0  0
   13.2791  -16.9659   23.2358 C   0  0  1  0  0  0  0  0  0  0  0  0
   13.4196  -18.0016   24.3517 C   0  0  0  0  0  0  0  0  0  0  0  0
   12.3229  -17.9039   25.3572 C   0  0  0  0  0  0  0  0  0  0  0  0
   12.4988  -19.0162   26.3294 C   0  0  0  0  0  0  0  0  0  0  0  0
   11.9565  -19.0134   27.4566 O   0  0  0  0  0  0  0  0  0  0  0  0
   14.4894  -17.0032   22.3627 C   0  0  0  0  0  0  0  0  0  0  0  0
   14.4281  -17.6439   21.1430 O   0  0  0  0  0  0  0  0  0  0  0  0
   13.2968  -20.1133   25.9952 O   0  0  0  0  0  0  0  0  0  0  0  0
   15.5763  -16.4675   22.6972 O   0  0  0  0  0  0  0  0  0  0  0  0
  2  3  1  0
  2  1  1  1
  3  4  1  0
  4  5  2  0
  5  6  1  0
  7  6  1  0
  8  7  2  0
  9  8  1  0
 10 11  1  0
 10  9  2  0
 11 12  2  0
 12  4  1  0
 12  7  1  0
 13 14  2  0
 13  2  1  0
 15 13  1  0
 16 15  1  0
 16 17  1  6
 18 17  1  0
 19 18  2  0
 20 16  1  0
 20 21  2  0
 22 18  1  0
 23 20  1  0
 24 23  1  0
 24 25  1  1
 26 27  1  0
 26 25  1  0
 27 31  1  0
 28 27  2  0
 29 24  1  0
 30 29  1  0
 32 29  2  0
M  END
$$$$
