EDA.pdb
     RDKit          3D

 23 22  0  0  1  0  0  0  0  0999 V2000
   17.4722  -12.3393  -16.3070 N   0  0  0  0  0  0  0  0  0  0  0  0
   18.4705  -11.2419  -16.3029 C   0  0  1  0  0  0  0  0  0  0  0  0
   19.5613  -11.6789  -17.1901 C   0  0  0  0  0  0  0  0  0  0  0  0
   20.0229  -13.0929  -17.1193 C   0  0  0  0  0  0  0  0  0  0  0  0
   21.0007  -13.5022  -18.1302 C   0  0  0  0  0  0  0  0  0  0  0  0
   20.7821  -14.3356  -19.0351 O   0  0  0  0  0  0  0  0  0  0  0  0
   17.7852   -9.9959  -16.5039 C   0  0  0  0  0  0  0  0  0  0  0  0
   16.7492   -9.9082  -17.2550 O   0  0  0  0  0  0  0  0  0  0  0  0
   22.2764  -12.8982  -18.0579 O   0  0  0  0  0  0  0  0  0  0  0  0
   18.1652   -8.7384  -15.8998 N   0  0  0  0  0  0  0  0  0  0  0  0
   17.3946   -7.5391  -16.0912 C   0  0  1  0  0  0  0  0  0  0  0  0
   16.4189   -7.4176  -14.9434 C   0  0  0  0  0  0  0  0  0  0  0  0
   15.5852   -6.2219  -14.9682 C   0  0  0  0  0  0  0  0  0  0  0  0
   15.4553   -5.5996  -16.0508 O   0  0  0  0  0  0  0  0  0  0  0  0
   18.2488   -6.3196  -16.1330 C   0  0  0  0  0  0  0  0  0  0  0  0
   19.0968   -6.1204  -15.2256 O   0  0  0  0  0  0  0  0  0  0  0  0
   14.9197   -5.7219  -13.8621 O   0  0  0  0  0  0  0  0  0  0  0  0
   18.8558   -3.4790  -18.5854 C   0  0  0  0  0  0  0  0  0  0  0  0
   19.0056   -4.2113  -17.2997 C   0  0  2  0  0  0  0  0  0  0  0  0
   18.1574   -5.3522  -17.1581 N   0  0  0  0  0  0  0  0  0  0  0  0
   18.8818   -3.3327  -16.1162 C   0  0  0  0  0  0  0  0  0  0  0  0
   19.7086   -2.2357  -16.0025 O   0  0  0  0  0  0  0  0  0  0  0  0
   18.0286   -3.5991  -15.2363 O   0  0  0  0  0  0  0  0  0  0  0  0
  2  1  1  6
  2  3  1  0
  3  4  1  0
  4  5  1  0
  5  6  2  0
  5  9  1  0
  7 10  1  0
  7  2  1  0
  8  7  2  0
 11 10  1  0
 11 15  1  0
 11 12  1  1
 13 14  2  0
 13 12  1  0
 15 20  1  0
 16 15  2  0
 17 13  1  0
 19 18  1  6
 19 21  1  0
 20 19  1  0
 21 23  2  0
 21 22  1  0
M  END
$$$$
