EDA.pdb
     RDKit          3D

 23 22  0  0  1  0  0  0  0  0999 V2000
   12.4835  -11.2101   -9.7128 N   0  0  0  0  0  0  0  0  0  0  0  0
   13.8798  -10.9353  -10.1319 C   0  0  1  0  0  0  0  0  0  0  0  0
   14.1317  -11.7942  -11.3011 C   0  0  0  0  0  0  0  0  0  0  0  0
   14.2845  -13.2611  -11.0960 C   0  0  0  0  0  0  0  0  0  0  0  0
   15.6034  -13.8199  -11.4023 C   0  0  0  0  0  0  0  0  0  0  0  0
   16.2400  -14.5923  -10.6543 O   0  0  0  0  0  0  0  0  0  0  0  0
   14.0737   -9.5132  -10.1822 C   0  0  0  0  0  0  0  0  0  0  0  0
   13.1783   -8.7256  -10.6544 O   0  0  0  0  0  0  0  0  0  0  0  0
   16.1782  -13.4453  -12.6380 O   0  0  0  0  0  0  0  0  0  0  0  0
   15.2572   -8.8248   -9.7172 N   0  0  0  0  0  0  0  0  0  0  0  0
   15.4545   -7.4173   -9.9381 C   0  0  1  0  0  0  0  0  0  0  0  0
   15.7000   -6.7600   -8.5995 C   0  0  0  0  0  0  0  0  0  0  0  0
   15.8936   -5.3159   -8.6491 C   0  0  0  0  0  0  0  0  0  0  0  0
   15.7951   -4.7319   -9.7560 O   0  0  0  0  0  0  0  0  0  0  0  0
   16.6132   -7.1431  -10.8330 C   0  0  0  0  0  0  0  0  0  0  0  0
   17.7724   -7.4705  -10.4708 O   0  0  0  0  0  0  0  0  0  0  0  0
   16.1830   -4.5375   -7.5416 O   0  0  0  0  0  0  0  0  0  0  0  0
   17.1639   -6.6279  -14.4510 C   0  0  0  0  0  0  0  0  0  0  0  0
   17.5328   -6.3319  -13.0410 C   0  0  2  0  0  0  0  0  0  0  0  0
   16.4796   -6.5215  -12.0942 N   0  0  0  0  0  0  0  0  0  0  0  0
   18.1379   -4.9931  -12.8706 C   0  0  0  0  0  0  0  0  0  0  0  0
   19.3394   -4.7140  -13.4857 O   0  0  0  0  0  0  0  0  0  0  0  0
   17.5499   -4.1345  -12.1704 O   0  0  0  0  0  0  0  0  0  0  0  0
  2  1  1  6
  2  3  1  0
  3  4  1  0
  4  5  1  0
  5  6  2  0
  5  9  1  0
  7 10  1  0
  7  2  1  0
  8  7  2  0
 11 10  1  0
 11 15  1  0
 11 12  1  1
 13 14  2  0
 13 12  1  0
 15 20  1  0
 16 15  2  0
 17 13  1  0
 19 18  1  6
 19 21  1  0
 20 19  1  0
 21 23  2  0
 21 22  1  0
M  END
$$$$
