EDA.pdb
     RDKit          3D

 23 22  0  0  1  0  0  0  0  0999 V2000
   16.8563  -11.5736  -15.1221 N   0  0  0  0  0  0  0  0  0  0  0  0
   16.9114  -10.2011  -15.6825 C   0  0  1  0  0  0  0  0  0  0  0  0
   15.7321   -9.4961  -15.1530 C   0  0  0  0  0  0  0  0  0  0  0  0
   14.3760   -9.9582  -15.5590 C   0  0  0  0  0  0  0  0  0  0  0  0
   13.7152  -10.8946  -14.6468 C   0  0  0  0  0  0  0  0  0  0  0  0
   13.2529  -10.5902  -13.5266 O   0  0  0  0  0  0  0  0  0  0  0  0
   18.2410   -9.6866  -15.5095 C   0  0  0  0  0  0  0  0  0  0  0  0
   18.9184   -9.9101  -14.4435 O   0  0  0  0  0  0  0  0  0  0  0  0
   13.6033  -12.2335  -15.0859 O   0  0  0  0  0  0  0  0  0  0  0  0
   18.9505   -8.8889  -16.4847 N   0  0  0  0  0  0  0  0  0  0  0  0
   20.3136   -8.4764  -16.2831 C   0  0  1  0  0  0  0  0  0  0  0  0
   21.0440   -8.6031  -17.6003 C   0  0  0  0  0  0  0  0  0  0  0  0
   22.4472   -8.2091  -17.5664 C   0  0  0  0  0  0  0  0  0  0  0  0
   23.1133   -8.4394  -16.5274 O   0  0  0  0  0  0  0  0  0  0  0  0
   20.4130   -7.0686  -15.8068 C   0  0  0  0  0  0  0  0  0  0  0  0
   19.7170   -6.1745  -16.3529 O   0  0  0  0  0  0  0  0  0  0  0  0
   23.1007   -7.5899  -18.6179 O   0  0  0  0  0  0  0  0  0  0  0  0
   21.9411   -5.2610  -12.8590 C   0  0  0  0  0  0  0  0  0  0  0  0
   21.3833   -5.3461  -14.2350 C   0  0  2  0  0  0  0  0  0  0  0  0
   21.2649   -6.6728  -14.7521 N   0  0  0  0  0  0  0  0  0  0  0  0
   22.0955   -4.4827  -15.2020 C   0  0  0  0  0  0  0  0  0  0  0  0
   22.0239   -3.1134  -15.0620 O   0  0  0  0  0  0  0  0  0  0  0  0
   22.7519   -5.0088  -16.1324 O   0  0  0  0  0  0  0  0  0  0  0  0
  2  1  1  1
  2  3  1  0
  3  4  1  0
  4  5  1  0
  5  6  2  0
  5  9  1  0
  7 10  1  0
  7  2  1  0
  8  7  2  0
 11 10  1  0
 11 15  1  0
 11 12  1  6
 13 14  2  0
 13 12  1  0
 15 20  1  0
 16 15  2  0
 17 13  1  0
 19 18  1  1
 19 21  1  0
 20 19  1  0
 21 23  2  0
 21 22  1  0
M  END
$$$$
