EDA.pdb
     RDKit          3D

 23 22  0  0  1  0  0  0  0  0999 V2000
   17.6243  -12.2255  -17.0801 N   0  0  0  0  0  0  0  0  0  0  0  0
   17.1314  -10.8588  -16.7800 C   0  0  1  0  0  0  0  0  0  0  0  0
   16.3277  -10.9752  -15.5517 C   0  0  0  0  0  0  0  0  0  0  0  0
   15.0215  -11.6876  -15.6120 C   0  0  0  0  0  0  0  0  0  0  0  0
   14.1933  -11.6166  -14.4060 C   0  0  0  0  0  0  0  0  0  0  0  0
   13.8667  -10.5578  -13.8285 O   0  0  0  0  0  0  0  0  0  0  0  0
   18.2313   -9.9409  -16.8801 C   0  0  0  0  0  0  0  0  0  0  0  0
   19.4480  -10.3287  -16.7603 O   0  0  0  0  0  0  0  0  0  0  0  0
   13.7422  -12.8462  -13.8747 O   0  0  0  0  0  0  0  0  0  0  0  0
   18.1019   -8.5217  -17.1253 N   0  0  0  0  0  0  0  0  0  0  0  0
   19.2473   -7.6543  -17.1940 C   0  0  1  0  0  0  0  0  0  0  0  0
   18.8869   -6.4653  -18.0546 C   0  0  0  0  0  0  0  0  0  0  0  0
   19.9566   -5.4919  -18.2386 C   0  0  0  0  0  0  0  0  0  0  0  0
   19.6578   -4.2751  -18.3169 O   0  0  0  0  0  0  0  0  0  0  0  0
   19.6704   -7.1702  -15.8505 C   0  0  0  0  0  0  0  0  0  0  0  0
   18.8270   -6.6354  -15.0858 O   0  0  0  0  0  0  0  0  0  0  0  0
   21.2965   -5.8264  -18.3340 O   0  0  0  0  0  0  0  0  0  0  0  0
   22.4665   -7.7872  -13.4749 C   0  0  0  0  0  0  0  0  0  0  0  0
   21.4490   -6.8868  -14.0799 C   0  0  2  0  0  0  0  0  0  0  0  0
   20.9964   -7.2806  -15.3766 N   0  0  0  0  0  0  0  0  0  0  0  0
   21.8679   -5.4683  -14.0940 C   0  0  0  0  0  0  0  0  0  0  0  0
   22.1452   -4.8362  -12.9010 O   0  0  0  0  0  0  0  0  0  0  0  0
   21.9638   -4.8640  -15.1889 O   0  0  0  0  0  0  0  0  0  0  0  0
  2  1  1  1
  2  3  1  0
  3  4  1  0
  4  5  1  0
  5  6  2  0
  5  9  1  0
  7 10  1  0
  7  2  1  0
  8  7  2  0
 11 10  1  0
 11 15  1  0
 11 12  1  6
 13 14  2  0
 13 12  1  0
 15 20  1  0
 16 15  2  0
 17 13  1  0
 19 18  1  6
 19 21  1  0
 20 19  1  0
 21 23  2  0
 21 22  1  0
M  END
$$$$
