EDA.pdb
     RDKit          3D

 23 22  0  0  1  0  0  0  0  0999 V2000
   16.4705  -11.5567  -15.8580 N   0  0  0  0  0  0  0  0  0  0  0  0
   17.8130  -11.2634  -15.2990 C   0  0  1  0  0  0  0  0  0  0  0  0
   18.7845  -11.7794  -16.2778 C   0  0  0  0  0  0  0  0  0  0  0  0
   18.8568  -13.2479  -16.5133 C   0  0  0  0  0  0  0  0  0  0  0  0
   19.8067  -13.6896  -17.5371 C   0  0  0  0  0  0  0  0  0  0  0  0
   20.4753  -12.9248  -18.2647 O   0  0  0  0  0  0  0  0  0  0  0  0
   17.8385   -9.8976  -14.8559 C   0  0  0  0  0  0  0  0  0  0  0  0
   17.2777   -8.9592  -15.5267 O   0  0  0  0  0  0  0  0  0  0  0  0
   19.9625  -15.0854  -17.6960 O   0  0  0  0  0  0  0  0  0  0  0  0
   18.4719   -9.4360  -13.6408 N   0  0  0  0  0  0  0  0  0  0  0  0
   18.4659   -8.0491  -13.2595 C   0  0  1  0  0  0  0  0  0  0  0  0
   18.2239   -7.9710  -11.7697 C   0  0  0  0  0  0  0  0  0  0  0  0
   16.8929   -8.3824  -11.3399 C   0  0  0  0  0  0  0  0  0  0  0  0
   16.0271   -8.6317  -12.2142 O   0  0  0  0  0  0  0  0  0  0  0  0
   19.7528   -7.3703  -13.5782 C   0  0  0  0  0  0  0  0  0  0  0  0
   20.8401   -7.9008  -13.2339 O   0  0  0  0  0  0  0  0  0  0  0  0
   16.5172   -8.5175  -10.0144 O   0  0  0  0  0  0  0  0  0  0  0  0
   20.8208   -4.3609  -15.6342 C   0  0  0  0  0  0  0  0  0  0  0  0
   21.0227   -5.4897  -14.6871 C   0  0  2  0  0  0  0  0  0  0  0  0
   19.8217   -6.1356  -14.2608 N   0  0  0  0  0  0  0  0  0  0  0  0
   21.8479   -5.1213  -13.5162 C   0  0  0  0  0  0  0  0  0  0  0  0
   23.2119   -4.9925  -13.6673 O   0  0  0  0  0  0  0  0  0  0  0  0
   21.2949   -4.9324  -12.4063 O   0  0  0  0  0  0  0  0  0  0  0  0
  2  1  1  6
  2  3  1  0
  3  4  1  0
  4  5  1  0
  5  6  2  0
  5  9  1  0
  7 10  1  0
  7  2  1  0
  8  7  2  0
 11 10  1  0
 11 15  1  0
 11 12  1  1
 13 14  2  0
 13 12  1  0
 15 20  1  0
 16 15  2  0
 17 13  1  0
 19 18  1  1
 19 21  1  0
 20 19  1  0
 21 23  2  0
 21 22  1  0
M  END
$$$$
