EDA.pdb
     RDKit          3D

 23 22  0  0  1  0  0  0  0  0999 V2000
   13.3154  -11.8391  -10.5530 N   0  0  0  0  0  0  0  0  0  0  0  0
   14.5932  -11.2338  -10.1038 C   0  0  1  0  0  0  0  0  0  0  0  0
   15.6627  -12.0003  -10.7647 C   0  0  0  0  0  0  0  0  0  0  0  0
   15.3791  -12.6463  -12.0760 C   0  0  0  0  0  0  0  0  0  0  0  0
   16.5212  -13.2741  -12.7446 C   0  0  0  0  0  0  0  0  0  0  0  0
   16.8877  -14.4556  -12.5680 O   0  0  0  0  0  0  0  0  0  0  0  0
   14.4959   -9.8067  -10.2310 C   0  0  0  0  0  0  0  0  0  0  0  0
   13.6600   -9.2552  -11.0324 O   0  0  0  0  0  0  0  0  0  0  0  0
   17.2463  -12.4671  -13.6505 O   0  0  0  0  0  0  0  0  0  0  0  0
   15.2967   -8.8559   -9.4922 N   0  0  0  0  0  0  0  0  0  0  0  0
   15.1906   -7.4385   -9.7128 C   0  0  1  0  0  0  0  0  0  0  0  0
   15.3672   -6.7404   -8.3840 C   0  0  0  0  0  0  0  0  0  0  0  0
   15.1783   -5.2952   -8.4181 C   0  0  0  0  0  0  0  0  0  0  0  0
   14.8685   -4.7530   -9.5073 O   0  0  0  0  0  0  0  0  0  0  0  0
   16.2200   -6.9366  -10.6650 C   0  0  0  0  0  0  0  0  0  0  0  0
   17.4405   -7.0674  -10.3905 O   0  0  0  0  0  0  0  0  0  0  0  0
   15.3204   -4.4719   -7.3143 O   0  0  0  0  0  0  0  0  0  0  0  0
   16.3584   -6.1102  -14.2911 C   0  0  0  0  0  0  0  0  0  0  0  0
   16.8301   -5.9174  -12.8939 C   0  0  2  0  0  0  0  0  0  0  0  0
   15.8945   -6.3074  -11.8870 N   0  0  0  0  0  0  0  0  0  0  0  0
   17.3193   -4.5462  -12.6330 C   0  0  0  0  0  0  0  0  0  0  0  0
   18.3937   -4.0665  -13.3510 O   0  0  0  0  0  0  0  0  0  0  0  0
   16.7504   -3.8427  -11.7643 O   0  0  0  0  0  0  0  0  0  0  0  0
  2  1  1  6
  2  3  1  0
  3  4  1  0
  4  5  1  0
  5  6  2  0
  5  9  1  0
  7 10  1  0
  7  2  1  0
  8  7  2  0
 11 10  1  0
 11 15  1  0
 11 12  1  1
 13 14  2  0
 13 12  1  0
 15 20  1  0
 16 15  2  0
 17 13  1  0
 19 18  1  6
 19 21  1  0
 20 19  1  0
 21 23  2  0
 21 22  1  0
M  END
$$$$
