EDA.pdb
     RDKit          3D

 23 22  0  0  1  0  0  0  0  0999 V2000
   16.3007  -11.9949  -15.1539 N   0  0  0  0  0  0  0  0  0  0  0  0
   16.3996  -10.5407  -15.4304 C   0  0  1  0  0  0  0  0  0  0  0  0
   15.2690   -9.9133  -14.7259 C   0  0  0  0  0  0  0  0  0  0  0  0
   13.8837  -10.2015  -15.1898 C   0  0  0  0  0  0  0  0  0  0  0  0
   12.8046   -9.5749  -14.4228 C   0  0  0  0  0  0  0  0  0  0  0  0
   12.9741   -8.8327  -13.4319 O   0  0  0  0  0  0  0  0  0  0  0  0
   17.7552  -10.1215  -15.2091 C   0  0  0  0  0  0  0  0  0  0  0  0
   18.3692  -10.3724  -14.1113 O   0  0  0  0  0  0  0  0  0  0  0  0
   11.4849   -9.8424  -14.8523 O   0  0  0  0  0  0  0  0  0  0  0  0
   18.5619   -9.3977  -16.1663 N   0  0  0  0  0  0  0  0  0  0  0  0
   19.9341   -9.0576  -15.9016 C   0  0  1  0  0  0  0  0  0  0  0  0
   20.7295   -9.2900  -17.1655 C   0  0  0  0  0  0  0  0  0  0  0  0
   22.1689   -9.1021  -17.0302 C   0  0  0  0  0  0  0  0  0  0  0  0
   22.6388   -8.8389  -15.8962 O   0  0  0  0  0  0  0  0  0  0  0  0
   20.0930   -7.6371  -15.4828 C   0  0  0  0  0  0  0  0  0  0  0  0
   19.3793   -6.7469  -16.0121 O   0  0  0  0  0  0  0  0  0  0  0  0
   23.0619   -9.1960  -18.0838 O   0  0  0  0  0  0  0  0  0  0  0  0
   22.0529   -5.7429  -12.8359 C   0  0  0  0  0  0  0  0  0  0  0  0
   21.2192   -5.8804  -14.0598 C   0  0  2  0  0  0  0  0  0  0  0  0
   21.0220   -7.2246  -14.5020 N   0  0  0  0  0  0  0  0  0  0  0  0
   21.6933   -5.0386  -15.1798 C   0  0  0  0  0  0  0  0  0  0  0  0
   22.2619   -5.6412  -16.2813 O   0  0  0  0  0  0  0  0  0  0  0  0
   21.5710   -3.7923  -15.1099 O   0  0  0  0  0  0  0  0  0  0  0  0
  2  1  1  1
  2  3  1  0
  3  4  1  0
  4  5  1  0
  5  6  2  0
  5  9  1  0
  7 10  1  0
  7  2  1  0
  8  7  2  0
 11 10  1  0
 11 15  1  0
 11 12  1  6
 13 14  2  0
 13 12  1  0
 15 20  1  0
 16 15  2  0
 17 13  1  0
 19 18  1  1
 19 21  1  0
 20 19  1  0
 21 23  2  0
 21 22  1  0
M  END
$$$$
