EDA.pdb
     RDKit          3D

 23 22  0  0  1  0  0  0  0  0999 V2000
   14.6007   -9.7388  -15.2452 N   0  0  0  0  0  0  0  0  0  0  0  0
   15.5052  -10.0146  -14.1021 C   0  0  1  0  0  0  0  0  0  0  0  0
   16.3785  -11.1202  -14.5300 C   0  0  0  0  0  0  0  0  0  0  0  0
   15.7925  -12.4803  -14.6857 C   0  0  0  0  0  0  0  0  0  0  0  0
   16.7453  -13.5696  -14.9121 C   0  0  0  0  0  0  0  0  0  0  0  0
   17.6404  -13.5622  -15.7839 O   0  0  0  0  0  0  0  0  0  0  0  0
   16.0394   -8.7690  -13.6273 C   0  0  0  0  0  0  0  0  0  0  0  0
   15.9619   -7.6926  -14.3205 O   0  0  0  0  0  0  0  0  0  0  0  0
   16.6254  -14.7002  -14.0724 O   0  0  0  0  0  0  0  0  0  0  0  0
   16.6994   -8.5862  -12.3538 N   0  0  0  0  0  0  0  0  0  0  0  0
   17.2226   -7.3104  -11.9446 C   0  0  1  0  0  0  0  0  0  0  0  0
   17.0107   -7.1700  -10.4548 C   0  0  0  0  0  0  0  0  0  0  0  0
   17.4786   -5.9136   -9.8822 C   0  0  0  0  0  0  0  0  0  0  0  0
   17.9186   -5.0261  -10.6535 O   0  0  0  0  0  0  0  0  0  0  0  0
   18.6755   -7.1740  -12.2429 C   0  0  0  0  0  0  0  0  0  0  0  0
   19.5162   -7.8056  -11.5526 O   0  0  0  0  0  0  0  0  0  0  0  0
   17.4693   -5.6322   -8.5268 O   0  0  0  0  0  0  0  0  0  0  0  0
   20.7259   -5.8585  -15.1186 C   0  0  0  0  0  0  0  0  0  0  0  0
   20.5347   -6.2972  -13.7104 C   0  0  2  0  0  0  0  0  0  0  0  0
   19.1732   -6.3560  -13.2813 N   0  0  0  0  0  0  0  0  0  0  0  0
   21.3406   -5.5160  -12.7471 C   0  0  0  0  0  0  0  0  0  0  0  0
   22.7125   -5.6488  -12.7532 O   0  0  0  0  0  0  0  0  0  0  0  0
   20.7644   -4.7467  -11.9412 O   0  0  0  0  0  0  0  0  0  0  0  0
  2  1  1  6
  2  3  1  0
  3  4  1  0
  4  5  1  0
  5  6  2  0
  5  9  1  0
  7 10  1  0
  7  2  1  0
  8  7  2  0
 11 10  1  0
 11 15  1  0
 11 12  1  1
 13 14  2  0
 13 12  1  0
 15 20  1  0
 16 15  2  0
 17 13  1  0
 19 18  1  6
 19 21  1  0
 20 19  1  0
 21 23  2  0
 21 22  1  0
M  END
$$$$
