EDA.pdb
     RDKit          3D

 23 22  0  0  1  0  0  0  0  0999 V2000
   15.4997   -9.9864  -17.1900 N   0  0  0  0  0  0  0  0  0  0  0  0
   16.0835   -9.5712  -15.8908 C   0  0  1  0  0  0  0  0  0  0  0  0
   16.5080  -10.8108  -15.2192 C   0  0  0  0  0  0  0  0  0  0  0  0
   15.4726  -11.8054  -14.8244 C   0  0  0  0  0  0  0  0  0  0  0  0
   15.9586  -12.9982  -14.1268 C   0  0  0  0  0  0  0  0  0  0  0  0
   16.8298  -13.7764  -14.5703 O   0  0  0  0  0  0  0  0  0  0  0  0
   16.9951   -8.4858  -16.1220 C   0  0  0  0  0  0  0  0  0  0  0  0
   17.6846   -8.4008  -17.2002 O   0  0  0  0  0  0  0  0  0  0  0  0
   15.3873  -13.2689  -12.8627 O   0  0  0  0  0  0  0  0  0  0  0  0
   17.2307   -7.3958  -15.2016 N   0  0  0  0  0  0  0  0  0  0  0  0
   18.2023   -6.3699  -15.4705 C   0  0  1  0  0  0  0  0  0  0  0  0
   17.5023   -5.0315  -15.4145 C   0  0  0  0  0  0  0  0  0  0  0  0
   16.6575   -4.7303  -16.5638 C   0  0  0  0  0  0  0  0  0  0  0  0
   15.4108   -4.7458  -16.4165 O   0  0  0  0  0  0  0  0  0  0  0  0
   19.3176   -6.3757  -14.4833 C   0  0  0  0  0  0  0  0  0  0  0  0
   19.0631   -6.2983  -13.2540 O   0  0  0  0  0  0  0  0  0  0  0  0
   17.1465   -4.4248  -17.8223 O   0  0  0  0  0  0  0  0  0  0  0  0
   23.0604   -6.9814  -14.5722 C   0  0  0  0  0  0  0  0  0  0  0  0
   21.7834   -6.5288  -13.9588 C   0  0  2  0  0  0  0  0  0  0  0  0
   20.6761   -6.4652  -14.8594 N   0  0  0  0  0  0  0  0  0  0  0  0
   21.9163   -5.2533  -13.2218 C   0  0  0  0  0  0  0  0  0  0  0  0
   22.4584   -5.2611  -11.9546 O   0  0  0  0  0  0  0  0  0  0  0  0
   21.5343   -4.1867  -13.7601 O   0  0  0  0  0  0  0  0  0  0  0  0
  2  1  1  6
  2  3  1  0
  3  4  1  0
  4  5  1  0
  5  6  2  0
  5  9  1  0
  7 10  1  0
  7  2  1  0
  8  7  2  0
 11 10  1  0
 11 15  1  0
 11 12  1  1
 13 14  2  0
 13 12  1  0
 15 20  1  0
 16 15  2  0
 17 13  1  0
 19 18  1  6
 19 21  1  0
 20 19  1  0
 21 23  2  0
 21 22  1  0
M  END
$$$$
