EDA.pdb
     RDKit          3D

 23 22  0  0  1  0  0  0  0  0999 V2000
   19.2153  -10.3941  -18.1956 N   0  0  0  0  0  0  0  0  0  0  0  0
   18.1691   -9.4582  -17.7155 C   0  0  1  0  0  0  0  0  0  0  0  0
   17.2986  -10.2418  -16.8231 C   0  0  0  0  0  0  0  0  0  0  0  0
   17.8464  -10.7223  -15.5245 C   0  0  0  0  0  0  0  0  0  0  0  0
   16.9777  -11.6106  -14.7487 C   0  0  0  0  0  0  0  0  0  0  0  0
   16.7026  -12.7885  -15.0621 O   0  0  0  0  0  0  0  0  0  0  0  0
   18.8019   -8.2446  -17.2807 C   0  0  0  0  0  0  0  0  0  0  0  0
   19.9701   -7.9079  -17.6895 O   0  0  0  0  0  0  0  0  0  0  0  0
   16.4220  -11.0763  -13.5641 O   0  0  0  0  0  0  0  0  0  0  0  0
   18.2151   -7.2894  -16.3674 N   0  0  0  0  0  0  0  0  0  0  0  0
   18.8027   -5.9968  -16.1378 C   0  0  1  0  0  0  0  0  0  0  0  0
   17.7460   -5.0989  -15.5366 C   0  0  0  0  0  0  0  0  0  0  0  0
   16.7088   -4.6628  -16.4637 C   0  0  0  0  0  0  0  0  0  0  0  0
   17.0438   -4.3112  -17.6214 O   0  0  0  0  0  0  0  0  0  0  0  0
   19.9675   -6.0625  -15.2119 C   0  0  0  0  0  0  0  0  0  0  0  0
   19.8707   -6.6990  -14.1314 O   0  0  0  0  0  0  0  0  0  0  0  0
   15.3624   -4.6103  -16.1464 O   0  0  0  0  0  0  0  0  0  0  0  0
   23.5977   -4.9640  -15.2073 C   0  0  0  0  0  0  0  0  0  0  0  0
   22.3025   -5.3373  -14.5788 C   0  0  2  0  0  0  0  0  0  0  0  0
   21.2030   -5.4352  -15.4859 N   0  0  0  0  0  0  0  0  0  0  0  0
   21.9448   -4.4717  -13.4340 C   0  0  0  0  0  0  0  0  0  0  0  0
   22.5490   -4.6852  -12.2137 O   0  0  0  0  0  0  0  0  0  0  0  0
   21.0989   -3.5589  -13.5911 O   0  0  0  0  0  0  0  0  0  0  0  0
  2  1  1  1
  2  3  1  0
  3  4  1  0
  4  5  1  0
  5  6  2  0
  5  9  1  0
  7 10  1  0
  7  2  1  0
  8  7  2  0
 11 10  1  0
 11 15  1  0
 11 12  1  1
 13 14  2  0
 13 12  1  0
 15 20  1  0
 16 15  2  0
 17 13  1  0
 19 18  1  6
 19 21  1  0
 20 19  1  0
 21 23  2  0
 21 22  1  0
M  END
$$$$
