EDA.pdb
     RDKit          3D

 23 22  0  0  1  0  0  0  0  0999 V2000
   18.4915  -11.5522  -14.8861 N   0  0  0  0  0  0  0  0  0  0  0  0
   18.0096  -10.2854  -15.4894 C   0  0  1  0  0  0  0  0  0  0  0  0
   16.5422  -10.3929  -15.5470 C   0  0  0  0  0  0  0  0  0  0  0  0
   15.9309  -11.4179  -16.4374 C   0  0  0  0  0  0  0  0  0  0  0  0
   14.4727  -11.3701  -16.5677 C   0  0  0  0  0  0  0  0  0  0  0  0
   13.8010  -12.1078  -17.3200 O   0  0  0  0  0  0  0  0  0  0  0  0
   18.6625   -9.1866  -14.8346 C   0  0  0  0  0  0  0  0  0  0  0  0
   18.6954   -9.0849  -13.5564 O   0  0  0  0  0  0  0  0  0  0  0  0
   13.7975  -10.4133  -15.7763 O   0  0  0  0  0  0  0  0  0  0  0  0
   19.3412   -8.1061  -15.5148 N   0  0  0  0  0  0  0  0  0  0  0  0
   19.8687   -6.9723  -14.8040 C   0  0  1  0  0  0  0  0  0  0  0  0
   21.3710   -7.1199  -14.7299 C   0  0  0  0  0  0  0  0  0  0  0  0
   22.0636   -6.0322  -14.0496 C   0  0  0  0  0  0  0  0  0  0  0  0
   21.8128   -5.8223  -12.8375 O   0  0  0  0  0  0  0  0  0  0  0  0
   19.5404   -5.6832  -15.4740 C   0  0  0  0  0  0  0  0  0  0  0  0
   19.8496   -5.5108  -16.6810 O   0  0  0  0  0  0  0  0  0  0  0  0
   22.9907   -5.2057  -14.6609 O   0  0  0  0  0  0  0  0  0  0  0  0
   17.1163   -2.9217  -14.9535 C   0  0  0  0  0  0  0  0  0  0  0  0
   18.4364   -3.4120  -15.4320 C   0  0  2  0  0  0  0  0  0  0  0  0
   18.8866   -4.6191  -14.8143 N   0  0  0  0  0  0  0  0  0  0  0  0
   19.4942   -2.3801  -15.3676 C   0  0  0  0  0  0  0  0  0  0  0  0
   20.6676   -2.6593  -14.7006 O   0  0  0  0  0  0  0  0  0  0  0  0
   19.3073   -1.2694  -15.9196 O   0  0  0  0  0  0  0  0  0  0  0  0
  2  1  1  1
  2  3  1  0
  3  4  1  0
  4  5  1  0
  5  6  2  0
  5  9  1  0
  7 10  1  0
  7  2  1  0
  8  7  2  0
 11 10  1  0
 11 15  1  0
 11 12  1  6
 13 14  2  0
 13 12  1  0
 15 20  1  0
 16 15  2  0
 17 13  1  0
 19 18  1  1
 19 21  1  0
 20 19  1  0
 21 23  2  0
 21 22  1  0
M  END
$$$$
