EDA.pdb
     RDKit          3D

 23 22  0  0  1  0  0  0  0  0999 V2000
   18.0383  -12.3970  -15.9144 N   0  0  0  0  0  0  0  0  0  0  0  0
   17.7549  -10.9978  -16.3178 C   0  0  1  0  0  0  0  0  0  0  0  0
   16.3003  -10.8186  -16.1761 C   0  0  0  0  0  0  0  0  0  0  0  0
   15.3906  -11.5916  -17.0661 C   0  0  0  0  0  0  0  0  0  0  0  0
   14.5970  -12.6402  -16.4211 C   0  0  0  0  0  0  0  0  0  0  0  0
   13.9329  -12.4872  -15.3737 O   0  0  0  0  0  0  0  0  0  0  0  0
   18.6916  -10.1306  -15.6598 C   0  0  0  0  0  0  0  0  0  0  0  0
   18.6809   -9.9656  -14.3878 O   0  0  0  0  0  0  0  0  0  0  0  0
   14.5965  -13.9082  -17.0456 O   0  0  0  0  0  0  0  0  0  0  0  0
   19.7249   -9.3723  -16.3291 N   0  0  0  0  0  0  0  0  0  0  0  0
   20.6320   -8.5210  -15.6070 C   0  0  1  0  0  0  0  0  0  0  0  0
   22.0349   -9.0437  -15.8146 C   0  0  0  0  0  0  0  0  0  0  0  0
   23.0670   -8.3585  -15.0461 C   0  0  0  0  0  0  0  0  0  0  0  0
   22.7204   -7.4758  -14.2234 O   0  0  0  0  0  0  0  0  0  0  0  0
   20.5680   -7.1066  -16.0692 C   0  0  0  0  0  0  0  0  0  0  0  0
   20.8321   -6.8290  -17.2673 O   0  0  0  0  0  0  0  0  0  0  0  0
   24.4209   -8.6208  -15.1663 O   0  0  0  0  0  0  0  0  0  0  0  0
   19.0435   -3.8899  -14.9941 C   0  0  0  0  0  0  0  0  0  0  0  0
   20.1654   -4.6585  -15.5963 C   0  0  2  0  0  0  0  0  0  0  0  0
   20.2194   -6.0350  -15.2175 N   0  0  0  0  0  0  0  0  0  0  0  0
   21.4825   -4.0189  -15.3865 C   0  0  0  0  0  0  0  0  0  0  0  0
   21.8822   -3.0070  -16.2328 O   0  0  0  0  0  0  0  0  0  0  0  0
   22.2137   -4.4064  -14.4439 O   0  0  0  0  0  0  0  0  0  0  0  0
  2  1  1  1
  2  3  1  0
  3  4  1  0
  4  5  1  0
  5  6  2  0
  5  9  1  0
  7 10  1  0
  7  2  1  0
  8  7  2  0
 11 10  1  0
 11 15  1  0
 11 12  1  6
 13 14  2  0
 13 12  1  0
 15 20  1  0
 16 15  2  0
 17 13  1  0
 19 18  1  1
 19 21  1  0
 20 19  1  0
 21 23  2  0
 21 22  1  0
M  END
$$$$
