EDA.pdb
     RDKit          3D

 23 22  0  0  1  0  0  0  0  0999 V2000
   22.2367  -10.1349  -17.9028 N   0  0  0  0  0  0  0  0  0  0  0  0
   21.0915   -9.5246  -18.6219 C   0  0  1  0  0  0  0  0  0  0  0  0
   20.1571  -10.6254  -18.9104 C   0  0  0  0  0  0  0  0  0  0  0  0
   20.5709  -11.6870  -19.8690 C   0  0  0  0  0  0  0  0  0  0  0  0
   19.6213  -12.7854  -20.0624 C   0  0  0  0  0  0  0  0  0  0  0  0
   18.8607  -12.9034  -21.0467 O   0  0  0  0  0  0  0  0  0  0  0  0
   20.6771   -8.3472  -17.9117 C   0  0  0  0  0  0  0  0  0  0  0  0
   19.6815   -7.6385  -18.3013 O   0  0  0  0  0  0  0  0  0  0  0  0
   19.5795  -13.7714  -19.0506 O   0  0  0  0  0  0  0  0  0  0  0  0
   21.3074   -7.8424  -16.7122 N   0  0  0  0  0  0  0  0  0  0  0  0
   20.7486   -6.7502  -15.9614 C   0  0  1  0  0  0  0  0  0  0  0  0
   20.8937   -7.0665  -14.4906 C   0  0  0  0  0  0  0  0  0  0  0  0
   20.0048   -8.1104  -13.9950 C   0  0  0  0  0  0  0  0  0  0  0  0
   18.8219   -8.1445  -14.4141 O   0  0  0  0  0  0  0  0  0  0  0  0
   21.4322   -5.4586  -16.2496 C   0  0  0  0  0  0  0  0  0  0  0  0
   22.6882   -5.3974  -16.2209 O   0  0  0  0  0  0  0  0  0  0  0  0
   20.3850   -9.0781  -13.0810 O   0  0  0  0  0  0  0  0  0  0  0  0
   20.4294   -2.0331  -17.5253 C   0  0  0  0  0  0  0  0  0  0  0  0
   21.3322   -3.0099  -16.8599 C   0  0  2  0  0  0  0  0  0  0  0  0
   20.7326   -4.2716  -16.5602 N   0  0  0  0  0  0  0  0  0  0  0  0
   21.9929   -2.4595  -15.6564 C   0  0  0  0  0  0  0  0  0  0  0  0
   21.8567   -3.1177  -14.4531 O   0  0  0  0  0  0  0  0  0  0  0  0
   22.6651   -1.4047  -15.7493 O   0  0  0  0  0  0  0  0  0  0  0  0
  2  1  1  1
  2  3  1  0
  3  4  1  0
  4  5  1  0
  5  6  2  0
  5  9  1  0
  7 10  1  0
  7  2  1  0
  8  7  2  0
 11 10  1  0
 11 15  1  0
 11 12  1  1
 13 14  2  0
 13 12  1  0
 15 20  1  0
 16 15  2  0
 17 13  1  0
 19 18  1  1
 19 21  1  0
 20 19  1  0
 21 23  2  0
 21 22  1  0
M  END
$$$$
