EDA.pdb
     RDKit          3D

 23 22  0  0  1  0  0  0  0  0999 V2000
   29.9766  -34.4887   -5.2220 N   0  0  0  0  0  0  0  0  0  0  0  0
   28.6157  -34.2483   -4.6826 C   0  0  1  0  0  0  0  0  0  0  0  0
   27.7120  -35.1206   -5.4510 C   0  0  0  0  0  0  0  0  0  0  0  0
   28.1245  -36.5262   -5.7181 C   0  0  0  0  0  0  0  0  0  0  0  0
   27.2594  -37.5681   -5.1597 C   0  0  0  0  0  0  0  0  0  0  0  0
   26.1742  -37.3555   -4.5779 O   0  0  0  0  0  0  0  0  0  0  0  0
   28.6744  -34.2954   -3.2485 C   0  0  0  0  0  0  0  0  0  0  0  0
   29.7696  -34.0994   -2.6103 O   0  0  0  0  0  0  0  0  0  0  0  0
   27.7037  -38.9024   -5.3007 O   0  0  0  0  0  0  0  0  0  0  0  0
   27.5442  -34.5546   -2.3845 N   0  0  0  0  0  0  0  0  0  0  0  0
   27.6193  -34.3742   -0.9594 C   0  0  1  0  0  0  0  0  0  0  0  0
   26.2974  -33.8160   -0.4848 C   0  0  0  0  0  0  0  0  0  0  0  0
   26.2246  -33.5368    0.9442 C   0  0  0  0  0  0  0  0  0  0  0  0
   27.2469  -33.0974    1.5257 O   0  0  0  0  0  0  0  0  0  0  0  0
   27.8924  -35.6508   -0.2423 C   0  0  0  0  0  0  0  0  0  0  0  0
   27.3044  -36.7043   -0.5979 O   0  0  0  0  0  0  0  0  0  0  0  0
   25.0879  -33.7272    1.7110 O   0  0  0  0  0  0  0  0  0  0  0  0
   30.3694  -36.8564    2.3641 C   0  0  0  0  0  0  0  0  0  0  0  0
   29.1466  -36.9509    1.5227 C   0  0  2  0  0  0  0  0  0  0  0  0
   28.7952  -35.7462    0.8397 N   0  0  0  0  0  0  0  0  0  0  0  0
   27.9780  -37.4803    2.2588 C   0  0  0  0  0  0  0  0  0  0  0  0
   28.0255  -38.7609    2.7663 O   0  0  0  0  0  0  0  0  0  0  0  0
   26.9641  -36.7574    2.4093 O   0  0  0  0  0  0  0  0  0  0  0  0
  2  1  1  6
  2  3  1  0
  3  4  1  0
  4  5  1  0
  5  6  2  0
  5  9  1  0
  7 10  1  0
  7  2  1  0
  8  7  2  0
 11 10  1  0
 11 15  1  0
 11 12  1  1
 13 14  2  0
 13 12  1  0
 15 20  1  0
 16 15  2  0
 17 13  1  0
 19 18  1  1
 19 21  1  0
 20 19  1  0
 21 23  2  0
 21 22  1  0
M  END
$$$$
