EDA.pdb
     RDKit          3D

 23 22  0  0  1  0  0  0  0  0999 V2000
   18.1021  -10.9558  -14.7569 N   0  0  0  0  0  0  0  0  0  0  0  0
   18.0041   -9.4787  -14.8551 C   0  0  1  0  0  0  0  0  0  0  0  0
   16.8443   -9.2031  -15.7193 C   0  0  0  0  0  0  0  0  0  0  0  0
   15.4802   -9.5241  -15.2160 C   0  0  0  0  0  0  0  0  0  0  0  0
   14.3749   -9.2640  -16.1413 C   0  0  0  0  0  0  0  0  0  0  0  0
   13.1655   -9.4152  -15.8656 O   0  0  0  0  0  0  0  0  0  0  0  0
   18.1139   -8.9217  -13.5360 C   0  0  0  0  0  0  0  0  0  0  0  0
   17.9079   -9.6279  -12.4852 O   0  0  0  0  0  0  0  0  0  0  0  0
   14.7246   -8.8101  -17.4333 O   0  0  0  0  0  0  0  0  0  0  0  0
   18.4630   -7.5487  -13.2464 N   0  0  0  0  0  0  0  0  0  0  0  0
   18.6397   -7.0768  -11.8992 C   0  0  1  0  0  0  0  0  0  0  0  0
   19.5844   -5.8976  -11.9330 C   0  0  0  0  0  0  0  0  0  0  0  0
   20.9655   -6.2247  -12.2662 C   0  0  0  0  0  0  0  0  0  0  0  0
   21.4073   -7.3593  -11.9599 O   0  0  0  0  0  0  0  0  0  0  0  0
   17.3550   -6.6516  -11.2769 C   0  0  0  0  0  0  0  0  0  0  0  0
   16.5146   -6.0090  -11.9573 O   0  0  0  0  0  0  0  0  0  0  0  0
   21.8319   -5.3550  -12.9060 O   0  0  0  0  0  0  0  0  0  0  0  0
   15.5498   -7.2529   -7.9925 C   0  0  0  0  0  0  0  0  0  0  0  0
   15.8016   -6.5658   -9.2872 C   0  0  2  0  0  0  0  0  0  0  0  0
   17.0204   -6.9360   -9.9344 N   0  0  0  0  0  0  0  0  0  0  0  0
   15.7022   -5.0933   -9.1891 C   0  0  0  0  0  0  0  0  0  0  0  0
   14.4821   -4.5182   -8.9057 O   0  0  0  0  0  0  0  0  0  0  0  0
   16.7274   -4.3924   -9.3651 O   0  0  0  0  0  0  0  0  0  0  0  0
  2  1  1  1
  2  3  1  0
  3  4  1  0
  4  5  1  0
  5  6  2  0
  5  9  1  0
  7 10  1  0
  7  2  1  0
  8  7  2  0
 11 10  1  0
 11 15  1  0
 11 12  1  6
 13 14  2  0
 13 12  1  0
 15 20  1  0
 16 15  2  0
 17 13  1  0
 19 18  1  1
 19 21  1  0
 20 19  1  0
 21 23  2  0
 21 22  1  0
M  END
$$$$
