YRQ.pdb
     RDKit          3D

 33 33  0  0  1  0  0  0  0  0999 V2000
   11.1469  -14.0406   30.8242 O   0  0  0  0  0  0  0  0  0  0  0  0
   10.9342  -14.4645   29.5235 C   0  0  0  0  0  0  0  0  0  0  0  0
   11.4473  -15.6490   29.0907 C   0  0  0  0  0  0  0  0  0  0  0  0
   11.2357  -16.0712   27.7964 C   0  0  0  0  0  0  0  0  0  0  0  0
   10.5019  -15.3203   26.8896 C   0  0  0  0  0  0  0  0  0  0  0  0
   10.3372  -15.8445   25.5426 C   0  0  0  0  0  0  0  0  0  0  0  0
    9.0186  -16.4451   25.2039 C   0  0  2  0  0  0  0  0  0  0  0  0
    8.7609  -17.4748   26.1987 N   0  0  0  0  0  0  0  0  0  0  0  0
    8.9099  -16.9948   23.8349 C   0  0  0  0  0  0  0  0  0  0  0  0
    8.8961  -18.2359   23.6402 O   0  0  0  0  0  0  0  0  0  0  0  0
    9.9995  -14.1279   27.3665 C   0  0  0  0  0  0  0  0  0  0  0  0
   10.1913  -13.6745   28.6543 C   0  0  0  0  0  0  0  0  0  0  0  0
    8.2413  -14.3429   16.3039 N   0  0  0  0  0  0  0  0  0  0  0  0
    8.1943  -13.0512   16.8914 C   0  0  0  0  0  0  0  0  0  0  0  0
    8.6089  -11.9746   16.3210 N   0  0  0  0  0  0  0  0  0  0  0  0
    7.6715  -12.8329   18.1931 N   0  0  0  0  0  0  0  0  0  0  0  0
    7.2084  -13.8622   19.0446 C   0  0  0  0  0  0  0  0  0  0  0  0
    8.1559  -14.7015   19.7558 C   0  0  0  0  0  0  0  0  0  0  0  0
    7.5966  -15.7904   20.6064 C   0  0  0  0  0  0  0  0  0  0  0  0
    8.4758  -16.6524   21.3821 C   0  0  2  0  0  0  0  0  0  0  0  0
    8.8194  -16.1533   22.6913 N   0  0  0  0  0  0  0  0  0  0  0  0
    9.7379  -17.0463   20.7183 C   0  0  0  0  0  0  0  0  0  0  0  0
    9.6687  -17.6799   19.6470 O   0  0  0  0  0  0  0  0  0  0  0  0
    8.5408  -11.0887   16.8894 N   0  0  0  0  0  0  0  0  0  0  0  0
   15.8344  -15.5294   21.3575 C   0  0  0  0  0  0  0  0  0  0  0  0
   14.8169  -14.5412   21.3409 O   0  0  0  0  0  0  0  0  0  0  0  0
   15.1011  -13.3210   21.3390 C   0  0  0  0  0  0  0  0  0  0  0  0
   13.3937  -15.0138   21.3258 C   0  0  0  0  0  0  0  0  0  0  0  0
   13.3783  -16.5023   21.2648 C   0  0  2  0  0  0  0  0  0  0  0  0
   12.2252  -17.0690   20.4949 N   0  0  0  0  0  0  0  0  0  0  0  0
   10.9994  -16.7356   21.2475 C   0  0  0  0  0  0  0  0  0  0  0  0
   12.3404  -18.5235   20.3871 O   0  0  0  0  0  0  0  0  0  0  0  0
   12.9348  -19.0740   19.4217 O   0  0  0  0  0  0  0  0  0  0  0  0
  2  1  1  0
  3  2  2  0
  4  3  1  0
  5 11  1  0
  5  4  2  0
  6  5  1  0
  7  8  1  1
  7  9  1  0
  7  6  1  0
  9 21  1  0
 10  9  2  0
 11 12  2  0
 12  2  1  0
 13 14  1  0
 14 16  1  0
 14 15  2  0
 16 17  1  0
 18 17  1  0
 19 18  1  0
 20 19  1  6
 21 20  1  0
 22 30  1  0
 22 20  1  0
 23 22  2  0
 25 24  1  0
 26 25  2  0
 27 25  1  0
 28 27  1  0
 29 28  1  6
 29 30  1  0
 29 31  1  0
 31 33  1  0
 32 31  2  0
M  END
$$$$
