YRQ.pdb
     RDKit          3D

 33 33  0  0  1  0  0  0  0  0999 V2000
   10.6186  -14.7530   31.1724 O   0  0  0  0  0  0  0  0  0  0  0  0
   10.3294  -14.9582   29.8342 C   0  0  0  0  0  0  0  0  0  0  0  0
   10.5370  -16.1758   29.2616 C   0  0  0  0  0  0  0  0  0  0  0  0
   10.2491  -16.3803   27.9299 C   0  0  0  0  0  0  0  0  0  0  0  0
    9.7428  -15.3706   27.1245 C   0  0  0  0  0  0  0  0  0  0  0  0
    9.4757  -15.6788   25.7281 C   0  0  0  0  0  0  0  0  0  0  0  0
    8.0542  -15.8801   25.3366 C   0  0  2  0  0  0  0  0  0  0  0  0
    7.5927  -17.0690   26.0366 N   0  0  0  0  0  0  0  0  0  0  0  0
    7.8120  -15.9965   23.8821 C   0  0  0  0  0  0  0  0  0  0  0  0
    7.7465  -17.1231   23.3298 O   0  0  0  0  0  0  0  0  0  0  0  0
    9.5468  -14.1531   27.7415 C   0  0  0  0  0  0  0  0  0  0  0  0
    9.8234  -13.9129   29.0707 C   0  0  0  0  0  0  0  0  0  0  0  0
    8.2299  -14.5889   15.1183 N   0  0  0  0  0  0  0  0  0  0  0  0
    7.9756  -13.8226   16.2861 C   0  0  0  0  0  0  0  0  0  0  0  0
    8.5448  -12.7017   16.5619 N   0  0  0  0  0  0  0  0  0  0  0  0
    7.0462  -14.2398   17.2749 N   0  0  0  0  0  0  0  0  0  0  0  0
    6.8323  -13.5634   18.4979 C   0  0  0  0  0  0  0  0  0  0  0  0
    7.8951  -13.4865   19.4840 C   0  0  0  0  0  0  0  0  0  0  0  0
    7.5146  -13.6803   20.9121 C   0  0  0  0  0  0  0  0  0  0  0  0
    7.9477  -14.8624   21.6422 C   0  0  2  0  0  0  0  0  0  0  0  0
    7.6466  -14.8522   23.0529 N   0  0  0  0  0  0  0  0  0  0  0  0
    9.3776  -15.2152   21.5020 C   0  0  0  0  0  0  0  0  0  0  0  0
   10.1510  -14.9275   22.4363 O   0  0  0  0  0  0  0  0  0  0  0  0
    8.3129  -12.2780   17.4995 N   0  0  0  0  0  0  0  0  0  0  0  0
   10.7937  -19.6409   23.1267 C   0  0  0  0  0  0  0  0  0  0  0  0
   12.1119  -19.4817   22.6276 O   0  0  0  0  0  0  0  0  0  0  0  0
   13.0576  -20.1758   23.0674 C   0  0  0  0  0  0  0  0  0  0  0  0
   12.3269  -18.4536   21.5571 C   0  0  0  0  0  0  0  0  0  0  0  0
   11.1019  -17.6140   21.4390 C   0  0  1  0  0  0  0  0  0  0  0  0
   11.2054  -16.5251   20.4156 N   0  0  0  0  0  0  0  0  0  0  0  0
    9.8903  -15.8560   20.3642 C   0  0  0  0  0  0  0  0  0  0  0  0
   11.5117  -17.0817   19.0977 O   0  0  0  0  0  0  0  0  0  0  0  0
   10.6469  -17.1398   18.1828 O   0  0  0  0  0  0  0  0  0  0  0  0
  2  1  1  0
  3  2  2  0
  4  3  1  0
  5 11  1  0
  5  4  2  0
  6  5  1  0
  7  8  1  1
  7  9  1  0
  7  6  1  0
  9 21  1  0
 10  9  2  0
 11 12  2  0
 12  2  1  0
 13 14  1  0
 14 16  1  0
 14 15  2  0
 16 17  1  0
 18 17  1  0
 19 18  1  0
 20 19  1  1
 21 20  1  0
 22 30  1  0
 22 20  1  0
 23 22  2  0
 25 24  1  0
 26 25  2  0
 27 25  1  0
 28 27  1  0
 29 28  1  1
 29 30  1  0
 29 31  1  0
 31 33  1  0
 32 31  2  0
M  END
$$$$
