YRQ.pdb
     RDKit          3D

 33 33  0  0  1  0  0  0  0  0999 V2000
    6.5702  -10.6987   26.9392 O   0  0  0  0  0  0  0  0  0  0  0  0
    6.7171  -12.0737   26.8731 C   0  0  0  0  0  0  0  0  0  0  0  0
    5.6284  -12.8885   26.9406 C   0  0  0  0  0  0  0  0  0  0  0  0
    5.7742  -14.2569   26.8748 C   0  0  0  0  0  0  0  0  0  0  0  0
    7.0174  -14.8573   26.7391 C   0  0  0  0  0  0  0  0  0  0  0  0
    7.0730  -16.3100   26.6851 C   0  0  0  0  0  0  0  0  0  0  0  0
    6.6784  -16.9578   25.4048 C   0  0  2  0  0  0  0  0  0  0  0  0
    6.5581  -18.3818   25.6771 N   0  0  0  0  0  0  0  0  0  0  0  0
    7.5920  -16.7132   24.2675 C   0  0  0  0  0  0  0  0  0  0  0  0
    8.5655  -17.4770   24.0497 O   0  0  0  0  0  0  0  0  0  0  0  0
    8.0942  -13.9983   26.6744 C   0  0  0  0  0  0  0  0  0  0  0  0
    7.9854  -12.6253   26.7369 C   0  0  0  0  0  0  0  0  0  0  0  0
    6.4186  -13.8850   16.2261 N   0  0  0  0  0  0  0  0  0  0  0  0
    7.8210  -13.7089   16.3617 C   0  0  0  0  0  0  0  0  0  0  0  0
    8.6191  -13.4335   15.3903 N   0  0  0  0  0  0  0  0  0  0  0  0
    8.4784  -13.8248   17.6145 N   0  0  0  0  0  0  0  0  0  0  0  0
    7.8121  -14.0409   18.8427 C   0  0  0  0  0  0  0  0  0  0  0  0
    8.5561  -14.0195   20.0893 C   0  0  0  0  0  0  0  0  0  0  0  0
    7.8035  -14.3331   21.3372 C   0  0  0  0  0  0  0  0  0  0  0  0
    8.2263  -15.4215   22.2057 C   0  0  2  0  0  0  0  0  0  0  0  0
    7.4131  -15.6145   23.3815 N   0  0  0  0  0  0  0  0  0  0  0  0
    9.6365  -15.3767   22.6509 C   0  0  0  0  0  0  0  0  0  0  0  0
    9.9348  -14.6148   23.5913 O   0  0  0  0  0  0  0  0  0  0  0  0
    9.6429  -13.3599   15.6332 N   0  0  0  0  0  0  0  0  0  0  0  0
   13.1040  -19.9617   23.5069 C   0  0  0  0  0  0  0  0  0  0  0  0
   14.1649  -19.0303   23.6453 O   0  0  0  0  0  0  0  0  0  0  0  0
   15.3008  -19.3966   24.0260 C   0  0  0  0  0  0  0  0  0  0  0  0
   13.8731  -17.5959   23.3190 C   0  0  0  0  0  0  0  0  0  0  0  0
   12.4630  -17.4825   22.8520 C   0  0  1  0  0  0  0  0  0  0  0  0
   12.0308  -16.0800   22.5524 N   0  0  0  0  0  0  0  0  0  0  0  0
   10.6419  -16.1539   22.0567 C   0  0  0  0  0  0  0  0  0  0  0  0
   12.8781  -15.4879   21.5171 O   0  0  0  0  0  0  0  0  0  0  0  0
   12.5274  -15.4581   20.3070 O   0  0  0  0  0  0  0  0  0  0  0  0
  2  1  1  0
  3  2  2  0
  4  3  1  0
  5 11  1  0
  5  4  2  0
  6  5  1  0
  7  8  1  1
  7  9  1  0
  7  6  1  0
  9 21  1  0
 10  9  2  0
 11 12  2  0
 12  2  1  0
 13 14  1  0
 14 16  1  0
 14 15  2  0
 16 17  1  0
 18 17  1  0
 19 18  1  0
 20 19  1  1
 21 20  1  0
 22 30  1  0
 22 20  1  0
 23 22  2  0
 25 24  1  0
 26 25  2  0
 27 25  1  0
 28 27  1  0
 29 28  1  1
 29 30  1  0
 29 31  1  0
 31 33  1  0
 32 31  2  0
M  END
$$$$
