YRQ.pdb
     RDKit          3D

 33 33  0  0  1  0  0  0  0  0999 V2000
   10.5182  -14.2762   31.0074 O   0  0  0  0  0  0  0  0  0  0  0  0
   10.3460  -14.6023   29.6730 C   0  0  0  0  0  0  0  0  0  0  0  0
    9.7272  -13.7357   28.8247 C   0  0  0  0  0  0  0  0  0  0  0  0
    9.5558  -14.0600   27.4966 C   0  0  0  0  0  0  0  0  0  0  0  0
    9.9988  -15.2652   26.9717 C   0  0  0  0  0  0  0  0  0  0  0  0
    9.7670  -15.5222   25.5588 C   0  0  0  0  0  0  0  0  0  0  0  0
    8.3997  -15.9555   25.1625 C   0  0  2  0  0  0  0  0  0  0  0  0
    8.0624  -17.0940   26.0031 N   0  0  0  0  0  0  0  0  0  0  0  0
    8.2350  -16.2893   23.7309 C   0  0  0  0  0  0  0  0  0  0  0  0
    8.1839  -17.4861   23.3520 O   0  0  0  0  0  0  0  0  0  0  0  0
   10.6201  -16.1148   27.8627 C   0  0  0  0  0  0  0  0  0  0  0  0
   10.8087  -15.8233   29.1970 C   0  0  0  0  0  0  0  0  0  0  0  0
    8.4325  -11.8252   15.9864 N   0  0  0  0  0  0  0  0  0  0  0  0
    8.0255  -13.1578   15.7134 C   0  0  0  0  0  0  0  0  0  0  0  0
    8.0552  -13.7059   14.5493 N   0  0  0  0  0  0  0  0  0  0  0  0
    7.5386  -14.0212   16.7297 N   0  0  0  0  0  0  0  0  0  0  0  0
    7.7077  -13.7907   18.1143 C   0  0  0  0  0  0  0  0  0  0  0  0
    7.1222  -14.7011   19.0819 C   0  0  0  0  0  0  0  0  0  0  0  0
    7.4714  -14.4886   20.5153 C   0  0  0  0  0  0  0  0  0  0  0  0
    7.9606  -15.5896   21.3315 C   0  0  2  0  0  0  0  0  0  0  0  0
    8.1306  -15.2828   22.7308 N   0  0  0  0  0  0  0  0  0  0  0  0
    9.2130  -16.2258   20.8673 C   0  0  0  0  0  0  0  0  0  0  0  0
    9.1625  -16.9681   19.8671 O   0  0  0  0  0  0  0  0  0  0  0  0
    7.7467  -14.7133   14.4992 N   0  0  0  0  0  0  0  0  0  0  0  0
   13.8406  -13.3191   19.5537 C   0  0  0  0  0  0  0  0  0  0  0  0
   14.5294  -14.5521   19.4215 O   0  0  0  0  0  0  0  0  0  0  0  0
   15.6916  -14.5963   18.9557 C   0  0  0  0  0  0  0  0  0  0  0  0
   13.8137  -15.7949   19.8599 C   0  0  0  0  0  0  0  0  0  0  0  0
   12.5113  -15.4126   20.4741 C   0  0  1  0  0  0  0  0  0  0  0  0
   11.6848  -16.5774   20.9255 N   0  0  0  0  0  0  0  0  0  0  0  0
   10.4450  -16.0259   21.5076 C   0  0  0  0  0  0  0  0  0  0  0  0
   12.3926  -17.3482   21.9478 O   0  0  0  0  0  0  0  0  0  0  0  0
   13.4582  -17.9707   21.6927 O   0  0  0  0  0  0  0  0  0  0  0  0
  2  1  1  0
  3  2  2  0
  4  3  1  0
  5 11  1  0
  5  4  2  0
  6  5  1  0
  7  8  1  1
  7  9  1  0
  7  6  1  0
  9 21  1  0
 10  9  2  0
 11 12  2  0
 12  2  1  0
 13 14  1  0
 14 16  1  0
 14 15  2  0
 16 17  1  0
 18 17  1  0
 19 18  1  0
 20 19  1  6
 21 20  1  0
 22 30  1  0
 22 20  1  0
 23 22  2  0
 25 24  1  0
 26 25  2  0
 27 25  1  0
 28 27  1  0
 29 28  1  6
 29 30  1  0
 29 31  1  0
 31 33  1  0
 32 31  2  0
M  END
$$$$
