YRQ.pdb
     RDKit          3D

 33 33  0  0  1  0  0  0  0  0999 V2000
   -2.9832  -20.0937   21.5516 O   0  0  0  0  0  0  0  0  0  0  0  0
   -1.6191  -20.0663   21.7863 C   0  0  0  0  0  0  0  0  0  0  0  0
   -1.1364  -20.1082   23.0587 C   0  0  0  0  0  0  0  0  0  0  0  0
    0.2211  -20.0811   23.2926 C   0  0  0  0  0  0  0  0  0  0  0  0
    1.1433  -20.0108   22.2587 C   0  0  0  0  0  0  0  0  0  0  0  0
    2.5562  -19.9801   22.6035 C   0  0  0  0  0  0  0  0  0  0  0  0
    3.4854  -20.7467   21.7298 C   0  0  2  0  0  0  0  0  0  0  0  0
    3.1000  -22.1455   21.8359 N   0  0  0  0  0  0  0  0  0  0  0  0
    4.9228  -20.5709   22.0316 C   0  0  0  0  0  0  0  0  0  0  0  0
    5.5051  -21.3278   22.8480 O   0  0  0  0  0  0  0  0  0  0  0  0
    0.6147  -19.9701   20.9857 C   0  0  0  0  0  0  0  0  0  0  0  0
   -0.7370  -19.9955   20.7147 C   0  0  0  0  0  0  0  0  0  0  0  0
   11.4930  -19.6203   17.9568 N   0  0  0  0  0  0  0  0  0  0  0  0
   10.5436  -19.3801   16.9288 C   0  0  0  0  0  0  0  0  0  0  0  0
   10.6929  -19.7337   15.7003 N   0  0  0  0  0  0  0  0  0  0  0  0
    9.3159  -18.7116   17.1766 N   0  0  0  0  0  0  0  0  0  0  0  0
    8.9104  -18.2435   18.4476 C   0  0  0  0  0  0  0  0  0  0  0  0
    8.2990  -19.1542   19.3989 C   0  0  0  0  0  0  0  0  0  0  0  0
    7.8178  -18.5739   20.6847 C   0  0  0  0  0  0  0  0  0  0  0  0
    7.1159  -19.4000   21.6556 C   0  0  2  0  0  0  0  0  0  0  0  0
    5.7003  -19.5483   21.4202 N   0  0  0  0  0  0  0  0  0  0  0  0
    7.2858  -19.0101   23.0726 C   0  0  0  0  0  0  0  0  0  0  0  0
    6.5692  -18.0949   23.5230 O   0  0  0  0  0  0  0  0  0  0  0  0
    9.9544  -19.4005   15.0251 N   0  0  0  0  0  0  0  0  0  0  0  0
    8.9255  -21.5987   28.1698 C   0  0  0  0  0  0  0  0  0  0  0  0
    7.9884  -20.6204   28.5907 O   0  0  0  0  0  0  0  0  0  0  0  0
    7.6925  -20.4875   29.8007 C   0  0  0  0  0  0  0  0  0  0  0  0
    7.3691  -19.7556   27.5334 C   0  0  0  0  0  0  0  0  0  0  0  0
    7.8071  -20.2394   26.1942 C   0  0  2  0  0  0  0  0  0  0  0  0
    8.3747  -19.1680   25.3146 N   0  0  0  0  0  0  0  0  0  0  0  0
    8.2176  -19.6275   23.9202 C   0  0  0  0  0  0  0  0  0  0  0  0
    9.7963  -18.9674   25.5957 O   0  0  0  0  0  0  0  0  0  0  0  0
   10.6953  -19.5057   24.8955 O   0  0  0  0  0  0  0  0  0  0  0  0
  2  1  1  0
  3  2  2  0
  4  3  1  0
  5 11  1  0
  5  4  2  0
  6  5  1  0
  7  8  1  1
  7  9  1  0
  7  6  1  0
  9 21  1  0
 10  9  2  0
 11 12  2  0
 12  2  1  0
 13 14  1  0
 14 16  1  0
 14 15  2  0
 16 17  1  0
 18 17  1  0
 19 18  1  0
 20 19  1  6
 21 20  1  0
 22 30  1  0
 22 20  1  0
 23 22  2  0
 25 24  1  0
 26 25  2  0
 27 25  1  0
 28 27  1  0
 29 28  1  6
 29 30  1  0
 29 31  1  0
 31 33  1  0
 32 31  2  0
M  END
$$$$
