YRQ.pdb
     RDKit          3D

 33 33  0  0  1  0  0  0  0  0999 V2000
    6.0319  -10.7242   28.6876 O   0  0  0  0  0  0  0  0  0  0  0  0
    6.5445  -11.6184   27.7633 C   0  0  0  0  0  0  0  0  0  0  0  0
    6.3184  -11.4415   26.4325 C   0  0  0  0  0  0  0  0  0  0  0  0
    6.8284  -12.3312   25.5124 C   0  0  0  0  0  0  0  0  0  0  0  0
    7.5835  -13.4305   25.8943 C   0  0  0  0  0  0  0  0  0  0  0  0
    8.0741  -14.3186   24.8518 C   0  0  0  0  0  0  0  0  0  0  0  0
    7.0657  -15.1401   24.1289 C   0  0  2  0  0  0  0  0  0  0  0  0
    6.5248  -16.0831   25.0956 N   0  0  0  0  0  0  0  0  0  0  0  0
    7.5695  -15.8442   22.9296 C   0  0  0  0  0  0  0  0  0  0  0  0
    7.6663  -17.0967   22.9133 O   0  0  0  0  0  0  0  0  0  0  0  0
    7.7898  -13.5743   27.2501 C   0  0  0  0  0  0  0  0  0  0  0  0
    7.2950  -12.7042   28.1983 C   0  0  0  0  0  0  0  0  0  0  0  0
    6.6306  -14.2490   13.5068 N   0  0  0  0  0  0  0  0  0  0  0  0
    7.5510  -14.0401   14.5676 C   0  0  0  0  0  0  0  0  0  0  0  0
    8.4647  -13.1337   14.5731 N   0  0  0  0  0  0  0  0  0  0  0  0
    7.5401  -14.8353   15.7436 N   0  0  0  0  0  0  0  0  0  0  0  0
    8.3861  -14.6181   16.8555 C   0  0  0  0  0  0  0  0  0  0  0  0
    8.3813  -15.5507   17.9682 C   0  0  0  0  0  0  0  0  0  0  0  0
    8.0780  -14.9979   19.3189 C   0  0  0  0  0  0  0  0  0  0  0  0
    8.2592  -15.8113   20.5119 C   0  0  2  0  0  0  0  0  0  0  0  0
    7.9643  -15.1434   21.7561 N   0  0  0  0  0  0  0  0  0  0  0  0
    9.5869  -16.4469   20.6600 C   0  0  0  0  0  0  0  0  0  0  0  0
    9.9832  -17.2046   19.7529 O   0  0  0  0  0  0  0  0  0  0  0  0
    9.1634  -13.1794   15.3619 N   0  0  0  0  0  0  0  0  0  0  0  0
   14.0959  -15.1855   18.7260 C   0  0  0  0  0  0  0  0  0  0  0  0
   14.1940  -14.4541   19.9375 O   0  0  0  0  0  0  0  0  0  0  0  0
   14.8858  -13.4121   20.0089 C   0  0  0  0  0  0  0  0  0  0  0  0
   13.4396  -14.9762   21.1238 C   0  0  0  0  0  0  0  0  0  0  0  0
   12.5244  -16.0629   20.6758 C   0  0  1  0  0  0  0  0  0  0  0  0
   11.7932  -16.7431   21.7922 N   0  0  0  0  0  0  0  0  0  0  0  0
   10.4088  -16.2299   21.7760 C   0  0  0  0  0  0  0  0  0  0  0  0
   12.4069  -16.4253   23.0816 O   0  0  0  0  0  0  0  0  0  0  0  0
   13.5966  -16.7442   23.3487 O   0  0  0  0  0  0  0  0  0  0  0  0
  2  1  1  0
  3  2  2  0
  4  3  1  0
  5 11  1  0
  5  4  2  0
  6  5  1  0
  7  8  1  1
  7  9  1  0
  7  6  1  0
  9 21  1  0
 10  9  2  0
 11 12  2  0
 12  2  1  0
 13 14  1  0
 14 16  1  0
 14 15  2  0
 16 17  1  0
 18 17  1  0
 19 18  1  0
 20 19  1  6
 21 20  1  0
 22 30  1  0
 22 20  1  0
 23 22  2  0
 25 24  1  0
 26 25  2  0
 27 25  1  0
 28 27  1  0
 29 28  1  6
 29 30  1  0
 29 31  1  0
 31 33  1  0
 32 31  2  0
M  END
$$$$
