YRQ.pdb
     RDKit          3D

 33 33  0  0  1  0  0  0  0  0999 V2000
    5.2525  -10.5110   28.0026 O   0  0  0  0  0  0  0  0  0  0  0  0
    5.8907  -11.4793   27.2465 C   0  0  0  0  0  0  0  0  0  0  0  0
    7.2288  -11.6905   27.3822 C   0  0  0  0  0  0  0  0  0  0  0  0
    7.8642  -12.6541   26.6300 C   0  0  0  0  0  0  0  0  0  0  0  0
    7.1802  -13.4405   25.7144 C   0  0  0  0  0  0  0  0  0  0  0  0
    7.9373  -14.4280   24.9608 C   0  0  0  0  0  0  0  0  0  0  0  0
    7.2204  -15.6660   24.5514 C   0  0  2  0  0  0  0  0  0  0  0  0
    6.5013  -16.1393   25.7242 N   0  0  0  0  0  0  0  0  0  0  0  0
    8.0771  -16.7338   23.9910 C   0  0  0  0  0  0  0  0  0  0  0  0
    7.6127  -17.8800   23.7693 O   0  0  0  0  0  0  0  0  0  0  0  0
    5.8274  -13.1959   25.6067 C   0  0  0  0  0  0  0  0  0  0  0  0
    5.1592  -12.2407   26.3428 C   0  0  0  0  0  0  0  0  0  0  0  0
    7.5344  -14.2147   16.8137 N   0  0  0  0  0  0  0  0  0  0  0  0
    8.4211  -13.6797   17.7850 C   0  0  0  0  0  0  0  0  0  0  0  0
    8.7300  -12.4342   17.8837 N   0  0  0  0  0  0  0  0  0  0  0  0
    9.0586  -14.4962   18.7558 N   0  0  0  0  0  0  0  0  0  0  0  0
    8.9634  -15.9064   18.7918 C   0  0  0  0  0  0  0  0  0  0  0  0
    9.6005  -16.6529   19.8618 C   0  0  0  0  0  0  0  0  0  0  0  0
    9.2456  -16.2766   21.2598 C   0  0  0  0  0  0  0  0  0  0  0  0
   10.0105  -16.7935   22.3848 C   0  0  2  0  0  0  0  0  0  0  0  0
    9.4488  -16.5144   23.6838 N   0  0  0  0  0  0  0  0  0  0  0  0
   11.4350  -16.3965   22.4290 C   0  0  0  0  0  0  0  0  0  0  0  0
   11.7084  -15.1806   22.4561 O   0  0  0  0  0  0  0  0  0  0  0  0
    9.4631  -12.1901   18.6016 N   0  0  0  0  0  0  0  0  0  0  0  0
   11.7388  -19.9099   26.6042 C   0  0  0  0  0  0  0  0  0  0  0  0
   11.9394  -18.5757   27.0423 O   0  0  0  0  0  0  0  0  0  0  0  0
   11.8727  -18.2777   28.2572 C   0  0  0  0  0  0  0  0  0  0  0  0
   12.2332  -17.5412   25.9971 C   0  0  0  0  0  0  0  0  0  0  0  0
   12.2206  -18.1902   24.6561 C   0  0  2  0  0  0  0  0  0  0  0  0
   13.2119  -17.6157   23.6913 N   0  0  0  0  0  0  0  0  0  0  0  0
   12.4805  -17.3318   22.4405 C   0  0  0  0  0  0  0  0  0  0  0  0
   14.2802  -18.5760   23.4143 O   0  0  0  0  0  0  0  0  0  0  0  0
   14.1206  -19.5360   22.6136 O   0  0  0  0  0  0  0  0  0  0  0  0
  2  1  1  0
  3  2  2  0
  4  3  1  0
  5 11  1  0
  5  4  2  0
  6  5  1  0
  7  8  1  1
  7  9  1  0
  7  6  1  0
  9 21  1  0
 10  9  2  0
 11 12  2  0
 12  2  1  0
 13 14  1  0
 14 16  1  0
 14 15  2  0
 16 17  1  0
 18 17  1  0
 19 18  1  0
 20 19  1  6
 21 20  1  0
 22 30  1  0
 22 20  1  0
 23 22  2  0
 25 24  1  0
 26 25  2  0
 27 25  1  0
 28 27  1  0
 29 28  1  1
 29 30  1  0
 29 31  1  0
 31 33  1  0
 32 31  2  0
M  END
$$$$
