YRQ.pdb
     RDKit          3D

 33 33  0  0  1  0  0  0  0  0999 V2000
    5.7480  -10.2489   28.0664 O   0  0  0  0  0  0  0  0  0  0  0  0
    6.2996  -11.4067   27.5452 C   0  0  0  0  0  0  0  0  0  0  0  0
    6.1425  -11.7143   26.2283 C   0  0  0  0  0  0  0  0  0  0  0  0
    6.6914  -12.8665   25.7092 C   0  0  0  0  0  0  0  0  0  0  0  0
    7.4176  -13.7516   26.4925 C   0  0  0  0  0  0  0  0  0  0  0  0
    7.9535  -14.9457   25.8575 C   0  0  0  0  0  0  0  0  0  0  0  0
    7.0026  -15.7878   25.0823 C   0  0  2  0  0  0  0  0  0  0  0  0
    6.7492  -16.9761   25.8823 N   0  0  0  0  0  0  0  0  0  0  0  0
    7.4508  -16.1537   23.7209 C   0  0  0  0  0  0  0  0  0  0  0  0
    8.0812  -17.2212   23.5174 O   0  0  0  0  0  0  0  0  0  0  0  0
    7.5541  -13.4043   27.8201 C   0  0  0  0  0  0  0  0  0  0  0  0
    7.0188  -12.2604   28.3731 C   0  0  0  0  0  0  0  0  0  0  0  0
    9.4834  -15.3349   16.6939 N   0  0  0  0  0  0  0  0  0  0  0  0
    8.5912  -14.4590   16.0212 C   0  0  0  0  0  0  0  0  0  0  0  0
    8.4174  -14.4322   14.7462 N   0  0  0  0  0  0  0  0  0  0  0  0
    7.7937  -13.5133   16.7178 N   0  0  0  0  0  0  0  0  0  0  0  0
    7.7985  -13.3536   18.1226 C   0  0  0  0  0  0  0  0  0  0  0  0
    8.0739  -14.4891   18.9844 C   0  0  0  0  0  0  0  0  0  0  0  0
    7.7661  -14.3339   20.4347 C   0  0  0  0  0  0  0  0  0  0  0  0
    7.9045  -15.4588   21.3475 C   0  0  2  0  0  0  0  0  0  0  0  0
    7.1934  -15.3226   22.5953 N   0  0  0  0  0  0  0  0  0  0  0  0
    9.2924  -15.8528   21.6750 C   0  0  0  0  0  0  0  0  0  0  0  0
    9.6455  -15.8321   22.8703 O   0  0  0  0  0  0  0  0  0  0  0  0
    7.7181  -13.7303   14.3846 N   0  0  0  0  0  0  0  0  0  0  0  0
   11.2629  -20.2435   23.1526 C   0  0  0  0  0  0  0  0  0  0  0  0
   12.5339  -19.6193   23.2375 O   0  0  0  0  0  0  0  0  0  0  0  0
   13.4126  -20.0469   24.0214 C   0  0  0  0  0  0  0  0  0  0  0  0
   12.7820  -18.4325   22.3549 C   0  0  0  0  0  0  0  0  0  0  0  0
   11.4728  -17.8626   21.9301 C   0  0  1  0  0  0  0  0  0  0  0  0
   11.5892  -16.6336   21.0818 N   0  0  0  0  0  0  0  0  0  0  0  0
   10.2179  -16.2448   20.6964 C   0  0  0  0  0  0  0  0  0  0  0  0
   12.3660  -16.9111   19.8736 O   0  0  0  0  0  0  0  0  0  0  0  0
   13.5959  -17.1823   19.9210 O   0  0  0  0  0  0  0  0  0  0  0  0
  2  1  1  0
  3  2  2  0
  4  3  1  0
  5 11  1  0
  5  4  2  0
  6  5  1  0
  7  8  1  1
  7  9  1  0
  7  6  1  0
  9 21  1  0
 10  9  2  0
 11 12  2  0
 12  2  1  0
 13 14  1  0
 14 16  1  0
 14 15  2  0
 16 17  1  0
 18 17  1  0
 19 18  1  0
 20 19  1  1
 21 20  1  0
 22 30  1  0
 22 20  1  0
 23 22  2  0
 25 24  1  0
 26 25  2  0
 27 25  1  0
 28 27  1  0
 29 28  1  1
 29 30  1  0
 29 31  1  0
 31 33  1  0
 32 31  2  0
M  END
$$$$
