YRQ.pdb
     RDKit          3D

 33 33  0  0  1  0  0  0  0  0999 V2000
   10.2829  -14.3493   31.5291 O   0  0  0  0  0  0  0  0  0  0  0  0
   10.2000  -14.6863   30.1889 C   0  0  0  0  0  0  0  0  0  0  0  0
    9.6094  -13.8413   29.2997 C   0  0  0  0  0  0  0  0  0  0  0  0
    9.5268  -14.1763   27.9658 C   0  0  0  0  0  0  0  0  0  0  0  0
   10.0335  -15.3712   27.4760 C   0  0  0  0  0  0  0  0  0  0  0  0
    9.8939  -15.6411   26.0533 C   0  0  0  0  0  0  0  0  0  0  0  0
    8.5502  -16.0597   25.5699 C   0  0  2  0  0  0  0  0  0  0  0  0
    8.2088  -17.2778   26.2883 N   0  0  0  0  0  0  0  0  0  0  0  0
    8.4410  -16.2604   24.1085 C   0  0  0  0  0  0  0  0  0  0  0  0
    8.4035  -17.4174   23.6200 O   0  0  0  0  0  0  0  0  0  0  0  0
   10.6235  -16.1990   28.4078 C   0  0  0  0  0  0  0  0  0  0  0  0
   10.7238  -15.8962   29.7491 C   0  0  0  0  0  0  0  0  0  0  0  0
    8.9298  -14.8294   16.8814 N   0  0  0  0  0  0  0  0  0  0  0  0
    8.1763  -13.6870   16.5032 C   0  0  0  0  0  0  0  0  0  0  0  0
    7.9603  -13.3252   15.2871 N   0  0  0  0  0  0  0  0  0  0  0  0
    7.5813  -12.8245   17.4610 N   0  0  0  0  0  0  0  0  0  0  0  0
    7.8598  -12.8659   18.8466 C   0  0  0  0  0  0  0  0  0  0  0  0
    7.9602  -14.1417   19.5322 C   0  0  0  0  0  0  0  0  0  0  0  0
    8.0854  -14.1089   21.0172 C   0  0  0  0  0  0  0  0  0  0  0  0
    8.2148  -15.3422   21.7788 C   0  0  2  0  0  0  0  0  0  0  0  0
    8.3766  -15.1663   23.2015 N   0  0  0  0  0  0  0  0  0  0  0  0
    9.2783  -16.2665   21.3280 C   0  0  0  0  0  0  0  0  0  0  0  0
    9.1329  -16.8449   20.2334 O   0  0  0  0  0  0  0  0  0  0  0  0
    7.5257  -12.3736   15.1529 N   0  0  0  0  0  0  0  0  0  0  0  0
   12.7897  -14.5595   18.1771 C   0  0  0  0  0  0  0  0  0  0  0  0
   13.8294  -15.1234   18.9602 O   0  0  0  0  0  0  0  0  0  0  0  0
   15.0040  -14.6954   18.8794 C   0  0  0  0  0  0  0  0  0  0  0  0
   13.4672  -16.2475   19.8846 C   0  0  0  0  0  0  0  0  0  0  0  0
   12.1590  -15.9425   20.5287 C   0  0  1  0  0  0  0  0  0  0  0  0
   11.6546  -17.0285   21.4286 N   0  0  0  0  0  0  0  0  0  0  0  0
   10.4348  -16.5141   22.0825 C   0  0  0  0  0  0  0  0  0  0  0  0
   12.6469  -17.3534   22.4533 O   0  0  0  0  0  0  0  0  0  0  0  0
   13.7649  -17.8561   22.1609 O   0  0  0  0  0  0  0  0  0  0  0  0
  2  1  1  0
  3  2  2  0
  4  3  1  0
  5 11  1  0
  5  4  2  0
  6  5  1  0
  7  8  1  1
  7  9  1  0
  7  6  1  0
  9 21  1  0
 10  9  2  0
 11 12  2  0
 12  2  1  0
 13 14  1  0
 14 16  1  0
 14 15  2  0
 16 17  1  0
 18 17  1  0
 19 18  1  0
 20 19  1  6
 21 20  1  0
 22 30  1  0
 22 20  1  0
 23 22  2  0
 25 24  1  0
 26 25  2  0
 27 25  1  0
 28 27  1  0
 29 28  1  6
 29 30  1  0
 29 31  1  0
 31 33  1  0
 32 31  2  0
M  END
$$$$
