YRQ.pdb
     RDKit          3D

 33 33  0  0  1  0  0  0  0  0999 V2000
    8.3948  -13.2236   18.3820 O   0  0  0  0  0  0  0  0  0  0  0  0
    8.2221  -13.0729   19.7473 C   0  0  0  0  0  0  0  0  0  0  0  0
    8.4381  -14.1199   20.5903 C   0  0  0  0  0  0  0  0  0  0  0  0
    8.2663  -13.9703   21.9491 C   0  0  0  0  0  0  0  0  0  0  0  0
    7.8717  -12.7649   22.5112 C   0  0  0  0  0  0  0  0  0  0  0  0
    7.7099  -12.7044   23.9556 C   0  0  0  0  0  0  0  0  0  0  0  0
    6.6331  -13.5390   24.5542 C   0  0  2  0  0  0  0  0  0  0  0  0
    6.0293  -12.7449   25.6131 N   0  0  0  0  0  0  0  0  0  0  0  0
    7.0685  -14.8569   25.0656 C   0  0  0  0  0  0  0  0  0  0  0  0
    7.2938  -15.0286   26.2896 O   0  0  0  0  0  0  0  0  0  0  0  0
    7.6632  -11.7297   21.6244 C   0  0  0  0  0  0  0  0  0  0  0  0
    7.8254  -11.8435   20.2599 C   0  0  0  0  0  0  0  0  0  0  0  0
    8.1713  -22.4395   23.4054 N   0  0  0  0  0  0  0  0  0  0  0  0
    6.9702  -22.8372   24.0496 C   0  0  0  0  0  0  0  0  0  0  0  0
    6.7069  -24.0398   24.4248 N   0  0  0  0  0  0  0  0  0  0  0  0
    5.9303  -21.9161   24.3423 N   0  0  0  0  0  0  0  0  0  0  0  0
    6.1458  -20.5726   24.7263 C   0  0  0  0  0  0  0  0  0  0  0  0
    7.2128  -19.8015   24.1140 C   0  0  0  0  0  0  0  0  0  0  0  0
    6.9338  -18.3673   23.8188 C   0  0  0  0  0  0  0  0  0  0  0  0
    7.4260  -17.3186   24.6997 C   0  0  2  0  0  0  0  0  0  0  0  0
    7.2515  -15.9748   24.2049 N   0  0  0  0  0  0  0  0  0  0  0  0
    8.8364  -17.4485   25.1269 C   0  0  0  0  0  0  0  0  0  0  0  0
    9.7105  -16.8539   24.4662 O   0  0  0  0  0  0  0  0  0  0  0  0
    5.7993  -24.1794   24.9436 N   0  0  0  0  0  0  0  0  0  0  0  0
   10.5379  -18.6520   30.7916 C   0  0  0  0  0  0  0  0  0  0  0  0
   11.8353  -18.7968   30.2366 O   0  0  0  0  0  0  0  0  0  0  0  0
   12.8257  -19.0402   30.9641 C   0  0  0  0  0  0  0  0  0  0  0  0
   11.9728  -18.6475   28.7508 C   0  0  0  0  0  0  0  0  0  0  0  0
   10.6290  -18.3841   28.1641 C   0  0  1  0  0  0  0  0  0  0  0  0
   10.6333  -18.2328   26.6738 N   0  0  0  0  0  0  0  0  0  0  0  0
    9.2224  -18.2114   26.2391 C   0  0  0  0  0  0  0  0  0  0  0  0
   11.3125  -19.3637   26.0414 O   0  0  0  0  0  0  0  0  0  0  0  0
   12.5125  -19.2919   25.6629 O   0  0  0  0  0  0  0  0  0  0  0  0
  2  1  1  0
  3  2  2  0
  4  3  1  0
  5 11  1  0
  5  4  2  0
  6  5  1  0
  7  8  1  1
  7  9  1  0
  7  6  1  0
  9 21  1  0
 10  9  2  0
 11 12  2  0
 12  2  1  0
 13 14  1  0
 14 16  1  0
 14 15  2  0
 16 17  1  0
 18 17  1  0
 19 18  1  0
 20 19  1  6
 21 20  1  0
 22 30  1  0
 22 20  1  0
 23 22  2  0
 25 24  1  0
 26 25  2  0
 27 25  1  0
 28 27  1  0
 29 28  1  1
 29 30  1  0
 29 31  1  0
 31 33  1  0
 32 31  2  0
M  END
$$$$
