YRQ.pdb
     RDKit          3D

 33 33  0  0  1  0  0  0  0  0999 V2000
    5.2019  -10.3332   27.9508 O   0  0  0  0  0  0  0  0  0  0  0  0
    5.8501  -11.3630   27.2906 C   0  0  0  0  0  0  0  0  0  0  0  0
    6.9408  -11.9602   27.8450 C   0  0  0  0  0  0  0  0  0  0  0  0
    7.5861  -12.9851   27.1882 C   0  0  0  0  0  0  0  0  0  0  0  0
    7.1606  -13.4478   25.9516 C   0  0  0  0  0  0  0  0  0  0  0  0
    7.9095  -14.5300   25.3317 C   0  0  0  0  0  0  0  0  0  0  0  0
    7.1288  -15.6840   24.8090 C   0  0  2  0  0  0  0  0  0  0  0  0
    6.4833  -16.3050   25.9553 N   0  0  0  0  0  0  0  0  0  0  0  0
    7.9109  -16.6774   24.0412 C   0  0  0  0  0  0  0  0  0  0  0  0
    8.4101  -17.6804   24.6099 O   0  0  0  0  0  0  0  0  0  0  0  0
    6.0533  -12.8174   25.4243 C   0  0  0  0  0  0  0  0  0  0  0  0
    5.3832  -11.7895   26.0530 C   0  0  0  0  0  0  0  0  0  0  0  0
    8.0978  -14.0773   17.1744 N   0  0  0  0  0  0  0  0  0  0  0  0
    8.9293  -13.3609   18.0752 C   0  0  0  0  0  0  0  0  0  0  0  0
    8.7057  -12.1582   18.4752 N   0  0  0  0  0  0  0  0  0  0  0  0
   10.1093  -13.9267   18.6255 N   0  0  0  0  0  0  0  0  0  0  0  0
   10.1767  -15.2168   19.2002 C   0  0  0  0  0  0  0  0  0  0  0  0
    9.0031  -15.7979   19.8269 C   0  0  0  0  0  0  0  0  0  0  0  0
    9.1748  -17.1133   20.5068 C   0  0  0  0  0  0  0  0  0  0  0  0
    9.2201  -17.1983   21.9589 C   0  0  2  0  0  0  0  0  0  0  0  0
    8.1321  -16.5425   22.6424 N   0  0  0  0  0  0  0  0  0  0  0  0
   10.4759  -16.7364   22.5901 C   0  0  0  0  0  0  0  0  0  0  0  0
   10.6300  -15.5128   22.7717 O   0  0  0  0  0  0  0  0  0  0  0  0
    9.4276  -11.7383   19.1195 N   0  0  0  0  0  0  0  0  0  0  0  0
   11.6562  -15.5074   27.3323 C   0  0  0  0  0  0  0  0  0  0  0  0
   11.5206  -16.9179   27.2660 O   0  0  0  0  0  0  0  0  0  0  0  0
   11.1817  -17.5825   28.2725 C   0  0  0  0  0  0  0  0  0  0  0  0
   11.7980  -17.5784   25.9485 C   0  0  0  0  0  0  0  0  0  0  0  0
   12.2660  -16.5483   24.9793 C   0  0  1  0  0  0  0  0  0  0  0  0
   12.7022  -17.1064   23.6595 N   0  0  0  0  0  0  0  0  0  0  0  0
   11.4915  -17.6188   22.9874 C   0  0  0  0  0  0  0  0  0  0  0  0
   13.6465  -18.2073   23.8503 O   0  0  0  0  0  0  0  0  0  0  0  0
   13.3451  -19.3985   23.5702 O   0  0  0  0  0  0  0  0  0  0  0  0
  2  1  1  0
  3  2  2  0
  4  3  1  0
  5 11  1  0
  5  4  2  0
  6  5  1  0
  7  8  1  1
  7  9  1  0
  7  6  1  0
  9 21  1  0
 10  9  2  0
 11 12  2  0
 12  2  1  0
 13 14  1  0
 14 16  1  0
 14 15  2  0
 16 17  1  0
 18 17  1  0
 19 18  1  0
 20 19  1  6
 21 20  1  0
 22 30  1  0
 22 20  1  0
 23 22  2  0
 25 24  1  0
 26 25  2  0
 27 25  1  0
 28 27  1  0
 29 28  1  6
 29 30  1  0
 29 31  1  0
 31 33  1  0
 32 31  2  0
M  END
$$$$
