YRQ.pdb
     RDKit          3D

 33 33  0  0  1  0  0  0  0  0999 V2000
    4.9839  -10.5501   28.1284 O   0  0  0  0  0  0  0  0  0  0  0  0
    5.7132  -11.5367   27.4869 C   0  0  0  0  0  0  0  0  0  0  0  0
    5.5193  -11.7882   26.1630 C   0  0  0  0  0  0  0  0  0  0  0  0
    6.2450  -12.7699   25.5244 C   0  0  0  0  0  0  0  0  0  0  0  0
    7.1912  -13.5348   26.1909 C   0  0  0  0  0  0  0  0  0  0  0  0
    7.9035  -14.5530   25.4345 C   0  0  0  0  0  0  0  0  0  0  0  0
    7.0823  -15.5731   24.7278 C   0  0  2  0  0  0  0  0  0  0  0  0
    6.4633  -16.3959   25.7556 N   0  0  0  0  0  0  0  0  0  0  0  0
    7.8177  -16.4093   23.7541 C   0  0  0  0  0  0  0  0  0  0  0  0
    8.3514  -17.4898   24.1093 O   0  0  0  0  0  0  0  0  0  0  0  0
    7.3578  -13.2494   27.5297 C   0  0  0  0  0  0  0  0  0  0  0  0
    6.6497  -12.2750   28.2006 C   0  0  0  0  0  0  0  0  0  0  0  0
    7.6866  -15.0785   15.9921 N   0  0  0  0  0  0  0  0  0  0  0  0
    8.5020  -14.2087   16.7631 C   0  0  0  0  0  0  0  0  0  0  0  0
    8.3810  -12.9276   16.7896 N   0  0  0  0  0  0  0  0  0  0  0  0
    9.5477  -14.6924   17.5925 N   0  0  0  0  0  0  0  0  0  0  0  0
    9.8228  -16.0631   17.8036 C   0  0  0  0  0  0  0  0  0  0  0  0
    9.9323  -16.5852   19.1539 C   0  0  0  0  0  0  0  0  0  0  0  0
    8.9573  -16.0784   20.1612 C   0  0  0  0  0  0  0  0  0  0  0  0
    8.9483  -16.6070   21.5171 C   0  0  2  0  0  0  0  0  0  0  0  0
    7.9539  -16.0313   22.3894 N   0  0  0  0  0  0  0  0  0  0  0  0
   10.2414  -16.5574   22.2341 C   0  0  0  0  0  0  0  0  0  0  0  0
   10.5500  -15.5028   22.8227 O   0  0  0  0  0  0  0  0  0  0  0  0
    9.0678  -12.4059   17.3968 N   0  0  0  0  0  0  0  0  0  0  0  0
   13.5521  -20.2202   26.3814 C   0  0  0  0  0  0  0  0  0  0  0  0
   14.1236  -20.1576   25.0846 O   0  0  0  0  0  0  0  0  0  0  0  0
   14.6958  -21.1523   24.5820 C   0  0  0  0  0  0  0  0  0  0  0  0
   14.0155  -18.8586   24.3430 C   0  0  0  0  0  0  0  0  0  0  0  0
   12.6723  -18.7761   23.7039 C   0  0  1  0  0  0  0  0  0  0  0  0
   12.4404  -17.5127   22.9334 N   0  0  0  0  0  0  0  0  0  0  0  0
   11.1259  -17.6455   22.2741 C   0  0  0  0  0  0  0  0  0  0  0  0
   13.4725  -17.3329   21.9123 O   0  0  0  0  0  0  0  0  0  0  0  0
   14.5815  -16.7948   22.1749 O   0  0  0  0  0  0  0  0  0  0  0  0
  2  1  1  0
  3  2  2  0
  4  3  1  0
  5 11  1  0
  5  4  2  0
  6  5  1  0
  7  8  1  1
  7  9  1  0
  7  6  1  0
  9 21  1  0
 10  9  2  0
 11 12  2  0
 12  2  1  0
 13 14  1  0
 14 16  1  0
 14 15  2  0
 16 17  1  0
 18 17  1  0
 19 18  1  0
 20 19  1  6
 21 20  1  0
 22 30  1  0
 22 20  1  0
 23 22  2  0
 25 24  1  0
 26 25  2  0
 27 25  1  0
 28 27  1  0
 29 28  1  1
 29 30  1  0
 29 31  1  0
 31 33  1  0
 32 31  2  0
M  END
$$$$
