SIH.pdb
     RDKit          3D

 25 25  0  0  1  0  0  0  0  0999 V2000
    6.1846  -19.9117   17.7797 O   0  0  0  0  0  0  0  0  0  0  0  0
    7.4919  -19.4453   17.8816 C   0  0  0  0  0  0  0  0  0  0  0  0
    7.6317  -18.0454   17.2973 C   0  0  2  0  0  0  0  0  0  0  0  0
    8.3223  -18.1101   16.0343 N   0  0  0  0  0  0  0  0  0  0  0  0
    8.4250  -17.2260   18.2375 C   0  0  0  0  0  0  0  0  0  0  0  0
    9.7004  -17.2760   18.2246 O   0  0  0  0  0  0  0  0  0  0  0  0
    6.6696  -12.2929   20.1735 C   0  0  0  0  0  0  0  0  0  0  0  0
    7.5500  -13.3488   19.5371 C   0  0  0  0  0  0  0  0  0  0  0  0
    7.8979  -14.3506   20.6067 C   0  0  2  0  0  0  0  0  0  0  0  0
    8.7168  -13.6986   21.6715 C   0  0  0  0  0  0  0  0  0  0  0  0
    8.6453  -15.5418   20.0579 C   0  0  2  0  0  0  0  0  0  0  0  0
    7.8488  -16.3512   19.1936 N   0  0  0  0  0  0  0  0  0  0  0  0
    9.2447  -16.3647   21.1110 C   0  0  0  0  0  0  0  0  0  0  0  0
    8.5334  -17.1208   21.7996 O   0  0  0  0  0  0  0  0  0  0  0  0
   10.6339  -16.3071   21.3538 N   0  0  0  0  0  0  0  0  0  0  0  0
   11.2588  -17.0725   22.4237 C   0  0  1  0  0  0  0  0  0  0  0  0
   12.7347  -17.2140   22.2052 C   0  0  0  0  0  0  0  0  0  0  0  0
   13.3294  -17.9719   23.3268 C   0  0  0  0  0  0  0  0  0  0  0  0
   14.1051  -17.4404   24.3697 C   0  0  0  0  0  0  0  0  0  0  0  0
   14.4728  -18.4225   25.2050 N   0  0  0  0  0  0  0  0  0  0  0  0
   13.9643  -19.5689   24.7419 C   0  0  0  0  0  0  0  0  0  0  0  0
   13.2826  -19.2890   23.6190 N   0  0  0  0  0  0  0  0  0  0  0  0
   10.9989  -16.4014   23.7021 C   0  0  0  0  0  0  0  0  0  0  0  0
   10.6023  -17.1069   24.6925 O   0  0  0  0  0  0  0  0  0  0  0  0
   11.1451  -15.0573   23.9450 O   0  0  0  0  0  0  0  0  0  0  0  0
  1  2  1  0
  3  4  1  6
  3  2  1  0
  5  3  1  0
  6  5  2  0
  7  8  1  0
  8  9  1  0
  9 10  1  1
 11  9  1  0
 11 12  1  1
 12  5  1  0
 13 15  1  0
 13 11  1  0
 14 13  2  0
 16 15  1  0
 16 17  1  6
 18 17  1  0
 18 19  2  0
 20 19  1  0
 21 20  1  0
 22 21  2  0
 22 18  1  0
 23 16  1  0
 24 23  2  0
 25 23  1  0
M  END
$$$$
