SIH.pdb
     RDKit          3D

 25 25  0  0  1  0  0  0  0  0999 V2000
    8.1777  -20.2546   17.2838 O   0  0  0  0  0  0  0  0  0  0  0  0
    8.6496  -19.4030   18.2781 C   0  0  0  0  0  0  0  0  0  0  0  0
    8.8156  -17.9797   17.7608 C   0  0  2  0  0  0  0  0  0  0  0  0
    9.8500  -17.9421   16.7584 N   0  0  0  0  0  0  0  0  0  0  0  0
    9.2121  -17.1165   18.8932 C   0  0  0  0  0  0  0  0  0  0  0  0
   10.4434  -16.9663   19.1942 O   0  0  0  0  0  0  0  0  0  0  0  0
    7.7301  -12.1673   20.0733 C   0  0  0  0  0  0  0  0  0  0  0  0
    7.3924  -13.6125   19.7697 C   0  0  0  0  0  0  0  0  0  0  0  0
    7.7068  -14.4179   21.0030 C   0  0  2  0  0  0  0  0  0  0  0  0
    8.2316  -13.5240   22.0778 C   0  0  0  0  0  0  0  0  0  0  0  0
    8.7055  -15.5172   20.7329 C   0  0  2  0  0  0  0  0  0  0  0  0
    8.2856  -16.4130   19.7044 N   0  0  0  0  0  0  0  0  0  0  0  0
    9.0602  -16.2653   21.9412 C   0  0  0  0  0  0  0  0  0  0  0  0
    8.2064  -16.9609   22.5235 O   0  0  0  0  0  0  0  0  0  0  0  0
   10.3732  -16.2038   22.4553 N   0  0  0  0  0  0  0  0  0  0  0  0
   10.7788  -16.9781   23.6202 C   0  0  1  0  0  0  0  0  0  0  0  0
   12.2609  -17.1998   23.6410 C   0  0  0  0  0  0  0  0  0  0  0  0
   12.6288  -18.1762   22.5935 C   0  0  0  0  0  0  0  0  0  0  0  0
   11.7695  -19.1053   21.9851 C   0  0  0  0  0  0  0  0  0  0  0  0
   12.4495  -19.8253   21.0815 N   0  0  0  0  0  0  0  0  0  0  0  0
   13.7159  -19.3971   21.0824 C   0  0  0  0  0  0  0  0  0  0  0  0
   13.8129  -18.4113   21.9895 N   0  0  0  0  0  0  0  0  0  0  0  0
   10.3566  -16.2685   24.8327 C   0  0  0  0  0  0  0  0  0  0  0  0
   10.1321  -15.0115   24.7577 O   0  0  0  0  0  0  0  0  0  0  0  0
   10.1728  -16.8365   26.0699 O   0  0  0  0  0  0  0  0  0  0  0  0
  1  2  1  0
  3  4  1  6
  3  2  1  0
  5  3  1  0
  6  5  2  0
  7  8  1  0
  8  9  1  0
  9 10  1  1
 11  9  1  0
 11 12  1  6
 12  5  1  0
 13 15  1  0
 13 11  1  0
 14 13  2  0
 16 15  1  0
 16 17  1  1
 18 17  1  0
 18 19  2  0
 20 19  1  0
 21 20  1  0
 22 21  2  0
 22 18  1  0
 23 16  1  0
 24 23  2  0
 25 23  1  0
M  END
$$$$
