SIH.pdb
     RDKit          3D

 25 25  0  0  1  0  0  0  0  0999 V2000
   11.1252  -17.9842   15.3244 O   0  0  0  0  0  0  0  0  0  0  0  0
    9.8231  -17.4974   15.2584 C   0  0  0  0  0  0  0  0  0  0  0  0
    9.8015  -15.9818   15.1053 C   0  0  2  0  0  0  0  0  0  0  0  0
   10.7515  -15.5791   14.0994 N   0  0  0  0  0  0  0  0  0  0  0  0
   10.1859  -15.3781   16.3985 C   0  0  0  0  0  0  0  0  0  0  0  0
   11.3912  -15.0167   16.6129 O   0  0  0  0  0  0  0  0  0  0  0  0
    6.4200  -12.6361   19.3926 C   0  0  0  0  0  0  0  0  0  0  0  0
    7.6666  -12.9718   18.6000 C   0  0  0  0  0  0  0  0  0  0  0  0
    8.4831  -13.9294   19.4276 C   0  0  2  0  0  0  0  0  0  0  0  0
    8.9737  -13.2486   20.6626 C   0  0  0  0  0  0  0  0  0  0  0  0
    9.6580  -14.4917   18.6645 C   0  0  2  0  0  0  0  0  0  0  0  0
    9.2752  -15.1618   17.4640 N   0  0  0  0  0  0  0  0  0  0  0  0
   10.4967  -15.3669   19.4866 C   0  0  0  0  0  0  0  0  0  0  0  0
   10.1663  -16.5520   19.6825 O   0  0  0  0  0  0  0  0  0  0  0  0
   11.6868  -14.8739   20.0635 N   0  0  0  0  0  0  0  0  0  0  0  0
   12.5201  -15.6983   20.9278 C   0  0  1  0  0  0  0  0  0  0  0  0
   13.9248  -15.1795   20.9904 C   0  0  0  0  0  0  0  0  0  0  0  0
   14.5571  -15.3047   19.6597 C   0  0  0  0  0  0  0  0  0  0  0  0
   14.3210  -16.3212   18.7202 C   0  0  0  0  0  0  0  0  0  0  0  0
   15.0704  -16.1104   17.6286 N   0  0  0  0  0  0  0  0  0  0  0  0
   15.7821  -14.9961   17.8267 C   0  0  0  0  0  0  0  0  0  0  0  0
   15.4682  -14.5222   19.0436 N   0  0  0  0  0  0  0  0  0  0  0  0
   11.9307  -15.7251   22.2709 C   0  0  0  0  0  0  0  0  0  0  0  0
   12.5257  -16.3924   23.1856 O   0  0  0  0  0  0  0  0  0  0  0  0
   10.7753  -15.0869   22.6511 O   0  0  0  0  0  0  0  0  0  0  0  0
  1  2  1  0
  3  4  1  6
  3  2  1  0
  5  3  1  0
  6  5  2  0
  7  8  1  0
  8  9  1  0
  9 10  1  1
 11  9  1  0
 11 12  1  6
 12  5  1  0
 13 15  1  0
 13 11  1  0
 14 13  2  0
 16 15  1  0
 16 17  1  1
 18 17  1  0
 18 19  2  0
 20 19  1  0
 21 20  1  0
 22 21  2  0
 22 18  1  0
 23 16  1  0
 24 23  2  0
 25 23  1  0
M  END
$$$$
