SIH.pdb
     RDKit          3D

 25 25  0  0  1  0  0  0  0  0999 V2000
    6.6238  -17.1598   22.2308 O   0  0  0  0  0  0  0  0  0  0  0  0
    7.2855  -16.5364   21.1772 C   0  0  0  0  0  0  0  0  0  0  0  0
    7.2731  -15.0206   21.3298 C   0  0  2  0  0  0  0  0  0  0  0  0
    8.0235  -14.4159   20.2585 N   0  0  0  0  0  0  0  0  0  0  0  0
    7.9122  -14.6775   22.6176 C   0  0  0  0  0  0  0  0  0  0  0  0
    9.1827  -14.7024   22.7382 O   0  0  0  0  0  0  0  0  0  0  0  0
    6.0187  -11.0112   26.2310 C   0  0  0  0  0  0  0  0  0  0  0  0
    6.9087  -11.8265   25.3154 C   0  0  0  0  0  0  0  0  0  0  0  0
    7.0911  -13.1795   25.9515 C   0  0  2  0  0  0  0  0  0  0  0  0
    7.8384  -13.0441   27.2370 C   0  0  0  0  0  0  0  0  0  0  0  0
    7.8181  -14.1463   25.0482 C   0  0  2  0  0  0  0  0  0  0  0  0
    7.1867  -14.3069   23.7785 N   0  0  0  0  0  0  0  0  0  0  0  0
    8.0307  -15.4525   25.6760 C   0  0  0  0  0  0  0  0  0  0  0  0
    7.1378  -16.3205   25.6397 O   0  0  0  0  0  0  0  0  0  0  0  0
    9.2498  -15.7379   26.3274 N   0  0  0  0  0  0  0  0  0  0  0  0
    9.6977  -17.1051   26.5538 C   0  0  1  0  0  0  0  0  0  0  0  0
   10.6075  -17.5714   25.4580 C   0  0  0  0  0  0  0  0  0  0  0  0
   11.0947  -18.9329   25.7665 C   0  0  0  0  0  0  0  0  0  0  0  0
   10.7726  -19.6929   26.9024 C   0  0  0  0  0  0  0  0  0  0  0  0
   11.3973  -20.8777   26.8453 N   0  0  0  0  0  0  0  0  0  0  0  0
   12.1113  -20.9127   25.7156 C   0  0  0  0  0  0  0  0  0  0  0  0
   11.9238  -19.7456   25.0778 N   0  0  0  0  0  0  0  0  0  0  0  0
   10.3881  -17.1708   27.8465 C   0  0  0  0  0  0  0  0  0  0  0  0
   10.6992  -18.3196   28.3149 O   0  0  0  0  0  0  0  0  0  0  0  0
   10.7428  -16.0928   28.6205 O   0  0  0  0  0  0  0  0  0  0  0  0
  1  2  1  0
  3  4  1  6
  3  2  1  0
  5  3  1  0
  6  5  2  0
  7  8  1  0
  8  9  1  0
  9 10  1  1
 11  9  1  0
 11 12  1  6
 12  5  1  0
 13 15  1  0
 13 11  1  0
 14 13  2  0
 16 15  1  0
 16 17  1  6
 18 17  1  0
 18 19  2  0
 20 19  1  0
 21 20  1  0
 22 21  2  0
 22 18  1  0
 23 16  1  0
 24 23  2  0
 25 23  1  0
M  END
$$$$
