SIH.pdb
     RDKit          3D

 25 25  0  0  1  0  0  0  0  0999 V2000
    6.5559  -16.2104   19.5835 O   0  0  0  0  0  0  0  0  0  0  0  0
    6.9680  -15.9710   20.8910 C   0  0  0  0  0  0  0  0  0  0  0  0
    7.1776  -14.4837   21.1461 C   0  0  2  0  0  0  0  0  0  0  0  0
    8.0140  -13.9245   20.1147 N   0  0  0  0  0  0  0  0  0  0  0  0
    7.8535  -14.3264   22.4511 C   0  0  0  0  0  0  0  0  0  0  0  0
    9.1248  -14.4041   22.5366 O   0  0  0  0  0  0  0  0  0  0  0  0
    5.9096  -11.3151   26.6175 C   0  0  0  0  0  0  0  0  0  0  0  0
    6.8209  -11.9296   25.5750 C   0  0  0  0  0  0  0  0  0  0  0  0
    7.1040  -13.3460   26.0018 C   0  0  2  0  0  0  0  0  0  0  0  0
    7.9196  -13.3502   27.2525 C   0  0  0  0  0  0  0  0  0  0  0  0
    7.8200  -14.1365   24.9334 C   0  0  2  0  0  0  0  0  0  0  0  0
    7.1643  -14.0853   23.6669 N   0  0  0  0  0  0  0  0  0  0  0  0
    8.0555  -15.5280   25.3249 C   0  0  0  0  0  0  0  0  0  0  0  0
    7.0962  -16.3040   25.4968 O   0  0  0  0  0  0  0  0  0  0  0  0
    9.3723  -16.0010   25.5107 N   0  0  0  0  0  0  0  0  0  0  0  0
    9.6464  -17.3786   25.8953 C   0  0  1  0  0  0  0  0  0  0  0  0
    9.2555  -18.3373   24.8116 C   0  0  0  0  0  0  0  0  0  0  0  0
   10.0829  -18.0898   23.6114 C   0  0  0  0  0  0  0  0  0  0  0  0
   11.0402  -17.0742   23.4574 C   0  0  0  0  0  0  0  0  0  0  0  0
   11.5928  -17.1553   22.2386 N   0  0  0  0  0  0  0  0  0  0  0  0
   11.0291  -18.1848   21.5986 C   0  0  0  0  0  0  0  0  0  0  0  0
   10.1279  -18.7368   22.4275 N   0  0  0  0  0  0  0  0  0  0  0  0
   11.0757  -17.5122   26.1972 C   0  0  0  0  0  0  0  0  0  0  0  0
   11.5075  -18.6389   26.6217 O   0  0  0  0  0  0  0  0  0  0  0  0
   12.0181  -16.5218   26.0638 O   0  0  0  0  0  0  0  0  0  0  0  0
  1  2  1  0
  3  4  1  6
  3  2  1  0
  5  3  1  0
  6  5  2  0
  7  8  1  0
  8  9  1  0
  9 10  1  1
 11  9  1  0
 11 12  1  6
 12  5  1  0
 13 15  1  0
 13 11  1  0
 14 13  2  0
 16 15  1  0
 16 17  1  6
 18 17  1  0
 18 19  2  0
 20 19  1  0
 21 20  1  0
 22 21  2  0
 22 18  1  0
 23 16  1  0
 24 23  2  0
 25 23  1  0
M  END
$$$$
