SIH.pdb
     RDKit          3D

 25 25  0  0  1  0  0  0  0  0999 V2000
    6.8100  -18.8819   21.6329 O   0  0  0  0  0  0  0  0  0  0  0  0
    7.1726  -19.3886   20.3885 C   0  0  0  0  0  0  0  0  0  0  0  0
    7.2128  -18.2931   19.3306 C   0  0  2  0  0  0  0  0  0  0  0  0
    7.7778  -18.8125   18.1111 N   0  0  0  0  0  0  0  0  0  0  0  0
    8.0698  -17.1967   19.8286 C   0  0  0  0  0  0  0  0  0  0  0  0
    9.3409  -17.2776   19.7442 O   0  0  0  0  0  0  0  0  0  0  0  0
    7.5033  -12.1724   18.4754 C   0  0  0  0  0  0  0  0  0  0  0  0
    8.0324  -13.5364   18.8684 C   0  0  0  0  0  0  0  0  0  0  0  0
    8.0268  -13.6061   20.3730 C   0  0  2  0  0  0  0  0  0  0  0  0
    8.9525  -12.5789   20.9362 C   0  0  0  0  0  0  0  0  0  0  0  0
    8.4188  -14.9703   20.8870 C   0  0  2  0  0  0  0  0  0  0  0  0
    7.5622  -16.0111   20.4184 N   0  0  0  0  0  0  0  0  0  0  0  0
    8.5165  -15.0151   22.3477 C   0  0  0  0  0  0  0  0  0  0  0  0
    7.6064  -14.5404   23.0538 O   0  0  0  0  0  0  0  0  0  0  0  0
    9.6433  -15.5969   22.9672 N   0  0  0  0  0  0  0  0  0  0  0  0
    9.7323  -15.7483   24.4129 C   0  0  1  0  0  0  0  0  0  0  0  0
    8.5441  -16.4792   24.9607 C   0  0  0  0  0  0  0  0  0  0  0  0
    7.5490  -15.5037   25.4549 C   0  0  0  0  0  0  0  0  0  0  0  0
    7.6937  -14.1071   25.4749 C   0  0  0  0  0  0  0  0  0  0  0  0
    6.5911  -13.5460   25.9914 N   0  0  0  0  0  0  0  0  0  0  0  0
    5.7388  -14.5268   26.3061 C   0  0  0  0  0  0  0  0  0  0  0  0
    6.3206  -15.6930   25.9816 N   0  0  0  0  0  0  0  0  0  0  0  0
   10.9659  -16.4717   24.7398 C   0  0  0  0  0  0  0  0  0  0  0  0
   11.5442  -17.1411   23.8160 O   0  0  0  0  0  0  0  0  0  0  0  0
   11.5757  -16.4995   25.9704 O   0  0  0  0  0  0  0  0  0  0  0  0
  1  2  1  0
  3  4  1  6
  3  2  1  0
  5  3  1  0
  6  5  2  0
  7  8  1  0
  8  9  1  0
  9 10  1  1
 11  9  1  0
 11 12  1  1
 12  5  1  0
 13 15  1  0
 13 11  1  0
 14 13  2  0
 16 15  1  0
 16 17  1  6
 18 17  1  0
 18 19  2  0
 20 19  1  0
 21 20  1  0
 22 21  2  0
 22 18  1  0
 23 16  1  0
 24 23  2  0
 25 23  1  0
M  END
$$$$
