SIH.pdb
     RDKit          3D

 25 25  0  0  1  0  0  0  0  0999 V2000
    8.6760  -18.2172   21.8052 O   0  0  0  0  0  0  0  0  0  0  0  0
    7.5496  -17.4003   21.7804 C   0  0  0  0  0  0  0  0  0  0  0  0
    7.9136  -15.9584   21.4496 C   0  0  2  0  0  0  0  0  0  0  0  0
    8.8914  -15.9321   20.3916 N   0  0  0  0  0  0  0  0  0  0  0  0
    8.4956  -15.3367   22.6576 C   0  0  0  0  0  0  0  0  0  0  0  0
    9.7575  -15.1736   22.7593 O   0  0  0  0  0  0  0  0  0  0  0  0
    7.0451  -11.4573   27.1674 C   0  0  0  0  0  0  0  0  0  0  0  0
    8.0621  -12.4336   26.6129 C   0  0  0  0  0  0  0  0  0  0  0  0
    7.3914  -13.2033   25.5056 C   0  0  2  0  0  0  0  0  0  0  0  0
    6.1698  -13.8872   26.0249 C   0  0  0  0  0  0  0  0  0  0  0  0
    8.3088  -14.2242   24.8772 C   0  0  2  0  0  0  0  0  0  0  0  0
    7.7222  -14.8888   23.7588 N   0  0  0  0  0  0  0  0  0  0  0  0
    8.8065  -15.2052   25.8442 C   0  0  0  0  0  0  0  0  0  0  0  0
    8.0965  -16.1716   26.1818 O   0  0  0  0  0  0  0  0  0  0  0  0
   10.0953  -15.0630   26.4017 N   0  0  0  0  0  0  0  0  0  0  0  0
   10.6382  -16.0363   27.3391 C   0  0  1  0  0  0  0  0  0  0  0  0
   12.1276  -16.1458   27.2129 C   0  0  0  0  0  0  0  0  0  0  0  0
   12.4644  -16.9348   26.0086 C   0  0  0  0  0  0  0  0  0  0  0  0
   11.5513  -17.5285   25.1223 C   0  0  0  0  0  0  0  0  0  0  0  0
   12.2164  -18.1633   24.1466 N   0  0  0  0  0  0  0  0  0  0  0  0
   13.5250  -18.0026   24.3683 C   0  0  0  0  0  0  0  0  0  0  0  0
   13.6628  -17.2669   25.4835 N   0  0  0  0  0  0  0  0  0  0  0  0
   10.2744  -15.6365   28.7029 C   0  0  0  0  0  0  0  0  0  0  0  0
    9.9432  -14.4193   28.9145 O   0  0  0  0  0  0  0  0  0  0  0  0
   10.2526  -16.4622   29.8004 O   0  0  0  0  0  0  0  0  0  0  0  0
  1  2  1  0
  3  4  1  6
  3  2  1  0
  5  3  1  0
  6  5  2  0
  7  8  1  0
  8  9  1  0
  9 10  1  1
 11  9  1  0
 11 12  1  6
 12  5  1  0
 13 15  1  0
 13 11  1  0
 14 13  2  0
 16 15  1  0
 16 17  1  1
 18 17  1  0
 18 19  2  0
 20 19  1  0
 21 20  1  0
 22 21  2  0
 22 18  1  0
 23 16  1  0
 24 23  2  0
 25 23  1  0
M  END
$$$$
