SIH.pdb
     RDKit          3D

 25 25  0  0  1  0  0  0  0  0999 V2000
    9.3941  -20.3434   20.6726 O   0  0  0  0  0  0  0  0  0  0  0  0
    8.3559  -19.5514   20.1914 C   0  0  0  0  0  0  0  0  0  0  0  0
    8.8836  -18.3517   19.4148 C   0  0  2  0  0  0  0  0  0  0  0  0
   10.1650  -18.6691   18.8372 N   0  0  0  0  0  0  0  0  0  0  0  0
    9.0469  -17.2237   20.3559 C   0  0  0  0  0  0  0  0  0  0  0  0
   10.1801  -16.9861   20.8933 O   0  0  0  0  0  0  0  0  0  0  0  0
    7.2142  -12.2018   19.8197 C   0  0  0  0  0  0  0  0  0  0  0  0
    8.0890  -13.3840   20.1831 C   0  0  0  0  0  0  0  0  0  0  0  0
    7.4721  -14.0487   21.3857 C   0  0  2  0  0  0  0  0  0  0  0  0
    7.5301  -13.1322   22.5630 C   0  0  0  0  0  0  0  0  0  0  0  0
    8.1484  -15.3532   21.7318 C   0  0  2  0  0  0  0  0  0  0  0  0
    7.9922  -16.3487   20.7213 N   0  0  0  0  0  0  0  0  0  0  0  0
    7.7241  -15.8804   23.0308 C   0  0  0  0  0  0  0  0  0  0  0  0
    6.5593  -16.2917   23.1925 O   0  0  0  0  0  0  0  0  0  0  0  0
    8.6323  -15.9264   24.1102 N   0  0  0  0  0  0  0  0  0  0  0  0
    8.4172  -16.7964   25.2582 C   0  0  1  0  0  0  0  0  0  0  0  0
    8.2787  -18.2291   24.8407 C   0  0  0  0  0  0  0  0  0  0  0  0
    8.0294  -19.0687   26.0319 C   0  0  0  0  0  0  0  0  0  0  0  0
    7.5599  -18.6238   27.2783 C   0  0  0  0  0  0  0  0  0  0  0  0
    7.4546  -19.6632   28.1185 N   0  0  0  0  0  0  0  0  0  0  0  0
    7.8381  -20.7633   27.4628 C   0  0  0  0  0  0  0  0  0  0  0  0
    8.1797  -20.3974   26.2164 N   0  0  0  0  0  0  0  0  0  0  0  0
    9.5440  -16.6466   26.1855 C   0  0  0  0  0  0  0  0  0  0  0  0
    9.3589  -16.9214   27.4209 O   0  0  0  0  0  0  0  0  0  0  0  0
   10.8092  -16.2316   25.8477 O   0  0  0  0  0  0  0  0  0  0  0  0
  1  2  1  0
  3  4  1  1
  3  2  1  0
  5  3  1  0
  6  5  2  0
  7  8  1  0
  8  9  1  0
  9 10  1  1
 11  9  1  0
 11 12  1  6
 12  5  1  0
 13 15  1  0
 13 11  1  0
 14 13  2  0
 16 15  1  0
 16 17  1  6
 18 17  1  0
 18 19  2  0
 20 19  1  0
 21 20  1  0
 22 21  2  0
 22 18  1  0
 23 16  1  0
 24 23  2  0
 25 23  1  0
M  END
$$$$
