SIH.pdb
     RDKit          3D

 25 25  0  0  1  0  0  0  0  0999 V2000
    8.9784  -19.6563   19.9583 O   0  0  0  0  0  0  0  0  0  0  0  0
    9.7857  -19.4314   18.8473 C   0  0  0  0  0  0  0  0  0  0  0  0
    9.5277  -18.0586   18.2392 C   0  0  2  0  0  0  0  0  0  0  0  0
   10.4753  -17.8062   17.1834 N   0  0  0  0  0  0  0  0  0  0  0  0
    9.7039  -17.0409   19.2966 C   0  0  0  0  0  0  0  0  0  0  0  0
   10.8717  -16.7208   19.7005 O   0  0  0  0  0  0  0  0  0  0  0  0
    7.0203  -12.3502   19.7194 C   0  0  0  0  0  0  0  0  0  0  0  0
    8.0928  -13.4201   19.7184 C   0  0  0  0  0  0  0  0  0  0  0  0
    7.8868  -14.2664   20.9472 C   0  0  2  0  0  0  0  0  0  0  0  0
    8.0681  -13.4373   22.1758 C   0  0  0  0  0  0  0  0  0  0  0  0
    8.8256  -15.4475   20.9962 C   0  0  2  0  0  0  0  0  0  0  0  0
    8.6251  -16.3653   19.9219 N   0  0  0  0  0  0  0  0  0  0  0  0
    8.7774  -16.1526   22.2791 C   0  0  0  0  0  0  0  0  0  0  0  0
    7.7223  -16.6946   22.6595 O   0  0  0  0  0  0  0  0  0  0  0  0
    9.9271  -16.2232   23.0949 N   0  0  0  0  0  0  0  0  0  0  0  0
    9.9282  -16.9458   24.3593 C   0  0  1  0  0  0  0  0  0  0  0  0
    9.7611  -18.4200   24.1472 C   0  0  0  0  0  0  0  0  0  0  0  0
   10.8339  -18.9158   23.2587 C   0  0  0  0  0  0  0  0  0  0  0  0
   11.8792  -18.1533   22.7130 C   0  0  0  0  0  0  0  0  0  0  0  0
   12.6620  -18.9358   21.9566 N   0  0  0  0  0  0  0  0  0  0  0  0
   12.1627  -20.1754   21.9923 C   0  0  0  0  0  0  0  0  0  0  0  0
   11.0701  -20.1530   22.7732 N   0  0  0  0  0  0  0  0  0  0  0  0
   11.1884  -16.6754   25.0599 C   0  0  0  0  0  0  0  0  0  0  0  0
   12.0574  -15.9311   24.4880 O   0  0  0  0  0  0  0  0  0  0  0  0
   11.5334  -17.1537   26.3004 O   0  0  0  0  0  0  0  0  0  0  0  0
  1  2  1  0
  3  4  1  6
  3  2  1  0
  5  3  1  0
  6  5  2  0
  7  8  1  0
  8  9  1  0
  9 10  1  1
 11  9  1  0
 11 12  1  6
 12  5  1  0
 13 15  1  0
 13 11  1  0
 14 13  2  0
 16 15  1  0
 16 17  1  6
 18 17  1  0
 18 19  2  0
 20 19  1  0
 21 20  1  0
 22 21  2  0
 22 18  1  0
 23 16  1  0
 24 23  2  0
 25 23  1  0
M  END
$$$$
