SIH.pdb
     RDKit          3D

 25 25  0  0  1  0  0  0  0  0999 V2000
    8.5571  -20.2714   16.9746 O   0  0  0  0  0  0  0  0  0  0  0  0
    8.1739  -19.2544   17.8439 C   0  0  0  0  0  0  0  0  0  0  0  0
    8.6159  -17.8887   17.3337 C   0  0  2  0  0  0  0  0  0  0  0  0
    9.6904  -18.0455   16.3866 N   0  0  0  0  0  0  0  0  0  0  0  0
    9.1007  -17.0970   18.4839 C   0  0  0  0  0  0  0  0  0  0  0  0
   10.3317  -17.1280   18.8199 O   0  0  0  0  0  0  0  0  0  0  0  0
    7.0216  -12.1988   19.8702 C   0  0  0  0  0  0  0  0  0  0  0  0
    7.9180  -13.3620   19.4984 C   0  0  0  0  0  0  0  0  0  0  0  0
    7.9707  -14.2881   20.6850 C   0  0  2  0  0  0  0  0  0  0  0  0
    8.5686  -13.5836   21.8579 C   0  0  0  0  0  0  0  0  0  0  0  0
    8.7581  -15.5442   20.3997 C   0  0  2  0  0  0  0  0  0  0  0  0
    8.2631  -16.2704   19.2753 N   0  0  0  0  0  0  0  0  0  0  0  0
    8.8568  -16.4242   21.5663 C   0  0  0  0  0  0  0  0  0  0  0  0
    8.1784  -17.4674   21.6264 O   0  0  0  0  0  0  0  0  0  0  0  0
    9.7220  -16.0969   22.6323 N   0  0  0  0  0  0  0  0  0  0  0  0
   10.5973  -17.0878   23.2430 C   0  0  1  0  0  0  0  0  0  0  0  0
   11.5900  -17.6233   22.2561 C   0  0  0  0  0  0  0  0  0  0  0  0
   11.2172  -19.0039   21.8804 C   0  0  0  0  0  0  0  0  0  0  0  0
   10.1020  -19.7192   22.3458 C   0  0  0  0  0  0  0  0  0  0  0  0
   10.0840  -20.9393   21.7907 N   0  0  0  0  0  0  0  0  0  0  0  0
   11.1452  -21.0403   20.9839 C   0  0  0  0  0  0  0  0  0  0  0  0
   11.8161  -19.8783   21.0444 N   0  0  0  0  0  0  0  0  0  0  0  0
   11.2940  -16.4715   24.3773 C   0  0  0  0  0  0  0  0  0  0  0  0
   11.6949  -15.2623   24.2637 O   0  0  0  0  0  0  0  0  0  0  0  0
   11.5627  -17.0808   25.5788 O   0  0  0  0  0  0  0  0  0  0  0  0
  1  2  1  0
  3  4  1  6
  3  2  1  0
  5  3  1  0
  6  5  2  0
  7  8  1  0
  8  9  1  0
  9 10  1  1
 11  9  1  0
 11 12  1  6
 12  5  1  0
 13 15  1  0
 13 11  1  0
 14 13  2  0
 16 15  1  0
 16 17  1  6
 18 17  1  0
 18 19  2  0
 20 19  1  0
 21 20  1  0
 22 21  2  0
 22 18  1  0
 23 16  1  0
 24 23  2  0
 25 23  1  0
M  END
$$$$
