SIH.pdb
     RDKit          3D

 25 25  0  0  1  0  0  0  0  0999 V2000
    7.8583  -17.3627   21.4673 O   0  0  0  0  0  0  0  0  0  0  0  0
    6.8108  -16.4734   21.2468 C   0  0  0  0  0  0  0  0  0  0  0  0
    7.3008  -15.0313   21.2152 C   0  0  2  0  0  0  0  0  0  0  0  0
    8.2577  -14.8640   20.1508 N   0  0  0  0  0  0  0  0  0  0  0  0
    7.9598  -14.7356   22.5047 C   0  0  0  0  0  0  0  0  0  0  0  0
    9.2327  -14.6888   22.5870 O   0  0  0  0  0  0  0  0  0  0  0  0
    5.6717  -11.5014   26.2727 C   0  0  0  0  0  0  0  0  0  0  0  0
    6.6327  -12.1447   25.2942 C   0  0  0  0  0  0  0  0  0  0  0  0
    7.1134  -13.4307   25.9136 C   0  0  2  0  0  0  0  0  0  0  0  0
    7.9355  -13.1391   27.1254 C   0  0  0  0  0  0  0  0  0  0  0  0
    7.9200  -14.2670   24.9497 C   0  0  2  0  0  0  0  0  0  0  0  0
    7.2516  -14.4894   23.7086 N   0  0  0  0  0  0  0  0  0  0  0  0
    8.3456  -15.5425   25.5304 C   0  0  0  0  0  0  0  0  0  0  0  0
    7.5075  -16.4281   25.7858 O   0  0  0  0  0  0  0  0  0  0  0  0
    9.7098  -15.7782   25.8053 N   0  0  0  0  0  0  0  0  0  0  0  0
   10.1794  -17.0563   26.3221 C   0  0  1  0  0  0  0  0  0  0  0  0
   11.5972  -17.3230   25.9162 C   0  0  0  0  0  0  0  0  0  0  0  0
   11.6482  -17.6256   24.4699 C   0  0  0  0  0  0  0  0  0  0  0  0
   10.5464  -17.7579   23.6095 C   0  0  0  0  0  0  0  0  0  0  0  0
   10.9727  -18.0336   22.3687 N   0  0  0  0  0  0  0  0  0  0  0  0
   12.3084  -18.0847   22.3940 C   0  0  0  0  0  0  0  0  0  0  0  0
   12.7024  -17.8395   23.6544 N   0  0  0  0  0  0  0  0  0  0  0  0
   10.0650  -17.0482   27.7846 C   0  0  0  0  0  0  0  0  0  0  0  0
    9.9290  -15.9245   28.3803 O   0  0  0  0  0  0  0  0  0  0  0  0
   10.0887  -18.1566   28.5957 O   0  0  0  0  0  0  0  0  0  0  0  0
  1  2  1  0
  3  4  1  6
  3  2  1  0
  5  3  1  0
  6  5  2  0
  7  8  1  0
  8  9  1  0
  9 10  1  1
 11  9  1  0
 11 12  1  6
 12  5  1  0
 13 15  1  0
 13 11  1  0
 14 13  2  0
 16 15  1  0
 16 17  1  1
 18 17  1  0
 18 19  2  0
 20 19  1  0
 21 20  1  0
 22 21  2  0
 22 18  1  0
 23 16  1  0
 24 23  2  0
 25 23  1  0
M  END
$$$$
