SIH.pdb
     RDKit          3D

 25 25  0  0  1  0  0  0  0  0999 V2000
    6.2473  -17.2435   20.5806 O   0  0  0  0  0  0  0  0  0  0  0  0
    7.1506  -16.7733   21.5291 C   0  0  0  0  0  0  0  0  0  0  0  0
    7.2033  -15.2508   21.5424 C   0  0  2  0  0  0  0  0  0  0  0  0
    7.9161  -14.7768   20.3833 N   0  0  0  0  0  0  0  0  0  0  0  0
    7.9242  -14.8210   22.7590 C   0  0  0  0  0  0  0  0  0  0  0  0
    9.1992  -14.7617   22.7706 O   0  0  0  0  0  0  0  0  0  0  0  0
    5.7968  -11.2535   26.3192 C   0  0  0  0  0  0  0  0  0  0  0  0
    6.7555  -11.9538   25.3782 C   0  0  0  0  0  0  0  0  0  0  0  0
    7.2368  -13.2016   26.0710 C   0  0  2  0  0  0  0  0  0  0  0  0
    8.0972  -12.8402   27.2366 C   0  0  0  0  0  0  0  0  0  0  0  0
    8.0042  -14.1140   25.1450 C   0  0  2  0  0  0  0  0  0  0  0  0
    7.2758  -14.4539   23.9658 N   0  0  0  0  0  0  0  0  0  0  0  0
    8.4771  -15.3278   25.8146 C   0  0  0  0  0  0  0  0  0  0  0  0
    7.6648  -16.1881   26.2045 O   0  0  0  0  0  0  0  0  0  0  0  0
    9.8579  -15.5322   26.0234 N   0  0  0  0  0  0  0  0  0  0  0  0
   10.3729  -16.7663   26.6004 C   0  0  1  0  0  0  0  0  0  0  0  0
   11.7735  -17.0413   26.1433 C   0  0  0  0  0  0  0  0  0  0  0  0
   11.7718  -17.3306   24.6933 C   0  0  0  0  0  0  0  0  0  0  0  0
   10.6530  -17.6686   23.9149 C   0  0  0  0  0  0  0  0  0  0  0  0
   11.0292  -17.8607   22.6426 N   0  0  0  0  0  0  0  0  0  0  0  0
   12.3489  -17.6598   22.5686 C   0  0  0  0  0  0  0  0  0  0  0  0
   12.7833  -17.3435   23.7995 N   0  0  0  0  0  0  0  0  0  0  0  0
   10.3298  -16.6611   28.0629 C   0  0  0  0  0  0  0  0  0  0  0  0
   10.2514  -15.4980   28.5894 O   0  0  0  0  0  0  0  0  0  0  0  0
   10.3646  -17.7153   28.9429 O   0  0  0  0  0  0  0  0  0  0  0  0
  1  2  1  0
  3  4  1  6
  3  2  1  0
  5  3  1  0
  6  5  2  0
  7  8  1  0
  8  9  1  0
  9 10  1  1
 11  9  1  0
 11 12  1  6
 12  5  1  0
 13 15  1  0
 13 11  1  0
 14 13  2  0
 16 15  1  0
 16 17  1  6
 18 17  1  0
 18 19  2  0
 20 19  1  0
 21 20  1  0
 22 21  2  0
 22 18  1  0
 23 16  1  0
 24 23  2  0
 25 23  1  0
M  END
$$$$
