SIH.pdb
     RDKit          3D

 25 25  0  0  1  0  0  0  0  0999 V2000
    7.1412  -17.7772   22.6396 O   0  0  0  0  0  0  0  0  0  0  0  0
    7.7963  -17.3786   21.4782 C   0  0  0  0  0  0  0  0  0  0  0  0
    7.7534  -15.8656   21.3051 C   0  0  2  0  0  0  0  0  0  0  0  0
    8.5673  -15.4796   20.1805 N   0  0  0  0  0  0  0  0  0  0  0  0
    8.2980  -15.2417   22.5293 C   0  0  0  0  0  0  0  0  0  0  0  0
    9.5544  -15.0574   22.6595 O   0  0  0  0  0  0  0  0  0  0  0  0
    7.0712  -11.1514   26.8153 C   0  0  0  0  0  0  0  0  0  0  0  0
    8.0171  -12.2260   26.3199 C   0  0  0  0  0  0  0  0  0  0  0  0
    7.3400  -12.9291   25.1729 C   0  0  2  0  0  0  0  0  0  0  0  0
    5.9241  -13.2424   25.5288 C   0  0  0  0  0  0  0  0  0  0  0  0
    8.0509  -14.2008   24.7775 C   0  0  2  0  0  0  0  0  0  0  0  0
    7.4932  -14.8145   23.6160 N   0  0  0  0  0  0  0  0  0  0  0  0
    8.1256  -15.1686   25.8743 C   0  0  0  0  0  0  0  0  0  0  0  0
    7.0839  -15.6354   26.3732 O   0  0  0  0  0  0  0  0  0  0  0  0
    9.3795  -15.5803   26.3747 N   0  0  0  0  0  0  0  0  0  0  0  0
    9.6388  -16.9623   26.7539 C   0  0  1  0  0  0  0  0  0  0  0  0
    9.4636  -17.8910   25.5907 C   0  0  0  0  0  0  0  0  0  0  0  0
    9.7092  -19.2819   26.0279 C   0  0  0  0  0  0  0  0  0  0  0  0
    9.9717  -19.7060   27.3405 C   0  0  0  0  0  0  0  0  0  0  0  0
   10.1431  -21.0355   27.3600 N   0  0  0  0  0  0  0  0  0  0  0  0
   10.0014  -21.4873   26.1098 C   0  0  0  0  0  0  0  0  0  0  0  0
    9.7423  -20.4314   25.3211 N   0  0  0  0  0  0  0  0  0  0  0  0
   11.0048  -17.0623   27.2795 C   0  0  0  0  0  0  0  0  0  0  0  0
   11.9132  -16.3246   26.7633 O   0  0  0  0  0  0  0  0  0  0  0  0
   11.4123  -17.8897   28.2974 O   0  0  0  0  0  0  0  0  0  0  0  0
  1  2  1  0
  3  4  1  6
  3  2  1  0
  5  3  1  0
  6  5  2  0
  7  8  1  0
  8  9  1  0
  9 10  1  1
 11  9  1  0
 11 12  1  6
 12  5  1  0
 13 15  1  0
 13 11  1  0
 14 13  2  0
 16 15  1  0
 16 17  1  6
 18 17  1  0
 18 19  2  0
 20 19  1  0
 21 20  1  0
 22 21  2  0
 22 18  1  0
 23 16  1  0
 24 23  2  0
 25 23  1  0
M  END
$$$$
