SIH.pdb
     RDKit          3D

 25 25  0  0  1  0  0  0  0  0999 V2000
    7.9833  -17.8756   21.3449 O   0  0  0  0  0  0  0  0  0  0  0  0
    6.9755  -16.9516   21.0856 C   0  0  0  0  0  0  0  0  0  0  0  0
    7.5393  -15.5483   20.9019 C   0  0  2  0  0  0  0  0  0  0  0  0
    8.5185  -15.5500   19.8448 N   0  0  0  0  0  0  0  0  0  0  0  0
    8.1941  -15.1413   22.1629 C   0  0  0  0  0  0  0  0  0  0  0  0
    9.4610  -15.2270   22.2930 O   0  0  0  0  0  0  0  0  0  0  0  0
    7.4002  -11.5900   27.0924 C   0  0  0  0  0  0  0  0  0  0  0  0
    8.2277  -12.6638   26.4164 C   0  0  0  0  0  0  0  0  0  0  0  0
    7.4135  -13.2070   25.2716 C   0  0  2  0  0  0  0  0  0  0  0  0
    6.1256  -13.7662   25.7796 C   0  0  0  0  0  0  0  0  0  0  0  0
    8.1509  -14.2713   24.4954 C   0  0  2  0  0  0  0  0  0  0  0  0
    7.4883  -14.6412   23.2868 N   0  0  0  0  0  0  0  0  0  0  0  0
    8.4347  -15.4611   25.3010 C   0  0  0  0  0  0  0  0  0  0  0  0
    7.5635  -16.3379   25.4563 O   0  0  0  0  0  0  0  0  0  0  0  0
    9.6986  -15.6235   25.9079 N   0  0  0  0  0  0  0  0  0  0  0  0
   10.1633  -16.9210   26.3788 C   0  0  1  0  0  0  0  0  0  0  0  0
   11.5495  -17.2157   25.8911 C   0  0  0  0  0  0  0  0  0  0  0  0
   11.9952  -18.5192   26.4281 C   0  0  0  0  0  0  0  0  0  0  0  0
   11.2297  -19.4027   27.2061 C   0  0  0  0  0  0  0  0  0  0  0  0
   11.9603  -20.4844   27.5118 N   0  0  0  0  0  0  0  0  0  0  0  0
   13.1691  -20.3340   26.9611 C   0  0  0  0  0  0  0  0  0  0  0  0
   13.1799  -19.1562   26.3155 N   0  0  0  0  0  0  0  0  0  0  0  0
   10.1298  -16.9340   27.8453 C   0  0  0  0  0  0  0  0  0  0  0  0
   10.0202  -15.8196   28.4635 O   0  0  0  0  0  0  0  0  0  0  0  0
   10.2047  -18.0533   28.6380 O   0  0  0  0  0  0  0  0  0  0  0  0
  1  2  1  0
  3  4  1  6
  3  2  1  0
  5  3  1  0
  6  5  2  0
  7  8  1  0
  8  9  1  0
  9 10  1  1
 11  9  1  0
 11 12  1  6
 12  5  1  0
 13 15  1  0
 13 11  1  0
 14 13  2  0
 16 15  1  0
 16 17  1  1
 18 17  1  0
 18 19  2  0
 20 19  1  0
 21 20  1  0
 22 21  2  0
 22 18  1  0
 23 16  1  0
 24 23  2  0
 25 23  1  0
M  END
$$$$
