FCE.pdb
     RDKit          3D

 27 27  0  0  1  0  0  0  0  0999 V2000
    8.1186  -15.2556   21.8182 N   0  0  0  0  0  0  0  0  0  0  0  0
    8.0528  -14.4898   23.0218 C   0  0  1  0  0  0  0  0  0  0  0  0
    6.6078  -14.0075   23.2205 C   0  0  0  0  0  0  0  0  0  0  0  0
    6.5935  -13.2504   24.5005 C   0  0  0  0  0  0  0  0  0  0  0  0
    5.8379  -13.7121   25.5748 C   0  0  0  0  0  0  0  0  0  0  0  0
    5.8227  -13.0217   26.7652 C   0  0  0  0  0  0  0  0  0  0  0  0
    6.5434  -11.8588   26.9481 C   0  0  0  0  0  0  0  0  0  0  0  0
    7.2949  -11.3890   25.8977 C   0  0  0  0  0  0  0  0  0  0  0  0
    7.3074  -12.0917   24.6929 C   0  0  0  0  0  0  0  0  0  0  0  0
    8.5517  -15.2737   24.1573 C   0  0  0  0  0  0  0  0  0  0  0  0
    7.8757  -16.2223   24.6346 O   0  0  0  0  0  0  0  0  0  0  0  0
    9.7842  -15.0153   24.7648 N   0  0  0  0  0  0  0  0  0  0  0  0
   10.2904  -15.6998   25.9305 C   0  0  1  0  0  0  0  0  0  0  0  0
    9.2726  -16.3483   26.7892 C   0  0  0  0  0  0  0  0  0  0  0  0
    9.9584  -17.4105   28.0795 S   0  0  0  0  0  0  0  0  0  0  0  0
   11.2171  -16.7680   25.4178 C   0  0  0  0  0  0  0  0  0  0  0  0
   10.7728  -17.7603   24.7442 O   0  0  0  0  0  0  0  0  0  0  0  0
   12.6144  -16.7571   25.6301 N   0  0  0  0  0  0  0  0  0  0  0  0
   13.5157  -17.5395   24.7590 C   0  0  1  0  0  0  0  0  0  0  0  0
   14.4095  -16.5906   23.9890 C   0  0  0  0  0  0  0  0  0  0  0  0
   15.4396  -17.2633   23.1400 C   0  0  0  0  0  0  0  0  0  0  0  0
   16.2977  -16.2907   22.4127 C   0  0  0  0  0  0  0  0  0  0  0  0
   17.1798  -15.6692   23.0777 O   0  0  0  0  0  0  0  0  0  0  0  0
   14.2335  -18.4850   25.6091 C   0  0  0  0  0  0  0  0  0  0  0  0
   14.9895  -19.5528   25.1187 O   0  0  0  0  0  0  0  0  0  0  0  0
   16.1930  -16.0246   21.0506 O   0  0  0  0  0  0  0  0  0  0  0  0
   14.1949  -18.3681   26.8554 O   0  0  0  0  0  0  0  0  0  0  0  0
  2  1  1  6
  2 10  1  0
  3  2  1  0
  4  3  1  0
  5  4  2  0
  6  5  1  0
  7  8  1  0
  7  6  2  0
  8  9  2  0
  9  4  1  0
 10 11  2  0
 10 12  1  0
 12 13  1  0
 13 14  1  6
 15 14  1  0
 16 13  1  0
 16 17  2  0
 18 16  1  0
 19 18  1  0
 19 20  1  1
 21 20  1  0
 22 23  2  0
 22 21  1  0
 24 19  1  0
 25 24  1  0
 26 22  1  0
 27 24  2  0
M  END
$$$$
