FCE.pdb
     RDKit          3D

 27 27  0  0  1  0  0  0  0  0999 V2000
    7.5816  -16.6676   23.5119 N   0  0  0  0  0  0  0  0  0  0  0  0
    7.6055  -15.3331   24.0197 C   0  0  1  0  0  0  0  0  0  0  0  0
    6.3601  -15.1156   24.8924 C   0  0  0  0  0  0  0  0  0  0  0  0
    6.4277  -13.7094   25.3719 C   0  0  0  0  0  0  0  0  0  0  0  0
    6.9077  -12.7088   24.5313 C   0  0  0  0  0  0  0  0  0  0  0  0
    6.9687  -11.4037   24.9638 C   0  0  0  0  0  0  0  0  0  0  0  0
    6.5639  -11.0307   26.2295 C   0  0  0  0  0  0  0  0  0  0  0  0
    6.0873  -12.0060   27.0723 C   0  0  0  0  0  0  0  0  0  0  0  0
    6.0272  -13.3275   26.6301 C   0  0  0  0  0  0  0  0  0  0  0  0
    8.8573  -15.0810   24.7425 C   0  0  0  0  0  0  0  0  0  0  0  0
    9.5259  -14.0354   24.5320 O   0  0  0  0  0  0  0  0  0  0  0  0
    9.3711  -15.9731   25.6886 N   0  0  0  0  0  0  0  0  0  0  0  0
   10.6240  -15.8069   26.3858 C   0  0  1  0  0  0  0  0  0  0  0  0
   10.6294  -16.2204   27.8081 C   0  0  0  0  0  0  0  0  0  0  0  0
   10.7456  -14.8495   28.9789 S   0  0  0  0  0  0  0  0  0  0  0  0
   11.6265  -16.6535   25.6503 C   0  0  0  0  0  0  0  0  0  0  0  0
   11.4404  -17.9087   25.4902 O   0  0  0  0  0  0  0  0  0  0  0  0
   12.8186  -16.1415   25.0892 N   0  0  0  0  0  0  0  0  0  0  0  0
   13.6886  -16.9978   24.2568 C   0  0  1  0  0  0  0  0  0  0  0  0
   14.4767  -16.1262   23.3022 C   0  0  0  0  0  0  0  0  0  0  0  0
   15.5337  -16.8508   22.5325 C   0  0  0  0  0  0  0  0  0  0  0  0
   16.2433  -15.9646   21.5721 C   0  0  0  0  0  0  0  0  0  0  0  0
   15.5719  -15.4727   20.6161 O   0  0  0  0  0  0  0  0  0  0  0  0
   14.5117  -17.7954   25.1614 C   0  0  0  0  0  0  0  0  0  0  0  0
   14.9323  -17.3575   26.4199 O   0  0  0  0  0  0  0  0  0  0  0  0
   17.5943  -15.6419   21.6605 O   0  0  0  0  0  0  0  0  0  0  0  0
   14.8843  -18.9437   24.8284 O   0  0  0  0  0  0  0  0  0  0  0  0
  2  1  1  1
  2 10  1  0
  3  2  1  0
  4  3  1  0
  5  4  2  0
  6  5  1  0
  7  8  1  0
  7  6  2  0
  8  9  2  0
  9  4  1  0
 10 11  2  0
 10 12  1  0
 12 13  1  0
 13 14  1  1
 15 14  1  0
 16 13  1  0
 16 17  2  0
 18 16  1  0
 19 18  1  0
 19 20  1  6
 21 20  1  0
 22 23  2  0
 22 21  1  0
 24 19  1  0
 25 24  1  0
 26 22  1  0
 27 24  2  0
M  END
$$$$
