FCE.pdb
     RDKit          3D

 27 27  0  0  1  0  0  0  0  0999 V2000
    6.0801  -17.7213   25.6877 N   0  0  0  0  0  0  0  0  0  0  0  0
    6.7092  -16.4765   25.3811 C   0  0  1  0  0  0  0  0  0  0  0  0
    7.2493  -15.8639   26.6822 C   0  0  0  0  0  0  0  0  0  0  0  0
    6.9623  -14.4066   26.6072 C   0  0  0  0  0  0  0  0  0  0  0  0
    7.9918  -13.5059   26.3481 C   0  0  0  0  0  0  0  0  0  0  0  0
    7.7353  -12.1560   26.2710 C   0  0  0  0  0  0  0  0  0  0  0  0
    6.4670  -11.6393   26.4437 C   0  0  0  0  0  0  0  0  0  0  0  0
    5.4390  -12.5145   26.7002 C   0  0  0  0  0  0  0  0  0  0  0  0
    5.7033  -13.8819   26.7776 C   0  0  0  0  0  0  0  0  0  0  0  0
    7.7515  -16.6642   24.3656 C   0  0  0  0  0  0  0  0  0  0  0  0
    8.5447  -17.6398   24.4261 O   0  0  0  0  0  0  0  0  0  0  0  0
    7.9216  -15.7844   23.2922 N   0  0  0  0  0  0  0  0  0  0  0  0
    8.8485  -15.9794   22.2031 C   0  0  1  0  0  0  0  0  0  0  0  0
    8.6999  -15.0527   21.0572 C   0  0  0  0  0  0  0  0  0  0  0  0
    7.0317  -14.9882   20.3667 S   0  0  0  0  0  0  0  0  0  0  0  0
   10.2223  -15.7856   22.7843 C   0  0  0  0  0  0  0  0  0  0  0  0
   10.5558  -14.6819   23.3378 O   0  0  0  0  0  0  0  0  0  0  0  0
   11.2241  -16.7826   22.7692 N   0  0  0  0  0  0  0  0  0  0  0  0
   12.5618  -16.5161   23.3374 C   0  0  1  0  0  0  0  0  0  0  0  0
   12.9464  -17.6550   24.2578 C   0  0  0  0  0  0  0  0  0  0  0  0
   12.1427  -17.7318   25.5158 C   0  0  0  0  0  0  0  0  0  0  0  0
   11.7022  -19.1184   25.8233 C   0  0  0  0  0  0  0  0  0  0  0  0
   12.5561  -19.9124   26.3202 O   0  0  0  0  0  0  0  0  0  0  0  0
   13.4786  -16.3106   22.2198 C   0  0  0  0  0  0  0  0  0  0  0  0
   14.7863  -15.8398   22.3632 O   0  0  0  0  0  0  0  0  0  0  0  0
   10.4133  -19.5945   25.6017 O   0  0  0  0  0  0  0  0  0  0  0  0
   13.1110  -16.5578   21.0484 O   0  0  0  0  0  0  0  0  0  0  0  0
  2  1  1  1
  2 10  1  0
  3  2  1  0
  4  3  1  0
  5  4  2  0
  6  5  1  0
  7  8  1  0
  7  6  2  0
  8  9  2  0
  9  4  1  0
 10 11  2  0
 10 12  1  0
 12 13  1  0
 13 14  1  6
 15 14  1  0
 16 13  1  0
 16 17  2  0
 18 16  1  0
 19 18  1  0
 19 20  1  6
 21 20  1  0
 22 23  2  0
 22 21  1  0
 24 19  1  0
 25 24  1  0
 26 22  1  0
 27 24  2  0
M  END
$$$$
