FCE.pdb
     RDKit          3D

 27 27  0  0  1  0  0  0  0  0999 V2000
    6.1006  -16.7359   25.6490 N   0  0  0  0  0  0  0  0  0  0  0  0
    7.0032  -15.9253   24.8956 C   0  0  1  0  0  0  0  0  0  0  0  0
    7.7292  -14.9721   25.8570 C   0  0  0  0  0  0  0  0  0  0  0  0
    7.0050  -13.6752   25.7839 C   0  0  0  0  0  0  0  0  0  0  0  0
    6.1590  -13.2900   26.8203 C   0  0  0  0  0  0  0  0  0  0  0  0
    5.4889  -12.0892   26.7645 C   0  0  0  0  0  0  0  0  0  0  0  0
    5.6213  -11.2241   25.6971 C   0  0  0  0  0  0  0  0  0  0  0  0
    6.4527  -11.5889   24.6654 C   0  0  0  0  0  0  0  0  0  0  0  0
    7.1298  -12.8068   24.7258 C   0  0  0  0  0  0  0  0  0  0  0  0
    7.9257  -16.7654   24.1235 C   0  0  0  0  0  0  0  0  0  0  0  0
    8.3401  -17.8615   24.5830 O   0  0  0  0  0  0  0  0  0  0  0  0
    8.3906  -16.4018   22.8559 N   0  0  0  0  0  0  0  0  0  0  0  0
    9.4111  -17.1060   22.1169 C   0  0  1  0  0  0  0  0  0  0  0  0
    9.6721  -16.6094   20.7462 C   0  0  0  0  0  0  0  0  0  0  0  0
   11.0317  -17.4457   19.9003 S   0  0  0  0  0  0  0  0  0  0  0  0
   10.6784  -16.9618   22.9142 C   0  0  0  0  0  0  0  0  0  0  0  0
   11.1994  -15.8129   23.1248 O   0  0  0  0  0  0  0  0  0  0  0  0
   11.3720  -18.0546   23.4823 N   0  0  0  0  0  0  0  0  0  0  0  0
   12.6479  -17.8480   24.1983 C   0  0  1  0  0  0  0  0  0  0  0  0
   12.4383  -18.1147   25.6738 C   0  0  0  0  0  0  0  0  0  0  0  0
   11.6388  -19.3418   25.9729 C   0  0  0  0  0  0  0  0  0  0  0  0
   11.7013  -19.7228   27.4090 C   0  0  0  0  0  0  0  0  0  0  0  0
   12.5492  -19.1295   28.1407 O   0  0  0  0  0  0  0  0  0  0  0  0
   13.6468  -18.7065   23.5682 C   0  0  0  0  0  0  0  0  0  0  0  0
   13.3521  -19.6408   22.5719 O   0  0  0  0  0  0  0  0  0  0  0  0
   10.8863  -20.6861   27.9965 O   0  0  0  0  0  0  0  0  0  0  0  0
   14.8489  -18.6333   23.9120 O   0  0  0  0  0  0  0  0  0  0  0  0
  2  1  1  1
  2 10  1  0
  3  2  1  0
  4  3  1  0
  5  4  2  0
  6  5  1  0
  7  8  1  0
  7  6  2  0
  8  9  2  0
  9  4  1  0
 10 11  2  0
 10 12  1  0
 12 13  1  0
 13 14  1  6
 15 14  1  0
 16 13  1  0
 16 17  2  0
 18 16  1  0
 19 18  1  0
 19 20  1  1
 21 20  1  0
 22 23  2  0
 22 21  1  0
 24 19  1  0
 25 24  1  0
 26 22  1  0
 27 24  2  0
M  END
$$$$
