FCE.pdb
     RDKit          3D

 27 27  0  0  1  0  0  0  0  0999 V2000
    7.5434  -16.4919   26.2391 N   0  0  0  0  0  0  0  0  0  0  0  0
    7.5985  -15.5575   25.1606 C   0  0  1  0  0  0  0  0  0  0  0  0
    8.6248  -14.4675   25.5051 C   0  0  0  0  0  0  0  0  0  0  0  0
    7.8780  -13.4070   26.2328 C   0  0  0  0  0  0  0  0  0  0  0  0
    6.7722  -12.8024   25.6411 C   0  0  0  0  0  0  0  0  0  0  0  0
    6.0711  -11.8242   26.3087 C   0  0  0  0  0  0  0  0  0  0  0  0
    6.4244  -11.4031   27.5748 C   0  0  0  0  0  0  0  0  0  0  0  0
    7.5135  -11.9896   28.1736 C   0  0  0  0  0  0  0  0  0  0  0  0
    8.2213  -12.9805   27.4935 C   0  0  0  0  0  0  0  0  0  0  0  0
    7.9009  -16.2451   23.9002 C   0  0  0  0  0  0  0  0  0  0  0  0
    8.0833  -17.4902   23.8709 O   0  0  0  0  0  0  0  0  0  0  0  0
    8.0039  -15.5681   22.6811 N   0  0  0  0  0  0  0  0  0  0  0  0
    8.3592  -16.1807   21.4234 C   0  0  1  0  0  0  0  0  0  0  0  0
    7.7114  -15.6065   20.2216 C   0  0  0  0  0  0  0  0  0  0  0  0
    5.9118  -15.7638   20.2021 S   0  0  0  0  0  0  0  0  0  0  0  0
    9.8464  -16.0065   21.2796 C   0  0  0  0  0  0  0  0  0  0  0  0
   10.3478  -14.8906   20.9065 O   0  0  0  0  0  0  0  0  0  0  0  0
   10.7818  -17.0329   21.5430 N   0  0  0  0  0  0  0  0  0  0  0  0
   12.2270  -16.8083   21.3327 C   0  0  1  0  0  0  0  0  0  0  0  0
   12.9322  -16.8241   22.6723 C   0  0  0  0  0  0  0  0  0  0  0  0
   12.1782  -17.5191   23.7599 C   0  0  0  0  0  0  0  0  0  0  0  0
   12.9982  -17.7094   24.9857 C   0  0  0  0  0  0  0  0  0  0  0  0
   12.9218  -16.8248   25.8902 O   0  0  0  0  0  0  0  0  0  0  0  0
   12.6954  -17.8244   20.3947 C   0  0  0  0  0  0  0  0  0  0  0  0
   11.9136  -18.8953   19.9539 O   0  0  0  0  0  0  0  0  0  0  0  0
   13.8394  -18.7974   25.2002 O   0  0  0  0  0  0  0  0  0  0  0  0
   13.8591  -17.7702   19.9349 O   0  0  0  0  0  0  0  0  0  0  0  0
  2  1  1  1
  2 10  1  0
  3  2  1  0
  4  3  1  0
  5  4  2  0
  6  5  1  0
  7  8  1  0
  7  6  2  0
  8  9  2  0
  9  4  1  0
 10 11  2  0
 10 12  1  0
 12 13  1  0
 13 14  1  6
 15 14  1  0
 16 13  1  0
 16 17  2  0
 18 16  1  0
 19 18  1  0
 19 20  1  1
 21 20  1  0
 22 23  2  0
 22 21  1  0
 24 19  1  0
 25 24  1  0
 26 22  1  0
 27 24  2  0
M  END
$$$$
