FCE.pdb
     RDKit          3D

 27 27  0  0  1  0  0  0  0  0999 V2000
    6.5907  -16.5319   25.6948 N   0  0  0  0  0  0  0  0  0  0  0  0
    7.2593  -15.5676   24.8811 C   0  0  1  0  0  0  0  0  0  0  0  0
    8.1718  -14.7154   25.7761 C   0  0  0  0  0  0  0  0  0  0  0  0
    7.3274  -13.6077   26.2974 C   0  0  0  0  0  0  0  0  0  0  0  0
    7.6002  -13.0508   27.5439 C   0  0  0  0  0  0  0  0  0  0  0  0
    6.8282  -12.0216   28.0325 C   0  0  0  0  0  0  0  0  0  0  0  0
    5.7651  -11.5010   27.3226 C   0  0  0  0  0  0  0  0  0  0  0  0
    5.4820  -12.0392   26.0901 C   0  0  0  0  0  0  0  0  0  0  0  0
    6.2668  -13.0822   25.5986 C   0  0  0  0  0  0  0  0  0  0  0  0
    7.9879  -16.2301   23.7933 C   0  0  0  0  0  0  0  0  0  0  0  0
    8.3760  -17.4221   23.9074 O   0  0  0  0  0  0  0  0  0  0  0  0
    8.2892  -15.5858   22.5895 N   0  0  0  0  0  0  0  0  0  0  0  0
    9.1545  -16.1157   21.5629 C   0  0  1  0  0  0  0  0  0  0  0  0
    9.0479  -15.4699   20.2342 C   0  0  0  0  0  0  0  0  0  0  0  0
    7.3636  -15.3764   19.5876 S   0  0  0  0  0  0  0  0  0  0  0  0
   10.5604  -15.9251   22.0625 C   0  0  0  0  0  0  0  0  0  0  0  0
   11.0624  -14.7560   22.1929 O   0  0  0  0  0  0  0  0  0  0  0  0
   11.4128  -16.9938   22.4221 N   0  0  0  0  0  0  0  0  0  0  0  0
   12.6543  -16.7448   23.1836 C   0  0  1  0  0  0  0  0  0  0  0  0
   12.3913  -16.9859   24.6549 C   0  0  0  0  0  0  0  0  0  0  0  0
   11.9805  -18.3839   24.9887 C   0  0  0  0  0  0  0  0  0  0  0  0
   11.8334  -18.5972   26.4530 C   0  0  0  0  0  0  0  0  0  0  0  0
   11.3780  -19.7134   26.8440 O   0  0  0  0  0  0  0  0  0  0  0  0
   13.6956  -17.5937   22.6120 C   0  0  0  0  0  0  0  0  0  0  0  0
   13.4520  -18.5933   21.6666 O   0  0  0  0  0  0  0  0  0  0  0  0
   12.1669  -17.6497   27.4165 O   0  0  0  0  0  0  0  0  0  0  0  0
   14.8894  -17.4508   22.9627 O   0  0  0  0  0  0  0  0  0  0  0  0
  2  1  1  1
  2 10  1  0
  3  2  1  0
  4  3  1  0
  5  4  2  0
  6  5  1  0
  7  8  1  0
  7  6  2  0
  8  9  2  0
  9  4  1  0
 10 11  2  0
 10 12  1  0
 12 13  1  0
 13 14  1  6
 15 14  1  0
 16 13  1  0
 16 17  2  0
 18 16  1  0
 19 18  1  0
 19 20  1  1
 21 20  1  0
 22 23  2  0
 22 21  1  0
 24 19  1  0
 25 24  1  0
 26 22  1  0
 27 24  2  0
M  END
$$$$
