FCE.pdb
     RDKit          3D

 27 27  0  0  1  0  0  0  0  0999 V2000
    6.5706  -16.6011   26.0776 N   0  0  0  0  0  0  0  0  0  0  0  0
    6.9140  -15.5012   25.2341 C   0  0  1  0  0  0  0  0  0  0  0  0
    7.9305  -14.6148   25.9699 C   0  0  0  0  0  0  0  0  0  0  0  0
    7.2174  -13.3537   26.3057 C   0  0  0  0  0  0  0  0  0  0  0  0
    7.0710  -12.9688   27.6356 C   0  0  0  0  0  0  0  0  0  0  0  0
    6.4179  -11.8006   27.9563 C   0  0  0  0  0  0  0  0  0  0  0  0
    5.8859  -10.9690   26.9916 C   0  0  0  0  0  0  0  0  0  0  0  0
    6.0216  -11.3339   25.6735 C   0  0  0  0  0  0  0  0  0  0  0  0
    6.6842  -12.5187   25.3529 C   0  0  0  0  0  0  0  0  0  0  0  0
    7.4109  -15.9819   23.9399 C   0  0  0  0  0  0  0  0  0  0  0  0
    7.8422  -17.1572   23.8093 O   0  0  0  0  0  0  0  0  0  0  0  0
    7.4350  -15.1754   22.7980 N   0  0  0  0  0  0  0  0  0  0  0  0
    7.9473  -15.5808   21.5109 C   0  0  1  0  0  0  0  0  0  0  0  0
    7.7198  -14.6297   20.3985 C   0  0  0  0  0  0  0  0  0  0  0  0
    8.4574  -15.1341   18.8284 S   0  0  0  0  0  0  0  0  0  0  0  0
    9.4321  -15.7468   21.6861 C   0  0  0  0  0  0  0  0  0  0  0  0
   10.1304  -14.8572   22.2833 O   0  0  0  0  0  0  0  0  0  0  0  0
   10.1522  -16.8708   21.2213 N   0  0  0  0  0  0  0  0  0  0  0  0
   11.6125  -16.9674   21.4243 C   0  0  1  0  0  0  0  0  0  0  0  0
   11.8976  -17.9932   22.5007 C   0  0  0  0  0  0  0  0  0  0  0  0
   11.8815  -17.4494   23.8930 C   0  0  0  0  0  0  0  0  0  0  0  0
   12.1695  -18.4930   24.9124 C   0  0  0  0  0  0  0  0  0  0  0  0
   12.3019  -19.6883   24.5123 O   0  0  0  0  0  0  0  0  0  0  0  0
   12.2149  -17.2714   20.1295 C   0  0  0  0  0  0  0  0  0  0  0  0
   13.0900  -16.4136   19.4582 O   0  0  0  0  0  0  0  0  0  0  0  0
   12.3046  -18.2371   26.2738 O   0  0  0  0  0  0  0  0  0  0  0  0
   11.9581  -18.3529   19.5524 O   0  0  0  0  0  0  0  0  0  0  0  0
  2  1  1  1
  2 10  1  0
  3  2  1  0
  4  3  1  0
  5  4  2  0
  6  5  1  0
  7  8  1  0
  7  6  2  0
  8  9  2  0
  9  4  1  0
 10 11  2  0
 10 12  1  0
 12 13  1  0
 13 14  1  6
 15 14  1  0
 16 13  1  0
 16 17  2  0
 18 16  1  0
 19 18  1  0
 19 20  1  1
 21 20  1  0
 22 23  2  0
 22 21  1  0
 24 19  1  0
 25 24  1  0
 26 22  1  0
 27 24  2  0
M  END
$$$$
