FCE.pdb
     RDKit          3D

 27 27  0  0  1  0  0  0  0  0999 V2000
    6.4989  -16.6457   25.8662 N   0  0  0  0  0  0  0  0  0  0  0  0
    7.1346  -15.7505   24.9530 C   0  0  1  0  0  0  0  0  0  0  0  0
    8.1919  -14.9376   25.7154 C   0  0  0  0  0  0  0  0  0  0  0  0
    7.4729  -13.7885   26.3270 C   0  0  0  0  0  0  0  0  0  0  0  0
    7.4062  -13.6656   27.7122 C   0  0  0  0  0  0  0  0  0  0  0  0
    6.7481  -12.6027   28.2877 C   0  0  0  0  0  0  0  0  0  0  0  0
    6.1333  -11.6245   27.5324 C   0  0  0  0  0  0  0  0  0  0  0  0
    6.1896  -11.7305   26.1633 C   0  0  0  0  0  0  0  0  0  0  0  0
    6.8575  -12.8093   25.5841 C   0  0  0  0  0  0  0  0  0  0  0  0
    7.6961  -16.4893   23.8164 C   0  0  0  0  0  0  0  0  0  0  0  0
    7.7137  -17.7480   23.8089 O   0  0  0  0  0  0  0  0  0  0  0  0
    8.2361  -15.8487   22.6970 N   0  0  0  0  0  0  0  0  0  0  0  0
    8.5199  -16.4895   21.4352 C   0  0  1  0  0  0  0  0  0  0  0  0
    7.7476  -15.9934   20.2729 C   0  0  0  0  0  0  0  0  0  0  0  0
    6.1289  -15.3108   20.6943 S   0  0  0  0  0  0  0  0  0  0  0  0
    9.9793  -16.2475   21.1630 C   0  0  0  0  0  0  0  0  0  0  0  0
   10.3705  -15.2010   20.5405 O   0  0  0  0  0  0  0  0  0  0  0  0
   11.0059  -17.1312   21.5669 N   0  0  0  0  0  0  0  0  0  0  0  0
   12.3908  -16.9488   21.0851 C   0  0  1  0  0  0  0  0  0  0  0  0
   13.3252  -16.8789   22.2742 C   0  0  0  0  0  0  0  0  0  0  0  0
   13.0333  -15.7632   23.2253 C   0  0  0  0  0  0  0  0  0  0  0  0
   14.0091  -15.7037   24.3458 C   0  0  0  0  0  0  0  0  0  0  0  0
   13.8172  -16.4701   25.3369 O   0  0  0  0  0  0  0  0  0  0  0  0
   12.6784  -18.0393   20.1578 C   0  0  0  0  0  0  0  0  0  0  0  0
   11.8131  -19.1117   19.9263 O   0  0  0  0  0  0  0  0  0  0  0  0
   15.1176  -14.8624   24.3709 O   0  0  0  0  0  0  0  0  0  0  0  0
   13.7519  -18.0528   19.5130 O   0  0  0  0  0  0  0  0  0  0  0  0
  2  1  1  1
  2 10  1  0
  3  2  1  0
  4  3  1  0
  5  4  2  0
  6  5  1  0
  7  8  1  0
  7  6  2  0
  8  9  2  0
  9  4  1  0
 10 11  2  0
 10 12  1  0
 12 13  1  0
 13 14  1  6
 15 14  1  0
 16 13  1  0
 16 17  2  0
 18 16  1  0
 19 18  1  0
 19 20  1  1
 21 20  1  0
 22 23  2  0
 22 21  1  0
 24 19  1  0
 25 24  1  0
 26 22  1  0
 27 24  2  0
M  END
$$$$
