FCE.pdb
     RDKit          3D

 27 27  0  0  1  0  0  0  0  0999 V2000
    6.0460  -18.1754   25.6673 N   0  0  0  0  0  0  0  0  0  0  0  0
    6.5648  -16.8496   25.5570 C   0  0  1  0  0  0  0  0  0  0  0  0
    7.0965  -16.4126   26.9305 C   0  0  0  0  0  0  0  0  0  0  0  0
    7.2712  -14.9375   26.8597 C   0  0  0  0  0  0  0  0  0  0  0  0
    6.1576  -14.1021   26.8789 C   0  0  0  0  0  0  0  0  0  0  0  0
    6.3092  -12.7355   26.8197 C   0  0  0  0  0  0  0  0  0  0  0  0
    7.5508  -12.1379   26.7398 C   0  0  0  0  0  0  0  0  0  0  0  0
    8.6609  -12.9480   26.7197 C   0  0  0  0  0  0  0  0  0  0  0  0
    8.5028  -14.3325   26.7799 C   0  0  0  0  0  0  0  0  0  0  0  0
    7.5856  -16.7834   24.5050 C   0  0  0  0  0  0  0  0  0  0  0  0
    8.4868  -17.6585   24.4229 O   0  0  0  0  0  0  0  0  0  0  0  0
    7.6163  -15.7614   23.5513 N   0  0  0  0  0  0  0  0  0  0  0  0
    8.5564  -15.6785   22.4592 C   0  0  1  0  0  0  0  0  0  0  0  0
    8.3261  -14.5796   21.4932 C   0  0  0  0  0  0  0  0  0  0  0  0
    6.6893  -14.5943   20.7288 S   0  0  0  0  0  0  0  0  0  0  0  0
    9.9079  -15.4723   23.0864 C   0  0  0  0  0  0  0  0  0  0  0  0
   10.1269  -14.4904   23.8762 O   0  0  0  0  0  0  0  0  0  0  0  0
   11.0112  -16.3271   22.8624 N   0  0  0  0  0  0  0  0  0  0  0  0
   12.2985  -16.0922   23.5485 C   0  0  1  0  0  0  0  0  0  0  0  0
   12.6775  -17.3315   24.3312 C   0  0  0  0  0  0  0  0  0  0  0  0
   11.7950  -17.6163   25.5036 C   0  0  0  0  0  0  0  0  0  0  0  0
   12.2379  -18.8118   26.2692 C   0  0  0  0  0  0  0  0  0  0  0  0
   13.1251  -19.5514   25.7474 O   0  0  0  0  0  0  0  0  0  0  0  0
   13.2712  -15.7026   22.5317 C   0  0  0  0  0  0  0  0  0  0  0  0
   14.5163  -15.1387   22.8221 O   0  0  0  0  0  0  0  0  0  0  0  0
   11.7409  -19.1647   27.5204 O   0  0  0  0  0  0  0  0  0  0  0  0
   13.0139  -15.8656   21.3169 O   0  0  0  0  0  0  0  0  0  0  0  0
  2  1  1  1
  2 10  1  0
  3  2  1  0
  4  3  1  0
  5  4  2  0
  6  5  1  0
  7  8  1  0
  7  6  2  0
  8  9  2  0
  9  4  1  0
 10 11  2  0
 10 12  1  0
 12 13  1  0
 13 14  1  6
 15 14  1  0
 16 13  1  0
 16 17  2  0
 18 16  1  0
 19 18  1  0
 19 20  1  6
 21 20  1  0
 22 23  2  0
 22 21  1  0
 24 19  1  0
 25 24  1  0
 26 22  1  0
 27 24  2  0
M  END
$$$$
