FCE.pdb
     RDKit          3D

 27 27  0  0  1  0  0  0  0  0999 V2000
    5.9551  -18.0119   25.7735 N   0  0  0  0  0  0  0  0  0  0  0  0
    6.2919  -16.6416   25.5542 C   0  0  1  0  0  0  0  0  0  0  0  0
    6.8272  -16.0497   26.8669 C   0  0  0  0  0  0  0  0  0  0  0  0
    6.6316  -14.5785   26.7710 C   0  0  0  0  0  0  0  0  0  0  0  0
    5.3466  -14.0434   26.7944 C   0  0  0  0  0  0  0  0  0  0  0  0
    5.1555  -12.6829   26.7120 C   0  0  0  0  0  0  0  0  0  0  0  0
    6.2103  -11.7992   26.6042 C   0  0  0  0  0  0  0  0  0  0  0  0
    7.4856  -12.3107   26.5796 C   0  0  0  0  0  0  0  0  0  0  0  0
    7.6749  -13.6901   26.6633 C   0  0  0  0  0  0  0  0  0  0  0  0
    7.2442  -16.5179   24.4448 C   0  0  0  0  0  0  0  0  0  0  0  0
    8.2273  -17.2980   24.3469 O   0  0  0  0  0  0  0  0  0  0  0  0
    7.1174  -15.5423   23.4513 N   0  0  0  0  0  0  0  0  0  0  0  0
    7.9870  -15.4107   22.3068 C   0  0  1  0  0  0  0  0  0  0  0  0
    7.7718  -14.2083   21.4693 C   0  0  0  0  0  0  0  0  0  0  0  0
    8.8887  -14.0794   20.0552 S   0  0  0  0  0  0  0  0  0  0  0  0
    9.3881  -15.3551   22.8513 C   0  0  0  0  0  0  0  0  0  0  0  0
    9.7372  -14.4509   23.6857 O   0  0  0  0  0  0  0  0  0  0  0  0
   10.4005  -16.2757   22.4969 N   0  0  0  0  0  0  0  0  0  0  0  0
   11.7863  -16.0941   22.9763 C   0  0  1  0  0  0  0  0  0  0  0  0
   12.1657  -17.2670   23.8550 C   0  0  0  0  0  0  0  0  0  0  0  0
   11.4502  -17.3140   25.1667 C   0  0  0  0  0  0  0  0  0  0  0  0
   11.8041  -18.5193   25.9625 C   0  0  0  0  0  0  0  0  0  0  0  0
   12.3745  -18.3419   27.0804 O   0  0  0  0  0  0  0  0  0  0  0  0
   12.6364  -15.9232   21.8016 C   0  0  0  0  0  0  0  0  0  0  0  0
   13.9581  -15.4733   21.8570 O   0  0  0  0  0  0  0  0  0  0  0  0
   11.5454  -19.8253   25.5568 O   0  0  0  0  0  0  0  0  0  0  0  0
   12.1939  -16.1832   20.6592 O   0  0  0  0  0  0  0  0  0  0  0  0
  2  1  1  1
  2 10  1  0
  3  2  1  0
  4  3  1  0
  5  4  2  0
  6  5  1  0
  7  8  1  0
  7  6  2  0
  8  9  2  0
  9  4  1  0
 10 11  2  0
 10 12  1  0
 12 13  1  0
 13 14  1  1
 15 14  1  0
 16 13  1  0
 16 17  2  0
 18 16  1  0
 19 18  1  0
 19 20  1  6
 21 20  1  0
 22 23  2  0
 22 21  1  0
 24 19  1  0
 25 24  1  0
 26 22  1  0
 27 24  2  0
M  END
$$$$
