ATG.pdb
     RDKit          3D

 17 16  0  0  1  0  0  0  0  0999 V2000
    8.6041  -17.7040   15.9096 C   0  0  0  0  0  0  0  0  0  0  0  0
    8.6505  -16.2097   15.7890 C   0  0  2  0  0  0  0  0  0  0  0  0
    9.2678  -15.8905   14.5159 N   0  0  0  0  0  0  0  0  0  0  0  0
    9.3224  -15.5493   16.9084 C   0  0  0  0  0  0  0  0  0  0  0  0
   10.5297  -15.2706   16.8609 O   0  0  0  0  0  0  0  0  0  0  0  0
    7.9298  -12.4684   18.7928 C   0  0  0  0  0  0  0  0  0  0  0  0
    8.3182  -13.5010   19.8297 C   0  0  1  0  0  0  0  0  0  0  0  0
    7.1193  -14.0226   20.3362 O   0  0  0  0  0  0  0  0  0  0  0  0
    9.1294  -14.6190   19.2518 C   0  0  2  0  0  0  0  0  0  0  0  0
    8.6082  -15.2139   18.0713 N   0  0  0  0  0  0  0  0  0  0  0  0
    9.4937  -15.6405   20.2679 C   0  0  0  0  0  0  0  0  0  0  0  0
    8.7647  -16.6292   20.5339 O   0  0  0  0  0  0  0  0  0  0  0  0
   10.7132  -15.5246   20.9890 N   0  0  0  0  0  0  0  0  0  0  0  0
   11.0665  -16.4123   22.0766 C   0  0  0  0  0  0  0  0  0  0  0  0
   12.3949  -16.1082   22.6401 C   0  0  0  0  0  0  0  0  0  0  0  0
   13.1747  -15.3775   21.9789 O   0  0  0  0  0  0  0  0  0  0  0  0
   12.8145  -16.5895   23.8549 O   0  0  0  0  0  0  0  0  0  0  0  0
  2  1  1  1
  2  4  1  0
  2  3  1  0
  4  5  2  0
  7  6  1  6
  8  7  1  0
  9  7  1  0
 10  4  1  0
  9 10  1  6
 11 12  2  0
 11  9  1  0
 13 11  1  0
 14 13  1  0
 14 15  1  0
 15 17  1  0
 16 15  2  0
M  END
$$$$
