ATG.pdb
     RDKit          3D

 17 16  0  0  1  0  0  0  0  0999 V2000
   -3.5088  -27.6176   33.0862 C   0  0  0  0  0  0  0  0  0  0  0  0
   -2.5236  -27.2413   32.0197 C   0  0  2  0  0  0  0  0  0  0  0  0
   -1.2079  -27.2065   32.6293 N   0  0  0  0  0  0  0  0  0  0  0  0
   -2.8470  -25.9897   31.3346 C   0  0  0  0  0  0  0  0  0  0  0  0
   -2.4768  -24.8952   31.7845 O   0  0  0  0  0  0  0  0  0  0  0  0
   -4.0621  -23.5503   27.2832 C   0  0  0  0  0  0  0  0  0  0  0  0
   -3.7224  -24.8666   27.9498 C   0  0  1  0  0  0  0  0  0  0  0  0
   -2.3407  -25.0447   27.7914 O   0  0  0  0  0  0  0  0  0  0  0  0
   -4.0491  -24.8721   29.4110 C   0  0  2  0  0  0  0  0  0  0  0  0
   -3.5904  -26.0010   30.1420 N   0  0  0  0  0  0  0  0  0  0  0  0
   -5.4853  -24.5937   29.6729 C   0  0  0  0  0  0  0  0  0  0  0  0
   -6.3798  -25.4712   29.5750 O   0  0  0  0  0  0  0  0  0  0  0  0
   -5.9000  -23.2882   30.0529 N   0  0  0  0  0  0  0  0  0  0  0  0
   -7.2882  -22.9410   30.2718 C   0  0  0  0  0  0  0  0  0  0  0  0
   -7.4553  -21.5397   30.7000 C   0  0  0  0  0  0  0  0  0  0  0  0
   -6.4316  -20.8808   31.0111 O   0  0  0  0  0  0  0  0  0  0  0  0
   -8.6808  -20.9262   30.7727 O   0  0  0  0  0  0  0  0  0  0  0  0
  2  1  1  1
  2  4  1  0
  2  3  1  0
  4  5  2  0
  7  6  1  1
  8  7  1  0
  9  7  1  0
 10  4  1  0
  9 10  1  6
 11 12  2  0
 11  9  1  0
 13 11  1  0
 14 13  1  0
 14 15  1  0
 15 17  1  0
 16 15  2  0
M  END
$$$$
