ATG.pdb
     RDKit          3D

 17 16  0  0  1  0  0  0  0  0999 V2000
    9.0497  -11.8149   19.1021 C   0  0  0  0  0  0  0  0  0  0  0  0
    8.5512  -13.2100   18.8680 C   0  0  2  0  0  0  0  0  0  0  0  0
    7.1280  -13.1290   18.6003 N   0  0  0  0  0  0  0  0  0  0  0  0
    8.8549  -14.1347   19.9604 C   0  0  0  0  0  0  0  0  0  0  0  0
    8.0823  -14.2734   20.9202 O   0  0  0  0  0  0  0  0  0  0  0  0
    8.8924  -17.5860   20.0104 C   0  0  0  0  0  0  0  0  0  0  0  0
   10.2845  -17.2828   20.5227 C   0  0  1  0  0  0  0  0  0  0  0  0
   11.1650  -17.5766   19.4718 O   0  0  0  0  0  0  0  0  0  0  0  0
   10.4538  -15.8470   20.9122 C   0  0  2  0  0  0  0  0  0  0  0  0
   10.0387  -14.8920   19.9453 N   0  0  0  0  0  0  0  0  0  0  0  0
   11.8180  -15.5544   21.4240 C   0  0  0  0  0  0  0  0  0  0  0  0
   12.6035  -14.7546   20.8556 O   0  0  0  0  0  0  0  0  0  0  0  0
   12.2867  -16.1897   22.6060 N   0  0  0  0  0  0  0  0  0  0  0  0
   13.5838  -15.9082   23.1839 C   0  0  0  0  0  0  0  0  0  0  0  0
   13.8116  -16.6484   24.4389 C   0  0  0  0  0  0  0  0  0  0  0  0
   14.9344  -16.5556   24.9954 O   0  0  0  0  0  0  0  0  0  0  0  0
   12.8495  -17.4333   25.0236 O   0  0  0  0  0  0  0  0  0  0  0  0
  2  1  1  1
  2  4  1  0
  2  3  1  0
  4  5  2  0
  7  6  1  6
  8  7  1  0
  9  7  1  0
 10  4  1  0
  9 10  1  6
 11 12  2  0
 11  9  1  0
 13 11  1  0
 14 13  1  0
 14 15  1  0
 15 17  1  0
 16 15  2  0
M  END
$$$$
