ATG.pdb
     RDKit          3D

 17 16  0  0  1  0  0  0  0  0999 V2000
   -0.3082  -25.6062   24.2557 C   0  0  0  0  0  0  0  0  0  0  0  0
    0.5167  -24.3537   24.2733 C   0  0  2  0  0  0  0  0  0  0  0  0
    0.3905  -23.7628   25.5918 N   0  0  0  0  0  0  0  0  0  0  0  0
    0.1743  -23.4083   23.2104 C   0  0  0  0  0  0  0  0  0  0  0  0
    0.2789  -23.7185   22.0145 O   0  0  0  0  0  0  0  0  0  0  0  0
   -3.1661  -21.6906   22.6085 C   0  0  0  0  0  0  0  0  0  0  0  0
   -2.1198  -20.6176   22.8236 C   0  0  1  0  0  0  0  0  0  0  0  0
   -2.2538  -20.1962   24.1541 O   0  0  0  0  0  0  0  0  0  0  0  0
   -0.7264  -21.1227   22.6113 C   0  0  2  0  0  0  0  0  0  0  0  0
   -0.2844  -22.1176   23.5245 N   0  0  0  0  0  0  0  0  0  0  0  0
    0.2625  -20.0215   22.4766 C   0  0  0  0  0  0  0  0  0  0  0  0
    0.2100  -19.1652   21.5581 O   0  0  0  0  0  0  0  0  0  0  0  0
    1.3273  -19.9021   23.4108 N   0  0  0  0  0  0  0  0  0  0  0  0
    2.3581  -18.8921   23.2973 C   0  0  0  0  0  0  0  0  0  0  0  0
    3.6638  -19.4631   22.9180 C   0  0  0  0  0  0  0  0  0  0  0  0
    3.7222  -20.6826   22.6203 O   0  0  0  0  0  0  0  0  0  0  0  0
    4.8163  -18.7190   22.8767 O   0  0  0  0  0  0  0  0  0  0  0  0
  2  1  1  1
  2  4  1  0
  2  3  1  0
  4  5  2  0
  7  6  1  1
  8  7  1  0
  9  7  1  0
 10  4  1  0
  9 10  1  1
 11 12  2  0
 11  9  1  0
 13 11  1  0
 14 13  1  0
 14 15  1  0
 15 17  1  0
 16 15  2  0
M  END
$$$$
