ATG.pdb
     RDKit          3D

 17 16  0  0  1  0  0  0  0  0999 V2000
   -2.7718  -26.2563   28.1389 C   0  0  0  0  0  0  0  0  0  0  0  0
   -3.6620  -26.2602   26.9317 C   0  0  2  0  0  0  0  0  0  0  0  0
   -2.8176  -26.4222   25.7636 N   0  0  0  0  0  0  0  0  0  0  0  0
   -4.5222  -25.0810   26.8309 C   0  0  0  0  0  0  0  0  0  0  0  0
   -4.1189  -24.0328   26.3053 O   0  0  0  0  0  0  0  0  0  0  0  0
   -7.6683  -24.9716   25.0407 C   0  0  0  0  0  0  0  0  0  0  0  0
   -8.0232  -24.4264   26.4078 C   0  0  1  0  0  0  0  0  0  0  0  0
   -8.7439  -25.4362   27.0610 O   0  0  0  0  0  0  0  0  0  0  0  0
   -6.8140  -24.0868   27.2230 C   0  0  2  0  0  0  0  0  0  0  0  0
   -5.8350  -25.1110   27.3315 N   0  0  0  0  0  0  0  0  0  0  0  0
   -7.1652  -23.5187   28.5506 C   0  0  0  0  0  0  0  0  0  0  0  0
   -7.1429  -24.1945   29.6100 O   0  0  0  0  0  0  0  0  0  0  0  0
   -7.5477  -22.1542   28.6628 N   0  0  0  0  0  0  0  0  0  0  0  0
   -7.8020  -21.5151   29.9365 C   0  0  0  0  0  0  0  0  0  0  0  0
   -9.0668  -21.9645   30.5472 C   0  0  0  0  0  0  0  0  0  0  0  0
   -9.7844  -22.7776   29.9124 O   0  0  0  0  0  0  0  0  0  0  0  0
   -9.4923  -21.5321   31.7783 O   0  0  0  0  0  0  0  0  0  0  0  0
  2  1  1  1
  2  4  1  0
  2  3  1  0
  4  5  2  0
  7  6  1  6
  8  7  1  0
  9  7  1  0
 10  4  1  0
  9 10  1  1
 11 12  2  0
 11  9  1  0
 13 11  1  0
 14 13  1  0
 14 15  1  0
 15 17  1  0
 16 15  2  0
M  END
$$$$
