ATG.pdb
     RDKit          3D

 17 16  0  0  1  0  0  0  0  0999 V2000
    8.0310  -17.9676   16.6592 C   0  0  0  0  0  0  0  0  0  0  0  0
    7.7991  -16.4871   16.5964 C   0  0  2  0  0  0  0  0  0  0  0  0
    8.0250  -16.0646   15.2274 N   0  0  0  0  0  0  0  0  0  0  0  0
    8.6056  -15.7240   17.5491 C   0  0  0  0  0  0  0  0  0  0  0  0
    9.6268  -15.1197   17.1894 O   0  0  0  0  0  0  0  0  0  0  0  0
    7.5825  -12.8453   19.3418 C   0  0  0  0  0  0  0  0  0  0  0  0
    8.1088  -13.7337   20.4490 C   0  0  1  0  0  0  0  0  0  0  0  0
    6.9868  -14.1978   21.1502 O   0  0  0  0  0  0  0  0  0  0  0  0
    8.8766  -14.9085   19.9274 C   0  0  2  0  0  0  0  0  0  0  0  0
    8.2373  -15.6588   18.9038 N   0  0  0  0  0  0  0  0  0  0  0  0
    9.3840  -15.7840   21.0158 C   0  0  0  0  0  0  0  0  0  0  0  0
    8.7048  -16.7164   21.5147 O   0  0  0  0  0  0  0  0  0  0  0  0
   10.6908  -15.5855   21.5389 N   0  0  0  0  0  0  0  0  0  0  0  0
   11.3008  -16.4944   22.4863 C   0  0  0  0  0  0  0  0  0  0  0  0
   12.5837  -15.9855   23.0057 C   0  0  0  0  0  0  0  0  0  0  0  0
   13.0732  -14.9505   22.4877 O   0  0  0  0  0  0  0  0  0  0  0  0
   13.2645  -16.5946   24.0300 O   0  0  0  0  0  0  0  0  0  0  0  0
  2  1  1  6
  2  4  1  0
  2  3  1  0
  4  5  2  0
  7  6  1  6
  8  7  1  0
  9  7  1  0
 10  4  1  0
  9 10  1  6
 11 12  2  0
 11  9  1  0
 13 11  1  0
 14 13  1  0
 14 15  1  0
 15 17  1  0
 16 15  2  0
M  END
$$$$
