ATG.pdb
     RDKit          3D

 17 16  0  0  1  0  0  0  0  0999 V2000
    7.3918  -18.5954   17.5010 C   0  0  0  0  0  0  0  0  0  0  0  0
    7.4558  -17.1384   17.1504 C   0  0  2  0  0  0  0  0  0  0  0  0
    7.8335  -17.0387   15.7536 N   0  0  0  0  0  0  0  0  0  0  0  0
    8.3423  -16.3626   18.0180 C   0  0  0  0  0  0  0  0  0  0  0  0
    9.5024  -16.0904   17.6751 O   0  0  0  0  0  0  0  0  0  0  0  0
    7.5293  -12.9908   19.4018 C   0  0  0  0  0  0  0  0  0  0  0  0
    7.9595  -13.8194   20.5938 C   0  0  1  0  0  0  0  0  0  0  0  0
    6.7926  -14.1101   21.3147 O   0  0  0  0  0  0  0  0  0  0  0  0
    8.6169  -15.1038   20.1939 C   0  0  2  0  0  0  0  0  0  0  0  0
    7.8946  -15.9053   19.2693 N   0  0  0  0  0  0  0  0  0  0  0  0
    9.0776  -15.8946   21.3649 C   0  0  0  0  0  0  0  0  0  0  0  0
    8.3381  -16.7095   21.9720 O   0  0  0  0  0  0  0  0  0  0  0  0
   10.4072  -15.7470   21.8453 N   0  0  0  0  0  0  0  0  0  0  0  0
   10.9150  -16.4859   22.9819 C   0  0  0  0  0  0  0  0  0  0  0  0
   12.3020  -16.1147   23.3183 C   0  0  0  0  0  0  0  0  0  0  0  0
   12.9496  -15.4105   22.5035 O   0  0  0  0  0  0  0  0  0  0  0  0
   12.9142  -16.5059   24.4826 O   0  0  0  0  0  0  0  0  0  0  0  0
  2  1  1  1
  2  4  1  0
  2  3  1  0
  4  5  2  0
  7  6  1  6
  8  7  1  0
  9  7  1  0
 10  4  1  0
  9 10  1  1
 11 12  2  0
 11  9  1  0
 13 11  1  0
 14 13  1  0
 14 15  1  0
 15 17  1  0
 16 15  2  0
M  END
$$$$
