ATG.pdb
     RDKit          3D

 17 16  0  0  1  0  0  0  0  0999 V2000
    7.2343  -19.3528   24.0784 C   0  0  0  0  0  0  0  0  0  0  0  0
    6.5897  -18.8671   22.8142 C   0  0  2  0  0  0  0  0  0  0  0  0
    5.8731  -19.9841   22.2290 N   0  0  0  0  0  0  0  0  0  0  0  0
    7.5283  -18.2591   21.8708 C   0  0  0  0  0  0  0  0  0  0  0  0
    8.1539  -18.9475   21.0510 O   0  0  0  0  0  0  0  0  0  0  0  0
    6.6762  -15.3686   19.5528 C   0  0  0  0  0  0  0  0  0  0  0  0
    7.9327  -14.9737   20.2995 C   0  0  1  0  0  0  0  0  0  0  0  0
    7.5413  -14.0306   21.2604 O   0  0  0  0  0  0  0  0  0  0  0  0
    8.5788  -16.1337   20.9914 C   0  0  2  0  0  0  0  0  0  0  0  0
    7.7429  -16.8702   21.8734 N   0  0  0  0  0  0  0  0  0  0  0  0
    9.8675  -15.7658   21.6338 C   0  0  0  0  0  0  0  0  0  0  0  0
   10.8322  -15.2733   20.9962 O   0  0  0  0  0  0  0  0  0  0  0  0
   10.0507  -15.9665   23.0291 N   0  0  0  0  0  0  0  0  0  0  0  0
   11.2421  -15.5387   23.7314 C   0  0  0  0  0  0  0  0  0  0  0  0
   12.2370  -16.6196   23.8587 C   0  0  0  0  0  0  0  0  0  0  0  0
   12.0077  -17.7168   23.2904 O   0  0  0  0  0  0  0  0  0  0  0  0
   13.4015  -16.4775   24.5709 O   0  0  0  0  0  0  0  0  0  0  0  0
  2  1  1  1
  2  4  1  0
  2  3  1  0
  4  5  2  0
  7  6  1  1
  8  7  1  0
  9  7  1  0
 10  4  1  0
  9 10  1  1
 11 12  2  0
 11  9  1  0
 13 11  1  0
 14 13  1  0
 14 15  1  0
 15 17  1  0
 16 15  2  0
M  END
$$$$
