ATG.pdb
     RDKit          3D

 17 16  0  0  1  0  0  0  0  0999 V2000
    7.7008  -20.3556   16.8885 C   0  0  0  0  0  0  0  0  0  0  0  0
    6.4310  -19.5629   16.7935 C   0  0  2  0  0  0  0  0  0  0  0  0
    6.6291  -18.5342   15.7904 N   0  0  0  0  0  0  0  0  0  0  0  0
    5.9865  -19.0078   18.0721 C   0  0  0  0  0  0  0  0  0  0  0  0
    6.1470  -17.8087   18.3441 O   0  0  0  0  0  0  0  0  0  0  0  0
    3.0680  -18.9394   21.9033 C   0  0  0  0  0  0  0  0  0  0  0  0
    3.5035  -19.6654   20.6481 C   0  0  1  0  0  0  0  0  0  0  0  0
    2.7316  -19.1419   19.6011 O   0  0  0  0  0  0  0  0  0  0  0  0
    4.9527  -19.4555   20.3360 C   0  0  2  0  0  0  0  0  0  0  0  0
    5.3629  -19.8283   19.0276 N   0  0  0  0  0  0  0  0  0  0  0  0
    5.8464  -20.0276   21.3766 C   0  0  0  0  0  0  0  0  0  0  0  0
    6.1096  -21.2543   21.4512 O   0  0  0  0  0  0  0  0  0  0  0  0
    6.4464  -19.1781   22.3456 N   0  0  0  0  0  0  0  0  0  0  0  0
    7.3238  -19.6740   23.3848 C   0  0  0  0  0  0  0  0  0  0  0  0
    6.5839  -20.1060   24.5850 C   0  0  0  0  0  0  0  0  0  0  0  0
    5.3414  -20.2721   24.4970 O   0  0  0  0  0  0  0  0  0  0  0  0
    7.1950  -20.3338   25.7926 O   0  0  0  0  0  0  0  0  0  0  0  0
  2  1  1  1
  2  4  1  0
  2  3  1  0
  4  5  2  0
  7  6  1  1
  8  7  1  0
  9  7  1  0
 10  4  1  0
  9 10  1  6
 11 12  2  0
 11  9  1  0
 13 11  1  0
 14 13  1  0
 14 15  1  0
 15 17  1  0
 16 15  2  0
M  END
$$$$
