ATG.pdb
     RDKit          3D

 17 16  0  0  1  0  0  0  0  0999 V2000
    7.7902  -18.0857   16.0457 C   0  0  0  0  0  0  0  0  0  0  0  0
    8.0274  -16.6207   15.8282 C   0  0  2  0  0  0  0  0  0  0  0  0
    8.6626  -16.4659   14.5335 N   0  0  0  0  0  0  0  0  0  0  0  0
    8.7947  -15.9833   16.8985 C   0  0  0  0  0  0  0  0  0  0  0  0
   10.0219  -15.8305   16.8078 O   0  0  0  0  0  0  0  0  0  0  0  0
    7.7962  -12.6470   18.3760 C   0  0  0  0  0  0  0  0  0  0  0  0
    8.0732  -13.5574   19.5537 C   0  0  1  0  0  0  0  0  0  0  0  0
    6.8269  -13.8612   20.1198 O   0  0  0  0  0  0  0  0  0  0  0  0
    8.7473  -14.8316   19.1492 C   0  0  2  0  0  0  0  0  0  0  0  0
    8.1523  -15.5268   18.0621 N   0  0  0  0  0  0  0  0  0  0  0  0
    9.0014  -15.7313   20.3045 C   0  0  0  0  0  0  0  0  0  0  0  0
    8.1688  -16.5852   20.7009 O   0  0  0  0  0  0  0  0  0  0  0  0
   10.2299  -15.6487   21.0149 N   0  0  0  0  0  0  0  0  0  0  0  0
   10.5438  -16.5071   22.1375 C   0  0  0  0  0  0  0  0  0  0  0  0
   11.8999  -16.2674   22.6651 C   0  0  0  0  0  0  0  0  0  0  0  0
   12.6709  -15.5138   22.0196 O   0  0  0  0  0  0  0  0  0  0  0  0
   12.3542  -16.8324   23.8304 O   0  0  0  0  0  0  0  0  0  0  0  0
  2  1  1  1
  2  4  1  0
  2  3  1  0
  4  5  2  0
  7  6  1  6
  8  7  1  0
  9  7  1  0
 10  4  1  0
  9 10  1  6
 11 12  2  0
 11  9  1  0
 13 11  1  0
 14 13  1  0
 14 15  1  0
 15 17  1  0
 16 15  2  0
M  END
$$$$
