ATG.pdb
     RDKit          3D

 17 16  0  0  1  0  0  0  0  0999 V2000
    2.7102  -21.5781   23.3216 C   0  0  0  0  0  0  0  0  0  0  0  0
    3.7570  -21.5469   22.2480 C   0  0  2  0  0  0  0  0  0  0  0  0
    3.7817  -22.8541   21.6201 N   0  0  0  0  0  0  0  0  0  0  0  0
    5.0786  -21.1398   22.7260 C   0  0  0  0  0  0  0  0  0  0  0  0
    5.8929  -21.9714   23.1535 O   0  0  0  0  0  0  0  0  0  0  0  0
    8.5852  -17.6373   22.8329 C   0  0  0  0  0  0  0  0  0  0  0  0
    7.2086  -18.0744   22.3789 C   0  0  1  0  0  0  0  0  0  0  0  0
    7.3372  -18.4518   21.0347 O   0  0  0  0  0  0  0  0  0  0  0  0
    6.6873  -19.2385   23.1632 C   0  0  2  0  0  0  0  0  0  0  0  0
    5.4568  -19.7864   22.7108 N   0  0  0  0  0  0  0  0  0  0  0  0
    6.6675  -18.9748   24.6257 C   0  0  0  0  0  0  0  0  0  0  0  0
    5.8150  -18.2317   25.1739 O   0  0  0  0  0  0  0  0  0  0  0  0
    7.6413  -19.5735   25.4706 N   0  0  0  0  0  0  0  0  0  0  0  0
    7.6484  -19.3926   26.9069 C   0  0  0  0  0  0  0  0  0  0  0  0
    8.7494  -20.1253   27.5593 C   0  0  0  0  0  0  0  0  0  0  0  0
    9.4743  -20.8719   26.8547 O   0  0  0  0  0  0  0  0  0  0  0  0
    9.0150  -20.0259   28.9020 O   0  0  0  0  0  0  0  0  0  0  0  0
  2  1  1  1
  2  4  1  0
  2  3  1  0
  4  5  2  0
  7  6  1  1
  8  7  1  0
  9  7  1  0
 10  4  1  0
  9 10  1  6
 11 12  2  0
 11  9  1  0
 13 11  1  0
 14 13  1  0
 14 15  1  0
 15 17  1  0
 16 15  2  0
M  END
$$$$
