DVG.pdb
     RDKit          3D

 20 19  0  0  1  0  0  0  0  0999 V2000
    7.7603  -16.6152   22.8809 N   0  0  0  0  0  0  0  0  0  0  0  0
    9.1754  -16.2103   22.7653 C   0  0  1  0  0  0  0  0  0  0  0  0
    9.3679  -15.8302   21.3216 C   0  0  0  0  0  0  0  0  0  0  0  0
    9.7213  -16.9368   20.4256 C   0  0  0  0  0  0  0  0  0  0  0  0
    9.8363  -18.1199   20.7801 O   0  0  0  0  0  0  0  0  0  0  0  0
    9.3717  -15.0096   23.6836 C   0  0  0  0  0  0  0  0  0  0  0  0
   10.4345  -14.3628   23.6372 O   0  0  0  0  0  0  0  0  0  0  0  0
    9.9498  -16.6679   19.0745 O   0  0  0  0  0  0  0  0  0  0  0  0
    7.3423  -11.6048   26.6609 C   0  0  0  0  0  0  0  0  0  0  0  0
    7.1796  -12.7484   25.6451 C   0  0  2  0  0  0  0  0  0  0  0  0
    6.0053  -13.5490   26.1402 C   0  0  0  0  0  0  0  0  0  0  0  0
    8.4145  -13.6155   25.5861 C   0  0  2  0  0  0  0  0  0  0  0  0
    8.3686  -14.6328   24.5735 N   0  0  0  0  0  0  0  0  0  0  0  0
    8.6975  -14.2479   26.8460 C   0  0  0  0  0  0  0  0  0  0  0  0
    8.0755  -15.3197   27.1643 O   0  0  0  0  0  0  0  0  0  0  0  0
    9.6332  -13.7770   27.7843 N   0  0  0  0  0  0  0  0  0  0  0  0
    9.7986  -14.4092   29.0956 C   0  0  0  0  0  0  0  0  0  0  0  0
   10.7076  -15.5728   28.9933 C   0  0  0  0  0  0  0  0  0  0  0  0
   11.0228  -16.3162   30.1101 O   0  0  0  0  0  0  0  0  0  0  0  0
   11.2020  -15.8967   27.8911 O   0  0  0  0  0  0  0  0  0  0  0  0
  2  3  1  0
  2  1  1  6
  4  8  1  0
  4  3  1  0
  5  4  2  0
  6  2  1  0
  7  6  2  0
 10 11  1  1
 10 12  1  0
 10  9  1  0
 12 13  1  6
 13  6  1  0
 14 12  1  0
 14 15  2  0
 16 14  1  0
 17 16  1  0
 17 18  1  0
 18 19  1  0
 20 18  2  0
M  END
$$$$
