DVG.pdb
     RDKit          3D

 20 19  0  0  1  0  0  0  0  0999 V2000
    8.7903  -15.2875   21.3945 N   0  0  0  0  0  0  0  0  0  0  0  0
    7.8514  -15.4652   22.5201 C   0  0  1  0  0  0  0  0  0  0  0  0
    7.7150  -16.9537   22.6983 C   0  0  0  0  0  0  0  0  0  0  0  0
    7.2129  -17.6800   21.5268 C   0  0  0  0  0  0  0  0  0  0  0  0
    7.9270  -18.2992   20.7234 O   0  0  0  0  0  0  0  0  0  0  0  0
    8.4936  -14.8190   23.7422 C   0  0  0  0  0  0  0  0  0  0  0  0
    9.7340  -14.7621   23.8316 O   0  0  0  0  0  0  0  0  0  0  0  0
    5.8394  -17.6918   21.2744 O   0  0  0  0  0  0  0  0  0  0  0  0
    5.7562  -13.1592   26.6970 C   0  0  0  0  0  0  0  0  0  0  0  0
    7.1557  -12.5714   26.4482 C   0  0  2  0  0  0  0  0  0  0  0  0
    6.9570  -11.5188   25.3910 C   0  0  0  0  0  0  0  0  0  0  0  0
    8.1196  -13.6261   25.9595 C   0  0  2  0  0  0  0  0  0  0  0  0
    7.6999  -14.2924   24.7585 N   0  0  0  0  0  0  0  0  0  0  0  0
    8.3867  -14.6255   26.9580 C   0  0  0  0  0  0  0  0  0  0  0  0
    8.8548  -14.2687   28.0941 O   0  0  0  0  0  0  0  0  0  0  0  0
    8.1647  -16.0038   26.7887 N   0  0  0  0  0  0  0  0  0  0  0  0
    8.3308  -16.9549   27.8908 C   0  0  0  0  0  0  0  0  0  0  0  0
    9.6906  -17.5388   27.8640 C   0  0  0  0  0  0  0  0  0  0  0  0
   10.0908  -18.4279   28.8380 O   0  0  0  0  0  0  0  0  0  0  0  0
   10.4948  -17.2327   26.9564 O   0  0  0  0  0  0  0  0  0  0  0  0
  2  3  1  0
  2  1  1  6
  4  8  1  0
  4  3  1  0
  5  4  2  0
  6  2  1  0
  7  6  2  0
 10 11  1  6
 10 12  1  0
 10  9  1  0
 12 13  1  6
 13  6  1  0
 14 12  1  0
 14 15  2  0
 16 14  1  0
 17 16  1  0
 17 18  1  0
 18 19  1  0
 20 18  2  0
M  END
$$$$
