DVG.pdb
     RDKit          3D

 20 19  0  0  1  0  0  0  0  0999 V2000
    6.8293  -18.9784   17.7731 N   0  0  0  0  0  0  0  0  0  0  0  0
    6.3895  -18.1939   18.9440 C   0  0  1  0  0  0  0  0  0  0  0  0
    6.1377  -19.2030   20.0321 C   0  0  0  0  0  0  0  0  0  0  0  0
    4.9146  -19.9980   19.8765 C   0  0  0  0  0  0  0  0  0  0  0  0
    4.4006  -20.2924   18.7865 O   0  0  0  0  0  0  0  0  0  0  0  0
    7.5371  -17.2602   19.3113 C   0  0  0  0  0  0  0  0  0  0  0  0
    8.7138  -17.6322   19.1467 O   0  0  0  0  0  0  0  0  0  0  0  0
    4.2628  -20.4689   21.0182 O   0  0  0  0  0  0  0  0  0  0  0  0
    8.7124  -12.5365   20.5880 C   0  0  0  0  0  0  0  0  0  0  0  0
    7.6521  -13.5768   20.1885 C   0  0  2  0  0  0  0  0  0  0  0  0
    6.5614  -13.4402   21.2164 C   0  0  0  0  0  0  0  0  0  0  0  0
    8.2163  -14.9774   20.2095 C   0  0  2  0  0  0  0  0  0  0  0  0
    7.2758  -15.9940   19.8295 N   0  0  0  0  0  0  0  0  0  0  0  0
    8.7613  -15.3267   21.4934 C   0  0  0  0  0  0  0  0  0  0  0  0
    7.9683  -15.5521   22.4718 O   0  0  0  0  0  0  0  0  0  0  0  0
   10.1341  -15.4511   21.7719 N   0  0  0  0  0  0  0  0  0  0  0  0
   10.6259  -15.7468   23.1199 C   0  0  0  0  0  0  0  0  0  0  0  0
   12.0943  -15.9311   23.1014 C   0  0  0  0  0  0  0  0  0  0  0  0
   12.7991  -16.0623   24.2784 O   0  0  0  0  0  0  0  0  0  0  0  0
   12.7153  -15.9703   22.0165 O   0  0  0  0  0  0  0  0  0  0  0  0
  2  3  1  0
  2  1  1  6
  4  8  1  0
  4  3  1  0
  5  4  2  0
  6  2  1  0
  7  6  2  0
 10 11  1  1
 10 12  1  0
 10  9  1  0
 12 13  1  1
 13  6  1  0
 14 12  1  0
 14 15  2  0
 16 14  1  0
 17 16  1  0
 17 18  1  0
 18 19  1  0
 20 18  2  0
M  END
$$$$
