DVG.pdb
     RDKit          3D

 20 19  0  0  1  0  0  0  0  0999 V2000
    7.0800  -16.5109   21.4802 N   0  0  0  0  0  0  0  0  0  0  0  0
    6.4017  -16.4409   22.7897 C   0  0  1  0  0  0  0  0  0  0  0  0
    6.2158  -17.8705   23.2227 C   0  0  0  0  0  0  0  0  0  0  0  0
    5.3642  -18.6831   22.3472 C   0  0  0  0  0  0  0  0  0  0  0  0
    5.1686  -18.4524   21.1441 O   0  0  0  0  0  0  0  0  0  0  0  0
    7.3350  -15.6940   23.7356 C   0  0  0  0  0  0  0  0  0  0  0  0
    8.5673  -15.7694   23.5756 O   0  0  0  0  0  0  0  0  0  0  0  0
    4.7163  -19.8001   22.8790 O   0  0  0  0  0  0  0  0  0  0  0  0
    6.3816  -12.0607   25.4631 C   0  0  0  0  0  0  0  0  0  0  0  0
    6.7631  -13.1433   26.4870 C   0  0  2  0  0  0  0  0  0  0  0  0
    7.6306  -12.4407   27.4963 C   0  0  0  0  0  0  0  0  0  0  0  0
    7.5273  -14.2729   25.8386 C   0  0  2  0  0  0  0  0  0  0  0  0
    6.8161  -14.9283   24.7770 N   0  0  0  0  0  0  0  0  0  0  0  0
    7.9360  -15.2712   26.7891 C   0  0  0  0  0  0  0  0  0  0  0  0
    7.0514  -15.8566   27.5045 O   0  0  0  0  0  0  0  0  0  0  0  0
    9.2661  -15.6755   27.0016 N   0  0  0  0  0  0  0  0  0  0  0  0
    9.6121  -16.7168   27.9724 C   0  0  0  0  0  0  0  0  0  0  0  0
   11.0698  -16.9722   27.9533 C   0  0  0  0  0  0  0  0  0  0  0  0
   11.6427  -17.8317   28.8656 O   0  0  0  0  0  0  0  0  0  0  0  0
   11.8013  -16.4109   27.1083 O   0  0  0  0  0  0  0  0  0  0  0  0
  2  3  1  0
  2  1  1  6
  4  8  1  0
  4  3  1  0
  5  4  2  0
  6  2  1  0
  7  6  2  0
 10 11  1  1
 10 12  1  0
 10  9  1  0
 12 13  1  6
 13  6  1  0
 14 12  1  0
 14 15  2  0
 16 14  1  0
 17 16  1  0
 17 18  1  0
 18 19  1  0
 20 18  2  0
M  END
$$$$
