DVG.pdb
     RDKit          3D

 20 19  0  0  1  0  0  0  0  0999 V2000
    8.0003  -17.0595   16.0311 N   0  0  0  0  0  0  0  0  0  0  0  0
    7.4753  -17.1009   17.4104 C   0  0  1  0  0  0  0  0  0  0  0  0
    7.4373  -18.5590   17.7822 C   0  0  0  0  0  0  0  0  0  0  0  0
    6.4909  -19.3756   17.0142 C   0  0  0  0  0  0  0  0  0  0  0  0
    6.8176  -20.2509   16.1982 O   0  0  0  0  0  0  0  0  0  0  0  0
    8.4597  -16.3331   18.2850 C   0  0  0  0  0  0  0  0  0  0  0  0
    9.6777  -16.3788   18.0318 O   0  0  0  0  0  0  0  0  0  0  0  0
    5.1209  -19.1744   17.1945 O   0  0  0  0  0  0  0  0  0  0  0  0
    6.7471  -14.0291   21.5778 C   0  0  0  0  0  0  0  0  0  0  0  0
    8.0358  -13.6063   20.8522 C   0  0  2  0  0  0  0  0  0  0  0  0
    7.5802  -12.7064   19.7353 C   0  0  0  0  0  0  0  0  0  0  0  0
    8.7724  -14.8001   20.2928 C   0  0  2  0  0  0  0  0  0  0  0  0
    8.0033  -15.5814   19.3652 N   0  0  0  0  0  0  0  0  0  0  0  0
    9.2557  -15.6758   21.3256 C   0  0  0  0  0  0  0  0  0  0  0  0
    8.4707  -16.5572   21.8197 O   0  0  0  0  0  0  0  0  0  0  0  0
   10.5599  -15.6488   21.8508 N   0  0  0  0  0  0  0  0  0  0  0  0
   10.9736  -16.5376   22.9396 C   0  0  0  0  0  0  0  0  0  0  0  0
   12.4082  -16.3406   23.2459 C   0  0  0  0  0  0  0  0  0  0  0  0
   12.9866  -16.9691   24.3274 O   0  0  0  0  0  0  0  0  0  0  0  0
   13.1147  -15.6005   22.5267 O   0  0  0  0  0  0  0  0  0  0  0  0
  2  3  1  0
  2  1  1  6
  4  8  1  0
  4  3  1  0
  5  4  2  0
  6  2  1  0
  7  6  2  0
 10 11  1  6
 10 12  1  0
 10  9  1  0
 12 13  1  6
 13  6  1  0
 14 12  1  0
 14 15  2  0
 16 14  1  0
 17 16  1  0
 17 18  1  0
 18 19  1  0
 20 18  2  0
M  END
$$$$
