DVG.pdb
     RDKit          3D

 20 19  0  0  1  0  0  0  0  0999 V2000
    8.3432  -16.6860   15.8542 N   0  0  0  0  0  0  0  0  0  0  0  0
    7.7538  -16.8836   17.1934 C   0  0  1  0  0  0  0  0  0  0  0  0
    7.7569  -18.3720   17.4181 C   0  0  0  0  0  0  0  0  0  0  0  0
    6.7629  -19.1231   16.6435 C   0  0  0  0  0  0  0  0  0  0  0  0
    6.8810  -19.4168   15.4441 O   0  0  0  0  0  0  0  0  0  0  0  0
    8.6627  -16.1726   18.1895 C   0  0  0  0  0  0  0  0  0  0  0  0
    9.8948  -16.1717   18.0110 O   0  0  0  0  0  0  0  0  0  0  0  0
    5.5929  -19.5495   17.2754 O   0  0  0  0  0  0  0  0  0  0  0  0
    6.7072  -14.0359   21.4987 C   0  0  0  0  0  0  0  0  0  0  0  0
    7.9946  -13.5655   20.8005 C   0  0  2  0  0  0  0  0  0  0  0  0
    7.5288  -12.7078   19.6549 C   0  0  0  0  0  0  0  0  0  0  0  0
    8.8016  -14.7327   20.2839 C   0  0  2  0  0  0  0  0  0  0  0  0
    8.1217  -15.5244   19.2974 N   0  0  0  0  0  0  0  0  0  0  0  0
    9.2352  -15.6062   21.3404 C   0  0  0  0  0  0  0  0  0  0  0  0
    8.4149  -16.4598   21.8258 O   0  0  0  0  0  0  0  0  0  0  0  0
   10.5259  -15.6058   21.8986 N   0  0  0  0  0  0  0  0  0  0  0  0
   10.8782  -16.4641   23.0326 C   0  0  0  0  0  0  0  0  0  0  0  0
   12.3120  -16.3108   23.3662 C   0  0  0  0  0  0  0  0  0  0  0  0
   12.8399  -16.9175   24.4853 O   0  0  0  0  0  0  0  0  0  0  0  0
   13.0637  -15.6280   22.6363 O   0  0  0  0  0  0  0  0  0  0  0  0
  2  3  1  0
  2  1  1  6
  4  8  1  0
  4  3  1  0
  5  4  2  0
  6  2  1  0
  7  6  2  0
 10 11  1  6
 10 12  1  0
 10  9  1  0
 12 13  1  6
 13  6  1  0
 14 12  1  0
 14 15  2  0
 16 14  1  0
 17 16  1  0
 17 18  1  0
 18 19  1  0
 20 18  2  0
M  END
$$$$
