DVG.pdb
     RDKit          3D

 20 19  0  0  1  0  0  0  0  0999 V2000
    7.4452  -16.6685   22.1071 N   0  0  0  0  0  0  0  0  0  0  0  0
    6.7866  -16.3754   23.3956 C   0  0  1  0  0  0  0  0  0  0  0  0
    6.5762  -17.7131   24.0528 C   0  0  0  0  0  0  0  0  0  0  0  0
    5.8021  -18.6806   23.2674 C   0  0  0  0  0  0  0  0  0  0  0  0
    5.3984  -18.4856   22.1107 O   0  0  0  0  0  0  0  0  0  0  0  0
    7.7485  -15.5094   24.2008 C   0  0  0  0  0  0  0  0  0  0  0  0
    8.9741  -15.5956   23.9999 O   0  0  0  0  0  0  0  0  0  0  0  0
    5.4832  -19.9151   23.8370 O   0  0  0  0  0  0  0  0  0  0  0  0
    6.0068  -12.6551   27.0762 C   0  0  0  0  0  0  0  0  0  0  0  0
    7.3735  -12.4824   26.3919 C   0  0  2  0  0  0  0  0  0  0  0  0
    7.0826  -11.7382   25.1165 C   0  0  0  0  0  0  0  0  0  0  0  0
    8.0101  -13.8166   26.0837 C   0  0  2  0  0  0  0  0  0  0  0  0
    7.2633  -14.6229   25.1594 N   0  0  0  0  0  0  0  0  0  0  0  0
    8.2469  -14.5948   27.2693 C   0  0  0  0  0  0  0  0  0  0  0  0
    7.2611  -14.9069   28.0228 O   0  0  0  0  0  0  0  0  0  0  0  0
    9.5082  -15.0612   27.6805 N   0  0  0  0  0  0  0  0  0  0  0  0
    9.6807  -15.8465   28.9054 C   0  0  0  0  0  0  0  0  0  0  0  0
   11.1011  -16.2259   29.0760 C   0  0  0  0  0  0  0  0  0  0  0  0
   11.5039  -16.9596   30.1708 O   0  0  0  0  0  0  0  0  0  0  0  0
   11.9550  -15.8852   28.2280 O   0  0  0  0  0  0  0  0  0  0  0  0
  2  3  1  0
  2  1  1  6
  4  8  1  0
  4  3  1  0
  5  4  2  0
  6  2  1  0
  7  6  2  0
 10 11  1  6
 10 12  1  0
 10  9  1  0
 12 13  1  6
 13  6  1  0
 14 12  1  0
 14 15  2  0
 16 14  1  0
 17 16  1  0
 17 18  1  0
 18 19  1  0
 20 18  2  0
M  END
$$$$
