DVG.pdb
     RDKit          3D

 20 19  0  0  1  0  0  0  0  0999 V2000
    9.0260  -17.2331   17.1608 N   0  0  0  0  0  0  0  0  0  0  0  0
   10.3249  -16.5425   17.0354 C   0  0  1  0  0  0  0  0  0  0  0  0
   10.3395  -15.9634   15.6461 C   0  0  0  0  0  0  0  0  0  0  0  0
   10.5188  -16.9380   14.5644 C   0  0  0  0  0  0  0  0  0  0  0  0
   10.0410  -16.8213   13.4256 O   0  0  0  0  0  0  0  0  0  0  0  0
   10.3494  -15.4441   18.0921 C   0  0  0  0  0  0  0  0  0  0  0  0
   11.3835  -14.7718   18.2613 O   0  0  0  0  0  0  0  0  0  0  0  0
   11.2756  -18.0865   14.8060 O   0  0  0  0  0  0  0  0  0  0  0  0
    7.3672  -12.6573   18.8282 C   0  0  0  0  0  0  0  0  0  0  0  0
    7.6548  -13.6337   19.9815 C   0  0  2  0  0  0  0  0  0  0  0  0
    7.5022  -12.8157   21.2355 C   0  0  0  0  0  0  0  0  0  0  0  0
    9.0530  -14.1973   19.8932 C   0  0  2  0  0  0  0  0  0  0  0  0
    9.2214  -15.1893   18.8685 N   0  0  0  0  0  0  0  0  0  0  0  0
    9.4939  -14.7603   21.1405 C   0  0  0  0  0  0  0  0  0  0  0  0
    9.5917  -14.0066   22.1698 O   0  0  0  0  0  0  0  0  0  0  0  0
    9.8315  -16.1119   21.3325 N   0  0  0  0  0  0  0  0  0  0  0  0
   10.1669  -16.6448   22.6554 C   0  0  0  0  0  0  0  0  0  0  0  0
   11.6329  -16.6280   22.8588 C   0  0  0  0  0  0  0  0  0  0  0  0
   12.1797  -17.0480   24.0520 O   0  0  0  0  0  0  0  0  0  0  0  0
   12.3951  -16.2321   21.9497 O   0  0  0  0  0  0  0  0  0  0  0  0
  2  3  1  0
  2  1  1  6
  4  8  1  0
  4  3  1  0
  5  4  2  0
  6  2  1  0
  7  6  2  0
 10 11  1  1
 10 12  1  0
 10  9  1  0
 12 13  1  6
 13  6  1  0
 14 12  1  0
 14 15  2  0
 16 14  1  0
 17 16  1  0
 17 18  1  0
 18 19  1  0
 20 18  2  0
M  END
$$$$
