DVG.pdb
     RDKit          3D

 20 19  0  0  1  0  0  0  0  0999 V2000
    6.8058  -16.9928   21.4754 N   0  0  0  0  0  0  0  0  0  0  0  0
    6.3557  -16.9021   22.8787 C   0  0  1  0  0  0  0  0  0  0  0  0
    6.3731  -18.3147   23.3983 C   0  0  0  0  0  0  0  0  0  0  0  0
    5.4444  -19.2363   22.7348 C   0  0  0  0  0  0  0  0  0  0  0  0
    5.7745  -20.0765   21.8840 O   0  0  0  0  0  0  0  0  0  0  0  0
    7.3659  -16.0299   23.6151 C   0  0  0  0  0  0  0  0  0  0  0  0
    8.5799  -16.1433   23.3639 O   0  0  0  0  0  0  0  0  0  0  0  0
    4.0884  -19.1859   23.0650 O   0  0  0  0  0  0  0  0  0  0  0  0
    7.8569  -12.1932   26.8566 C   0  0  0  0  0  0  0  0  0  0  0  0
    6.9799  -13.0344   25.9136 C   0  0  2  0  0  0  0  0  0  0  0  0
    5.8232  -13.4943   26.7595 C   0  0  0  0  0  0  0  0  0  0  0  0
    7.7349  -14.2243   25.3709 C   0  0  2  0  0  0  0  0  0  0  0  0
    6.9375  -15.1075   24.5669 N   0  0  0  0  0  0  0  0  0  0  0  0
    8.3527  -14.9995   26.4124 C   0  0  0  0  0  0  0  0  0  0  0  0
    7.6161  -15.6045   27.2659 O   0  0  0  0  0  0  0  0  0  0  0  0
    9.7405  -15.1589   26.5740 N   0  0  0  0  0  0  0  0  0  0  0  0
   10.3054  -15.9579   27.6644 C   0  0  0  0  0  0  0  0  0  0  0  0
   11.7618  -16.1353   27.4695 C   0  0  0  0  0  0  0  0  0  0  0  0
   12.5163  -16.8130   28.4025 O   0  0  0  0  0  0  0  0  0  0  0  0
   12.3272  -15.6721   26.4546 O   0  0  0  0  0  0  0  0  0  0  0  0
  2  3  1  0
  2  1  1  6
  4  8  1  0
  4  3  1  0
  5  4  2  0
  6  2  1  0
  7  6  2  0
 10 11  1  1
 10 12  1  0
 10  9  1  0
 12 13  1  1
 13  6  1  0
 14 12  1  0
 14 15  2  0
 16 14  1  0
 17 16  1  0
 17 18  1  0
 18 19  1  0
 20 18  2  0
M  END
$$$$
