DVG.pdb
     RDKit          3D

 20 19  0  0  1  0  0  0  0  0999 V2000
    9.0041  -17.9392   16.8261 N   0  0  0  0  0  0  0  0  0  0  0  0
    8.1638  -17.7402   18.0238 C   0  0  1  0  0  0  0  0  0  0  0  0
    8.2064  -19.0489   18.7664 C   0  0  0  0  0  0  0  0  0  0  0  0
    7.4722  -20.1505   18.1343 C   0  0  0  0  0  0  0  0  0  0  0  0
    7.8703  -20.7859   17.1461 O   0  0  0  0  0  0  0  0  0  0  0  0
    8.8053  -16.6221   18.8373 C   0  0  0  0  0  0  0  0  0  0  0  0
   10.0345  -16.4362   18.7711 O   0  0  0  0  0  0  0  0  0  0  0  0
    6.2363  -20.5312   18.6613 O   0  0  0  0  0  0  0  0  0  0  0  0
    7.0098  -12.9906   19.3553 C   0  0  0  0  0  0  0  0  0  0  0  0
    7.3982  -13.6516   20.6888 C   0  0  2  0  0  0  0  0  0  0  0  0
    7.9479  -12.5350   21.5349 C   0  0  0  0  0  0  0  0  0  0  0  0
    8.4461  -14.7209   20.4913 C   0  0  2  0  0  0  0  0  0  0  0  0
    8.0235  -15.8081   19.6536 N   0  0  0  0  0  0  0  0  0  0  0  0
    8.9091  -15.2677   21.7378 C   0  0  0  0  0  0  0  0  0  0  0  0
    8.1744  -16.1046   22.3679 O   0  0  0  0  0  0  0  0  0  0  0  0
   10.1416  -14.9556   22.3388 N   0  0  0  0  0  0  0  0  0  0  0  0
   10.5579  -15.5586   23.6075 C   0  0  0  0  0  0  0  0  0  0  0  0
   11.6301  -16.5524   23.3758 C   0  0  0  0  0  0  0  0  0  0  0  0
   11.3474  -17.7620   22.7790 O   0  0  0  0  0  0  0  0  0  0  0  0
   12.8075  -16.3071   23.7190 O   0  0  0  0  0  0  0  0  0  0  0  0
  2  3  1  0
  2  1  1  6
  4  8  1  0
  4  3  1  0
  5  4  2  0
  6  2  1  0
  7  6  2  0
 10 11  1  1
 10 12  1  0
 10  9  1  0
 12 13  1  6
 13  6  1  0
 14 12  1  0
 14 15  2  0
 16 14  1  0
 17 16  1  0
 17 18  1  0
 18 19  1  0
 20 18  2  0
M  END
$$$$
