DVG.pdb
     RDKit          3D

 20 19  0  0  1  0  0  0  0  0999 V2000
    6.9444  -17.4007   18.0178 N   0  0  0  0  0  0  0  0  0  0  0  0
    8.2822  -17.2008   17.4258 C   0  0  1  0  0  0  0  0  0  0  0  0
    8.0342  -16.6183   16.0601 C   0  0  0  0  0  0  0  0  0  0  0  0
    8.7671  -17.2612   14.9639 C   0  0  0  0  0  0  0  0  0  0  0  0
    9.0473  -18.4688   14.9176 O   0  0  0  0  0  0  0  0  0  0  0  0
    9.0227  -16.2142   18.3212 C   0  0  0  0  0  0  0  0  0  0  0  0
   10.2321  -15.9909   18.1275 O   0  0  0  0  0  0  0  0  0  0  0  0
    9.1909  -16.4832   13.8844 O   0  0  0  0  0  0  0  0  0  0  0  0
    6.7144  -14.1247   21.4799 C   0  0  0  0  0  0  0  0  0  0  0  0
    7.9437  -13.5609   20.7472 C   0  0  2  0  0  0  0  0  0  0  0  0
    7.3916  -12.8652   19.5322 C   0  0  0  0  0  0  0  0  0  0  0  0
    8.8927  -14.6600   20.3328 C   0  0  2  0  0  0  0  0  0  0  0  0
    8.3534  -15.5619   19.3539 N   0  0  0  0  0  0  0  0  0  0  0  0
    9.3520  -15.4352   21.4533 C   0  0  0  0  0  0  0  0  0  0  0  0
    8.5313  -16.2038   22.0638 O   0  0  0  0  0  0  0  0  0  0  0  0
   10.6690  -15.4244   21.9465 N   0  0  0  0  0  0  0  0  0  0  0  0
   11.0742  -16.2498   23.0871 C   0  0  0  0  0  0  0  0  0  0  0  0
   12.5417  -16.1880   23.2695 C   0  0  0  0  0  0  0  0  0  0  0  0
   13.1466  -16.8523   24.3145 O   0  0  0  0  0  0  0  0  0  0  0  0
   13.2525  -15.5315   22.4770 O   0  0  0  0  0  0  0  0  0  0  0  0
  2  3  1  0
  2  1  1  1
  4  8  1  0
  4  3  1  0
  5  4  2  0
  6  2  1  0
  7  6  2  0
 10 11  1  6
 10 12  1  0
 10  9  1  0
 12 13  1  6
 13  6  1  0
 14 12  1  0
 14 15  2  0
 16 14  1  0
 17 16  1  0
 17 18  1  0
 18 19  1  0
 20 18  2  0
M  END
$$$$
