HSW.pdb
     RDKit          3D

 31 33  0  0  1  0  0  0  0  0999 V2000
   28.0378  -20.3226  -19.7975 N   0  0  0  0  0  0  0  0  0  0  0  0
   28.1578  -21.4011  -18.8526 C   0  0  1  0  0  0  0  0  0  0  0  0
   29.1623  -22.3973  -19.3511 C   0  0  0  0  0  0  0  0  0  0  0  0
   28.5765  -23.0848  -20.5224 C   0  0  0  0  0  0  0  0  0  0  0  0
   27.6962  -24.1428  -20.5233 C   0  0  0  0  0  0  0  0  0  0  0  0
   27.4218  -24.4525  -21.8257 N   0  0  0  0  0  0  0  0  0  0  0  0
   28.1100  -23.6134  -22.6078 C   0  0  0  0  0  0  0  0  0  0  0  0
   28.8086  -22.7861  -21.8122 N   0  0  0  0  0  0  0  0  0  0  0  0
   28.4303  -20.9182  -17.4787 C   0  0  0  0  0  0  0  0  0  0  0  0
   29.5739  -20.4296  -17.2414 O   0  0  0  0  0  0  0  0  0  0  0  0
   26.3929  -18.3731  -15.6314 O   0  0  0  0  0  0  0  0  0  0  0  0
   27.6187  -18.8770  -15.2686 C   0  0  0  0  0  0  0  0  0  0  0  0
   27.6732  -20.3624  -15.1296 C   0  0  2  0  0  0  0  0  0  0  0  0
   27.4907  -20.9716  -16.4233 N   0  0  0  0  0  0  0  0  0  0  0  0
   26.6934  -20.8722  -14.1453 C   0  0  0  0  0  0  0  0  0  0  0  0
   25.5542  -21.2372  -14.5415 O   0  0  0  0  0  0  0  0  0  0  0  0
   26.9223  -20.9908  -12.7699 N   0  0  0  0  0  0  0  0  0  0  0  0
   25.9680  -21.4184  -11.7897 C   0  0  1  0  0  0  0  0  0  0  0  0
   26.4884  -21.8260  -10.4895 C   0  0  0  0  0  0  0  0  0  0  0  0
   26.5646  -20.7912   -9.4341 C   0  0  0  0  0  0  0  0  0  0  0  0
   25.5429  -19.8468   -9.2047 C   0  0  0  0  0  0  0  0  0  0  0  0
   25.8807  -19.0698   -8.1467 N   0  0  0  0  0  0  0  0  0  0  0  0
   27.0564  -19.4507   -7.6772 C   0  0  0  0  0  0  0  0  0  0  0  0
   27.8317  -18.9897   -6.6417 C   0  0  0  0  0  0  0  0  0  0  0  0
   29.0628  -19.5529   -6.3412 C   0  0  0  0  0  0  0  0  0  0  0  0
   29.4816  -20.6146   -7.1422 C   0  0  0  0  0  0  0  0  0  0  0  0
   28.7119  -21.0851   -8.1827 C   0  0  0  0  0  0  0  0  0  0  0  0
   27.4835  -20.5057   -8.4618 C   0  0  0  0  0  0  0  0  0  0  0  0
   24.8971  -20.4296  -11.7042 C   0  0  0  0  0  0  0  0  0  0  0  0
   25.0229  -19.1869  -11.8813 O   0  0  0  0  0  0  0  0  0  0  0  0
   23.5760  -20.8264  -11.4006 O   0  0  0  0  0  0  0  0  0  0  0  0
  2  1  1  6
  2  9  1  0
  2  3  1  0
  3  4  1  0
  4  5  2  0
  4  8  1  0
  5  6  1  0
  6  7  1  0
  8  7  2  0
  9 10  2  0
 11 12  1  0
 13 12  1  6
 14 13  1  0
 14  9  1  0
 15 17  1  0
 15 13  1  0
 16 15  2  0
 18 19  1  1
 18 17  1  0
 19 20  1  0
 20 21  2  0
 21 22  1  0
 23 22  1  0
 24 23  2  0
 25 24  1  0
 26 27  1  0
 26 25  2  0
 27 28  2  0
 28 20  1  0
 28 23  1  0
 29 31  1  0
 29 18  1  0
 30 29  2  0
M  END
$$$$
