HSW.pdb
     RDKit          3D

 31 33  0  0  1  0  0  0  0  0999 V2000
   19.2074  -10.4408  -17.9972 N   0  0  0  0  0  0  0  0  0  0  0  0
   18.5624   -9.1818  -17.7342 C   0  0  1  0  0  0  0  0  0  0  0  0
   17.3251   -9.4114  -16.9179 C   0  0  0  0  0  0  0  0  0  0  0  0
   16.3797  -10.1985  -17.7390 C   0  0  0  0  0  0  0  0  0  0  0  0
   15.5831   -9.7494  -18.7676 C   0  0  0  0  0  0  0  0  0  0  0  0
   14.8742  -10.8180  -19.2399 N   0  0  0  0  0  0  0  0  0  0  0  0
   15.2201  -11.8958  -18.5270 C   0  0  0  0  0  0  0  0  0  0  0  0
   16.1333  -11.5143  -17.6181 N   0  0  0  0  0  0  0  0  0  0  0  0
   19.4884   -8.1873  -17.1439 C   0  0  0  0  0  0  0  0  0  0  0  0
   20.0479   -8.4809  -16.0468 O   0  0  0  0  0  0  0  0  0  0  0  0
   19.9348   -4.2338  -18.7414 O   0  0  0  0  0  0  0  0  0  0  0  0
   20.9797   -4.9047  -18.1531 C   0  0  0  0  0  0  0  0  0  0  0  0
   20.5832   -5.9066  -17.1198 C   0  0  2  0  0  0  0  0  0  0  0  0
   19.7813   -6.9356  -17.7332 N   0  0  0  0  0  0  0  0  0  0  0  0
   19.8863   -5.2859  -15.9719 C   0  0  0  0  0  0  0  0  0  0  0  0
   18.6293   -5.3459  -15.9078 O   0  0  0  0  0  0  0  0  0  0  0  0
   20.5147   -4.6168  -14.9156 N   0  0  0  0  0  0  0  0  0  0  0  0
   19.8692   -4.0811  -13.7533 C   0  0  1  0  0  0  0  0  0  0  0  0
   19.0949   -5.0089  -12.9366 C   0  0  0  0  0  0  0  0  0  0  0  0
   19.8390   -5.8434  -11.9669 C   0  0  0  0  0  0  0  0  0  0  0  0
   19.7143   -5.6991  -10.5697 C   0  0  0  0  0  0  0  0  0  0  0  0
   20.4791   -6.6328   -9.9530 N   0  0  0  0  0  0  0  0  0  0  0  0
   21.0916   -7.3718  -10.8621 C   0  0  0  0  0  0  0  0  0  0  0  0
   21.9688   -8.4235  -10.7604 C   0  0  0  0  0  0  0  0  0  0  0  0
   22.5011   -9.0444  -11.8804 C   0  0  0  0  0  0  0  0  0  0  0  0
   22.1042   -8.5503  -13.1224 C   0  0  0  0  0  0  0  0  0  0  0  0
   21.2248   -7.4966  -13.2358 C   0  0  0  0  0  0  0  0  0  0  0  0
   20.7052   -6.8938  -12.1003 C   0  0  0  0  0  0  0  0  0  0  0  0
   20.8370   -3.3000  -12.9883 C   0  0  0  0  0  0  0  0  0  0  0  0
   22.0876   -3.3059  -13.1539 O   0  0  0  0  0  0  0  0  0  0  0  0
   20.4077   -2.4382  -11.9549 O   0  0  0  0  0  0  0  0  0  0  0  0
  2  1  1  1
  2  9  1  0
  2  3  1  0
  3  4  1  0
  4  5  2  0
  4  8  1  0
  5  6  1  0
  6  7  1  0
  8  7  2  0
  9 10  2  0
 11 12  1  0
 13 12  1  6
 14 13  1  0
 14  9  1  0
 15 17  1  0
 15 13  1  0
 16 15  2  0
 18 19  1  1
 18 17  1  0
 19 20  1  0
 20 21  2  0
 21 22  1  0
 23 22  1  0
 24 23  2  0
 25 24  1  0
 26 27  1  0
 26 25  2  0
 27 28  2  0
 28 20  1  0
 28 23  1  0
 29 31  1  0
 29 18  1  0
 30 29  2  0
M  END
$$$$
