HSW.pdb
     RDKit          3D

 31 33  0  0  1  0  0  0  0  0999 V2000
   28.5051  -19.6138  -17.0438 N   0  0  0  0  0  0  0  0  0  0  0  0
   28.8863  -18.4826  -16.2404 C   0  0  1  0  0  0  0  0  0  0  0  0
   28.8089  -17.2316  -17.0643 C   0  0  0  0  0  0  0  0  0  0  0  0
   29.7207  -17.3912  -18.2179 C   0  0  0  0  0  0  0  0  0  0  0  0
   30.5564  -18.4506  -18.4892 C   0  0  0  0  0  0  0  0  0  0  0  0
   31.2111  -18.1736  -19.6563 N   0  0  0  0  0  0  0  0  0  0  0  0
   30.7949  -16.9805  -20.0950 C   0  0  0  0  0  0  0  0  0  0  0  0
   29.8911  -16.5104  -19.2188 N   0  0  0  0  0  0  0  0  0  0  0  0
   28.1217  -18.4087  -14.9735 C   0  0  0  0  0  0  0  0  0  0  0  0
   28.2832  -17.3852  -14.2461 O   0  0  0  0  0  0  0  0  0  0  0  0
   24.6416  -20.6153  -14.4007 O   0  0  0  0  0  0  0  0  0  0  0  0
   24.9598  -19.4422  -13.7598 C   0  0  0  0  0  0  0  0  0  0  0  0
   26.3926  -19.3104  -13.3617 C   0  0  2  0  0  0  0  0  0  0  0  0
   27.2266  -19.4111  -14.5332 N   0  0  0  0  0  0  0  0  0  0  0  0
   26.7832  -20.2958  -12.3297 C   0  0  0  0  0  0  0  0  0  0  0  0
   27.3962  -21.3410  -12.6758 O   0  0  0  0  0  0  0  0  0  0  0  0
   26.5269  -20.1703  -10.9597 N   0  0  0  0  0  0  0  0  0  0  0  0
   26.4178  -21.2470  -10.0198 C   0  0  1  0  0  0  0  0  0  0  0  0
   27.5255  -21.4308   -9.0889 C   0  0  0  0  0  0  0  0  0  0  0  0
   27.6885  -20.4205   -8.0198 C   0  0  0  0  0  0  0  0  0  0  0  0
   26.9368  -19.2288   -7.9635 C   0  0  0  0  0  0  0  0  0  0  0  0
   27.2769  -18.5370   -6.8486 N   0  0  0  0  0  0  0  0  0  0  0  0
   28.2015  -19.2047   -6.1802 C   0  0  0  0  0  0  0  0  0  0  0  0
   28.8740  -18.9355   -5.0134 C   0  0  0  0  0  0  0  0  0  0  0  0
   29.8320  -19.7992   -4.5040 C   0  0  0  0  0  0  0  0  0  0  0  0
   30.0843  -20.9603   -5.2337 C   0  0  0  0  0  0  0  0  0  0  0  0
   29.4155  -21.2403   -6.4045 C   0  0  0  0  0  0  0  0  0  0  0  0
   28.4605  -20.3610   -6.8920 C   0  0  0  0  0  0  0  0  0  0  0  0
   25.1136  -21.1791   -9.3668 C   0  0  0  0  0  0  0  0  0  0  0  0
   24.2562  -20.2667   -9.5217 O   0  0  0  0  0  0  0  0  0  0  0  0
   24.7069  -22.1904   -8.4686 O   0  0  0  0  0  0  0  0  0  0  0  0
  2  1  1  6
  2  9  1  0
  2  3  1  0
  3  4  1  0
  4  5  2  0
  4  8  1  0
  5  6  1  0
  6  7  1  0
  8  7  2  0
  9 10  2  0
 11 12  1  0
 13 12  1  6
 14 13  1  0
 14  9  1  0
 15 17  1  0
 15 13  1  0
 16 15  2  0
 18 19  1  1
 18 17  1  0
 19 20  1  0
 20 21  2  0
 21 22  1  0
 23 22  1  0
 24 23  2  0
 25 24  1  0
 26 27  1  0
 26 25  2  0
 27 28  2  0
 28 20  1  0
 28 23  1  0
 29 31  1  0
 29 18  1  0
 30 29  2  0
M  END
$$$$
