HSW.pdb
     RDKit          3D

 31 33  0  0  1  0  0  0  0  0999 V2000
   18.3534  -13.0471    6.0153 N   0  0  0  0  0  0  0  0  0  0  0  0
   17.6501  -14.1981    6.5162 C   0  0  1  0  0  0  0  0  0  0  0  0
   16.8958  -14.8530    5.3972 C   0  0  0  0  0  0  0  0  0  0  0  0
   15.8702  -13.8990    4.9223 C   0  0  0  0  0  0  0  0  0  0  0  0
   15.9637  -13.0191    3.8681 C   0  0  0  0  0  0  0  0  0  0  0  0
   14.7823  -12.3364    3.7920 N   0  0  0  0  0  0  0  0  0  0  0  0
   13.9815  -12.7787    4.7678 C   0  0  0  0  0  0  0  0  0  0  0  0
   14.6463  -13.7262    5.4504 N   0  0  0  0  0  0  0  0  0  0  0  0
   18.5398  -15.1237    7.2556 C   0  0  0  0  0  0  0  0  0  0  0  0
   19.6639  -15.3977    6.7416 O   0  0  0  0  0  0  0  0  0  0  0  0
   20.1835  -16.9467   11.3019 O   0  0  0  0  0  0  0  0  0  0  0  0
   19.4230  -16.1100   10.5211 C   0  0  0  0  0  0  0  0  0  0  0  0
   19.0263  -16.6721    9.1963 C   0  0  2  0  0  0  0  0  0  0  0  0
   18.2064  -15.7153    8.4960 N   0  0  0  0  0  0  0  0  0  0  0  0
   18.3486  -17.9813    9.3202 C   0  0  0  0  0  0  0  0  0  0  0  0
   17.0894  -18.0241    9.3445 O   0  0  0  0  0  0  0  0  0  0  0  0
   18.9979  -19.2173    9.4157 N   0  0  0  0  0  0  0  0  0  0  0  0
   18.3657  -20.4901    9.6022 C   0  0  1  0  0  0  0  0  0  0  0  0
   17.2820  -20.8337    8.6885 C   0  0  0  0  0  0  0  0  0  0  0  0
   17.6157  -20.9452    7.2510 C   0  0  0  0  0  0  0  0  0  0  0  0
   18.5515  -21.8712    6.7459 C   0  0  0  0  0  0  0  0  0  0  0  0
   18.6024  -21.7653    5.3956 N   0  0  0  0  0  0  0  0  0  0  0  0
   17.7596  -20.8290    4.9945 C   0  0  0  0  0  0  0  0  0  0  0  0
   17.4470  -20.3380    3.7507 C   0  0  0  0  0  0  0  0  0  0  0  0
   16.5198  -19.3216    3.5761 C   0  0  0  0  0  0  0  0  0  0  0  0
   15.9154  -18.8167    4.7267 C   0  0  0  0  0  0  0  0  0  0  0  0
   16.2211  -19.3020    5.9787 C   0  0  0  0  0  0  0  0  0  0  0  0
   17.1507  -20.3202    6.1264 C   0  0  0  0  0  0  0  0  0  0  0  0
   19.3934  -21.5226    9.7009 C   0  0  0  0  0  0  0  0  0  0  0  0
   20.6319  -21.3510    9.5327 O   0  0  0  0  0  0  0  0  0  0  0  0
   19.0442  -22.8559   10.0094 O   0  0  0  0  0  0  0  0  0  0  0  0
  2  1  1  6
  2  9  1  0
  2  3  1  0
  3  4  1  0
  4  5  2  0
  4  8  1  0
  5  6  1  0
  6  7  1  0
  8  7  2  0
  9 10  2  0
 11 12  1  0
 13 12  1  1
 14 13  1  0
 14  9  1  0
 15 17  1  0
 15 13  1  0
 16 15  2  0
 18 19  1  6
 18 17  1  0
 19 20  1  0
 20 21  2  0
 21 22  1  0
 23 22  1  0
 24 23  2  0
 25 24  1  0
 26 27  1  0
 26 25  2  0
 27 28  2  0
 28 20  1  0
 28 23  1  0
 29 31  1  0
 29 18  1  0
 30 29  2  0
M  END
$$$$
