HSW.pdb
     RDKit          3D

 31 33  0  0  1  0  0  0  0  0999 V2000
   18.4002  -12.2955  -17.3937 N   0  0  0  0  0  0  0  0  0  0  0  0
   19.4921  -11.4281  -17.7482 C   0  0  1  0  0  0  0  0  0  0  0  0
   19.5397  -11.2626  -19.2383 C   0  0  0  0  0  0  0  0  0  0  0  0
   19.8823  -12.5743  -19.8295 C   0  0  0  0  0  0  0  0  0  0  0  0
   21.0088  -12.9047  -20.5480 C   0  0  0  0  0  0  0  0  0  0  0  0
   20.9067  -14.2222  -20.8963 N   0  0  0  0  0  0  0  0  0  0  0  0
   19.7536  -14.6941  -20.4094 C   0  0  0  0  0  0  0  0  0  0  0  0
   19.1363  -13.6904  -19.7634 N   0  0  0  0  0  0  0  0  0  0  0  0
   19.4550  -10.1451  -17.0081 C   0  0  0  0  0  0  0  0  0  0  0  0
   18.3238   -9.6140  -16.8050 O   0  0  0  0  0  0  0  0  0  0  0  0
   22.9917   -8.2581  -15.5094 O   0  0  0  0  0  0  0  0  0  0  0  0
   21.7741   -8.1903  -14.8761 C   0  0  0  0  0  0  0  0  0  0  0  0
   20.5888   -8.2446  -15.7820 C   0  0  2  0  0  0  0  0  0  0  0  0
   20.6050   -9.4839  -16.5183 N   0  0  0  0  0  0  0  0  0  0  0  0
   20.5170   -7.0759  -16.6861 C   0  0  0  0  0  0  0  0  0  0  0  0
   20.7548   -7.2304  -17.9139 O   0  0  0  0  0  0  0  0  0  0  0  0
   20.1984   -5.7717  -16.2911 N   0  0  0  0  0  0  0  0  0  0  0  0
   20.0967   -4.6305  -17.1522 C   0  0  1  0  0  0  0  0  0  0  0  0
   19.4145   -4.8193  -18.4275 C   0  0  0  0  0  0  0  0  0  0  0  0
   19.2381   -3.6268  -19.2861 C   0  0  0  0  0  0  0  0  0  0  0  0
   20.1444   -2.5467  -19.3017 C   0  0  0  0  0  0  0  0  0  0  0  0
   19.7392   -1.6353  -20.2195 N   0  0  0  0  0  0  0  0  0  0  0  0
   18.6277   -2.0564  -20.7983 C   0  0  0  0  0  0  0  0  0  0  0  0
   17.8253   -1.5074  -21.7683 C   0  0  0  0  0  0  0  0  0  0  0  0
   16.6769   -2.1434  -22.2154 C   0  0  0  0  0  0  0  0  0  0  0  0
   16.3707   -3.3725  -21.6328 C   0  0  0  0  0  0  0  0  0  0  0  0
   17.1685   -3.9324  -20.6598 C   0  0  0  0  0  0  0  0  0  0  0  0
   18.3128   -3.2770  -20.2310 C   0  0  0  0  0  0  0  0  0  0  0  0
   19.5906   -3.4970  -16.3835 C   0  0  0  0  0  0  0  0  0  0  0  0
   18.6803   -3.5431  -15.5113 O   0  0  0  0  0  0  0  0  0  0  0  0
   20.1204   -2.2025  -16.5797 O   0  0  0  0  0  0  0  0  0  0  0  0
  2  1  1  6
  2  9  1  0
  2  3  1  0
  3  4  1  0
  4  5  2  0
  4  8  1  0
  5  6  1  0
  6  7  1  0
  8  7  2  0
  9 10  2  0
 11 12  1  0
 13 12  1  6
 14 13  1  0
 14  9  1  0
 15 17  1  0
 15 13  1  0
 16 15  2  0
 18 19  1  6
 18 17  1  0
 19 20  1  0
 20 21  2  0
 21 22  1  0
 23 22  1  0
 24 23  2  0
 25 24  1  0
 26 27  1  0
 26 25  2  0
 27 28  2  0
 28 20  1  0
 28 23  1  0
 29 31  1  0
 29 18  1  0
 30 29  2  0
M  END
$$$$
