HSW.pdb
     RDKit          3D

 31 33  0  0  1  0  0  0  0  0999 V2000
   26.4214  -21.4883  -17.2521 N   0  0  0  0  0  0  0  0  0  0  0  0
   26.7778  -22.1340  -16.0167 C   0  0  1  0  0  0  0  0  0  0  0  0
   28.0658  -22.8821  -16.1934 C   0  0  0  0  0  0  0  0  0  0  0  0
   27.8155  -24.0019  -17.1267 C   0  0  0  0  0  0  0  0  0  0  0  0
   27.2498  -25.2238  -16.8419 C   0  0  0  0  0  0  0  0  0  0  0  0
   27.2134  -25.9443  -18.0025 N   0  0  0  0  0  0  0  0  0  0  0  0
   27.7396  -25.1933  -18.9763 C   0  0  0  0  0  0  0  0  0  0  0  0
   28.1032  -24.0162  -18.4396 N   0  0  0  0  0  0  0  0  0  0  0  0
   26.7887  -21.1929  -14.8724 C   0  0  0  0  0  0  0  0  0  0  0  0
   27.0707  -19.9814  -15.1079 O   0  0  0  0  0  0  0  0  0  0  0  0
   23.7714  -20.8076  -12.7580 O   0  0  0  0  0  0  0  0  0  0  0  0
   24.8703  -19.9834  -12.7941 C   0  0  0  0  0  0  0  0  0  0  0  0
   26.1686  -20.6502  -12.4804 C   0  0  2  0  0  0  0  0  0  0  0  0
   26.5033  -21.5692  -13.5394 N   0  0  0  0  0  0  0  0  0  0  0  0
   26.1527  -21.3219  -11.1623 C   0  0  0  0  0  0  0  0  0  0  0  0
   26.7362  -22.4307  -11.0282 O   0  0  0  0  0  0  0  0  0  0  0  0
   25.5294  -20.8232  -10.0129 N   0  0  0  0  0  0  0  0  0  0  0  0
   25.5143  -21.4480   -8.7230 C   0  0  1  0  0  0  0  0  0  0  0  0
   26.7937  -21.5850   -8.0362 C   0  0  0  0  0  0  0  0  0  0  0  0
   27.3076  -20.3990   -7.3155 C   0  0  0  0  0  0  0  0  0  0  0  0
   26.9183  -19.0795   -7.6252 C   0  0  0  0  0  0  0  0  0  0  0  0
   27.5180  -18.2218   -6.7639 N   0  0  0  0  0  0  0  0  0  0  0  0
   28.2716  -18.9020   -5.9171 C   0  0  0  0  0  0  0  0  0  0  0  0
   29.0779  -18.5101   -4.8767 C   0  0  0  0  0  0  0  0  0  0  0  0
   29.7976  -19.4250   -4.1230 C   0  0  0  0  0  0  0  0  0  0  0  0
   29.6660  -20.7689   -4.4704 C   0  0  0  0  0  0  0  0  0  0  0  0
   28.8599  -21.1729   -5.5113 C   0  0  0  0  0  0  0  0  0  0  0  0
   28.1490  -20.2383   -6.2488 C   0  0  0  0  0  0  0  0  0  0  0  0
   24.4777  -20.8258   -7.9043 C   0  0  0  0  0  0  0  0  0  0  0  0
   23.7022  -19.9008   -8.2713 O   0  0  0  0  0  0  0  0  0  0  0  0
   24.2661  -21.2458   -6.5725 O   0  0  0  0  0  0  0  0  0  0  0  0
  2  1  1  6
  2  9  1  0
  2  3  1  0
  3  4  1  0
  4  5  2  0
  4  8  1  0
  5  6  1  0
  6  7  1  0
  8  7  2  0
  9 10  2  0
 11 12  1  0
 13 12  1  6
 14 13  1  0
 14  9  1  0
 15 17  1  0
 15 13  1  0
 16 15  2  0
 18 19  1  1
 18 17  1  0
 19 20  1  0
 20 21  2  0
 21 22  1  0
 23 22  1  0
 24 23  2  0
 25 24  1  0
 26 27  1  0
 26 25  2  0
 27 28  2  0
 28 20  1  0
 28 23  1  0
 29 31  1  0
 29 18  1  0
 30 29  2  0
M  END
$$$$
