HSW.pdb
     RDKit          3D

 31 33  0  0  1  0  0  0  0  0999 V2000
   28.8033  -20.7128  -19.2131 N   0  0  0  0  0  0  0  0  0  0  0  0
   27.9268  -21.2889  -18.2282 C   0  0  1  0  0  0  0  0  0  0  0  0
   27.7707  -22.7574  -18.4911 C   0  0  0  0  0  0  0  0  0  0  0  0
   26.9083  -22.9156  -19.6823 C   0  0  0  0  0  0  0  0  0  0  0  0
   27.2395  -23.4847  -20.8909 C   0  0  0  0  0  0  0  0  0  0  0  0
   26.1377  -23.4172  -21.6966 N   0  0  0  0  0  0  0  0  0  0  0  0
   25.1544  -22.8252  -21.0096 C   0  0  0  0  0  0  0  0  0  0  0  0
   25.6272  -22.5230  -19.7887 N   0  0  0  0  0  0  0  0  0  0  0  0
   28.3513  -20.9743  -16.8440 C   0  0  0  0  0  0  0  0  0  0  0  0
   29.5339  -20.5572  -16.6703 O   0  0  0  0  0  0  0  0  0  0  0  0
   26.7502  -18.3757  -15.0038 O   0  0  0  0  0  0  0  0  0  0  0  0
   27.8961  -19.0219  -14.6073 C   0  0  0  0  0  0  0  0  0  0  0  0
   27.7583  -20.4979  -14.4311 C   0  0  2  0  0  0  0  0  0  0  0  0
   27.5150  -21.1127  -15.7121 N   0  0  0  0  0  0  0  0  0  0  0  0
   26.7094  -20.8524  -13.4498 C   0  0  0  0  0  0  0  0  0  0  0  0
   25.5077  -20.9088  -13.8249 O   0  0  0  0  0  0  0  0  0  0  0  0
   26.9358  -21.1406  -12.0993 N   0  0  0  0  0  0  0  0  0  0  0  0
   25.9362  -21.4827  -11.1306 C   0  0  1  0  0  0  0  0  0  0  0  0
   26.3968  -21.7924   -9.7818 C   0  0  0  0  0  0  0  0  0  0  0  0
   26.8991  -20.6679   -8.9611 C   0  0  0  0  0  0  0  0  0  0  0  0
   26.2073  -19.4474   -8.8189 C   0  0  0  0  0  0  0  0  0  0  0  0
   26.8918  -18.6408   -7.9716 N   0  0  0  0  0  0  0  0  0  0  0  0
   27.9832  -19.2611   -7.5571 C   0  0  0  0  0  0  0  0  0  0  0  0
   28.9986  -18.8813   -6.7141 C   0  0  0  0  0  0  0  0  0  0  0  0
   30.0697  -19.7167   -6.4344 C   0  0  0  0  0  0  0  0  0  0  0  0
   30.0703  -20.9672   -7.0513 C   0  0  0  0  0  0  0  0  0  0  0  0
   29.0570  -21.3583   -7.8979 C   0  0  0  0  0  0  0  0  0  0  0  0
   27.9959  -20.5050   -8.1599 C   0  0  0  0  0  0  0  0  0  0  0  0
   24.8743  -20.4811  -11.1677 C   0  0  0  0  0  0  0  0  0  0  0  0
   23.6963  -20.6371  -10.7440 O   0  0  0  0  0  0  0  0  0  0  0  0
   25.1144  -19.2001  -11.7119 O   0  0  0  0  0  0  0  0  0  0  0  0
  2  1  1  6
  2  9  1  0
  2  3  1  0
  3  4  1  0
  4  5  2  0
  4  8  1  0
  5  6  1  0
  6  7  1  0
  8  7  2  0
  9 10  2  0
 11 12  1  0
 13 12  1  6
 14 13  1  0
 14  9  1  0
 15 17  1  0
 15 13  1  0
 16 15  2  0
 18 19  1  1
 18 17  1  0
 19 20  1  0
 20 21  2  0
 21 22  1  0
 23 22  1  0
 24 23  2  0
 25 24  1  0
 26 27  1  0
 26 25  2  0
 27 28  2  0
 28 20  1  0
 28 23  1  0
 29 31  1  0
 29 18  1  0
 30 29  2  0
M  END
$$$$
