HSW.pdb
     RDKit          3D

 31 33  0  0  1  0  0  0  0  0999 V2000
   13.4276  -22.9681    2.4471 N   0  0  0  0  0  0  0  0  0  0  0  0
   14.1823  -21.7481    2.3368 C   0  0  1  0  0  0  0  0  0  0  0  0
   13.7175  -20.9756    1.1380 C   0  0  0  0  0  0  0  0  0  0  0  0
   14.1132  -21.7317   -0.0700 C   0  0  0  0  0  0  0  0  0  0  0  0
   15.3877  -22.0275   -0.4972 C   0  0  0  0  0  0  0  0  0  0  0  0
   15.2807  -22.7423   -1.6570 N   0  0  0  0  0  0  0  0  0  0  0  0
   13.9812  -22.8855   -1.9402 C   0  0  0  0  0  0  0  0  0  0  0  0
   13.2777  -22.2706   -0.9745 N   0  0  0  0  0  0  0  0  0  0  0  0
   14.1687  -20.9622    3.5928 C   0  0  0  0  0  0  0  0  0  0  0  0
   13.1102  -20.9784    4.2871 O   0  0  0  0  0  0  0  0  0  0  0  0
   16.0487  -21.2822    6.7070 O   0  0  0  0  0  0  0  0  0  0  0  0
   15.0272  -20.4052    6.4319 C   0  0  0  0  0  0  0  0  0  0  0  0
   15.2891  -19.4682    5.2996 C   0  0  2  0  0  0  0  0  0  0  0  0
   15.2649  -20.1993    4.0574 N   0  0  0  0  0  0  0  0  0  0  0  0
   16.5558  -18.7225    5.4672 C   0  0  0  0  0  0  0  0  0  0  0  0
   17.6282  -19.2237    5.0353 O   0  0  0  0  0  0  0  0  0  0  0  0
   16.6771  -17.4707    6.0808 N   0  0  0  0  0  0  0  0  0  0  0  0
   17.8953  -16.7404    6.2740 C   0  0  1  0  0  0  0  0  0  0  0  0
   18.0316  -15.4754    5.5608 C   0  0  0  0  0  0  0  0  0  0  0  0
   18.1760  -15.5380    4.0892 C   0  0  0  0  0  0  0  0  0  0  0  0
   17.1324  -15.2162    3.1973 C   0  0  0  0  0  0  0  0  0  0  0  0
   17.5833  -15.3218    1.9235 N   0  0  0  0  0  0  0  0  0  0  0  0
   18.8522  -15.6925    1.9341 C   0  0  0  0  0  0  0  0  0  0  0  0
   19.7502  -15.9442    0.9260 C   0  0  0  0  0  0  0  0  0  0  0  0
   21.0526  -16.3424    1.1876 C   0  0  0  0  0  0  0  0  0  0  0  0
   21.4124  -16.4773    2.5279 C   0  0  0  0  0  0  0  0  0  0  0  0
   20.5201  -16.2270    3.5466 C   0  0  0  0  0  0  0  0  0  0  0  0
   19.2237  -15.8282    3.2587 C   0  0  0  0  0  0  0  0  0  0  0  0
   18.1652  -16.6341    7.7050 C   0  0  0  0  0  0  0  0  0  0  0  0
   17.3825  -16.9790    8.6323 O   0  0  0  0  0  0  0  0  0  0  0  0
   19.3918  -16.1079    8.1671 O   0  0  0  0  0  0  0  0  0  0  0  0
  2  1  1  1
  2  9  1  0
  2  3  1  0
  3  4  1  0
  4  5  2  0
  4  8  1  0
  5  6  1  0
  6  7  1  0
  8  7  2  0
  9 10  2  0
 11 12  1  0
 13 12  1  1
 14 13  1  0
 14  9  1  0
 15 17  1  0
 15 13  1  0
 16 15  2  0
 18 19  1  1
 18 17  1  0
 19 20  1  0
 20 21  2  0
 21 22  1  0
 23 22  1  0
 24 23  2  0
 25 24  1  0
 26 27  1  0
 26 25  2  0
 27 28  2  0
 28 20  1  0
 28 23  1  0
 29 31  1  0
 29 18  1  0
 30 29  2  0
M  END
$$$$
