HSW.pdb
     RDKit          3D

 31 33  0  0  1  0  0  0  0  0999 V2000
   27.5707  -21.7830  -17.4740 N   0  0  0  0  0  0  0  0  0  0  0  0
   28.8338  -21.9228  -16.7991 C   0  0  1  0  0  0  0  0  0  0  0  0
   29.9367  -21.4310  -17.6889 C   0  0  0  0  0  0  0  0  0  0  0  0
   29.9976  -22.3202  -18.8693 C   0  0  0  0  0  0  0  0  0  0  0  0
   29.3270  -22.1806  -20.0631 C   0  0  0  0  0  0  0  0  0  0  0  0
   29.6834  -23.2291  -20.8637 N   0  0  0  0  0  0  0  0  0  0  0  0
   30.5475  -23.9948  -20.1882 C   0  0  0  0  0  0  0  0  0  0  0  0
   30.7344  -23.4390  -18.9792 N   0  0  0  0  0  0  0  0  0  0  0  0
   28.8275  -21.2949  -15.4572 C   0  0  0  0  0  0  0  0  0  0  0  0
   29.8664  -21.4173  -14.7440 O   0  0  0  0  0  0  0  0  0  0  0  0
   25.8416  -18.5164  -14.2083 O   0  0  0  0  0  0  0  0  0  0  0  0
   27.1418  -18.5627  -13.7661 C   0  0  0  0  0  0  0  0  0  0  0  0
   27.7148  -19.9352  -13.6368 C   0  0  2  0  0  0  0  0  0  0  0  0
   27.7331  -20.5705  -14.9307 N   0  0  0  0  0  0  0  0  0  0  0  0
   26.9934  -20.7549  -12.6387 C   0  0  0  0  0  0  0  0  0  0  0  0
   26.0465  -21.4953  -13.0171 O   0  0  0  0  0  0  0  0  0  0  0  0
   27.2747  -20.7854  -11.2682 N   0  0  0  0  0  0  0  0  0  0  0  0
   26.5212  -21.4823  -10.2676 C   0  0  1  0  0  0  0  0  0  0  0  0
   27.1953  -21.7652   -9.0055 C   0  0  0  0  0  0  0  0  0  0  0  0
   27.3401  -20.6464   -8.0476 C   0  0  0  0  0  0  0  0  0  0  0  0
   26.6127  -19.4429   -8.1515 C   0  0  0  0  0  0  0  0  0  0  0  0
   26.9258  -18.6387   -7.1064 N   0  0  0  0  0  0  0  0  0  0  0  0
   27.8104  -19.2447   -6.3330 C   0  0  0  0  0  0  0  0  0  0  0  0
   28.4446  -18.8605   -5.1771 C   0  0  0  0  0  0  0  0  0  0  0  0
   29.3641  -19.6793   -4.5391 C   0  0  0  0  0  0  0  0  0  0  0  0
   29.6184  -20.9178   -5.1271 C   0  0  0  0  0  0  0  0  0  0  0  0
   28.9878  -21.3133   -6.2857 C   0  0  0  0  0  0  0  0  0  0  0  0
   28.0707  -20.4766   -6.9036 C   0  0  0  0  0  0  0  0  0  0  0  0
   25.2274  -20.8260  -10.1024 C   0  0  0  0  0  0  0  0  0  0  0  0
   24.9673  -19.6239  -10.3833 O   0  0  0  0  0  0  0  0  0  0  0  0
   24.1216  -21.5383   -9.5878 O   0  0  0  0  0  0  0  0  0  0  0  0
  2  1  1  6
  2  9  1  0
  2  3  1  0
  3  4  1  0
  4  5  2  0
  4  8  1  0
  5  6  1  0
  6  7  1  0
  8  7  2  0
  9 10  2  0
 11 12  1  0
 13 12  1  6
 14 13  1  0
 14  9  1  0
 15 17  1  0
 15 13  1  0
 16 15  2  0
 18 19  1  1
 18 17  1  0
 19 20  1  0
 20 21  2  0
 21 22  1  0
 23 22  1  0
 24 23  2  0
 25 24  1  0
 26 27  1  0
 26 25  2  0
 27 28  2  0
 28 20  1  0
 28 23  1  0
 29 31  1  0
 29 18  1  0
 30 29  2  0
M  END
$$$$
