HSW.pdb
     RDKit          3D

 31 33  0  0  1  0  0  0  0  0999 V2000
   24.0044  -18.3215  -17.8116 N   0  0  0  0  0  0  0  0  0  0  0  0
   24.0732  -18.2667  -16.3754 C   0  0  1  0  0  0  0  0  0  0  0  0
   23.8154  -16.8634  -15.9126 C   0  0  0  0  0  0  0  0  0  0  0  0
   24.9048  -16.0077  -16.4307 C   0  0  0  0  0  0  0  0  0  0  0  0
   26.2587  -16.1586  -16.2345 C   0  0  0  0  0  0  0  0  0  0  0  0
   26.8892  -15.1425  -16.8958 N   0  0  0  0  0  0  0  0  0  0  0  0
   25.9562  -14.3853  -17.4836 C   0  0  0  0  0  0  0  0  0  0  0  0
   24.7545  -14.9145  -17.1982 N   0  0  0  0  0  0  0  0  0  0  0  0
   23.2001  -19.2755  -15.7310 C   0  0  0  0  0  0  0  0  0  0  0  0
   22.0322  -19.4274  -16.1956 O   0  0  0  0  0  0  0  0  0  0  0  0
   24.2587  -21.2830  -12.0984 O   0  0  0  0  0  0  0  0  0  0  0  0
   23.5902  -21.9251  -13.1129 C   0  0  0  0  0  0  0  0  0  0  0  0
   22.7517  -21.0398  -13.9741 C   0  0  2  0  0  0  0  0  0  0  0  0
   23.5951  -20.0738  -14.6328 N   0  0  0  0  0  0  0  0  0  0  0  0
   21.6631  -20.3843  -13.2165 C   0  0  0  0  0  0  0  0  0  0  0  0
   21.9444  -19.4591  -12.4085 O   0  0  0  0  0  0  0  0  0  0  0  0
   20.3052  -20.7070  -13.3178 N   0  0  0  0  0  0  0  0  0  0  0  0
   19.2402  -20.1223  -12.5573 C   0  0  1  0  0  0  0  0  0  0  0  0
   19.1488  -18.6666  -12.5525 C   0  0  0  0  0  0  0  0  0  0  0  0
   19.2707  -17.9745  -13.8549 C   0  0  0  0  0  0  0  0  0  0  0  0
   18.8957  -18.5640  -15.0798 C   0  0  0  0  0  0  0  0  0  0  0  0
   19.0786  -17.6698  -16.0818 N   0  0  0  0  0  0  0  0  0  0  0  0
   19.5491  -16.5392  -15.5835 C   0  0  0  0  0  0  0  0  0  0  0  0
   19.9046  -15.3485  -16.1683 C   0  0  0  0  0  0  0  0  0  0  0  0
   20.3971  -14.2860  -15.4256 C   0  0  0  0  0  0  0  0  0  0  0  0
   20.5165  -14.4812  -14.0502 C   0  0  0  0  0  0  0  0  0  0  0  0
   20.1625  -15.6708  -13.4535 C   0  0  0  0  0  0  0  0  0  0  0  0
   19.6708  -16.7178  -14.2182 C   0  0  0  0  0  0  0  0  0  0  0  0
   17.9862  -20.7833  -12.9072 C   0  0  0  0  0  0  0  0  0  0  0  0
   16.8804  -20.6288  -12.3198 O   0  0  0  0  0  0  0  0  0  0  0  0
   17.9299  -21.6897  -13.9890 O   0  0  0  0  0  0  0  0  0  0  0  0
  2  1  1  6
  2  9  1  0
  2  3  1  0
  3  4  1  0
  4  5  2  0
  4  8  1  0
  5  6  1  0
  6  7  1  0
  8  7  2  0
  9 10  2  0
 11 12  1  0
 13 12  1  1
 14 13  1  0
 14  9  1  0
 15 17  1  0
 15 13  1  0
 16 15  2  0
 18 19  1  6
 18 17  1  0
 19 20  1  0
 20 21  2  0
 21 22  1  0
 23 22  1  0
 24 23  2  0
 25 24  1  0
 26 27  1  0
 26 25  2  0
 27 28  2  0
 28 20  1  0
 28 23  1  0
 29 31  1  0
 29 18  1  0
 30 29  2  0
M  END
$$$$
