HSW.pdb
     RDKit          3D

 31 33  0  0  1  0  0  0  0  0999 V2000
   20.0339   -8.9657  -20.1760 N   0  0  0  0  0  0  0  0  0  0  0  0
   20.6438   -8.5139  -18.9536 C   0  0  1  0  0  0  0  0  0  0  0  0
   21.8433   -7.6713  -19.2715 C   0  0  0  0  0  0  0  0  0  0  0  0
   22.8850   -8.5588  -19.8328 C   0  0  0  0  0  0  0  0  0  0  0  0
   23.2093   -9.8344  -19.4305 C   0  0  0  0  0  0  0  0  0  0  0  0
   24.2280  -10.2741  -20.2281 N   0  0  0  0  0  0  0  0  0  0  0  0
   24.5262   -9.3023  -21.0976 C   0  0  0  0  0  0  0  0  0  0  0  0
   23.7087   -8.2642  -20.8533 N   0  0  0  0  0  0  0  0  0  0  0  0
   19.6731   -7.8507  -18.0519 C   0  0  0  0  0  0  0  0  0  0  0  0
   19.0898   -6.8102  -18.4760 O   0  0  0  0  0  0  0  0  0  0  0  0
   19.0303   -9.0172  -13.9063 O   0  0  0  0  0  0  0  0  0  0  0  0
   18.0557   -8.5586  -14.7596 C   0  0  0  0  0  0  0  0  0  0  0  0
   18.5321   -7.6074  -15.8070 C   0  0  2  0  0  0  0  0  0  0  0  0
   19.3629   -8.3116  -16.7515 N   0  0  0  0  0  0  0  0  0  0  0  0
   19.2340   -6.4399  -15.2301 C   0  0  0  0  0  0  0  0  0  0  0  0
   18.6074   -5.6608  -14.4631 O   0  0  0  0  0  0  0  0  0  0  0  0
   20.5735   -6.1100  -15.4647 N   0  0  0  0  0  0  0  0  0  0  0  0
   21.3049   -5.0515  -14.8330 C   0  0  1  0  0  0  0  0  0  0  0  0
   22.4612   -5.4308  -14.0290 C   0  0  0  0  0  0  0  0  0  0  0  0
   23.4534   -6.3354  -14.6515 C   0  0  0  0  0  0  0  0  0  0  0  0
   24.4073   -5.9018  -15.5952 C   0  0  0  0  0  0  0  0  0  0  0  0
   25.2009   -6.9446  -15.9414 N   0  0  0  0  0  0  0  0  0  0  0  0
   24.8209   -8.0259  -15.2824 C   0  0  0  0  0  0  0  0  0  0  0  0
   25.2832   -9.3191  -15.2832 C   0  0  0  0  0  0  0  0  0  0  0  0
   24.7020  -10.3052  -14.5002 C   0  0  0  0  0  0  0  0  0  0  0  0
   23.6205   -9.9235  -13.7074 C   0  0  0  0  0  0  0  0  0  0  0  0
   23.1492   -8.6296  -13.6985 C   0  0  0  0  0  0  0  0  0  0  0  0
   23.7489   -7.6613  -14.4895 C   0  0  0  0  0  0  0  0  0  0  0  0
   21.5971   -4.0179  -15.8220 C   0  0  0  0  0  0  0  0  0  0  0  0
   21.4477   -4.1260  -17.0700 O   0  0  0  0  0  0  0  0  0  0  0  0
   22.0940   -2.7587  -15.4192 O   0  0  0  0  0  0  0  0  0  0  0  0
  2  1  1  6
  2  9  1  0
  2  3  1  0
  3  4  1  0
  4  5  2  0
  4  8  1  0
  5  6  1  0
  6  7  1  0
  8  7  2  0
  9 10  2  0
 11 12  1  0
 13 12  1  1
 14 13  1  0
 14  9  1  0
 15 17  1  0
 15 13  1  0
 16 15  2  0
 18 19  1  6
 18 17  1  0
 19 20  1  0
 20 21  2  0
 21 22  1  0
 23 22  1  0
 24 23  2  0
 25 24  1  0
 26 27  1  0
 26 25  2  0
 27 28  2  0
 28 20  1  0
 28 23  1  0
 29 31  1  0
 29 18  1  0
 30 29  2  0
M  END
$$$$
