TRY.pdb
     RDKit          3D

 31 31  0  0  1  0  0  0  0  0999 V2000
   14.0060  -17.7383   24.1964 C   0  0  0  0  0  0  0  0  0  0  0  0
   14.9344  -16.7629   23.5046 C   0  0  1  0  0  0  0  0  0  0  0  0
   16.1271  -17.4701   23.2572 O   0  0  0  0  0  0  0  0  0  0  0  0
   14.3071  -16.3987   22.1674 C   0  0  2  0  0  0  0  0  0  0  0  0
   15.2486  -15.5463   21.4861 N   0  0  0  0  0  0  0  0  0  0  0  0
   13.0009  -15.7227   22.3510 C   0  0  0  0  0  0  0  0  0  0  0  0
   13.0024  -14.5082   22.6664 O   0  0  0  0  0  0  0  0  0  0  0  0
    6.9377  -14.1939   16.7428 N   0  0  0  0  0  0  0  0  0  0  0  0
    6.5492  -13.6092   17.9708 C   0  0  0  0  0  0  0  0  0  0  0  0
    5.6991  -12.6627   18.0871 N   0  0  0  0  0  0  0  0  0  0  0  0
    7.1381  -14.0959   19.1945 N   0  0  0  0  0  0  0  0  0  0  0  0
    8.2199  -15.0525   19.1394 C   0  0  0  0  0  0  0  0  0  0  0  0
    8.5324  -15.5216   20.5228 C   0  0  0  0  0  0  0  0  0  0  0  0
    9.9134  -16.0601   20.6844 C   0  0  0  0  0  0  0  0  0  0  0  0
   10.5255  -15.8161   22.0437 C   0  0  2  0  0  0  0  0  0  0  0  0
   11.8167  -16.4778   22.1623 N   0  0  0  0  0  0  0  0  0  0  0  0
    9.6595  -16.2357   23.1583 C   0  0  0  0  0  0  0  0  0  0  0  0
    9.6334  -17.4471   23.4812 O   0  0  0  0  0  0  0  0  0  0  0  0
    5.4970  -12.3314   19.0686 O   0  0  0  0  0  0  0  0  0  0  0  0
   11.8061  -15.0889   30.0220 C   0  0  0  0  0  0  0  0  0  0  0  0
   10.8305  -14.9752   29.0186 C   0  0  0  0  0  0  0  0  0  0  0  0
   10.7585  -13.8532   28.2139 C   0  0  0  0  0  0  0  0  0  0  0  0
    9.8004  -13.7403   27.2278 C   0  0  0  0  0  0  0  0  0  0  0  0
    8.8887  -14.7568   27.0272 C   0  0  0  0  0  0  0  0  0  0  0  0
    7.8447  -14.6816   25.9939 C   0  0  2  0  0  0  0  0  0  0  0  0
    7.9258  -15.7640   24.9492 N   0  0  0  0  0  0  0  0  0  0  0  0
    8.8407  -15.3437   23.9012 C   0  0  0  0  0  0  0  0  0  0  0  0
    6.6109  -16.0294   24.3330 O   0  0  0  0  0  0  0  0  0  0  0  0
    6.3863  -15.6611   23.1538 C   0  0  0  0  0  0  0  0  0  0  0  0
    8.9729  -15.8664   27.8352 C   0  0  0  0  0  0  0  0  0  0  0  0
    9.9294  -15.9915   28.8277 O   0  0  0  0  0  0  0  0  0  0  0  0
  2  1  1  1
  2  4  1  0
  3  2  1  0
  4  5  1  1
  6  7  2  0
  6  4  1  0
  9  8  1  0
 10  9  2  0
 11  9  1  0
 12 11  1  0
 12 13  1  0
 13 14  1  0
 15 14  1  6
 15 16  1  0
 16  6  1  0
 17 26  1  0
 17 15  1  0
 18 17  2  0
 20 19  1  0
 21 20  2  0
 22 21  1  0
 23 29  1  0
 23 22  2  0
 25 24  1  1
 24 23  1  0
 25 26  1  0
 27 25  1  0
 28 27  2  0
 29 30  2  0
 30 20  1  0
 31 27  1  0
M  END
$$$$
