TRY.pdb
     RDKit          3D

 31 31  0  0  1  0  0  0  0  0999 V2000
    7.3226  -11.8933   25.6106 C   0  0  0  0  0  0  0  0  0  0  0  0
    6.6642  -12.8659   26.5658 C   0  0  1  0  0  0  0  0  0  0  0  0
    5.7475  -12.1088   27.3210 O   0  0  0  0  0  0  0  0  0  0  0  0
    5.8837  -13.8723   25.7337 C   0  0  2  0  0  0  0  0  0  0  0  0
    5.1846  -14.7246   26.6622 N   0  0  0  0  0  0  0  0  0  0  0  0
    6.7822  -14.6554   24.8527 C   0  0  0  0  0  0  0  0  0  0  0  0
    7.3571  -15.6602   25.3368 O   0  0  0  0  0  0  0  0  0  0  0  0
    6.8446  -14.7826   16.6866 N   0  0  0  0  0  0  0  0  0  0  0  0
    8.0883  -14.5138   17.3044 C   0  0  0  0  0  0  0  0  0  0  0  0
    8.6875  -13.3862   17.2690 N   0  0  0  0  0  0  0  0  0  0  0  0
    8.7500  -15.5687   18.0327 N   0  0  0  0  0  0  0  0  0  0  0  0
    8.3341  -15.8797   19.3815 C   0  0  0  0  0  0  0  0  0  0  0  0
    8.9004  -14.8624   20.3174 C   0  0  0  0  0  0  0  0  0  0  0  0
    7.9011  -14.2794   21.2581 C   0  0  0  0  0  0  0  0  0  0  0  0
    7.8944  -14.9069   22.6322 C   0  0  2  0  0  0  0  0  0  0  0  0
    6.9486  -14.2334   23.5102 N   0  0  0  0  0  0  0  0  0  0  0  0
    9.2209  -14.9286   23.2711 C   0  0  0  0  0  0  0  0  0  0  0  0
    9.7534  -13.8411   23.5966 O   0  0  0  0  0  0  0  0  0  0  0  0
    9.6365  -13.3443   17.7291 O   0  0  0  0  0  0  0  0  0  0  0  0
    9.7053  -14.2042   30.1052 C   0  0  0  0  0  0  0  0  0  0  0  0
   10.0833  -14.8764   28.9317 C   0  0  0  0  0  0  0  0  0  0  0  0
   10.1830  -14.2091   27.7249 C   0  0  0  0  0  0  0  0  0  0  0  0
   10.5542  -14.8683   26.5714 C   0  0  0  0  0  0  0  0  0  0  0  0
   10.8348  -16.2192   26.6045 C   0  0  0  0  0  0  0  0  0  0  0  0
   11.2284  -16.9684   25.4015 C   0  0  2  0  0  0  0  0  0  0  0  0
   11.2709  -16.1430   24.1420 N   0  0  0  0  0  0  0  0  0  0  0  0
    9.9457  -16.1192   23.5460 C   0  0  0  0  0  0  0  0  0  0  0  0
   12.2108  -16.7041   23.1517 O   0  0  0  0  0  0  0  0  0  0  0  0
   13.4417  -16.7256   23.3988 C   0  0  0  0  0  0  0  0  0  0  0  0
   10.7315  -16.8693   27.8119 C   0  0  0  0  0  0  0  0  0  0  0  0
   10.3602  -16.2190   28.9760 O   0  0  0  0  0  0  0  0  0  0  0  0
  2  1  1  6
  2  4  1  0
  3  2  1  0
  4  5  1  1
  6  7  2  0
  6  4  1  0
  9  8  1  0
 10  9  2  0
 11  9  1  0
 12 11  1  0
 12 13  1  0
 13 14  1  0
 15 14  1  6
 15 16  1  0
 16  6  1  0
 17 26  1  0
 17 15  1  0
 18 17  2  0
 20 19  1  0
 21 20  2  0
 22 21  1  0
 23 29  1  0
 23 22  2  0
 25 24  1  1
 24 23  1  0
 25 26  1  0
 27 25  1  0
 28 27  2  0
 29 30  2  0
 30 20  1  0
 31 27  1  0
M  END
$$$$
