TRY.pdb
     RDKit          3D

 31 31  0  0  1  0  0  0  0  0999 V2000
    7.1459  -12.7923   20.1389 C   0  0  0  0  0  0  0  0  0  0  0  0
    7.8163  -13.0096   18.7991 C   0  0  1  0  0  0  0  0  0  0  0  0
    9.1251  -12.5066   18.9331 O   0  0  0  0  0  0  0  0  0  0  0  0
    7.9013  -14.5102   18.5641 C   0  0  2  0  0  0  0  0  0  0  0  0
    6.5464  -14.9977   18.5027 N   0  0  0  0  0  0  0  0  0  0  0  0
    8.6687  -15.1816   19.6397 C   0  0  0  0  0  0  0  0  0  0  0  0
    8.0487  -15.5537   20.6651 O   0  0  0  0  0  0  0  0  0  0  0  0
   14.7697  -15.9885   17.9009 N   0  0  0  0  0  0  0  0  0  0  0  0
   15.3162  -15.3780   19.0540 C   0  0  0  0  0  0  0  0  0  0  0  0
   15.8603  -14.2224   19.0745 N   0  0  0  0  0  0  0  0  0  0  0  0
   15.2697  -16.0871   20.3095 N   0  0  0  0  0  0  0  0  0  0  0  0
   14.5094  -17.3117   20.4143 C   0  0  0  0  0  0  0  0  0  0  0  0
   13.1488  -17.0015   20.9471 C   0  0  0  0  0  0  0  0  0  0  0  0
   12.2767  -16.2597   19.9919 C   0  0  0  0  0  0  0  0  0  0  0  0
   10.8475  -16.0903   20.4508 C   0  0  2  0  0  0  0  0  0  0  0  0
   10.0615  -15.3706   19.4592 N   0  0  0  0  0  0  0  0  0  0  0  0
   10.7283  -15.4117   21.7522 C   0  0  0  0  0  0  0  0  0  0  0  0
   11.0059  -14.1911   21.8256 O   0  0  0  0  0  0  0  0  0  0  0  0
   16.2765  -13.9160   19.9948 O   0  0  0  0  0  0  0  0  0  0  0  0
    6.2025  -11.5180   27.7924 C   0  0  0  0  0  0  0  0  0  0  0  0
    6.7774  -12.2677   26.7535 C   0  0  0  0  0  0  0  0  0  0  0  0
    5.9917  -12.9071   25.8126 C   0  0  0  0  0  0  0  0  0  0  0  0
    6.5552  -13.6440   24.7916 C   0  0  0  0  0  0  0  0  0  0  0  0
    7.9272  -13.7558   24.6926 C   0  0  0  0  0  0  0  0  0  0  0  0
    8.5761  -14.5346   23.6269 C   0  0  2  0  0  0  0  0  0  0  0  0
    9.7427  -15.3682   24.0893 N   0  0  0  0  0  0  0  0  0  0  0  0
   10.3132  -16.0604   22.9460 C   0  0  0  0  0  0  0  0  0  0  0  0
    9.3324  -16.3803   25.0823 O   0  0  0  0  0  0  0  0  0  0  0  0
    8.8857  -16.0175   26.1983 C   0  0  0  0  0  0  0  0  0  0  0  0
    8.6955  -13.1142   25.6357 C   0  0  0  0  0  0  0  0  0  0  0  0
    8.1421  -12.3720   26.6645 O   0  0  0  0  0  0  0  0  0  0  0  0
  2  1  1  1
  2  4  1  0
  3  2  1  0
  4  5  1  1
  6  7  2  0
  6  4  1  0
  9  8  1  0
 10  9  2  0
 11  9  1  0
 12 11  1  0
 12 13  1  0
 13 14  1  0
 15 14  1  6
 15 16  1  0
 16  6  1  0
 17 26  1  0
 17 15  1  0
 18 17  2  0
 20 19  1  0
 21 20  2  0
 22 21  1  0
 23 29  1  0
 23 22  2  0
 25 24  1  6
 24 23  1  0
 25 26  1  0
 27 25  1  0
 28 27  2  0
 29 30  2  0
 30 20  1  0
 31 27  1  0
M  END
$$$$
