TRY.pdb
     RDKit          3D

 31 31  0  0  1  0  0  0  0  0999 V2000
    9.3802  -12.2563   20.5800 C   0  0  0  0  0  0  0  0  0  0  0  0
    8.0493  -12.4200   19.8774 C   0  0  1  0  0  0  0  0  0  0  0  0
    8.1042  -11.5883   18.7419 O   0  0  0  0  0  0  0  0  0  0  0  0
    7.9495  -13.8640   19.4093 C   0  0  2  0  0  0  0  0  0  0  0  0
    6.7030  -13.9835   18.6959 N   0  0  0  0  0  0  0  0  0  0  0  0
    8.0106  -14.8063   20.5517 C   0  0  0  0  0  0  0  0  0  0  0  0
    6.9336  -15.1371   21.1041 O   0  0  0  0  0  0  0  0  0  0  0  0
   10.7135  -22.2344   20.4193 N   0  0  0  0  0  0  0  0  0  0  0  0
   10.9318  -22.1230   21.8124 C   0  0  0  0  0  0  0  0  0  0  0  0
   10.7012  -23.0509   22.6596 N   0  0  0  0  0  0  0  0  0  0  0  0
   11.4511  -20.8857   22.3422 N   0  0  0  0  0  0  0  0  0  0  0  0
   11.4540  -19.6978   21.5192 C   0  0  0  0  0  0  0  0  0  0  0  0
   10.4585  -18.7235   22.0586 C   0  0  0  0  0  0  0  0  0  0  0  0
   10.3493  -17.4649   21.2665 C   0  0  0  0  0  0  0  0  0  0  0  0
    9.3841  -16.4503   21.8329 C   0  0  2  0  0  0  0  0  0  0  0  0
    9.2782  -15.2871   20.9641 N   0  0  0  0  0  0  0  0  0  0  0  0
    9.7312  -16.0105   23.1947 C   0  0  0  0  0  0  0  0  0  0  0  0
   10.7351  -15.2767   23.3560 O   0  0  0  0  0  0  0  0  0  0  0  0
   10.9161  -22.8290   23.6688 O   0  0  0  0  0  0  0  0  0  0  0  0
    5.7526  -10.6318   25.7508 C   0  0  0  0  0  0  0  0  0  0  0  0
    6.3173  -11.9050   25.9291 C   0  0  0  0  0  0  0  0  0  0  0  0
    5.5914  -13.0528   25.6696 C   0  0  0  0  0  0  0  0  0  0  0  0
    6.1450  -14.3042   25.8446 C   0  0  0  0  0  0  0  0  0  0  0  0
    7.4463  -14.4312   26.2863 C   0  0  0  0  0  0  0  0  0  0  0  0
    8.0797  -15.7422   26.4945 C   0  0  2  0  0  0  0  0  0  0  0  0
    9.3426  -15.9548   25.7010 N   0  0  0  0  0  0  0  0  0  0  0  0
    8.9913  -16.3694   24.3532 C   0  0  0  0  0  0  0  0  0  0  0  0
   10.1937  -17.0029   26.2977 O   0  0  0  0  0  0  0  0  0  0  0  0
   10.3236  -18.1092   25.7181 C   0  0  0  0  0  0  0  0  0  0  0  0
    8.1557  -13.2807   26.5400 C   0  0  0  0  0  0  0  0  0  0  0  0
    7.6115  -12.0197   26.3683 O   0  0  0  0  0  0  0  0  0  0  0  0
  2  1  1  6
  2  4  1  0
  3  2  1  0
  4  5  1  1
  6  7  2  0
  6  4  1  0
  9  8  1  0
 10  9  2  0
 11  9  1  0
 12 11  1  0
 12 13  1  0
 13 14  1  0
 15 14  1  6
 15 16  1  0
 16  6  1  0
 17 26  1  0
 17 15  1  0
 18 17  2  0
 20 19  1  0
 21 20  2  0
 22 21  1  0
 23 29  1  0
 23 22  2  0
 25 24  1  6
 24 23  1  0
 25 26  1  0
 27 25  1  0
 28 27  2  0
 29 30  2  0
 30 20  1  0
 31 27  1  0
M  END
$$$$
