TRY.pdb
     RDKit          3D

 31 31  0  0  1  0  0  0  0  0999 V2000
    7.3049  -11.9819   18.0307 C   0  0  0  0  0  0  0  0  0  0  0  0
    7.2915  -13.2640   18.8357 C   0  0  1  0  0  0  0  0  0  0  0  0
    7.3376  -14.3130   17.8968 O   0  0  0  0  0  0  0  0  0  0  0  0
    8.5686  -13.3033   19.6613 C   0  0  2  0  0  0  0  0  0  0  0  0
    9.6663  -13.3032   18.7273 N   0  0  0  0  0  0  0  0  0  0  0  0
    8.6065  -14.4969   20.5392 C   0  0  0  0  0  0  0  0  0  0  0  0
    7.7445  -14.5919   21.4460 O   0  0  0  0  0  0  0  0  0  0  0  0
   12.8383  -22.3984   19.7648 N   0  0  0  0  0  0  0  0  0  0  0  0
   12.1972  -22.4020   21.0257 C   0  0  0  0  0  0  0  0  0  0  0  0
   12.1217  -23.4163   21.7986 N   0  0  0  0  0  0  0  0  0  0  0  0
   11.5761  -21.1885   21.4980 N   0  0  0  0  0  0  0  0  0  0  0  0
   11.4526  -20.0537   20.6117 C   0  0  0  0  0  0  0  0  0  0  0  0
   10.6846  -18.9733   21.3005 C   0  0  0  0  0  0  0  0  0  0  0  0
   10.4682  -17.7558   20.4673 C   0  0  0  0  0  0  0  0  0  0  0  0
    9.7034  -16.6518   21.1587 C   0  0  2  0  0  0  0  0  0  0  0  0
    9.6111  -15.4705   20.3132 N   0  0  0  0  0  0  0  0  0  0  0  0
   10.2740  -16.2735   22.4625 C   0  0  0  0  0  0  0  0  0  0  0  0
   11.4311  -15.7918   22.4995 O   0  0  0  0  0  0  0  0  0  0  0  0
   11.5952  -23.2790   22.7030 O   0  0  0  0  0  0  0  0  0  0  0  0
   10.7067  -14.7197   31.2526 C   0  0  0  0  0  0  0  0  0  0  0  0
   10.3118  -14.9198   29.9201 C   0  0  0  0  0  0  0  0  0  0  0  0
    9.9229  -16.1674   29.4683 C   0  0  0  0  0  0  0  0  0  0  0  0
    9.5348  -16.3653   28.1594 C   0  0  0  0  0  0  0  0  0  0  0  0
    9.5287  -15.3094   27.2707 C   0  0  0  0  0  0  0  0  0  0  0  0
    9.1296  -15.4701   25.8642 C   0  0  1  0  0  0  0  0  0  0  0  0
   10.1737  -16.1180   24.9925 N   0  0  0  0  0  0  0  0  0  0  0  0
    9.5880  -16.4216   23.6977 C   0  0  0  0  0  0  0  0  0  0  0  0
   10.6712  -17.3778   25.5793 O   0  0  0  0  0  0  0  0  0  0  0  0
   10.0373  -18.4464   25.3978 C   0  0  0  0  0  0  0  0  0  0  0  0
    9.9178  -14.0747   27.7346 C   0  0  0  0  0  0  0  0  0  0  0  0
   10.3092  -13.8634   29.0453 O   0  0  0  0  0  0  0  0  0  0  0  0
  2  1  1  6
  2  4  1  0
  3  2  1  0
  4  5  1  6
  6  7  2  0
  6  4  1  0
  9  8  1  0
 10  9  2  0
 11  9  1  0
 12 11  1  0
 12 13  1  0
 13 14  1  0
 15 14  1  6
 15 16  1  0
 16  6  1  0
 17 26  1  0
 17 15  1  0
 18 17  2  0
 20 19  1  0
 21 20  2  0
 22 21  1  0
 23 29  1  0
 23 22  2  0
 25 24  1  6
 24 23  1  0
 25 26  1  0
 27 25  1  0
 28 27  2  0
 29 30  2  0
 30 20  1  0
 31 27  1  0
M  END
$$$$
