TRY.pdb
     RDKit          3D

 31 31  0  0  1  0  0  0  0  0999 V2000
   10.9297  -21.8264   22.1012 C   0  0  0  0  0  0  0  0  0  0  0  0
   10.7167  -20.3822   22.5023 C   0  0  1  0  0  0  0  0  0  0  0  0
   11.9339  -19.9515   23.0651 O   0  0  0  0  0  0  0  0  0  0  0  0
   10.4667  -19.5832   21.2322 C   0  0  2  0  0  0  0  0  0  0  0  0
   11.6263  -19.7615   20.3951 N   0  0  0  0  0  0  0  0  0  0  0  0
   10.2332  -18.1509   21.5337 C   0  0  0  0  0  0  0  0  0  0  0  0
   11.2145  -17.4527   21.8858 O   0  0  0  0  0  0  0  0  0  0  0  0
    8.3244  -14.1247   17.0123 N   0  0  0  0  0  0  0  0  0  0  0  0
    7.8800  -12.9389   17.6426 C   0  0  0  0  0  0  0  0  0  0  0  0
    8.3670  -11.7774   17.4292 N   0  0  0  0  0  0  0  0  0  0  0  0
    6.8022  -13.0165   18.5982 N   0  0  0  0  0  0  0  0  0  0  0  0
    6.5267  -14.2665   19.2693 C   0  0  0  0  0  0  0  0  0  0  0  0
    7.6034  -14.5354   20.2692 C   0  0  0  0  0  0  0  0  0  0  0  0
    7.3824  -15.7640   21.0846 C   0  0  0  0  0  0  0  0  0  0  0  0
    8.6128  -16.2709   21.7995 C   0  0  2  0  0  0  0  0  0  0  0  0
    8.9171  -17.6402   21.4103 N   0  0  0  0  0  0  0  0  0  0  0  0
    8.5098  -16.1934   23.2664 C   0  0  0  0  0  0  0  0  0  0  0  0
    7.9438  -17.1270   23.8831 O   0  0  0  0  0  0  0  0  0  0  0  0
    8.0084  -10.9980   18.0440 O   0  0  0  0  0  0  0  0  0  0  0  0
   10.2142  -15.2404   31.7623 C   0  0  0  0  0  0  0  0  0  0  0  0
   10.2260  -15.1592   30.3605 C   0  0  0  0  0  0  0  0  0  0  0  0
   10.3295  -13.9409   29.7149 C   0  0  0  0  0  0  0  0  0  0  0  0
   10.3411  -13.8598   28.3378 C   0  0  0  0  0  0  0  0  0  0  0  0
   10.2483  -15.0061   27.5749 C   0  0  0  0  0  0  0  0  0  0  0  0
   10.2498  -14.9720   26.1044 C   0  0  2  0  0  0  0  0  0  0  0  0
    8.8790  -15.0122   25.4808 N   0  0  0  0  0  0  0  0  0  0  0  0
    9.0176  -15.1139   24.0378 C   0  0  0  0  0  0  0  0  0  0  0  0
    8.1041  -13.7929   25.7839 O   0  0  0  0  0  0  0  0  0  0  0  0
    8.0693  -12.8508   24.9545 C   0  0  0  0  0  0  0  0  0  0  0  0
   10.1460  -16.2102   28.2311 C   0  0  0  0  0  0  0  0  0  0  0  0
   10.1333  -16.3047   29.6119 O   0  0  0  0  0  0  0  0  0  0  0  0
  2  1  1  6
  2  4  1  0
  3  2  1  0
  4  5  1  6
  6  7  2  0
  6  4  1  0
  9  8  1  0
 10  9  2  0
 11  9  1  0
 12 11  1  0
 12 13  1  0
 13 14  1  0
 15 14  1  6
 15 16  1  0
 16  6  1  0
 17 26  1  0
 17 15  1  0
 18 17  2  0
 20 19  1  0
 21 20  2  0
 22 21  1  0
 23 29  1  0
 23 22  2  0
 25 24  1  1
 24 23  1  0
 25 26  1  0
 27 25  1  0
 28 27  2  0
 29 30  2  0
 30 20  1  0
 31 27  1  0
M  END
$$$$
