TRY.pdb
     RDKit          3D

 31 31  0  0  1  0  0  0  0  0999 V2000
   13.0140  -18.1301   20.4216 C   0  0  0  0  0  0  0  0  0  0  0  0
   13.9843  -17.1058   19.8730 C   0  0  1  0  0  0  0  0  0  0  0  0
   14.7366  -17.7723   18.8862 O   0  0  0  0  0  0  0  0  0  0  0  0
   13.1687  -16.0136   19.1977 C   0  0  2  0  0  0  0  0  0  0  0  0
   14.1094  -15.1328   18.5522 N   0  0  0  0  0  0  0  0  0  0  0  0
   12.3297  -15.2836   20.1774 C   0  0  0  0  0  0  0  0  0  0  0  0
   12.8917  -14.4630   20.9423 O   0  0  0  0  0  0  0  0  0  0  0  0
    7.8945  -15.1437   16.7688 N   0  0  0  0  0  0  0  0  0  0  0  0
    7.6031  -13.7782   16.5419 C   0  0  0  0  0  0  0  0  0  0  0  0
    7.6510  -13.2059   15.4009 N   0  0  0  0  0  0  0  0  0  0  0  0
    7.2222  -12.9493   17.6594 N   0  0  0  0  0  0  0  0  0  0  0  0
    7.1515  -13.5202   18.9852 C   0  0  0  0  0  0  0  0  0  0  0  0
    8.5328  -13.6493   19.5392 C   0  0  0  0  0  0  0  0  0  0  0  0
    8.6727  -14.7050   20.5828 C   0  0  0  0  0  0  0  0  0  0  0  0
   10.0683  -14.8518   21.1419 C   0  0  2  0  0  0  0  0  0  0  0  0
   10.9374  -15.5464   20.2032 N   0  0  0  0  0  0  0  0  0  0  0  0
   10.1072  -15.5410   22.4426 C   0  0  0  0  0  0  0  0  0  0  0  0
    9.9636  -16.7863   22.4718 O   0  0  0  0  0  0  0  0  0  0  0  0
    7.3751  -12.1874   15.3747 O   0  0  0  0  0  0  0  0  0  0  0  0
   10.9249  -16.6069   31.3141 C   0  0  0  0  0  0  0  0  0  0  0  0
   10.8504  -16.1075   30.0038 C   0  0  0  0  0  0  0  0  0  0  0  0
   11.3233  -16.8398   28.9306 C   0  0  0  0  0  0  0  0  0  0  0  0
   11.2508  -16.3502   27.6429 C   0  0  0  0  0  0  0  0  0  0  0  0
   10.6991  -15.1081   27.4034 C   0  0  0  0  0  0  0  0  0  0  0  0
   10.6046  -14.5393   26.0503 C   0  0  2  0  0  0  0  0  0  0  0  0
   10.3133  -15.5493   24.9710 N   0  0  0  0  0  0  0  0  0  0  0  0
   10.2997  -14.8761   23.6832 C   0  0  0  0  0  0  0  0  0  0  0  0
    9.0005  -16.1954   25.1664 O   0  0  0  0  0  0  0  0  0  0  0  0
    7.9615  -15.6500   24.7197 C   0  0  0  0  0  0  0  0  0  0  0  0
   10.2330  -14.3916   28.4807 C   0  0  0  0  0  0  0  0  0  0  0  0
   10.3000  -14.8719   29.7770 O   0  0  0  0  0  0  0  0  0  0  0  0
  2  1  1  6
  2  4  1  0
  3  2  1  0
  4  5  1  1
  6  7  2  0
  6  4  1  0
  9  8  1  0
 10  9  2  0
 11  9  1  0
 12 11  1  0
 12 13  1  0
 13 14  1  0
 15 14  1  6
 15 16  1  0
 16  6  1  0
 17 26  1  0
 17 15  1  0
 18 17  2  0
 20 19  1  0
 21 20  2  0
 22 21  1  0
 23 29  1  0
 23 22  2  0
 25 24  1  6
 24 23  1  0
 25 26  1  0
 27 25  1  0
 28 27  2  0
 29 30  2  0
 30 20  1  0
 31 27  1  0
M  END
$$$$
