TRY.pdb
     RDKit          3D

 31 31  0  0  1  0  0  0  0  0999 V2000
    6.2675  -18.4312   25.1592 C   0  0  0  0  0  0  0  0  0  0  0  0
    6.7697  -19.5291   24.2459 C   0  0  1  0  0  0  0  0  0  0  0  0
    5.8309  -20.5747   24.3421 O   0  0  0  0  0  0  0  0  0  0  0  0
    6.7449  -18.9922   22.8228 C   0  0  2  0  0  0  0  0  0  0  0  0
    6.9859  -20.1150   21.9518 N   0  0  0  0  0  0  0  0  0  0  0  0
    7.7610  -17.9307   22.6294 C   0  0  0  0  0  0  0  0  0  0  0  0
    8.9690  -18.2679   22.5904 O   0  0  0  0  0  0  0  0  0  0  0  0
    8.8180  -14.1038   16.4215 N   0  0  0  0  0  0  0  0  0  0  0  0
    8.6725  -13.3631   17.6177 C   0  0  0  0  0  0  0  0  0  0  0  0
    9.6241  -12.7555   18.2154 N   0  0  0  0  0  0  0  0  0  0  0  0
    7.3688  -13.2697   18.2284 N   0  0  0  0  0  0  0  0  0  0  0  0
    7.2571  -13.1026   19.6596 C   0  0  0  0  0  0  0  0  0  0  0  0
    7.8525  -14.2910   20.3413 C   0  0  0  0  0  0  0  0  0  0  0  0
    7.7155  -14.2718   21.8259 C   0  0  0  0  0  0  0  0  0  0  0  0
    8.2746  -15.4903   22.5221 C   0  0  2  0  0  0  0  0  0  0  0  0
    7.3211  -16.5900   22.4982 N   0  0  0  0  0  0  0  0  0  0  0  0
    8.6847  -15.2320   23.9126 C   0  0  0  0  0  0  0  0  0  0  0  0
    8.2814  -14.1881   24.4782 O   0  0  0  0  0  0  0  0  0  0  0  0
    9.3723  -12.2533   19.1089 O   0  0  0  0  0  0  0  0  0  0  0  0
    5.7612  -10.9506   26.1911 C   0  0  0  0  0  0  0  0  0  0  0  0
    6.4598  -12.1577   26.3542 C   0  0  0  0  0  0  0  0  0  0  0  0
    5.9091  -13.3626   25.9586 C   0  0  0  0  0  0  0  0  0  0  0  0
    6.5944  -14.5492   26.1184 C   0  0  0  0  0  0  0  0  0  0  0  0
    7.8541  -14.5519   26.6821 C   0  0  0  0  0  0  0  0  0  0  0  0
    8.6225  -15.7904   26.8797 C   0  0  2  0  0  0  0  0  0  0  0  0
    9.8798  -15.8797   26.0545 N   0  0  0  0  0  0  0  0  0  0  0  0
    9.5193  -16.1018   24.6643 C   0  0  0  0  0  0  0  0  0  0  0  0
   10.7421  -16.9956   26.4903 O   0  0  0  0  0  0  0  0  0  0  0  0
   11.1368  -17.0540   27.6808 C   0  0  0  0  0  0  0  0  0  0  0  0
    8.3887  -13.3459   27.0706 C   0  0  0  0  0  0  0  0  0  0  0  0
    7.7113  -12.1489   26.9155 O   0  0  0  0  0  0  0  0  0  0  0  0
  2  1  1  1
  2  4  1  0
  3  2  1  0
  4  5  1  6
  6  7  2  0
  6  4  1  0
  9  8  1  0
 10  9  2  0
 11  9  1  0
 12 11  1  0
 12 13  1  0
 13 14  1  0
 15 14  1  1
 15 16  1  0
 16  6  1  0
 17 26  1  0
 17 15  1  0
 18 17  2  0
 20 19  1  0
 21 20  2  0
 22 21  1  0
 23 29  1  0
 23 22  2  0
 25 24  1  6
 24 23  1  0
 25 26  1  0
 27 25  1  0
 28 27  2  0
 29 30  2  0
 30 20  1  0
 31 27  1  0
M  END
$$$$
