TRY.pdb
     RDKit          3D

 31 31  0  0  1  0  0  0  0  0999 V2000
   10.2386  -15.3090   19.1180 C   0  0  0  0  0  0  0  0  0  0  0  0
    9.4152  -14.0886   18.7652 C   0  0  1  0  0  0  0  0  0  0  0  0
    9.6333  -13.8557   17.3933 O   0  0  0  0  0  0  0  0  0  0  0  0
    7.9503  -14.4478   18.9634 C   0  0  2  0  0  0  0  0  0  0  0  0
    7.1820  -13.3047   18.5389 N   0  0  0  0  0  0  0  0  0  0  0  0
    7.6667  -14.7950   20.3761 C   0  0  0  0  0  0  0  0  0  0  0  0
    7.6705  -13.8707   21.2247 O   0  0  0  0  0  0  0  0  0  0  0  0
    5.9224  -19.8132   26.4266 N   0  0  0  0  0  0  0  0  0  0  0  0
    7.1041  -20.4582   25.9926 C   0  0  0  0  0  0  0  0  0  0  0  0
    8.0207  -20.8929   26.7690 N   0  0  0  0  0  0  0  0  0  0  0  0
    7.3160  -20.6527   24.5789 N   0  0  0  0  0  0  0  0  0  0  0  0
    6.4364  -20.0135   23.6268 C   0  0  0  0  0  0  0  0  0  0  0  0
    6.7617  -18.5572   23.5579 C   0  0  0  0  0  0  0  0  0  0  0  0
    6.8130  -18.0110   22.1714 C   0  0  0  0  0  0  0  0  0  0  0  0
    7.2248  -16.5603   22.0847 C   0  0  2  0  0  0  0  0  0  0  0  0
    7.4058  -16.1497   20.6999 N   0  0  0  0  0  0  0  0  0  0  0  0
    8.4468  -16.2533   22.8469 C   0  0  0  0  0  0  0  0  0  0  0  0
    9.5606  -16.5264   22.3399 O   0  0  0  0  0  0  0  0  0  0  0  0
    8.8597  -21.3334   26.3042 O   0  0  0  0  0  0  0  0  0  0  0  0
    4.8248  -12.0317   27.6227 C   0  0  0  0  0  0  0  0  0  0  0  0
    6.0142  -12.4741   27.0217 C   0  0  0  0  0  0  0  0  0  0  0  0
    7.0888  -12.8931   27.7841 C   0  0  0  0  0  0  0  0  0  0  0  0
    8.2579  -13.3278   27.1948 C   0  0  0  0  0  0  0  0  0  0  0  0
    8.3743  -13.3513   25.8198 C   0  0  0  0  0  0  0  0  0  0  0  0
    9.6012  -13.7998   25.1439 C   0  0  1  0  0  0  0  0  0  0  0  0
    9.6476  -15.2782   24.8576 N   0  0  0  0  0  0  0  0  0  0  0  0
    8.4443  -15.6594   24.1375 C   0  0  0  0  0  0  0  0  0  0  0  0
    9.7126  -16.0741   26.0990 O   0  0  0  0  0  0  0  0  0  0  0  0
   10.6719  -15.9173   26.8938 C   0  0  0  0  0  0  0  0  0  0  0  0
    7.2972  -12.9317   25.0749 C   0  0  0  0  0  0  0  0  0  0  0  0
    6.1191  -12.4935   25.6542 O   0  0  0  0  0  0  0  0  0  0  0  0
  2  1  1  6
  2  4  1  0
  3  2  1  0
  4  5  1  1
  6  7  2  0
  6  4  1  0
  9  8  1  0
 10  9  2  0
 11  9  1  0
 12 11  1  0
 12 13  1  0
 13 14  1  0
 15 14  1  6
 15 16  1  0
 16  6  1  0
 17 26  1  0
 17 15  1  0
 18 17  2  0
 20 19  1  0
 21 20  2  0
 22 21  1  0
 23 29  1  0
 23 22  2  0
 25 24  1  6
 24 23  1  0
 25 26  1  0
 27 25  1  0
 28 27  2  0
 29 30  2  0
 30 20  1  0
 31 27  1  0
M  END
$$$$
