TRY.pdb
     RDKit          3D

 31 31  0  0  1  0  0  0  0  0999 V2000
    7.8615  -11.8753   20.1605 C   0  0  0  0  0  0  0  0  0  0  0  0
    8.2289  -12.9863   21.1209 C   0  0  1  0  0  0  0  0  0  0  0  0
    7.1666  -13.0714   22.0418 O   0  0  0  0  0  0  0  0  0  0  0  0
    8.2804  -14.2833   20.3276 C   0  0  2  0  0  0  0  0  0  0  0  0
    7.0534  -14.3581   19.5752 N   0  0  0  0  0  0  0  0  0  0  0  0
    8.4388  -15.4555   21.2206 C   0  0  0  0  0  0  0  0  0  0  0  0
    7.4136  -16.1144   21.5195 O   0  0  0  0  0  0  0  0  0  0  0  0
   10.6683  -21.0173   17.3797 N   0  0  0  0  0  0  0  0  0  0  0  0
   10.8750  -20.5303   18.6916 C   0  0  0  0  0  0  0  0  0  0  0  0
   10.1907  -20.8805   19.7119 N   0  0  0  0  0  0  0  0  0  0  0  0
   11.9258  -19.5695   18.9235 N   0  0  0  0  0  0  0  0  0  0  0  0
   12.1731  -19.0856   20.2627 C   0  0  0  0  0  0  0  0  0  0  0  0
   10.9574  -18.3748   20.7609 C   0  0  0  0  0  0  0  0  0  0  0  0
   11.1291  -17.7435   22.1008 C   0  0  0  0  0  0  0  0  0  0  0  0
    9.9476  -16.9231   22.5624 C   0  0  2  0  0  0  0  0  0  0  0  0
    9.7362  -15.7751   21.6927 N   0  0  0  0  0  0  0  0  0  0  0  0
   10.0649  -16.4626   23.9562 C   0  0  0  0  0  0  0  0  0  0  0  0
   10.8204  -15.4952   24.2121 O   0  0  0  0  0  0  0  0  0  0  0  0
   10.4775  -20.4596   20.6363 O   0  0  0  0  0  0  0  0  0  0  0  0
    6.1394  -11.1577   25.4548 C   0  0  0  0  0  0  0  0  0  0  0  0
    6.6320  -12.4180   25.8297 C   0  0  0  0  0  0  0  0  0  0  0  0
    7.7391  -12.5392   26.6490 C   0  0  0  0  0  0  0  0  0  0  0  0
    8.2241  -13.7769   27.0179 C   0  0  0  0  0  0  0  0  0  0  0  0
    7.6048  -14.9259   26.5698 C   0  0  0  0  0  0  0  0  0  0  0  0
    8.0869  -16.2682   26.9295 C   0  0  2  0  0  0  0  0  0  0  0  0
    9.4669  -16.5902   26.4182 N   0  0  0  0  0  0  0  0  0  0  0  0
    9.3672  -17.0525   25.0441 C   0  0  0  0  0  0  0  0  0  0  0  0
   10.1117  -17.6521   27.2154 O   0  0  0  0  0  0  0  0  0  0  0  0
   10.3194  -18.7801   26.7043 C   0  0  0  0  0  0  0  0  0  0  0  0
    6.5048  -14.7895   25.7559 C   0  0  0  0  0  0  0  0  0  0  0  0
    6.0087  -13.5536   25.3789 O   0  0  0  0  0  0  0  0  0  0  0  0
  2  1  1  6
  2  4  1  0
  3  2  1  0
  4  5  1  1
  6  7  2  0
  6  4  1  0
  9  8  1  0
 10  9  2  0
 11  9  1  0
 12 11  1  0
 12 13  1  0
 13 14  1  0
 15 14  1  6
 15 16  1  0
 16  6  1  0
 17 26  1  0
 17 15  1  0
 18 17  2  0
 20 19  1  0
 21 20  2  0
 22 21  1  0
 23 29  1  0
 23 22  2  0
 25 24  1  6
 24 23  1  0
 25 26  1  0
 27 25  1  0
 28 27  2  0
 29 30  2  0
 30 20  1  0
 31 27  1  0
M  END
$$$$
