TRY.pdb
     RDKit          3D

 31 31  0  0  1  0  0  0  0  0999 V2000
    9.4605  -12.9958   19.7095 C   0  0  0  0  0  0  0  0  0  0  0  0
    8.3046  -13.4243   18.8308 C   0  0  1  0  0  0  0  0  0  0  0  0
    8.6824  -13.1102   17.5108 O   0  0  0  0  0  0  0  0  0  0  0  0
    8.1741  -14.9356   18.9452 C   0  0  2  0  0  0  0  0  0  0  0  0
    7.1806  -15.3401   17.9826 N   0  0  0  0  0  0  0  0  0  0  0  0
    7.7922  -15.3413   20.3186 C   0  0  0  0  0  0  0  0  0  0  0  0
    6.7891  -14.7963   20.8392 O   0  0  0  0  0  0  0  0  0  0  0  0
    6.7196  -22.0470   22.6358 N   0  0  0  0  0  0  0  0  0  0  0  0
    5.8445  -21.2620   23.4223 C   0  0  0  0  0  0  0  0  0  0  0  0
    5.3981  -21.6019   24.5699 N   0  0  0  0  0  0  0  0  0  0  0  0
    5.4087  -19.9825   22.9182 N   0  0  0  0  0  0  0  0  0  0  0  0
    5.7813  -19.5723   21.5834 C   0  0  0  0  0  0  0  0  0  0  0  0
    6.3477  -18.1910   21.6337 C   0  0  0  0  0  0  0  0  0  0  0  0
    7.6339  -18.0885   22.3811 C   0  0  0  0  0  0  0  0  0  0  0  0
    8.2728  -16.7202   22.3431 C   0  0  2  0  0  0  0  0  0  0  0  0
    8.5757  -16.3221   20.9761 N   0  0  0  0  0  0  0  0  0  0  0  0
    9.4939  -16.6226   23.1603 C   0  0  0  0  0  0  0  0  0  0  0  0
   10.1204  -17.6723   23.4394 O   0  0  0  0  0  0  0  0  0  0  0  0
    4.8181  -20.8824   25.0798 O   0  0  0  0  0  0  0  0  0  0  0  0
    5.2065  -10.9380   27.9282 C   0  0  0  0  0  0  0  0  0  0  0  0
    5.9101  -11.7206   26.9987 C   0  0  0  0  0  0  0  0  0  0  0  0
    5.5942  -13.0518   26.7989 C   0  0  0  0  0  0  0  0  0  0  0  0
    6.2848  -13.8217   25.8860 C   0  0  0  0  0  0  0  0  0  0  0  0
    7.3132  -13.2691   25.1500 C   0  0  0  0  0  0  0  0  0  0  0  0
    8.0836  -14.0492   24.1695 C   0  0  1  0  0  0  0  0  0  0  0  0
    9.3769  -14.6103   24.7005 N   0  0  0  0  0  0  0  0  0  0  0  0
   10.0144  -15.3986   23.6593 C   0  0  0  0  0  0  0  0  0  0  0  0
    9.1552  -15.4846   25.8690 O   0  0  0  0  0  0  0  0  0  0  0  0
    9.6614  -15.1867   26.9788 C   0  0  0  0  0  0  0  0  0  0  0  0
    7.6157  -11.9441   25.3596 C   0  0  0  0  0  0  0  0  0  0  0  0
    6.9303  -11.1613   26.2723 O   0  0  0  0  0  0  0  0  0  0  0  0
  2  1  1  1
  2  4  1  0
  3  2  1  0
  4  5  1  6
  6  7  2  0
  6  4  1  0
  9  8  1  0
 10  9  2  0
 11  9  1  0
 12 11  1  0
 12 13  1  0
 13 14  1  0
 15 14  1  6
 15 16  1  0
 16  6  1  0
 17 26  1  0
 17 15  1  0
 18 17  2  0
 20 19  1  0
 21 20  2  0
 22 21  1  0
 23 29  1  0
 23 22  2  0
 25 24  1  6
 24 23  1  0
 25 26  1  0
 27 25  1  0
 28 27  2  0
 29 30  2  0
 30 20  1  0
 31 27  1  0
M  END
$$$$
