TRY.pdb
     RDKit          3D

 31 31  0  0  1  0  0  0  0  0999 V2000
    8.2756  -12.6142   18.1786 C   0  0  0  0  0  0  0  0  0  0  0  0
    8.7555  -13.5268   19.2871 C   0  0  1  0  0  0  0  0  0  0  0  0
    8.4861  -12.8495   20.4923 O   0  0  0  0  0  0  0  0  0  0  0  0
    7.9061  -14.7881   19.2460 C   0  0  2  0  0  0  0  0  0  0  0  0
    6.5296  -14.3610   19.2383 N   0  0  0  0  0  0  0  0  0  0  0  0
    8.1921  -15.6685   20.4035 C   0  0  0  0  0  0  0  0  0  0  0  0
    7.4034  -15.6383   21.3789 O   0  0  0  0  0  0  0  0  0  0  0  0
   11.7976  -22.5136   23.4515 N   0  0  0  0  0  0  0  0  0  0  0  0
   11.4068  -22.5204   22.0921 C   0  0  0  0  0  0  0  0  0  0  0  0
   10.8879  -23.5212   21.4912 N   0  0  0  0  0  0  0  0  0  0  0  0
   11.5954  -21.3268   21.3041 N   0  0  0  0  0  0  0  0  0  0  0  0
   12.2681  -20.1851   21.8808 C   0  0  0  0  0  0  0  0  0  0  0  0
   11.2528  -19.1599   22.2675 C   0  0  0  0  0  0  0  0  0  0  0  0
   10.7759  -18.3187   21.1325 C   0  0  0  0  0  0  0  0  0  0  0  0
    9.7291  -17.2963   21.5076 C   0  0  2  0  0  0  0  0  0  0  0  0
    9.3389  -16.4996   20.3534 N   0  0  0  0  0  0  0  0  0  0  0  0
   10.1515  -16.4002   22.5970 C   0  0  0  0  0  0  0  0  0  0  0  0
   10.7969  -15.3637   22.3119 O   0  0  0  0  0  0  0  0  0  0  0  0
   10.6927  -23.4005   20.4610 O   0  0  0  0  0  0  0  0  0  0  0  0
    6.1522  -11.0777   27.9917 C   0  0  0  0  0  0  0  0  0  0  0  0
    6.6605  -12.0231   27.0864 C   0  0  0  0  0  0  0  0  0  0  0  0
    6.0848  -12.2048   25.8425 C   0  0  0  0  0  0  0  0  0  0  0  0
    6.5832  -13.1334   24.9523 C   0  0  0  0  0  0  0  0  0  0  0  0
    7.6761  -13.9040   25.2934 C   0  0  0  0  0  0  0  0  0  0  0  0
    8.2407  -14.9114   24.3825 C   0  0  1  0  0  0  0  0  0  0  0  0
    9.4722  -15.6025   24.9074 N   0  0  0  0  0  0  0  0  0  0  0  0
    9.8706  -16.6383   23.9691 C   0  0  0  0  0  0  0  0  0  0  0  0
    9.2269  -16.2376   26.2171 O   0  0  0  0  0  0  0  0  0  0  0  0
    8.6819  -17.3674   26.2729 C   0  0  0  0  0  0  0  0  0  0  0  0
    8.2379  -13.7119   26.5338 C   0  0  0  0  0  0  0  0  0  0  0  0
    7.7472  -12.7836   27.4356 O   0  0  0  0  0  0  0  0  0  0  0  0
  2  1  1  6
  2  4  1  0
  3  2  1  0
  4  5  1  1
  6  7  2  0
  6  4  1  0
  9  8  1  0
 10  9  2  0
 11  9  1  0
 12 11  1  0
 12 13  1  0
 13 14  1  0
 15 14  1  6
 15 16  1  0
 16  6  1  0
 17 26  1  0
 17 15  1  0
 18 17  2  0
 20 19  1  0
 21 20  2  0
 22 21  1  0
 23 29  1  0
 23 22  2  0
 25 24  1  6
 24 23  1  0
 25 26  1  0
 27 25  1  0
 28 27  2  0
 29 30  2  0
 30 20  1  0
 31 27  1  0
M  END
$$$$
