TRY.pdb
     RDKit          3D

 31 31  0  0  1  0  0  0  0  0999 V2000
   10.5651  -14.8561   19.4632 C   0  0  0  0  0  0  0  0  0  0  0  0
    9.8441  -13.5389   19.2704 C   0  0  1  0  0  0  0  0  0  0  0  0
   10.3440  -12.9939   18.0717 O   0  0  0  0  0  0  0  0  0  0  0  0
    8.3667  -13.8460   19.0778 C   0  0  2  0  0  0  0  0  0  0  0  0
    7.7220  -12.5974   18.7575 N   0  0  0  0  0  0  0  0  0  0  0  0
    7.7810  -14.4604   20.2928 C   0  0  0  0  0  0  0  0  0  0  0  0
    7.7306  -13.7700   21.3393 O   0  0  0  0  0  0  0  0  0  0  0  0
    5.7539  -21.2445   24.9232 N   0  0  0  0  0  0  0  0  0  0  0  0
    5.3802  -21.7085   23.6403 C   0  0  0  0  0  0  0  0  0  0  0  0
    4.7383  -22.7904   23.4185 N   0  0  0  0  0  0  0  0  0  0  0  0
    5.7357  -20.9251   22.4822 N   0  0  0  0  0  0  0  0  0  0  0  0
    6.4563  -19.6836   22.6492 C   0  0  0  0  0  0  0  0  0  0  0  0
    5.5994  -18.5515   22.1851 C   0  0  0  0  0  0  0  0  0  0  0  0
    6.1640  -17.7959   21.0302 C   0  0  0  0  0  0  0  0  0  0  0  0
    6.7725  -16.4616   21.3923 C   0  0  2  0  0  0  0  0  0  0  0  0
    7.3074  -15.7937   20.2147 N   0  0  0  0  0  0  0  0  0  0  0  0
    7.8255  -16.5584   22.4171 C   0  0  0  0  0  0  0  0  0  0  0  0
    8.9623  -16.0949   22.1620 O   0  0  0  0  0  0  0  0  0  0  0  0
    4.5874  -23.0475   22.4060 O   0  0  0  0  0  0  0  0  0  0  0  0
   10.0895  -12.9940   29.8719 C   0  0  0  0  0  0  0  0  0  0  0  0
    9.6190  -13.5540   28.6733 C   0  0  0  0  0  0  0  0  0  0  0  0
   10.4101  -14.4015   27.9200 C   0  0  0  0  0  0  0  0  0  0  0  0
    9.9489  -14.9522   26.7422 C   0  0  0  0  0  0  0  0  0  0  0  0
    8.6767  -14.6623   26.2926 C   0  0  0  0  0  0  0  0  0  0  0  0
    8.1412  -15.2187   25.0408 C   0  0  1  0  0  0  0  0  0  0  0  0
    8.3062  -16.7099   24.9033 N   0  0  0  0  0  0  0  0  0  0  0  0
    7.6331  -17.1516   23.6936 C   0  0  0  0  0  0  0  0  0  0  0  0
    7.7178  -17.4332   26.0477 O   0  0  0  0  0  0  0  0  0  0  0  0
    8.3048  -17.4324   27.1576 C   0  0  0  0  0  0  0  0  0  0  0  0
    7.9017  -13.8179   27.0526 C   0  0  0  0  0  0  0  0  0  0  0  0
    8.3529  -13.2593   28.2358 O   0  0  0  0  0  0  0  0  0  0  0  0
  2  1  1  6
  2  4  1  0
  3  2  1  0
  4  5  1  1
  6  7  2  0
  6  4  1  0
  9  8  1  0
 10  9  2  0
 11  9  1  0
 12 11  1  0
 12 13  1  0
 13 14  1  0
 15 14  1  6
 15 16  1  0
 16  6  1  0
 17 26  1  0
 17 15  1  0
 18 17  2  0
 20 19  1  0
 21 20  2  0
 22 21  1  0
 23 29  1  0
 23 22  2  0
 25 24  1  6
 24 23  1  0
 25 26  1  0
 27 25  1  0
 28 27  2  0
 29 30  2  0
 30 20  1  0
 31 27  1  0
M  END
$$$$
