TQI.pdb
     RDKit          3D

 25 24  0  0  1  0  0  0  0  0999 V2000
    8.9610  -12.4209   19.9771 C   0  0  0  0  0  0  0  0  0  0  0  0
    8.1943  -13.1453   18.8802 C   0  0  1  0  0  0  0  0  0  0  0  0
    8.5405  -12.6318   17.6306 O   0  0  0  0  0  0  0  0  0  0  0  0
    8.5962  -14.6096   18.8893 C   0  0  2  0  0  0  0  0  0  0  0  0
    7.9887  -15.3240   17.7965 N   0  0  0  0  0  0  0  0  0  0  0  0
    8.2857  -15.1839   20.2032 C   0  0  0  0  0  0  0  0  0  0  0  0
    7.0736  -15.3703   20.4892 O   0  0  0  0  0  0  0  0  0  0  0  0
   10.8482  -20.0280   22.6254 N   0  0  0  0  0  0  0  0  0  0  0  0
   10.1118  -19.7786   21.4353 C   0  0  0  0  0  0  0  0  0  0  0  0
   10.0592  -20.6773   20.5286 O   0  0  0  0  0  0  0  0  0  0  0  0
    9.4331  -18.4657   21.3075 C   0  0  0  0  0  0  0  0  0  0  0  0
    9.5754  -17.5814   22.4905 C   0  0  0  0  0  0  0  0  0  0  0  0
    8.9004  -16.2516   22.4145 C   0  0  2  0  0  0  0  0  0  0  0  0
    9.2479  -15.5476   21.1818 N   0  0  0  0  0  0  0  0  0  0  0  0
    9.1977  -15.4073   23.6010 C   0  0  0  0  0  0  0  0  0  0  0  0
   10.2388  -14.7128   23.6666 O   0  0  0  0  0  0  0  0  0  0  0  0
    5.6741  -12.1598   25.7757 C   0  0  0  0  0  0  0  0  0  0  0  0
    6.9066  -12.8479   25.2598 C   0  0  0  0  0  0  0  0  0  0  0  0
    7.4428  -13.7636   26.3420 C   0  0  2  0  0  0  0  0  0  0  0  0
    7.8994  -12.9428   27.5268 C   0  0  0  0  0  0  0  0  0  0  0  0
    8.6309  -14.5618   25.8505 C   0  0  2  0  0  0  0  0  0  0  0  0
    8.3019  -15.3630   24.7047 N   0  0  0  0  0  0  0  0  0  0  0  0
    9.0522  -15.4529   26.9544 C   0  0  0  0  0  0  0  0  0  0  0  0
   10.0265  -15.1546   27.8879 O   0  0  0  0  0  0  0  0  0  0  0  0
    8.4930  -16.5708   27.0678 O   0  0  0  0  0  0  0  0  0  0  0  0
  2  1  1  1
  3  2  1  0
  4  2  1  0
  4  5  1  6
  6  4  1  0
  6 14  1  0
  7  6  2  0
  9 10  2  0
  9  8  1  0
 11  9  1  0
 12 11  1  0
 13 12  1  1
 14 13  1  0
 15 16  2  0
 15 13  1  0
 18 17  1  0
 18 19  1  0
 19 21  1  0
 19 20  1  1
 21 22  1  6
 21 23  1  0
 22 15  1  0
 23 25  2  0
 23 24  1  0
M  END
$$$$
