TQI.pdb
     RDKit          3D

 25 24  0  0  1  0  0  0  0  0999 V2000
    8.9856  -11.9296   18.2812 C   0  0  0  0  0  0  0  0  0  0  0  0
    8.6191  -12.9236   19.3737 C   0  0  1  0  0  0  0  0  0  0  0  0
    7.2404  -12.9232   19.5829 O   0  0  0  0  0  0  0  0  0  0  0  0
    9.0014  -14.3188   18.9121 C   0  0  2  0  0  0  0  0  0  0  0  0
    8.3308  -14.6643   17.6855 N   0  0  0  0  0  0  0  0  0  0  0  0
    8.7489  -15.2699   20.0003 C   0  0  0  0  0  0  0  0  0  0  0  0
    7.7350  -16.0108   19.9071 O   0  0  0  0  0  0  0  0  0  0  0  0
   11.0197  -20.1081   22.2288 N   0  0  0  0  0  0  0  0  0  0  0  0
   11.9060  -19.0006   22.1352 C   0  0  0  0  0  0  0  0  0  0  0  0
   13.1647  -19.2073   22.0599 O   0  0  0  0  0  0  0  0  0  0  0  0
   11.3120  -17.6412   22.1308 C   0  0  0  0  0  0  0  0  0  0  0  0
    9.8294  -17.6172   22.1862 C   0  0  0  0  0  0  0  0  0  0  0  0
    9.1872  -16.2726   22.2829 C   0  0  2  0  0  0  0  0  0  0  0  0
    9.5609  -15.4215   21.1551 N   0  0  0  0  0  0  0  0  0  0  0  0
    9.4959  -15.5992   23.5715 C   0  0  0  0  0  0  0  0  0  0  0  0
   10.6284  -15.1150   23.8029 O   0  0  0  0  0  0  0  0  0  0  0  0
    6.8233  -11.6123   27.0675 C   0  0  0  0  0  0  0  0  0  0  0  0
    7.9266  -12.6306   26.9983 C   0  0  0  0  0  0  0  0  0  0  0  0
    7.6311  -13.5933   25.8655 C   0  0  2  0  0  0  0  0  0  0  0  0
    6.3528  -14.3469   26.1549 C   0  0  0  0  0  0  0  0  0  0  0  0
    8.7387  -14.6117   25.7042 C   0  0  2  0  0  0  0  0  0  0  0  0
    8.5067  -15.4841   24.5868 N   0  0  0  0  0  0  0  0  0  0  0  0
    8.7805  -15.4197   26.9434 C   0  0  0  0  0  0  0  0  0  0  0  0
    9.3304  -15.0071   28.1422 O   0  0  0  0  0  0  0  0  0  0  0  0
    8.2832  -16.5719   26.9238 O   0  0  0  0  0  0  0  0  0  0  0  0
  2  1  1  6
  3  2  1  0
  4  2  1  0
  4  5  1  6
  6  4  1  0
  6 14  1  0
  7  6  2  0
  9 10  2  0
  9  8  1  0
 11  9  1  0
 12 11  1  0
 13 12  1  6
 14 13  1  0
 15 16  2  0
 15 13  1  0
 18 17  1  0
 18 19  1  0
 19 21  1  0
 19 20  1  1
 21 22  1  6
 21 23  1  0
 22 15  1  0
 23 25  2  0
 23 24  1  0
M  END
$$$$
