TQI.pdb
     RDKit          3D

 25 24  0  0  1  0  0  0  0  0999 V2000
    8.9569  -13.6280   20.7511 C   0  0  0  0  0  0  0  0  0  0  0  0
    7.6926  -13.9943   19.9874 C   0  0  1  0  0  0  0  0  0  0  0  0
    7.9110  -13.8872   18.6142 O   0  0  0  0  0  0  0  0  0  0  0  0
    7.3525  -15.4461   20.2747 C   0  0  2  0  0  0  0  0  0  0  0  0
    6.2266  -15.8830   19.4904 N   0  0  0  0  0  0  0  0  0  0  0  0
    7.1560  -15.6160   21.7186 C   0  0  0  0  0  0  0  0  0  0  0  0
    6.1674  -15.0418   22.2466 O   0  0  0  0  0  0  0  0  0  0  0  0
    7.2913  -20.7349   24.9203 N   0  0  0  0  0  0  0  0  0  0  0  0
    6.5824  -20.2892   23.7716 C   0  0  0  0  0  0  0  0  0  0  0  0
    5.8950  -21.1258   23.0932 O   0  0  0  0  0  0  0  0  0  0  0  0
    6.6811  -18.8524   23.4155 C   0  0  0  0  0  0  0  0  0  0  0  0
    7.5819  -18.0619   24.2904 C   0  0  0  0  0  0  0  0  0  0  0  0
    7.6993  -16.6051   23.9845 C   0  0  2  0  0  0  0  0  0  0  0  0
    7.9958  -16.3798   22.5712 N   0  0  0  0  0  0  0  0  0  0  0  0
    8.7094  -15.9349   24.8445 C   0  0  0  0  0  0  0  0  0  0  0  0
    9.9179  -15.8828   24.5167 O   0  0  0  0  0  0  0  0  0  0  0  0
    7.4643  -11.5866   27.9882 C   0  0  0  0  0  0  0  0  0  0  0  0
    7.6513  -13.0466   27.6845 C   0  0  0  0  0  0  0  0  0  0  0  0
    9.0549  -13.2582   27.1531 C   0  0  2  0  0  0  0  0  0  0  0  0
    9.2199  -12.5288   25.8391 C   0  0  0  0  0  0  0  0  0  0  0  0
    9.3351  -14.7242   26.9035 C   0  0  2  0  0  0  0  0  0  0  0  0
    8.3303  -15.3287   26.0739 N   0  0  0  0  0  0  0  0  0  0  0  0
    9.3438  -15.4030   28.2186 C   0  0  0  0  0  0  0  0  0  0  0  0
   10.2918  -15.2101   29.2055 O   0  0  0  0  0  0  0  0  0  0  0  0
    8.4275  -16.2211   28.4760 O   0  0  0  0  0  0  0  0  0  0  0  0
  2  1  1  1
  3  2  1  0
  4  2  1  0
  4  5  1  6
  6  4  1  0
  6 14  1  0
  7  6  2  0
  9 10  2  0
  9  8  1  0
 11  9  1  0
 12 11  1  0
 13 12  1  6
 14 13  1  0
 15 16  2  0
 15 13  1  0
 18 17  1  0
 18 19  1  0
 19 21  1  0
 19 20  1  6
 21 22  1  6
 21 23  1  0
 22 15  1  0
 23 25  2  0
 23 24  1  0
M  END
$$$$
