TQI.pdb
     RDKit          3D

 25 24  0  0  1  0  0  0  0  0999 V2000
    9.1408  -12.3814   20.2672 C   0  0  0  0  0  0  0  0  0  0  0  0
    8.3043  -12.9588   19.1346 C   0  0  1  0  0  0  0  0  0  0  0  0
    8.5814  -12.2910   17.9420 O   0  0  0  0  0  0  0  0  0  0  0  0
    8.6923  -14.4131   18.9338 C   0  0  2  0  0  0  0  0  0  0  0  0
    8.0233  -14.9783   17.7907 N   0  0  0  0  0  0  0  0  0  0  0  0
    8.4435  -15.1518   20.1768 C   0  0  0  0  0  0  0  0  0  0  0  0
    7.2500  -15.4367   20.4598 O   0  0  0  0  0  0  0  0  0  0  0  0
    9.7491  -21.0258   21.6786 N   0  0  0  0  0  0  0  0  0  0  0  0
   10.4630  -19.8265   21.4087 C   0  0  0  0  0  0  0  0  0  0  0  0
   11.7336  -19.8667   21.2796 O   0  0  0  0  0  0  0  0  0  0  0  0
    9.6813  -18.5712   21.2902 C   0  0  0  0  0  0  0  0  0  0  0  0
    9.9237  -17.5903   22.3768 C   0  0  0  0  0  0  0  0  0  0  0  0
    9.1469  -16.3166   22.3112 C   0  0  2  0  0  0  0  0  0  0  0  0
    9.4463  -15.5725   21.0895 N   0  0  0  0  0  0  0  0  0  0  0  0
    9.3692  -15.4662   23.5098 C   0  0  0  0  0  0  0  0  0  0  0  0
   10.4032  -14.7694   23.6361 O   0  0  0  0  0  0  0  0  0  0  0  0
    5.7932  -12.2263   25.7577 C   0  0  0  0  0  0  0  0  0  0  0  0
    7.0343  -12.8960   25.2380 C   0  0  0  0  0  0  0  0  0  0  0  0
    7.5021  -13.9148   26.2580 C   0  0  2  0  0  0  0  0  0  0  0  0
    7.9082  -13.2122   27.5336 C   0  0  0  0  0  0  0  0  0  0  0  0
    8.7031  -14.6866   25.7559 C   0  0  2  0  0  0  0  0  0  0  0  0
    8.4070  -15.4185   24.5560 N   0  0  0  0  0  0  0  0  0  0  0  0
    9.0902  -15.6420   26.8177 C   0  0  0  0  0  0  0  0  0  0  0  0
    9.8642  -15.3332   27.9202 O   0  0  0  0  0  0  0  0  0  0  0  0
    8.6948  -16.8297   26.7275 O   0  0  0  0  0  0  0  0  0  0  0  0
  2  1  1  1
  3  2  1  0
  4  2  1  0
  4  5  1  6
  6  4  1  0
  6 14  1  0
  7  6  2  0
  9 10  2  0
  9  8  1  0
 11  9  1  0
 12 11  1  0
 13 12  1  1
 14 13  1  0
 15 16  2  0
 15 13  1  0
 18 17  1  0
 18 19  1  0
 19 21  1  0
 19 20  1  1
 21 22  1  6
 21 23  1  0
 22 15  1  0
 23 25  2  0
 23 24  1  0
M  END
$$$$
