TQI.pdb
     RDKit          3D

 25 24  0  0  1  0  0  0  0  0999 V2000
    9.1446  -12.6528   20.0615 C   0  0  0  0  0  0  0  0  0  0  0  0
    8.0981  -13.2250   19.1164 C   0  0  1  0  0  0  0  0  0  0  0  0
    8.3537  -12.8140   17.8085 O   0  0  0  0  0  0  0  0  0  0  0  0
    8.1982  -14.7400   19.1372 C   0  0  2  0  0  0  0  0  0  0  0  0
    7.2580  -15.3373   18.2245 N   0  0  0  0  0  0  0  0  0  0  0  0
    8.0474  -15.2117   20.5182 C   0  0  0  0  0  0  0  0  0  0  0  0
    6.8927  -15.1941   21.0203 O   0  0  0  0  0  0  0  0  0  0  0  0
   11.1957  -19.7494   23.2957 N   0  0  0  0  0  0  0  0  0  0  0  0
   10.4114  -19.3238   24.4022 C   0  0  0  0  0  0  0  0  0  0  0  0
   10.4393  -19.9965   25.4883 O   0  0  0  0  0  0  0  0  0  0  0  0
    9.5881  -18.1013   24.2336 C   0  0  0  0  0  0  0  0  0  0  0  0
    9.6461  -17.5024   22.8773 C   0  0  0  0  0  0  0  0  0  0  0  0
    8.8900  -16.2304   22.6769 C   0  0  2  0  0  0  0  0  0  0  0  0
    9.1050  -15.6885   21.3367 N   0  0  0  0  0  0  0  0  0  0  0  0
    9.2223  -15.2160   23.7111 C   0  0  0  0  0  0  0  0  0  0  0  0
   10.2979  -14.5737   23.6771 O   0  0  0  0  0  0  0  0  0  0  0  0
    5.3625  -12.4201   26.7110 C   0  0  0  0  0  0  0  0  0  0  0  0
    6.3230  -13.5370   26.4130 C   0  0  0  0  0  0  0  0  0  0  0  0
    7.6560  -12.9390   26.0095 C   0  0  2  0  0  0  0  0  0  0  0  0
    7.5062  -12.1877   24.7061 C   0  0  0  0  0  0  0  0  0  0  0  0
    8.7024  -14.0126   25.8036 C   0  0  2  0  0  0  0  0  0  0  0  0
    8.3218  -14.9429   24.7775 N   0  0  0  0  0  0  0  0  0  0  0  0
    8.8458  -14.7418   27.0834 C   0  0  0  0  0  0  0  0  0  0  0  0
    8.4982  -16.0636   27.2875 O   0  0  0  0  0  0  0  0  0  0  0  0
    9.3175  -14.1289   28.0719 O   0  0  0  0  0  0  0  0  0  0  0  0
  2  1  1  1
  3  2  1  0
  4  2  1  0
  4  5  1  6
  6  4  1  0
  6 14  1  0
  7  6  2  0
  9 10  2  0
  9  8  1  0
 11  9  1  0
 12 11  1  0
 13 12  1  1
 14 13  1  0
 15 16  2  0
 15 13  1  0
 18 17  1  0
 18 19  1  0
 19 21  1  0
 19 20  1  6
 21 22  1  6
 21 23  1  0
 22 15  1  0
 23 25  2  0
 23 24  1  0
M  END
$$$$
