TQI.pdb
     RDKit          3D

 25 24  0  0  1  0  0  0  0  0999 V2000
    8.4676  -12.5543   20.0167 C   0  0  0  0  0  0  0  0  0  0  0  0
    7.9451  -13.3261   18.8137 C   0  0  1  0  0  0  0  0  0  0  0  0
    8.3609  -12.7147   17.6313 O   0  0  0  0  0  0  0  0  0  0  0  0
    8.5446  -14.7211   18.8310 C   0  0  2  0  0  0  0  0  0  0  0  0
    8.1309  -15.4809   17.6798 N   0  0  0  0  0  0  0  0  0  0  0  0
    8.2135  -15.3695   20.1048 C   0  0  0  0  0  0  0  0  0  0  0  0
    7.0203  -15.7284   20.2865 O   0  0  0  0  0  0  0  0  0  0  0  0
   10.5214  -20.0475   22.9101 N   0  0  0  0  0  0  0  0  0  0  0  0
   11.4251  -18.9682   22.7118 C   0  0  0  0  0  0  0  0  0  0  0  0
   12.6809  -19.1998   22.6681 O   0  0  0  0  0  0  0  0  0  0  0  0
   10.8519  -17.6079   22.5644 C   0  0  0  0  0  0  0  0  0  0  0  0
    9.3706  -17.5535   22.6307 C   0  0  0  0  0  0  0  0  0  0  0  0
    8.7427  -16.2134   22.4319 C   0  0  2  0  0  0  0  0  0  0  0  0
    9.1362  -15.6253   21.1531 N   0  0  0  0  0  0  0  0  0  0  0  0
    9.0470  -15.2840   23.5512 C   0  0  0  0  0  0  0  0  0  0  0  0
    9.7841  -14.2833   23.3899 O   0  0  0  0  0  0  0  0  0  0  0  0
    6.8700  -11.2013   26.5069 C   0  0  0  0  0  0  0  0  0  0  0  0
    7.8762  -12.2936   26.7380 C   0  0  0  0  0  0  0  0  0  0  0  0
    7.6272  -13.4052   25.7383 C   0  0  2  0  0  0  0  0  0  0  0  0
    6.2721  -14.0262   25.9906 C   0  0  0  0  0  0  0  0  0  0  0  0
    8.6647  -14.5001   25.8611 C   0  0  2  0  0  0  0  0  0  0  0  0
    8.5061  -15.5055   24.8477 N   0  0  0  0  0  0  0  0  0  0  0  0
    8.4909  -15.1268   27.1905 C   0  0  0  0  0  0  0  0  0  0  0  0
    8.9183  -14.5829   28.3868 O   0  0  0  0  0  0  0  0  0  0  0  0
    7.9131  -16.2390   27.2569 O   0  0  0  0  0  0  0  0  0  0  0  0
  2  1  1  1
  3  2  1  0
  4  2  1  0
  4  5  1  6
  6  4  1  0
  6 14  1  0
  7  6  2  0
  9 10  2  0
  9  8  1  0
 11  9  1  0
 12 11  1  0
 13 12  1  1
 14 13  1  0
 15 16  2  0
 15 13  1  0
 18 17  1  0
 18 19  1  0
 19 21  1  0
 19 20  1  1
 21 22  1  6
 21 23  1  0
 22 15  1  0
 23 25  2  0
 23 24  1  0
M  END
$$$$
