TQI.pdb
     RDKit          3D

 25 24  0  0  1  0  0  0  0  0999 V2000
    8.4930  -12.7568   19.9051 C   0  0  0  0  0  0  0  0  0  0  0  0
    7.9824  -13.6207   18.7610 C   0  0  1  0  0  0  0  0  0  0  0  0
    8.3661  -13.0747   17.5365 O   0  0  0  0  0  0  0  0  0  0  0  0
    8.6259  -14.9925   18.8607 C   0  0  2  0  0  0  0  0  0  0  0  0
    8.3244  -15.7952   17.7038 N   0  0  0  0  0  0  0  0  0  0  0  0
    8.2238  -15.6201   20.1244 C   0  0  0  0  0  0  0  0  0  0  0  0
    7.4006  -16.5714   20.0698 O   0  0  0  0  0  0  0  0  0  0  0  0
   10.5215  -19.8862   23.1185 N   0  0  0  0  0  0  0  0  0  0  0  0
   10.9837  -18.9199   22.1839 C   0  0  0  0  0  0  0  0  0  0  0  0
   11.8017  -19.2724   21.2678 O   0  0  0  0  0  0  0  0  0  0  0  0
   10.4836  -17.5304   22.3252 C   0  0  0  0  0  0  0  0  0  0  0  0
    9.0103  -17.4172   22.4607 C   0  0  0  0  0  0  0  0  0  0  0  0
    8.4582  -16.0379   22.6100 C   0  0  2  0  0  0  0  0  0  0  0  0
    8.6915  -15.2380   21.4093 N   0  0  0  0  0  0  0  0  0  0  0  0
    8.9980  -15.3487   23.8111 C   0  0  0  0  0  0  0  0  0  0  0  0
   10.2304  -15.1971   23.9810 O   0  0  0  0  0  0  0  0  0  0  0  0
    5.5367  -12.0115   26.5597 C   0  0  0  0  0  0  0  0  0  0  0  0
    6.6708  -12.5777   25.7523 C   0  0  0  0  0  0  0  0  0  0  0  0
    7.5882  -13.3528   26.6770 C   0  0  2  0  0  0  0  0  0  0  0  0
    8.2709  -12.4027   27.6346 C   0  0  0  0  0  0  0  0  0  0  0  0
    8.6667  -14.0789   25.9026 C   0  0  2  0  0  0  0  0  0  0  0  0
    8.1243  -14.8373   24.8100 N   0  0  0  0  0  0  0  0  0  0  0  0
    9.3390  -15.0039   26.8420 C   0  0  0  0  0  0  0  0  0  0  0  0
   10.4218  -14.6799   27.6371 O   0  0  0  0  0  0  0  0  0  0  0  0
    8.9067  -16.1783   26.9378 O   0  0  0  0  0  0  0  0  0  0  0  0
  2  1  1  1
  3  2  1  0
  4  2  1  0
  4  5  1  6
  6  4  1  0
  6 14  1  0
  7  6  2  0
  9 10  2  0
  9  8  1  0
 11  9  1  0
 12 11  1  0
 13 12  1  6
 14 13  1  0
 15 16  2  0
 15 13  1  0
 18 17  1  0
 18 19  1  0
 19 21  1  0
 19 20  1  1
 21 22  1  6
 21 23  1  0
 22 15  1  0
 23 25  2  0
 23 24  1  0
M  END
$$$$
