TQI.pdb
     RDKit          3D

 25 24  0  0  1  0  0  0  0  0999 V2000
    7.6934  -12.5237   18.0076 C   0  0  0  0  0  0  0  0  0  0  0  0
    7.5793  -13.5754   19.1016 C   0  0  1  0  0  0  0  0  0  0  0  0
    7.5204  -14.8505   18.5399 O   0  0  0  0  0  0  0  0  0  0  0  0
    8.8296  -13.5225   19.9617 C   0  0  2  0  0  0  0  0  0  0  0  0
   10.0047  -13.8435   19.1938 N   0  0  0  0  0  0  0  0  0  0  0  0
    8.6445  -14.3894   21.1307 C   0  0  0  0  0  0  0  0  0  0  0  0
    7.6753  -14.1421   21.8957 O   0  0  0  0  0  0  0  0  0  0  0  0
   11.4390  -20.2144   24.5996 N   0  0  0  0  0  0  0  0  0  0  0  0
   10.6095  -19.8372   23.5085 C   0  0  0  0  0  0  0  0  0  0  0  0
   10.5731  -20.5715   22.4634 O   0  0  0  0  0  0  0  0  0  0  0  0
    9.8179  -18.5899   23.6437 C   0  0  0  0  0  0  0  0  0  0  0  0
    9.9737  -17.6368   22.5171 C   0  0  0  0  0  0  0  0  0  0  0  0
    9.2236  -16.3501   22.6234 C   0  0  2  0  0  0  0  0  0  0  0  0
    9.4754  -15.4899   21.4691 N   0  0  0  0  0  0  0  0  0  0  0  0
    9.5275  -15.6309   23.8882 C   0  0  0  0  0  0  0  0  0  0  0  0
   10.6416  -15.0912   24.0836 O   0  0  0  0  0  0  0  0  0  0  0  0
    6.0814  -12.2137   25.8858 C   0  0  0  0  0  0  0  0  0  0  0  0
    7.3065  -12.9650   25.4460 C   0  0  0  0  0  0  0  0  0  0  0  0
    7.7184  -13.9160   26.5520 C   0  0  2  0  0  0  0  0  0  0  0  0
    8.1775  -13.1291   27.7586 C   0  0  0  0  0  0  0  0  0  0  0  0
    8.8651  -14.8030   26.1181 C   0  0  2  0  0  0  0  0  0  0  0  0
    8.5548  -15.5339   24.9212 N   0  0  0  0  0  0  0  0  0  0  0  0
    9.1205  -15.7636   27.2146 C   0  0  0  0  0  0  0  0  0  0  0  0
    8.7917  -17.1056   27.1872 O   0  0  0  0  0  0  0  0  0  0  0  0
    9.6780  -15.3459   28.2586 O   0  0  0  0  0  0  0  0  0  0  0  0
  2  1  1  6
  3  2  1  0
  4  2  1  0
  4  5  1  6
  6  4  1  0
  6 14  1  0
  7  6  2  0
  9 10  2  0
  9  8  1  0
 11  9  1  0
 12 11  1  0
 13 12  1  6
 14 13  1  0
 15 16  2  0
 15 13  1  0
 18 17  1  0
 18 19  1  0
 19 21  1  0
 19 20  1  1
 21 22  1  6
 21 23  1  0
 22 15  1  0
 23 25  2  0
 23 24  1  0
M  END
$$$$
