TQI.pdb
     RDKit          3D

 25 24  0  0  1  0  0  0  0  0999 V2000
    8.4433  -13.2540   20.7288 C   0  0  0  0  0  0  0  0  0  0  0  0
    7.6184  -13.9179   19.6359 C   0  0  1  0  0  0  0  0  0  0  0  0
    8.1902  -13.6769   18.3870 O   0  0  0  0  0  0  0  0  0  0  0  0
    7.6378  -15.4205   19.8546 C   0  0  2  0  0  0  0  0  0  0  0  0
    6.8743  -16.1046   18.8434 N   0  0  0  0  0  0  0  0  0  0  0  0
    7.1870  -15.7121   21.2200 C   0  0  0  0  0  0  0  0  0  0  0  0
    6.0008  -15.4154   21.5209 O   0  0  0  0  0  0  0  0  0  0  0  0
    7.4212  -20.6705   24.4093 N   0  0  0  0  0  0  0  0  0  0  0  0
    6.4806  -20.2069   23.4495 C   0  0  0  0  0  0  0  0  0  0  0  0
    5.6845  -21.0394   22.8964 O   0  0  0  0  0  0  0  0  0  0  0  0
    6.4743  -18.7570   23.1356 C   0  0  0  0  0  0  0  0  0  0  0  0
    7.4173  -17.9475   23.9462 C   0  0  0  0  0  0  0  0  0  0  0  0
    7.5168  -16.4975   23.6037 C   0  0  2  0  0  0  0  0  0  0  0  0
    7.9858  -16.3050   22.2329 N   0  0  0  0  0  0  0  0  0  0  0  0
    8.3794  -15.7569   24.5609 C   0  0  0  0  0  0  0  0  0  0  0  0
    9.5979  -15.5697   24.3353 O   0  0  0  0  0  0  0  0  0  0  0  0
    6.3340  -11.5220   27.0225 C   0  0  0  0  0  0  0  0  0  0  0  0
    7.3165  -12.4136   26.3165 C   0  0  0  0  0  0  0  0  0  0  0  0
    7.9362  -13.3550   27.3300 C   0  0  2  0  0  0  0  0  0  0  0  0
    8.9205  -12.6002   28.1944 C   0  0  0  0  0  0  0  0  0  0  0  0
    8.6883  -14.4790   26.6509 C   0  0  2  0  0  0  0  0  0  0  0  0
    7.8424  -15.2351   25.7700 N   0  0  0  0  0  0  0  0  0  0  0  0
    9.1982  -15.3748   27.7129 C   0  0  0  0  0  0  0  0  0  0  0  0
   10.3696  -15.1815   28.4201 O   0  0  0  0  0  0  0  0  0  0  0  0
    8.5288  -16.3945   28.0082 O   0  0  0  0  0  0  0  0  0  0  0  0
  2  1  1  1
  3  2  1  0
  4  2  1  0
  4  5  1  6
  6  4  1  0
  6 14  1  0
  7  6  2  0
  9 10  2  0
  9  8  1  0
 11  9  1  0
 12 11  1  0
 13 12  1  1
 14 13  1  0
 15 16  2  0
 15 13  1  0
 18 17  1  0
 18 19  1  0
 19 21  1  0
 19 20  1  1
 21 22  1  6
 21 23  1  0
 22 15  1  0
 23 25  2  0
 23 24  1  0
M  END
$$$$
