TQI.pdb
     RDKit          3D

 25 24  0  0  1  0  0  0  0  0999 V2000
    7.2936  -12.4718   19.3293 C   0  0  0  0  0  0  0  0  0  0  0  0
    7.9125  -13.7790   18.8559 C   0  0  1  0  0  0  0  0  0  0  0  0
    8.2734  -13.6825   17.5123 O   0  0  0  0  0  0  0  0  0  0  0  0
    9.1857  -14.0299   19.6445 C   0  0  2  0  0  0  0  0  0  0  0  0
   10.1287  -14.8042   18.8798 N   0  0  0  0  0  0  0  0  0  0  0  0
    8.8395  -14.6422   20.9320 C   0  0  0  0  0  0  0  0  0  0  0  0
    7.9456  -14.0865   21.6232 O   0  0  0  0  0  0  0  0  0  0  0  0
   10.6004  -20.3729   22.9381 N   0  0  0  0  0  0  0  0  0  0  0  0
    9.7315  -20.1303   21.8396 C   0  0  0  0  0  0  0  0  0  0  0  0
    9.5002  -21.0674   21.0022 O   0  0  0  0  0  0  0  0  0  0  0  0
    9.1302  -18.7793   21.7218 C   0  0  0  0  0  0  0  0  0  0  0  0
    9.4939  -17.8461   22.8167 C   0  0  0  0  0  0  0  0  0  0  0  0
    8.9816  -16.4484   22.6997 C   0  0  2  0  0  0  0  0  0  0  0  0
    9.4352  -15.8167   21.4623 N   0  0  0  0  0  0  0  0  0  0  0  0
    9.3512  -15.6193   23.8766 C   0  0  0  0  0  0  0  0  0  0  0  0
   10.4931  -15.1158   23.9907 O   0  0  0  0  0  0  0  0  0  0  0  0
    6.1729  -11.8774   25.9206 C   0  0  0  0  0  0  0  0  0  0  0  0
    7.3104  -12.7262   25.4262 C   0  0  0  0  0  0  0  0  0  0  0  0
    7.7313  -13.6708   26.5343 C   0  0  2  0  0  0  0  0  0  0  0  0
    8.2808  -12.8798   27.6997 C   0  0  0  0  0  0  0  0  0  0  0  0
    8.8161  -14.6179   26.0693 C   0  0  2  0  0  0  0  0  0  0  0  0
    8.4117  -15.3716   24.9153 N   0  0  0  0  0  0  0  0  0  0  0  0
    9.0923  -15.5543   27.1815 C   0  0  0  0  0  0  0  0  0  0  0  0
    9.9465  -15.3023   28.2382 O   0  0  0  0  0  0  0  0  0  0  0  0
    8.5155  -16.6690   27.1827 O   0  0  0  0  0  0  0  0  0  0  0  0
  2  1  1  1
  3  2  1  0
  4  2  1  0
  4  5  1  6
  6  4  1  0
  6 14  1  0
  7  6  2  0
  9 10  2  0
  9  8  1  0
 11  9  1  0
 12 11  1  0
 13 12  1  1
 14 13  1  0
 15 16  2  0
 15 13  1  0
 18 17  1  0
 18 19  1  0
 19 21  1  0
 19 20  1  1
 21 22  1  6
 21 23  1  0
 22 15  1  0
 23 25  2  0
 23 24  1  0
M  END
$$$$
