TQI.pdb
     RDKit          3D

 25 24  0  0  1  0  0  0  0  0999 V2000
    8.7926  -12.7966   18.4031 C   0  0  0  0  0  0  0  0  0  0  0  0
    8.7355  -13.3595   19.8158 C   0  0  1  0  0  0  0  0  0  0  0  0
    7.9963  -12.5136   20.6422 O   0  0  0  0  0  0  0  0  0  0  0  0
    8.0126  -14.6944   19.7803 C   0  0  2  0  0  0  0  0  0  0  0  0
    6.6963  -14.5596   19.2121 N   0  0  0  0  0  0  0  0  0  0  0  0
    8.0071  -15.2729   21.1285 C   0  0  0  0  0  0  0  0  0  0  0  0
    7.0140  -15.0330   21.8646 O   0  0  0  0  0  0  0  0  0  0  0  0
   11.3389  -20.1751   23.3247 N   0  0  0  0  0  0  0  0  0  0  0  0
   10.6920  -19.7585   24.5199 C   0  0  0  0  0  0  0  0  0  0  0  0
   10.8194  -20.4592   25.5808 O   0  0  0  0  0  0  0  0  0  0  0  0
    9.8893  -18.5119   24.4704 C   0  0  0  0  0  0  0  0  0  0  0  0
    9.8042  -17.8876   23.1270 C   0  0  0  0  0  0  0  0  0  0  0  0
    8.9789  -16.6479   23.0187 C   0  0  2  0  0  0  0  0  0  0  0  0
    9.0374  -16.0852   21.6711 N   0  0  0  0  0  0  0  0  0  0  0  0
    9.3686  -15.6292   24.0285 C   0  0  0  0  0  0  0  0  0  0  0  0
   10.3474  -14.8679   23.8471 O   0  0  0  0  0  0  0  0  0  0  0  0
    6.1111  -12.0888   25.9620 C   0  0  0  0  0  0  0  0  0  0  0  0
    7.3213  -12.8417   25.4852 C   0  0  0  0  0  0  0  0  0  0  0  0
    7.8922  -13.6320   26.6457 C   0  0  2  0  0  0  0  0  0  0  0  0
    8.4125  -12.6848   27.7030 C   0  0  0  0  0  0  0  0  0  0  0  0
    9.0459  -14.5058   26.2034 C   0  0  2  0  0  0  0  0  0  0  0  0
    8.6358  -15.4883   25.2392 N   0  0  0  0  0  0  0  0  0  0  0  0
    9.5618  -15.1987   27.4050 C   0  0  0  0  0  0  0  0  0  0  0  0
   10.4820  -14.6723   28.2915 O   0  0  0  0  0  0  0  0  0  0  0  0
    9.1432  -16.3552   27.6551 O   0  0  0  0  0  0  0  0  0  0  0  0
  2  1  1  6
  3  2  1  0
  4  2  1  0
  4  5  1  1
  6  4  1  0
  6 14  1  0
  7  6  2  0
  9 10  2  0
  9  8  1  0
 11  9  1  0
 12 11  1  0
 13 12  1  6
 14 13  1  0
 15 16  2  0
 15 13  1  0
 18 17  1  0
 18 19  1  0
 19 21  1  0
 19 20  1  1
 21 22  1  6
 21 23  1  0
 22 15  1  0
 23 25  2  0
 23 24  1  0
M  END
$$$$
