TQI.pdb
     RDKit          3D

 25 24  0  0  1  0  0  0  0  0999 V2000
    9.4455  -12.5636   20.0786 C   0  0  0  0  0  0  0  0  0  0  0  0
    8.3069  -12.9797   19.1587 C   0  0  1  0  0  0  0  0  0  0  0  0
    8.4982  -12.4475   17.8840 O   0  0  0  0  0  0  0  0  0  0  0  0
    8.3203  -14.4917   19.0190 C   0  0  2  0  0  0  0  0  0  0  0  0
    7.3239  -14.9375   18.0798 N   0  0  0  0  0  0  0  0  0  0  0  0
    8.1786  -15.0973   20.3478 C   0  0  0  0  0  0  0  0  0  0  0  0
    7.0564  -15.0138   20.9128 O   0  0  0  0  0  0  0  0  0  0  0  0
   11.0635  -20.1505   22.5278 N   0  0  0  0  0  0  0  0  0  0  0  0
   10.4474  -19.7234   23.7357 C   0  0  0  0  0  0  0  0  0  0  0  0
   10.5232  -20.4621   24.7755 O   0  0  0  0  0  0  0  0  0  0  0  0
    9.7369  -18.4212   23.7236 C   0  0  0  0  0  0  0  0  0  0  0  0
    9.7653  -17.7165   22.4181 C   0  0  0  0  0  0  0  0  0  0  0  0
    8.9953  -16.4400   22.3322 C   0  0  2  0  0  0  0  0  0  0  0  0
    9.2113  -15.7730   21.0499 N   0  0  0  0  0  0  0  0  0  0  0  0
    9.3098  -15.5228   23.4587 C   0  0  0  0  0  0  0  0  0  0  0  0
   10.3558  -14.8327   23.4693 O   0  0  0  0  0  0  0  0  0  0  0  0
    6.1633  -11.8849   25.5405 C   0  0  0  0  0  0  0  0  0  0  0  0
    7.3155  -12.7200   25.0569 C   0  0  0  0  0  0  0  0  0  0  0  0
    7.7122  -13.6861   26.1554 C   0  0  2  0  0  0  0  0  0  0  0  0
    8.2208  -12.9172   27.3537 C   0  0  0  0  0  0  0  0  0  0  0  0
    8.8181  -14.6138   25.7012 C   0  0  2  0  0  0  0  0  0  0  0  0
    8.4254  -15.4012   24.5658 N   0  0  0  0  0  0  0  0  0  0  0  0
    9.1268  -15.5198   26.8299 C   0  0  0  0  0  0  0  0  0  0  0  0
   10.0154  -15.2418   27.8512 O   0  0  0  0  0  0  0  0  0  0  0  0
    8.5468  -16.6316   26.8809 O   0  0  0  0  0  0  0  0  0  0  0  0
  2  1  1  1
  3  2  1  0
  4  2  1  0
  4  5  1  6
  6  4  1  0
  6 14  1  0
  7  6  2  0
  9 10  2  0
  9  8  1  0
 11  9  1  0
 12 11  1  0
 13 12  1  6
 14 13  1  0
 15 16  2  0
 15 13  1  0
 18 17  1  0
 18 19  1  0
 19 21  1  0
 19 20  1  1
 21 22  1  6
 21 23  1  0
 22 15  1  0
 23 25  2  0
 23 24  1  0
M  END
$$$$
