FIL.pdb
     RDKit          3D

 28 28  0  0  1  0  0  0  0  0999 V2000
    6.7777  -17.7391   20.3120 N   0  0  0  0  0  0  0  0  0  0  0  0
    7.4483  -16.6961   21.0381 C   0  0  1  0  0  0  0  0  0  0  0  0
    6.5824  -15.4741   21.2531 C   0  0  0  0  0  0  0  0  0  0  0  0
    7.1948  -14.2651   20.6743 C   0  0  0  0  0  0  0  0  0  0  0  0
    7.3149  -14.1058   19.2892 C   0  0  0  0  0  0  0  0  0  0  0  0
    7.8948  -12.9588   18.7781 C   0  0  0  0  0  0  0  0  0  0  0  0
    8.3627  -11.9574   19.6062 C   0  0  0  0  0  0  0  0  0  0  0  0
    8.2297  -12.1442   20.9721 C   0  0  0  0  0  0  0  0  0  0  0  0
    7.6592  -13.2706   21.5113 C   0  0  0  0  0  0  0  0  0  0  0  0
    8.0104  -17.1620   22.3140 C   0  0  0  0  0  0  0  0  0  0  0  0
    7.3070  -17.8693   23.1128 O   0  0  0  0  0  0  0  0  0  0  0  0
   12.6377  -19.5460   22.4187 C   0  0  0  0  0  0  0  0  0  0  0  0
   11.2388  -19.0931   22.7664 C   0  0  0  0  0  0  0  0  0  0  0  0
   11.2681  -17.8829   23.6936 C   0  0  2  0  0  0  0  0  0  0  0  0
   11.8980  -18.3758   24.9739 C   0  0  0  0  0  0  0  0  0  0  0  0
    9.8621  -17.3753   23.9447 C   0  0  2  0  0  0  0  0  0  0  0  0
    9.3376  -16.8273   22.6629 N   0  0  0  0  0  0  0  0  0  0  0  0
    9.9354  -16.1863   24.8287 C   0  0  0  0  0  0  0  0  0  0  0  0
   10.7557  -15.2214   24.5833 O   0  0  0  0  0  0  0  0  0  0  0  0
    8.2579  -12.3666   25.7030 C   0  0  0  0  0  0  0  0  0  0  0  0
    7.3971  -13.4528   26.3528 C   0  0  2  0  0  0  0  0  0  0  0  0
    6.0419  -12.9605   26.7338 C   0  0  0  0  0  0  0  0  0  0  0  0
    8.1258  -14.2310   27.3857 C   0  0  0  0  0  0  0  0  0  0  0  0
    9.3752  -14.9212   26.9573 C   0  0  2  0  0  0  0  0  0  0  0  0
    9.1512  -15.9746   25.9894 N   0  0  0  0  0  0  0  0  0  0  0  0
   10.2411  -15.3745   28.0545 C   0  0  0  0  0  0  0  0  0  0  0  0
   11.0747  -14.5310   28.7698 O   0  0  0  0  0  0  0  0  0  0  0  0
   10.2506  -16.5859   28.3876 O   0  0  0  0  0  0  0  0  0  0  0  0
  2  1  1  1
  2  3  1  0
  2 10  1  0
  3  4  1  0
  4  9  2  0
  5  4  1  0
  5  6  2  0
  6  7  1  0
  7  8  2  0
  9  8  1  0
 10 17  1  0
 10 11  2  0
 13 12  1  0
 14 13  1  0
 14 15  1  1
 16 14  1  0
 16 17  1  6
 18 16  1  0
 18 19  2  0
 21 20  1  1
 21 23  1  0
 22 21  1  0
 24 23  1  1
 24 25  1  0
 25 18  1  0
 26 27  1  0
 26 24  1  0
 28 26  2  0
M  END
$$$$
