FIL.pdb
     RDKit          3D

 28 28  0  0  1  0  0  0  0  0999 V2000
   10.1177  -19.7056   27.8193 N   0  0  0  0  0  0  0  0  0  0  0  0
    9.7222  -18.4349   27.2776 C   0  0  1  0  0  0  0  0  0  0  0  0
   10.8675  -17.4509   27.1805 C   0  0  0  0  0  0  0  0  0  0  0  0
   10.5539  -16.1825   27.8621 C   0  0  0  0  0  0  0  0  0  0  0  0
    9.9694  -15.1144   27.1723 C   0  0  0  0  0  0  0  0  0  0  0  0
    9.6878  -13.9373   27.8417 C   0  0  0  0  0  0  0  0  0  0  0  0
    9.9706  -13.7868   29.1851 C   0  0  0  0  0  0  0  0  0  0  0  0
   10.5487  -14.8614   29.8401 C   0  0  0  0  0  0  0  0  0  0  0  0
   10.8408  -16.0432   29.2051 C   0  0  0  0  0  0  0  0  0  0  0  0
    9.0349  -18.5570   25.9840 C   0  0  0  0  0  0  0  0  0  0  0  0
    9.2402  -19.5711   25.2337 O   0  0  0  0  0  0  0  0  0  0  0  0
    5.5915  -14.7765   25.4583 C   0  0  0  0  0  0  0  0  0  0  0  0
    6.0548  -16.1735   25.8001 C   0  0  0  0  0  0  0  0  0  0  0  0
    5.9615  -17.0947   24.5885 C   0  0  2  0  0  0  0  0  0  0  0  0
    4.8174  -18.0331   24.8875 C   0  0  0  0  0  0  0  0  0  0  0  0
    7.2557  -17.8625   24.4073 C   0  0  2  0  0  0  0  0  0  0  0  0
    8.1402  -17.5480   25.5637 N   0  0  0  0  0  0  0  0  0  0  0  0
    7.9859  -17.2984   23.2458 C   0  0  0  0  0  0  0  0  0  0  0  0
    7.6940  -17.6492   22.0392 O   0  0  0  0  0  0  0  0  0  0  0  0
    6.9012  -14.4630   21.0052 C   0  0  0  0  0  0  0  0  0  0  0  0
    7.9157  -14.0965   22.0912 C   0  0  2  0  0  0  0  0  0  0  0  0
    7.7280  -12.7103   22.6084 C   0  0  0  0  0  0  0  0  0  0  0  0
    9.3057  -14.4829   21.7419 C   0  0  0  0  0  0  0  0  0  0  0  0
    9.7615  -15.8345   22.1737 C   0  0  2  0  0  0  0  0  0  0  0  0
    9.0373  -16.3515   23.3160 N   0  0  0  0  0  0  0  0  0  0  0  0
   11.2137  -15.9723   22.3505 C   0  0  0  0  0  0  0  0  0  0  0  0
   11.7997  -16.4875   23.4948 O   0  0  0  0  0  0  0  0  0  0  0  0
   11.9949  -15.6131   21.4344 O   0  0  0  0  0  0  0  0  0  0  0  0
  2  1  1  6
  2  3  1  0
  2 10  1  0
  3  4  1  0
  4  9  2  0
  5  4  1  0
  5  6  2  0
  6  7  1  0
  7  8  2  0
  9  8  1  0
 10 17  1  0
 10 11  2  0
 13 12  1  0
 14 13  1  0
 14 15  1  1
 16 14  1  0
 16 17  1  1
 18 16  1  0
 18 19  2  0
 21 20  1  6
 21 23  1  0
 22 21  1  0
 24 23  1  1
 24 25  1  0
 25 18  1  0
 26 27  1  0
 26 24  1  0
 28 26  2  0
M  END
$$$$
