FIL.pdb
     RDKit          3D

 28 28  0  0  1  0  0  0  0  0999 V2000
    5.4844  -18.5852   23.9750 N   0  0  0  0  0  0  0  0  0  0  0  0
    5.9769  -17.2836   24.3329 C   0  0  1  0  0  0  0  0  0  0  0  0
    6.1610  -17.1105   25.8247 C   0  0  0  0  0  0  0  0  0  0  0  0
    6.3176  -15.6920   26.1922 C   0  0  0  0  0  0  0  0  0  0  0  0
    7.5588  -15.1776   26.5836 C   0  0  0  0  0  0  0  0  0  0  0  0
    7.6717  -13.8413   26.9223 C   0  0  0  0  0  0  0  0  0  0  0  0
    6.5821  -12.9936   26.8842 C   0  0  0  0  0  0  0  0  0  0  0  0
    5.3675  -13.5322   26.4930 C   0  0  0  0  0  0  0  0  0  0  0  0
    5.2217  -14.8537   26.1505 C   0  0  0  0  0  0  0  0  0  0  0  0
    7.2084  -16.9242   23.6152 C   0  0  0  0  0  0  0  0  0  0  0  0
    8.0800  -17.8162   23.3358 O   0  0  0  0  0  0  0  0  0  0  0  0
    8.8152  -12.3535   19.7685 C   0  0  0  0  0  0  0  0  0  0  0  0
    9.1451  -13.6624   20.4475 C   0  0  0  0  0  0  0  0  0  0  0  0
    8.0926  -14.0201   21.4912 C   0  0  2  0  0  0  0  0  0  0  0  0
    8.1333  -12.8980   22.5003 C   0  0  0  0  0  0  0  0  0  0  0  0
    8.4261  -15.3462   22.1453 C   0  0  2  0  0  0  0  0  0  0  0  0
    7.4334  -15.5840   23.2299 N   0  0  0  0  0  0  0  0  0  0  0  0
    9.7116  -15.2090   22.8726 C   0  0  0  0  0  0  0  0  0  0  0  0
   10.4953  -14.2066   22.6602 O   0  0  0  0  0  0  0  0  0  0  0  0
    9.5947  -13.5565   28.0286 C   0  0  0  0  0  0  0  0  0  0  0  0
   10.6318  -14.2500   27.1419 C   0  0  2  0  0  0  0  0  0  0  0  0
   11.9356  -13.5266   27.1093 C   0  0  0  0  0  0  0  0  0  0  0  0
   10.0839  -14.6724   25.8286 C   0  0  0  0  0  0  0  0  0  0  0  0
   10.8330  -15.7282   25.0903 C   0  0  2  0  0  0  0  0  0  0  0  0
   10.2089  -16.1145   23.8421 N   0  0  0  0  0  0  0  0  0  0  0  0
   11.2029  -16.9024   25.8924 C   0  0  0  0  0  0  0  0  0  0  0  0
   10.6117  -18.1463   25.7458 O   0  0  0  0  0  0  0  0  0  0  0  0
   12.0997  -16.8082   26.7673 O   0  0  0  0  0  0  0  0  0  0  0  0
  2  1  1  1
  2  3  1  0
  2 10  1  0
  3  4  1  0
  4  9  2  0
  5  4  1  0
  5  6  2  0
  6  7  1  0
  7  8  2  0
  9  8  1  0
 10 17  1  0
 10 11  2  0
 13 12  1  0
 14 13  1  0
 14 15  1  1
 16 14  1  0
 16 17  1  1
 18 16  1  0
 18 19  2  0
 21 20  1  6
 21 23  1  0
 22 21  1  0
 24 23  1  1
 24 25  1  0
 25 18  1  0
 26 27  1  0
 26 24  1  0
 28 26  2  0
M  END
$$$$
