FIL.pdb
     RDKit          3D

 28 28  0  0  1  0  0  0  0  0999 V2000
    5.4116  -18.1152   24.4827 N   0  0  0  0  0  0  0  0  0  0  0  0
    5.9984  -16.8156   24.6604 C   0  0  1  0  0  0  0  0  0  0  0  0
    6.0923  -16.4026   26.1129 C   0  0  0  0  0  0  0  0  0  0  0  0
    6.2925  -14.9493   26.2531 C   0  0  0  0  0  0  0  0  0  0  0  0
    7.5697  -14.4084   26.4389 C   0  0  0  0  0  0  0  0  0  0  0  0
    7.7233  -13.0398   26.5670 C   0  0  0  0  0  0  0  0  0  0  0  0
    6.6396  -12.1851   26.5159 C   0  0  0  0  0  0  0  0  0  0  0  0
    5.3888  -12.7504   26.3310 C   0  0  0  0  0  0  0  0  0  0  0  0
    5.2023  -14.1044   26.2004 C   0  0  0  0  0  0  0  0  0  0  0  0
    7.3059  -16.6869   24.0011 C   0  0  0  0  0  0  0  0  0  0  0  0
    8.0891  -17.6930   23.9119 O   0  0  0  0  0  0  0  0  0  0  0  0
    7.5147  -12.4435   20.4785 C   0  0  0  0  0  0  0  0  0  0  0  0
    7.6153  -13.8798   20.9366 C   0  0  0  0  0  0  0  0  0  0  0  0
    8.8539  -14.0955   21.7993 C   0  0  2  0  0  0  0  0  0  0  0  0
   10.0236  -13.9994   20.8499 C   0  0  0  0  0  0  0  0  0  0  0  0
    8.8066  -15.4584   22.4609 C   0  0  2  0  0  0  0  0  0  0  0  0
    7.7031  -15.4436   23.4611 N   0  0  0  0  0  0  0  0  0  0  0  0
   10.0257  -15.6291   23.2885 C   0  0  0  0  0  0  0  0  0  0  0  0
   11.1660  -15.9005   22.7497 O   0  0  0  0  0  0  0  0  0  0  0  0
    9.0755  -13.6263   27.1205 C   0  0  0  0  0  0  0  0  0  0  0  0
   10.1024  -14.6860   27.5271 C   0  0  2  0  0  0  0  0  0  0  0  0
   10.3466  -14.7147   28.9981 C   0  0  0  0  0  0  0  0  0  0  0  0
   11.3090  -14.6877   26.6625 C   0  0  0  0  0  0  0  0  0  0  0  0
   11.2974  -15.6019   25.4856 C   0  0  2  0  0  0  0  0  0  0  0  0
   10.0843  -15.5175   24.6996 N   0  0  0  0  0  0  0  0  0  0  0  0
   11.6509  -16.9973   25.7805 C   0  0  0  0  0  0  0  0  0  0  0  0
   12.8326  -17.3733   26.3974 O   0  0  0  0  0  0  0  0  0  0  0  0
   10.8619  -17.9243   25.4696 O   0  0  0  0  0  0  0  0  0  0  0  0
  2  1  1  1
  2  3  1  0
  2 10  1  0
  3  4  1  0
  4  9  2  0
  5  4  1  0
  5  6  2  0
  6  7  1  0
  7  8  2  0
  9  8  1  0
 10 17  1  0
 10 11  2  0
 13 12  1  0
 14 13  1  0
 14 15  1  6
 16 14  1  0
 16 17  1  1
 18 16  1  0
 18 19  2  0
 21 20  1  1
 21 23  1  0
 22 21  1  0
 24 23  1  1
 24 25  1  0
 25 18  1  0
 26 27  1  0
 26 24  1  0
 28 26  2  0
M  END
$$$$
