FIL.pdb
     RDKit          3D

 28 28  0  0  1  0  0  0  0  0999 V2000
    4.9159  -18.0568   23.9738 N   0  0  0  0  0  0  0  0  0  0  0  0
    5.6330  -16.8422   24.2481 C   0  0  1  0  0  0  0  0  0  0  0  0
    5.8672  -16.6143   25.7255 C   0  0  0  0  0  0  0  0  0  0  0  0
    6.2597  -15.2217   26.0053 C   0  0  0  0  0  0  0  0  0  0  0  0
    5.3060  -14.1998   26.0731 C   0  0  0  0  0  0  0  0  0  0  0  0
    5.7076  -12.9029   26.3376 C   0  0  0  0  0  0  0  0  0  0  0  0
    7.0370  -12.5870   26.5383 C   0  0  0  0  0  0  0  0  0  0  0  0
    7.9568  -13.6198   26.4649 C   0  0  0  0  0  0  0  0  0  0  0  0
    7.5912  -14.9173   26.2043 C   0  0  0  0  0  0  0  0  0  0  0  0
    6.8973  -16.7477   23.5041 C   0  0  0  0  0  0  0  0  0  0  0  0
    7.5965  -17.7933   23.2779 O   0  0  0  0  0  0  0  0  0  0  0  0
    7.6117  -12.3533   20.2105 C   0  0  0  0  0  0  0  0  0  0  0  0
    7.6094  -13.8046   20.6309 C   0  0  0  0  0  0  0  0  0  0  0  0
    8.7361  -14.0923   21.6172 C   0  0  2  0  0  0  0  0  0  0  0  0
   10.0086  -13.9870   20.8119 C   0  0  0  0  0  0  0  0  0  0  0  0
    8.5827  -15.4813   22.2044 C   0  0  2  0  0  0  0  0  0  0  0  0
    7.3458  -15.4934   23.0340 N   0  0  0  0  0  0  0  0  0  0  0  0
    9.6674  -15.7038   23.1916 C   0  0  0  0  0  0  0  0  0  0  0  0
   10.8812  -15.9207   22.8124 O   0  0  0  0  0  0  0  0  0  0  0  0
   11.5950  -15.4545   28.3631 C   0  0  0  0  0  0  0  0  0  0  0  0
   11.2943  -14.1646   27.5959 C   0  0  2  0  0  0  0  0  0  0  0  0
   11.0425  -13.0046   28.4987 C   0  0  0  0  0  0  0  0  0  0  0  0
   10.3213  -14.3588   26.4918 C   0  0  0  0  0  0  0  0  0  0  0  0
   10.5819  -15.4837   25.5497 C   0  0  2  0  0  0  0  0  0  0  0  0
    9.5111  -15.7022   24.5997 N   0  0  0  0  0  0  0  0  0  0  0  0
   11.0018  -16.7404   26.1849 C   0  0  0  0  0  0  0  0  0  0  0  0
   12.3199  -17.0443   26.4822 O   0  0  0  0  0  0  0  0  0  0  0  0
   10.1450  -17.6080   26.4877 O   0  0  0  0  0  0  0  0  0  0  0  0
  2  1  1  1
  2  3  1  0
  2 10  1  0
  3  4  1  0
  4  9  2  0
  5  4  1  0
  5  6  2  0
  6  7  1  0
  7  8  2  0
  9  8  1  0
 10 17  1  0
 10 11  2  0
 13 12  1  0
 14 13  1  0
 14 15  1  6
 16 14  1  0
 16 17  1  1
 18 16  1  0
 18 19  2  0
 21 20  1  1
 21 23  1  0
 22 21  1  0
 24 23  1  1
 24 25  1  0
 25 18  1  0
 26 27  1  0
 26 24  1  0
 28 26  2  0
M  END
$$$$
