FIL.pdb
     RDKit          3D

 28 28  0  0  1  0  0  0  0  0999 V2000
   11.0429  -16.4474   20.8858 N   0  0  0  0  0  0  0  0  0  0  0  0
    9.9079  -15.7013   21.3546 C   0  0  1  0  0  0  0  0  0  0  0  0
    8.6077  -16.1386   20.7162 C   0  0  0  0  0  0  0  0  0  0  0  0
    7.8441  -14.9905   20.1963 C   0  0  0  0  0  0  0  0  0  0  0  0
    6.5695  -14.6859   20.6873 C   0  0  0  0  0  0  0  0  0  0  0  0
    5.8792  -13.6010   20.1776 C   0  0  0  0  0  0  0  0  0  0  0  0
    6.4193  -12.8034   19.1880 C   0  0  0  0  0  0  0  0  0  0  0  0
    7.6821  -13.1304   18.7227 C   0  0  0  0  0  0  0  0  0  0  0  0
    8.3936  -14.2000   19.2071 C   0  0  0  0  0  0  0  0  0  0  0  0
    9.7907  -15.7047   22.8199 C   0  0  0  0  0  0  0  0  0  0  0  0
   10.7772  -16.0646   23.5486 O   0  0  0  0  0  0  0  0  0  0  0  0
    5.8954  -12.1205   24.9553 C   0  0  0  0  0  0  0  0  0  0  0  0
    7.2556  -12.7222   24.6894 C   0  0  0  0  0  0  0  0  0  0  0  0
    7.3190  -14.1689   25.1670 C   0  0  2  0  0  0  0  0  0  0  0  0
    7.1267  -14.1044   26.6629 C   0  0  0  0  0  0  0  0  0  0  0  0
    8.6618  -14.7812   24.8215 C   0  0  2  0  0  0  0  0  0  0  0  0
    8.5805  -15.3079   23.4307 N   0  0  0  0  0  0  0  0  0  0  0  0
    8.8562  -15.9995   25.6453 C   0  0  0  0  0  0  0  0  0  0  0  0
    8.6122  -17.1733   25.1692 O   0  0  0  0  0  0  0  0  0  0  0  0
   10.9744  -14.0328   28.7061 C   0  0  0  0  0  0  0  0  0  0  0  0
   10.4816  -15.3101   29.3907 C   0  0  2  0  0  0  0  0  0  0  0  0
   10.6243  -15.2584   30.8743 C   0  0  0  0  0  0  0  0  0  0  0  0
   10.9649  -16.5476   28.7287 C   0  0  0  0  0  0  0  0  0  0  0  0
   10.2016  -17.0220   27.5399 C   0  0  2  0  0  0  0  0  0  0  0  0
    9.3133  -16.0215   26.9860 N   0  0  0  0  0  0  0  0  0  0  0  0
    9.5173  -18.3104   27.7156 C   0  0  0  0  0  0  0  0  0  0  0  0
    8.1735  -18.5064   27.4436 O   0  0  0  0  0  0  0  0  0  0  0  0
   10.1555  -19.3086   28.1336 O   0  0  0  0  0  0  0  0  0  0  0  0
  2  1  1  1
  2  3  1  0
  2 10  1  0
  3  4  1  0
  4  9  2  0
  5  4  1  0
  5  6  2  0
  6  7  1  0
  7  8  2  0
  9  8  1  0
 10 17  1  0
 10 11  2  0
 13 12  1  0
 14 13  1  0
 14 15  1  1
 16 14  1  0
 16 17  1  6
 18 16  1  0
 18 19  2  0
 21 20  1  6
 21 23  1  0
 22 21  1  0
 24 23  1  1
 24 25  1  0
 25 18  1  0
 26 27  1  0
 26 24  1  0
 28 26  2  0
M  END
$$$$
