FIL.pdb
     RDKit          3D

 28 28  0  0  1  0  0  0  0  0999 V2000
    5.3905  -17.8669   24.7817 N   0  0  0  0  0  0  0  0  0  0  0  0
    6.0547  -16.5930   24.7562 C   0  0  1  0  0  0  0  0  0  0  0  0
    6.3335  -16.0435   26.1380 C   0  0  0  0  0  0  0  0  0  0  0  0
    6.1570  -14.5812   26.1875 C   0  0  0  0  0  0  0  0  0  0  0  0
    4.8820  -14.0045   26.1745 C   0  0  0  0  0  0  0  0  0  0  0  0
    4.7510  -12.6283   26.2220 C   0  0  0  0  0  0  0  0  0  0  0  0
    5.8551  -11.8009   26.2824 C   0  0  0  0  0  0  0  0  0  0  0  0
    7.1031  -12.4015   26.2938 C   0  0  0  0  0  0  0  0  0  0  0  0
    7.2676  -13.7638   26.2477 C   0  0  0  0  0  0  0  0  0  0  0  0
    7.2829  -16.6079   23.9486 C   0  0  0  0  0  0  0  0  0  0  0  0
    7.9042  -17.7038   23.7332 O   0  0  0  0  0  0  0  0  0  0  0  0
    7.5606  -12.7220   20.1645 C   0  0  0  0  0  0  0  0  0  0  0  0
    7.6433  -14.0850   20.8113 C   0  0  0  0  0  0  0  0  0  0  0  0
    8.9326  -14.2358   21.6113 C   0  0  2  0  0  0  0  0  0  0  0  0
   10.0373  -14.2820   20.5835 C   0  0  0  0  0  0  0  0  0  0  0  0
    8.9018  -15.5125   22.4278 C   0  0  2  0  0  0  0  0  0  0  0  0
    7.7831  -15.4039   23.4050 N   0  0  0  0  0  0  0  0  0  0  0  0
   10.1112  -15.5590   23.2855 C   0  0  0  0  0  0  0  0  0  0  0  0
   11.0451  -14.6764   23.1714 O   0  0  0  0  0  0  0  0  0  0  0  0
   11.5748  -16.0273   28.3403 C   0  0  0  0  0  0  0  0  0  0  0  0
   11.1593  -14.7678   27.5761 C   0  0  2  0  0  0  0  0  0  0  0  0
   10.4219  -13.7939   28.4316 C   0  0  0  0  0  0  0  0  0  0  0  0
   10.5571  -15.0639   26.2521 C   0  0  0  0  0  0  0  0  0  0  0  0
   11.0664  -16.2638   25.5296 C   0  0  2  0  0  0  0  0  0  0  0  0
   10.3735  -16.5273   24.2858 N   0  0  0  0  0  0  0  0  0  0  0  0
   11.1820  -17.4784   26.3485 C   0  0  0  0  0  0  0  0  0  0  0  0
   10.0957  -18.2419   26.7423 O   0  0  0  0  0  0  0  0  0  0  0  0
   12.3121  -17.8738   26.7294 O   0  0  0  0  0  0  0  0  0  0  0  0
  2  1  1  1
  2  3  1  0
  2 10  1  0
  3  4  1  0
  4  9  2  0
  5  4  1  0
  5  6  2  0
  6  7  1  0
  7  8  2  0
  9  8  1  0
 10 17  1  0
 10 11  2  0
 13 12  1  0
 14 13  1  0
 14 15  1  6
 16 14  1  0
 16 17  1  1
 18 16  1  0
 18 19  2  0
 21 20  1  1
 21 23  1  0
 22 21  1  0
 24 23  1  1
 24 25  1  0
 25 18  1  0
 26 27  1  0
 26 24  1  0
 28 26  2  0
M  END
$$$$
