FIL.pdb
     RDKit          3D

 28 28  0  0  1  0  0  0  0  0999 V2000
    5.3928  -18.5439   24.1271 N   0  0  0  0  0  0  0  0  0  0  0  0
    5.8896  -17.2218   24.3912 C   0  0  1  0  0  0  0  0  0  0  0  0
    5.8770  -16.8680   25.8623 C   0  0  0  0  0  0  0  0  0  0  0  0
    6.0499  -15.4200   26.0747 C   0  0  0  0  0  0  0  0  0  0  0  0
    5.0421  -14.5118   25.7312 C   0  0  0  0  0  0  0  0  0  0  0  0
    5.2362  -13.1589   25.9436 C   0  0  0  0  0  0  0  0  0  0  0  0
    6.4088  -12.6762   26.4906 C   0  0  0  0  0  0  0  0  0  0  0  0
    7.3871  -13.5995   26.8201 C   0  0  0  0  0  0  0  0  0  0  0  0
    7.2261  -14.9486   26.6222 C   0  0  0  0  0  0  0  0  0  0  0  0
    7.2220  -16.9892   23.8154 C   0  0  0  0  0  0  0  0  0  0  0  0
    8.0501  -17.9541   23.6861 O   0  0  0  0  0  0  0  0  0  0  0  0
    7.7130  -12.7577   20.3381 C   0  0  0  0  0  0  0  0  0  0  0  0
    7.8127  -14.1411   20.9376 C   0  0  0  0  0  0  0  0  0  0  0  0
    8.9056  -14.2020   21.9992 C   0  0  2  0  0  0  0  0  0  0  0  0
   10.2003  -13.9914   21.2521 C   0  0  0  0  0  0  0  0  0  0  0  0
    8.8954  -15.5504   22.6915 C   0  0  2  0  0  0  0  0  0  0  0  0
    7.5933  -15.6910   23.4008 N   0  0  0  0  0  0  0  0  0  0  0  0
    9.8912  -15.5292   23.7908 C   0  0  0  0  0  0  0  0  0  0  0  0
   10.5028  -14.4412   24.1170 O   0  0  0  0  0  0  0  0  0  0  0  0
   11.6852  -14.2857   27.6777 C   0  0  0  0  0  0  0  0  0  0  0  0
   10.2497  -14.3966   27.1580 C   0  0  2  0  0  0  0  0  0  0  0  0
    9.2824  -13.6012   27.9678 C   0  0  0  0  0  0  0  0  0  0  0  0
    9.8512  -15.7920   26.8459 C   0  0  0  0  0  0  0  0  0  0  0  0
   10.7488  -16.5669   25.9432 C   0  0  2  0  0  0  0  0  0  0  0  0
   10.2704  -16.6439   24.5787 N   0  0  0  0  0  0  0  0  0  0  0  0
   11.1469  -17.8880   26.4487 C   0  0  0  0  0  0  0  0  0  0  0  0
   12.1359  -18.0772   27.3996 O   0  0  0  0  0  0  0  0  0  0  0  0
   10.5803  -18.9227   26.0165 O   0  0  0  0  0  0  0  0  0  0  0  0
  2  1  1  1
  2  3  1  0
  2 10  1  0
  3  4  1  0
  4  9  2  0
  5  4  1  0
  5  6  2  0
  6  7  1  0
  7  8  2  0
  9  8  1  0
 10 17  1  0
 10 11  2  0
 13 12  1  0
 14 13  1  0
 14 15  1  6
 16 14  1  0
 16 17  1  1
 18 16  1  0
 18 19  2  0
 21 20  1  1
 21 23  1  0
 22 21  1  0
 24 23  1  1
 24 25  1  0
 25 18  1  0
 26 27  1  0
 26 24  1  0
 28 26  2  0
M  END
$$$$
