FIL.pdb
     RDKit          3D

 28 28  0  0  1  0  0  0  0  0999 V2000
    5.8490  -19.2661   21.4471 N   0  0  0  0  0  0  0  0  0  0  0  0
    6.2120  -18.5527   22.6405 C   0  0  1  0  0  0  0  0  0  0  0  0
    6.4570  -19.4642   23.8231 C   0  0  0  0  0  0  0  0  0  0  0  0
    6.6873  -18.6987   25.0610 C   0  0  0  0  0  0  0  0  0  0  0  0
    5.8162  -17.6762   25.4534 C   0  0  0  0  0  0  0  0  0  0  0  0
    6.0610  -16.9767   26.6212 C   0  0  0  0  0  0  0  0  0  0  0  0
    7.1524  -17.2632   27.4176 C   0  0  0  0  0  0  0  0  0  0  0  0
    7.9960  -18.2803   27.0028 C   0  0  0  0  0  0  0  0  0  0  0  0
    7.7813  -18.9936   25.8494 C   0  0  0  0  0  0  0  0  0  0  0  0
    7.3546  -17.6502   22.4384 C   0  0  0  0  0  0  0  0  0  0  0  0
    8.5088  -18.1189   22.1531 O   0  0  0  0  0  0  0  0  0  0  0  0
    6.2486  -12.9978   19.7906 C   0  0  0  0  0  0  0  0  0  0  0  0
    6.9723  -14.2563   20.2095 C   0  0  0  0  0  0  0  0  0  0  0  0
    7.6344  -14.0812   21.5719 C   0  0  2  0  0  0  0  0  0  0  0  0
    8.6868  -13.0178   21.3708 C   0  0  0  0  0  0  0  0  0  0  0  0
    8.2633  -15.3837   22.0252 C   0  0  2  0  0  0  0  0  0  0  0  0
    7.1792  -16.2539   22.5597 N   0  0  0  0  0  0  0  0  0  0  0  0
    9.1125  -15.1154   23.2115 C   0  0  0  0  0  0  0  0  0  0  0  0
   10.3312  -14.7124   23.0830 O   0  0  0  0  0  0  0  0  0  0  0  0
    8.4986  -11.8981   25.2895 C   0  0  0  0  0  0  0  0  0  0  0  0
    7.7692  -12.9759   26.0954 C   0  0  2  0  0  0  0  0  0  0  0  0
    6.7521  -12.4075   27.0263 C   0  0  0  0  0  0  0  0  0  0  0  0
    8.6861  -13.9928   26.6685 C   0  0  0  0  0  0  0  0  0  0  0  0
    9.4754  -14.8121   25.7058 C   0  0  2  0  0  0  0  0  0  0  0  0
    8.7084  -15.2587   24.5618 N   0  0  0  0  0  0  0  0  0  0  0  0
   10.2352  -15.9163   26.3079 C   0  0  0  0  0  0  0  0  0  0  0  0
   10.2056  -17.2157   25.8296 O   0  0  0  0  0  0  0  0  0  0  0  0
   10.9606  -15.7055   27.3119 O   0  0  0  0  0  0  0  0  0  0  0  0
  2  1  1  6
  2  3  1  0
  2 10  1  0
  3  4  1  0
  4  9  2  0
  5  4  1  0
  5  6  2  0
  6  7  1  0
  7  8  2  0
  9  8  1  0
 10 17  1  0
 10 11  2  0
 13 12  1  0
 14 13  1  0
 14 15  1  6
 16 14  1  0
 16 17  1  1
 18 16  1  0
 18 19  2  0
 21 20  1  1
 21 23  1  0
 22 21  1  0
 24 23  1  1
 24 25  1  0
 25 18  1  0
 26 27  1  0
 26 24  1  0
 28 26  2  0
M  END
$$$$
