FIL.pdb
     RDKit          3D

 28 28  0  0  1  0  0  0  0  0999 V2000
    5.4164  -18.5252   24.2982 N   0  0  0  0  0  0  0  0  0  0  0  0
    5.9410  -17.2113   24.5492 C   0  0  1  0  0  0  0  0  0  0  0  0
    5.9840  -16.8627   26.0209 C   0  0  0  0  0  0  0  0  0  0  0  0
    6.1137  -15.4100   26.2320 C   0  0  0  0  0  0  0  0  0  0  0  0
    5.1364  -14.5207   25.7710 C   0  0  0  0  0  0  0  0  0  0  0  0
    5.2884  -13.1628   25.9855 C   0  0  0  0  0  0  0  0  0  0  0  0
    6.3891  -12.6566   26.6486 C   0  0  0  0  0  0  0  0  0  0  0  0
    7.3387  -13.5617   27.0928 C   0  0  0  0  0  0  0  0  0  0  0  0
    7.2179  -14.9151   26.8962 C   0  0  0  0  0  0  0  0  0  0  0  0
    7.2559  -16.9956   23.9285 C   0  0  0  0  0  0  0  0  0  0  0  0
    8.0876  -17.9599   23.8195 O   0  0  0  0  0  0  0  0  0  0  0  0
    7.5742  -12.7123   20.4010 C   0  0  0  0  0  0  0  0  0  0  0  0
    7.6402  -14.1066   20.9796 C   0  0  0  0  0  0  0  0  0  0  0  0
    8.8189  -14.2488   21.9363 C   0  0  2  0  0  0  0  0  0  0  0  0
   10.0504  -14.0604   21.0837 C   0  0  0  0  0  0  0  0  0  0  0  0
    8.8139  -15.6205   22.5811 C   0  0  2  0  0  0  0  0  0  0  0  0
    7.6063  -15.7144   23.4479 N   0  0  0  0  0  0  0  0  0  0  0  0
    9.9408  -15.6994   23.5426 C   0  0  0  0  0  0  0  0  0  0  0  0
   11.0426  -15.0619   23.3337 O   0  0  0  0  0  0  0  0  0  0  0  0
    8.9523  -13.8143   26.7073 C   0  0  0  0  0  0  0  0  0  0  0  0
    9.8078  -14.9100   27.3479 C   0  0  2  0  0  0  0  0  0  0  0  0
    9.9860  -14.7153   28.8157 C   0  0  0  0  0  0  0  0  0  0  0  0
   11.0370  -15.2146   26.5735 C   0  0  0  0  0  0  0  0  0  0  0  0
   11.0149  -16.4371   25.7214 C   0  0  2  0  0  0  0  0  0  0  0  0
    9.9431  -16.4441   24.7478 N   0  0  0  0  0  0  0  0  0  0  0  0
   11.0814  -17.7074   26.4569 C   0  0  0  0  0  0  0  0  0  0  0  0
   10.2207  -18.7685   26.2306 O   0  0  0  0  0  0  0  0  0  0  0  0
   11.9537  -17.8736   27.3457 O   0  0  0  0  0  0  0  0  0  0  0  0
  2  1  1  1
  2  3  1  0
  2 10  1  0
  3  4  1  0
  4  9  2  0
  5  4  1  0
  5  6  2  0
  6  7  1  0
  7  8  2  0
  9  8  1  0
 10 17  1  0
 10 11  2  0
 13 12  1  0
 14 13  1  0
 14 15  1  6
 16 14  1  0
 16 17  1  1
 18 16  1  0
 18 19  2  0
 21 20  1  6
 21 23  1  0
 22 21  1  0
 24 23  1  1
 24 25  1  0
 25 18  1  0
 26 27  1  0
 26 24  1  0
 28 26  2  0
M  END
$$$$
