FIL.pdb
     RDKit          3D

 28 28  0  0  1  0  0  0  0  0999 V2000
    6.0408  -19.6781   25.6893 N   0  0  0  0  0  0  0  0  0  0  0  0
    6.9160  -18.5386   25.6668 C   0  0  1  0  0  0  0  0  0  0  0  0
    8.2700  -18.8205   26.2806 C   0  0  0  0  0  0  0  0  0  0  0  0
    8.3320  -18.3809   27.6858 C   0  0  0  0  0  0  0  0  0  0  0  0
    8.1469  -19.2860   28.7370 C   0  0  0  0  0  0  0  0  0  0  0  0
    8.2113  -18.8409   30.0450 C   0  0  0  0  0  0  0  0  0  0  0  0
    8.4558  -17.5149   30.3438 C   0  0  0  0  0  0  0  0  0  0  0  0
    8.6347  -16.6437   29.2822 C   0  0  0  0  0  0  0  0  0  0  0  0
    8.5769  -17.0532   27.9729 C   0  0  0  0  0  0  0  0  0  0  0  0
    7.0678  -17.9644   24.3222 C   0  0  0  0  0  0  0  0  0  0  0  0
    7.3647  -18.7107   23.3280 O   0  0  0  0  0  0  0  0  0  0  0  0
    6.9944  -13.1507   20.5801 C   0  0  0  0  0  0  0  0  0  0  0  0
    7.7914  -14.2069   21.3098 C   0  0  0  0  0  0  0  0  0  0  0  0
    6.9688  -14.8424   22.4253 C   0  0  2  0  0  0  0  0  0  0  0  0
    6.6282  -13.7110   23.3647 C   0  0  0  0  0  0  0  0  0  0  0  0
    7.7774  -15.9092   23.1364 C   0  0  2  0  0  0  0  0  0  0  0  0
    6.8850  -16.5779   24.1237 N   0  0  0  0  0  0  0  0  0  0  0  0
    8.8001  -15.2470   23.9826 C   0  0  0  0  0  0  0  0  0  0  0  0
    8.8900  -13.9614   24.0385 O   0  0  0  0  0  0  0  0  0  0  0  0
    8.6347  -12.6819   25.6264 C   0  0  0  0  0  0  0  0  0  0  0  0
    8.8817  -13.9184   26.4942 C   0  0  2  0  0  0  0  0  0  0  0  0
    8.1502  -13.8644   27.7927 C   0  0  0  0  0  0  0  0  0  0  0  0
   10.3139  -14.3020   26.5644 C   0  0  0  0  0  0  0  0  0  0  0  0
   10.8109  -15.2555   25.5325 C   0  0  2  0  0  0  0  0  0  0  0  0
    9.7523  -15.9119   24.7940 N   0  0  0  0  0  0  0  0  0  0  0  0
   11.8115  -16.2200   26.0095 C   0  0  0  0  0  0  0  0  0  0  0  0
   11.6916  -17.5902   25.8476 O   0  0  0  0  0  0  0  0  0  0  0  0
   12.8434  -15.8141   26.6004 O   0  0  0  0  0  0  0  0  0  0  0  0
  2  1  1  6
  2  3  1  0
  2 10  1  0
  3  4  1  0
  4  9  2  0
  5  4  1  0
  5  6  2  0
  6  7  1  0
  7  8  2  0
  9  8  1  0
 10 17  1  0
 10 11  2  0
 13 12  1  0
 14 13  1  0
 14 15  1  1
 16 14  1  0
 16 17  1  1
 18 16  1  0
 18 19  2  0
 21 20  1  1
 21 23  1  0
 22 21  1  0
 24 23  1  1
 24 25  1  0
 25 18  1  0
 26 27  1  0
 26 24  1  0
 28 26  2  0
M  END
$$$$
