FIL.pdb
     RDKit          3D

 28 28  0  0  1  0  0  0  0  0999 V2000
    5.1353  -17.7260   24.5505 N   0  0  0  0  0  0  0  0  0  0  0  0
    5.9505  -16.5581   24.7408 C   0  0  1  0  0  0  0  0  0  0  0  0
    6.1977  -16.2405   26.1993 C   0  0  0  0  0  0  0  0  0  0  0  0
    6.5005  -14.8125   26.4011 C   0  0  0  0  0  0  0  0  0  0  0  0
    6.8602  -13.9894   25.3279 C   0  0  0  0  0  0  0  0  0  0  0  0
    7.1383  -12.6530   25.5514 C   0  0  0  0  0  0  0  0  0  0  0  0
    7.0697  -12.1045   26.8170 C   0  0  0  0  0  0  0  0  0  0  0  0
    6.7110  -12.9443   27.8582 C   0  0  0  0  0  0  0  0  0  0  0  0
    6.4288  -14.2748   27.6703 C   0  0  0  0  0  0  0  0  0  0  0  0
    7.2209  -16.6250   24.0042 C   0  0  0  0  0  0  0  0  0  0  0  0
    7.9073  -17.7030   23.9915 O   0  0  0  0  0  0  0  0  0  0  0  0
    7.7241  -13.5734   19.5916 C   0  0  0  0  0  0  0  0  0  0  0  0
    7.8873  -14.7766   20.4910 C   0  0  0  0  0  0  0  0  0  0  0  0
    9.0172  -14.5642   21.4925 C   0  0  2  0  0  0  0  0  0  0  0  0
   10.2895  -14.6621   20.6860 C   0  0  0  0  0  0  0  0  0  0  0  0
    8.9772  -15.6310   22.5686 C   0  0  2  0  0  0  0  0  0  0  0  0
    7.6895  -15.4913   23.3040 N   0  0  0  0  0  0  0  0  0  0  0  0
   10.0010  -15.3126   23.5937 C   0  0  0  0  0  0  0  0  0  0  0  0
   10.4862  -14.1226   23.7057 O   0  0  0  0  0  0  0  0  0  0  0  0
    9.4025  -13.1373   26.7747 C   0  0  0  0  0  0  0  0  0  0  0  0
   10.0467  -14.5151   26.9466 C   0  0  2  0  0  0  0  0  0  0  0  0
   10.0278  -14.9857   28.3616 C   0  0  0  0  0  0  0  0  0  0  0  0
   11.3403  -14.6449   26.2302 C   0  0  0  0  0  0  0  0  0  0  0  0
   11.5792  -15.9154   25.4888 C   0  0  2  0  0  0  0  0  0  0  0  0
   10.5410  -16.2291   24.5294 N   0  0  0  0  0  0  0  0  0  0  0  0
   11.9001  -17.0751   26.3322 C   0  0  0  0  0  0  0  0  0  0  0  0
   11.2035  -18.2712   26.2855 O   0  0  0  0  0  0  0  0  0  0  0  0
   12.8511  -17.0124   27.1508 O   0  0  0  0  0  0  0  0  0  0  0  0
  2  1  1  1
  2  3  1  0
  2 10  1  0
  3  4  1  0
  4  9  2  0
  5  4  1  0
  5  6  2  0
  6  7  1  0
  7  8  2  0
  9  8  1  0
 10 17  1  0
 10 11  2  0
 13 12  1  0
 14 13  1  0
 14 15  1  6
 16 14  1  0
 16 17  1  1
 18 16  1  0
 18 19  2  0
 21 20  1  1
 21 23  1  0
 22 21  1  0
 24 23  1  1
 24 25  1  0
 25 18  1  0
 26 27  1  0
 26 24  1  0
 28 26  2  0
M  END
$$$$
