IYN.pdb
     RDKit          3D

 29 29  0  0  1  0  0  0  0  0999 V2000
   23.0866  -15.9840  -18.0057 C   0  0  0  0  0  0  0  0  0  0  0  0
   23.2119  -14.6419  -17.3285 C   0  0  0  0  0  0  0  0  0  0  0  0
   22.3417  -13.5792  -17.9625 C   0  0  2  0  0  0  0  0  0  0  0  0
   22.7379  -13.4187  -19.3891 C   0  0  0  0  0  0  0  0  0  0  0  0
   22.4491  -12.3341  -17.1318 C   0  0  2  0  0  0  0  0  0  0  0  0
   22.0837  -12.7074  -15.7747 N   0  0  0  0  0  0  0  0  0  0  0  0
   21.5661  -11.2411  -17.6112 C   0  0  0  0  0  0  0  0  0  0  0  0
   21.7121  -10.7224  -18.7531 O   0  0  0  0  0  0  0  0  0  0  0  0
   14.4777   -5.9465  -18.4026 O   0  0  0  0  0  0  0  0  0  0  0  0
   15.4300   -6.9336  -18.1215 C   0  0  0  0  0  0  0  0  0  0  0  0
   15.5851   -7.3951  -16.8513 C   0  0  0  0  0  0  0  0  0  0  0  0
   16.5267   -8.3763  -16.5523 C   0  0  0  0  0  0  0  0  0  0  0  0
   17.3307   -8.9167  -17.5114 C   0  0  0  0  0  0  0  0  0  0  0  0
   18.3380   -9.9571  -17.3197 C   0  0  0  0  0  0  0  0  0  0  0  0
   19.7548   -9.5463  -17.1313 C   0  0  2  0  0  0  0  0  0  0  0  0
   20.5476  -10.7714  -16.7830 N   0  0  0  0  0  0  0  0  0  0  0  0
   20.0573   -8.5077  -16.1588 C   0  0  0  0  0  0  0  0  0  0  0  0
   20.3948   -8.8553  -14.9845 O   0  0  0  0  0  0  0  0  0  0  0  0
   17.1454   -8.4211  -18.8001 C   0  0  0  0  0  0  0  0  0  0  0  0
   16.2246   -7.4564  -19.1118 C   0  0  0  0  0  0  0  0  0  0  0  0
   22.3486   -5.8043  -12.6146 N   0  0  0  0  0  0  0  0  0  0  0  0
   22.3630   -5.5496  -14.0285 C   0  0  0  0  0  0  0  0  0  0  0  0
   22.8674   -4.4698  -14.3859 O   0  0  0  0  0  0  0  0  0  0  0  0
   21.8167   -6.5034  -14.9905 C   0  0  0  0  0  0  0  0  0  0  0  0
   20.3626   -6.2110  -15.3541 C   0  0  2  0  0  0  0  0  0  0  0  0
   20.0042   -7.1374  -16.4542 N   0  0  0  0  0  0  0  0  0  0  0  0
   20.1653   -4.8343  -15.8101 C   0  0  0  0  0  0  0  0  0  0  0  0
   20.1221   -4.4993  -17.0349 O   0  0  0  0  0  0  0  0  0  0  0  0
   20.0126   -3.8232  -14.8571 O   0  0  0  0  0  0  0  0  0  0  0  0
  2  1  1  0
  3  5  1  0
  3  2  1  0
  3  4  1  6
  5  6  1  1
  7  5  1  0
  7 16  1  0
  8  7  2  0
  9 10  1  0
 10 20  2  0
 10 11  1  0
 11 12  2  0
 12 13  1  0
 13 14  1  0
 15 14  1  1
 15 16  1  0
 17 15  1  0
 18 17  2  0
 19 13  2  0
 20 19  1  0
 21 22  1  0
 22 24  1  0
 23 22  2  0
 25 24  1  6
 25 26  1  0
 25 27  1  0
 26 17  1  0
 27 29  1  0
 28 27  2  0
M  END
$$$$
