IYN.pdb
     RDKit          3D

 29 29  0  0  1  0  0  0  0  0999 V2000
   25.5250  -17.0945  -21.4139 C   0  0  0  0  0  0  0  0  0  0  0  0
   24.5861  -17.0080  -20.2364 C   0  0  0  0  0  0  0  0  0  0  0  0
   24.6886  -18.2018  -19.3130 C   0  0  2  0  0  0  0  0  0  0  0  0
   24.5794  -19.4479  -20.1211 C   0  0  0  0  0  0  0  0  0  0  0  0
   23.6502  -18.0501  -18.2401 C   0  0  2  0  0  0  0  0  0  0  0  0
   23.9546  -16.8126  -17.5396 N   0  0  0  0  0  0  0  0  0  0  0  0
   23.6384  -19.1842  -17.2821 C   0  0  0  0  0  0  0  0  0  0  0  0
   23.3741  -20.3623  -17.6516 O   0  0  0  0  0  0  0  0  0  0  0  0
   29.6986  -21.9698  -16.9191 O   0  0  0  0  0  0  0  0  0  0  0  0
   28.5755  -21.4873  -16.2364 C   0  0  0  0  0  0  0  0  0  0  0  0
   28.4287  -20.1535  -16.0139 C   0  0  0  0  0  0  0  0  0  0  0  0
   27.3188  -19.6548  -15.3369 C   0  0  0  0  0  0  0  0  0  0  0  0
   26.3344  -20.4739  -14.8696 C   0  0  0  0  0  0  0  0  0  0  0  0
   25.1229  -20.0655  -14.1631 C   0  0  0  0  0  0  0  0  0  0  0  0
   23.8390  -20.0397  -14.9133 C   0  0  2  0  0  0  0  0  0  0  0  0
   23.9260  -18.9478  -15.9385 N   0  0  0  0  0  0  0  0  0  0  0  0
   22.5990  -19.8785  -14.1701 C   0  0  0  0  0  0  0  0  0  0  0  0
   22.4548  -18.8440  -13.4470 O   0  0  0  0  0  0  0  0  0  0  0  0
   26.5169  -21.8330  -15.1145 C   0  0  0  0  0  0  0  0  0  0  0  0
   27.6021  -22.3407  -15.7781 C   0  0  0  0  0  0  0  0  0  0  0  0
   17.8770  -19.5650  -12.3969 N   0  0  0  0  0  0  0  0  0  0  0  0
   18.5767  -18.7196  -13.3241 C   0  0  0  0  0  0  0  0  0  0  0  0
   18.0255  -17.6402  -13.6054 O   0  0  0  0  0  0  0  0  0  0  0  0
   19.8610  -19.1055  -13.9033 C   0  0  0  0  0  0  0  0  0  0  0  0
   20.3398  -20.4739  -13.4238 C   0  0  2  0  0  0  0  0  0  0  0  0
   21.5469  -20.8050  -14.2177 N   0  0  0  0  0  0  0  0  0  0  0  0
   19.3372  -21.5207  -13.6262 C   0  0  0  0  0  0  0  0  0  0  0  0
   19.4803  -22.4818  -14.4449 O   0  0  0  0  0  0  0  0  0  0  0  0
   18.1537  -21.4743  -12.8837 O   0  0  0  0  0  0  0  0  0  0  0  0
  2  1  1  0
  3  5  1  0
  3  2  1  0
  3  4  1  6
  5  6  1  1
  7  5  1  0
  7 16  1  0
  8  7  2  0
  9 10  1  0
 10 20  2  0
 10 11  1  0
 11 12  2  0
 12 13  1  0
 13 14  1  0
 15 14  1  1
 15 16  1  0
 17 15  1  0
 18 17  2  0
 19 13  2  0
 20 19  1  0
 21 22  1  0
 22 24  1  0
 23 22  2  0
 25 24  1  6
 25 26  1  0
 25 27  1  0
 26 17  1  0
 27 29  1  0
 28 27  2  0
M  END
$$$$
