IYN.pdb
     RDKit          3D

 29 29  0  0  1  0  0  0  0  0999 V2000
   28.3321  -13.6609  -15.3381 C   0  0  0  0  0  0  0  0  0  0  0  0
   26.8659  -13.8906  -15.0680 C   0  0  0  0  0  0  0  0  0  0  0  0
   25.9909  -12.7649  -15.5736 C   0  0  2  0  0  0  0  0  0  0  0  0
   26.4395  -11.4882  -14.9518 C   0  0  0  0  0  0  0  0  0  0  0  0
   24.5606  -13.1315  -15.3051 C   0  0  2  0  0  0  0  0  0  0  0  0
   24.3752  -14.4811  -15.8140 N   0  0  0  0  0  0  0  0  0  0  0  0
   23.5954  -12.2088  -15.9541 C   0  0  0  0  0  0  0  0  0  0  0  0
   23.4242  -12.1998  -17.2050 O   0  0  0  0  0  0  0  0  0  0  0  0
   18.8173  -15.8246  -17.9094 O   0  0  0  0  0  0  0  0  0  0  0  0
   19.2214  -14.6517  -17.2603 C   0  0  0  0  0  0  0  0  0  0  0  0
   19.5652  -14.6796  -15.9446 C   0  0  0  0  0  0  0  0  0  0  0  0
   19.9695  -13.5236  -15.2820 C   0  0  0  0  0  0  0  0  0  0  0  0
   20.0399  -12.3190  -15.9165 C   0  0  0  0  0  0  0  0  0  0  0  0
   20.4628  -11.0491  -15.3315 C   0  0  0  0  0  0  0  0  0  0  0  0
   21.7690  -10.4750  -15.7512 C   0  0  2  0  0  0  0  0  0  0  0  0
   22.8564  -11.3272  -15.1664 N   0  0  0  0  0  0  0  0  0  0  0  0
   22.0530   -9.0833  -15.4378 C   0  0  0  0  0  0  0  0  0  0  0  0
   22.4392   -8.7922  -14.2631 O   0  0  0  0  0  0  0  0  0  0  0  0
   19.6807  -12.3270  -17.2624 C   0  0  0  0  0  0  0  0  0  0  0  0
   19.2805  -13.4541  -17.9295 C   0  0  0  0  0  0  0  0  0  0  0  0
   22.8466   -3.9654  -15.4029 N   0  0  0  0  0  0  0  0  0  0  0  0
   22.8255   -4.4321  -16.7615 C   0  0  0  0  0  0  0  0  0  0  0  0
   23.0214   -3.5725  -17.6396 O   0  0  0  0  0  0  0  0  0  0  0  0
   22.5875   -5.8348  -17.0926 C   0  0  0  0  0  0  0  0  0  0  0  0
   22.2094   -6.6749  -15.8748 C   0  0  2  0  0  0  0  0  0  0  0  0
   21.9308   -8.0434  -16.3714 N   0  0  0  0  0  0  0  0  0  0  0  0
   21.0189   -6.1668  -15.1917 C   0  0  0  0  0  0  0  0  0  0  0  0
   19.8388   -6.3005  -15.6435 O   0  0  0  0  0  0  0  0  0  0  0  0
   21.1734   -5.4979  -13.9740 O   0  0  0  0  0  0  0  0  0  0  0  0
  2  1  1  0
  3  5  1  0
  3  2  1  0
  3  4  1  1
  5  6  1  6
  7  5  1  0
  7 16  1  0
  8  7  2  0
  9 10  1  0
 10 20  2  0
 10 11  1  0
 11 12  2  0
 12 13  1  0
 13 14  1  0
 15 14  1  1
 15 16  1  0
 17 15  1  0
 18 17  2  0
 19 13  2  0
 20 19  1  0
 21 22  1  0
 22 24  1  0
 23 22  2  0
 25 24  1  6
 25 26  1  0
 25 27  1  0
 26 17  1  0
 27 29  1  0
 28 27  2  0
M  END
$$$$
