IYN.pdb
     RDKit          3D

 29 29  0  0  1  0  0  0  0  0999 V2000
   31.3667  -22.0655  -18.5384 C   0  0  0  0  0  0  0  0  0  0  0  0
   29.9584  -21.5297  -18.4668 C   0  0  0  0  0  0  0  0  0  0  0  0
   29.1196  -22.2184  -17.4130 C   0  0  2  0  0  0  0  0  0  0  0  0
   29.0962  -23.6806  -17.6941 C   0  0  0  0  0  0  0  0  0  0  0  0
   27.7725  -21.5573  -17.3860 C   0  0  2  0  0  0  0  0  0  0  0  0
   28.0126  -20.1237  -17.4268 N   0  0  0  0  0  0  0  0  0  0  0  0
   26.9822  -21.9040  -16.1779 C   0  0  0  0  0  0  0  0  0  0  0  0
   26.5225  -23.0659  -15.9965 O   0  0  0  0  0  0  0  0  0  0  0  0
   23.7035  -20.7029   -7.9289 O   0  0  0  0  0  0  0  0  0  0  0  0
   24.3995  -20.6352   -9.1418 C   0  0  0  0  0  0  0  0  0  0  0  0
   25.6584  -21.1411   -9.2395 C   0  0  0  0  0  0  0  0  0  0  0  0
   26.3663  -21.0830  -10.4371 C   0  0  0  0  0  0  0  0  0  0  0  0
   25.8344  -20.5211  -11.5596 C   0  0  0  0  0  0  0  0  0  0  0  0
   26.4732  -20.4178  -12.8692 C   0  0  0  0  0  0  0  0  0  0  0  0
   25.9140  -21.2117  -13.9955 C   0  0  2  0  0  0  0  0  0  0  0  0
   26.7385  -20.9250  -15.2157 N   0  0  0  0  0  0  0  0  0  0  0  0
   24.5098  -21.0462  -14.3370 C   0  0  0  0  0  0  0  0  0  0  0  0
   24.2031  -20.2448  -15.2737 O   0  0  0  0  0  0  0  0  0  0  0  0
   24.5444  -20.0130  -11.4238 C   0  0  0  0  0  0  0  0  0  0  0  0
   23.8341  -20.0614  -10.2539 C   0  0  0  0  0  0  0  0  0  0  0  0
   20.7698  -22.5812  -17.6262 N   0  0  0  0  0  0  0  0  0  0  0  0
   21.6626  -21.9510  -16.6935 C   0  0  0  0  0  0  0  0  0  0  0  0
   22.1034  -20.8356  -17.0246 O   0  0  0  0  0  0  0  0  0  0  0  0
   22.0314  -22.5837  -15.4296 C   0  0  0  0  0  0  0  0  0  0  0  0
   22.1190  -21.5903  -14.2732 C   0  0  2  0  0  0  0  0  0  0  0  0
   23.4736  -21.7351  -13.6891 N   0  0  0  0  0  0  0  0  0  0  0  0
   21.1235  -21.8525  -13.2330 C   0  0  0  0  0  0  0  0  0  0  0  0
   20.2183  -21.0244  -12.9021 O   0  0  0  0  0  0  0  0  0  0  0  0
   21.1570  -23.0772  -12.5600 O   0  0  0  0  0  0  0  0  0  0  0  0
  2  1  1  0
  3  5  1  0
  3  2  1  0
  3  4  1  6
  5  6  1  1
  7  5  1  0
  7 16  1  0
  8  7  2  0
  9 10  1  0
 10 20  2  0
 10 11  1  0
 11 12  2  0
 12 13  1  0
 13 14  1  0
 15 14  1  1
 15 16  1  0
 17 15  1  0
 18 17  2  0
 19 13  2  0
 20 19  1  0
 21 22  1  0
 22 24  1  0
 23 22  2  0
 25 24  1  6
 25 26  1  0
 25 27  1  0
 26 17  1  0
 27 29  1  0
 28 27  2  0
M  END
$$$$
