IYN.pdb
     RDKit          3D

 29 29  0  0  1  0  0  0  0  0999 V2000
   25.4370  -16.8681  -19.0830 C   0  0  0  0  0  0  0  0  0  0  0  0
   26.2390  -18.0791  -18.6756 C   0  0  0  0  0  0  0  0  0  0  0  0
   27.5750  -17.7212  -18.0628 C   0  0  2  0  0  0  0  0  0  0  0  0
   28.3581  -16.9216  -19.0451 C   0  0  0  0  0  0  0  0  0  0  0  0
   28.2345  -18.9915  -17.6115 C   0  0  2  0  0  0  0  0  0  0  0  0
   28.3849  -19.8242  -18.7941 N   0  0  0  0  0  0  0  0  0  0  0  0
   27.4502  -19.7152  -16.5793 C   0  0  0  0  0  0  0  0  0  0  0  0
   26.6637  -20.6556  -16.8815 O   0  0  0  0  0  0  0  0  0  0  0  0
   24.9238  -20.9769   -7.9856 O   0  0  0  0  0  0  0  0  0  0  0  0
   25.5804  -20.7208   -9.1954 C   0  0  0  0  0  0  0  0  0  0  0  0
   26.0087  -21.7501   -9.9747 C   0  0  0  0  0  0  0  0  0  0  0  0
   26.6634  -21.5153  -11.1809 C   0  0  0  0  0  0  0  0  0  0  0  0
   26.9034  -20.2521  -11.6342 C   0  0  0  0  0  0  0  0  0  0  0  0
   27.5635  -19.8856  -12.8846 C   0  0  0  0  0  0  0  0  0  0  0  0
   26.8119  -20.0483  -14.1575 C   0  0  2  0  0  0  0  0  0  0  0  0
   27.5819  -19.3510  -15.2399 N   0  0  0  0  0  0  0  0  0  0  0  0
   25.4284  -19.6025  -14.2135 C   0  0  0  0  0  0  0  0  0  0  0  0
   25.1887  -18.4126  -14.5883 O   0  0  0  0  0  0  0  0  0  0  0  0
   26.4518  -19.2226  -10.8115 C   0  0  0  0  0  0  0  0  0  0  0  0
   25.8067  -19.4354   -9.6223 C   0  0  0  0  0  0  0  0  0  0  0  0
   21.1514  -18.1023  -16.8333 N   0  0  0  0  0  0  0  0  0  0  0  0
   21.4293  -18.9051  -15.6747 C   0  0  0  0  0  0  0  0  0  0  0  0
   20.4816  -19.0774  -14.8870 O   0  0  0  0  0  0  0  0  0  0  0  0
   22.7484  -19.4851  -15.4354 C   0  0  0  0  0  0  0  0  0  0  0  0
   22.9970  -19.8041  -13.9629 C   0  0  2  0  0  0  0  0  0  0  0  0
   24.3408  -20.4243  -13.8825 N   0  0  0  0  0  0  0  0  0  0  0  0
   22.0104  -20.7378  -13.4179 C   0  0  0  0  0  0  0  0  0  0  0  0
   20.9369  -20.3708  -12.8457 O   0  0  0  0  0  0  0  0  0  0  0  0
   22.2481  -22.1109  -13.5276 O   0  0  0  0  0  0  0  0  0  0  0  0
  2  1  1  0
  3  5  1  0
  3  2  1  0
  3  4  1  6
  5  6  1  6
  7  5  1  0
  7 16  1  0
  8  7  2  0
  9 10  1  0
 10 20  2  0
 10 11  1  0
 11 12  2  0
 12 13  1  0
 13 14  1  0
 15 14  1  1
 15 16  1  0
 17 15  1  0
 18 17  2  0
 19 13  2  0
 20 19  1  0
 21 22  1  0
 22 24  1  0
 23 22  2  0
 25 24  1  6
 25 26  1  0
 25 27  1  0
 26 17  1  0
 27 29  1  0
 28 27  2  0
M  END
$$$$
