IYN.pdb
     RDKit          3D

 29 29  0  0  1  0  0  0  0  0999 V2000
   26.8379  -20.4994  -20.4985 C   0  0  0  0  0  0  0  0  0  0  0  0
   27.5781  -21.0657  -19.3123 C   0  0  0  0  0  0  0  0  0  0  0  0
   26.7049  -21.2039  -18.0848 C   0  0  2  0  0  0  0  0  0  0  0  0
   26.0919  -19.8820  -17.7772 C   0  0  0  0  0  0  0  0  0  0  0  0
   27.5409  -21.7857  -16.9827 C   0  0  2  0  0  0  0  0  0  0  0  0
   28.0040  -23.0816  -17.4527 N   0  0  0  0  0  0  0  0  0  0  0  0
   26.7912  -21.9467  -15.7114 C   0  0  0  0  0  0  0  0  0  0  0  0
   25.8855  -22.8168  -15.5806 O   0  0  0  0  0  0  0  0  0  0  0  0
   25.0734  -20.2622   -7.0209 O   0  0  0  0  0  0  0  0  0  0  0  0
   25.5985  -20.3738   -8.3140 C   0  0  0  0  0  0  0  0  0  0  0  0
   25.7192  -19.2721   -9.1026 C   0  0  0  0  0  0  0  0  0  0  0  0
   26.2390  -19.3631  -10.3912 C   0  0  0  0  0  0  0  0  0  0  0  0
   26.6487  -20.5517  -10.9184 C   0  0  0  0  0  0  0  0  0  0  0  0
   27.2215  -20.7655  -12.2450 C   0  0  0  0  0  0  0  0  0  0  0  0
   26.3186  -21.1927  -13.3468 C   0  0  2  0  0  0  0  0  0  0  0  0
   27.0910  -21.1183  -14.6308 N   0  0  0  0  0  0  0  0  0  0  0  0
   25.0557  -20.4934  -13.5256 C   0  0  0  0  0  0  0  0  0  0  0  0
   25.0412  -19.4374  -14.2316 O   0  0  0  0  0  0  0  0  0  0  0  0
   26.5106  -21.6586  -10.0840 C   0  0  0  0  0  0  0  0  0  0  0  0
   26.0013  -21.5873   -8.8147 C   0  0  0  0  0  0  0  0  0  0  0  0
   21.2684  -18.1140  -15.7720 N   0  0  0  0  0  0  0  0  0  0  0  0
   21.2982  -19.4590  -15.2677 C   0  0  0  0  0  0  0  0  0  0  0  0
   20.2095  -20.0612  -15.2475 O   0  0  0  0  0  0  0  0  0  0  0  0
   22.5353  -20.0830  -14.8051 C   0  0  0  0  0  0  0  0  0  0  0  0
   22.6426  -20.1282  -13.2825 C   0  0  2  0  0  0  0  0  0  0  0  0
   23.8470  -20.9313  -12.9642 N   0  0  0  0  0  0  0  0  0  0  0  0
   21.4766  -20.7538  -12.6572 C   0  0  0  0  0  0  0  0  0  0  0  0
   20.3001  -20.2797  -12.7323 O   0  0  0  0  0  0  0  0  0  0  0  0
   21.6516  -21.9388  -11.9367 O   0  0  0  0  0  0  0  0  0  0  0  0
  2  1  1  0
  3  5  1  0
  3  2  1  0
  3  4  1  1
  5  6  1  6
  7  5  1  0
  7 16  1  0
  8  7  2  0
  9 10  1  0
 10 20  2  0
 10 11  1  0
 11 12  2  0
 12 13  1  0
 13 14  1  0
 15 14  1  1
 15 16  1  0
 17 15  1  0
 18 17  2  0
 19 13  2  0
 20 19  1  0
 21 22  1  0
 22 24  1  0
 23 22  2  0
 25 24  1  6
 25 26  1  0
 25 27  1  0
 26 17  1  0
 27 29  1  0
 28 27  2  0
M  END
$$$$
