IYN.pdb
     RDKit          3D

 29 29  0  0  1  0  0  0  0  0999 V2000
   30.2655  -16.9292  -19.5323 C   0  0  0  0  0  0  0  0  0  0  0  0
   28.8723  -17.3759  -19.1649 C   0  0  0  0  0  0  0  0  0  0  0  0
   28.8629  -18.5601  -18.2237 C   0  0  2  0  0  0  0  0  0  0  0  0
   29.7028  -19.6445  -18.8038 C   0  0  0  0  0  0  0  0  0  0  0  0
   27.4335  -18.9365  -17.9646 C   0  0  2  0  0  0  0  0  0  0  0  0
   26.7049  -17.6929  -17.7721 N   0  0  0  0  0  0  0  0  0  0  0  0
   27.2716  -19.8076  -16.7732 C   0  0  0  0  0  0  0  0  0  0  0  0
   27.7497  -20.9756  -16.7351 O   0  0  0  0  0  0  0  0  0  0  0  0
   25.5400  -20.8298   -8.0087 O   0  0  0  0  0  0  0  0  0  0  0  0
   25.9296  -20.5222   -9.3179 C   0  0  0  0  0  0  0  0  0  0  0  0
   26.6450  -21.4187  -10.0492 C   0  0  0  0  0  0  0  0  0  0  0  0
   27.0414  -21.1308  -11.3526 C   0  0  0  0  0  0  0  0  0  0  0  0
   26.7327  -19.9461  -11.9524 C   0  0  0  0  0  0  0  0  0  0  0  0
   27.0792  -19.5415  -13.3126 C   0  0  0  0  0  0  0  0  0  0  0  0
   26.3575  -20.1770  -14.4471 C   0  0  2  0  0  0  0  0  0  0  0  0
   26.5747  -19.3282  -15.6649 N   0  0  0  0  0  0  0  0  0  0  0  0
   24.9323  -20.4349  -14.3113 C   0  0  0  0  0  0  0  0  0  0  0  0
   24.1220  -19.4716  -14.4826 O   0  0  0  0  0  0  0  0  0  0  0  0
   26.0000  -19.0520  -11.1751 C   0  0  0  0  0  0  0  0  0  0  0  0
   25.6023  -19.3185   -9.8919 C   0  0  0  0  0  0  0  0  0  0  0  0
   20.2522  -21.5422  -12.9515 N   0  0  0  0  0  0  0  0  0  0  0  0
   21.2180  -20.6747  -12.3359 C   0  0  0  0  0  0  0  0  0  0  0  0
   20.7738  -19.8610  -11.5061 O   0  0  0  0  0  0  0  0  0  0  0  0
   22.6394  -20.7442  -12.6658 C   0  0  0  0  0  0  0  0  0  0  0  0
   22.9438  -21.7618  -13.7630 C   0  0  2  0  0  0  0  0  0  0  0  0
   24.4041  -21.6987  -14.0089 N   0  0  0  0  0  0  0  0  0  0  0  0
   22.2394  -21.4667  -15.0115 C   0  0  0  0  0  0  0  0  0  0  0  0
   22.8202  -21.0643  -16.0676 O   0  0  0  0  0  0  0  0  0  0  0  0
   20.8525  -21.6342  -15.0598 O   0  0  0  0  0  0  0  0  0  0  0  0
  2  1  1  0
  3  5  1  0
  3  2  1  0
  3  4  1  6
  5  6  1  1
  7  5  1  0
  7 16  1  0
  8  7  2  0
  9 10  1  0
 10 20  2  0
 10 11  1  0
 11 12  2  0
 12 13  1  0
 13 14  1  0
 15 14  1  1
 15 16  1  0
 17 15  1  0
 18 17  2  0
 19 13  2  0
 20 19  1  0
 21 22  1  0
 22 24  1  0
 23 22  2  0
 25 24  1  1
 25 26  1  0
 25 27  1  0
 26 17  1  0
 27 29  1  0
 28 27  2  0
M  END
$$$$
