IYN.pdb
     RDKit          3D

 29 29  0  0  1  0  0  0  0  0999 V2000
   26.4369  -23.6322  -20.5417 C   0  0  0  0  0  0  0  0  0  0  0  0
   27.0305  -23.7378  -19.1589 C   0  0  0  0  0  0  0  0  0  0  0  0
   26.0142  -23.5048  -18.0628 C   0  0  2  0  0  0  0  0  0  0  0  0
   25.3907  -22.1667  -18.2591 C   0  0  0  0  0  0  0  0  0  0  0  0
   26.7023  -23.6951  -16.7428 C   0  0  2  0  0  0  0  0  0  0  0  0
   27.1087  -25.0901  -16.6837 N   0  0  0  0  0  0  0  0  0  0  0  0
   25.8313  -23.3721  -15.5847 C   0  0  0  0  0  0  0  0  0  0  0  0
   24.9098  -24.1497  -15.2100 O   0  0  0  0  0  0  0  0  0  0  0  0
   23.8146  -20.2039   -7.5993 O   0  0  0  0  0  0  0  0  0  0  0  0
   24.3767  -20.4208   -8.8631 C   0  0  0  0  0  0  0  0  0  0  0  0
   25.5940  -21.0167   -8.9793 C   0  0  0  0  0  0  0  0  0  0  0  0
   26.1692  -21.2409  -10.2274 C   0  0  0  0  0  0  0  0  0  0  0  0
   25.5436  -20.8768  -11.3826 C   0  0  0  0  0  0  0  0  0  0  0  0
   26.0400  -21.0743  -12.7422 C   0  0  0  0  0  0  0  0  0  0  0  0
   25.1817  -21.8066  -13.7111 C   0  0  2  0  0  0  0  0  0  0  0  0
   26.0320  -22.1805  -14.8893 N   0  0  0  0  0  0  0  0  0  0  0  0
   23.9728  -21.1615  -14.1994 C   0  0  0  0  0  0  0  0  0  0  0  0
   24.0442  -20.4569  -15.2540 O   0  0  0  0  0  0  0  0  0  0  0  0
   24.2997  -20.2693  -11.2268 C   0  0  0  0  0  0  0  0  0  0  0  0
   23.7195  -20.0409  -10.0074 C   0  0  0  0  0  0  0  0  0  0  0  0
   19.9067  -22.0105  -17.4093 N   0  0  0  0  0  0  0  0  0  0  0  0
   20.5671  -21.0146  -16.6118 C   0  0  0  0  0  0  0  0  0  0  0  0
   20.1136  -19.8588  -16.6919 O   0  0  0  0  0  0  0  0  0  0  0  0
   21.7056  -21.3406  -15.7565 C   0  0  0  0  0  0  0  0  0  0  0  0
   21.5495  -20.8078  -14.3340 C   0  0  2  0  0  0  0  0  0  0  0  0
   22.7258  -21.2853  -13.5689 N   0  0  0  0  0  0  0  0  0  0  0  0
   20.3317  -21.2944  -13.6841 C   0  0  0  0  0  0  0  0  0  0  0  0
   19.1704  -20.8498  -13.9451 O   0  0  0  0  0  0  0  0  0  0  0  0
   20.4368  -22.3045  -12.7236 O   0  0  0  0  0  0  0  0  0  0  0  0
  2  1  1  0
  3  5  1  0
  3  2  1  0
  3  4  1  1
  5  6  1  1
  7  5  1  0
  7 16  1  0
  8  7  2  0
  9 10  1  0
 10 20  2  0
 10 11  1  0
 11 12  2  0
 12 13  1  0
 13 14  1  0
 15 14  1  1
 15 16  1  0
 17 15  1  0
 18 17  2  0
 19 13  2  0
 20 19  1  0
 21 22  1  0
 22 24  1  0
 23 22  2  0
 25 24  1  6
 25 26  1  0
 25 27  1  0
 26 17  1  0
 27 29  1  0
 28 27  2  0
M  END
$$$$
