WED.pdb
     RDKit          3D

 32 33  0  0  1  0  0  0  0  0999 V2000
    6.9797  -17.3611   24.3560 N   0  0  0  0  0  0  0  0  0  0  0  0
    8.0165  -16.4012   24.0242 C   0  0  1  0  0  0  0  0  0  0  0  0
    8.4431  -15.7543   25.3291 C   0  0  0  0  0  0  0  0  0  0  0  0
    7.3454  -14.9242   25.8534 C   0  0  0  0  0  0  0  0  0  0  0  0
    6.1685  -15.3135   26.4568 C   0  0  0  0  0  0  0  0  0  0  0  0
    5.4700  -14.1966   26.7606 N   0  0  0  0  0  0  0  0  0  0  0  0
    6.1445  -13.1004   26.3797 C   0  0  0  0  0  0  0  0  0  0  0  0
    5.9028  -11.7272   26.4474 C   0  0  0  0  0  0  0  0  0  0  0  0
    6.8224  -10.8269   25.9546 C   0  0  0  0  0  0  0  0  0  0  0  0
    8.0029  -11.2503   25.3829 C   0  0  0  0  0  0  0  0  0  0  0  0
    8.2246  -12.6080   25.3240 C   0  0  0  0  0  0  0  0  0  0  0  0
    7.3174  -13.5373   25.8117 C   0  0  0  0  0  0  0  0  0  0  0  0
    9.1397  -17.1566   23.3881 C   0  0  0  0  0  0  0  0  0  0  0  0
    9.6820  -18.1341   23.9593 O   0  0  0  0  0  0  0  0  0  0  0  0
    9.6550  -16.8184   22.1168 N   0  0  0  0  0  0  0  0  0  0  0  0
   10.9850  -16.8988   21.6767 C   0  0  1  0  0  0  0  0  0  0  0  0
   11.3695  -16.1902   20.4140 C   0  0  0  0  0  0  0  0  0  0  0  0
   12.7856  -16.4047   19.9516 C   0  0  0  0  0  0  0  0  0  0  0  0
   12.8766  -16.9337   18.5577 C   0  0  0  0  0  0  0  0  0  0  0  0
   13.3939  -16.1756   17.6999 O   0  0  0  0  0  0  0  0  0  0  0  0
   11.9948  -16.6495   22.7110 C   0  0  0  0  0  0  0  0  0  0  0  0
   12.0769  -15.4839   23.1621 O   0  0  0  0  0  0  0  0  0  0  0  0
   12.4472  -18.1711   18.1398 O   0  0  0  0  0  0  0  0  0  0  0  0
   12.8202  -17.6891   23.1596 N   0  0  0  0  0  0  0  0  0  0  0  0
   13.9089  -17.4486   24.1174 C   0  0  1  0  0  0  0  0  0  0  0  0
   14.3780  -18.7798   24.5717 C   0  0  0  0  0  0  0  0  0  0  0  0
   13.5469  -19.4168   25.6113 C   0  0  0  0  0  0  0  0  0  0  0  0
   13.5364  -20.6608   25.7236 O   0  0  0  0  0  0  0  0  0  0  0  0
   14.9469  -16.6677   23.4035 C   0  0  0  0  0  0  0  0  0  0  0  0
   15.1702  -16.8803   22.0429 O   0  0  0  0  0  0  0  0  0  0  0  0
   12.7990  -18.5756   26.4347 O   0  0  0  0  0  0  0  0  0  0  0  0
   15.6744  -15.7930   23.9306 O   0  0  0  0  0  0  0  0  0  0  0  0
  2 13  1  0
  2  1  1  1
  3  4  1  0
  3  2  1  0
  4 12  1  0
  5  4  2  0
  5  6  1  0
  6  7  1  0
  7 12  2  0
  7  8  1  0
  8  9  2  0
  9 10  1  0
 11 10  2  0
 12 11  1  0
 13 14  2  0
 15 16  1  0
 15 13  1  0
 16 17  1  6
 18 17  1  0
 19 18  1  0
 19 20  2  0
 21 16  1  0
 22 21  2  0
 23 19  1  0
 24 21  1  0
 25 29  1  0
 25 24  1  0
 25 26  1  6
 27 26  1  0
 28 27  2  0
 29 30  1  0
 31 27  1  0
 32 29  2  0
M  END
$$$$
