WED.pdb
     RDKit          3D

 32 33  0  0  1  0  0  0  0  0999 V2000
    6.6718  -17.7589   24.5871 N   0  0  0  0  0  0  0  0  0  0  0  0
    7.7077  -16.8643   24.1044 C   0  0  1  0  0  0  0  0  0  0  0  0
    8.2599  -16.1432   25.3202 C   0  0  0  0  0  0  0  0  0  0  0  0
    7.2631  -15.1823   25.8224 C   0  0  0  0  0  0  0  0  0  0  0  0
    6.1211  -15.4144   26.5589 C   0  0  0  0  0  0  0  0  0  0  0  0
    5.5196  -14.2234   26.7764 N   0  0  0  0  0  0  0  0  0  0  0  0
    6.2236  -13.2296   26.2121 C   0  0  0  0  0  0  0  0  0  0  0  0
    6.0717  -11.8445   26.1289 C   0  0  0  0  0  0  0  0  0  0  0  0
    6.9980  -11.0751   25.4588 C   0  0  0  0  0  0  0  0  0  0  0  0
    8.0975  -11.6444   24.8533 C   0  0  0  0  0  0  0  0  0  0  0  0
    8.2314  -13.0118   24.9449 C   0  0  0  0  0  0  0  0  0  0  0  0
    7.3151  -13.8114   25.6126 C   0  0  0  0  0  0  0  0  0  0  0  0
    8.7506  -17.7041   23.4383 C   0  0  0  0  0  0  0  0  0  0  0  0
    9.0618  -18.8380   23.8778 O   0  0  0  0  0  0  0  0  0  0  0  0
    9.4438  -17.2757   22.2840 N   0  0  0  0  0  0  0  0  0  0  0  0
   10.7557  -17.5921   21.8995 C   0  0  1  0  0  0  0  0  0  0  0  0
   11.2747  -17.0543   20.6012 C   0  0  0  0  0  0  0  0  0  0  0  0
   12.5739  -17.6455   20.1238 C   0  0  0  0  0  0  0  0  0  0  0  0
   13.0157  -17.1076   18.8022 C   0  0  0  0  0  0  0  0  0  0  0  0
   13.4376  -17.9445   17.9657 O   0  0  0  0  0  0  0  0  0  0  0  0
   11.7668  -17.4160   22.9475 C   0  0  0  0  0  0  0  0  0  0  0  0
   11.9449  -16.2549   23.3820 O   0  0  0  0  0  0  0  0  0  0  0  0
   12.9968  -15.7849   18.4276 O   0  0  0  0  0  0  0  0  0  0  0  0
   12.4891  -18.5171   23.4263 N   0  0  0  0  0  0  0  0  0  0  0  0
   13.6564  -18.3490   24.3036 C   0  0  1  0  0  0  0  0  0  0  0  0
   14.2762  -17.0510   23.9433 C   0  0  0  0  0  0  0  0  0  0  0  0
   15.6926  -17.1235   23.5363 C   0  0  0  0  0  0  0  0  0  0  0  0
   16.5422  -16.4109   24.1112 O   0  0  0  0  0  0  0  0  0  0  0  0
   13.1585  -18.3997   25.6987 C   0  0  0  0  0  0  0  0  0  0  0  0
   11.8268  -18.0917   25.9779 O   0  0  0  0  0  0  0  0  0  0  0  0
   16.0164  -18.0062   22.5063 O   0  0  0  0  0  0  0  0  0  0  0  0
   13.8523  -18.7094   26.6962 O   0  0  0  0  0  0  0  0  0  0  0  0
  2 13  1  0
  2  1  1  1
  3  4  1  0
  3  2  1  0
  4 12  1  0
  5  4  2  0
  5  6  1  0
  6  7  1  0
  7 12  2  0
  7  8  1  0
  8  9  2  0
  9 10  1  0
 11 10  2  0
 12 11  1  0
 13 14  2  0
 15 16  1  0
 15 13  1  0
 16 17  1  6
 18 17  1  0
 19 18  1  0
 19 20  2  0
 21 16  1  0
 22 21  2  0
 23 19  1  0
 24 21  1  0
 25 29  1  0
 25 24  1  0
 25 26  1  6
 27 26  1  0
 28 27  2  0
 29 30  1  0
 31 27  1  0
 32 29  2  0
M  END
$$$$
