WED.pdb
     RDKit          3D

 32 33  0  0  1  0  0  0  0  0999 V2000
    6.6094  -17.4431   24.5010 N   0  0  0  0  0  0  0  0  0  0  0  0
    7.8494  -16.6896   24.4642 C   0  0  1  0  0  0  0  0  0  0  0  0
    8.0326  -16.0873   25.8450 C   0  0  0  0  0  0  0  0  0  0  0  0
    7.0422  -15.0175   26.0551 C   0  0  0  0  0  0  0  0  0  0  0  0
    5.7125  -15.1160   26.4055 C   0  0  0  0  0  0  0  0  0  0  0  0
    5.2079  -13.8635   26.4709 N   0  0  0  0  0  0  0  0  0  0  0  0
    6.1543  -12.9580   26.1778 C   0  0  0  0  0  0  0  0  0  0  0  0
    6.1876  -11.5647   26.0983 C   0  0  0  0  0  0  0  0  0  0  0  0
    7.3519  -10.9077   25.7639 C   0  0  0  0  0  0  0  0  0  0  0  0
    8.5137  -11.6003   25.4991 C   0  0  0  0  0  0  0  0  0  0  0  0
    8.4627  -12.9739   25.5818 C   0  0  0  0  0  0  0  0  0  0  0  0
    7.3053  -13.6621   25.9159 C   0  0  0  0  0  0  0  0  0  0  0  0
    8.9469  -17.6487   24.1290 C   0  0  0  0  0  0  0  0  0  0  0  0
    9.0283  -18.7740   24.6795 O   0  0  0  0  0  0  0  0  0  0  0  0
    9.9508  -17.3490   23.1811 N   0  0  0  0  0  0  0  0  0  0  0  0
   11.2391  -17.8972   23.0876 C   0  0  1  0  0  0  0  0  0  0  0  0
   12.1246  -17.4661   21.9587 C   0  0  0  0  0  0  0  0  0  0  0  0
   11.5785  -17.7005   20.5760 C   0  0  0  0  0  0  0  0  0  0  0  0
   12.4814  -17.2053   19.4941 C   0  0  0  0  0  0  0  0  0  0  0  0
   13.2798  -18.0401   19.0003 O   0  0  0  0  0  0  0  0  0  0  0  0
   12.0017  -17.9016   24.3407 C   0  0  0  0  0  0  0  0  0  0  0  0
   12.3075  -16.7895   24.8289 O   0  0  0  0  0  0  0  0  0  0  0  0
   12.5095  -15.9239   18.9966 O   0  0  0  0  0  0  0  0  0  0  0  0
   12.3601  -19.1130   24.9468 N   0  0  0  0  0  0  0  0  0  0  0  0
   13.1024  -19.1488   26.2149 C   0  0  1  0  0  0  0  0  0  0  0  0
   12.5385  -20.2685   27.0067 C   0  0  0  0  0  0  0  0  0  0  0  0
   11.3490  -19.9309   27.8121 C   0  0  0  0  0  0  0  0  0  0  0  0
   10.9745  -18.7426   27.9004 O   0  0  0  0  0  0  0  0  0  0  0  0
   14.5332  -19.3285   25.8724 C   0  0  0  0  0  0  0  0  0  0  0  0
   15.5057  -19.2582   26.8703 O   0  0  0  0  0  0  0  0  0  0  0  0
   10.6889  -20.9824   28.4473 O   0  0  0  0  0  0  0  0  0  0  0  0
   14.9714  -19.5498   24.7186 O   0  0  0  0  0  0  0  0  0  0  0  0
  2 13  1  0
  2  1  1  1
  3  4  1  0
  3  2  1  0
  4 12  1  0
  5  4  2  0
  5  6  1  0
  6  7  1  0
  7 12  2  0
  7  8  1  0
  8  9  2  0
  9 10  1  0
 11 10  2  0
 12 11  1  0
 13 14  2  0
 15 16  1  0
 15 13  1  0
 16 17  1  6
 18 17  1  0
 19 18  1  0
 19 20  2  0
 21 16  1  0
 22 21  2  0
 23 19  1  0
 24 21  1  0
 25 29  1  0
 25 24  1  0
 25 26  1  1
 27 26  1  0
 28 27  2  0
 29 30  1  0
 31 27  1  0
 32 29  2  0
M  END
$$$$
