WED.pdb
     RDKit          3D

 32 33  0  0  1  0  0  0  0  0999 V2000
    6.7350  -17.6348   24.6438 N   0  0  0  0  0  0  0  0  0  0  0  0
    7.9125  -16.8902   24.2371 C   0  0  1  0  0  0  0  0  0  0  0  0
    8.3456  -16.0719   25.4396 C   0  0  0  0  0  0  0  0  0  0  0  0
    7.3038  -15.0842   25.7688 C   0  0  0  0  0  0  0  0  0  0  0  0
    5.9947  -15.2904   26.1485 C   0  0  0  0  0  0  0  0  0  0  0  0
    5.4222  -14.0799   26.3348 N   0  0  0  0  0  0  0  0  0  0  0  0
    6.3051  -13.0984   26.0921 C   0  0  0  0  0  0  0  0  0  0  0  0
    6.2564  -11.7038   26.1304 C   0  0  0  0  0  0  0  0  0  0  0  0
    7.3694  -10.9532   25.8191 C   0  0  0  0  0  0  0  0  0  0  0  0
    8.5589  -11.5511   25.4624 C   0  0  0  0  0  0  0  0  0  0  0  0
    8.5889  -12.9274   25.4295 C   0  0  0  0  0  0  0  0  0  0  0  0
    7.4847  -13.7086   25.7377 C   0  0  0  0  0  0  0  0  0  0  0  0
    8.9566  -17.8845   23.8397 C   0  0  0  0  0  0  0  0  0  0  0  0
    9.1662  -18.9232   24.5128 O   0  0  0  0  0  0  0  0  0  0  0  0
    9.7642  -17.7165   22.6926 N   0  0  0  0  0  0  0  0  0  0  0  0
   10.9828  -18.3462   22.3968 C   0  0  1  0  0  0  0  0  0  0  0  0
   11.5687  -18.1739   21.0288 C   0  0  0  0  0  0  0  0  0  0  0  0
   12.1534  -16.8183   20.7363 C   0  0  0  0  0  0  0  0  0  0  0  0
   12.8664  -16.7545   19.4253 C   0  0  0  0  0  0  0  0  0  0  0  0
   12.1501  -16.6462   18.3990 O   0  0  0  0  0  0  0  0  0  0  0  0
   12.0302  -18.1726   23.4090 C   0  0  0  0  0  0  0  0  0  0  0  0
   12.2076  -17.0165   23.8570 O   0  0  0  0  0  0  0  0  0  0  0  0
   14.2292  -16.8018   19.2503 O   0  0  0  0  0  0  0  0  0  0  0  0
   12.7862  -19.2705   23.8407 N   0  0  0  0  0  0  0  0  0  0  0  0
   13.7923  -19.1414   24.9045 C   0  0  1  0  0  0  0  0  0  0  0  0
   13.5784  -20.2776   25.8328 C   0  0  0  0  0  0  0  0  0  0  0  0
   12.7128  -19.9865   26.9919 C   0  0  0  0  0  0  0  0  0  0  0  0
   12.3417  -18.8144   27.2123 O   0  0  0  0  0  0  0  0  0  0  0  0
   15.1203  -19.1571   24.2466 C   0  0  0  0  0  0  0  0  0  0  0  0
   15.2176  -19.3748   22.8720 O   0  0  0  0  0  0  0  0  0  0  0  0
   12.3448  -21.0622   27.7998 O   0  0  0  0  0  0  0  0  0  0  0  0
   16.2137  -18.9833   24.8353 O   0  0  0  0  0  0  0  0  0  0  0  0
  2 13  1  0
  2  1  1  1
  3  4  1  0
  3  2  1  0
  4 12  1  0
  5  4  2  0
  5  6  1  0
  6  7  1  0
  7 12  2  0
  7  8  1  0
  8  9  2  0
  9 10  1  0
 11 10  2  0
 12 11  1  0
 13 14  2  0
 15 16  1  0
 15 13  1  0
 16 17  1  6
 18 17  1  0
 19 18  1  0
 19 20  2  0
 21 16  1  0
 22 21  2  0
 23 19  1  0
 24 21  1  0
 25 29  1  0
 25 24  1  0
 25 26  1  1
 27 26  1  0
 28 27  2  0
 29 30  1  0
 31 27  1  0
 32 29  2  0
M  END
$$$$
