WED.pdb
     RDKit          3D

 32 33  0  0  1  0  0  0  0  0999 V2000
    6.7272  -17.8452   24.8784 N   0  0  0  0  0  0  0  0  0  0  0  0
    7.7095  -16.9379   24.3141 C   0  0  1  0  0  0  0  0  0  0  0  0
    8.1656  -16.0341   25.4447 C   0  0  0  0  0  0  0  0  0  0  0  0
    7.0987  -15.0733   25.7730 C   0  0  0  0  0  0  0  0  0  0  0  0
    5.7728  -15.3089   26.0681 C   0  0  0  0  0  0  0  0  0  0  0  0
    5.1802  -14.1147   26.2925 N   0  0  0  0  0  0  0  0  0  0  0  0
    6.0660  -13.1157   26.1554 C   0  0  0  0  0  0  0  0  0  0  0  0
    6.0027  -11.7260   26.2714 C   0  0  0  0  0  0  0  0  0  0  0  0
    7.1240  -10.9520   26.0651 C   0  0  0  0  0  0  0  0  0  0  0  0
    8.3364  -11.5211   25.7399 C   0  0  0  0  0  0  0  0  0  0  0  0
    8.3806  -12.8929   25.6293 C   0  0  0  0  0  0  0  0  0  0  0  0
    7.2684  -13.6972   25.8312 C   0  0  0  0  0  0  0  0  0  0  0  0
    8.8337  -17.7687   23.7823 C   0  0  0  0  0  0  0  0  0  0  0  0
    9.2040  -18.8208   24.3582 O   0  0  0  0  0  0  0  0  0  0  0  0
    9.5417  -17.4225   22.6097 N   0  0  0  0  0  0  0  0  0  0  0  0
   10.8506  -17.7832   22.2551 C   0  0  1  0  0  0  0  0  0  0  0  0
   11.3993  -17.3052   20.9456 C   0  0  0  0  0  0  0  0  0  0  0  0
   12.7004  -17.9291   20.5175 C   0  0  0  0  0  0  0  0  0  0  0  0
   13.1168  -17.5355   19.1381 C   0  0  0  0  0  0  0  0  0  0  0  0
   12.9265  -18.3815   18.2291 O   0  0  0  0  0  0  0  0  0  0  0  0
   11.8518  -17.5927   23.3101 C   0  0  0  0  0  0  0  0  0  0  0  0
   12.1040  -16.4151   23.6543 O   0  0  0  0  0  0  0  0  0  0  0  0
   13.6839  -16.3344   18.7833 O   0  0  0  0  0  0  0  0  0  0  0  0
   12.4847  -18.6984   23.8932 N   0  0  0  0  0  0  0  0  0  0  0  0
   13.4698  -18.5403   24.9726 C   0  0  1  0  0  0  0  0  0  0  0  0
   13.4892  -19.8197   25.7219 C   0  0  0  0  0  0  0  0  0  0  0  0
   12.6617  -19.8440   26.9434 C   0  0  0  0  0  0  0  0  0  0  0  0
   12.3391  -20.9371   27.4545 O   0  0  0  0  0  0  0  0  0  0  0  0
   14.7645  -18.2115   24.3304 C   0  0  0  0  0  0  0  0  0  0  0  0
   15.7430  -17.5181   25.0433 O   0  0  0  0  0  0  0  0  0  0  0  0
   12.2744  -18.6149   27.4766 O   0  0  0  0  0  0  0  0  0  0  0  0
   15.0781  -18.5132   23.1544 O   0  0  0  0  0  0  0  0  0  0  0  0
  2 13  1  0
  2  1  1  1
  3  4  1  0
  3  2  1  0
  4 12  1  0
  5  4  2  0
  5  6  1  0
  6  7  1  0
  7 12  2  0
  7  8  1  0
  8  9  2  0
  9 10  1  0
 11 10  2  0
 12 11  1  0
 13 14  2  0
 15 16  1  0
 15 13  1  0
 16 17  1  6
 18 17  1  0
 19 18  1  0
 19 20  2  0
 21 16  1  0
 22 21  2  0
 23 19  1  0
 24 21  1  0
 25 29  1  0
 25 24  1  0
 25 26  1  6
 27 26  1  0
 28 27  2  0
 29 30  1  0
 31 27  1  0
 32 29  2  0
M  END
$$$$
