WED.pdb
     RDKit          3D

 32 33  0  0  1  0  0  0  0  0999 V2000
    7.1364  -16.9410   23.4323 N   0  0  0  0  0  0  0  0  0  0  0  0
    8.3949  -16.2188   23.4639 C   0  0  1  0  0  0  0  0  0  0  0  0
    8.6470  -15.8488   24.9140 C   0  0  0  0  0  0  0  0  0  0  0  0
    7.5002  -15.0877   25.4384 C   0  0  0  0  0  0  0  0  0  0  0  0
    6.2347  -15.5288   25.7618 C   0  0  0  0  0  0  0  0  0  0  0  0
    5.5234  -14.4638   26.1948 N   0  0  0  0  0  0  0  0  0  0  0  0
    6.2744  -13.3518   26.1656 C   0  0  0  0  0  0  0  0  0  0  0  0
    6.0570  -12.0125   26.4941 C   0  0  0  0  0  0  0  0  0  0  0  0
    7.0630  -11.0817   26.3505 C   0  0  0  0  0  0  0  0  0  0  0  0
    8.3082  -11.4405   25.8812 C   0  0  0  0  0  0  0  0  0  0  0  0
    8.5050  -12.7654   25.5617 C   0  0  0  0  0  0  0  0  0  0  0  0
    7.5113  -13.7241   25.6959 C   0  0  0  0  0  0  0  0  0  0  0  0
    9.4514  -17.1360   22.9354 C   0  0  0  0  0  0  0  0  0  0  0  0
    9.4690  -18.3568   23.2272 O   0  0  0  0  0  0  0  0  0  0  0  0
   10.4856  -16.6880   22.0834 N   0  0  0  0  0  0  0  0  0  0  0  0
   11.5385  -17.4382   21.5377 C   0  0  1  0  0  0  0  0  0  0  0  0
   12.1802  -16.9623   20.2705 C   0  0  0  0  0  0  0  0  0  0  0  0
   12.6289  -15.5256   20.2669 C   0  0  0  0  0  0  0  0  0  0  0  0
   13.2406  -15.1026   18.9715 C   0  0  0  0  0  0  0  0  0  0  0  0
   13.7198  -13.9422   18.9270 O   0  0  0  0  0  0  0  0  0  0  0  0
   12.5738  -17.8390   22.4963 C   0  0  0  0  0  0  0  0  0  0  0  0
   13.3547  -18.7538   22.1467 O   0  0  0  0  0  0  0  0  0  0  0  0
   13.3241  -15.8715   17.8349 O   0  0  0  0  0  0  0  0  0  0  0  0
   12.6651  -17.2087   23.7444 N   0  0  0  0  0  0  0  0  0  0  0  0
   13.5421  -17.7250   24.8049 C   0  0  1  0  0  0  0  0  0  0  0  0
   14.5186  -16.6518   25.1099 C   0  0  0  0  0  0  0  0  0  0  0  0
   15.5364  -16.4149   24.0681 C   0  0  0  0  0  0  0  0  0  0  0  0
   16.1679  -15.3374   24.0490 O   0  0  0  0  0  0  0  0  0  0  0  0
   12.6714  -18.0758   25.9520 C   0  0  0  0  0  0  0  0  0  0  0  0
   13.2128  -18.7006   27.0758 O   0  0  0  0  0  0  0  0  0  0  0  0
   15.7453  -17.4319   23.1369 O   0  0  0  0  0  0  0  0  0  0  0  0
   11.4391  -17.8519   26.0109 O   0  0  0  0  0  0  0  0  0  0  0  0
  2 13  1  0
  2  1  1  1
  3  4  1  0
  3  2  1  0
  4 12  1  0
  5  4  2  0
  5  6  1  0
  6  7  1  0
  7 12  2  0
  7  8  1  0
  8  9  2  0
  9 10  1  0
 11 10  2  0
 12 11  1  0
 13 14  2  0
 15 16  1  0
 15 13  1  0
 16 17  1  6
 18 17  1  0
 19 18  1  0
 19 20  2  0
 21 16  1  0
 22 21  2  0
 23 19  1  0
 24 21  1  0
 25 29  1  0
 25 24  1  0
 25 26  1  1
 27 26  1  0
 28 27  2  0
 29 30  1  0
 31 27  1  0
 32 29  2  0
M  END
$$$$
