WED.pdb
     RDKit          3D

 32 33  0  0  1  0  0  0  0  0999 V2000
    6.7393  -18.2542   25.1432 N   0  0  0  0  0  0  0  0  0  0  0  0
    7.4710  -17.1163   24.6176 C   0  0  1  0  0  0  0  0  0  0  0  0
    7.9159  -16.2958   25.8143 C   0  0  0  0  0  0  0  0  0  0  0  0
    6.9760  -15.1824   26.0294 C   0  0  0  0  0  0  0  0  0  0  0  0
    5.6468  -15.2204   26.3931 C   0  0  0  0  0  0  0  0  0  0  0  0
    5.1989  -13.9465   26.4581 N   0  0  0  0  0  0  0  0  0  0  0  0
    6.1816  -13.0850   26.1521 C   0  0  0  0  0  0  0  0  0  0  0  0
    6.2758  -11.6949   26.0665 C   0  0  0  0  0  0  0  0  0  0  0  0
    7.4648  -11.0914   25.7182 C   0  0  0  0  0  0  0  0  0  0  0  0
    8.5920  -11.8359   25.4451 C   0  0  0  0  0  0  0  0  0  0  0  0
    8.4810  -13.2056   25.5339 C   0  0  0  0  0  0  0  0  0  0  0  0
    7.2976  -13.8404   25.8821 C   0  0  0  0  0  0  0  0  0  0  0  0
    8.6374  -17.6498   23.8484 C   0  0  0  0  0  0  0  0  0  0  0  0
    9.2705  -18.6636   24.2323 O   0  0  0  0  0  0  0  0  0  0  0  0
    9.0943  -17.0501   22.6535 N   0  0  0  0  0  0  0  0  0  0  0  0
   10.3366  -17.2210   22.0237 C   0  0  1  0  0  0  0  0  0  0  0  0
   10.5316  -16.6540   20.6508 C   0  0  0  0  0  0  0  0  0  0  0  0
   11.7812  -17.0928   19.9360 C   0  0  0  0  0  0  0  0  0  0  0  0
   11.9227  -16.4938   18.5750 C   0  0  0  0  0  0  0  0  0  0  0  0
   11.3625  -17.1032   17.6301 O   0  0  0  0  0  0  0  0  0  0  0  0
   11.5014  -16.9077   22.8584 C   0  0  0  0  0  0  0  0  0  0  0  0
   11.4693  -15.8371   23.5077 O   0  0  0  0  0  0  0  0  0  0  0  0
   12.6071  -15.3401   18.2736 O   0  0  0  0  0  0  0  0  0  0  0  0
   12.5915  -17.7864   22.9108 N   0  0  0  0  0  0  0  0  0  0  0  0
   13.7804  -17.4900   23.7225 C   0  0  1  0  0  0  0  0  0  0  0  0
   13.9721  -18.6438   24.6338 C   0  0  0  0  0  0  0  0  0  0  0  0
   15.2076  -18.6083   25.4398 C   0  0  0  0  0  0  0  0  0  0  0  0
   15.9619  -17.6146   25.3786 O   0  0  0  0  0  0  0  0  0  0  0  0
   14.9064  -17.2870   22.7804 C   0  0  0  0  0  0  0  0  0  0  0  0
   15.8029  -16.2362   22.9775 O   0  0  0  0  0  0  0  0  0  0  0  0
   15.4744  -19.7131   26.2481 O   0  0  0  0  0  0  0  0  0  0  0  0
   15.1410  -18.0042   21.7790 O   0  0  0  0  0  0  0  0  0  0  0  0
  2 13  1  0
  2  1  1  1
  3  4  1  0
  3  2  1  0
  4 12  1  0
  5  4  2  0
  5  6  1  0
  6  7  1  0
  7 12  2  0
  7  8  1  0
  8  9  2  0
  9 10  1  0
 11 10  2  0
 12 11  1  0
 13 14  2  0
 15 16  1  0
 15 13  1  0
 16 17  1  6
 18 17  1  0
 19 18  1  0
 19 20  2  0
 21 16  1  0
 22 21  2  0
 23 19  1  0
 24 21  1  0
 25 29  1  0
 25 24  1  0
 25 26  1  1
 27 26  1  0
 28 27  2  0
 29 30  1  0
 31 27  1  0
 32 29  2  0
M  END
$$$$
