WED.pdb
     RDKit          3D

 32 33  0  0  1  0  0  0  0  0999 V2000
    6.5791  -17.5339   24.0342 N   0  0  0  0  0  0  0  0  0  0  0  0
    6.9395  -16.1729   23.6820 C   0  0  1  0  0  0  0  0  0  0  0  0
    7.9509  -15.7104   24.7146 C   0  0  0  0  0  0  0  0  0  0  0  0
    7.2692  -14.9321   25.7628 C   0  0  0  0  0  0  0  0  0  0  0  0
    6.3759  -15.3567   26.7232 C   0  0  0  0  0  0  0  0  0  0  0  0
    6.0126  -14.2799   27.4555 N   0  0  0  0  0  0  0  0  0  0  0  0
    6.6328  -13.1760   27.0103 C   0  0  0  0  0  0  0  0  0  0  0  0
    6.6302  -11.8311   27.3846 C   0  0  0  0  0  0  0  0  0  0  0  0
    7.4031  -10.9122   26.7083 C   0  0  0  0  0  0  0  0  0  0  0  0
    8.1985  -11.2887   25.6476 C   0  0  0  0  0  0  0  0  0  0  0  0
    8.1885  -12.6188   25.2917 C   0  0  0  0  0  0  0  0  0  0  0  0
    7.4209  -13.5659   25.9539 C   0  0  0  0  0  0  0  0  0  0  0  0
    7.5282  -16.2065   22.3075 C   0  0  0  0  0  0  0  0  0  0  0  0
    7.8707  -17.2853   21.7646 O   0  0  0  0  0  0  0  0  0  0  0  0
    7.7337  -15.0361   21.5433 N   0  0  0  0  0  0  0  0  0  0  0  0
    8.3940  -14.9163   20.3109 C   0  0  1  0  0  0  0  0  0  0  0  0
    8.3625  -13.5966   19.6026 C   0  0  0  0  0  0  0  0  0  0  0  0
    9.1687  -13.5183   18.3342 C   0  0  0  0  0  0  0  0  0  0  0  0
    8.4287  -14.0118   17.1342 C   0  0  0  0  0  0  0  0  0  0  0  0
    7.2796  -14.4788   17.3335 O   0  0  0  0  0  0  0  0  0  0  0  0
    9.7562  -15.4598   20.2839 C   0  0  0  0  0  0  0  0  0  0  0  0
   10.1671  -15.9213   19.1944 O   0  0  0  0  0  0  0  0  0  0  0  0
    8.8954  -13.9954   15.8412 O   0  0  0  0  0  0  0  0  0  0  0  0
   10.5451  -15.4506   21.4419 N   0  0  0  0  0  0  0  0  0  0  0  0
   11.8158  -16.1858   21.5131 C   0  0  1  0  0  0  0  0  0  0  0  0
   12.8921  -15.2028   21.2418 C   0  0  0  0  0  0  0  0  0  0  0  0
   13.4008  -15.1956   19.8567 C   0  0  0  0  0  0  0  0  0  0  0  0
   13.2596  -16.2066   19.1369 O   0  0  0  0  0  0  0  0  0  0  0  0
   11.8911  -16.7871   22.8658 C   0  0  0  0  0  0  0  0  0  0  0  0
   10.8716  -16.5590   23.7905 O   0  0  0  0  0  0  0  0  0  0  0  0
   14.0274  -14.0313   19.4129 O   0  0  0  0  0  0  0  0  0  0  0  0
   12.8258  -17.5159   23.2749 O   0  0  0  0  0  0  0  0  0  0  0  0
  2 13  1  0
  2  1  1  1
  3  4  1  0
  3  2  1  0
  4 12  1  0
  5  4  2  0
  5  6  1  0
  6  7  1  0
  7 12  2  0
  7  8  1  0
  8  9  2  0
  9 10  1  0
 11 10  2  0
 12 11  1  0
 13 14  2  0
 15 16  1  0
 15 13  1  0
 16 17  1  1
 18 17  1  0
 19 18  1  0
 19 20  2  0
 21 16  1  0
 22 21  2  0
 23 19  1  0
 24 21  1  0
 25 29  1  0
 25 24  1  0
 25 26  1  1
 27 26  1  0
 28 27  2  0
 29 30  1  0
 31 27  1  0
 32 29  2  0
M  END
$$$$
