WED.pdb
     RDKit          3D

 32 33  0  0  1  0  0  0  0  0999 V2000
    6.2695  -17.9066   24.9544 N   0  0  0  0  0  0  0  0  0  0  0  0
    7.2100  -16.9042   24.4886 C   0  0  1  0  0  0  0  0  0  0  0  0
    7.8163  -16.2691   25.7265 C   0  0  0  0  0  0  0  0  0  0  0  0
    7.0239  -15.0911   26.1185 C   0  0  0  0  0  0  0  0  0  0  0  0
    6.0036  -14.9932   27.0404 C   0  0  0  0  0  0  0  0  0  0  0  0
    5.5752  -13.7110   27.0491 N   0  0  0  0  0  0  0  0  0  0  0  0
    6.2747  -12.9743   26.1719 C   0  0  0  0  0  0  0  0  0  0  0  0
    6.2568  -11.6337   25.7828 C   0  0  0  0  0  0  0  0  0  0  0  0
    7.1331  -11.1680   24.8266 C   0  0  0  0  0  0  0  0  0  0  0  0
    8.0497  -12.0050   24.2276 C   0  0  0  0  0  0  0  0  0  0  0  0
    8.0532  -13.3240   24.6231 C   0  0  0  0  0  0  0  0  0  0  0  0
    7.1832  -13.8208   25.5827 C   0  0  0  0  0  0  0  0  0  0  0  0
    8.2422  -17.6063   23.6650 C   0  0  0  0  0  0  0  0  0  0  0  0
    8.8850  -18.5874   24.1123 O   0  0  0  0  0  0  0  0  0  0  0  0
    8.5546  -17.2110   22.3451 N   0  0  0  0  0  0  0  0  0  0  0  0
    9.7598  -17.3993   21.6514 C   0  0  1  0  0  0  0  0  0  0  0  0
    9.8902  -16.8367   20.2691 C   0  0  0  0  0  0  0  0  0  0  0  0
   11.1119  -17.2672   19.5028 C   0  0  0  0  0  0  0  0  0  0  0  0
   11.1988  -16.6582   18.1417 C   0  0  0  0  0  0  0  0  0  0  0  0
   12.3412  -16.5996   17.6225 O   0  0  0  0  0  0  0  0  0  0  0  0
   10.9708  -17.1008   22.4233 C   0  0  0  0  0  0  0  0  0  0  0  0
   10.9305  -16.1132   23.1927 O   0  0  0  0  0  0  0  0  0  0  0  0
   10.1417  -16.1629   17.4156 O   0  0  0  0  0  0  0  0  0  0  0  0
   12.1118  -17.9028   22.2886 N   0  0  0  0  0  0  0  0  0  0  0  0
   13.2265  -17.8217   23.2432 C   0  0  1  0  0  0  0  0  0  0  0  0
   13.0230  -18.9106   24.2287 C   0  0  0  0  0  0  0  0  0  0  0  0
   14.1595  -19.1548   25.1376 C   0  0  0  0  0  0  0  0  0  0  0  0
   14.4767  -20.3254   25.4363 O   0  0  0  0  0  0  0  0  0  0  0  0
   14.4768  -17.9595   22.4592 C   0  0  0  0  0  0  0  0  0  0  0  0
   14.5098  -18.7836   21.3340 O   0  0  0  0  0  0  0  0  0  0  0  0
   14.8369  -18.0382   25.6268 O   0  0  0  0  0  0  0  0  0  0  0  0
   15.5556  -17.3772   22.7227 O   0  0  0  0  0  0  0  0  0  0  0  0
  2 13  1  0
  2  1  1  1
  3  4  1  0
  3  2  1  0
  4 12  1  0
  5  4  2  0
  5  6  1  0
  6  7  1  0
  7 12  2  0
  7  8  1  0
  8  9  2  0
  9 10  1  0
 11 10  2  0
 12 11  1  0
 13 14  2  0
 15 16  1  0
 15 13  1  0
 16 17  1  6
 18 17  1  0
 19 18  1  0
 19 20  2  0
 21 16  1  0
 22 21  2  0
 23 19  1  0
 24 21  1  0
 25 29  1  0
 25 24  1  0
 25 26  1  1
 27 26  1  0
 28 27  2  0
 29 30  1  0
 31 27  1  0
 32 29  2  0
M  END
$$$$
