WED.pdb
     RDKit          3D

 32 33  0  0  1  0  0  0  0  0999 V2000
    7.0237  -17.8749   24.9001 N   0  0  0  0  0  0  0  0  0  0  0  0
    7.8894  -16.8875   24.2820 C   0  0  1  0  0  0  0  0  0  0  0  0
    8.3686  -15.9731   25.3944 C   0  0  0  0  0  0  0  0  0  0  0  0
    7.2669  -15.0952   25.8243 C   0  0  0  0  0  0  0  0  0  0  0  0
    6.0270  -15.4321   26.3240 C   0  0  0  0  0  0  0  0  0  0  0  0
    5.3539  -14.2855   26.5688 N   0  0  0  0  0  0  0  0  0  0  0  0
    6.1053  -13.2203   26.2490 C   0  0  0  0  0  0  0  0  0  0  0  0
    5.9183  -11.8377   26.2981 C   0  0  0  0  0  0  0  0  0  0  0  0
    6.9148  -10.9790   25.8874 C   0  0  0  0  0  0  0  0  0  0  0  0
    8.1204  -11.4541   25.4180 C   0  0  0  0  0  0  0  0  0  0  0  0
    8.2875  -12.8203   25.3761 C   0  0  0  0  0  0  0  0  0  0  0  0
    7.3026  -13.7086   25.7828 C   0  0  0  0  0  0  0  0  0  0  0  0
    9.0241  -17.6232   23.6433 C   0  0  0  0  0  0  0  0  0  0  0  0
    9.5727  -18.6025   24.2054 O   0  0  0  0  0  0  0  0  0  0  0  0
    9.5436  -17.2636   22.3797 N   0  0  0  0  0  0  0  0  0  0  0  0
   10.7498  -17.6776   21.7941 C   0  0  1  0  0  0  0  0  0  0  0  0
   10.9783  -17.3958   20.3406 C   0  0  0  0  0  0  0  0  0  0  0  0
   12.1606  -18.0905   19.7202 C   0  0  0  0  0  0  0  0  0  0  0  0
   12.3380  -17.7715   18.2718 C   0  0  0  0  0  0  0  0  0  0  0  0
   13.5197  -17.6659   17.8587 O   0  0  0  0  0  0  0  0  0  0  0  0
   11.9557  -17.3417   22.5587 C   0  0  0  0  0  0  0  0  0  0  0  0
   12.1406  -16.1342   22.8353 O   0  0  0  0  0  0  0  0  0  0  0  0
   11.3248  -17.5877   17.3609 O   0  0  0  0  0  0  0  0  0  0  0  0
   12.8474  -18.3483   22.9524 N   0  0  0  0  0  0  0  0  0  0  0  0
   14.0075  -18.0575   23.8068 C   0  0  1  0  0  0  0  0  0  0  0  0
   14.3797  -19.3318   24.4673 C   0  0  0  0  0  0  0  0  0  0  0  0
   13.6232  -19.6470   25.6943 C   0  0  0  0  0  0  0  0  0  0  0  0
   12.9807  -18.7482   26.2771 O   0  0  0  0  0  0  0  0  0  0  0  0
   15.0685  -17.5167   22.9244 C   0  0  0  0  0  0  0  0  0  0  0  0
   16.1358  -16.8028   23.4700 O   0  0  0  0  0  0  0  0  0  0  0  0
   13.6657  -20.9645   26.1497 O   0  0  0  0  0  0  0  0  0  0  0  0
   15.0997  -17.6483   21.6778 O   0  0  0  0  0  0  0  0  0  0  0  0
  2 13  1  0
  2  1  1  1
  3  4  1  0
  3  2  1  0
  4 12  1  0
  5  4  2  0
  5  6  1  0
  6  7  1  0
  7 12  2  0
  7  8  1  0
  8  9  2  0
  9 10  1  0
 11 10  2  0
 12 11  1  0
 13 14  2  0
 15 16  1  0
 15 13  1  0
 16 17  1  6
 18 17  1  0
 19 18  1  0
 19 20  2  0
 21 16  1  0
 22 21  2  0
 23 19  1  0
 24 21  1  0
 25 29  1  0
 25 24  1  0
 25 26  1  6
 27 26  1  0
 28 27  2  0
 29 30  1  0
 31 27  1  0
 32 29  2  0
M  END
$$$$
