WED.pdb
     RDKit          3D

 32 33  0  0  1  0  0  0  0  0999 V2000
    6.8927  -16.9509   25.4870 N   0  0  0  0  0  0  0  0  0  0  0  0
    7.3537  -15.9177   24.5779 C   0  0  1  0  0  0  0  0  0  0  0  0
    8.6067  -15.3239   25.1948 C   0  0  0  0  0  0  0  0  0  0  0  0
    8.2436  -14.5021   26.3619 C   0  0  0  0  0  0  0  0  0  0  0  0
    8.4455  -14.7529   27.7024 C   0  0  0  0  0  0  0  0  0  0  0  0
    7.9335  -13.7139   28.3995 N   0  0  0  0  0  0  0  0  0  0  0  0
    7.4087  -12.8007   27.5674 C   0  0  0  0  0  0  0  0  0  0  0  0
    6.7710  -11.5706   27.7374 C   0  0  0  0  0  0  0  0  0  0  0  0
    6.3360  -10.8482   26.6474 C   0  0  0  0  0  0  0  0  0  0  0  0
    6.5154  -11.3137   25.3626 C   0  0  0  0  0  0  0  0  0  0  0  0
    7.1458  -12.5288   25.2135 C   0  0  0  0  0  0  0  0  0  0  0  0
    7.5942  -13.2777   26.2917 C   0  0  0  0  0  0  0  0  0  0  0  0
    7.6407  -16.5721   23.2640 C   0  0  0  0  0  0  0  0  0  0  0  0
    7.8076  -17.8126   23.1694 O   0  0  0  0  0  0  0  0  0  0  0  0
    7.7413  -15.8400   22.0598 N   0  0  0  0  0  0  0  0  0  0  0  0
    8.1469  -16.3054   20.7996 C   0  0  1  0  0  0  0  0  0  0  0  0
    7.9046  -15.4405   19.6007 C   0  0  0  0  0  0  0  0  0  0  0  0
    8.4828  -15.9446   18.3058 C   0  0  0  0  0  0  0  0  0  0  0  0
    8.2541  -15.0171   17.1576 C   0  0  0  0  0  0  0  0  0  0  0  0
    7.7149  -15.5086   16.1350 O   0  0  0  0  0  0  0  0  0  0  0  0
    9.5082  -16.8495   20.7501 C   0  0  0  0  0  0  0  0  0  0  0  0
    9.8004  -17.5730   19.7704 O   0  0  0  0  0  0  0  0  0  0  0  0
    8.5795  -13.6817   17.1281 O   0  0  0  0  0  0  0  0  0  0  0  0
   10.4251  -16.5564   21.7683 N   0  0  0  0  0  0  0  0  0  0  0  0
   11.7906  -17.1000   21.7540 C   0  0  1  0  0  0  0  0  0  0  0  0
   12.7011  -15.9570   21.5025 C   0  0  0  0  0  0  0  0  0  0  0  0
   14.1370  -16.2950   21.4650 C   0  0  0  0  0  0  0  0  0  0  0  0
   14.6180  -16.8556   20.4578 O   0  0  0  0  0  0  0  0  0  0  0  0
   12.0091  -17.7523   23.0668 C   0  0  0  0  0  0  0  0  0  0  0  0
   13.1496  -18.5265   23.2822 O   0  0  0  0  0  0  0  0  0  0  0  0
   14.9005  -15.9618   22.5835 O   0  0  0  0  0  0  0  0  0  0  0  0
   11.2315  -17.6684   24.0469 O   0  0  0  0  0  0  0  0  0  0  0  0
  2 13  1  0
  2  1  1  1
  3  4  1  0
  3  2  1  0
  4 12  1  0
  5  4  2  0
  5  6  1  0
  6  7  1  0
  7 12  2  0
  7  8  1  0
  8  9  2  0
  9 10  1  0
 11 10  2  0
 12 11  1  0
 13 14  2  0
 15 16  1  0
 15 13  1  0
 16 17  1  6
 18 17  1  0
 19 18  1  0
 19 20  2  0
 21 16  1  0
 22 21  2  0
 23 19  1  0
 24 21  1  0
 25 29  1  0
 25 24  1  0
 25 26  1  1
 27 26  1  0
 28 27  2  0
 29 30  1  0
 31 27  1  0
 32 29  2  0
M  END
$$$$
