WED.pdb
     RDKit          3D

 32 33  0  0  1  0  0  0  0  0999 V2000
    8.3770  -16.3662   24.8668 N   0  0  0  0  0  0  0  0  0  0  0  0
    7.6308  -16.6212   23.6484 C   0  0  1  0  0  0  0  0  0  0  0  0
    6.6316  -15.4878   23.5059 C   0  0  0  0  0  0  0  0  0  0  0  0
    6.4561  -14.8150   24.8043 C   0  0  0  0  0  0  0  0  0  0  0  0
    5.9290  -15.3087   25.9786 C   0  0  0  0  0  0  0  0  0  0  0  0
    5.9660  -14.3178   26.8976 N   0  0  0  0  0  0  0  0  0  0  0  0
    6.4949  -13.2035   26.3684 C   0  0  0  0  0  0  0  0  0  0  0  0
    6.7654  -11.9216   26.8504 C   0  0  0  0  0  0  0  0  0  0  0  0
    7.3338  -10.9690   26.0328 C   0  0  0  0  0  0  0  0  0  0  0  0
    7.6517  -11.2492   24.7213 C   0  0  0  0  0  0  0  0  0  0  0  0
    7.3776  -12.5182   24.2624 C   0  0  0  0  0  0  0  0  0  0  0  0
    6.8062  -13.4972   25.0622 C   0  0  0  0  0  0  0  0  0  0  0  0
    8.6105  -16.6401   22.5184 C   0  0  0  0  0  0  0  0  0  0  0  0
    8.2750  -16.9971   21.3627 O   0  0  0  0  0  0  0  0  0  0  0  0
    9.9618  -16.2613   22.6818 N   0  0  0  0  0  0  0  0  0  0  0  0
   11.1064  -17.0540   22.5064 C   0  0  1  0  0  0  0  0  0  0  0  0
   12.2951  -16.4589   21.8158 C   0  0  0  0  0  0  0  0  0  0  0  0
   13.3524  -17.4370   21.3792 C   0  0  0  0  0  0  0  0  0  0  0  0
   14.5161  -16.7856   20.7065 C   0  0  0  0  0  0  0  0  0  0  0  0
   14.3672  -16.4753   19.4983 O   0  0  0  0  0  0  0  0  0  0  0  0
   11.5426  -17.7834   23.7019 C   0  0  0  0  0  0  0  0  0  0  0  0
   11.0642  -17.4199   24.8009 O   0  0  0  0  0  0  0  0  0  0  0  0
   15.7249  -16.4979   21.2949 O   0  0  0  0  0  0  0  0  0  0  0  0
   12.4565  -18.8398   23.5923 N   0  0  0  0  0  0  0  0  0  0  0  0
   12.9702  -19.5391   24.7787 C   0  0  1  0  0  0  0  0  0  0  0  0
   13.6030  -20.7897   24.2950 C   0  0  0  0  0  0  0  0  0  0  0  0
   13.9436  -21.7679   25.3460 C   0  0  0  0  0  0  0  0  0  0  0  0
   13.8072  -21.4610   26.5490 O   0  0  0  0  0  0  0  0  0  0  0  0
   13.9186  -18.6163   25.4465 C   0  0  0  0  0  0  0  0  0  0  0  0
   13.8084  -18.3698   26.8153 O   0  0  0  0  0  0  0  0  0  0  0  0
   14.4106  -23.0145   24.9304 O   0  0  0  0  0  0  0  0  0  0  0  0
   14.8540  -18.0108   24.8715 O   0  0  0  0  0  0  0  0  0  0  0  0
  2 13  1  0
  2  1  1  1
  3  4  1  0
  3  2  1  0
  4 12  1  0
  5  4  2  0
  5  6  1  0
  6  7  1  0
  7 12  2  0
  7  8  1  0
  8  9  2  0
  9 10  1  0
 11 10  2  0
 12 11  1  0
 13 14  2  0
 15 16  1  0
 15 13  1  0
 16 17  1  1
 18 17  1  0
 19 18  1  0
 19 20  2  0
 21 16  1  0
 22 21  2  0
 23 19  1  0
 24 21  1  0
 25 29  1  0
 25 24  1  0
 25 26  1  6
 27 26  1  0
 28 27  2  0
 29 30  1  0
 31 27  1  0
 32 29  2  0
M  END
$$$$
