WED.pdb
     RDKit          3D

 32 33  0  0  1  0  0  0  0  0999 V2000
    7.0550  -17.5630   24.2953 N   0  0  0  0  0  0  0  0  0  0  0  0
    8.0705  -16.6082   23.8911 C   0  0  1  0  0  0  0  0  0  0  0  0
    8.4908  -15.8642   25.1452 C   0  0  0  0  0  0  0  0  0  0  0  0
    7.3852  -15.0085   25.6085 C   0  0  0  0  0  0  0  0  0  0  0  0
    6.1272  -15.3675   26.0433 C   0  0  0  0  0  0  0  0  0  0  0  0
    5.4584  -14.2348   26.3556 N   0  0  0  0  0  0  0  0  0  0  0  0
    6.2299  -13.1575   26.1417 C   0  0  0  0  0  0  0  0  0  0  0  0
    6.0553  -11.7807   26.2918 C   0  0  0  0  0  0  0  0  0  0  0  0
    7.0725  -10.9052   25.9787 C   0  0  0  0  0  0  0  0  0  0  0  0
    8.2872  -11.3577   25.5104 C   0  0  0  0  0  0  0  0  0  0  0  0
    8.4419  -12.7185   25.3680 C   0  0  0  0  0  0  0  0  0  0  0  0
    7.4361  -13.6233   25.6752 C   0  0  0  0  0  0  0  0  0  0  0  0
    9.2054  -17.3836   23.3014 C   0  0  0  0  0  0  0  0  0  0  0  0
    9.7038  -18.3727   23.8923 O   0  0  0  0  0  0  0  0  0  0  0  0
    9.7812  -17.0524   22.0544 N   0  0  0  0  0  0  0  0  0  0  0  0
   11.1088  -17.2408   21.6409 C   0  0  1  0  0  0  0  0  0  0  0  0
   11.4647  -16.9606   20.2129 C   0  0  0  0  0  0  0  0  0  0  0  0
   10.7522  -17.8002   19.1869 C   0  0  0  0  0  0  0  0  0  0  0  0
   11.1240  -17.4551   17.7820 C   0  0  0  0  0  0  0  0  0  0  0  0
   12.3464  -17.4980   17.4958 O   0  0  0  0  0  0  0  0  0  0  0  0
   12.1213  -16.6565   22.5269 C   0  0  0  0  0  0  0  0  0  0  0  0
   12.2046  -15.4071   22.5557 O   0  0  0  0  0  0  0  0  0  0  0  0
   10.2471  -17.0999   16.7844 O   0  0  0  0  0  0  0  0  0  0  0  0
   12.9479  -17.4831   23.2994 N   0  0  0  0  0  0  0  0  0  0  0  0
   13.9498  -16.9259   24.2193 C   0  0  1  0  0  0  0  0  0  0  0  0
   13.9130  -17.7600   25.4447 C   0  0  0  0  0  0  0  0  0  0  0  0
   13.7880  -19.2117   25.2121 C   0  0  0  0  0  0  0  0  0  0  0  0
   13.7041  -19.6498   24.0453 O   0  0  0  0  0  0  0  0  0  0  0  0
   15.2529  -16.9674   23.5145 C   0  0  0  0  0  0  0  0  0  0  0  0
   15.3570  -17.5944   22.2725 O   0  0  0  0  0  0  0  0  0  0  0  0
   13.7703  -20.0389   26.3348 O   0  0  0  0  0  0  0  0  0  0  0  0
   16.3182  -16.4677   23.9478 O   0  0  0  0  0  0  0  0  0  0  0  0
  2 13  1  0
  2  1  1  1
  3  4  1  0
  3  2  1  0
  4 12  1  0
  5  4  2  0
  5  6  1  0
  6  7  1  0
  7 12  2  0
  7  8  1  0
  8  9  2  0
  9 10  1  0
 11 10  2  0
 12 11  1  0
 13 14  2  0
 15 16  1  0
 15 13  1  0
 16 17  1  6
 18 17  1  0
 19 18  1  0
 19 20  2  0
 21 16  1  0
 22 21  2  0
 23 19  1  0
 24 21  1  0
 25 29  1  0
 25 24  1  0
 25 26  1  1
 27 26  1  0
 28 27  2  0
 29 30  1  0
 31 27  1  0
 32 29  2  0
M  END
$$$$
