WED.pdb
     RDKit          3D

 32 33  0  0  1  0  0  0  0  0999 V2000
    7.2108  -17.4030   24.0521 N   0  0  0  0  0  0  0  0  0  0  0  0
    8.4048  -16.6344   23.7521 C   0  0  1  0  0  0  0  0  0  0  0  0
    8.7927  -15.9173   25.0321 C   0  0  0  0  0  0  0  0  0  0  0  0
    7.6106  -15.2516   25.6056 C   0  0  0  0  0  0  0  0  0  0  0  0
    6.4265  -15.8033   26.0461 C   0  0  0  0  0  0  0  0  0  0  0  0
    5.6367  -14.7957   26.4804 N   0  0  0  0  0  0  0  0  0  0  0  0
    6.2591  -13.6148   26.3401 C   0  0  0  0  0  0  0  0  0  0  0  0
    5.9221  -12.2892   26.6192 C   0  0  0  0  0  0  0  0  0  0  0  0
    6.8088  -11.2681   26.3540 C   0  0  0  0  0  0  0  0  0  0  0  0
    8.0489  -11.5209   25.8084 C   0  0  0  0  0  0  0  0  0  0  0  0
    8.3645  -12.8339   25.5391 C   0  0  0  0  0  0  0  0  0  0  0  0
    7.4924  -13.8820   25.7953 C   0  0  0  0  0  0  0  0  0  0  0  0
    9.4614  -17.5992   23.3167 C   0  0  0  0  0  0  0  0  0  0  0  0
    9.7568  -18.6064   24.0053 O   0  0  0  0  0  0  0  0  0  0  0  0
   10.1856  -17.4369   22.1145 N   0  0  0  0  0  0  0  0  0  0  0  0
   11.1978  -18.2615   21.6001 C   0  0  1  0  0  0  0  0  0  0  0  0
   11.2085  -18.5570   20.1314 C   0  0  0  0  0  0  0  0  0  0  0  0
    9.9748  -18.1443   19.3746 C   0  0  0  0  0  0  0  0  0  0  0  0
   10.2691  -17.6300   18.0035 C   0  0  0  0  0  0  0  0  0  0  0  0
   10.3743  -18.4868   17.0908 O   0  0  0  0  0  0  0  0  0  0  0  0
   12.5543  -17.9279   22.0475 C   0  0  0  0  0  0  0  0  0  0  0  0
   13.5058  -18.3249   21.3363 O   0  0  0  0  0  0  0  0  0  0  0  0
   10.4308  -16.3086   17.6600 O   0  0  0  0  0  0  0  0  0  0  0  0
   12.7508  -17.1937   23.2247 N   0  0  0  0  0  0  0  0  0  0  0  0
   13.8963  -17.4503   24.1094 C   0  0  1  0  0  0  0  0  0  0  0  0
   14.8185  -16.2994   23.9563 C   0  0  0  0  0  0  0  0  0  0  0  0
   15.4709  -16.1891   22.6373 C   0  0  0  0  0  0  0  0  0  0  0  0
   15.5667  -15.0744   22.0820 O   0  0  0  0  0  0  0  0  0  0  0  0
   13.3568  -17.5974   25.4820 C   0  0  0  0  0  0  0  0  0  0  0  0
   12.0204  -17.2947   25.7447 O   0  0  0  0  0  0  0  0  0  0  0  0
   15.9589  -17.3643   22.0664 O   0  0  0  0  0  0  0  0  0  0  0  0
   14.0176  -17.9879   26.4735 O   0  0  0  0  0  0  0  0  0  0  0  0
  2 13  1  0
  2  1  1  1
  3  4  1  0
  3  2  1  0
  4 12  1  0
  5  4  2  0
  5  6  1  0
  6  7  1  0
  7 12  2  0
  7  8  1  0
  8  9  2  0
  9 10  1  0
 11 10  2  0
 12 11  1  0
 13 14  2  0
 15 16  1  0
 15 13  1  0
 16 17  1  6
 18 17  1  0
 19 18  1  0
 19 20  2  0
 21 16  1  0
 22 21  2  0
 23 19  1  0
 24 21  1  0
 25 29  1  0
 25 24  1  0
 25 26  1  1
 27 26  1  0
 28 27  2  0
 29 30  1  0
 31 27  1  0
 32 29  2  0
M  END
$$$$
