YKD.pdb
     RDKit          3D

 30 30  0  0  1  0  0  0  0  0999 V2000
   27.5615  -15.7939  -23.3465 O   0  0  0  0  0  0  0  0  0  0  0  0
   26.7098  -16.6336  -22.6050 C   0  0  0  0  0  0  0  0  0  0  0  0
   25.6071  -16.1390  -21.9645 C   0  0  0  0  0  0  0  0  0  0  0  0
   24.8061  -17.0168  -21.2494 C   0  0  0  0  0  0  0  0  0  0  0  0
   25.0895  -18.3645  -21.1675 C   0  0  0  0  0  0  0  0  0  0  0  0
   24.1863  -19.2478  -20.3844 C   0  0  0  0  0  0  0  0  0  0  0  0
   24.1148  -18.7137  -18.9708 C   0  0  2  0  0  0  0  0  0  0  0  0
   25.4418  -18.8004  -18.4149 N   0  0  0  0  0  0  0  0  0  0  0  0
   23.1969  -19.4997  -18.1248 C   0  0  0  0  0  0  0  0  0  0  0  0
   22.6975  -20.5444  -18.5752 O   0  0  0  0  0  0  0  0  0  0  0  0
   26.2033  -18.8315  -21.8210 C   0  0  0  0  0  0  0  0  0  0  0  0
   27.0073  -17.9712  -22.5346 C   0  0  0  0  0  0  0  0  0  0  0  0
   22.9139  -19.0345  -16.8193 N   0  0  0  0  0  0  0  0  0  0  0  0
   22.0562  -19.8123  -15.9333 C   0  0  1  0  0  0  0  0  0  0  0  0
   22.5693  -19.6099  -14.5474 C   0  0  0  0  0  0  0  0  0  0  0  0
   21.7822  -20.4037  -13.5633 C   0  0  0  0  0  0  0  0  0  0  0  0
   21.4897  -19.4965  -12.3682 C   0  0  0  0  0  0  0  0  0  0  0  0
   20.7763  -20.3186  -11.3391 C   0  0  0  0  0  0  0  0  0  0  0  0
   20.4220  -19.5238  -10.1822 N   0  0  0  0  0  0  0  0  0  0  0  0
   20.6557  -19.4124  -16.1566 C   0  0  0  0  0  0  0  0  0  0  0  0
   20.3032  -18.1996  -16.2806 O   0  0  0  0  0  0  0  0  0  0  0  0
   19.6546  -20.4080  -16.2382 N   0  0  0  0  0  0  0  0  0  0  0  0
   18.2257  -20.0646  -16.3952 C   0  0  1  0  0  0  0  0  0  0  0  0
   17.6114  -20.9711  -17.4254 C   0  0  0  0  0  0  0  0  0  0  0  0
   16.2259  -20.6165  -17.7049 C   0  0  0  0  0  0  0  0  0  0  0  0
   15.5915  -19.7316  -17.1099 O   0  0  0  0  0  0  0  0  0  0  0  0
   17.5840  -20.1768  -15.0608 C   0  0  0  0  0  0  0  0  0  0  0  0
   17.7775  -21.1858  -14.3161 O   0  0  0  0  0  0  0  0  0  0  0  0
   15.5544  -21.3242  -18.7206 O   0  0  0  0  0  0  0  0  0  0  0  0
   16.7608  -19.1995  -14.5797 O   0  0  0  0  0  0  0  0  0  0  0  0
  2  3  2  0
  2  1  1  0
  4  3  1  0
  5  4  2  0
  6  5  1  0
  7  6  1  0
  7  8  1  1
  9 10  2  0
  9  7  1  0
 11  5  1  0
 11 12  2  0
 12  2  1  0
 13  9  1  0
 14 13  1  0
 14 15  1  1
 16 17  1  0
 16 15  1  0
 18 17  1  0
 19 18  1  0
 20 14  1  0
 20 22  1  0
 21 20  2  0
 23 22  1  0
 23 27  1  0
 23 24  1  6
 25 26  2  0
 25 24  1  0
 27 28  2  0
 27 30  1  0
 29 25  1  0
M  END
$$$$
