YKD.pdb
     RDKit          3D

 30 30  0  0  1  0  0  0  0  0999 V2000
   27.6234  -14.2512  -24.0999 O   0  0  0  0  0  0  0  0  0  0  0  0
   26.7708  -15.1405  -23.4199 C   0  0  0  0  0  0  0  0  0  0  0  0
   26.7558  -15.2044  -22.0537 C   0  0  0  0  0  0  0  0  0  0  0  0
   25.8933  -16.1013  -21.4412 C   0  0  0  0  0  0  0  0  0  0  0  0
   25.0570  -16.9240  -22.1671 C   0  0  0  0  0  0  0  0  0  0  0  0
   24.1572  -17.8608  -21.4444 C   0  0  0  0  0  0  0  0  0  0  0  0
   24.9728  -19.0607  -21.0160 C   0  0  2  0  0  0  0  0  0  0  0  0
   25.3300  -19.7821  -22.2115 N   0  0  0  0  0  0  0  0  0  0  0  0
   24.2124  -19.9627  -20.1303 C   0  0  0  0  0  0  0  0  0  0  0  0
   23.4293  -20.7883  -20.6291 O   0  0  0  0  0  0  0  0  0  0  0  0
   25.0947  -16.8371  -23.5370 C   0  0  0  0  0  0  0  0  0  0  0  0
   25.9460  -15.9512  -24.1582 C   0  0  0  0  0  0  0  0  0  0  0  0
   24.4018  -19.8570  -18.7326 N   0  0  0  0  0  0  0  0  0  0  0  0
   23.7642  -20.8098  -17.8318 C   0  0  1  0  0  0  0  0  0  0  0  0
   24.7377  -21.0873  -16.7363 C   0  0  0  0  0  0  0  0  0  0  0  0
   25.8183  -22.0020  -17.1986 C   0  0  0  0  0  0  0  0  0  0  0  0
   25.3141  -23.4348  -17.0263 C   0  0  0  0  0  0  0  0  0  0  0  0
   26.3908  -24.3557  -17.5126 C   0  0  0  0  0  0  0  0  0  0  0  0
   25.9773  -25.7406  -17.4301 N   0  0  0  0  0  0  0  0  0  0  0  0
   22.4651  -20.2619  -17.4034 C   0  0  0  0  0  0  0  0  0  0  0  0
   22.3289  -19.0685  -16.9937 O   0  0  0  0  0  0  0  0  0  0  0  0
   21.3168  -21.0864  -17.4449 N   0  0  0  0  0  0  0  0  0  0  0  0
   19.9917  -20.5985  -17.0089 C   0  0  1  0  0  0  0  0  0  0  0  0
   19.6693  -19.3260  -17.7420 C   0  0  0  0  0  0  0  0  0  0  0  0
   18.3001  -18.8905  -17.4995 C   0  0  0  0  0  0  0  0  0  0  0  0
   17.8777  -18.4673  -16.4122 O   0  0  0  0  0  0  0  0  0  0  0  0
   19.0066  -21.6816  -17.2570 C   0  0  0  0  0  0  0  0  0  0  0  0
   17.7761  -21.5321  -16.9854 O   0  0  0  0  0  0  0  0  0  0  0  0
   17.3875  -18.9517  -18.5702 O   0  0  0  0  0  0  0  0  0  0  0  0
   19.3832  -22.8818  -17.7880 O   0  0  0  0  0  0  0  0  0  0  0  0
  2  3  2  0
  2  1  1  0
  4  3  1  0
  5  4  2  0
  6  5  1  0
  7  6  1  0
  7  8  1  6
  9 10  2  0
  9  7  1  0
 11  5  1  0
 11 12  2  0
 12  2  1  0
 13  9  1  0
 14 13  1  0
 14 15  1  1
 16 17  1  0
 16 15  1  0
 18 17  1  0
 19 18  1  0
 20 14  1  0
 20 22  1  0
 21 20  2  0
 23 22  1  0
 23 27  1  0
 23 24  1  6
 25 26  2  0
 25 24  1  0
 27 28  2  0
 27 30  1  0
 29 25  1  0
M  END
$$$$
