YKD.pdb
     RDKit          3D

 30 30  0  0  1  0  0  0  0  0999 V2000
   16.5359  -27.2305   -9.8879 O   0  0  0  0  0  0  0  0  0  0  0  0
   17.4435  -26.7050  -10.8262 C   0  0  0  0  0  0  0  0  0  0  0  0
   18.3693  -25.7641  -10.4682 C   0  0  0  0  0  0  0  0  0  0  0  0
   19.2368  -25.2845  -11.4383 C   0  0  0  0  0  0  0  0  0  0  0  0
   19.1912  -25.7275  -12.7439 C   0  0  0  0  0  0  0  0  0  0  0  0
   20.1528  -25.1707  -13.7313 C   0  0  0  0  0  0  0  0  0  0  0  0
   21.4171  -25.9996  -13.6761 C   0  0  2  0  0  0  0  0  0  0  0  0
   22.0177  -25.7753  -12.3851 N   0  0  0  0  0  0  0  0  0  0  0  0
   22.3838  -25.6099  -14.7200 C   0  0  0  0  0  0  0  0  0  0  0  0
   22.8733  -24.4681  -14.7012 O   0  0  0  0  0  0  0  0  0  0  0  0
   18.2509  -26.6726  -13.0732 C   0  0  0  0  0  0  0  0  0  0  0  0
   17.3835  -27.1574  -12.1203 C   0  0  0  0  0  0  0  0  0  0  0  0
   22.7239  -26.5561  -15.7148 N   0  0  0  0  0  0  0  0  0  0  0  0
   23.6839  -26.2122  -16.7569 C   0  0  1  0  0  0  0  0  0  0  0  0
   24.3404  -27.4839  -17.1770 C   0  0  0  0  0  0  0  0  0  0  0  0
   25.5287  -27.2159  -18.0339 C   0  0  0  0  0  0  0  0  0  0  0  0
   26.5797  -26.5285  -17.1622 C   0  0  0  0  0  0  0  0  0  0  0  0
   27.7298  -26.1570  -18.0471 C   0  0  0  0  0  0  0  0  0  0  0  0
   28.7555  -25.4499  -17.3098 N   0  0  0  0  0  0  0  0  0  0  0  0
   22.9829  -25.4766  -17.8240 C   0  0  0  0  0  0  0  0  0  0  0  0
   21.7435  -25.6233  -18.0541 O   0  0  0  0  0  0  0  0  0  0  0  0
   23.7066  -24.5684  -18.6312 N   0  0  0  0  0  0  0  0  0  0  0  0
   23.0401  -23.7288  -19.6487 C   0  0  1  0  0  0  0  0  0  0  0  0
   22.0048  -22.8697  -18.9772 C   0  0  0  0  0  0  0  0  0  0  0  0
   21.4134  -21.9095  -19.9001 C   0  0  0  0  0  0  0  0  0  0  0  0
   20.6821  -22.2100  -20.8563 O   0  0  0  0  0  0  0  0  0  0  0  0
   24.0898  -22.9427  -20.3450 C   0  0  0  0  0  0  0  0  0  0  0  0
   25.2329  -22.7591  -19.8258 O   0  0  0  0  0  0  0  0  0  0  0  0
   21.6872  -20.5430  -19.6975 O   0  0  0  0  0  0  0  0  0  0  0  0
   23.8692  -22.3860  -21.5722 O   0  0  0  0  0  0  0  0  0  0  0  0
  2  3  2  0
  2  1  1  0
  4  3  1  0
  5  4  2  0
  6  5  1  0
  7  6  1  0
  7  8  1  1
  9 10  2  0
  9  7  1  0
 11  5  1  0
 11 12  2  0
 12  2  1  0
 13  9  1  0
 14 13  1  0
 14 15  1  6
 16 17  1  0
 16 15  1  0
 18 17  1  0
 19 18  1  0
 20 14  1  0
 20 22  1  0
 21 20  2  0
 23 22  1  0
 23 27  1  0
 23 24  1  1
 25 26  2  0
 25 24  1  0
 27 28  2  0
 27 30  1  0
 29 25  1  0
M  END
$$$$
