YKD.pdb
     RDKit          3D

 30 30  0  0  1  0  0  0  0  0999 V2000
   22.9685  -10.9260  -20.7081 O   0  0  0  0  0  0  0  0  0  0  0  0
   22.6544  -12.1565  -20.1019 C   0  0  0  0  0  0  0  0  0  0  0  0
   21.7091  -12.9892  -20.6344 C   0  0  0  0  0  0  0  0  0  0  0  0
   21.4437  -14.1888  -19.9909 C   0  0  0  0  0  0  0  0  0  0  0  0
   22.1024  -14.5616  -18.8376 C   0  0  0  0  0  0  0  0  0  0  0  0
   21.7684  -15.8628  -18.2015 C   0  0  0  0  0  0  0  0  0  0  0  0
   22.9364  -16.8017  -18.4088 C   0  0  2  0  0  0  0  0  0  0  0  0
   22.9963  -17.1028  -19.8171 N   0  0  0  0  0  0  0  0  0  0  0  0
   22.7744  -18.0642  -17.6632 C   0  0  0  0  0  0  0  0  0  0  0  0
   22.0056  -18.9362  -18.1016 O   0  0  0  0  0  0  0  0  0  0  0  0
   23.0462  -13.7048  -18.3268 C   0  0  0  0  0  0  0  0  0  0  0  0
   23.3196  -12.5107  -18.9553 C   0  0  0  0  0  0  0  0  0  0  0  0
   23.5054  -18.2414  -16.4652 N   0  0  0  0  0  0  0  0  0  0  0  0
   23.4161  -19.4974  -15.7303 C   0  0  1  0  0  0  0  0  0  0  0  0
   24.7015  -19.6580  -14.9908 C   0  0  0  0  0  0  0  0  0  0  0  0
   25.7675  -20.1974  -15.8800 C   0  0  0  0  0  0  0  0  0  0  0  0
   25.6363  -21.7205  -15.8851 C   0  0  0  0  0  0  0  0  0  0  0  0
   26.7244  -22.2662  -16.7580 C   0  0  0  0  0  0  0  0  0  0  0  0
   26.6150  -23.7025  -16.9015 N   0  0  0  0  0  0  0  0  0  0  0  0
   22.2020  -19.4739  -14.8958 C   0  0  0  0  0  0  0  0  0  0  0  0
   21.9213  -18.5052  -14.1255 O   0  0  0  0  0  0  0  0  0  0  0  0
   21.3053  -20.5665  -14.9447 N   0  0  0  0  0  0  0  0  0  0  0  0
   20.0519  -20.5810  -14.1619 C   0  0  1  0  0  0  0  0  0  0  0  0
   19.2709  -19.3310  -14.4590 C   0  0  0  0  0  0  0  0  0  0  0  0
   17.9424  -19.3649  -13.8613 C   0  0  0  0  0  0  0  0  0  0  0  0
   17.5769  -20.1827  -13.0027 O   0  0  0  0  0  0  0  0  0  0  0  0
   19.3175  -21.8248  -14.5063 C   0  0  0  0  0  0  0  0  0  0  0  0
   18.1499  -22.0483  -14.0627 O   0  0  0  0  0  0  0  0  0  0  0  0
   17.0029  -18.4044  -14.2834 O   0  0  0  0  0  0  0  0  0  0  0  0
   19.8671  -22.7782  -15.3145 O   0  0  0  0  0  0  0  0  0  0  0  0
  2  3  2  0
  2  1  1  0
  4  3  1  0
  5  4  2  0
  6  5  1  0
  7  6  1  0
  7  8  1  6
  9 10  2  0
  9  7  1  0
 11  5  1  0
 11 12  2  0
 12  2  1  0
 13  9  1  0
 14 13  1  0
 14 15  1  1
 16 17  1  0
 16 15  1  0
 18 17  1  0
 19 18  1  0
 20 14  1  0
 20 22  1  0
 21 20  2  0
 23 22  1  0
 23 27  1  0
 23 24  1  6
 25 26  2  0
 25 24  1  0
 27 28  2  0
 27 30  1  0
 29 25  1  0
M  END
$$$$
