YKD.pdb
     RDKit          3D

 30 30  0  0  1  0  0  0  0  0999 V2000
   28.6132  -20.0154   -3.3237 O   0  0  0  0  0  0  0  0  0  0  0  0
   28.3339  -19.8695   -4.6952 C   0  0  0  0  0  0  0  0  0  0  0  0
   29.1759  -19.1771   -5.5211 C   0  0  0  0  0  0  0  0  0  0  0  0
   28.8462  -19.0679   -6.8639 C   0  0  0  0  0  0  0  0  0  0  0  0
   27.7011  -19.6345   -7.3844 C   0  0  0  0  0  0  0  0  0  0  0  0
   27.4109  -19.4790   -8.8339 C   0  0  0  0  0  0  0  0  0  0  0  0
   26.1754  -20.2903   -9.1562 C   0  0  2  0  0  0  0  0  0  0  0  0
   26.5411  -21.6811   -9.0578 N   0  0  0  0  0  0  0  0  0  0  0  0
   25.6784  -20.0288  -10.5204 C   0  0  0  0  0  0  0  0  0  0  0  0
   25.3589  -18.8717  -10.8408 O   0  0  0  0  0  0  0  0  0  0  0  0
   26.8754  -20.3236   -6.5304 C   0  0  0  0  0  0  0  0  0  0  0  0
   27.1904  -20.4397   -5.1952 C   0  0  0  0  0  0  0  0  0  0  0  0
   25.5816  -21.1120  -11.4248 N   0  0  0  0  0  0  0  0  0  0  0  0
   25.2113  -20.8761  -12.8150 C   0  0  1  0  0  0  0  0  0  0  0  0
   26.4308  -21.1279  -13.6362 C   0  0  0  0  0  0  0  0  0  0  0  0
   26.1582  -20.9037  -15.0831 C   0  0  0  0  0  0  0  0  0  0  0  0
   27.4384  -21.2354  -15.8499 C   0  0  0  0  0  0  0  0  0  0  0  0
   27.1763  -20.9786  -17.3022 C   0  0  0  0  0  0  0  0  0  0  0  0
   28.3671  -21.1885  -18.0982 N   0  0  0  0  0  0  0  0  0  0  0  0
   24.0415  -21.7100  -13.1429 C   0  0  0  0  0  0  0  0  0  0  0  0
   23.9895  -22.9493  -12.8743 O   0  0  0  0  0  0  0  0  0  0  0  0
   22.9262  -21.1202  -13.7818 N   0  0  0  0  0  0  0  0  0  0  0  0
   21.5608  -21.6634  -13.6236 C   0  0  1  0  0  0  0  0  0  0  0  0
   21.2216  -21.7252  -12.1601 C   0  0  0  0  0  0  0  0  0  0  0  0
   19.9026  -22.3007  -11.9314 C   0  0  0  0  0  0  0  0  0  0  0  0
   19.1489  -22.7126  -12.8269 O   0  0  0  0  0  0  0  0  0  0  0  0
   20.6371  -20.7995  -14.4017 C   0  0  0  0  0  0  0  0  0  0  0  0
   19.8551  -21.2849  -15.2751 O   0  0  0  0  0  0  0  0  0  0  0  0
   19.4457  -22.3994  -10.6030 O   0  0  0  0  0  0  0  0  0  0  0  0
   20.5900  -19.4486  -14.2092 O   0  0  0  0  0  0  0  0  0  0  0  0
  2  3  2  0
  2  1  1  0
  4  3  1  0
  5  4  2  0
  6  5  1  0
  7  6  1  0
  7  8  1  6
  9 10  2  0
  9  7  1  0
 11  5  1  0
 11 12  2  0
 12  2  1  0
 13  9  1  0
 14 13  1  0
 14 15  1  6
 16 17  1  0
 16 15  1  0
 18 17  1  0
 19 18  1  0
 20 14  1  0
 20 22  1  0
 21 20  2  0
 23 22  1  0
 23 27  1  0
 23 24  1  1
 25 26  2  0
 25 24  1  0
 27 28  2  0
 27 30  1  0
 29 25  1  0
M  END
$$$$
