YKD.pdb
     RDKit          3D

 30 30  0  0  1  0  0  0  0  0999 V2000
   29.0186  -20.1579   -3.6239 O   0  0  0  0  0  0  0  0  0  0  0  0
   28.3460  -20.0297   -4.8533 C   0  0  0  0  0  0  0  0  0  0  0  0
   27.4530  -20.9756   -5.2758 C   0  0  0  0  0  0  0  0  0  0  0  0
   26.8217  -20.7930   -6.4971 C   0  0  0  0  0  0  0  0  0  0  0  0
   27.0682  -19.6918   -7.2906 C   0  0  0  0  0  0  0  0  0  0  0  0
   26.3543  -19.5598   -8.5877 C   0  0  0  0  0  0  0  0  0  0  0  0
   26.7072  -20.7566   -9.4431 C   0  0  2  0  0  0  0  0  0  0  0  0
   28.1344  -20.7313   -9.6436 N   0  0  0  0  0  0  0  0  0  0  0  0
   26.0451  -20.7133  -10.7607 C   0  0  0  0  0  0  0  0  0  0  0  0
   26.3871  -19.8500  -11.5861 O   0  0  0  0  0  0  0  0  0  0  0  0
   27.9697  -18.7592   -6.8398 C   0  0  0  0  0  0  0  0  0  0  0  0
   28.6038  -18.9279   -5.6293 C   0  0  0  0  0  0  0  0  0  0  0  0
   25.0357  -21.6633  -11.0425 N   0  0  0  0  0  0  0  0  0  0  0  0
   24.4535  -21.7410  -12.3769 C   0  0  1  0  0  0  0  0  0  0  0  0
   24.9623  -22.9980  -12.9982 C   0  0  0  0  0  0  0  0  0  0  0  0
   24.5005  -23.1237  -14.4086 C   0  0  0  0  0  0  0  0  0  0  0  0
   24.9681  -24.4836  -14.9271 C   0  0  0  0  0  0  0  0  0  0  0  0
   24.5851  -24.5737  -16.3724 C   0  0  0  0  0  0  0  0  0  0  0  0
   24.9199  -25.8683  -16.9270 N   0  0  0  0  0  0  0  0  0  0  0  0
   22.9881  -21.6372  -12.2624 C   0  0  0  0  0  0  0  0  0  0  0  0
   22.4015  -21.4490  -11.1528 O   0  0  0  0  0  0  0  0  0  0  0  0
   22.1916  -21.7495  -13.4255 N   0  0  0  0  0  0  0  0  0  0  0  0
   20.8671  -21.1020  -13.5280 C   0  0  1  0  0  0  0  0  0  0  0  0
   21.0216  -19.6245  -13.2960 C   0  0  0  0  0  0  0  0  0  0  0  0
   19.7673  -18.9092  -13.4917 C   0  0  0  0  0  0  0  0  0  0  0  0
   19.2933  -18.6083  -14.5982 O   0  0  0  0  0  0  0  0  0  0  0  0
   20.3058  -21.4284  -14.8634 C   0  0  0  0  0  0  0  0  0  0  0  0
   21.0388  -21.4653  -15.8984 O   0  0  0  0  0  0  0  0  0  0  0  0
   19.0371  -18.5302  -12.3487 O   0  0  0  0  0  0  0  0  0  0  0  0
   18.9791  -21.7032  -15.0328 O   0  0  0  0  0  0  0  0  0  0  0  0
  2  3  2  0
  2  1  1  0
  4  3  1  0
  5  4  2  0
  6  5  1  0
  7  6  1  0
  7  8  1  6
  9 10  2  0
  9  7  1  0
 11  5  1  0
 11 12  2  0
 12  2  1  0
 13  9  1  0
 14 13  1  0
 14 15  1  1
 16 17  1  0
 16 15  1  0
 18 17  1  0
 19 18  1  0
 20 14  1  0
 20 22  1  0
 21 20  2  0
 23 22  1  0
 23 27  1  0
 23 24  1  6
 25 26  2  0
 25 24  1  0
 27 28  2  0
 27 30  1  0
 29 25  1  0
M  END
$$$$
