YKD.pdb
     RDKit          3D

 30 30  0  0  1  0  0  0  0  0999 V2000
   11.3967   -5.2258   -6.0987 O   0  0  0  0  0  0  0  0  0  0  0  0
   12.4124   -5.9283   -6.7734 C   0  0  0  0  0  0  0  0  0  0  0  0
   13.4029   -5.2696   -7.4484 C   0  0  0  0  0  0  0  0  0  0  0  0
   14.3762   -6.0177   -8.0939 C   0  0  0  0  0  0  0  0  0  0  0  0
   14.3720   -7.3971   -8.0734 C   0  0  0  0  0  0  0  0  0  0  0  0
   15.4477   -8.1349   -8.7862 C   0  0  0  0  0  0  0  0  0  0  0  0
   14.9034   -8.5836  -10.1246 C   0  0  2  0  0  0  0  0  0  0  0  0
   14.2247   -9.8370   -9.9101 N   0  0  0  0  0  0  0  0  0  0  0  0
   15.9732   -8.7909  -11.1190 C   0  0  0  0  0  0  0  0  0  0  0  0
   16.9368   -9.5213  -10.8336 O   0  0  0  0  0  0  0  0  0  0  0  0
   13.3648   -8.0301   -7.3875 C   0  0  0  0  0  0  0  0  0  0  0  0
   12.3921   -7.3000   -6.7422 C   0  0  0  0  0  0  0  0  0  0  0  0
   15.8654   -8.1464  -12.3734 N   0  0  0  0  0  0  0  0  0  0  0  0
   16.9103   -8.3137  -13.3763 C   0  0  1  0  0  0  0  0  0  0  0  0
   16.2281   -8.6461  -14.6605 C   0  0  0  0  0  0  0  0  0  0  0  0
   15.8862  -10.0941  -14.7264 C   0  0  0  0  0  0  0  0  0  0  0  0
   15.2216  -10.3494  -16.0792 C   0  0  0  0  0  0  0  0  0  0  0  0
   14.8331  -11.7953  -16.1276 C   0  0  0  0  0  0  0  0  0  0  0  0
   14.2075  -12.1313  -17.3891 N   0  0  0  0  0  0  0  0  0  0  0  0
   17.7470   -7.1009  -13.3971 C   0  0  0  0  0  0  0  0  0  0  0  0
   17.2729   -5.9406  -13.1984 O   0  0  0  0  0  0  0  0  0  0  0  0
   19.1340   -7.2192  -13.6468 N   0  0  0  0  0  0  0  0  0  0  0  0
   19.9879   -6.0348  -13.8752 C   0  0  1  0  0  0  0  0  0  0  0  0
   21.2278   -6.1514  -13.0327 C   0  0  0  0  0  0  0  0  0  0  0  0
   22.0995   -4.9936  -13.1848 C   0  0  0  0  0  0  0  0  0  0  0  0
   21.7685   -3.9296  -13.7306 O   0  0  0  0  0  0  0  0  0  0  0  0
   20.2751   -5.9576  -15.3300 C   0  0  0  0  0  0  0  0  0  0  0  0
   19.9237   -4.9534  -16.0216 O   0  0  0  0  0  0  0  0  0  0  0  0
   23.4107   -5.0824  -12.6787 O   0  0  0  0  0  0  0  0  0  0  0  0
   20.9293   -6.9624  -15.9833 O   0  0  0  0  0  0  0  0  0  0  0  0
  2  3  2  0
  2  1  1  0
  4  3  1  0
  5  4  2  0
  6  5  1  0
  7  6  1  0
  7  8  1  1
  9 10  2  0
  9  7  1  0
 11  5  1  0
 11 12  2  0
 12  2  1  0
 13  9  1  0
 14 13  1  0
 14 15  1  6
 16 17  1  0
 16 15  1  0
 18 17  1  0
 19 18  1  0
 20 14  1  0
 20 22  1  0
 21 20  2  0
 23 22  1  0
 23 27  1  0
 23 24  1  1
 25 26  2  0
 25 24  1  0
 27 28  2  0
 27 30  1  0
 29 25  1  0
M  END
$$$$
