YKD.pdb
     RDKit          3D

 30 30  0  0  1  0  0  0  0  0999 V2000
   29.8393  -30.3459  -19.1400 O   0  0  0  0  0  0  0  0  0  0  0  0
   28.9607  -29.4270  -18.5367 C   0  0  0  0  0  0  0  0  0  0  0  0
   28.1866  -28.5866  -19.2884 C   0  0  0  0  0  0  0  0  0  0  0  0
   27.3401  -27.7030  -18.6356 C   0  0  0  0  0  0  0  0  0  0  0  0
   27.2586  -27.6496  -17.2595 C   0  0  0  0  0  0  0  0  0  0  0  0
   26.3281  -26.6784  -16.6266 C   0  0  0  0  0  0  0  0  0  0  0  0
   26.9018  -25.2903  -16.8077 C   0  0  2  0  0  0  0  0  0  0  0  0
   28.1275  -25.2338  -16.0513 N   0  0  0  0  0  0  0  0  0  0  0  0
   25.9910  -24.2426  -16.3088 C   0  0  0  0  0  0  0  0  0  0  0  0
   26.1296  -23.8162  -15.1501 O   0  0  0  0  0  0  0  0  0  0  0  0
   28.0480  -28.5057  -16.5317 C   0  0  0  0  0  0  0  0  0  0  0  0
   28.8929  -29.3879  -17.1668 C   0  0  0  0  0  0  0  0  0  0  0  0
   24.9830  -23.7545  -17.1727 N   0  0  0  0  0  0  0  0  0  0  0  0
   24.0717  -22.7101  -16.7205 C   0  0  1  0  0  0  0  0  0  0  0  0
   24.0715  -21.6515  -17.7713 C   0  0  0  0  0  0  0  0  0  0  0  0
   23.1104  -20.5642  -17.4364 C   0  0  0  0  0  0  0  0  0  0  0  0
   23.1560  -19.5427  -18.5728 C   0  0  0  0  0  0  0  0  0  0  0  0
   22.2257  -18.4247  -18.2148 C   0  0  0  0  0  0  0  0  0  0  0  0
   22.2831  -17.3576  -19.1913 N   0  0  0  0  0  0  0  0  0  0  0  0
   22.7608  -23.3169  -16.4300 C   0  0  0  0  0  0  0  0  0  0  0  0
   22.2770  -24.2626  -17.1245 O   0  0  0  0  0  0  0  0  0  0  0  0
   22.0009  -22.8371  -15.3381 N   0  0  0  0  0  0  0  0  0  0  0  0
   20.6454  -23.3495  -15.0476 C   0  0  1  0  0  0  0  0  0  0  0  0
   20.7180  -24.3071  -13.8907 C   0  0  0  0  0  0  0  0  0  0  0  0
   19.4055  -24.8303  -13.5346 C   0  0  0  0  0  0  0  0  0  0  0  0
   18.6826  -25.4949  -14.2932 O   0  0  0  0  0  0  0  0  0  0  0  0
   19.7667  -22.1816  -14.7853 C   0  0  0  0  0  0  0  0  0  0  0  0
   20.2455  -21.0544  -14.4535 O   0  0  0  0  0  0  0  0  0  0  0  0
   18.9178  -24.5667  -12.2401 O   0  0  0  0  0  0  0  0  0  0  0  0
   18.4083  -22.2717  -14.8912 O   0  0  0  0  0  0  0  0  0  0  0  0
  2  3  2  0
  2  1  1  0
  4  3  1  0
  5  4  2  0
  6  5  1  0
  7  6  1  0
  7  8  1  1
  9 10  2  0
  9  7  1  0
 11  5  1  0
 11 12  2  0
 12  2  1  0
 13  9  1  0
 14 13  1  0
 14 15  1  6
 16 17  1  0
 16 15  1  0
 18 17  1  0
 19 18  1  0
 20 14  1  0
 20 22  1  0
 21 20  2  0
 23 22  1  0
 23 27  1  0
 23 24  1  1
 25 26  2  0
 25 24  1  0
 27 28  2  0
 27 30  1  0
 29 25  1  0
M  END
$$$$
