YKD.pdb
     RDKit          3D

 30 30  0  0  1  0  0  0  0  0999 V2000
   28.2311  -20.2190   -5.4305 O   0  0  0  0  0  0  0  0  0  0  0  0
   27.5728  -20.1195   -6.6702 C   0  0  0  0  0  0  0  0  0  0  0  0
   27.8183  -19.0784   -7.5225 C   0  0  0  0  0  0  0  0  0  0  0  0
   27.1380  -19.0357   -8.7305 C   0  0  0  0  0  0  0  0  0  0  0  0
   26.2279  -20.0072   -9.0922 C   0  0  0  0  0  0  0  0  0  0  0  0
   25.5359  -19.8987  -10.4033 C   0  0  0  0  0  0  0  0  0  0  0  0
   25.8812  -21.1241  -11.2206 C   0  0  2  0  0  0  0  0  0  0  0  0
   27.3167  -21.1632  -11.3444 N   0  0  0  0  0  0  0  0  0  0  0  0
   25.2924  -21.0752  -12.5723 C   0  0  0  0  0  0  0  0  0  0  0  0
   24.9297  -19.9826  -13.0395 O   0  0  0  0  0  0  0  0  0  0  0  0
   26.0025  -21.0400   -8.2157 C   0  0  0  0  0  0  0  0  0  0  0  0
   26.6708  -21.0949   -7.0132 C   0  0  0  0  0  0  0  0  0  0  0  0
   25.1598  -22.2827  -13.2969 N   0  0  0  0  0  0  0  0  0  0  0  0
   24.6591  -22.2655  -14.6661 C   0  0  1  0  0  0  0  0  0  0  0  0
   25.3577  -23.3627  -15.3960 C   0  0  0  0  0  0  0  0  0  0  0  0
   26.7236  -22.9425  -15.8154 C   0  0  0  0  0  0  0  0  0  0  0  0
   27.4052  -24.1560  -16.4476 C   0  0  0  0  0  0  0  0  0  0  0  0
   28.7924  -23.7453  -16.8361 C   0  0  0  0  0  0  0  0  0  0  0  0
   29.5995  -24.8910  -17.1985 N   0  0  0  0  0  0  0  0  0  0  0  0
   23.1888  -22.3588  -14.6351 C   0  0  0  0  0  0  0  0  0  0  0  0
   22.5639  -22.9975  -13.7340 O   0  0  0  0  0  0  0  0  0  0  0  0
   22.4316  -21.7169  -15.6424 N   0  0  0  0  0  0  0  0  0  0  0  0
   21.0943  -21.1500  -15.3692 C   0  0  1  0  0  0  0  0  0  0  0  0
   21.1920  -20.1912  -14.2152 C   0  0  0  0  0  0  0  0  0  0  0  0
   19.8949  -19.9516  -13.5959 C   0  0  0  0  0  0  0  0  0  0  0  0
   18.9202  -20.7143  -13.6850 O   0  0  0  0  0  0  0  0  0  0  0  0
   20.6090  -20.5124  -16.6193 C   0  0  0  0  0  0  0  0  0  0  0  0
   21.4012  -19.9074  -17.4044 O   0  0  0  0  0  0  0  0  0  0  0  0
   19.7297  -18.7737  -12.8420 O   0  0  0  0  0  0  0  0  0  0  0  0
   19.2917  -20.5515  -16.9763 O   0  0  0  0  0  0  0  0  0  0  0  0
  2  3  2  0
  2  1  1  0
  4  3  1  0
  5  4  2  0
  6  5  1  0
  7  6  1  0
  7  8  1  6
  9 10  2  0
  9  7  1  0
 11  5  1  0
 11 12  2  0
 12  2  1  0
 13  9  1  0
 14 13  1  0
 14 15  1  6
 16 17  1  0
 16 15  1  0
 18 17  1  0
 19 18  1  0
 20 14  1  0
 20 22  1  0
 21 20  2  0
 23 22  1  0
 23 27  1  0
 23 24  1  1
 25 26  2  0
 25 24  1  0
 27 28  2  0
 27 30  1  0
 29 25  1  0
M  END
$$$$
