YKD.pdb
     RDKit          3D

 30 30  0  0  1  0  0  0  0  0999 V2000
   23.2571  -12.6176  -22.5518 O   0  0  0  0  0  0  0  0  0  0  0  0
   23.2156  -13.8039  -21.7960 C   0  0  0  0  0  0  0  0  0  0  0  0
   22.9470  -15.0099  -22.3825 C   0  0  0  0  0  0  0  0  0  0  0  0
   22.9200  -16.1440  -21.5845 C   0  0  0  0  0  0  0  0  0  0  0  0
   23.1549  -16.0886  -20.2263 C   0  0  0  0  0  0  0  0  0  0  0  0
   23.1114  -17.3444  -19.4322 C   0  0  0  0  0  0  0  0  0  0  0  0
   24.5345  -17.7621  -19.1338 C   0  0  2  0  0  0  0  0  0  0  0  0
   25.1505  -18.1052  -20.3909 N   0  0  0  0  0  0  0  0  0  0  0  0
   24.5944  -18.9366  -18.2432 C   0  0  0  0  0  0  0  0  0  0  0  0
   24.2755  -20.0531  -18.6853 O   0  0  0  0  0  0  0  0  0  0  0  0
   23.4218  -14.8635  -19.6661 C   0  0  0  0  0  0  0  0  0  0  0  0
   23.4517  -13.7296  -20.4464 C   0  0  0  0  0  0  0  0  0  0  0  0
   25.0161  -18.7513  -16.9059 N   0  0  0  0  0  0  0  0  0  0  0  0
   25.1832  -19.8998  -16.0235 C   0  0  1  0  0  0  0  0  0  0  0  0
   26.4484  -19.6814  -15.2643 C   0  0  0  0  0  0  0  0  0  0  0  0
   27.6292  -20.1412  -16.0469 C   0  0  0  0  0  0  0  0  0  0  0  0
   27.5589  -21.6658  -16.1341 C   0  0  0  0  0  0  0  0  0  0  0  0
   28.7724  -22.1336  -16.8773 C   0  0  0  0  0  0  0  0  0  0  0  0
   28.7456  -23.5665  -17.0819 N   0  0  0  0  0  0  0  0  0  0  0  0
   23.9682  -20.0493  -15.2034 C   0  0  0  0  0  0  0  0  0  0  0  0
   23.8584  -20.9341  -14.3002 O   0  0  0  0  0  0  0  0  0  0  0  0
   22.8738  -19.1801  -15.4199 N   0  0  0  0  0  0  0  0  0  0  0  0
   21.5603  -19.4079  -14.7820 C   0  0  1  0  0  0  0  0  0  0  0  0
   20.7237  -18.1662  -14.9196 C   0  0  0  0  0  0  0  0  0  0  0  0
   19.3793  -18.3547  -14.3899 C   0  0  0  0  0  0  0  0  0  0  0  0
   19.0786  -19.1723  -13.5063 O   0  0  0  0  0  0  0  0  0  0  0  0
   20.9472  -20.5996  -15.4214 C   0  0  0  0  0  0  0  0  0  0  0  0
   20.5163  -21.5731  -14.7309 O   0  0  0  0  0  0  0  0  0  0  0  0
   18.3445  -17.5557  -14.9134 O   0  0  0  0  0  0  0  0  0  0  0  0
   20.8207  -20.6970  -16.7774 O   0  0  0  0  0  0  0  0  0  0  0  0
  2  3  2  0
  2  1  1  0
  4  3  1  0
  5  4  2  0
  6  5  1  0
  7  6  1  0
  7  8  1  6
  9 10  2  0
  9  7  1  0
 11  5  1  0
 11 12  2  0
 12  2  1  0
 13  9  1  0
 14 13  1  0
 14 15  1  1
 16 17  1  0
 16 15  1  0
 18 17  1  0
 19 18  1  0
 20 14  1  0
 20 22  1  0
 21 20  2  0
 23 22  1  0
 23 27  1  0
 23 24  1  6
 25 26  2  0
 25 24  1  0
 27 28  2  0
 27 30  1  0
 29 25  1  0
M  END
$$$$
