YKD.pdb
     RDKit          3D

 30 30  0  0  1  0  0  0  0  0999 V2000
   29.5692  -19.8211   -3.6709 O   0  0  0  0  0  0  0  0  0  0  0  0
   28.6905  -19.9150   -4.7660 C   0  0  0  0  0  0  0  0  0  0  0  0
   28.9789  -19.3151   -5.9608 C   0  0  0  0  0  0  0  0  0  0  0  0
   28.0730  -19.4436   -7.0032 C   0  0  0  0  0  0  0  0  0  0  0  0
   26.8986  -20.1547   -6.8682 C   0  0  0  0  0  0  0  0  0  0  0  0
   25.9741  -20.2524   -8.0280 C   0  0  0  0  0  0  0  0  0  0  0  0
   26.7843  -20.6443   -9.2440 C   0  0  2  0  0  0  0  0  0  0  0  0
   27.9246  -19.7644   -9.2980 N   0  0  0  0  0  0  0  0  0  0  0  0
   26.0162  -20.4980  -10.4950 C   0  0  0  0  0  0  0  0  0  0  0  0
   25.8100  -19.3620  -10.9538 O   0  0  0  0  0  0  0  0  0  0  0  0
   26.6367  -20.7458   -5.6567 C   0  0  0  0  0  0  0  0  0  0  0  0
   27.5271  -20.6262   -4.6134 C   0  0  0  0  0  0  0  0  0  0  0  0
   25.5367  -21.6646  -11.1352 N   0  0  0  0  0  0  0  0  0  0  0  0
   24.8378  -21.5667  -12.4110 C   0  0  1  0  0  0  0  0  0  0  0  0
   25.0886  -22.8433  -13.1406 C   0  0  0  0  0  0  0  0  0  0  0  0
   24.5437  -22.7849  -14.5255 C   0  0  0  0  0  0  0  0  0  0  0  0
   25.4342  -21.8392  -15.3314 C   0  0  0  0  0  0  0  0  0  0  0  0
   24.8944  -21.7883  -16.7277 C   0  0  0  0  0  0  0  0  0  0  0  0
   25.6927  -20.9236  -17.5706 N   0  0  0  0  0  0  0  0  0  0  0  0
   23.4220  -21.2498  -12.1537 C   0  0  0  0  0  0  0  0  0  0  0  0
   22.7734  -21.7564  -11.1877 O   0  0  0  0  0  0  0  0  0  0  0  0
   22.7466  -20.3476  -13.0081 N   0  0  0  0  0  0  0  0  0  0  0  0
   21.2920  -20.1108  -12.8974 C   0  0  1  0  0  0  0  0  0  0  0  0
   20.9138  -18.9492  -13.7739 C   0  0  0  0  0  0  0  0  0  0  0  0
   19.4775  -18.7037  -13.7615 C   0  0  0  0  0  0  0  0  0  0  0  0
   18.8958  -17.9670  -12.9500 O   0  0  0  0  0  0  0  0  0  0  0  0
   20.5990  -21.3712  -13.2661 C   0  0  0  0  0  0  0  0  0  0  0  0
   19.5599  -21.7597  -12.6501 O   0  0  0  0  0  0  0  0  0  0  0  0
   18.6889  -19.3443  -14.7367 O   0  0  0  0  0  0  0  0  0  0  0  0
   21.0498  -22.1633  -14.2828 O   0  0  0  0  0  0  0  0  0  0  0  0
  2  3  2  0
  2  1  1  0
  4  3  1  0
  5  4  2  0
  6  5  1  0
  7  6  1  0
  7  8  1  6
  9 10  2  0
  9  7  1  0
 11  5  1  0
 11 12  2  0
 12  2  1  0
 13  9  1  0
 14 13  1  0
 14 15  1  1
 16 17  1  0
 16 15  1  0
 18 17  1  0
 19 18  1  0
 20 14  1  0
 20 22  1  0
 21 20  2  0
 23 22  1  0
 23 27  1  0
 23 24  1  6
 25 26  2  0
 25 24  1  0
 27 28  2  0
 27 30  1  0
 29 25  1  0
M  END
$$$$
