YKD.pdb
     RDKit          3D

 30 30  0  0  1  0  0  0  0  0999 V2000
   10.9558   -6.4924   -7.2593 O   0  0  0  0  0  0  0  0  0  0  0  0
   12.2022   -6.5648   -7.9086 C   0  0  0  0  0  0  0  0  0  0  0  0
   12.2951   -6.9026   -9.2307 C   0  0  0  0  0  0  0  0  0  0  0  0
   13.5521   -6.9570   -9.8144 C   0  0  0  0  0  0  0  0  0  0  0  0
   14.7016   -6.6818   -9.1031 C   0  0  0  0  0  0  0  0  0  0  0  0
   16.0158   -6.7581   -9.7934 C   0  0  0  0  0  0  0  0  0  0  0  0
   16.0886   -8.0819  -10.5221 C   0  0  2  0  0  0  0  0  0  0  0  0
   16.2028   -9.1133   -9.5218 N   0  0  0  0  0  0  0  0  0  0  0  0
   17.2589   -8.1609  -11.4167 C   0  0  0  0  0  0  0  0  0  0  0  0
   18.3813   -8.3843  -10.9329 O   0  0  0  0  0  0  0  0  0  0  0  0
   14.5763   -6.3456   -7.7776 C   0  0  0  0  0  0  0  0  0  0  0  0
   13.3348   -6.2878   -7.1853 C   0  0  0  0  0  0  0  0  0  0  0  0
   17.0629   -7.9785  -12.8055 N   0  0  0  0  0  0  0  0  0  0  0  0
   18.1898   -8.0798  -13.7250 C   0  0  1  0  0  0  0  0  0  0  0  0
   17.6721   -8.7048  -14.9765 C   0  0  0  0  0  0  0  0  0  0  0  0
   17.6104  -10.1874  -14.8493 C   0  0  0  0  0  0  0  0  0  0  0  0
   17.0241  -10.7374  -16.1495 C   0  0  0  0  0  0  0  0  0  0  0  0
   16.9430  -12.2271  -16.0155 C   0  0  0  0  0  0  0  0  0  0  0  0
   16.3221  -12.8280  -17.1770 N   0  0  0  0  0  0  0  0  0  0  0  0
   18.7939   -6.7453  -13.8845 C   0  0  0  0  0  0  0  0  0  0  0  0
   18.1168   -5.6750  -13.8029 O   0  0  0  0  0  0  0  0  0  0  0  0
   20.1809   -6.6375  -14.1386 N   0  0  0  0  0  0  0  0  0  0  0  0
   20.8386   -5.3276  -14.3276 C   0  0  1  0  0  0  0  0  0  0  0  0
   22.3287   -5.5248  -14.3624 C   0  0  0  0  0  0  0  0  0  0  0  0
   23.0397   -4.2661  -14.5454 C   0  0  0  0  0  0  0  0  0  0  0  0
   22.5381   -3.1433  -14.3803 O   0  0  0  0  0  0  0  0  0  0  0  0
   20.2994   -4.7260  -15.5735 C   0  0  0  0  0  0  0  0  0  0  0  0
   20.2456   -5.3843  -16.6569 O   0  0  0  0  0  0  0  0  0  0  0  0
   24.3914   -4.3213  -14.9369 O   0  0  0  0  0  0  0  0  0  0  0  0
   19.8385   -3.4411  -15.6049 O   0  0  0  0  0  0  0  0  0  0  0  0
  2  3  2  0
  2  1  1  0
  4  3  1  0
  5  4  2  0
  6  5  1  0
  7  6  1  0
  7  8  1  1
  9 10  2  0
  9  7  1  0
 11  5  1  0
 11 12  2  0
 12  2  1  0
 13  9  1  0
 14 13  1  0
 14 15  1  6
 16 17  1  0
 16 15  1  0
 18 17  1  0
 19 18  1  0
 20 14  1  0
 20 22  1  0
 21 20  2  0
 23 22  1  0
 23 27  1  0
 23 24  1  6
 25 26  2  0
 25 24  1  0
 27 28  2  0
 27 30  1  0
 29 25  1  0
M  END
$$$$
