YKD.pdb
     RDKit          3D

 30 30  0  0  1  0  0  0  0  0999 V2000
   29.5189  -12.4244  -15.6168 O   0  0  0  0  0  0  0  0  0  0  0  0
   28.4621  -11.5235  -15.8447 C   0  0  0  0  0  0  0  0  0  0  0  0
   28.6156  -10.4438  -16.6700 C   0  0  0  0  0  0  0  0  0  0  0  0
   27.5369   -9.5917  -16.8549 C   0  0  0  0  0  0  0  0  0  0  0  0
   26.3233   -9.8025  -16.2337 C   0  0  0  0  0  0  0  0  0  0  0  0
   25.2095   -8.8492  -16.4785 C   0  0  0  0  0  0  0  0  0  0  0  0
   24.0233   -9.6336  -16.9943 C   0  0  2  0  0  0  0  0  0  0  0  0
   24.4442  -10.2977  -18.2024 N   0  0  0  0  0  0  0  0  0  0  0  0
   22.8753   -8.7627  -17.3105 C   0  0  0  0  0  0  0  0  0  0  0  0
   22.8927   -8.0864  -18.3525 O   0  0  0  0  0  0  0  0  0  0  0  0
   26.1997  -10.8950  -15.4109 C   0  0  0  0  0  0  0  0  0  0  0  0
   27.2623  -11.7491  -15.2184 C   0  0  0  0  0  0  0  0  0  0  0  0
   21.7850   -8.7265  -16.4101 N   0  0  0  0  0  0  0  0  0  0  0  0
   20.5667   -8.0072  -16.7620 C   0  0  1  0  0  0  0  0  0  0  0  0
   19.4489   -8.6619  -16.0225 C   0  0  0  0  0  0  0  0  0  0  0  0
   18.9304   -9.8413  -16.7696 C   0  0  0  0  0  0  0  0  0  0  0  0
   17.8295  -10.4769  -15.9205 C   0  0  0  0  0  0  0  0  0  0  0  0
   17.3173  -11.6723  -16.6636 C   0  0  0  0  0  0  0  0  0  0  0  0
   16.2375  -12.3164  -15.9461 N   0  0  0  0  0  0  0  0  0  0  0  0
   20.7626   -6.5745  -16.4785 C   0  0  0  0  0  0  0  0  0  0  0  0
   21.2575   -6.1556  -15.3876 O   0  0  0  0  0  0  0  0  0  0  0  0
   20.3891   -5.6176  -17.4506 N   0  0  0  0  0  0  0  0  0  0  0  0
   20.4788   -4.1658  -17.1889 C   0  0  1  0  0  0  0  0  0  0  0  0
   20.6342   -3.4383  -18.4955 C   0  0  0  0  0  0  0  0  0  0  0  0
   20.7023   -1.9947  -18.3094 C   0  0  0  0  0  0  0  0  0  0  0  0
   19.7255   -1.2312  -18.3595 O   0  0  0  0  0  0  0  0  0  0  0  0
   19.2620   -3.7652  -16.4380 C   0  0  0  0  0  0  0  0  0  0  0  0
   18.1966   -4.4524  -16.4891 O   0  0  0  0  0  0  0  0  0  0  0  0
   21.9623   -1.4198  -18.0542 O   0  0  0  0  0  0  0  0  0  0  0  0
   19.2393   -2.6424  -15.6613 O   0  0  0  0  0  0  0  0  0  0  0  0
  2  3  2  0
  2  1  1  0
  4  3  1  0
  5  4  2  0
  6  5  1  0
  7  6  1  0
  7  8  1  6
  9 10  2  0
  9  7  1  0
 11  5  1  0
 11 12  2  0
 12  2  1  0
 13  9  1  0
 14 13  1  0
 14 15  1  1
 16 17  1  0
 16 15  1  0
 18 17  1  0
 19 18  1  0
 20 14  1  0
 20 22  1  0
 21 20  2  0
 23 22  1  0
 23 27  1  0
 23 24  1  6
 25 26  2  0
 25 24  1  0
 27 28  2  0
 27 30  1  0
 29 25  1  0
M  END
$$$$
