YKD.pdb
     RDKit          3D

 30 30  0  0  1  0  0  0  0  0999 V2000
   28.1889  -20.5941   -6.0571 O   0  0  0  0  0  0  0  0  0  0  0  0
   27.6431  -20.4615   -7.3474 C   0  0  0  0  0  0  0  0  0  0  0  0
   28.4369  -20.2019   -8.4304 C   0  0  0  0  0  0  0  0  0  0  0  0
   27.8401  -20.0822   -9.6767 C   0  0  0  0  0  0  0  0  0  0  0  0
   26.4783  -20.2169   -9.8516 C   0  0  0  0  0  0  0  0  0  0  0  0
   25.9065  -20.0774  -11.2165 C   0  0  0  0  0  0  0  0  0  0  0  0
   26.0144  -21.4170  -11.9111 C   0  0  2  0  0  0  0  0  0  0  0  0
   27.3818  -21.5645  -12.3424 N   0  0  0  0  0  0  0  0  0  0  0  0
   25.1354  -21.5033  -13.0927 C   0  0  0  0  0  0  0  0  0  0  0  0
   25.3465  -20.7587  -14.0646 O   0  0  0  0  0  0  0  0  0  0  0  0
   25.7074  -20.4773   -8.7454 C   0  0  0  0  0  0  0  0  0  0  0  0
   26.2867  -20.5986   -7.5023 C   0  0  0  0  0  0  0  0  0  0  0  0
   24.0739  -22.4380  -13.0798 N   0  0  0  0  0  0  0  0  0  0  0  0
   23.2648  -22.6459  -14.2748 C   0  0  1  0  0  0  0  0  0  0  0  0
   23.5108  -24.0464  -14.7254 C   0  0  0  0  0  0  0  0  0  0  0  0
   24.7609  -24.1388  -15.5295 C   0  0  0  0  0  0  0  0  0  0  0  0
   24.8556  -25.5650  -16.0717 C   0  0  0  0  0  0  0  0  0  0  0  0
   26.1067  -25.6565  -16.8903 C   0  0  0  0  0  0  0  0  0  0  0  0
   26.3538  -27.0148  -17.3257 N   0  0  0  0  0  0  0  0  0  0  0  0
   21.8631  -22.3161  -13.9624 C   0  0  0  0  0  0  0  0  0  0  0  0
   21.3552  -22.5098  -12.8156 O   0  0  0  0  0  0  0  0  0  0  0  0
   21.0398  -21.7617  -14.9698 N   0  0  0  0  0  0  0  0  0  0  0  0
   19.6331  -21.3906  -14.7092 C   0  0  1  0  0  0  0  0  0  0  0  0
   19.3014  -20.1438  -15.4813 C   0  0  0  0  0  0  0  0  0  0  0  0
   17.8863  -19.8083  -15.3904 C   0  0  0  0  0  0  0  0  0  0  0  0
   16.9588  -20.5890  -15.6549 O   0  0  0  0  0  0  0  0  0  0  0  0
   18.7831  -22.5506  -15.0790 C   0  0  0  0  0  0  0  0  0  0  0  0
   17.7394  -22.8432  -14.4193 O   0  0  0  0  0  0  0  0  0  0  0  0
   17.5406  -18.5083  -14.9734 O   0  0  0  0  0  0  0  0  0  0  0  0
   19.0882  -23.3492  -16.1436 O   0  0  0  0  0  0  0  0  0  0  0  0
  2  3  2  0
  2  1  1  0
  4  3  1  0
  5  4  2  0
  6  5  1  0
  7  6  1  0
  7  8  1  6
  9 10  2  0
  9  7  1  0
 11  5  1  0
 11 12  2  0
 12  2  1  0
 13  9  1  0
 14 13  1  0
 14 15  1  1
 16 17  1  0
 16 15  1  0
 18 17  1  0
 19 18  1  0
 20 14  1  0
 20 22  1  0
 21 20  2  0
 23 22  1  0
 23 27  1  0
 23 24  1  6
 25 26  2  0
 25 24  1  0
 27 28  2  0
 27 30  1  0
 29 25  1  0
M  END
$$$$
