YKD.pdb
     RDKit          3D

 30 30  0  0  1  0  0  0  0  0999 V2000
   18.9503  -23.3550  -25.1260 O   0  0  0  0  0  0  0  0  0  0  0  0
   19.1225  -23.1624  -23.7427 C   0  0  0  0  0  0  0  0  0  0  0  0
   20.1700  -22.4320  -23.2529 C   0  0  0  0  0  0  0  0  0  0  0  0
   20.2860  -22.2777  -21.8794 C   0  0  0  0  0  0  0  0  0  0  0  0
   19.3805  -22.8366  -21.0014 C   0  0  0  0  0  0  0  0  0  0  0  0
   19.5656  -22.6294  -19.5412 C   0  0  0  0  0  0  0  0  0  0  0  0
   20.6831  -23.5363  -19.0750 C   0  0  2  0  0  0  0  0  0  0  0  0
   20.1763  -24.8853  -19.1014 N   0  0  0  0  0  0  0  0  0  0  0  0
   21.1175  -23.2225  -17.7005 C   0  0  0  0  0  0  0  0  0  0  0  0
   20.4512  -23.6436  -16.7402 O   0  0  0  0  0  0  0  0  0  0  0  0
   18.3394  -23.5645  -21.5231 C   0  0  0  0  0  0  0  0  0  0  0  0
   18.2122  -23.7258  -22.8844 C   0  0  0  0  0  0  0  0  0  0  0  0
   22.2867  -22.4471  -17.5205 N   0  0  0  0  0  0  0  0  0  0  0  0
   22.7428  -22.1084  -16.1778 C   0  0  1  0  0  0  0  0  0  0  0  0
   24.1761  -21.7123  -16.2950 C   0  0  0  0  0  0  0  0  0  0  0  0
   25.0105  -22.8528  -16.7652 C   0  0  0  0  0  0  0  0  0  0  0  0
   26.4702  -22.4001  -16.7323 C   0  0  0  0  0  0  0  0  0  0  0  0
   27.3177  -23.5746  -17.1148 C   0  0  0  0  0  0  0  0  0  0  0  0
   28.7214  -23.2225  -17.1509 N   0  0  0  0  0  0  0  0  0  0  0  0
   21.8448  -21.0843  -15.6156 C   0  0  0  0  0  0  0  0  0  0  0  0
   21.4219  -20.0994  -16.2952 O   0  0  0  0  0  0  0  0  0  0  0  0
   21.4298  -21.1899  -14.2678 N   0  0  0  0  0  0  0  0  0  0  0  0
   20.5501  -20.1804  -13.6424 C   0  0  1  0  0  0  0  0  0  0  0  0
   20.7697  -18.8525  -14.3125 C   0  0  0  0  0  0  0  0  0  0  0  0
   19.8563  -17.8333  -13.8123 C   0  0  0  0  0  0  0  0  0  0  0  0
   19.1814  -17.0788  -14.5299 O   0  0  0  0  0  0  0  0  0  0  0  0
   19.1517  -20.6673  -13.7540 C   0  0  0  0  0  0  0  0  0  0  0  0
   18.6850  -21.0929  -14.8544 O   0  0  0  0  0  0  0  0  0  0  0  0
   19.7260  -17.6896  -12.4174 O   0  0  0  0  0  0  0  0  0  0  0  0
   18.3112  -20.6781  -12.6780 O   0  0  0  0  0  0  0  0  0  0  0  0
  2  3  2  0
  2  1  1  0
  4  3  1  0
  5  4  2  0
  6  5  1  0
  7  6  1  0
  7  8  1  1
  9 10  2  0
  9  7  1  0
 11  5  1  0
 11 12  2  0
 12  2  1  0
 13  9  1  0
 14 13  1  0
 14 15  1  6
 16 17  1  0
 16 15  1  0
 18 17  1  0
 19 18  1  0
 20 14  1  0
 20 22  1  0
 21 20  2  0
 23 22  1  0
 23 27  1  0
 23 24  1  6
 25 26  2  0
 25 24  1  0
 27 28  2  0
 27 30  1  0
 29 25  1  0
M  END
$$$$
