RHR.pdb
     RDKit          3D

 33 33  0  0  1  0  0  0  0  0999 V2000
   11.8773  -17.9110   13.3294 N   0  0  0  0  0  0  0  0  0  0  0  0
   12.4266  -18.9981   14.0511 C   0  0  0  0  0  0  0  0  0  0  0  0
   12.8951  -20.0692   13.4699 N   0  0  0  0  0  0  0  0  0  0  0  0
   12.4964  -18.9793   15.4801 N   0  0  0  0  0  0  0  0  0  0  0  0
   11.9180  -17.8495   16.2120 C   0  0  0  0  0  0  0  0  0  0  0  0
   12.1017  -18.0027   17.6900 C   0  0  0  0  0  0  0  0  0  0  0  0
   11.3746  -16.9595   18.4960 C   0  0  0  0  0  0  0  0  0  0  0  0
   10.6837  -17.5189   19.6963 C   0  0  2  0  0  0  0  0  0  0  0  0
    9.5616  -18.3110   19.3057 N   0  0  0  0  0  0  0  0  0  0  0  0
   10.3903  -16.4805   20.7002 C   0  0  0  0  0  0  0  0  0  0  0  0
   11.4104  -15.8300   21.1212 O   0  0  0  0  0  0  0  0  0  0  0  0
   13.2523  -20.8223   14.0990 N   0  0  0  0  0  0  0  0  0  0  0  0
    9.0913  -16.2186   21.1644 C   0  0  1  0  0  0  0  0  0  0  0  0
    8.8987  -15.2088   22.1839 C   0  0  0  0  0  0  0  0  0  0  0  0
    7.7738  -14.3271   21.6984 C   0  0  0  0  0  0  0  0  0  0  0  0
    7.8838  -14.0911   20.2469 C   0  0  0  0  0  0  0  0  0  0  0  0
    8.9086  -14.5413   19.4167 N   0  0  0  0  0  0  0  0  0  0  0  0
    8.6336  -14.1061   18.1758 C   0  0  0  0  0  0  0  0  0  0  0  0
    7.4886  -13.4036   18.1749 N   0  0  0  0  0  0  0  0  0  0  0  0
    7.0308  -13.3969   19.4513 C   0  0  0  0  0  0  0  0  0  0  0  0
    8.5735  -15.7816   23.4917 O   0  0  0  0  0  0  0  0  0  0  0  0
    7.4694  -16.4013   23.6551 N   0  0  0  0  0  0  0  0  0  0  0  0
   12.8441  -22.4801   23.4576 C   0  0  0  0  0  0  0  0  0  0  0  0
   12.6687  -21.2913   22.7026 N   0  0  0  0  0  0  0  0  0  0  0  0
   13.3430  -21.0732   21.6021 N   0  0  0  0  0  0  0  0  0  0  0  0
   11.7620  -20.2708   23.0877 C   0  0  0  0  0  0  0  0  0  0  0  0
   11.0100  -20.3405   24.2875 C   0  0  0  0  0  0  0  0  0  0  0  0
   11.0204  -19.0663   25.1120 C   0  0  0  0  0  0  0  0  0  0  0  0
   10.4215  -17.9147   24.3946 C   0  0  1  0  0  0  0  0  0  0  0  0
    9.8318  -16.9269   25.3636 N   0  0  0  0  0  0  0  0  0  0  0  0
    9.3901  -15.7191   24.6503 C   0  0  0  0  0  0  0  0  0  0  0  0
   10.7191  -16.4979   26.4483 O   0  0  0  0  0  0  0  0  0  0  0  0
   11.0183  -17.3286   27.5119 O   0  0  0  0  0  0  0  0  0  0  0  0
  1  2  1  0
  2  4  1  0
  3  2  2  0
  4  5  1  0
  6  7  1  0
  6  5  1  0
  7  8  1  0
  8  9  1  6
 10 12  1  0
 10  8  1  0
 11 10  2  0
 13 12  1  0
 13 20  1  0
 13 14  1  1
 15 14  1  0
 16 15  2  0
 17 16  1  0
 18 17  1  0
 18 19  2  0
 19 15  1  0
 20 21  2  0
 22 23  1  0
 23 25  1  0
 23 24  2  0
 25 26  1  0
 27 26  1  0
 27 28  1  0
 29 28  1  6
 29 31  1  0
 30 20  1  0
 30 29  1  0
 31 32  1  0
 33 31  2  0
M  END
$$$$
