RHR.pdb
     RDKit          3D

 33 33  0  0  1  0  0  0  0  0999 V2000
    9.0535  -12.2100   13.7907 N   0  0  0  0  0  0  0  0  0  0  0  0
    8.4159  -13.2935   14.4418 C   0  0  0  0  0  0  0  0  0  0  0  0
    8.3822  -14.4992   13.9420 N   0  0  0  0  0  0  0  0  0  0  0  0
    7.7625  -13.1195   15.7028 N   0  0  0  0  0  0  0  0  0  0  0  0
    6.9849  -14.2258   16.2667 C   0  0  0  0  0  0  0  0  0  0  0  0
    7.8458  -15.1417   17.0801 C   0  0  0  0  0  0  0  0  0  0  0  0
    7.7828  -14.8678   18.5591 C   0  0  0  0  0  0  0  0  0  0  0  0
    8.5968  -15.8224   19.3698 C   0  0  2  0  0  0  0  0  0  0  0  0
    8.8495  -17.0185   18.6321 N   0  0  0  0  0  0  0  0  0  0  0  0
    8.0291  -16.0311   20.7139 C   0  0  0  0  0  0  0  0  0  0  0  0
    7.8613  -14.9643   21.4030 O   0  0  0  0  0  0  0  0  0  0  0  0
    7.9368  -15.2361   14.5327 N   0  0  0  0  0  0  0  0  0  0  0  0
    7.6947  -17.3021   21.2079 C   0  0  1  0  0  0  0  0  0  0  0  0
    6.9637  -17.4029   22.4535 C   0  0  0  0  0  0  0  0  0  0  0  0
    6.0487  -18.5950   22.3116 C   0  0  0  0  0  0  0  0  0  0  0  0
    4.9942  -18.3289   21.3158 C   0  0  0  0  0  0  0  0  0  0  0  0
    4.7697  -17.1199   20.6599 N   0  0  0  0  0  0  0  0  0  0  0  0
    3.7157  -17.2998   19.8467 C   0  0  0  0  0  0  0  0  0  0  0  0
    3.2595  -18.5589   19.9520 N   0  0  0  0  0  0  0  0  0  0  0  0
    4.0490  -19.1884   20.8570 C   0  0  0  0  0  0  0  0  0  0  0  0
    7.8433  -17.5667   23.6127 O   0  0  0  0  0  0  0  0  0  0  0  0
    9.0326  -18.0008   23.4493 N   0  0  0  0  0  0  0  0  0  0  0  0
   10.1601  -13.5609   31.0969 C   0  0  0  0  0  0  0  0  0  0  0  0
   10.6113  -14.6194   30.2662 N   0  0  0  0  0  0  0  0  0  0  0  0
   11.5886  -15.4092   30.6334 N   0  0  0  0  0  0  0  0  0  0  0  0
   10.0405  -14.8874   28.9957 C   0  0  0  0  0  0  0  0  0  0  0  0
   10.7426  -15.5896   27.9840 C   0  0  0  0  0  0  0  0  0  0  0  0
    9.9637  -15.7839   26.6960 C   0  0  0  0  0  0  0  0  0  0  0  0
    8.6151  -16.3578   26.9229 C   0  0  2  0  0  0  0  0  0  0  0  0
    8.4055  -17.5852   26.0790 N   0  0  0  0  0  0  0  0  0  0  0  0
    7.5008  -17.2824   24.9600 C   0  0  0  0  0  0  0  0  0  0  0  0
    7.8621  -18.7508   26.7817 O   0  0  0  0  0  0  0  0  0  0  0  0
    6.6072  -19.2526   26.4913 O   0  0  0  0  0  0  0  0  0  0  0  0
  1  2  1  0
  2  4  1  0
  3  2  2  0
  4  5  1  0
  6  7  1  0
  6  5  1  0
  7  8  1  0
  8  9  1  6
 10 12  1  0
 10  8  1  0
 11 10  2  0
 13 12  1  0
 13 20  1  0
 13 14  1  1
 15 14  1  0
 16 15  2  0
 17 16  1  0
 18 17  1  0
 18 19  2  0
 19 15  1  0
 20 21  2  0
 22 23  1  0
 23 25  1  0
 23 24  2  0
 25 26  1  0
 27 26  1  0
 27 28  1  0
 29 28  1  6
 29 31  1  0
 30 20  1  0
 30 29  1  0
 31 32  1  0
 33 31  2  0
M  END
$$$$
