RHR.pdb
     RDKit          3D

 33 33  0  0  1  0  0  0  0  0999 V2000
    9.9172  -22.1686   16.1926 N   0  0  0  0  0  0  0  0  0  0  0  0
    8.5347  -22.2508   15.8987 C   0  0  0  0  0  0  0  0  0  0  0  0
    8.0385  -23.1267   15.0673 N   0  0  0  0  0  0  0  0  0  0  0  0
    7.5934  -21.3614   16.5072 N   0  0  0  0  0  0  0  0  0  0  0  0
    7.9895  -20.6003   17.6948 C   0  0  0  0  0  0  0  0  0  0  0  0
    8.8746  -19.4471   17.3363 C   0  0  0  0  0  0  0  0  0  0  0  0
    9.2751  -18.6077   18.5202 C   0  0  0  0  0  0  0  0  0  0  0  0
    8.7418  -17.2138   18.4608 C   0  0  2  0  0  0  0  0  0  0  0  0
    9.2472  -16.5316   17.3128 N   0  0  0  0  0  0  0  0  0  0  0  0
    8.9212  -16.4978   19.7365 C   0  0  0  0  0  0  0  0  0  0  0  0
   10.1284  -16.1643   20.0059 O   0  0  0  0  0  0  0  0  0  0  0  0
    7.0025  -23.1109   14.9372 N   0  0  0  0  0  0  0  0  0  0  0  0
    7.8523  -16.1999   20.5969 C   0  0  2  0  0  0  0  0  0  0  0  0
    8.1152  -15.4693   21.8188 C   0  0  0  0  0  0  0  0  0  0  0  0
    6.7716  -15.0223   22.3416 C   0  0  0  0  0  0  0  0  0  0  0  0
    6.9234  -14.2822   23.6080 C   0  0  0  0  0  0  0  0  0  0  0  0
    8.1263  -13.9776   24.2425 N   0  0  0  0  0  0  0  0  0  0  0  0
    7.8231  -13.3047   25.3650 C   0  0  0  0  0  0  0  0  0  0  0  0
    6.4916  -13.1663   25.4763 N   0  0  0  0  0  0  0  0  0  0  0  0
    5.9421  -13.7693   24.3931 C   0  0  0  0  0  0  0  0  0  0  0  0
    8.8124  -16.2778   22.8211 O   0  0  0  0  0  0  0  0  0  0  0  0
    8.4422  -17.4809   23.0339 N   0  0  0  0  0  0  0  0  0  0  0  0
   17.3830  -16.9650   24.1626 C   0  0  0  0  0  0  0  0  0  0  0  0
   16.7177  -18.1926   23.9084 N   0  0  0  0  0  0  0  0  0  0  0  0
   17.3781  -19.2745   23.5815 N   0  0  0  0  0  0  0  0  0  0  0  0
   15.3080  -18.3262   23.9889 C   0  0  0  0  0  0  0  0  0  0  0  0
   14.4539  -17.2149   24.2016 C   0  0  0  0  0  0  0  0  0  0  0  0
   12.9938  -17.5734   24.4091 C   0  0  0  0  0  0  0  0  0  0  0  0
   12.1176  -16.3800   24.4966 C   0  0  2  0  0  0  0  0  0  0  0  0
   10.6669  -16.7764   24.4677 N   0  0  0  0  0  0  0  0  0  0  0  0
    9.9048  -15.8488   23.6185 C   0  0  0  0  0  0  0  0  0  0  0  0
    9.9995  -16.8293   25.7714 O   0  0  0  0  0  0  0  0  0  0  0  0
   10.1095  -17.9315   26.5983 O   0  0  0  0  0  0  0  0  0  0  0  0
  1  2  1  0
  2  4  1  0
  3  2  2  0
  4  5  1  0
  6  7  1  0
  6  5  1  0
  7  8  1  0
  8  9  1  6
 10 12  1  0
 10  8  1  0
 11 10  2  0
 13 12  1  0
 13 20  1  0
 13 14  1  6
 15 14  1  0
 16 15  2  0
 17 16  1  0
 18 17  1  0
 18 19  2  0
 19 15  1  0
 20 21  2  0
 22 23  1  0
 23 25  1  0
 23 24  2  0
 25 26  1  0
 27 26  1  0
 27 28  1  0
 29 28  1  6
 29 31  1  0
 30 20  1  0
 30 29  1  0
 31 32  1  0
 33 31  2  0
M  END
$$$$
