RHR.pdb
     RDKit          3D

 33 33  0  0  1  0  0  0  0  0999 V2000
    9.0045  -14.3086   14.7002 N   0  0  0  0  0  0  0  0  0  0  0  0
    7.7534  -13.8237   14.2486 C   0  0  0  0  0  0  0  0  0  0  0  0
    7.2471  -14.1435   13.0884 N   0  0  0  0  0  0  0  0  0  0  0  0
    6.9662  -12.9411   15.0539 N   0  0  0  0  0  0  0  0  0  0  0  0
    7.4125  -12.6185   16.4116 C   0  0  0  0  0  0  0  0  0  0  0  0
    7.7234  -13.8563   17.1945 C   0  0  0  0  0  0  0  0  0  0  0  0
    8.0519  -13.5859   18.6386 C   0  0  0  0  0  0  0  0  0  0  0  0
    9.2075  -14.3886   19.1398 C   0  0  2  0  0  0  0  0  0  0  0  0
    9.3946  -15.5543   18.3367 N   0  0  0  0  0  0  0  0  0  0  0  0
    9.1185  -14.6418   20.5890 C   0  0  0  0  0  0  0  0  0  0  0  0
    9.0370  -13.5921   21.3187 O   0  0  0  0  0  0  0  0  0  0  0  0
    6.2910  -13.7785   12.8807 N   0  0  0  0  0  0  0  0  0  0  0  0
    9.1220  -15.9352   21.1354 C   0  0  1  0  0  0  0  0  0  0  0  0
    9.1785  -16.0913   22.5737 C   0  0  0  0  0  0  0  0  0  0  0  0
    8.3490  -17.3094   22.8997 C   0  0  0  0  0  0  0  0  0  0  0  0
    6.9800  -17.1665   22.3705 C   0  0  0  0  0  0  0  0  0  0  0  0
    6.4668  -16.0521   21.7096 N   0  0  0  0  0  0  0  0  0  0  0  0
    5.1883  -16.3273   21.4023 C   0  0  0  0  0  0  0  0  0  0  0  0
    4.8632  -17.5574   21.8333 N   0  0  0  0  0  0  0  0  0  0  0  0
    5.9686  -18.0700   22.4285 C   0  0  0  0  0  0  0  0  0  0  0  0
   10.5462  -16.2542   23.0707 O   0  0  0  0  0  0  0  0  0  0  0  0
   11.4995  -16.4594   22.2468 N   0  0  0  0  0  0  0  0  0  0  0  0
    6.9263  -20.9673   27.3135 C   0  0  0  0  0  0  0  0  0  0  0  0
    7.5242  -20.1597   28.3157 N   0  0  0  0  0  0  0  0  0  0  0  0
    6.9320  -19.9408   29.4624 N   0  0  0  0  0  0  0  0  0  0  0  0
    8.7889  -19.5414   28.1421 C   0  0  0  0  0  0  0  0  0  0  0  0
    9.5008  -19.6063   26.9178 C   0  0  0  0  0  0  0  0  0  0  0  0
   10.3086  -18.3633   26.5925 C   0  0  0  0  0  0  0  0  0  0  0  0
   11.0479  -18.4794   25.3121 C   0  0  2  0  0  0  0  0  0  0  0  0
   11.8253  -17.2239   25.0258 N   0  0  0  0  0  0  0  0  0  0  0  0
   10.9449  -16.2069   24.4316 C   0  0  0  0  0  0  0  0  0  0  0  0
   12.9782  -17.3829   24.1351 O   0  0  0  0  0  0  0  0  0  0  0  0
   12.8963  -18.1178   22.9672 O   0  0  0  0  0  0  0  0  0  0  0  0
  1  2  1  0
  2  4  1  0
  3  2  2  0
  4  5  1  0
  6  7  1  0
  6  5  1  0
  7  8  1  0
  8  9  1  6
 10 12  1  0
 10  8  1  0
 11 10  2  0
 13 12  1  0
 13 20  1  0
 13 14  1  1
 15 14  1  0
 16 15  2  0
 17 16  1  0
 18 17  1  0
 18 19  2  0
 19 15  1  0
 20 21  2  0
 22 23  1  0
 23 25  1  0
 23 24  2  0
 25 26  1  0
 27 26  1  0
 27 28  1  0
 29 28  1  1
 29 31  1  0
 30 20  1  0
 30 29  1  0
 31 32  1  0
 33 31  2  0
M  END
$$$$
