RHR.pdb
     RDKit          3D

 33 33  0  0  1  0  0  0  0  0999 V2000
   10.5083  -24.9986   18.2203 N   0  0  0  0  0  0  0  0  0  0  0  0
   11.3134  -23.8367   18.2990 C   0  0  0  0  0  0  0  0  0  0  0  0
   11.6464  -23.1337   17.2505 N   0  0  0  0  0  0  0  0  0  0  0  0
   11.8140  -23.3656   19.5539 N   0  0  0  0  0  0  0  0  0  0  0  0
   12.6276  -24.2586   20.3829 C   0  0  0  0  0  0  0  0  0  0  0  0
   13.0420  -23.5947   21.6592 C   0  0  0  0  0  0  0  0  0  0  0  0
   13.8063  -24.5018   22.5864 C   0  0  0  0  0  0  0  0  0  0  0  0
   13.3248  -24.4407   23.9990 C   0  0  2  0  0  0  0  0  0  0  0  0
   11.8983  -24.4833   24.0452 N   0  0  0  0  0  0  0  0  0  0  0  0
   13.9363  -23.3259   24.7444 C   0  0  0  0  0  0  0  0  0  0  0  0
   15.2053  -23.4090   24.8995 O   0  0  0  0  0  0  0  0  0  0  0  0
   12.2023  -22.2677   17.4274 N   0  0  0  0  0  0  0  0  0  0  0  0
   13.1891  -22.2497   25.2493 C   0  0  1  0  0  0  0  0  0  0  0  0
   13.8696  -21.2034   25.9830 C   0  0  0  0  0  0  0  0  0  0  0  0
   13.3771  -19.8965   25.4104 C   0  0  0  0  0  0  0  0  0  0  0  0
   14.0492  -19.5997   24.1318 C   0  0  0  0  0  0  0  0  0  0  0  0
   15.3402  -19.9836   23.7737 N   0  0  0  0  0  0  0  0  0  0  0  0
   15.5666  -19.5084   22.5378 C   0  0  0  0  0  0  0  0  0  0  0  0
   14.4877  -18.8433   22.0928 N   0  0  0  0  0  0  0  0  0  0  0  0
   13.5566  -18.9019   23.0769 C   0  0  0  0  0  0  0  0  0  0  0  0
   13.6098  -21.2628   27.4228 O   0  0  0  0  0  0  0  0  0  0  0  0
   14.1159  -20.3810   28.1948 N   0  0  0  0  0  0  0  0  0  0  0  0
   17.6251  -23.6426   33.9511 C   0  0  0  0  0  0  0  0  0  0  0  0
   16.3061  -23.6380   34.4748 N   0  0  0  0  0  0  0  0  0  0  0  0
   16.0604  -23.9775   35.7149 N   0  0  0  0  0  0  0  0  0  0  0  0
   15.1785  -23.2711   33.6965 C   0  0  0  0  0  0  0  0  0  0  0  0
   15.2029  -23.2793   32.2790 C   0  0  0  0  0  0  0  0  0  0  0  0
   13.8925  -22.8821   31.6245 C   0  0  0  0  0  0  0  0  0  0  0  0
   13.9862  -22.8209   30.1456 C   0  0  1  0  0  0  0  0  0  0  0  0
   12.7089  -22.2969   29.5484 N   0  0  0  0  0  0  0  0  0  0  0  0
   12.8206  -22.2396   28.0832 C   0  0  0  0  0  0  0  0  0  0  0  0
   12.2922  -20.9700   30.0105 O   0  0  0  0  0  0  0  0  0  0  0  0
   11.1229  -20.7847   30.7240 O   0  0  0  0  0  0  0  0  0  0  0  0
  1  2  1  0
  2  4  1  0
  3  2  2  0
  4  5  1  0
  6  7  1  0
  6  5  1  0
  7  8  1  0
  8  9  1  6
 10 12  1  0
 10  8  1  0
 11 10  2  0
 13 12  1  0
 13 20  1  0
 13 14  1  6
 15 14  1  0
 16 15  2  0
 17 16  1  0
 18 17  1  0
 18 19  2  0
 19 15  1  0
 20 21  2  0
 22 23  1  0
 23 25  1  0
 23 24  2  0
 25 26  1  0
 27 26  1  0
 27 28  1  0
 29 28  1  6
 29 31  1  0
 30 20  1  0
 30 29  1  0
 31 32  1  0
 33 31  2  0
M  END
$$$$
