RHR.pdb
     RDKit          3D

 33 33  0  0  1  0  0  0  0  0999 V2000
    9.7845  -13.9383   12.0967 N   0  0  0  0  0  0  0  0  0  0  0  0
    9.7226  -15.0007   13.0304 C   0  0  0  0  0  0  0  0  0  0  0  0
   10.3065  -16.1517   12.8330 N   0  0  0  0  0  0  0  0  0  0  0  0
    9.0026  -14.8661   14.2596 N   0  0  0  0  0  0  0  0  0  0  0  0
    8.8761  -16.0245   15.1476 C   0  0  0  0  0  0  0  0  0  0  0  0
   10.2148  -16.6003   15.4908 C   0  0  0  0  0  0  0  0  0  0  0  0
   10.7419  -16.1399   16.8237 C   0  0  0  0  0  0  0  0  0  0  0  0
   10.4164  -17.0765   17.9408 C   0  0  2  0  0  0  0  0  0  0  0  0
    9.5048  -18.0839   17.5016 N   0  0  0  0  0  0  0  0  0  0  0  0
   10.0075  -16.3602   19.1623 C   0  0  0  0  0  0  0  0  0  0  0  0
   10.8950  -15.5788   19.6552 O   0  0  0  0  0  0  0  0  0  0  0  0
   10.2733  -16.8327   13.6239 N   0  0  0  0  0  0  0  0  0  0  0  0
    8.7407  -16.5180   19.7470 C   0  0  1  0  0  0  0  0  0  0  0  0
    8.4264  -15.7828   20.9539 C   0  0  0  0  0  0  0  0  0  0  0  0
    7.0715  -15.1572   20.7271 C   0  0  0  0  0  0  0  0  0  0  0  0
    7.1402  -14.1304   19.6709 C   0  0  0  0  0  0  0  0  0  0  0  0
    7.4266  -12.7791   19.8559 N   0  0  0  0  0  0  0  0  0  0  0  0
    7.3821  -12.1953   18.6468 C   0  0  0  0  0  0  0  0  0  0  0  0
    7.0825  -13.1046   17.7045 N   0  0  0  0  0  0  0  0  0  0  0  0
    6.9345  -14.2938   18.3391 C   0  0  0  0  0  0  0  0  0  0  0  0
    8.4049  -16.6348   22.1446 O   0  0  0  0  0  0  0  0  0  0  0  0
    7.5764  -17.6035   22.2158 N   0  0  0  0  0  0  0  0  0  0  0  0
   12.5506  -14.8612   27.9935 C   0  0  0  0  0  0  0  0  0  0  0  0
   11.3858  -14.9443   28.8000 N   0  0  0  0  0  0  0  0  0  0  0  0
   11.0649  -13.9928   29.6397 N   0  0  0  0  0  0  0  0  0  0  0  0
   10.5028  -16.0533   28.7514 C   0  0  0  0  0  0  0  0  0  0  0  0
   10.7512  -17.1825   27.9310 C   0  0  0  0  0  0  0  0  0  0  0  0
    9.6849  -17.4469   26.8839 C   0  0  0  0  0  0  0  0  0  0  0  0
    9.9869  -16.8021   25.5830 C   0  0  1  0  0  0  0  0  0  0  0  0
    8.9972  -17.2249   24.5321 N   0  0  0  0  0  0  0  0  0  0  0  0
    9.2436  -16.4935   23.2804 C   0  0  0  0  0  0  0  0  0  0  0  0
    7.5860  -17.0383   24.8806 O   0  0  0  0  0  0  0  0  0  0  0  0
    6.8775  -15.9263   24.4658 O   0  0  0  0  0  0  0  0  0  0  0  0
  1  2  1  0
  2  4  1  0
  3  2  2  0
  4  5  1  0
  6  7  1  0
  6  5  1  0
  7  8  1  0
  8  9  1  6
 10 12  1  0
 10  8  1  0
 11 10  2  0
 13 12  1  0
 13 20  1  0
 13 14  1  1
 15 14  1  0
 16 15  2  0
 17 16  1  0
 18 17  1  0
 18 19  2  0
 19 15  1  0
 20 21  2  0
 22 23  1  0
 23 25  1  0
 23 24  2  0
 25 26  1  0
 27 26  1  0
 27 28  1  0
 29 28  1  6
 29 31  1  0
 30 20  1  0
 30 29  1  0
 31 32  1  0
 33 31  2  0
M  END
$$$$
