RHR.pdb
     RDKit          3D

 33 33  0  0  1  0  0  0  0  0999 V2000
    8.4966  -13.2726   14.7984 N   0  0  0  0  0  0  0  0  0  0  0  0
    7.3500  -14.0459   15.1009 C   0  0  0  0  0  0  0  0  0  0  0  0
    6.9242  -15.0115   14.3321 N   0  0  0  0  0  0  0  0  0  0  0  0
    6.5839  -13.8037   16.2849 N   0  0  0  0  0  0  0  0  0  0  0  0
    7.1037  -12.8843   17.3003 C   0  0  0  0  0  0  0  0  0  0  0  0
    8.5058  -13.2355   17.6908 C   0  0  0  0  0  0  0  0  0  0  0  0
    8.5890  -14.3912   18.6520 C   0  0  0  0  0  0  0  0  0  0  0  0
    9.9598  -14.5964   19.2087 C   0  0  2  0  0  0  0  0  0  0  0  0
   10.9015  -14.8111   18.1571 N   0  0  0  0  0  0  0  0  0  0  0  0
    9.9777  -15.6142   20.2746 C   0  0  0  0  0  0  0  0  0  0  0  0
    9.2092  -15.3702   21.2701 O   0  0  0  0  0  0  0  0  0  0  0  0
    6.0497  -15.4961   14.6337 N   0  0  0  0  0  0  0  0  0  0  0  0
   10.7754  -16.7678   20.2095 C   0  0  1  0  0  0  0  0  0  0  0  0
   10.7447  -17.7075   21.3104 C   0  0  0  0  0  0  0  0  0  0  0  0
   11.4991  -18.9292   20.8447 C   0  0  0  0  0  0  0  0  0  0  0  0
   10.6239  -19.8138   20.0534 C   0  0  0  0  0  0  0  0  0  0  0  0
    9.2696  -19.6116   19.7940 N   0  0  0  0  0  0  0  0  0  0  0  0
    8.8500  -20.6471   19.0481 C   0  0  0  0  0  0  0  0  0  0  0  0
    9.8663  -21.4955   18.8205 N   0  0  0  0  0  0  0  0  0  0  0  0
   10.9558  -20.9788   19.4410 C   0  0  0  0  0  0  0  0  0  0  0  0
   11.3469  -17.1672   22.5309 O   0  0  0  0  0  0  0  0  0  0  0  0
   12.4832  -16.5882   22.4740 N   0  0  0  0  0  0  0  0  0  0  0  0
    9.9884  -16.4482   30.9635 C   0  0  0  0  0  0  0  0  0  0  0  0
   10.3069  -15.0876   30.7159 N   0  0  0  0  0  0  0  0  0  0  0  0
   10.2900  -14.1951   31.6734 N   0  0  0  0  0  0  0  0  0  0  0  0
   10.6587  -14.6095   29.4277 C   0  0  0  0  0  0  0  0  0  0  0  0
   10.0745  -15.1259   28.2438 C   0  0  0  0  0  0  0  0  0  0  0  0
   11.0724  -15.6246   27.2149 C   0  0  0  0  0  0  0  0  0  0  0  0
   10.4204  -16.1338   25.9840 C   0  0  1  0  0  0  0  0  0  0  0  0
   11.4443  -16.6324   25.0015 N   0  0  0  0  0  0  0  0  0  0  0  0
   10.7781  -17.2205   23.8297 C   0  0  0  0  0  0  0  0  0  0  0  0
   12.3851  -17.6295   25.5196 O   0  0  0  0  0  0  0  0  0  0  0  0
   13.5748  -17.2612   26.1194 O   0  0  0  0  0  0  0  0  0  0  0  0
  1  2  1  0
  2  4  1  0
  3  2  2  0
  4  5  1  0
  6  7  1  0
  6  5  1  0
  7  8  1  0
  8  9  1  6
 10 12  1  0
 10  8  1  0
 11 10  2  0
 13 12  1  0
 13 20  1  0
 13 14  1  1
 15 14  1  0
 16 15  2  0
 17 16  1  0
 18 17  1  0
 18 19  2  0
 19 15  1  0
 20 21  2  0
 22 23  1  0
 23 25  1  0
 23 24  2  0
 25 26  1  0
 27 26  1  0
 27 28  1  0
 29 28  1  6
 29 31  1  0
 30 20  1  0
 30 29  1  0
 31 32  1  0
 33 31  2  0
M  END
$$$$
