RHR.pdb
     RDKit          3D

 33 33  0  0  1  0  0  0  0  0999 V2000
   12.7037  -13.1448   11.6418 N   0  0  0  0  0  0  0  0  0  0  0  0
   11.4644  -13.5273   11.0741 C   0  0  0  0  0  0  0  0  0  0  0  0
   10.6603  -12.6790   10.4923 N   0  0  0  0  0  0  0  0  0  0  0  0
   11.0206  -14.8870   11.1108 N   0  0  0  0  0  0  0  0  0  0  0  0
   11.7922  -15.8735   11.8712 C   0  0  0  0  0  0  0  0  0  0  0  0
   11.0066  -16.4104   13.0271 C   0  0  0  0  0  0  0  0  0  0  0  0
   11.7821  -17.3769   13.8820 C   0  0  0  0  0  0  0  0  0  0  0  0
   10.9517  -18.0219   14.9429 C   0  0  2  0  0  0  0  0  0  0  0  0
    9.7390  -18.5334   14.3891 N   0  0  0  0  0  0  0  0  0  0  0  0
   10.7771  -17.1479   16.1168 C   0  0  0  0  0  0  0  0  0  0  0  0
   11.8633  -16.8012   16.7008 O   0  0  0  0  0  0  0  0  0  0  0  0
    9.7821  -13.0724   10.0868 N   0  0  0  0  0  0  0  0  0  0  0  0
    9.5165  -16.7232   16.5665 C   0  0  1  0  0  0  0  0  0  0  0  0
    9.4357  -15.8798   17.7404 C   0  0  0  0  0  0  0  0  0  0  0  0
    8.0198  -15.3593   17.7904 C   0  0  0  0  0  0  0  0  0  0  0  0
    7.8504  -14.4118   18.9076 C   0  0  0  0  0  0  0  0  0  0  0  0
    8.8048  -14.1033   19.8752 N   0  0  0  0  0  0  0  0  0  0  0  0
    8.2496  -13.2075   20.7083 C   0  0  0  0  0  0  0  0  0  0  0  0
    6.9935  -12.9313   20.3204 N   0  0  0  0  0  0  0  0  0  0  0  0
    6.7521  -13.6746   19.2122 C   0  0  0  0  0  0  0  0  0  0  0  0
    9.7624  -16.5971   18.9745 O   0  0  0  0  0  0  0  0  0  0  0  0
    9.6894  -17.8712   19.0051 N   0  0  0  0  0  0  0  0  0  0  0  0
   16.2233  -20.0121   22.7449 C   0  0  0  0  0  0  0  0  0  0  0  0
   15.1129  -20.4006   23.5388 N   0  0  0  0  0  0  0  0  0  0  0  0
   15.2140  -21.3400   24.4448 N   0  0  0  0  0  0  0  0  0  0  0  0
   13.8331  -19.8044   23.4028 C   0  0  0  0  0  0  0  0  0  0  0  0
   13.5155  -18.9312   22.3320 C   0  0  0  0  0  0  0  0  0  0  0  0
   12.1072  -18.3671   22.3761 C   0  0  0  0  0  0  0  0  0  0  0  0
   11.7889  -17.5280   21.1954 C   0  0  2  0  0  0  0  0  0  0  0  0
   10.4868  -16.8004   21.3897 N   0  0  0  0  0  0  0  0  0  0  0  0
   10.1696  -16.0017   20.1964 C   0  0  0  0  0  0  0  0  0  0  0  0
   10.4298  -15.9039   22.5476 O   0  0  0  0  0  0  0  0  0  0  0  0
   10.1996  -16.3817   23.8241 O   0  0  0  0  0  0  0  0  0  0  0  0
  1  2  1  0
  2  4  1  0
  3  2  2  0
  4  5  1  0
  6  7  1  0
  6  5  1  0
  7  8  1  0
  8  9  1  6
 10 12  1  0
 10  8  1  0
 11 10  2  0
 13 12  1  0
 13 20  1  0
 13 14  1  1
 15 14  1  0
 16 15  2  0
 17 16  1  0
 18 17  1  0
 18 19  2  0
 19 15  1  0
 20 21  2  0
 22 23  1  0
 23 25  1  0
 23 24  2  0
 25 26  1  0
 27 26  1  0
 27 28  1  0
 29 28  1  6
 29 31  1  0
 30 20  1  0
 30 29  1  0
 31 32  1  0
 33 31  2  0
M  END
$$$$
