RHR.pdb
     RDKit          3D

 33 33  0  0  1  0  0  0  0  0999 V2000
   17.1519  -19.4476   12.8328 N   0  0  0  0  0  0  0  0  0  0  0  0
   17.1112  -18.6443   13.9978 C   0  0  0  0  0  0  0  0  0  0  0  0
   17.9265  -18.8137   15.0034 N   0  0  0  0  0  0  0  0  0  0  0  0
   16.1566  -17.5875   14.1365 N   0  0  0  0  0  0  0  0  0  0  0  0
   15.1396  -17.3985   13.0989 C   0  0  0  0  0  0  0  0  0  0  0  0
   13.8297  -18.0029   13.4993 C   0  0  0  0  0  0  0  0  0  0  0  0
   13.2469  -17.3978   14.7486 C   0  0  0  0  0  0  0  0  0  0  0  0
   11.7865  -17.1056   14.6353 C   0  0  2  0  0  0  0  0  0  0  0  0
   11.4375  -16.8096   13.2827 N   0  0  0  0  0  0  0  0  0  0  0  0
   11.3440  -16.1052   15.6230 C   0  0  0  0  0  0  0  0  0  0  0  0
   11.5651  -14.8863   15.2965 O   0  0  0  0  0  0  0  0  0  0  0  0
   17.7914  -18.1826   15.8243 N   0  0  0  0  0  0  0  0  0  0  0  0
   10.7251  -16.4557   16.8337 C   0  0  2  0  0  0  0  0  0  0  0  0
   10.2911  -15.4063   17.7317 C   0  0  0  0  0  0  0  0  0  0  0  0
    8.8375  -15.6808   18.0317 C   0  0  0  0  0  0  0  0  0  0  0  0
    8.3068  -14.6953   18.9918 C   0  0  0  0  0  0  0  0  0  0  0  0
    8.3424  -13.3092   18.8507 N   0  0  0  0  0  0  0  0  0  0  0  0
    7.7634  -12.7845   19.9434 C   0  0  0  0  0  0  0  0  0  0  0  0
    7.3624  -13.7642   20.7703 N   0  0  0  0  0  0  0  0  0  0  0  0
    7.6988  -14.9381   20.1808 C   0  0  0  0  0  0  0  0  0  0  0  0
   11.0714  -15.3644   18.9701 O   0  0  0  0  0  0  0  0  0  0  0  0
   12.1462  -16.0466   19.0651 N   0  0  0  0  0  0  0  0  0  0  0  0
   10.1569  -20.8187   23.0013 C   0  0  0  0  0  0  0  0  0  0  0  0
   10.3966  -19.9736   24.1160 N   0  0  0  0  0  0  0  0  0  0  0  0
   11.0158  -20.4082   25.1843 N   0  0  0  0  0  0  0  0  0  0  0  0
    9.9835  -18.6171   24.1465 C   0  0  0  0  0  0  0  0  0  0  0  0
    9.8855  -17.8296   22.9718 C   0  0  0  0  0  0  0  0  0  0  0  0
    9.5546  -16.3692   23.2184 C   0  0  0  0  0  0  0  0  0  0  0  0
    9.4648  -15.5823   21.9644 C   0  0  1  0  0  0  0  0  0  0  0  0
   10.8327  -15.1841   21.4820 N   0  0  0  0  0  0  0  0  0  0  0  0
   10.7469  -14.6134   20.1294 C   0  0  0  0  0  0  0  0  0  0  0  0
   11.8279  -16.2593   21.4439 O   0  0  0  0  0  0  0  0  0  0  0  0
   13.0451  -16.1440   22.0889 O   0  0  0  0  0  0  0  0  0  0  0  0
  1  2  1  0
  2  4  1  0
  3  2  2  0
  4  5  1  0
  6  7  1  0
  6  5  1  0
  7  8  1  0
  8  9  1  6
 10 12  1  0
 10  8  1  0
 11 10  2  0
 13 12  1  0
 13 20  1  0
 13 14  1  1
 15 14  1  0
 16 15  2  0
 17 16  1  0
 18 17  1  0
 18 19  2  0
 19 15  1  0
 20 21  2  0
 22 23  1  0
 23 25  1  0
 23 24  2  0
 25 26  1  0
 27 26  1  0
 27 28  1  0
 29 28  1  1
 29 31  1  0
 30 20  1  0
 30 29  1  0
 31 32  1  0
 33 31  2  0
M  END
$$$$
