RHR.pdb
     RDKit          3D

 33 33  0  0  1  0  0  0  0  0999 V2000
   10.0147  -15.6199   13.2192 N   0  0  0  0  0  0  0  0  0  0  0  0
    9.1465  -15.1338   14.2263 C   0  0  0  0  0  0  0  0  0  0  0  0
    8.0127  -14.5439   13.9595 N   0  0  0  0  0  0  0  0  0  0  0  0
    9.4734  -15.2647   15.6132 N   0  0  0  0  0  0  0  0  0  0  0  0
    8.4327  -15.6726   16.5603 C   0  0  0  0  0  0  0  0  0  0  0  0
    8.5455  -17.1250   16.9058 C   0  0  0  0  0  0  0  0  0  0  0  0
    9.9260  -17.5308   17.3486 C   0  0  0  0  0  0  0  0  0  0  0  0
    9.9374  -18.2442   18.6608 C   0  0  2  0  0  0  0  0  0  0  0  0
    8.8535  -19.1704   18.7379 N   0  0  0  0  0  0  0  0  0  0  0  0
   10.0378  -17.3110   19.7972 C   0  0  0  0  0  0  0  0  0  0  0  0
   11.1443  -16.6703   19.8765 O   0  0  0  0  0  0  0  0  0  0  0  0
    7.3771  -14.3680   14.7691 N   0  0  0  0  0  0  0  0  0  0  0  0
    9.0010  -17.1328   20.7272 C   0  0  1  0  0  0  0  0  0  0  0  0
    9.1967  -16.2185   21.8325 C   0  0  0  0  0  0  0  0  0  0  0  0
    7.9361  -15.3938   21.9275 C   0  0  0  0  0  0  0  0  0  0  0  0
    7.8761  -14.4033   20.8367 C   0  0  0  0  0  0  0  0  0  0  0  0
    8.8484  -14.1970   19.8597 N   0  0  0  0  0  0  0  0  0  0  0  0
    8.4101  -13.2045   19.0676 C   0  0  0  0  0  0  0  0  0  0  0  0
    7.2114  -12.7701   19.4902 N   0  0  0  0  0  0  0  0  0  0  0  0
    6.8867  -13.5104   20.5790 C   0  0  0  0  0  0  0  0  0  0  0  0
    9.4542  -16.9093   23.0978 O   0  0  0  0  0  0  0  0  0  0  0  0
    8.7200  -17.8952   23.4422 N   0  0  0  0  0  0  0  0  0  0  0  0
   15.3379  -22.0481   22.5859 C   0  0  0  0  0  0  0  0  0  0  0  0
   14.1016  -22.5808   23.0355 N   0  0  0  0  0  0  0  0  0  0  0  0
   13.8146  -23.8510   22.9027 N   0  0  0  0  0  0  0  0  0  0  0  0
   13.1053  -21.7801   23.6501 C   0  0  0  0  0  0  0  0  0  0  0  0
   13.2512  -20.3786   23.8062 C   0  0  0  0  0  0  0  0  0  0  0  0
   12.0329  -19.6787   24.3801 C   0  0  0  0  0  0  0  0  0  0  0  0
   12.2256  -18.2148   24.5190 C   0  0  2  0  0  0  0  0  0  0  0  0
   10.9701  -17.5534   25.0177 N   0  0  0  0  0  0  0  0  0  0  0  0
   10.4781  -16.5861   24.0253 C   0  0  0  0  0  0  0  0  0  0  0  0
   11.0916  -16.8486   26.2969 O   0  0  0  0  0  0  0  0  0  0  0  0
   11.4419  -17.5101   27.4590 O   0  0  0  0  0  0  0  0  0  0  0  0
  1  2  1  0
  2  4  1  0
  3  2  2  0
  4  5  1  0
  6  7  1  0
  6  5  1  0
  7  8  1  0
  8  9  1  1
 10 12  1  0
 10  8  1  0
 11 10  2  0
 13 12  1  0
 13 20  1  0
 13 14  1  6
 15 14  1  0
 16 15  2  0
 17 16  1  0
 18 17  1  0
 18 19  2  0
 19 15  1  0
 20 21  2  0
 22 23  1  0
 23 25  1  0
 23 24  2  0
 25 26  1  0
 27 26  1  0
 27 28  1  0
 29 28  1  6
 29 31  1  0
 30 20  1  0
 30 29  1  0
 31 32  1  0
 33 31  2  0
M  END
$$$$
