RHR.pdb
     RDKit          3D

 33 33  0  0  1  0  0  0  0  0999 V2000
   15.8984  -12.2922   16.6201 N   0  0  0  0  0  0  0  0  0  0  0  0
   16.4812  -13.5126   17.0388 C   0  0  0  0  0  0  0  0  0  0  0  0
   17.6862  -13.8772   16.6927 N   0  0  0  0  0  0  0  0  0  0  0  0
   15.7665  -14.4263   17.8764 N   0  0  0  0  0  0  0  0  0  0  0  0
   14.3898  -14.7896   17.5310 C   0  0  0  0  0  0  0  0  0  0  0  0
   13.7911  -15.7030   18.5552 C   0  0  0  0  0  0  0  0  0  0  0  0
   12.3921  -16.1462   18.2189 C   0  0  0  0  0  0  0  0  0  0  0  0
   11.8030  -17.0619   19.2414 C   0  0  2  0  0  0  0  0  0  0  0  0
   10.8993  -17.9825   18.6293 N   0  0  0  0  0  0  0  0  0  0  0  0
   11.2521  -16.3248   20.3926 C   0  0  0  0  0  0  0  0  0  0  0  0
   12.1213  -15.7297   21.1216 O   0  0  0  0  0  0  0  0  0  0  0  0
   18.0329  -14.7780   17.0911 N   0  0  0  0  0  0  0  0  0  0  0  0
    9.8775  -16.2745   20.6747 C   0  0  1  0  0  0  0  0  0  0  0  0
    9.4288  -15.5893   21.8686 C   0  0  0  0  0  0  0  0  0  0  0  0
    8.0813  -14.9966   21.5348 C   0  0  0  0  0  0  0  0  0  0  0  0
    8.1727  -14.1259   20.3482 C   0  0  0  0  0  0  0  0  0  0  0  0
    8.4588  -12.7620   20.3500 N   0  0  0  0  0  0  0  0  0  0  0  0
    8.4389  -12.3511   19.0711 C   0  0  0  0  0  0  0  0  0  0  0  0
    8.1553  -13.3821   18.2581 N   0  0  0  0  0  0  0  0  0  0  0  0
    7.9922  -14.4721   19.0481 C   0  0  0  0  0  0  0  0  0  0  0  0
    9.3247  -16.4806   23.0257 O   0  0  0  0  0  0  0  0  0  0  0  0
    8.6363  -17.5523   22.9399 N   0  0  0  0  0  0  0  0  0  0  0  0
   14.5001  -19.7040   29.4276 C   0  0  0  0  0  0  0  0  0  0  0  0
   13.1671  -20.0445   29.7760 N   0  0  0  0  0  0  0  0  0  0  0  0
   12.9069  -20.9360   30.6986 N   0  0  0  0  0  0  0  0  0  0  0  0
   12.0408  -19.4491   29.1527 C   0  0  0  0  0  0  0  0  0  0  0  0
   12.1648  -18.5691   28.0481 C   0  0  0  0  0  0  0  0  0  0  0  0
   10.8661  -18.2957   27.3119 C   0  0  0  0  0  0  0  0  0  0  0  0
   11.0522  -17.4248   26.1260 C   0  0  1  0  0  0  0  0  0  0  0  0
    9.7465  -17.2033   25.4129 N   0  0  0  0  0  0  0  0  0  0  0  0
    9.9336  -16.2722   24.2902 C   0  0  0  0  0  0  0  0  0  0  0  0
    8.6546  -16.6820   26.2399 O   0  0  0  0  0  0  0  0  0  0  0  0
    8.0898  -15.4436   25.9987 O   0  0  0  0  0  0  0  0  0  0  0  0
  1  2  1  0
  2  4  1  0
  3  2  2  0
  4  5  1  0
  6  7  1  0
  6  5  1  0
  7  8  1  0
  8  9  1  6
 10 12  1  0
 10  8  1  0
 11 10  2  0
 13 12  1  0
 13 20  1  0
 13 14  1  1
 15 14  1  0
 16 15  2  0
 17 16  1  0
 18 17  1  0
 18 19  2  0
 19 15  1  0
 20 21  2  0
 22 23  1  0
 23 25  1  0
 23 24  2  0
 25 26  1  0
 27 26  1  0
 27 28  1  0
 29 28  1  6
 29 31  1  0
 30 20  1  0
 30 29  1  0
 31 32  1  0
 33 31  2  0
M  END
$$$$
