RHR.pdb
     RDKit          3D

 33 33  0  0  1  0  0  0  0  0999 V2000
    9.7833  -14.1093   13.4030 N   0  0  0  0  0  0  0  0  0  0  0  0
    8.7237  -13.2467   13.7738 C   0  0  0  0  0  0  0  0  0  0  0  0
    8.5737  -12.0519   13.2692 N   0  0  0  0  0  0  0  0  0  0  0  0
    7.7460  -13.6463   14.7391 N   0  0  0  0  0  0  0  0  0  0  0  0
    7.8129  -14.9926   15.3132 C   0  0  0  0  0  0  0  0  0  0  0  0
    7.9936  -14.9461   16.7988 C   0  0  0  0  0  0  0  0  0  0  0  0
    9.3358  -15.4521   17.2558 C   0  0  0  0  0  0  0  0  0  0  0  0
    9.2431  -16.4462   18.3667 C   0  0  2  0  0  0  0  0  0  0  0  0
    8.1594  -17.3487   18.1433 N   0  0  0  0  0  0  0  0  0  0  0  0
    9.2481  -15.7987   19.6907 C   0  0  0  0  0  0  0  0  0  0  0  0
   10.3568  -15.2486   20.0210 O   0  0  0  0  0  0  0  0  0  0  0  0
    7.7425  -11.5098   13.5941 N   0  0  0  0  0  0  0  0  0  0  0  0
    8.1241  -15.7824   20.5322 C   0  0  1  0  0  0  0  0  0  0  0  0
    8.2495  -15.2264   21.8630 C   0  0  0  0  0  0  0  0  0  0  0  0
    6.8784  -14.7208   22.2409 C   0  0  0  0  0  0  0  0  0  0  0  0
    6.8908  -14.1397   23.5962 C   0  0  0  0  0  0  0  0  0  0  0  0
    7.2779  -12.8434   23.9309 N   0  0  0  0  0  0  0  0  0  0  0  0
    7.1483  -12.7224   25.2625 C   0  0  0  0  0  0  0  0  0  0  0  0
    6.6996  -13.8732   25.7904 N   0  0  0  0  0  0  0  0  0  0  0  0
    6.5427  -14.7425   24.7615 C   0  0  0  0  0  0  0  0  0  0  0  0
    8.7225  -16.2069   22.8423 O   0  0  0  0  0  0  0  0  0  0  0  0
    8.2702  -17.4003   22.8132 N   0  0  0  0  0  0  0  0  0  0  0  0
   16.6157  -19.2985   24.9547 C   0  0  0  0  0  0  0  0  0  0  0  0
   15.5830  -20.2047   25.3104 N   0  0  0  0  0  0  0  0  0  0  0  0
   15.8210  -21.4800   25.4845 N   0  0  0  0  0  0  0  0  0  0  0  0
   14.2386  -19.7928   25.4968 C   0  0  0  0  0  0  0  0  0  0  0  0
   13.6658  -18.7248   24.7612 C   0  0  0  0  0  0  0  0  0  0  0  0
   12.2352  -18.3927   25.1438 C   0  0  0  0  0  0  0  0  0  0  0  0
   11.6607  -17.3010   24.3207 C   0  0  2  0  0  0  0  0  0  0  0  0
   10.2269  -17.0441   24.6957 N   0  0  0  0  0  0  0  0  0  0  0  0
    9.6724  -15.9627   23.8677 C   0  0  0  0  0  0  0  0  0  0  0  0
    9.9938  -16.6884   26.0982 O   0  0  0  0  0  0  0  0  0  0  0  0
    9.9521  -17.6480   27.0924 O   0  0  0  0  0  0  0  0  0  0  0  0
  1  2  1  0
  2  4  1  0
  3  2  2  0
  4  5  1  0
  6  7  1  0
  6  5  1  0
  7  8  1  0
  8  9  1  6
 10 12  1  0
 10  8  1  0
 11 10  2  0
 13 12  1  0
 13 20  1  0
 13 14  1  1
 15 14  1  0
 16 15  2  0
 17 16  1  0
 18 17  1  0
 18 19  2  0
 19 15  1  0
 20 21  2  0
 22 23  1  0
 23 25  1  0
 23 24  2  0
 25 26  1  0
 27 26  1  0
 27 28  1  0
 29 28  1  6
 29 31  1  0
 30 20  1  0
 30 29  1  0
 31 32  1  0
 33 31  2  0
M  END
$$$$
