RHR.pdb
     RDKit          3D

 33 33  0  0  1  0  0  0  0  0999 V2000
    9.2503  -13.7329   12.5051 N   0  0  0  0  0  0  0  0  0  0  0  0
    7.9111  -14.0069   12.8738 C   0  0  0  0  0  0  0  0  0  0  0  0
    7.0128  -13.0715   13.0249 N   0  0  0  0  0  0  0  0  0  0  0  0
    7.4655  -15.3466   13.1055 N   0  0  0  0  0  0  0  0  0  0  0  0
    8.4554  -16.4164   13.2549 C   0  0  0  0  0  0  0  0  0  0  0  0
    9.3668  -16.1611   14.4150 C   0  0  0  0  0  0  0  0  0  0  0  0
   10.3794  -17.2534   14.6340 C   0  0  0  0  0  0  0  0  0  0  0  0
   10.0514  -18.1364   15.7932 C   0  0  2  0  0  0  0  0  0  0  0  0
    8.8252  -18.8310   15.5637 N   0  0  0  0  0  0  0  0  0  0  0  0
   10.1248  -17.4153   17.0765 C   0  0  0  0  0  0  0  0  0  0  0  0
   11.2175  -16.7777   17.2783 O   0  0  0  0  0  0  0  0  0  0  0  0
    6.0604  -13.3831   13.3185 N   0  0  0  0  0  0  0  0  0  0  0  0
    9.0782  -17.4225   18.0125 C   0  0  2  0  0  0  0  0  0  0  0  0
    9.2669  -16.7566   19.2841 C   0  0  0  0  0  0  0  0  0  0  0  0
    7.9429  -16.1184   19.6278 C   0  0  0  0  0  0  0  0  0  0  0  0
    7.7141  -14.9148   18.8070 C   0  0  0  0  0  0  0  0  0  0  0  0
    6.7876  -14.7891   17.7735 N   0  0  0  0  0  0  0  0  0  0  0  0
    6.9055  -13.5433   17.2848 C   0  0  0  0  0  0  0  0  0  0  0  0
    7.8578  -12.8721   17.9535 N   0  0  0  0  0  0  0  0  0  0  0  0
    8.3526  -13.7198   18.8890 C   0  0  0  0  0  0  0  0  0  0  0  0
    9.6846  -17.6747   20.3457 O   0  0  0  0  0  0  0  0  0  0  0  0
    9.1890  -18.8500   20.3981 N   0  0  0  0  0  0  0  0  0  0  0  0
   16.6395  -20.9448   18.2327 C   0  0  0  0  0  0  0  0  0  0  0  0
   15.6681  -21.7762   18.8485 N   0  0  0  0  0  0  0  0  0  0  0  0
   15.5987  -23.0571   18.5881 N   0  0  0  0  0  0  0  0  0  0  0  0
   14.7169  -21.2787   19.7757 C   0  0  0  0  0  0  0  0  0  0  0  0
   14.6894  -19.9187   20.1749 C   0  0  0  0  0  0  0  0  0  0  0  0
   13.6568  -19.5956   21.2391 C   0  0  0  0  0  0  0  0  0  0  0  0
   12.6499  -18.6084   20.7796 C   0  0  1  0  0  0  0  0  0  0  0  0
   11.6041  -18.3775   21.8358 N   0  0  0  0  0  0  0  0  0  0  0  0
   10.6233  -17.3859   21.3697 C   0  0  0  0  0  0  0  0  0  0  0  0
   12.1069  -17.9224   23.1350 O   0  0  0  0  0  0  0  0  0  0  0  0
   12.5452  -18.8144   24.0958 O   0  0  0  0  0  0  0  0  0  0  0  0
  1  2  1  0
  2  4  1  0
  3  2  2  0
  4  5  1  0
  6  7  1  0
  6  5  1  0
  7  8  1  0
  8  9  1  6
 10 12  1  0
 10  8  1  0
 11 10  2  0
 13 12  1  0
 13 20  1  0
 13 14  1  6
 15 14  1  0
 16 15  2  0
 17 16  1  0
 18 17  1  0
 18 19  2  0
 19 15  1  0
 20 21  2  0
 22 23  1  0
 23 25  1  0
 23 24  2  0
 25 26  1  0
 27 26  1  0
 27 28  1  0
 29 28  1  6
 29 31  1  0
 30 20  1  0
 30 29  1  0
 31 32  1  0
 33 31  2  0
M  END
$$$$
