RHR.pdb
     RDKit          3D

 33 33  0  0  1  0  0  0  0  0999 V2000
    4.5315  -16.7494   13.6440 N   0  0  0  0  0  0  0  0  0  0  0  0
    5.8755  -16.9029   13.2265 C   0  0  0  0  0  0  0  0  0  0  0  0
    6.2125  -17.0895   11.9790 N   0  0  0  0  0  0  0  0  0  0  0  0
    6.9530  -16.8626   14.1671 N   0  0  0  0  0  0  0  0  0  0  0  0
    8.3187  -17.1237   13.7055 C   0  0  0  0  0  0  0  0  0  0  0  0
    9.2946  -17.0991   14.8407 C   0  0  0  0  0  0  0  0  0  0  0  0
    9.4635  -15.7359   15.4570 C   0  0  0  0  0  0  0  0  0  0  0  0
   10.4716  -15.7088   16.5589 C   0  0  2  0  0  0  0  0  0  0  0  0
   11.2457  -16.9086   16.5603 N   0  0  0  0  0  0  0  0  0  0  0  0
    9.8645  -15.3609   17.8560 C   0  0  0  0  0  0  0  0  0  0  0  0
    9.0391  -14.3817   17.8231 O   0  0  0  0  0  0  0  0  0  0  0  0
    7.2130  -17.3271   11.7971 N   0  0  0  0  0  0  0  0  0  0  0  0
   10.1641  -16.0481   19.0433 C   0  0  2  0  0  0  0  0  0  0  0  0
    9.5771  -15.5941   20.2864 C   0  0  0  0  0  0  0  0  0  0  0  0
    8.0858  -15.5478   20.0577 C   0  0  0  0  0  0  0  0  0  0  0  0
    7.7013  -14.3029   19.3671 C   0  0  0  0  0  0  0  0  0  0  0  0
    7.7324  -13.0193   19.9090 N   0  0  0  0  0  0  0  0  0  0  0  0
    7.2988  -12.1765   18.9571 C   0  0  0  0  0  0  0  0  0  0  0  0
    6.9943  -12.8573   17.8399 N   0  0  0  0  0  0  0  0  0  0  0  0
    7.2433  -14.1653   18.0967 C   0  0  0  0  0  0  0  0  0  0  0  0
    9.8960  -16.4711   21.4148 O   0  0  0  0  0  0  0  0  0  0  0  0
    9.4483  -17.6664   21.4344 N   0  0  0  0  0  0  0  0  0  0  0  0
   16.3157  -15.8630   22.8863 C   0  0  0  0  0  0  0  0  0  0  0  0
   16.3283  -17.2821   22.8942 N   0  0  0  0  0  0  0  0  0  0  0  0
   16.9267  -17.9669   21.9527 N   0  0  0  0  0  0  0  0  0  0  0  0
   15.6981  -18.0441   23.9111 C   0  0  0  0  0  0  0  0  0  0  0  0
   14.8277  -17.4591   24.8650 C   0  0  0  0  0  0  0  0  0  0  0  0
   13.3548  -17.7373   24.6275 C   0  0  0  0  0  0  0  0  0  0  0  0
   12.7188  -16.7362   23.7372 C   0  0  1  0  0  0  0  0  0  0  0  0
   11.3050  -17.1312   23.4093 N   0  0  0  0  0  0  0  0  0  0  0  0
   10.6844  -16.1196   22.5409 C   0  0  0  0  0  0  0  0  0  0  0  0
   10.4194  -17.3261   24.5607 O   0  0  0  0  0  0  0  0  0  0  0  0
   10.6157  -18.3572   25.4602 O   0  0  0  0  0  0  0  0  0  0  0  0
  1  2  1  0
  2  4  1  0
  3  2  2  0
  4  5  1  0
  6  7  1  0
  6  5  1  0
  7  8  1  0
  8  9  1  1
 10 12  1  0
 10  8  1  0
 11 10  2  0
 13 12  1  0
 13 20  1  0
 13 14  1  6
 15 14  1  0
 16 15  2  0
 17 16  1  0
 18 17  1  0
 18 19  2  0
 19 15  1  0
 20 21  2  0
 22 23  1  0
 23 25  1  0
 23 24  2  0
 25 26  1  0
 27 26  1  0
 27 28  1  0
 29 28  1  6
 29 31  1  0
 30 20  1  0
 30 29  1  0
 31 32  1  0
 33 31  2  0
M  END
$$$$
