HNY.pdb
     RDKit          3D

 31 32  0  0  1  0  0  0  0  0999 V2000
   28.9142  -18.5494  -20.5534 N   0  0  0  0  0  0  0  0  0  0  0  0
   27.9153  -17.6088  -20.0641 C   0  0  1  0  0  0  0  0  0  0  0  0
   27.6408  -17.8988  -18.6143 C   0  0  0  0  0  0  0  0  0  0  0  0
   27.0146  -19.2220  -18.3884 C   0  0  0  0  0  0  0  0  0  0  0  0
   27.6394  -20.4506  -18.2390 C   0  0  0  0  0  0  0  0  0  0  0  0
   26.7266  -21.4154  -18.0537 N   0  0  0  0  0  0  0  0  0  0  0  0
   25.5228  -20.8187  -18.0827 C   0  0  0  0  0  0  0  0  0  0  0  0
   25.6827  -19.5046  -18.2826 N   0  0  0  0  0  0  0  0  0  0  0  0
   28.3621  -16.2459  -20.3460 C   0  0  0  0  0  0  0  0  0  0  0  0
   29.6237  -16.0588  -20.4490 O   0  0  0  0  0  0  0  0  0  0  0  0
   30.6833  -13.6373  -20.9640 N   0  0  0  0  0  0  0  0  0  0  0  0
   30.0372  -13.8452  -22.2081 C   0  0  0  0  0  0  0  0  0  0  0  0
   30.7358  -13.9017  -23.2488 O   0  0  0  0  0  0  0  0  0  0  0  0
   28.5886  -13.9953  -22.3160 C   0  0  0  0  0  0  0  0  0  0  0  0
   27.8655  -13.9132  -20.9979 C   0  0  2  0  0  0  0  0  0  0  0  0
   27.4385  -15.1879  -20.4968 N   0  0  0  0  0  0  0  0  0  0  0  0
   26.7066  -12.9669  -21.0620 C   0  0  0  0  0  0  0  0  0  0  0  0
   25.5573  -13.4025  -20.7945 O   0  0  0  0  0  0  0  0  0  0  0  0
   20.9963  -14.8702  -20.2264 O   0  0  0  0  0  0  0  0  0  0  0  0
   21.9766  -13.8744  -20.2119 C   0  0  0  0  0  0  0  0  0  0  0  0
   21.8839  -12.7647  -21.0293 C   0  0  0  0  0  0  0  0  0  0  0  0
   22.8463  -11.7788  -21.0204 C   0  0  0  0  0  0  0  0  0  0  0  0
   23.9461  -11.8597  -20.1920 C   0  0  0  0  0  0  0  0  0  0  0  0
   24.9770  -10.7899  -20.1974 C   0  0  0  0  0  0  0  0  0  0  0  0
   25.7173  -10.6842  -21.5119 C   0  0  2  0  0  0  0  0  0  0  0  0
   26.8471  -11.6165  -21.4073 N   0  0  0  0  0  0  0  0  0  0  0  0
   26.1801   -9.3260  -21.8143 C   0  0  0  0  0  0  0  0  0  0  0  0
   27.5258   -9.0277  -21.9013 O   0  0  0  0  0  0  0  0  0  0  0  0
   24.0426  -12.9668  -19.3739 C   0  0  0  0  0  0  0  0  0  0  0  0
   23.0827  -13.9368  -19.3917 C   0  0  0  0  0  0  0  0  0  0  0  0
   25.3444   -8.4120  -21.9987 O   0  0  0  0  0  0  0  0  0  0  0  0
  2  1  1  1
  2  3  1  0
  4  3  1  0
  4  5  2  0
  6  5  1  0
  7  6  1  0
  8  7  2  0
  8  4  1  0
  9  2  1  0
 10  9  2  0
 11 12  1  0
 12 14  1  0
 13 12  2  0
 15 14  1  6
 15 16  1  0
 16  9  1  0
 17 15  1  0
 17 18  2  0
 20 19  1  0
 21 20  2  0
 22 21  1  0
 23 29  1  0
 23 22  2  0
 25 24  1  1
 24 23  1  0
 25 26  1  0
 26 17  1  0
 27 25  1  0
 28 27  1  0
 29 30  2  0
 30 20  1  0
 31 27  2  0
M  END
$$$$
