HNY.pdb
     RDKit          3D

 31 32  0  0  1  0  0  0  0  0999 V2000
   19.5031  -13.8675  -16.3629 N   0  0  0  0  0  0  0  0  0  0  0  0
   19.3508  -12.7395  -17.2719 C   0  0  1  0  0  0  0  0  0  0  0  0
   17.9123  -12.6495  -17.7012 C   0  0  0  0  0  0  0  0  0  0  0  0
   17.4545  -13.8288  -18.4715 C   0  0  0  0  0  0  0  0  0  0  0  0
   16.8996  -15.0041  -17.9886 C   0  0  0  0  0  0  0  0  0  0  0  0
   16.6170  -15.8343  -19.0031 N   0  0  0  0  0  0  0  0  0  0  0  0
   16.9847  -15.2041  -20.1317 C   0  0  0  0  0  0  0  0  0  0  0  0
   17.4878  -14.0018  -19.8257 N   0  0  0  0  0  0  0  0  0  0  0  0
   19.8799  -11.5354  -16.6339 C   0  0  0  0  0  0  0  0  0  0  0  0
   19.5566  -11.3367  -15.4119 O   0  0  0  0  0  0  0  0  0  0  0  0
   22.2111   -7.0070  -15.6775 N   0  0  0  0  0  0  0  0  0  0  0  0
   22.9398   -7.6743  -16.6936 C   0  0  0  0  0  0  0  0  0  0  0  0
   24.0344   -7.1891  -17.0685 O   0  0  0  0  0  0  0  0  0  0  0  0
   22.4578   -8.9046  -17.3153 C   0  0  0  0  0  0  0  0  0  0  0  0
   21.1857   -9.4373  -16.7111 C   0  0  2  0  0  0  0  0  0  0  0  0
   20.7097  -10.6361  -17.3393 N   0  0  0  0  0  0  0  0  0  0  0  0
   20.1068   -8.3991  -16.6913 C   0  0  0  0  0  0  0  0  0  0  0  0
   19.2987   -8.3511  -17.6541 O   0  0  0  0  0  0  0  0  0  0  0  0
   16.4481   -9.2483  -10.2930 O   0  0  0  0  0  0  0  0  0  0  0  0
   16.7252   -8.7575  -11.5717 C   0  0  0  0  0  0  0  0  0  0  0  0
   17.2242   -9.5799  -12.5631 C   0  0  0  0  0  0  0  0  0  0  0  0
   17.4998   -9.1032  -13.8260 C   0  0  0  0  0  0  0  0  0  0  0  0
   17.2880   -7.7803  -14.1537 C   0  0  0  0  0  0  0  0  0  0  0  0
   17.5940   -7.2813  -15.5192 C   0  0  0  0  0  0  0  0  0  0  0  0
   18.8779   -6.4851  -15.5874 C   0  0  2  0  0  0  0  0  0  0  0  0
   19.9583   -7.4781  -15.6462 N   0  0  0  0  0  0  0  0  0  0  0  0
   19.0606   -5.5729  -14.4539 C   0  0  0  0  0  0  0  0  0  0  0  0
   20.1296   -5.7053  -13.5895 O   0  0  0  0  0  0  0  0  0  0  0  0
   16.7897   -6.9553  -13.1661 C   0  0  0  0  0  0  0  0  0  0  0  0
   16.5205   -7.4393  -11.9187 C   0  0  0  0  0  0  0  0  0  0  0  0
   18.2347   -4.6523  -14.2585 O   0  0  0  0  0  0  0  0  0  0  0  0
  2  1  1  1
  2  3  1  0
  4  3  1  0
  4  5  2  0
  6  5  1  0
  7  6  1  0
  8  7  2  0
  8  4  1  0
  9  2  1  0
 10  9  2  0
 11 12  1  0
 12 14  1  0
 13 12  2  0
 15 14  1  6
 15 16  1  0
 16  9  1  0
 17 15  1  0
 17 18  2  0
 20 19  1  0
 21 20  2  0
 22 21  1  0
 23 29  1  0
 23 22  2  0
 25 24  1  1
 24 23  1  0
 25 26  1  0
 26 17  1  0
 27 25  1  0
 28 27  1  0
 29 30  2  0
 30 20  1  0
 31 27  2  0
M  END
$$$$
