HNY.pdb
     RDKit          3D

 31 32  0  0  1  0  0  0  0  0999 V2000
   24.2552  -15.7309  -17.9570 N   0  0  0  0  0  0  0  0  0  0  0  0
   24.0610  -14.8282  -16.8304 C   0  0  1  0  0  0  0  0  0  0  0  0
   25.3938  -14.2648  -16.4210 C   0  0  0  0  0  0  0  0  0  0  0  0
   26.3722  -15.3025  -16.0212 C   0  0  0  0  0  0  0  0  0  0  0  0
   26.4908  -15.9408  -14.7962 C   0  0  0  0  0  0  0  0  0  0  0  0
   27.5041  -16.8187  -14.8271 N   0  0  0  0  0  0  0  0  0  0  0  0
   28.0368  -16.7503  -16.0590 C   0  0  0  0  0  0  0  0  0  0  0  0
   27.3669  -15.8454  -16.7834 N   0  0  0  0  0  0  0  0  0  0  0  0
   23.0528  -13.8306  -17.1843 C   0  0  0  0  0  0  0  0  0  0  0  0
   23.3719  -12.9769  -18.0824 O   0  0  0  0  0  0  0  0  0  0  0  0
   18.7226  -11.1066  -17.7680 N   0  0  0  0  0  0  0  0  0  0  0  0
   18.4047  -12.4633  -17.5095 C   0  0  0  0  0  0  0  0  0  0  0  0
   17.2169  -12.8420  -17.6508 O   0  0  0  0  0  0  0  0  0  0  0  0
   19.4130  -13.4306  -17.0852 C   0  0  0  0  0  0  0  0  0  0  0  0
   20.7955  -12.8508  -16.9444 C   0  0  2  0  0  0  0  0  0  0  0  0
   21.7860  -13.8148  -16.5599 N   0  0  0  0  0  0  0  0  0  0  0  0
   20.8126  -11.6865  -16.0028 C   0  0  0  0  0  0  0  0  0  0  0  0
   20.7924  -11.9116  -14.7654 O   0  0  0  0  0  0  0  0  0  0  0  0
   22.1678   -3.0731  -14.1003 O   0  0  0  0  0  0  0  0  0  0  0  0
   22.1641   -4.4280  -14.4420 C   0  0  0  0  0  0  0  0  0  0  0  0
   22.3382   -4.8385  -15.7495 C   0  0  0  0  0  0  0  0  0  0  0  0
   22.3358   -6.1725  -16.0940 C   0  0  0  0  0  0  0  0  0  0  0  0
   22.1588   -7.1567  -15.1441 C   0  0  0  0  0  0  0  0  0  0  0  0
   22.1549   -8.5907  -15.5327 C   0  0  0  0  0  0  0  0  0  0  0  0
   20.7716   -9.2020  -15.5363 C   0  0  2  0  0  0  0  0  0  0  0  0
   20.8501  -10.3563  -16.4408 N   0  0  0  0  0  0  0  0  0  0  0  0
   19.7220   -8.2697  -15.9602 C   0  0  0  0  0  0  0  0  0  0  0  0
   19.4216   -8.0842  -17.2954 O   0  0  0  0  0  0  0  0  0  0  0  0
   21.9844   -6.7509  -13.8367 C   0  0  0  0  0  0  0  0  0  0  0  0
   21.9888   -5.4263  -13.5078 C   0  0  0  0  0  0  0  0  0  0  0  0
   19.0803   -7.6247  -15.1001 O   0  0  0  0  0  0  0  0  0  0  0  0
  2  1  1  6
  2  3  1  0
  4  3  1  0
  4  5  2  0
  6  5  1  0
  7  6  1  0
  8  7  2  0
  8  4  1  0
  9  2  1  0
 10  9  2  0
 11 12  1  0
 12 14  1  0
 13 12  2  0
 15 14  1  1
 15 16  1  0
 16  9  1  0
 17 15  1  0
 17 18  2  0
 20 19  1  0
 21 20  2  0
 22 21  1  0
 23 29  1  0
 23 22  2  0
 25 24  1  6
 24 23  1  0
 25 26  1  0
 26 17  1  0
 27 25  1  0
 28 27  1  0
 29 30  2  0
 30 20  1  0
 31 27  2  0
M  END
$$$$
