HNY.pdb
     RDKit          3D

 31 32  0  0  1  0  0  0  0  0999 V2000
   22.5858  -12.6726  -18.2167 N   0  0  0  0  0  0  0  0  0  0  0  0
   22.3687  -11.5524  -19.1222 C   0  0  1  0  0  0  0  0  0  0  0  0
   21.6569  -12.0484  -20.3504 C   0  0  0  0  0  0  0  0  0  0  0  0
   22.3411  -13.1866  -21.0063 C   0  0  0  0  0  0  0  0  0  0  0  0
   21.9656  -14.5212  -21.0155 C   0  0  0  0  0  0  0  0  0  0  0  0
   22.8479  -15.2461  -21.7186 N   0  0  0  0  0  0  0  0  0  0  0  0
   23.7855  -14.3907  -22.1606 C   0  0  0  0  0  0  0  0  0  0  0  0
   23.4924  -13.1539  -21.7401 N   0  0  0  0  0  0  0  0  0  0  0  0
   21.6824  -10.4810  -18.4026 C   0  0  0  0  0  0  0  0  0  0  0  0
   21.3736   -9.4366  -19.0742 O   0  0  0  0  0  0  0  0  0  0  0  0
   18.3444  -11.9113  -14.7251 N   0  0  0  0  0  0  0  0  0  0  0  0
   18.7370  -10.7754  -15.4763 C   0  0  0  0  0  0  0  0  0  0  0  0
   18.0408  -10.4345  -16.4628 O   0  0  0  0  0  0  0  0  0  0  0  0
   19.9225   -9.9923  -15.1388 C   0  0  0  0  0  0  0  0  0  0  0  0
   20.7128   -9.5329  -16.3352 C   0  0  2  0  0  0  0  0  0  0  0  0
   21.3767  -10.5990  -17.0287 N   0  0  0  0  0  0  0  0  0  0  0  0
   21.6939   -8.4618  -15.9706 C   0  0  0  0  0  0  0  0  0  0  0  0
   22.9155   -8.7568  -15.9152 O   0  0  0  0  0  0  0  0  0  0  0  0
   26.5164   -1.4036  -16.8123 O   0  0  0  0  0  0  0  0  0  0  0  0
   25.6802   -2.5229  -16.7917 C   0  0  0  0  0  0  0  0  0  0  0  0
   24.3391   -2.4223  -17.1071 C   0  0  0  0  0  0  0  0  0  0  0  0
   23.5086   -3.5215  -17.0890 C   0  0  0  0  0  0  0  0  0  0  0  0
   23.9839   -4.7723  -16.7541 C   0  0  0  0  0  0  0  0  0  0  0  0
   23.0742   -5.9467  -16.7356 C   0  0  0  0  0  0  0  0  0  0  0  0
   22.2647   -6.0519  -15.4625 C   0  0  2  0  0  0  0  0  0  0  0  0
   21.3099   -7.1445  -15.6883 N   0  0  0  0  0  0  0  0  0  0  0  0
   21.5711   -4.8098  -15.1069 C   0  0  0  0  0  0  0  0  0  0  0  0
   22.1378   -3.8912  -14.2453 O   0  0  0  0  0  0  0  0  0  0  0  0
   25.3231   -4.8771  -16.4382 C   0  0  0  0  0  0  0  0  0  0  0  0
   26.1359   -3.7809  -16.4597 C   0  0  0  0  0  0  0  0  0  0  0  0
   20.4413   -4.5694  -15.5902 O   0  0  0  0  0  0  0  0  0  0  0  0
  2  1  1  1
  2  3  1  0
  4  3  1  0
  4  5  2  0
  6  5  1  0
  7  6  1  0
  8  7  2  0
  8  4  1  0
  9  2  1  0
 10  9  2  0
 11 12  1  0
 12 14  1  0
 13 12  2  0
 15 14  1  1
 15 16  1  0
 16  9  1  0
 17 15  1  0
 17 18  2  0
 20 19  1  0
 21 20  2  0
 22 21  1  0
 23 29  1  0
 23 22  2  0
 25 24  1  6
 24 23  1  0
 25 26  1  0
 26 17  1  0
 27 25  1  0
 28 27  1  0
 29 30  2  0
 30 20  1  0
 31 27  2  0
M  END
$$$$
