HNY.pdb
     RDKit          3D

 31 32  0  0  1  0  0  0  0  0999 V2000
   22.2384  -16.3181  -22.9064 N   0  0  0  0  0  0  0  0  0  0  0  0
   22.2658  -16.3485  -21.4503 C   0  0  1  0  0  0  0  0  0  0  0  0
   21.8668  -14.9966  -20.9263 C   0  0  0  0  0  0  0  0  0  0  0  0
   22.8355  -13.9274  -21.2615 C   0  0  0  0  0  0  0  0  0  0  0  0
   22.7683  -13.0038  -22.2933 C   0  0  0  0  0  0  0  0  0  0  0  0
   23.8411  -12.1998  -22.2663 N   0  0  0  0  0  0  0  0  0  0  0  0
   24.5960  -12.5978  -21.2282 C   0  0  0  0  0  0  0  0  0  0  0  0
   24.0037  -13.6322  -20.6186 N   0  0  0  0  0  0  0  0  0  0  0  0
   21.4418  -17.4599  -20.9788 C   0  0  0  0  0  0  0  0  0  0  0  0
   20.4208  -17.7659  -21.6867 O   0  0  0  0  0  0  0  0  0  0  0  0
   20.8453  -22.6247  -18.9970 N   0  0  0  0  0  0  0  0  0  0  0  0
   20.9187  -21.4590  -18.1942 C   0  0  0  0  0  0  0  0  0  0  0  0
   20.2745  -21.4263  -17.1180 O   0  0  0  0  0  0  0  0  0  0  0  0
   21.7180  -20.2992  -18.5793 C   0  0  0  0  0  0  0  0  0  0  0  0
   20.9534  -19.2605  -19.3563 C   0  0  2  0  0  0  0  0  0  0  0  0
   21.7631  -18.1604  -19.7951 N   0  0  0  0  0  0  0  0  0  0  0  0
   19.7689  -18.7587  -18.5897 C   0  0  0  0  0  0  0  0  0  0  0  0
   19.8337  -17.6212  -18.0566 O   0  0  0  0  0  0  0  0  0  0  0  0
   11.8598  -15.8492  -16.7871 O   0  0  0  0  0  0  0  0  0  0  0  0
   13.0941  -16.3360  -17.2254 C   0  0  0  0  0  0  0  0  0  0  0  0
   13.1745  -17.3817  -18.1244 C   0  0  0  0  0  0  0  0  0  0  0  0
   14.3878  -17.8669  -18.5611 C   0  0  0  0  0  0  0  0  0  0  0  0
   15.5765  -17.3265  -18.1169 C   0  0  0  0  0  0  0  0  0  0  0  0
   16.8766  -17.8640  -18.5946 C   0  0  0  0  0  0  0  0  0  0  0  0
   17.3983  -19.0009  -17.7448 C   0  0  2  0  0  0  0  0  0  0  0  0
   18.5907  -19.5018  -18.4405 N   0  0  0  0  0  0  0  0  0  0  0  0
   16.4190  -20.0725  -17.5376 C   0  0  0  0  0  0  0  0  0  0  0  0
   15.5520  -20.0560  -16.4627 O   0  0  0  0  0  0  0  0  0  0  0  0
   15.5006  -16.2817  -17.2186 C   0  0  0  0  0  0  0  0  0  0  0  0
   14.2927  -15.8097  -16.7934 C   0  0  0  0  0  0  0  0  0  0  0  0
   16.3612  -21.0258  -18.3473 O   0  0  0  0  0  0  0  0  0  0  0  0
  2  1  1  6
  2  3  1  0
  4  3  1  0
  4  5  2  0
  6  5  1  0
  7  6  1  0
  8  7  2  0
  8  4  1  0
  9  2  1  0
 10  9  2  0
 11 12  1  0
 12 14  1  0
 13 12  2  0
 15 14  1  1
 15 16  1  0
 16  9  1  0
 17 15  1  0
 17 18  2  0
 20 19  1  0
 21 20  2  0
 22 21  1  0
 23 29  1  0
 23 22  2  0
 25 24  1  6
 24 23  1  0
 25 26  1  0
 26 17  1  0
 27 25  1  0
 28 27  1  0
 29 30  2  0
 30 20  1  0
 31 27  2  0
M  END
$$$$
