HNY.pdb
     RDKit          3D

 31 32  0  0  1  0  0  0  0  0999 V2000
   20.0786  -12.0076  -18.0238 N   0  0  0  0  0  0  0  0  0  0  0  0
   19.2744  -10.8499  -17.6566 C   0  0  1  0  0  0  0  0  0  0  0  0
   18.4435  -11.1952  -16.4517 C   0  0  0  0  0  0  0  0  0  0  0  0
   17.4027  -12.2122  -16.7280 C   0  0  0  0  0  0  0  0  0  0  0  0
   17.4491  -13.5749  -16.4767 C   0  0  0  0  0  0  0  0  0  0  0  0
   16.3083  -14.1583  -16.8721 N   0  0  0  0  0  0  0  0  0  0  0  0
   15.5304  -13.1843  -17.3744 C   0  0  0  0  0  0  0  0  0  0  0  0
   16.1755  -12.0139  -17.2934 N   0  0  0  0  0  0  0  0  0  0  0  0
   20.1504   -9.6917  -17.4896 C   0  0  0  0  0  0  0  0  0  0  0  0
   21.1065   -9.8045  -16.6468 O   0  0  0  0  0  0  0  0  0  0  0  0
   20.7680   -6.5819  -21.6701 N   0  0  0  0  0  0  0  0  0  0  0  0
   21.3114   -6.9177  -20.4050 C   0  0  0  0  0  0  0  0  0  0  0  0
   22.2901   -7.7015  -20.3577 O   0  0  0  0  0  0  0  0  0  0  0  0
   20.7696   -6.3817  -19.1594 C   0  0  0  0  0  0  0  0  0  0  0  0
   20.7842   -7.3603  -18.0151 C   0  0  2  0  0  0  0  0  0  0  0  0
   19.9459   -8.5050  -18.2278 N   0  0  0  0  0  0  0  0  0  0  0  0
   20.4373   -6.6979  -16.7177 C   0  0  0  0  0  0  0  0  0  0  0  0
   19.2301   -6.4385  -16.4772 O   0  0  0  0  0  0  0  0  0  0  0  0
   19.5687   -5.2145   -8.2199 O   0  0  0  0  0  0  0  0  0  0  0  0
   19.9444   -5.6199   -9.5033 C   0  0  0  0  0  0  0  0  0  0  0  0
   19.0042   -5.8301  -10.4932 C   0  0  0  0  0  0  0  0  0  0  0  0
   19.3671   -6.2298  -11.7608 C   0  0  0  0  0  0  0  0  0  0  0  0
   20.6892   -6.4373  -12.0948 C   0  0  0  0  0  0  0  0  0  0  0  0
   21.0635   -6.8720  -13.4653 C   0  0  0  0  0  0  0  0  0  0  0  0
   21.0734   -5.7387  -14.4666 C   0  0  2  0  0  0  0  0  0  0  0  0
   21.3996   -6.3541  -15.7594 N   0  0  0  0  0  0  0  0  0  0  0  0
   22.0248   -4.6736  -14.1340 C   0  0  0  0  0  0  0  0  0  0  0  0
   21.6473   -3.5840  -13.3739 O   0  0  0  0  0  0  0  0  0  0  0  0
   21.6317   -6.2286  -11.1087 C   0  0  0  0  0  0  0  0  0  0  0  0
   21.2598   -5.8326   -9.8567 C   0  0  0  0  0  0  0  0  0  0  0  0
   23.2059   -4.7459  -14.5436 O   0  0  0  0  0  0  0  0  0  0  0  0
  2  1  1  1
  2  3  1  0
  4  3  1  0
  4  5  2  0
  6  5  1  0
  7  6  1  0
  8  7  2  0
  8  4  1  0
  9  2  1  0
 10  9  2  0
 11 12  1  0
 12 14  1  0
 13 12  2  0
 15 14  1  6
 15 16  1  0
 16  9  1  0
 17 15  1  0
 17 18  2  0
 20 19  1  0
 21 20  2  0
 22 21  1  0
 23 29  1  0
 23 22  2  0
 25 24  1  1
 24 23  1  0
 25 26  1  0
 26 17  1  0
 27 25  1  0
 28 27  1  0
 29 30  2  0
 30 20  1  0
 31 27  2  0
M  END
$$$$
