HNY.pdb
     RDKit          3D

 31 32  0  0  1  0  0  0  0  0999 V2000
   15.8362  -17.1020    5.3139 N   0  0  0  0  0  0  0  0  0  0  0  0
   17.1635  -17.6933    5.4164 C   0  0  1  0  0  0  0  0  0  0  0  0
   17.9856  -17.2548    4.2360 C   0  0  0  0  0  0  0  0  0  0  0  0
   17.6760  -18.0013    2.9948 C   0  0  0  0  0  0  0  0  0  0  0  0
   16.6967  -17.7271    2.0524 C   0  0  0  0  0  0  0  0  0  0  0  0
   16.7313  -18.6385    1.0693 N   0  0  0  0  0  0  0  0  0  0  0  0
   17.7224  -19.4945    1.3710 C   0  0  0  0  0  0  0  0  0  0  0  0
   18.2956  -19.1229    2.5224 N   0  0  0  0  0  0  0  0  0  0  0  0
   17.7347  -17.3651    6.7212 C   0  0  0  0  0  0  0  0  0  0  0  0
   17.5393  -16.1784    7.1579 O   0  0  0  0  0  0  0  0  0  0  0  0
   16.6077  -18.8312    9.9698 N   0  0  0  0  0  0  0  0  0  0  0  0
   17.7967  -19.5569   10.2307 C   0  0  0  0  0  0  0  0  0  0  0  0
   17.7312  -20.5847   10.9474 O   0  0  0  0  0  0  0  0  0  0  0  0
   19.0911  -19.1470    9.6932 C   0  0  0  0  0  0  0  0  0  0  0  0
   19.0173  -17.9811    8.7433 C   0  0  2  0  0  0  0  0  0  0  0  0
   18.4681  -18.3186    7.4616 N   0  0  0  0  0  0  0  0  0  0  0  0
   20.3501  -17.3186    8.5777 C   0  0  0  0  0  0  0  0  0  0  0  0
   21.0603  -17.6322    7.5880 O   0  0  0  0  0  0  0  0  0  0  0  0
   19.7216  -11.4348    5.1666 O   0  0  0  0  0  0  0  0  0  0  0  0
   20.2662  -12.1210    6.2553 C   0  0  0  0  0  0  0  0  0  0  0  0
   19.4781  -12.9029    7.0773 C   0  0  0  0  0  0  0  0  0  0  0  0
   20.0079  -13.5825    8.1524 C   0  0  0  0  0  0  0  0  0  0  0  0
   21.3520  -13.5097    8.4533 C   0  0  0  0  0  0  0  0  0  0  0  0
   21.9068  -14.2456    9.6186 C   0  0  0  0  0  0  0  0  0  0  0  0
   22.1484  -15.7115    9.3359 C   0  0  2  0  0  0  0  0  0  0  0  0
   20.8406  -16.3641    9.4781 N   0  0  0  0  0  0  0  0  0  0  0  0
   23.1423  -16.3217   10.2248 C   0  0  0  0  0  0  0  0  0  0  0  0
   24.4900  -16.0520   10.0890 O   0  0  0  0  0  0  0  0  0  0  0  0
   22.1428  -12.7296    7.6346 C   0  0  0  0  0  0  0  0  0  0  0  0
   21.6063  -12.0612    6.5724 C   0  0  0  0  0  0  0  0  0  0  0  0
   22.7697  -17.1046   11.1282 O   0  0  0  0  0  0  0  0  0  0  0  0
  2  1  1  6
  2  3  1  0
  4  3  1  0
  4  5  2  0
  6  5  1  0
  7  6  1  0
  8  7  2  0
  8  4  1  0
  9  2  1  0
 10  9  2  0
 11 12  1  0
 12 14  1  0
 13 12  2  0
 15 14  1  1
 15 16  1  0
 16  9  1  0
 17 15  1  0
 17 18  2  0
 20 19  1  0
 21 20  2  0
 22 21  1  0
 23 29  1  0
 23 22  2  0
 25 24  1  1
 24 23  1  0
 25 26  1  0
 26 17  1  0
 27 25  1  0
 28 27  1  0
 29 30  2  0
 30 20  1  0
 31 27  2  0
M  END
$$$$
