HNY.pdb
     RDKit          3D

 31 32  0  0  1  0  0  0  0  0999 V2000
   22.5743  -14.7290  -16.6604 N   0  0  0  0  0  0  0  0  0  0  0  0
   22.2392  -13.3234  -16.8447 C   0  0  1  0  0  0  0  0  0  0  0  0
   20.8707  -13.0692  -16.2755 C   0  0  0  0  0  0  0  0  0  0  0  0
   19.8163  -13.9147  -16.8814 C   0  0  0  0  0  0  0  0  0  0  0  0
   19.2678  -15.0869  -16.3842 C   0  0  0  0  0  0  0  0  0  0  0  0
   18.3379  -15.5579  -17.2278 N   0  0  0  0  0  0  0  0  0  0  0  0
   18.2840  -14.7003  -18.2611 C   0  0  0  0  0  0  0  0  0  0  0  0
   19.1653  -13.7118  -18.0647 N   0  0  0  0  0  0  0  0  0  0  0  0
   23.3051  -12.4987  -16.2786 C   0  0  0  0  0  0  0  0  0  0  0  0
   24.1435  -13.0830  -15.5085 O   0  0  0  0  0  0  0  0  0  0  0  0
   27.5949  -10.4234  -14.6799 N   0  0  0  0  0  0  0  0  0  0  0  0
   26.9610  -10.1013  -15.9059 C   0  0  0  0  0  0  0  0  0  0  0  0
   27.3749   -9.1121  -16.5574 O   0  0  0  0  0  0  0  0  0  0  0  0
   25.8450  -10.8822  -16.4324 C   0  0  0  0  0  0  0  0  0  0  0  0
   24.4903  -10.3397  -16.0617 C   0  0  2  0  0  0  0  0  0  0  0  0
   23.4000  -11.1203  -16.5717 N   0  0  0  0  0  0  0  0  0  0  0  0
   24.3383   -8.9073  -16.4711 C   0  0  0  0  0  0  0  0  0  0  0  0
   24.5681   -8.5948  -17.6677 O   0  0  0  0  0  0  0  0  0  0  0  0
   17.3789   -8.1399  -15.1994 O   0  0  0  0  0  0  0  0  0  0  0  0
   18.6518   -7.8023  -15.6666 C   0  0  0  0  0  0  0  0  0  0  0  0
   19.0290   -6.4838  -15.8314 C   0  0  0  0  0  0  0  0  0  0  0  0
   20.2823   -6.1433  -16.2914 C   0  0  0  0  0  0  0  0  0  0  0  0
   21.2154   -7.1086  -16.6075 C   0  0  0  0  0  0  0  0  0  0  0  0
   22.5612   -6.7247  -17.1061 C   0  0  0  0  0  0  0  0  0  0  0  0
   23.5759   -6.5434  -15.9994 C   0  0  2  0  0  0  0  0  0  0  0  0
   23.9509   -7.8994  -15.5786 N   0  0  0  0  0  0  0  0  0  0  0  0
   23.0715   -5.7599  -14.8671 C   0  0  0  0  0  0  0  0  0  0  0  0
   22.9736   -6.3055  -13.6021 O   0  0  0  0  0  0  0  0  0  0  0  0
   20.8425   -8.4272  -16.4444 C   0  0  0  0  0  0  0  0  0  0  0  0
   19.5980   -8.7519  -15.9878 C   0  0  0  0  0  0  0  0  0  0  0  0
   22.7202   -4.5709  -15.0423 O   0  0  0  0  0  0  0  0  0  0  0  0
  2  1  1  1
  2  3  1  0
  4  3  1  0
  4  5  2  0
  6  5  1  0
  7  6  1  0
  8  7  2  0
  8  4  1  0
  9  2  1  0
 10  9  2  0
 11 12  1  0
 12 14  1  0
 13 12  2  0
 15 14  1  6
 15 16  1  0
 16  9  1  0
 17 15  1  0
 17 18  2  0
 20 19  1  0
 21 20  2  0
 22 21  1  0
 23 29  1  0
 23 22  2  0
 25 24  1  6
 24 23  1  0
 25 26  1  0
 26 17  1  0
 27 25  1  0
 28 27  1  0
 29 30  2  0
 30 20  1  0
 31 27  2  0
M  END
$$$$
