HNY.pdb
     RDKit          3D

 31 32  0  0  1  0  0  0  0  0999 V2000
   24.3008  -20.6766  -19.3530 N   0  0  0  0  0  0  0  0  0  0  0  0
   24.2556  -19.6910  -18.2813 C   0  0  1  0  0  0  0  0  0  0  0  0
   24.2078  -18.3148  -18.8857 C   0  0  0  0  0  0  0  0  0  0  0  0
   25.4215  -17.9721  -19.6624 C   0  0  0  0  0  0  0  0  0  0  0  0
   26.6615  -17.5777  -19.1835 C   0  0  0  0  0  0  0  0  0  0  0  0
   27.5028  -17.3546  -20.2036 N   0  0  0  0  0  0  0  0  0  0  0  0
   26.8157  -17.6016  -21.3320 C   0  0  0  0  0  0  0  0  0  0  0  0
   25.5676  -17.9723  -21.0202 N   0  0  0  0  0  0  0  0  0  0  0  0
   23.1459  -20.0091  -17.3846 C   0  0  0  0  0  0  0  0  0  0  0  0
   22.0568  -20.4047  -17.9274 O   0  0  0  0  0  0  0  0  0  0  0  0
   20.1394  -20.5850  -13.1649 N   0  0  0  0  0  0  0  0  0  0  0  0
   21.4798  -20.9114  -12.8405 C   0  0  0  0  0  0  0  0  0  0  0  0
   21.7126  -21.4960  -11.7550 O   0  0  0  0  0  0  0  0  0  0  0  0
   22.5944  -20.5897  -13.7274 C   0  0  0  0  0  0  0  0  0  0  0  0
   22.1747  -20.1949  -15.1185 C   0  0  2  0  0  0  0  0  0  0  0  0
   23.2759  -19.8834  -15.9838 N   0  0  0  0  0  0  0  0  0  0  0  0
   21.1946  -19.0629  -15.0991 C   0  0  0  0  0  0  0  0  0  0  0  0
   21.6331  -17.8873  -15.0100 O   0  0  0  0  0  0  0  0  0  0  0  0
   16.8510  -19.8363  -21.1575 O   0  0  0  0  0  0  0  0  0  0  0  0
   17.4257  -19.2498  -20.0268 C   0  0  0  0  0  0  0  0  0  0  0  0
   16.7138  -18.3701  -19.2347 C   0  0  0  0  0  0  0  0  0  0  0  0
   17.2737  -17.7882  -18.1184 C   0  0  0  0  0  0  0  0  0  0  0  0
   18.5730  -18.0610  -17.7445 C   0  0  0  0  0  0  0  0  0  0  0  0
   19.1631  -17.4220  -16.5401 C   0  0  0  0  0  0  0  0  0  0  0  0
   18.8397  -18.1567  -15.2584 C   0  0  2  0  0  0  0  0  0  0  0  0
   19.8092  -19.2566  -15.1758 N   0  0  0  0  0  0  0  0  0  0  0  0
   17.4637  -18.6609  -15.2053 C   0  0  0  0  0  0  0  0  0  0  0  0
   17.1968  -20.0070  -15.0498 O   0  0  0  0  0  0  0  0  0  0  0  0
   19.2877  -18.9392  -18.5332 C   0  0  0  0  0  0  0  0  0  0  0  0
   18.7220  -19.5095  -19.6367 C   0  0  0  0  0  0  0  0  0  0  0  0
   16.5052  -17.8611  -15.3023 O   0  0  0  0  0  0  0  0  0  0  0  0
  2  1  1  6
  2  3  1  0
  4  3  1  0
  4  5  2  0
  6  5  1  0
  7  6  1  0
  8  7  2  0
  8  4  1  0
  9  2  1  0
 10  9  2  0
 11 12  1  0
 12 14  1  0
 13 12  2  0
 15 14  1  1
 15 16  1  0
 16  9  1  0
 17 15  1  0
 17 18  2  0
 20 19  1  0
 21 20  2  0
 22 21  1  0
 23 29  1  0
 23 22  2  0
 25 24  1  6
 24 23  1  0
 25 26  1  0
 26 17  1  0
 27 25  1  0
 28 27  1  0
 29 30  2  0
 30 20  1  0
 31 27  2  0
M  END
$$$$
