HNY.pdb
     RDKit          3D

 31 32  0  0  1  0  0  0  0  0999 V2000
   32.9794  -28.9763  -19.5904 N   0  0  0  0  0  0  0  0  0  0  0  0
   33.0994  -30.3978  -19.8848 C   0  0  1  0  0  0  0  0  0  0  0  0
   34.4420  -30.8825  -19.4115 C   0  0  0  0  0  0  0  0  0  0  0  0
   35.5779  -30.2583  -20.1285 C   0  0  0  0  0  0  0  0  0  0  0  0
   36.2849  -29.1168  -19.7833 C   0  0  0  0  0  0  0  0  0  0  0  0
   37.2430  -28.8731  -20.6894 N   0  0  0  0  0  0  0  0  0  0  0  0
   37.1581  -29.8463  -21.6124 C   0  0  0  0  0  0  0  0  0  0  0  0
   36.1641  -30.6821  -21.2869 N   0  0  0  0  0  0  0  0  0  0  0  0
   31.9534  -31.1035  -19.3146 C   0  0  0  0  0  0  0  0  0  0  0  0
   32.0800  -32.3638  -19.1333 O   0  0  0  0  0  0  0  0  0  0  0  0
   28.5616  -32.4495  -15.1179 N   0  0  0  0  0  0  0  0  0  0  0  0
   29.0902  -32.5991  -16.4244 C   0  0  0  0  0  0  0  0  0  0  0  0
   28.7003  -33.5634  -17.1261 O   0  0  0  0  0  0  0  0  0  0  0  0
   30.0710  -31.6691  -16.9771 C   0  0  0  0  0  0  0  0  0  0  0  0
   29.6897  -31.1051  -18.3201 C   0  0  2  0  0  0  0  0  0  0  0  0
   30.7632  -30.4200  -18.9809 N   0  0  0  0  0  0  0  0  0  0  0  0
   28.4885  -30.2160  -18.2246 C   0  0  0  0  0  0  0  0  0  0  0  0
   28.6328  -29.0557  -17.7609 O   0  0  0  0  0  0  0  0  0  0  0  0
   20.3238  -27.0884  -19.9042 O   0  0  0  0  0  0  0  0  0  0  0  0
   21.4980  -27.8435  -19.8434 C   0  0  0  0  0  0  0  0  0  0  0  0
   22.6858  -27.3657  -20.3620 C   0  0  0  0  0  0  0  0  0  0  0  0
   23.8474  -28.1044  -20.3057 C   0  0  0  0  0  0  0  0  0  0  0  0
   23.8722  -29.3562  -19.7269 C   0  0  0  0  0  0  0  0  0  0  0  0
   25.1324  -30.1415  -19.6777 C   0  0  0  0  0  0  0  0  0  0  0  0
   26.0143  -29.7776  -18.5042 C   0  0  2  0  0  0  0  0  0  0  0  0
   27.2100  -30.6208  -18.6298 N   0  0  0  0  0  0  0  0  0  0  0  0
   25.3656  -29.9719  -17.2036 C   0  0  0  0  0  0  0  0  0  0  0  0
   25.3781  -31.1992  -16.5702 O   0  0  0  0  0  0  0  0  0  0  0  0
   22.6877  -29.8373  -19.2076 C   0  0  0  0  0  0  0  0  0  0  0  0
   21.5434  -29.0960  -19.2694 C   0  0  0  0  0  0  0  0  0  0  0  0
   24.7862  -29.0105  -16.6489 O   0  0  0  0  0  0  0  0  0  0  0  0
  2  1  1  1
  2  3  1  0
  4  3  1  0
  4  5  2  0
  6  5  1  0
  7  6  1  0
  8  7  2  0
  8  4  1  0
  9  2  1  0
 10  9  2  0
 11 12  1  0
 12 14  1  0
 13 12  2  0
 15 14  1  1
 15 16  1  0
 16  9  1  0
 17 15  1  0
 17 18  2  0
 20 19  1  0
 21 20  2  0
 22 21  1  0
 23 29  1  0
 23 22  2  0
 25 24  1  6
 24 23  1  0
 25 26  1  0
 26 17  1  0
 27 25  1  0
 28 27  1  0
 29 30  2  0
 30 20  1  0
 31 27  2  0
M  END
$$$$
