HNY.pdb
     RDKit          3D

 31 32  0  0  1  0  0  0  0  0999 V2000
   26.0175  -18.7940  -17.3231 N   0  0  0  0  0  0  0  0  0  0  0  0
   25.6497  -18.2599  -16.0187 C   0  0  1  0  0  0  0  0  0  0  0  0
   24.4035  -17.4310  -16.1645 C   0  0  0  0  0  0  0  0  0  0  0  0
   24.6242  -16.1624  -16.8966 C   0  0  0  0  0  0  0  0  0  0  0  0
   25.8089  -15.6747  -17.4265 C   0  0  0  0  0  0  0  0  0  0  0  0
   25.5996  -14.4880  -18.0149 N   0  0  0  0  0  0  0  0  0  0  0  0
   24.2931  -14.2092  -17.8681 C   0  0  0  0  0  0  0  0  0  0  0  0
   23.6985  -15.2052  -17.1996 N   0  0  0  0  0  0  0  0  0  0  0  0
   25.5496  -19.3601  -15.0616 C   0  0  0  0  0  0  0  0  0  0  0  0
   25.2197  -20.5054  -15.5270 O   0  0  0  0  0  0  0  0  0  0  0  0
   26.0099  -20.9834   -9.2060 N   0  0  0  0  0  0  0  0  0  0  0  0
   26.2838  -21.2242  -10.5755 C   0  0  0  0  0  0  0  0  0  0  0  0
   26.3585  -22.4109  -10.9760 O   0  0  0  0  0  0  0  0  0  0  0  0
   26.4810  -20.1380  -11.5313 C   0  0  0  0  0  0  0  0  0  0  0  0
   25.5938  -20.2229  -12.7449 C   0  0  2  0  0  0  0  0  0  0  0  0
   25.8063  -19.1618  -13.6868 N   0  0  0  0  0  0  0  0  0  0  0  0
   24.1468  -20.2980  -12.3668 C   0  0  0  0  0  0  0  0  0  0  0  0
   23.7847  -19.8055  -11.2674 O   0  0  0  0  0  0  0  0  0  0  0  0
   15.8159  -19.4760  -10.8781 O   0  0  0  0  0  0  0  0  0  0  0  0
   17.1583  -19.5186  -11.2637 C   0  0  0  0  0  0  0  0  0  0  0  0
   18.1556  -19.8232  -10.3576 C   0  0  0  0  0  0  0  0  0  0  0  0
   19.4812  -19.8673  -10.7304 C   0  0  0  0  0  0  0  0  0  0  0  0
   19.8686  -19.6080  -12.0285 C   0  0  0  0  0  0  0  0  0  0  0  0
   21.3028  -19.6558  -12.4133 C   0  0  0  0  0  0  0  0  0  0  0  0
   21.7693  -21.0420  -12.7980 C   0  0  2  0  0  0  0  0  0  0  0  0
   23.1781  -20.8936  -13.1850 N   0  0  0  0  0  0  0  0  0  0  0  0
   20.9847  -21.6427  -13.8815 C   0  0  0  0  0  0  0  0  0  0  0  0
   19.8619  -22.4031  -13.6198 O   0  0  0  0  0  0  0  0  0  0  0  0
   18.8755  -19.3032  -12.9368 C   0  0  0  0  0  0  0  0  0  0  0  0
   17.5657  -19.2627  -12.5555 C   0  0  0  0  0  0  0  0  0  0  0  0
   21.3332  -21.4674  -15.0713 O   0  0  0  0  0  0  0  0  0  0  0  0
  2  1  1  6
  2  3  1  0
  4  3  1  0
  4  5  2  0
  6  5  1  0
  7  6  1  0
  8  7  2  0
  8  4  1  0
  9  2  1  0
 10  9  2  0
 11 12  1  0
 12 14  1  0
 13 12  2  0
 15 14  1  1
 15 16  1  0
 16  9  1  0
 17 15  1  0
 17 18  2  0
 20 19  1  0
 21 20  2  0
 22 21  1  0
 23 29  1  0
 23 22  2  0
 25 24  1  6
 24 23  1  0
 25 26  1  0
 26 17  1  0
 27 25  1  0
 28 27  1  0
 29 30  2  0
 30 20  1  0
 31 27  2  0
M  END
$$$$
