HNY.pdb
     RDKit          3D

 31 32  0  0  1  0  0  0  0  0999 V2000
   19.0891  -12.2387  -18.4546 N   0  0  0  0  0  0  0  0  0  0  0  0
   19.6358  -10.8950  -18.5861 C   0  0  1  0  0  0  0  0  0  0  0  0
   18.7127  -10.0744  -19.4440 C   0  0  0  0  0  0  0  0  0  0  0  0
   18.6237  -10.5587  -20.8410 C   0  0  0  0  0  0  0  0  0  0  0  0
   19.0553   -9.9248  -21.9960 C   0  0  0  0  0  0  0  0  0  0  0  0
   18.7940  -10.6867  -23.0682 N   0  0  0  0  0  0  0  0  0  0  0  0
   18.1993  -11.8028  -22.6131 C   0  0  0  0  0  0  0  0  0  0  0  0
   18.0920  -11.7374  -21.2802 N   0  0  0  0  0  0  0  0  0  0  0  0
   19.8880  -10.3481  -17.2542 C   0  0  0  0  0  0  0  0  0  0  0  0
   18.8880  -10.2722  -16.4595 O   0  0  0  0  0  0  0  0  0  0  0  0
   23.4724  -12.3358  -15.4299 N   0  0  0  0  0  0  0  0  0  0  0  0
   22.5361  -11.4972  -14.7751 C   0  0  0  0  0  0  0  0  0  0  0  0
   21.6223  -12.0270  -14.0979 O   0  0  0  0  0  0  0  0  0  0  0  0
   22.6017  -10.0412  -14.8638 C   0  0  0  0  0  0  0  0  0  0  0  0
   21.4145   -9.4160  -15.5471 C   0  0  2  0  0  0  0  0  0  0  0  0
   21.1788   -9.9243  -16.8679 N   0  0  0  0  0  0  0  0  0  0  0  0
   21.5182   -7.9224  -15.5775 C   0  0  0  0  0  0  0  0  0  0  0  0
   22.1928   -7.3835  -16.4922 O   0  0  0  0  0  0  0  0  0  0  0  0
   17.5504   -6.7142   -9.3006 O   0  0  0  0  0  0  0  0  0  0  0  0
   18.0441   -6.3248  -10.5484 C   0  0  0  0  0  0  0  0  0  0  0  0
   17.6707   -6.9821  -11.7046 C   0  0  0  0  0  0  0  0  0  0  0  0
   18.1532   -6.6037  -12.9384 C   0  0  0  0  0  0  0  0  0  0  0  0
   19.0322   -5.5491  -13.0705 C   0  0  0  0  0  0  0  0  0  0  0  0
   19.5462   -5.1563  -14.4079 C   0  0  0  0  0  0  0  0  0  0  0  0
   20.9586   -5.6319  -14.6652 C   0  0  2  0  0  0  0  0  0  0  0  0
   20.8961   -7.0987  -14.6304 N   0  0  0  0  0  0  0  0  0  0  0  0
   21.9327   -5.1219  -13.6950 C   0  0  0  0  0  0  0  0  0  0  0  0
   22.2592   -3.7810  -13.6411 O   0  0  0  0  0  0  0  0  0  0  0  0
   19.4079   -4.8898  -11.9179 C   0  0  0  0  0  0  0  0  0  0  0  0
   18.9230   -5.2739  -10.7013 C   0  0  0  0  0  0  0  0  0  0  0  0
   22.4843   -5.9118  -12.8953 O   0  0  0  0  0  0  0  0  0  0  0  0
  2  1  1  1
  2  3  1  0
  4  3  1  0
  4  5  2  0
  6  5  1  0
  7  6  1  0
  8  7  2  0
  8  4  1  0
  9  2  1  0
 10  9  2  0
 11 12  1  0
 12 14  1  0
 13 12  2  0
 15 14  1  6
 15 16  1  0
 16  9  1  0
 17 15  1  0
 17 18  2  0
 20 19  1  0
 21 20  2  0
 22 21  1  0
 23 29  1  0
 23 22  2  0
 25 24  1  1
 24 23  1  0
 25 26  1  0
 26 17  1  0
 27 25  1  0
 28 27  1  0
 29 30  2  0
 30 20  1  0
 31 27  2  0
M  END
$$$$
