HNY.pdb
     RDKit          3D

 31 32  0  0  1  0  0  0  0  0999 V2000
   24.8972  -12.8120  -16.6718 N   0  0  0  0  0  0  0  0  0  0  0  0
   24.3423  -11.6480  -17.3494 C   0  0  1  0  0  0  0  0  0  0  0  0
   23.8705  -12.0584  -18.7171 C   0  0  0  0  0  0  0  0  0  0  0  0
   24.9439  -12.6328  -19.5607 C   0  0  0  0  0  0  0  0  0  0  0  0
   25.3893  -12.1919  -20.7974 C   0  0  0  0  0  0  0  0  0  0  0  0
   26.3787  -12.9803  -21.2419 N   0  0  0  0  0  0  0  0  0  0  0  0
   26.5729  -13.9225  -20.3034 C   0  0  0  0  0  0  0  0  0  0  0  0
   25.7190  -13.7245  -19.2914 N   0  0  0  0  0  0  0  0  0  0  0  0
   23.3182  -11.0425  -16.5002 C   0  0  0  0  0  0  0  0  0  0  0  0
   22.6380  -11.8328  -15.7587 O   0  0  0  0  0  0  0  0  0  0  0  0
   20.1642   -8.1977  -13.7693 N   0  0  0  0  0  0  0  0  0  0  0  0
   21.3989   -8.6944  -13.2821 C   0  0  0  0  0  0  0  0  0  0  0  0
   21.6021   -8.6958  -12.0440 O   0  0  0  0  0  0  0  0  0  0  0  0
   22.4380   -9.2029  -14.1732 C   0  0  0  0  0  0  0  0  0  0  0  0
   22.1097   -9.0661  -15.6362 C   0  0  2  0  0  0  0  0  0  0  0  0
   23.0942   -9.6479  -16.5025 N   0  0  0  0  0  0  0  0  0  0  0  0
   21.8642   -7.6384  -16.0158 C   0  0  0  0  0  0  0  0  0  0  0  0
   22.8524   -6.9066  -16.2806 O   0  0  0  0  0  0  0  0  0  0  0  0
   18.7671   -2.0216  -21.7364 O   0  0  0  0  0  0  0  0  0  0  0  0
   19.2857   -2.9562  -20.8363 C   0  0  0  0  0  0  0  0  0  0  0  0
   20.3435   -3.7746  -21.1818 C   0  0  0  0  0  0  0  0  0  0  0  0
   20.8602   -4.6982  -20.2997 C   0  0  0  0  0  0  0  0  0  0  0  0
   20.3405   -4.8443  -19.0304 C   0  0  0  0  0  0  0  0  0  0  0  0
   20.9067   -5.8478  -18.0926 C   0  0  0  0  0  0  0  0  0  0  0  0
   20.2935   -5.7835  -16.7116 C   0  0  2  0  0  0  0  0  0  0  0  0
   20.5805   -7.0821  -16.0889 N   0  0  0  0  0  0  0  0  0  0  0  0
   18.8527   -5.5112  -16.7244 C   0  0  0  0  0  0  0  0  0  0  0  0
   18.1616   -5.2418  -15.5593 O   0  0  0  0  0  0  0  0  0  0  0  0
   19.2836   -4.0287  -18.6812 C   0  0  0  0  0  0  0  0  0  0  0  0
   18.7805   -3.1174  -19.5639 C   0  0  0  0  0  0  0  0  0  0  0  0
   18.2285   -5.5211  -17.8098 O   0  0  0  0  0  0  0  0  0  0  0  0
  2  1  1  1
  2  3  1  0
  4  3  1  0
  4  5  2  0
  6  5  1  0
  7  6  1  0
  8  7  2  0
  8  4  1  0
  9  2  1  0
 10  9  2  0
 11 12  1  0
 12 14  1  0
 13 12  2  0
 15 14  1  1
 15 16  1  0
 16  9  1  0
 17 15  1  0
 17 18  2  0
 20 19  1  0
 21 20  2  0
 22 21  1  0
 23 29  1  0
 23 22  2  0
 25 24  1  6
 24 23  1  0
 25 26  1  0
 26 17  1  0
 27 25  1  0
 28 27  1  0
 29 30  2  0
 30 20  1  0
 31 27  2  0
M  END
$$$$
