HNY.pdb
     RDKit          3D

 31 32  0  0  1  0  0  0  0  0999 V2000
   36.5160  -36.5091   -9.7103 N   0  0  0  0  0  0  0  0  0  0  0  0
   35.7465  -35.5663   -8.9099 C   0  0  1  0  0  0  0  0  0  0  0  0
   34.6416  -34.9959   -9.7558 C   0  0  0  0  0  0  0  0  0  0  0  0
   35.1321  -34.1752  -10.8870 C   0  0  0  0  0  0  0  0  0  0  0  0
   34.9349  -34.3822  -12.2437 C   0  0  0  0  0  0  0  0  0  0  0  0
   35.5411  -33.4187  -12.9525 N   0  0  0  0  0  0  0  0  0  0  0  0
   36.1252  -32.5957  -12.0649 C   0  0  0  0  0  0  0  0  0  0  0  0
   35.8870  -33.0389  -10.8242 N   0  0  0  0  0  0  0  0  0  0  0  0
   35.3047  -36.2279   -7.6836 C   0  0  0  0  0  0  0  0  0  0  0  0
   34.9416  -37.4508   -7.7829 O   0  0  0  0  0  0  0  0  0  0  0  0
   34.6628  -35.6761   -1.7188 N   0  0  0  0  0  0  0  0  0  0  0  0
   35.1801  -36.4390   -2.7953 C   0  0  0  0  0  0  0  0  0  0  0  0
   35.2340  -37.6871   -2.6790 O   0  0  0  0  0  0  0  0  0  0  0  0
   35.6506  -35.8197   -4.0312 C   0  0  0  0  0  0  0  0  0  0  0  0
   34.8607  -36.2127   -5.2513 C   0  0  2  0  0  0  0  0  0  0  0  0
   35.2820  -35.5433   -6.4483 N   0  0  0  0  0  0  0  0  0  0  0  0
   33.3901  -36.0229   -5.0417 C   0  0  0  0  0  0  0  0  0  0  0  0
   32.8895  -34.8920   -5.2716 O   0  0  0  0  0  0  0  0  0  0  0  0
   24.9321  -38.2966   -3.1637 O   0  0  0  0  0  0  0  0  0  0  0  0
   26.2882  -38.2622   -3.4989 C   0  0  0  0  0  0  0  0  0  0  0  0
   26.7584  -38.8663   -4.6488 C   0  0  0  0  0  0  0  0  0  0  0  0
   28.0940  -38.8364   -4.9859 C   0  0  0  0  0  0  0  0  0  0  0  0
   29.0200  -38.1999   -4.1861 C   0  0  0  0  0  0  0  0  0  0  0  0
   30.4572  -38.1802   -4.5619 C   0  0  0  0  0  0  0  0  0  0  0  0
   31.1277  -36.8545   -4.2790 C   0  0  2  0  0  0  0  0  0  0  0  0
   32.5471  -37.0509   -4.6002 N   0  0  0  0  0  0  0  0  0  0  0  0
   30.9578  -36.3973   -2.8961 C   0  0  0  0  0  0  0  0  0  0  0  0
   31.9823  -36.4962   -1.9752 O   0  0  0  0  0  0  0  0  0  0  0  0
   28.5544  -37.5952   -3.0363 C   0  0  0  0  0  0  0  0  0  0  0  0
   27.2289  -37.6315   -2.7131 C   0  0  0  0  0  0  0  0  0  0  0  0
   29.8644  -35.9058   -2.5346 O   0  0  0  0  0  0  0  0  0  0  0  0
  2  1  1  6
  2  3  1  0
  4  3  1  0
  4  5  2  0
  6  5  1  0
  7  6  1  0
  8  7  2  0
  8  4  1  0
  9  2  1  0
 10  9  2  0
 11 12  1  0
 12 14  1  0
 13 12  2  0
 15 14  1  1
 15 16  1  0
 16  9  1  0
 17 15  1  0
 17 18  2  0
 20 19  1  0
 21 20  2  0
 22 21  1  0
 23 29  1  0
 23 22  2  0
 25 24  1  1
 24 23  1  0
 25 26  1  0
 26 17  1  0
 27 25  1  0
 28 27  1  0
 29 30  2  0
 30 20  1  0
 31 27  2  0
M  END
$$$$
