LTY.pdb
     RDKit          3D

 28 28  0  0  1  0  0  0  0  0999 V2000
    6.9786  -12.0465   19.2568 C   0  0  0  0  0  0  0  0  0  0  0  0
    7.3611  -13.3816   18.6775 C   0  0  1  0  0  0  0  0  0  0  0  0
    8.3129  -13.1287   17.5127 C   0  0  0  0  0  0  0  0  0  0  0  0
    7.9944  -14.2788   19.6939 C   0  0  0  0  0  0  0  0  0  0  0  0
    8.2524  -15.6746   19.2585 C   0  0  2  0  0  0  0  0  0  0  0  0
    7.0240  -16.3129   18.7654 N   0  0  0  0  0  0  0  0  0  0  0  0
    8.9554  -16.5712   20.1615 C   0  0  0  0  0  0  0  0  0  0  0  0
    8.3070  -17.2218   21.0539 O   0  0  0  0  0  0  0  0  0  0  0  0
   12.8579  -19.0529   21.7601 C   0  0  0  0  0  0  0  0  0  0  0  0
   12.3171  -18.1929   20.6365 C   0  0  1  0  0  0  0  0  0  0  0  0
   12.1885  -18.9464   19.5230 O   0  0  0  0  0  0  0  0  0  0  0  0
   11.0768  -17.5155   21.1416 C   0  0  2  0  0  0  0  0  0  0  0  0
   10.3538  -16.7960   20.1263 N   0  0  0  0  0  0  0  0  0  0  0  0
   11.2407  -16.8277   22.4199 C   0  0  0  0  0  0  0  0  0  0  0  0
   11.7223  -15.6771   22.5364 O   0  0  0  0  0  0  0  0  0  0  0  0
   10.6420  -14.3619   30.8733 O   0  0  0  0  0  0  0  0  0  0  0  0
   10.4357  -14.9092   29.6111 C   0  0  0  0  0  0  0  0  0  0  0  0
   10.4739  -16.2672   29.4174 C   0  0  0  0  0  0  0  0  0  0  0  0
   10.2675  -16.8004   28.1556 C   0  0  0  0  0  0  0  0  0  0  0  0
   10.0193  -16.0139   27.0570 C   0  0  0  0  0  0  0  0  0  0  0  0
    9.8008  -16.5483   25.6953 C   0  0  0  0  0  0  0  0  0  0  0  0
   11.0713  -16.7327   24.9341 C   0  0  2  0  0  0  0  0  0  0  0  0
   10.8529  -17.4246   23.6737 N   0  0  0  0  0  0  0  0  0  0  0  0
   12.0558  -17.4649   25.7371 C   0  0  0  0  0  0  0  0  0  0  0  0
   12.9281  -16.9431   26.4573 O   0  0  0  0  0  0  0  0  0  0  0  0
    9.9863  -14.6436   27.2802 C   0  0  0  0  0  0  0  0  0  0  0  0
   10.1906  -14.1112   28.5322 C   0  0  0  0  0  0  0  0  0  0  0  0
   12.0391  -18.8740   25.7137 O   0  0  0  0  0  0  0  0  0  0  0  0
  2  1  1  1
  2  4  1  0
  2  3  1  0
  4  5  1  0
  5  6  1  1
  7  5  1  0
  8  7  2  0
 10  9  1  1
 11 10  1  0
 12 13  1  6
 12 10  1  0
 13  7  1  0
 14 12  1  0
 15 14  2  0
 17 16  1  0
 17 27  2  0
 18 17  1  0
 19 18  2  0
 19 20  1  0
 20 26  2  0
 21 20  1  0
 22 21  1  1
 22 23  1  0
 23 14  1  0
 24 22  1  0
 24 28  1  0
 25 24  2  0
 26 27  1  0
M  END
$$$$
