LTY.pdb
     RDKit          3D

 28 28  0  0  1  0  0  0  0  0999 V2000
    7.8717  -12.1325   26.6913 C   0  0  0  0  0  0  0  0  0  0  0  0
    6.9265  -13.2931   26.5370 C   0  0  1  0  0  0  0  0  0  0  0  0
    5.5654  -12.8600   27.0724 C   0  0  0  0  0  0  0  0  0  0  0  0
    6.8164  -13.7479   25.1157 C   0  0  0  0  0  0  0  0  0  0  0  0
    6.7039  -15.2138   24.9087 C   0  0  2  0  0  0  0  0  0  0  0  0
    6.1633  -15.8789   26.1023 N   0  0  0  0  0  0  0  0  0  0  0  0
    7.8595  -15.9413   24.4097 C   0  0  0  0  0  0  0  0  0  0  0  0
    8.4516  -16.7962   25.1570 O   0  0  0  0  0  0  0  0  0  0  0  0
   10.7746  -17.5710   20.8370 C   0  0  0  0  0  0  0  0  0  0  0  0
    9.5975  -16.6712   21.1525 C   0  0  1  0  0  0  0  0  0  0  0  0
    8.4811  -17.1891   20.5958 O   0  0  0  0  0  0  0  0  0  0  0  0
    9.5759  -16.4579   22.6378 C   0  0  2  0  0  0  0  0  0  0  0  0
    8.3986  -15.7778   23.1097 N   0  0  0  0  0  0  0  0  0  0  0  0
   10.8454  -16.0073   23.2030 C   0  0  0  0  0  0  0  0  0  0  0  0
   11.3210  -14.8620   23.0251 O   0  0  0  0  0  0  0  0  0  0  0  0
    9.7664  -16.2411   30.1000 O   0  0  0  0  0  0  0  0  0  0  0  0
   10.5229  -16.0023   28.9572 C   0  0  0  0  0  0  0  0  0  0  0  0
   11.6410  -16.7495   28.6837 C   0  0  0  0  0  0  0  0  0  0  0  0
   12.3866  -16.5018   27.5428 C   0  0  0  0  0  0  0  0  0  0  0  0
   12.0521  -15.5166   26.6458 C   0  0  0  0  0  0  0  0  0  0  0  0
   12.8280  -15.2207   25.4218 C   0  0  0  0  0  0  0  0  0  0  0  0
   12.9598  -16.4021   24.5192 C   0  0  2  0  0  0  0  0  0  0  0  0
   11.6685  -16.8561   24.0281 N   0  0  0  0  0  0  0  0  0  0  0  0
   13.6452  -17.5035   25.2027 C   0  0  0  0  0  0  0  0  0  0  0  0
   13.1476  -18.6189   25.4481 O   0  0  0  0  0  0  0  0  0  0  0  0
   10.9169  -14.7752   26.9461 C   0  0  0  0  0  0  0  0  0  0  0  0
   10.1742  -15.0190   28.0782 C   0  0  0  0  0  0  0  0  0  0  0  0
   14.9757  -17.3162   25.6282 O   0  0  0  0  0  0  0  0  0  0  0  0
  2  1  1  6
  2  4  1  0
  2  3  1  0
  4  5  1  0
  5  6  1  1
  7  5  1  0
  8  7  2  0
 10  9  1  1
 11 10  1  0
 12 13  1  6
 12 10  1  0
 13  7  1  0
 14 12  1  0
 15 14  2  0
 17 16  1  0
 17 27  2  0
 18 17  1  0
 19 18  2  0
 19 20  1  0
 20 26  2  0
 21 20  1  0
 22 21  1  1
 22 23  1  0
 23 14  1  0
 24 22  1  0
 24 28  1  0
 25 24  2  0
 26 27  1  0
M  END
$$$$
