LTY.pdb
     RDKit          3D

 28 28  0  0  1  0  0  0  0  0999 V2000
    7.1110  -13.0357   17.8589 C   0  0  0  0  0  0  0  0  0  0  0  0
    8.2516  -13.3733   18.7804 C   0  0  1  0  0  0  0  0  0  0  0  0
    8.1935  -12.4139   19.9648 C   0  0  0  0  0  0  0  0  0  0  0  0
    8.2007  -14.7943   19.2467 C   0  0  0  0  0  0  0  0  0  0  0  0
    9.0199  -15.1162   20.4424 C   0  0  2  0  0  0  0  0  0  0  0  0
   10.2073  -14.2540   20.5206 N   0  0  0  0  0  0  0  0  0  0  0  0
    9.3891  -16.5011   20.6862 C   0  0  0  0  0  0  0  0  0  0  0  0
    8.5034  -17.4234   20.6159 O   0  0  0  0  0  0  0  0  0  0  0  0
   12.0038  -20.4109   20.5072 C   0  0  0  0  0  0  0  0  0  0  0  0
   11.7045  -18.9857   20.0902 C   0  0  1  0  0  0  0  0  0  0  0  0
   11.0080  -18.9986   18.9330 O   0  0  0  0  0  0  0  0  0  0  0  0
   11.0615  -18.2976   21.2587 C   0  0  2  0  0  0  0  0  0  0  0  0
   10.7030  -16.9279   21.0005 N   0  0  0  0  0  0  0  0  0  0  0  0
   11.7043  -18.5598   22.5441 C   0  0  0  0  0  0  0  0  0  0  0  0
   12.6952  -17.9234   22.9713 O   0  0  0  0  0  0  0  0  0  0  0  0
    6.7314  -16.0319   25.8294 O   0  0  0  0  0  0  0  0  0  0  0  0
    7.7392  -16.9908   25.8319 C   0  0  0  0  0  0  0  0  0  0  0  0
    9.0165  -16.6694   26.2174 C   0  0  0  0  0  0  0  0  0  0  0  0
   10.0117  -17.6329   26.2151 C   0  0  0  0  0  0  0  0  0  0  0  0
    9.7762  -18.9319   25.8351 C   0  0  0  0  0  0  0  0  0  0  0  0
   10.8153  -19.9842   25.8146 C   0  0  0  0  0  0  0  0  0  0  0  0
   11.8439  -19.7627   24.7560 C   0  0  2  0  0  0  0  0  0  0  0  0
   11.2425  -19.5876   23.4435 N   0  0  0  0  0  0  0  0  0  0  0  0
   12.7987  -20.8749   24.7191 C   0  0  0  0  0  0  0  0  0  0  0  0
   12.7431  -21.8455   23.9402 O   0  0  0  0  0  0  0  0  0  0  0  0
    8.4759  -19.2306   25.4495 C   0  0  0  0  0  0  0  0  0  0  0  0
    7.4853  -18.2759   25.4510 C   0  0  0  0  0  0  0  0  0  0  0  0
   13.8780  -20.8744   25.6255 O   0  0  0  0  0  0  0  0  0  0  0  0
  2  1  1  6
  2  4  1  0
  2  3  1  0
  4  5  1  0
  5  6  1  6
  7  5  1  0
  8  7  2  0
 10  9  1  1
 11 10  1  0
 12 13  1  6
 12 10  1  0
 13  7  1  0
 14 12  1  0
 15 14  2  0
 17 16  1  0
 17 27  2  0
 18 17  1  0
 19 18  2  0
 19 20  1  0
 20 26  2  0
 21 20  1  0
 22 21  1  1
 22 23  1  0
 23 14  1  0
 24 22  1  0
 24 28  1  0
 25 24  2  0
 26 27  1  0
M  END
$$$$
