LTY.pdb
     RDKit          3D

 28 28  0  0  1  0  0  0  0  0999 V2000
    6.1349  -12.5439   17.5804 C   0  0  0  0  0  0  0  0  0  0  0  0
    7.4542  -13.2452   17.7586 C   0  0  1  0  0  0  0  0  0  0  0  0
    8.5558  -12.1934   17.6774 C   0  0  0  0  0  0  0  0  0  0  0  0
    7.5281  -13.9909   19.0537 C   0  0  0  0  0  0  0  0  0  0  0  0
    8.8531  -14.5650   19.3991 C   0  0  2  0  0  0  0  0  0  0  0  0
    9.5364  -15.0803   18.2045 N   0  0  0  0  0  0  0  0  0  0  0  0
    8.9367  -15.5326   20.4809 C   0  0  0  0  0  0  0  0  0  0  0  0
    8.2009  -15.3984   21.5204 O   0  0  0  0  0  0  0  0  0  0  0  0
    9.6444  -19.4280   19.9401 C   0  0  0  0  0  0  0  0  0  0  0  0
   10.4420  -18.9423   21.1329 C   0  0  1  0  0  0  0  0  0  0  0  0
   11.7580  -18.9756   20.8303 O   0  0  0  0  0  0  0  0  0  0  0  0
    9.8765  -17.6148   21.5456 C   0  0  2  0  0  0  0  0  0  0  0  0
    9.7957  -16.6593   20.4725 N   0  0  0  0  0  0  0  0  0  0  0  0
   10.3873  -17.1083   22.8170 C   0  0  0  0  0  0  0  0  0  0  0  0
   11.3317  -16.2908   22.9135 O   0  0  0  0  0  0  0  0  0  0  0  0
   11.0813  -14.2857   31.1194 O   0  0  0  0  0  0  0  0  0  0  0  0
   10.6471  -14.7552   29.8840 C   0  0  0  0  0  0  0  0  0  0  0  0
   10.3524  -16.0826   29.6988 C   0  0  0  0  0  0  0  0  0  0  0  0
    9.9214  -16.5383   28.4637 C   0  0  0  0  0  0  0  0  0  0  0  0
    9.7702  -15.7026   27.3839 C   0  0  0  0  0  0  0  0  0  0  0  0
    9.3187  -16.1555   26.0502 C   0  0  0  0  0  0  0  0  0  0  0  0
   10.3473  -16.9662   25.3343 C   0  0  2  0  0  0  0  0  0  0  0  0
    9.8362  -17.5115   24.0868 N   0  0  0  0  0  0  0  0  0  0  0  0
   10.8364  -18.0541   26.1871 C   0  0  0  0  0  0  0  0  0  0  0  0
   10.3243  -19.1864   26.2737 O   0  0  0  0  0  0  0  0  0  0  0  0
   10.0752  -14.3648   27.5979 C   0  0  0  0  0  0  0  0  0  0  0  0
   10.5031  -13.9092   28.8234 C   0  0  0  0  0  0  0  0  0  0  0  0
   11.9768  -17.8319   26.9849 O   0  0  0  0  0  0  0  0  0  0  0  0
  2  1  1  1
  2  4  1  0
  2  3  1  0
  4  5  1  0
  5  6  1  6
  7  5  1  0
  8  7  2  0
 10  9  1  6
 11 10  1  0
 12 13  1  6
 12 10  1  0
 13  7  1  0
 14 12  1  0
 15 14  2  0
 17 16  1  0
 17 27  2  0
 18 17  1  0
 19 18  2  0
 19 20  1  0
 20 26  2  0
 21 20  1  0
 22 21  1  1
 22 23  1  0
 23 14  1  0
 24 22  1  0
 24 28  1  0
 25 24  2  0
 26 27  1  0
M  END
$$$$
