LTY.pdb
     RDKit          3D

 28 28  0  0  1  0  0  0  0  0999 V2000
    7.0727  -11.8623   19.2355 C   0  0  0  0  0  0  0  0  0  0  0  0
    7.6813  -13.1052   18.6446 C   0  0  1  0  0  0  0  0  0  0  0  0
    9.1214  -12.7815   18.2600 C   0  0  0  0  0  0  0  0  0  0  0  0
    7.6331  -14.2635   19.5906 C   0  0  0  0  0  0  0  0  0  0  0  0
    8.2455  -15.5259   19.1049 C   0  0  2  0  0  0  0  0  0  0  0  0
    7.3489  -16.2284   18.1765 N   0  0  0  0  0  0  0  0  0  0  0  0
    8.7914  -16.4588   20.0771 C   0  0  0  0  0  0  0  0  0  0  0  0
    8.0056  -17.1763   20.7897 O   0  0  0  0  0  0  0  0  0  0  0  0
   12.1851  -19.3289   21.9890 C   0  0  0  0  0  0  0  0  0  0  0  0
   11.7953  -18.4279   20.8354 C   0  0  1  0  0  0  0  0  0  0  0  0
   11.5073  -19.1876   19.7563 O   0  0  0  0  0  0  0  0  0  0  0  0
   10.7136  -17.5093   21.3237 C   0  0  2  0  0  0  0  0  0  0  0  0
   10.1772  -16.6492   20.3021 N   0  0  0  0  0  0  0  0  0  0  0  0
   10.9915  -16.8779   22.6114 C   0  0  0  0  0  0  0  0  0  0  0  0
   11.6906  -15.8472   22.7467 O   0  0  0  0  0  0  0  0  0  0  0  0
   10.6970  -14.3708   31.0747 O   0  0  0  0  0  0  0  0  0  0  0  0
   10.4189  -14.8663   29.8049 C   0  0  0  0  0  0  0  0  0  0  0  0
   10.1810  -14.0169   28.7537 C   0  0  0  0  0  0  0  0  0  0  0  0
    9.9045  -14.5223   27.4939 C   0  0  0  0  0  0  0  0  0  0  0  0
    9.8554  -15.8711   27.2378 C   0  0  0  0  0  0  0  0  0  0  0  0
    9.5573  -16.4454   25.9077 C   0  0  0  0  0  0  0  0  0  0  0  0
   10.7874  -16.7570   25.1219 C   0  0  2  0  0  0  0  0  0  0  0  0
   10.4734  -17.3953   23.8535 N   0  0  0  0  0  0  0  0  0  0  0  0
   11.6946  -17.6109   25.8951 C   0  0  0  0  0  0  0  0  0  0  0  0
   11.6104  -18.8502   25.9899 O   0  0  0  0  0  0  0  0  0  0  0  0
   10.0995  -16.7085   28.3184 C   0  0  0  0  0  0  0  0  0  0  0  0
   10.3746  -16.2096   29.5705 C   0  0  0  0  0  0  0  0  0  0  0  0
   12.7583  -17.0108   26.5985 O   0  0  0  0  0  0  0  0  0  0  0  0
  2  1  1  1
  2  4  1  0
  2  3  1  0
  4  5  1  0
  5  6  1  1
  7  5  1  0
  8  7  2  0
 10  9  1  1
 11 10  1  0
 12 13  1  6
 12 10  1  0
 13  7  1  0
 14 12  1  0
 15 14  2  0
 17 16  1  0
 17 27  2  0
 18 17  1  0
 19 18  2  0
 19 20  1  0
 20 26  2  0
 21 20  1  0
 22 21  1  1
 22 23  1  0
 23 14  1  0
 24 22  1  0
 24 28  1  0
 25 24  2  0
 26 27  1  0
M  END
$$$$
