LTY.pdb
     RDKit          3D

 28 28  0  0  1  0  0  0  0  0999 V2000
    9.2757  -13.1570   19.0221 C   0  0  0  0  0  0  0  0  0  0  0  0
    7.9191  -13.4226   19.6166 C   0  0  1  0  0  0  0  0  0  0  0  0
    7.1349  -12.1146   19.5914 C   0  0  0  0  0  0  0  0  0  0  0  0
    7.1805  -14.4974   18.8830 C   0  0  0  0  0  0  0  0  0  0  0  0
    7.7535  -15.8636   18.9808 C   0  0  2  0  0  0  0  0  0  0  0  0
    6.9624  -16.8283   18.2043 N   0  0  0  0  0  0  0  0  0  0  0  0
    8.0531  -16.4048   20.2965 C   0  0  0  0  0  0  0  0  0  0  0  0
    7.1019  -16.6924   21.1042 O   0  0  0  0  0  0  0  0  0  0  0  0
   10.9633  -19.0158   21.2594 C   0  0  0  0  0  0  0  0  0  0  0  0
    9.8185  -18.6288   22.1728 C   0  0  1  0  0  0  0  0  0  0  0  0
   10.0316  -19.1541   23.3988 O   0  0  0  0  0  0  0  0  0  0  0  0
    9.6603  -17.1385   22.0940 C   0  0  2  0  0  0  0  0  0  0  0  0
    9.3644  -16.6552   20.7711 N   0  0  0  0  0  0  0  0  0  0  0  0
   10.6620  -16.3831   22.8424 C   0  0  0  0  0  0  0  0  0  0  0  0
   11.6553  -15.8298   22.3164 O   0  0  0  0  0  0  0  0  0  0  0  0
   10.3553  -16.3592   31.2511 O   0  0  0  0  0  0  0  0  0  0  0  0
   10.5345  -15.9113   29.9463 C   0  0  0  0  0  0  0  0  0  0  0  0
   11.2945  -16.6254   29.0544 C   0  0  0  0  0  0  0  0  0  0  0  0
   11.4661  -16.1688   27.7579 C   0  0  0  0  0  0  0  0  0  0  0  0
   10.8963  -15.0026   27.3081 C   0  0  0  0  0  0  0  0  0  0  0  0
   11.0633  -14.4823   25.9336 C   0  0  0  0  0  0  0  0  0  0  0  0
   11.6297  -15.4952   24.9951 C   0  0  2  0  0  0  0  0  0  0  0  0
   10.5878  -16.2063   24.2714 N   0  0  0  0  0  0  0  0  0  0  0  0
   12.4756  -16.4530   25.7141 C   0  0  0  0  0  0  0  0  0  0  0  0
   12.1616  -17.6273   25.9868 O   0  0  0  0  0  0  0  0  0  0  0  0
   10.1326  -14.2991   28.2302 C   0  0  0  0  0  0  0  0  0  0  0  0
    9.9602  -14.7501   29.5184 C   0  0  0  0  0  0  0  0  0  0  0  0
   13.7534  -16.0421   26.1441 O   0  0  0  0  0  0  0  0  0  0  0  0
  2  1  1  6
  2  4  1  0
  2  3  1  0
  4  5  1  0
  5  6  1  1
  7  5  1  0
  8  7  2  0
 10  9  1  6
 11 10  1  0
 12 13  1  6
 12 10  1  0
 13  7  1  0
 14 12  1  0
 15 14  2  0
 17 16  1  0
 17 27  2  0
 18 17  1  0
 19 18  2  0
 19 20  1  0
 20 26  2  0
 21 20  1  0
 22 21  1  1
 22 23  1  0
 23 14  1  0
 24 22  1  0
 24 28  1  0
 25 24  2  0
 26 27  1  0
M  END
$$$$
