LTY.pdb
     RDKit          3D

 28 28  0  0  1  0  0  0  0  0999 V2000
    6.7554  -11.1321   26.7938 C   0  0  0  0  0  0  0  0  0  0  0  0
    6.1451  -12.3707   26.1957 C   0  0  1  0  0  0  0  0  0  0  0  0
    5.2850  -11.9412   25.0115 C   0  0  0  0  0  0  0  0  0  0  0  0
    7.1812  -13.3612   25.7663 C   0  0  0  0  0  0  0  0  0  0  0  0
    6.6687  -14.6429   25.2196 C   0  0  2  0  0  0  0  0  0  0  0  0
    5.8448  -15.3508   26.2092 N   0  0  0  0  0  0  0  0  0  0  0  0
    7.6061  -15.5634   24.5971 C   0  0  0  0  0  0  0  0  0  0  0  0
    8.0523  -16.5676   25.2548 O   0  0  0  0  0  0  0  0  0  0  0  0
   10.3380  -17.1741   20.8403 C   0  0  0  0  0  0  0  0  0  0  0  0
    9.2548  -16.1938   21.2407 C   0  0  1  0  0  0  0  0  0  0  0  0
    8.1108  -16.5081   20.5950 O   0  0  0  0  0  0  0  0  0  0  0  0
    9.1996  -16.1674   22.7402 C   0  0  2  0  0  0  0  0  0  0  0  0
    8.0775  -15.4364   23.2671 N   0  0  0  0  0  0  0  0  0  0  0  0
   10.4853  -15.9220   23.3888 C   0  0  0  0  0  0  0  0  0  0  0  0
   10.9334  -14.7793   23.6399 O   0  0  0  0  0  0  0  0  0  0  0  0
    8.8578  -14.9806   29.3778 O   0  0  0  0  0  0  0  0  0  0  0  0
    9.7960  -15.5351   28.5132 C   0  0  0  0  0  0  0  0  0  0  0  0
   10.7725  -14.7588   27.9415 C   0  0  0  0  0  0  0  0  0  0  0  0
   11.7009  -15.3223   27.0816 C   0  0  0  0  0  0  0  0  0  0  0  0
   11.6917  -16.6588   26.7637 C   0  0  0  0  0  0  0  0  0  0  0  0
   12.6626  -17.2925   25.8454 C   0  0  0  0  0  0  0  0  0  0  0  0
   12.6211  -16.7154   24.4695 C   0  0  2  0  0  0  0  0  0  0  0  0
   11.3583  -16.9920   23.8033 N   0  0  0  0  0  0  0  0  0  0  0  0
   13.7312  -17.2259   23.6589 C   0  0  0  0  0  0  0  0  0  0  0  0
   13.6117  -17.8816   22.6065 O   0  0  0  0  0  0  0  0  0  0  0  0
   10.6934  -17.4217   27.3553 C   0  0  0  0  0  0  0  0  0  0  0  0
    9.7703  -16.8649   28.2099 C   0  0  0  0  0  0  0  0  0  0  0  0
   15.0524  -16.9699   24.0778 O   0  0  0  0  0  0  0  0  0  0  0  0
  2  1  1  6
  2  4  1  0
  2  3  1  0
  4  5  1  0
  5  6  1  1
  7  5  1  0
  8  7  2  0
 10  9  1  1
 11 10  1  0
 12 13  1  6
 12 10  1  0
 13  7  1  0
 14 12  1  0
 15 14  2  0
 17 16  1  0
 17 27  2  0
 18 17  1  0
 19 18  2  0
 19 20  1  0
 20 26  2  0
 21 20  1  0
 22 21  1  1
 22 23  1  0
 23 14  1  0
 24 22  1  0
 24 28  1  0
 25 24  2  0
 26 27  1  0
M  END
$$$$
