LTY.pdb
     RDKit          3D

 28 28  0  0  1  0  0  0  0  0999 V2000
    7.2035  -12.2088   19.4041 C   0  0  0  0  0  0  0  0  0  0  0  0
    8.1320  -13.3889   19.3066 C   0  0  1  0  0  0  0  0  0  0  0  0
    9.5609  -12.8688   19.4269 C   0  0  0  0  0  0  0  0  0  0  0  0
    7.8523  -14.4171   20.3571 C   0  0  0  0  0  0  0  0  0  0  0  0
    8.7269  -15.6169   20.3422 C   0  0  2  0  0  0  0  0  0  0  0  0
    8.3693  -16.5212   19.2404 N   0  0  0  0  0  0  0  0  0  0  0  0
    8.9024  -16.3708   21.5727 C   0  0  0  0  0  0  0  0  0  0  0  0
    8.2372  -17.4479   21.7661 O   0  0  0  0  0  0  0  0  0  0  0  0
    9.3263  -18.7088   22.4002 C   0  0  0  0  0  0  0  0  0  0  0  0
   10.3907  -18.2593   23.3798 C   0  0  1  0  0  0  0  0  0  0  0  0
   11.6103  -18.5179   22.8599 O   0  0  0  0  0  0  0  0  0  0  0  0
   10.0989  -16.8326   23.7424 C   0  0  2  0  0  0  0  0  0  0  0  0
    9.7906  -15.9976   22.6116 N   0  0  0  0  0  0  0  0  0  0  0  0
   11.0099  -16.2609   24.7310 C   0  0  0  0  0  0  0  0  0  0  0  0
   12.2051  -16.6123   24.8637 O   0  0  0  0  0  0  0  0  0  0  0  0
    6.0237  -10.7517   26.0676 O   0  0  0  0  0  0  0  0  0  0  0  0
    6.6540  -11.9699   26.3001 C   0  0  0  0  0  0  0  0  0  0  0  0
    5.9313  -13.1340   26.3748 C   0  0  0  0  0  0  0  0  0  0  0  0
    6.5702  -14.3409   26.6074 C   0  0  0  0  0  0  0  0  0  0  0  0
    7.9310  -14.4324   26.7716 C   0  0  0  0  0  0  0  0  0  0  0  0
    8.6452  -15.7021   27.0274 C   0  0  0  0  0  0  0  0  0  0  0  0
   10.1295  -15.5512   26.9848 C   0  0  2  0  0  0  0  0  0  0  0  0
   10.6035  -15.2261   25.6490 N   0  0  0  0  0  0  0  0  0  0  0  0
   10.7890  -16.7709   27.4615 C   0  0  0  0  0  0  0  0  0  0  0  0
   11.5867  -16.8314   28.4165 O   0  0  0  0  0  0  0  0  0  0  0  0
    8.6386  -13.2401   26.6917 C   0  0  0  0  0  0  0  0  0  0  0  0
    8.0070  -12.0400   26.4606 C   0  0  0  0  0  0  0  0  0  0  0  0
   10.5187  -17.9897   26.8073 O   0  0  0  0  0  0  0  0  0  0  0  0
  2  1  1  1
  2  4  1  0
  2  3  1  0
  4  5  1  0
  5  6  1  6
  7  5  1  0
  8  7  2  0
 10  9  1  6
 11 10  1  0
 12 13  1  6
 12 10  1  0
 13  7  1  0
 14 12  1  0
 15 14  2  0
 17 16  1  0
 17 27  2  0
 18 17  1  0
 19 18  2  0
 19 20  1  0
 20 26  2  0
 21 20  1  0
 22 21  1  6
 22 23  1  0
 23 14  1  0
 24 22  1  0
 24 28  1  0
 25 24  2  0
 26 27  1  0
M  END
$$$$
