LTY.pdb
     RDKit          3D

 28 28  0  0  1  0  0  0  0  0999 V2000
    6.8769  -12.0286   18.9739 C   0  0  0  0  0  0  0  0  0  0  0  0
    7.5103  -13.3522   18.6404 C   0  0  1  0  0  0  0  0  0  0  0  0
    8.8613  -13.0717   17.9904 C   0  0  0  0  0  0  0  0  0  0  0  0
    7.6734  -14.2214   19.8474 C   0  0  0  0  0  0  0  0  0  0  0  0
    8.2574  -15.5652   19.6072 C   0  0  2  0  0  0  0  0  0  0  0  0
    7.3599  -16.3966   18.7932 N   0  0  0  0  0  0  0  0  0  0  0  0
    8.7539  -16.3261   20.7421 C   0  0  0  0  0  0  0  0  0  0  0  0
    7.9411  -16.7467   21.6379 O   0  0  0  0  0  0  0  0  0  0  0  0
   10.1339  -19.4689   21.1674 C   0  0  0  0  0  0  0  0  0  0  0  0
   11.1891  -18.6596   21.8928 C   0  0  1  0  0  0  0  0  0  0  0  0
   12.3514  -18.7304   21.2082 O   0  0  0  0  0  0  0  0  0  0  0  0
   10.6257  -17.2887   22.1285 C   0  0  2  0  0  0  0  0  0  0  0  0
   10.1172  -16.6577   20.9392 N   0  0  0  0  0  0  0  0  0  0  0  0
   11.4336  -16.4450   23.0056 C   0  0  0  0  0  0  0  0  0  0  0  0
   12.0987  -15.4605   22.6080 O   0  0  0  0  0  0  0  0  0  0  0  0
   10.3317  -16.2312   31.2492 O   0  0  0  0  0  0  0  0  0  0  0  0
   10.6877  -15.8675   29.9546 C   0  0  0  0  0  0  0  0  0  0  0  0
   10.1880  -14.7254   29.3810 C   0  0  0  0  0  0  0  0  0  0  0  0
   10.5494  -14.3741   28.0908 C   0  0  0  0  0  0  0  0  0  0  0  0
   11.4083  -15.1347   27.3353 C   0  0  0  0  0  0  0  0  0  0  0  0
   11.8107  -14.7935   25.9535 C   0  0  0  0  0  0  0  0  0  0  0  0
   12.4716  -15.9288   25.2450 C   0  0  2  0  0  0  0  0  0  0  0  0
   11.5320  -16.6771   24.4251 N   0  0  0  0  0  0  0  0  0  0  0  0
   13.1213  -16.8300   26.2019 C   0  0  0  0  0  0  0  0  0  0  0  0
   14.0555  -16.5176   26.9645 O   0  0  0  0  0  0  0  0  0  0  0  0
   11.8993  -16.2851   27.9388 C   0  0  0  0  0  0  0  0  0  0  0  0
   11.5424  -16.6364   29.2201 C   0  0  0  0  0  0  0  0  0  0  0  0
   12.6748  -18.1639   26.2902 O   0  0  0  0  0  0  0  0  0  0  0  0
  2  1  1  1
  2  4  1  0
  2  3  1  0
  4  5  1  0
  5  6  1  1
  7  5  1  0
  8  7  2  0
 10  9  1  6
 11 10  1  0
 12 13  1  6
 12 10  1  0
 13  7  1  0
 14 12  1  0
 15 14  2  0
 17 16  1  0
 17 27  2  0
 18 17  1  0
 19 18  2  0
 19 20  1  0
 20 26  2  0
 21 20  1  0
 22 21  1  1
 22 23  1  0
 23 14  1  0
 24 22  1  0
 24 28  1  0
 25 24  2  0
 26 27  1  0
M  END
$$$$
