LTY.pdb
     RDKit          3D

 28 28  0  0  1  0  0  0  0  0999 V2000
    6.4578  -12.3265   17.7476 C   0  0  0  0  0  0  0  0  0  0  0  0
    7.5466  -13.3562   17.8831 C   0  0  1  0  0  0  0  0  0  0  0  0
    8.5860  -13.0805   16.8014 C   0  0  0  0  0  0  0  0  0  0  0  0
    8.1767  -13.3380   19.2402 C   0  0  0  0  0  0  0  0  0  0  0  0
    9.2330  -14.3534   19.4805 C   0  0  2  0  0  0  0  0  0  0  0  0
    9.5444  -15.0969   18.2519 N   0  0  0  0  0  0  0  0  0  0  0  0
    9.0806  -15.2716   20.5972 C   0  0  0  0  0  0  0  0  0  0  0  0
    8.5834  -14.8603   21.7034 O   0  0  0  0  0  0  0  0  0  0  0  0
    8.7935  -19.3527   20.1870 C   0  0  0  0  0  0  0  0  0  0  0  0
    9.6746  -18.9580   21.3542 C   0  0  1  0  0  0  0  0  0  0  0  0
   10.9590  -19.2568   21.0619 O   0  0  0  0  0  0  0  0  0  0  0  0
    9.3722  -17.5260   21.6860 C   0  0  2  0  0  0  0  0  0  0  0  0
    9.4463  -16.6398   20.5545 N   0  0  0  0  0  0  0  0  0  0  0  0
    9.9943  -17.0456   22.9174 C   0  0  0  0  0  0  0  0  0  0  0  0
   11.1045  -16.4666   22.9583 O   0  0  0  0  0  0  0  0  0  0  0  0
   11.2206  -14.5516   31.3348 O   0  0  0  0  0  0  0  0  0  0  0  0
   10.6903  -14.8797   30.0912 C   0  0  0  0  0  0  0  0  0  0  0  0
   10.6203  -13.9471   29.0870 C   0  0  0  0  0  0  0  0  0  0  0  0
   10.0896  -14.2856   27.8530 C   0  0  0  0  0  0  0  0  0  0  0  0
    9.6163  -15.5454   27.5772 C   0  0  0  0  0  0  0  0  0  0  0  0
    9.0379  -15.9398   26.2743 C   0  0  0  0  0  0  0  0  0  0  0  0
   10.0032  -16.6841   25.4130 C   0  0  2  0  0  0  0  0  0  0  0  0
    9.3708  -17.1979   24.2084 N   0  0  0  0  0  0  0  0  0  0  0  0
   10.6201  -17.7865   26.1576 C   0  0  0  0  0  0  0  0  0  0  0  0
   11.6477  -17.6968   26.8560 O   0  0  0  0  0  0  0  0  0  0  0  0
    9.6985  -16.4699   28.6103 C   0  0  0  0  0  0  0  0  0  0  0  0
   10.2253  -16.1367   29.8367 C   0  0  0  0  0  0  0  0  0  0  0  0
   10.0254  -19.0629   26.0988 O   0  0  0  0  0  0  0  0  0  0  0  0
  2  1  1  1
  2  4  1  0
  2  3  1  0
  4  5  1  0
  5  6  1  6
  7  5  1  0
  8  7  2  0
 10  9  1  6
 11 10  1  0
 12 13  1  6
 12 10  1  0
 13  7  1  0
 14 12  1  0
 15 14  2  0
 17 16  1  0
 17 27  2  0
 18 17  1  0
 19 18  2  0
 19 20  1  0
 20 26  2  0
 21 20  1  0
 22 21  1  1
 22 23  1  0
 23 14  1  0
 24 22  1  0
 24 28  1  0
 25 24  2  0
 26 27  1  0
M  END
$$$$
