LTY.pdb
     RDKit          3D

 28 28  0  0  1  0  0  0  0  0999 V2000
    6.6368  -12.3473   19.6245 C   0  0  0  0  0  0  0  0  0  0  0  0
    7.6974  -13.4063   19.4914 C   0  0  1  0  0  0  0  0  0  0  0  0
    9.0455  -12.7032   19.3700 C   0  0  0  0  0  0  0  0  0  0  0  0
    7.6973  -14.3556   20.6481 C   0  0  0  0  0  0  0  0  0  0  0  0
    8.6946  -15.4540   20.5882 C   0  0  2  0  0  0  0  0  0  0  0  0
    8.4758  -16.3065   19.4115 N   0  0  0  0  0  0  0  0  0  0  0  0
    8.9043  -16.2746   21.7698 C   0  0  0  0  0  0  0  0  0  0  0  0
    7.9922  -17.0852   22.1585 O   0  0  0  0  0  0  0  0  0  0  0  0
   10.7721  -19.0573   22.4499 C   0  0  0  0  0  0  0  0  0  0  0  0
   11.2783  -18.1577   23.5585 C   0  0  1  0  0  0  0  0  0  0  0  0
   12.5511  -17.7944   23.2892 O   0  0  0  0  0  0  0  0  0  0  0  0
   10.2814  -17.0496   23.7333 C   0  0  2  0  0  0  0  0  0  0  0  0
   10.0861  -16.2526   22.5510 N   0  0  0  0  0  0  0  0  0  0  0  0
   10.4093  -16.3128   24.9882 C   0  0  0  0  0  0  0  0  0  0  0  0
   11.0539  -15.2452   25.1079 O   0  0  0  0  0  0  0  0  0  0  0  0
    6.7804  -11.0709   25.0882 O   0  0  0  0  0  0  0  0  0  0  0  0
    7.2803  -12.1464   25.8152 C   0  0  0  0  0  0  0  0  0  0  0  0
    8.5163  -12.0824   26.4080 C   0  0  0  0  0  0  0  0  0  0  0  0
    9.0036  -13.1602   27.1289 C   0  0  0  0  0  0  0  0  0  0  0  0
    8.2898  -14.3236   27.2841 C   0  0  0  0  0  0  0  0  0  0  0  0
    8.7813  -15.4955   28.0410 C   0  0  0  0  0  0  0  0  0  0  0  0
   10.0348  -16.0702   27.4701 C   0  0  2  0  0  0  0  0  0  0  0  0
    9.7920  -16.7588   26.2124 N   0  0  0  0  0  0  0  0  0  0  0  0
   10.6662  -16.9879   28.4236 C   0  0  0  0  0  0  0  0  0  0  0  0
   10.8386  -18.2082   28.2416 O   0  0  0  0  0  0  0  0  0  0  0  0
    7.0427  -14.3625   26.6742 C   0  0  0  0  0  0  0  0  0  0  0  0
    6.5560  -13.2936   25.9579 C   0  0  0  0  0  0  0  0  0  0  0  0
   11.1265  -16.4783   29.6544 O   0  0  0  0  0  0  0  0  0  0  0  0
  2  1  1  1
  2  4  1  0
  2  3  1  0
  4  5  1  0
  5  6  1  6
  7  5  1  0
  8  7  2  0
 10  9  1  6
 11 10  1  0
 12 13  1  6
 12 10  1  0
 13  7  1  0
 14 12  1  0
 15 14  2  0
 17 16  1  0
 17 27  2  0
 18 17  1  0
 19 18  2  0
 19 20  1  0
 20 26  2  0
 21 20  1  0
 22 21  1  1
 22 23  1  0
 23 14  1  0
 24 22  1  0
 24 28  1  0
 25 24  2  0
 26 27  1  0
M  END
$$$$
