LTY.pdb
     RDKit          3D

 28 28  0  0  1  0  0  0  0  0999 V2000
    7.5429  -11.7798   19.8424 C   0  0  0  0  0  0  0  0  0  0  0  0
    7.8456  -13.2460   19.6910 C   0  0  1  0  0  0  0  0  0  0  0  0
    9.2172  -13.3735   19.0360 C   0  0  0  0  0  0  0  0  0  0  0  0
    7.8150  -13.9681   21.0012 C   0  0  0  0  0  0  0  0  0  0  0  0
    8.1288  -15.4185   20.9520 C   0  0  2  0  0  0  0  0  0  0  0  0
    7.1884  -16.1361   20.0801 N   0  0  0  0  0  0  0  0  0  0  0  0
    8.3038  -16.1400   22.2019 C   0  0  0  0  0  0  0  0  0  0  0  0
    7.2825  -16.5755   22.8402 O   0  0  0  0  0  0  0  0  0  0  0  0
    9.4784  -19.3074   22.9485 C   0  0  0  0  0  0  0  0  0  0  0  0
   10.3754  -18.4847   23.8502 C   0  0  1  0  0  0  0  0  0  0  0  0
   11.6337  -18.5010   23.3594 O   0  0  0  0  0  0  0  0  0  0  0  0
    9.7337  -17.1389   24.0213 C   0  0  2  0  0  0  0  0  0  0  0  0
    9.5636  -16.4159   22.7886 N   0  0  0  0  0  0  0  0  0  0  0  0
   10.2411  -16.3658   25.1522 C   0  0  0  0  0  0  0  0  0  0  0  0
   11.0927  -15.4530   25.0473 O   0  0  0  0  0  0  0  0  0  0  0  0
    6.1979  -11.4903   25.3110 O   0  0  0  0  0  0  0  0  0  0  0  0
    6.9561  -12.3760   26.0698 C   0  0  0  0  0  0  0  0  0  0  0  0
    8.1983  -12.0220   26.5333 C   0  0  0  0  0  0  0  0  0  0  0  0
    8.9441  -12.9129   27.2875 C   0  0  0  0  0  0  0  0  0  0  0  0
    8.4883  -14.1698   27.6033 C   0  0  0  0  0  0  0  0  0  0  0  0
    9.2597  -15.1483   28.4003 C   0  0  0  0  0  0  0  0  0  0  0  0
   10.3352  -15.8189   27.6120 C   0  0  2  0  0  0  0  0  0  0  0  0
    9.7946  -16.5909   26.5045 N   0  0  0  0  0  0  0  0  0  0  0  0
   11.1449  -16.6870   28.4727 C   0  0  0  0  0  0  0  0  0  0  0  0
   11.7783  -16.3144   29.4786 O   0  0  0  0  0  0  0  0  0  0  0  0
    7.2290  -14.5030   27.1219 C   0  0  0  0  0  0  0  0  0  0  0  0
    6.4858  -13.6202   26.3730 C   0  0  0  0  0  0  0  0  0  0  0  0
   11.2331  -18.0592   28.1633 O   0  0  0  0  0  0  0  0  0  0  0  0
  2  1  1  1
  2  4  1  0
  2  3  1  0
  4  5  1  0
  5  6  1  1
  7  5  1  0
  8  7  2  0
 10  9  1  6
 11 10  1  0
 12 13  1  6
 12 10  1  0
 13  7  1  0
 14 12  1  0
 15 14  2  0
 17 16  1  0
 17 27  2  0
 18 17  1  0
 19 18  2  0
 19 20  1  0
 20 26  2  0
 21 20  1  0
 22 21  1  1
 22 23  1  0
 23 14  1  0
 24 22  1  0
 24 28  1  0
 25 24  2  0
 26 27  1  0
M  END
$$$$
