LTY.pdb
     RDKit          3D

 28 28  0  0  1  0  0  0  0  0999 V2000
    6.9359  -11.9815   19.5447 C   0  0  0  0  0  0  0  0  0  0  0  0
    7.8173  -13.1937   19.4105 C   0  0  1  0  0  0  0  0  0  0  0  0
    9.2581  -12.7102   19.2806 C   0  0  0  0  0  0  0  0  0  0  0  0
    7.6746  -14.1281   20.5705 C   0  0  0  0  0  0  0  0  0  0  0  0
    8.5849  -15.3011   20.5766 C   0  0  2  0  0  0  0  0  0  0  0  0
    8.3548  -16.1580   19.4052 N   0  0  0  0  0  0  0  0  0  0  0  0
    8.6752  -16.1112   21.7804 C   0  0  0  0  0  0  0  0  0  0  0  0
    7.6216  -16.6452   22.2754 O   0  0  0  0  0  0  0  0  0  0  0  0
   10.0460  -19.2574   22.3836 C   0  0  0  0  0  0  0  0  0  0  0  0
   10.7457  -18.4562   23.4621 C   0  0  1  0  0  0  0  0  0  0  0  0
   12.0525  -18.3305   23.1445 O   0  0  0  0  0  0  0  0  0  0  0  0
    9.9717  -17.1852   23.6561 C   0  0  2  0  0  0  0  0  0  0  0  0
    9.8840  -16.3723   22.4717 N   0  0  0  0  0  0  0  0  0  0  0  0
   10.2724  -16.4770   24.8979 C   0  0  0  0  0  0  0  0  0  0  0  0
   11.0284  -15.4805   24.9673 O   0  0  0  0  0  0  0  0  0  0  0  0
    6.4764  -11.3149   25.5111 O   0  0  0  0  0  0  0  0  0  0  0  0
    7.0755  -12.3919   26.1563 C   0  0  0  0  0  0  0  0  0  0  0  0
    6.4259  -13.5954   26.2697 C   0  0  0  0  0  0  0  0  0  0  0  0
    7.0325  -14.6604   26.9150 C   0  0  0  0  0  0  0  0  0  0  0  0
    8.2889  -14.5685   27.4630 C   0  0  0  0  0  0  0  0  0  0  0  0
    8.9640  -15.6823   28.1640 C   0  0  0  0  0  0  0  0  0  0  0  0
   10.1271  -16.2262   27.4028 C   0  0  2  0  0  0  0  0  0  0  0  0
    9.7127  -16.8709   26.1669 N   0  0  0  0  0  0  0  0  0  0  0  0
   10.8881  -17.1726   28.2244 C   0  0  0  0  0  0  0  0  0  0  0  0
   11.0624  -18.3773   27.9595 O   0  0  0  0  0  0  0  0  0  0  0  0
    8.9242  -13.3402   27.3348 C   0  0  0  0  0  0  0  0  0  0  0  0
    8.3243  -12.2808   26.6942 C   0  0  0  0  0  0  0  0  0  0  0  0
   11.4834  -16.7123   29.4161 O   0  0  0  0  0  0  0  0  0  0  0  0
  2  1  1  1
  2  4  1  0
  2  3  1  0
  4  5  1  0
  5  6  1  6
  7  5  1  0
  8  7  2  0
 10  9  1  6
 11 10  1  0
 12 13  1  6
 12 10  1  0
 13  7  1  0
 14 12  1  0
 15 14  2  0
 17 16  1  0
 17 27  2  0
 18 17  1  0
 19 18  2  0
 19 20  1  0
 20 26  2  0
 21 20  1  0
 22 21  1  1
 22 23  1  0
 23 14  1  0
 24 22  1  0
 24 28  1  0
 25 24  2  0
 26 27  1  0
M  END
$$$$
