LTY.pdb
     RDKit          3D

 28 28  0  0  1  0  0  0  0  0999 V2000
    6.3521  -12.4966   17.7509 C   0  0  0  0  0  0  0  0  0  0  0  0
    7.6811  -13.1792   17.9303 C   0  0  1  0  0  0  0  0  0  0  0  0
    8.7520  -12.0970   18.0236 C   0  0  0  0  0  0  0  0  0  0  0  0
    7.7075  -14.0564   19.1423 C   0  0  0  0  0  0  0  0  0  0  0  0
    8.9810  -14.7761   19.3967 C   0  0  2  0  0  0  0  0  0  0  0  0
    9.5166  -15.3614   18.1598 N   0  0  0  0  0  0  0  0  0  0  0  0
    9.0317  -15.7498   20.4750 C   0  0  0  0  0  0  0  0  0  0  0  0
    8.4488  -15.5053   21.5887 O   0  0  0  0  0  0  0  0  0  0  0  0
   10.0006  -20.2698   22.1879 C   0  0  0  0  0  0  0  0  0  0  0  0
   10.1688  -19.3337   21.0089 C   0  0  1  0  0  0  0  0  0  0  0  0
    9.5438  -19.8585   19.9326 O   0  0  0  0  0  0  0  0  0  0  0  0
    9.7272  -17.9683   21.4481 C   0  0  2  0  0  0  0  0  0  0  0  0
    9.6946  -16.9988   20.3851 N   0  0  0  0  0  0  0  0  0  0  0  0
   10.3150  -17.5182   22.7075 C   0  0  0  0  0  0  0  0  0  0  0  0
   11.5472  -17.4928   22.9326 O   0  0  0  0  0  0  0  0  0  0  0  0
   11.1719  -14.0809   30.8795 O   0  0  0  0  0  0  0  0  0  0  0  0
   10.7779  -14.4100   29.5866 C   0  0  0  0  0  0  0  0  0  0  0  0
   11.6413  -15.0401   28.7259 C   0  0  0  0  0  0  0  0  0  0  0  0
   11.2375  -15.3621   27.4405 C   0  0  0  0  0  0  0  0  0  0  0  0
    9.9790  -15.0735   26.9715 C   0  0  0  0  0  0  0  0  0  0  0  0
    9.5165  -15.3968   25.6043 C   0  0  0  0  0  0  0  0  0  0  0  0
   10.1264  -16.6486   25.0669 C   0  0  2  0  0  0  0  0  0  0  0  0
    9.5131  -17.0556   23.8127 N   0  0  0  0  0  0  0  0  0  0  0  0
   10.0246  -17.7367   26.0445 C   0  0  0  0  0  0  0  0  0  0  0  0
    9.0234  -18.4576   26.2171 O   0  0  0  0  0  0  0  0  0  0  0  0
    9.1253  -14.4357   27.8621 C   0  0  0  0  0  0  0  0  0  0  0  0
    9.5233  -14.1149   29.1393 C   0  0  0  0  0  0  0  0  0  0  0  0
   11.1326  -18.0146   26.8699 O   0  0  0  0  0  0  0  0  0  0  0  0
  2  1  1  1
  2  4  1  0
  2  3  1  0
  4  5  1  0
  5  6  1  6
  7  5  1  0
  8  7  2  0
 10  9  1  1
 11 10  1  0
 12 13  1  6
 12 10  1  0
 13  7  1  0
 14 12  1  0
 15 14  2  0
 17 16  1  0
 17 27  2  0
 18 17  1  0
 19 18  2  0
 19 20  1  0
 20 26  2  0
 21 20  1  0
 22 21  1  1
 22 23  1  0
 23 14  1  0
 24 22  1  0
 24 28  1  0
 25 24  2  0
 26 27  1  0
M  END
$$$$
