LTY.pdb
     RDKit          3D

 28 28  0  0  1  0  0  0  0  0999 V2000
    6.5501  -13.7335   18.9742 C   0  0  0  0  0  0  0  0  0  0  0  0
    7.9067  -13.2625   19.4236 C   0  0  1  0  0  0  0  0  0  0  0  0
    7.7988  -11.7771   19.7527 C   0  0  0  0  0  0  0  0  0  0  0  0
    8.4100  -14.0316   20.6045 C   0  0  0  0  0  0  0  0  0  0  0  0
    8.6516  -15.4796   20.3827 C   0  0  2  0  0  0  0  0  0  0  0  0
    7.4787  -16.1274   19.7792 N   0  0  0  0  0  0  0  0  0  0  0  0
    9.1559  -16.2823   21.4849 C   0  0  0  0  0  0  0  0  0  0  0  0
    8.3417  -16.9235   22.2372 O   0  0  0  0  0  0  0  0  0  0  0  0
   12.7726  -18.2829   24.1472 C   0  0  0  0  0  0  0  0  0  0  0  0
   12.4739  -17.4081   22.9472 C   0  0  1  0  0  0  0  0  0  0  0  0
   12.9059  -18.0277   21.8274 O   0  0  0  0  0  0  0  0  0  0  0  0
   11.0183  -17.0468   23.0013 C   0  0  2  0  0  0  0  0  0  0  0  0
   10.5301  -16.4222   21.8002 N   0  0  0  0  0  0  0  0  0  0  0  0
   10.5925  -16.4370   24.2586 C   0  0  0  0  0  0  0  0  0  0  0  0
   10.2020  -15.2512   24.3619 O   0  0  0  0  0  0  0  0  0  0  0  0
    6.7395  -11.0345   26.9321 O   0  0  0  0  0  0  0  0  0  0  0  0
    7.1533  -12.3542   26.7835 C   0  0  0  0  0  0  0  0  0  0  0  0
    8.3492  -12.7805   27.3044 C   0  0  0  0  0  0  0  0  0  0  0  0
    8.7508  -14.0971   27.1493 C   0  0  0  0  0  0  0  0  0  0  0  0
    7.9887  -15.0239   26.4804 C   0  0  0  0  0  0  0  0  0  0  0  0
    8.3889  -16.4352   26.2906 C   0  0  0  0  0  0  0  0  0  0  0  0
    9.8169  -16.6855   26.6452 C   0  0  2  0  0  0  0  0  0  0  0  0
   10.5833  -17.1621   25.5048 N   0  0  0  0  0  0  0  0  0  0  0  0
    9.9171  -17.6481   27.7467 C   0  0  0  0  0  0  0  0  0  0  0  0
    9.7353  -17.3853   28.9508 O   0  0  0  0  0  0  0  0  0  0  0  0
    6.7837  -14.5669   25.9630 C   0  0  0  0  0  0  0  0  0  0  0  0
    6.3821  -13.2600   26.1156 C   0  0  0  0  0  0  0  0  0  0  0  0
   10.2433  -18.9871   27.4516 O   0  0  0  0  0  0  0  0  0  0  0  0
  2  1  1  1
  2  4  1  0
  2  3  1  0
  4  5  1  0
  5  6  1  1
  7  5  1  0
  8  7  2  0
 10  9  1  1
 11 10  1  0
 12 13  1  6
 12 10  1  0
 13  7  1  0
 14 12  1  0
 15 14  2  0
 17 16  1  0
 17 27  2  0
 18 17  1  0
 19 18  2  0
 19 20  1  0
 20 26  2  0
 21 20  1  0
 22 21  1  6
 22 23  1  0
 23 14  1  0
 24 22  1  0
 24 28  1  0
 25 24  2  0
 26 27  1  0
M  END
$$$$
