LTY.pdb
     RDKit          3D

 28 28  0  0  1  0  0  0  0  0999 V2000
    1.4411  -19.2157   22.0808 C   0  0  0  0  0  0  0  0  0  0  0  0
    2.5623  -19.2521   21.0778 C   0  0  1  0  0  0  0  0  0  0  0  0
    2.0456  -18.6416   19.7790 C   0  0  0  0  0  0  0  0  0  0  0  0
    3.7765  -18.5226   21.5599 C   0  0  0  0  0  0  0  0  0  0  0  0
    4.9068  -18.4361   20.6010 C   0  0  2  0  0  0  0  0  0  0  0  0
    5.3182  -19.7704   20.1432 N   0  0  0  0  0  0  0  0  0  0  0  0
    6.0737  -17.6484   20.9633 C   0  0  0  0  0  0  0  0  0  0  0  0
    7.0225  -18.1802   21.6393 O   0  0  0  0  0  0  0  0  0  0  0  0
    8.7340  -13.4977   20.9450 C   0  0  0  0  0  0  0  0  0  0  0  0
    7.5375  -14.2036   20.3409 C   0  0  1  0  0  0  0  0  0  0  0  0
    7.7360  -14.3571   19.0137 O   0  0  0  0  0  0  0  0  0  0  0  0
    7.2988  -15.4527   21.1379 C   0  0  2  0  0  0  0  0  0  0  0  0
    6.2543  -16.2888   20.6078 N   0  0  0  0  0  0  0  0  0  0  0  0
    7.2878  -15.2543   22.5851 C   0  0  0  0  0  0  0  0  0  0  0  0
    6.2873  -14.8595   23.2276 O   0  0  0  0  0  0  0  0  0  0  0  0
    8.6887  -21.5746   25.7217 O   0  0  0  0  0  0  0  0  0  0  0  0
    8.3551  -20.2247   25.6840 C   0  0  0  0  0  0  0  0  0  0  0  0
    7.4601  -19.6949   26.5792 C   0  0  0  0  0  0  0  0  0  0  0  0
    7.1353  -18.3491   26.5313 C   0  0  0  0  0  0  0  0  0  0  0  0
    7.6810  -17.4940   25.6049 C   0  0  0  0  0  0  0  0  0  0  0  0
    7.3528  -16.0543   25.5208 C   0  0  0  0  0  0  0  0  0  0  0  0
    8.4150  -15.2562   24.8408 C   0  0  2  0  0  0  0  0  0  0  0  0
    8.4452  -15.5031   23.4080 N   0  0  0  0  0  0  0  0  0  0  0  0
    9.7309  -15.5429   25.4209 C   0  0  0  0  0  0  0  0  0  0  0  0
   10.7435  -15.8779   24.7773 O   0  0  0  0  0  0  0  0  0  0  0  0
    8.5833  -18.0552   24.7108 C   0  0  0  0  0  0  0  0  0  0  0  0
    8.9080  -19.3913   24.7560 C   0  0  0  0  0  0  0  0  0  0  0  0
    9.8954  -15.4390   26.8168 O   0  0  0  0  0  0  0  0  0  0  0  0
  2  1  1  1
  2  4  1  0
  2  3  1  0
  4  5  1  0
  5  6  1  1
  7  5  1  0
  8  7  2  0
 10  9  1  1
 11 10  1  0
 12 13  1  6
 12 10  1  0
 13  7  1  0
 14 12  1  0
 15 14  2  0
 17 16  1  0
 17 27  2  0
 18 17  1  0
 19 18  2  0
 19 20  1  0
 20 26  2  0
 21 20  1  0
 22 21  1  1
 22 23  1  0
 23 14  1  0
 24 22  1  0
 24 28  1  0
 25 24  2  0
 26 27  1  0
M  END
$$$$
