FGV.pdb
     RDKit          3D

 23 23  0  0  1  0  0  0  0  0999 V2000
    7.9998  -15.8816   25.4648 N   0  0  0  0  0  0  0  0  0  0  0  0
    7.2591  -16.1160   24.2422 C   0  0  1  0  0  0  0  0  0  0  0  0
    6.8614  -14.7896   23.6604 C   0  0  0  0  0  0  0  0  0  0  0  0
    6.7727  -13.7084   24.6537 C   0  0  0  0  0  0  0  0  0  0  0  0
    7.6750  -12.6757   24.6525 C   0  0  0  0  0  0  0  0  0  0  0  0
    7.6019  -11.6521   25.5837 C   0  0  0  0  0  0  0  0  0  0  0  0
    6.5976  -11.6842   26.5246 C   0  0  0  0  0  0  0  0  0  0  0  0
    5.6799  -12.7055   26.5502 C   0  0  0  0  0  0  0  0  0  0  0  0
    5.7808  -13.7179   25.6016 C   0  0  0  0  0  0  0  0  0  0  0  0
    8.1043  -16.8621   23.3048 C   0  0  0  0  0  0  0  0  0  0  0  0
    7.8259  -17.0243   22.0733 O   0  0  0  0  0  0  0  0  0  0  0  0
    9.3348  -17.4771   23.7187 N   0  0  0  0  0  0  0  0  0  0  0  0
   10.5658  -16.7601   23.7745 C   0  0  0  0  0  0  0  0  0  0  0  0
   11.1554  -16.6605   25.1047 C   0  0  0  0  0  0  0  0  0  0  0  0
   12.3579  -16.9398   25.2840 O   0  0  0  0  0  0  0  0  0  0  0  0
   10.5794  -14.6583   29.6153 C   0  0  0  0  0  0  0  0  0  0  0  0
   10.1285  -14.8899   28.1888 C   0  0  1  0  0  0  0  0  0  0  0  0
   10.2256  -13.5846   27.4591 C   0  0  0  0  0  0  0  0  0  0  0  0
   10.9497  -15.9666   27.5164 C   0  0  2  0  0  0  0  0  0  0  0  0
   10.3824  -16.2483   26.2116 N   0  0  0  0  0  0  0  0  0  0  0  0
   10.9589  -17.2339   28.2822 C   0  0  0  0  0  0  0  0  0  0  0  0
   11.6815  -17.3256   29.4539 O   0  0  0  0  0  0  0  0  0  0  0  0
   10.3252  -18.2575   27.9097 O   0  0  0  0  0  0  0  0  0  0  0  0
  2  1  1  1
  3  2  1  0
  4  3  1  0
  5  4  2  0
  6  5  1  0
  7  8  1  0
  7  6  2  0
  8  9  2  0
  9  4  1  0
 10  2  1  0
 10 12  1  0
 11 10  2  0
 13 12  1  0
 13 14  1  0
 14 15  2  0
 14 20  1  0
 17 18  1  6
 17 16  1  0
 19 17  1  0
 19 20  1  6
 21 19  1  0
 21 22  1  0
 23 21  2  0
M  END
$$$$
