FGV.pdb
     RDKit          3D

 23 23  0  0  1  0  0  0  0  0999 V2000
    7.9649  -16.4516   26.3378 N   0  0  0  0  0  0  0  0  0  0  0  0
    7.0721  -16.1193   25.2465 C   0  0  1  0  0  0  0  0  0  0  0  0
    7.3664  -14.7172   24.7958 C   0  0  0  0  0  0  0  0  0  0  0  0
    7.1285  -13.6989   25.8302 C   0  0  0  0  0  0  0  0  0  0  0  0
    8.1745  -13.1215   26.5034 C   0  0  0  0  0  0  0  0  0  0  0  0
    7.9626  -12.1619   27.4803 C   0  0  0  0  0  0  0  0  0  0  0  0
    6.6699  -11.7889   27.7720 C   0  0  0  0  0  0  0  0  0  0  0  0
    5.6027  -12.3498   27.1143 C   0  0  0  0  0  0  0  0  0  0  0  0
    5.8493  -13.3105   26.1389 C   0  0  0  0  0  0  0  0  0  0  0  0
    7.2786  -17.0715   24.1509 C   0  0  0  0  0  0  0  0  0  0  0  0
    8.4170  -17.5331   23.8173 O   0  0  0  0  0  0  0  0  0  0  0  0
    6.1860  -17.5627   23.3578 N   0  0  0  0  0  0  0  0  0  0  0  0
    5.8196  -16.9716   22.1133 C   0  0  0  0  0  0  0  0  0  0  0  0
    6.9074  -16.8526   21.1493 C   0  0  0  0  0  0  0  0  0  0  0  0
    7.0185  -17.6763   20.2190 O   0  0  0  0  0  0  0  0  0  0  0  0
    6.9102  -13.7535   19.4261 C   0  0  0  0  0  0  0  0  0  0  0  0
    8.3608  -13.9307   19.8213 C   0  0  1  0  0  0  0  0  0  0  0  0
    8.6287  -13.0391   20.9957 C   0  0  0  0  0  0  0  0  0  0  0  0
    8.6766  -15.3755   20.1353 C   0  0  2  0  0  0  0  0  0  0  0  0
    7.8526  -15.8088   21.2474 N   0  0  0  0  0  0  0  0  0  0  0  0
   10.0915  -15.5749   20.5238 C   0  0  0  0  0  0  0  0  0  0  0  0
   11.0912  -15.4282   19.5843 O   0  0  0  0  0  0  0  0  0  0  0  0
   10.4378  -15.8790   21.6967 O   0  0  0  0  0  0  0  0  0  0  0  0
  2  1  1  1
  3  2  1  0
  4  3  1  0
  5  4  2  0
  6  5  1  0
  7  8  1  0
  7  6  2  0
  8  9  2  0
  9  4  1  0
 10  2  1  0
 10 12  1  0
 11 10  2  0
 13 12  1  0
 13 14  1  0
 14 15  2  0
 14 20  1  0
 17 18  1  1
 17 16  1  0
 19 17  1  0
 19 20  1  1
 21 19  1  0
 21 22  1  0
 23 21  2  0
M  END
$$$$
