FGV.pdb
     RDKit          3D

 23 23  0  0  1  0  0  0  0  0999 V2000
    7.2164  -16.8052   25.7057 N   0  0  0  0  0  0  0  0  0  0  0  0
    7.0109  -16.7688   24.2722 C   0  0  1  0  0  0  0  0  0  0  0  0
    6.0933  -15.6248   23.9480 C   0  0  0  0  0  0  0  0  0  0  0  0
    6.3882  -14.3958   24.7003 C   0  0  0  0  0  0  0  0  0  0  0  0
    5.7623  -14.1325   25.8919 C   0  0  0  0  0  0  0  0  0  0  0  0
    6.0313  -12.9778   26.6089 C   0  0  0  0  0  0  0  0  0  0  0  0
    6.9484  -12.0839   26.1040 C   0  0  0  0  0  0  0  0  0  0  0  0
    7.5908  -12.3209   24.9135 C   0  0  0  0  0  0  0  0  0  0  0  0
    7.2983  -13.4895   24.2179 C   0  0  0  0  0  0  0  0  0  0  0  0
    8.3061  -16.6010   23.6061 C   0  0  0  0  0  0  0  0  0  0  0  0
    8.6645  -17.2576   22.5761 O   0  0  0  0  0  0  0  0  0  0  0  0
    9.2853  -15.6620   24.0787 N   0  0  0  0  0  0  0  0  0  0  0  0
   10.6860  -15.9173   24.0050 C   0  0  0  0  0  0  0  0  0  0  0  0
   11.3416  -16.1063   25.2939 C   0  0  0  0  0  0  0  0  0  0  0  0
   12.5696  -16.3183   25.3518 O   0  0  0  0  0  0  0  0  0  0  0  0
   10.8336  -13.4611   27.6192 C   0  0  0  0  0  0  0  0  0  0  0  0
   10.6773  -14.6918   28.4867 C   0  0  1  0  0  0  0  0  0  0  0  0
    9.2225  -14.8406   28.8144 C   0  0  0  0  0  0  0  0  0  0  0  0
   11.2233  -15.9245   27.8025 C   0  0  2  0  0  0  0  0  0  0  0  0
   10.6049  -16.0536   26.4969 N   0  0  0  0  0  0  0  0  0  0  0  0
   10.9361  -17.1657   28.5572 C   0  0  0  0  0  0  0  0  0  0  0  0
   10.0992  -18.1214   28.0189 O   0  0  0  0  0  0  0  0  0  0  0  0
   11.4287  -17.3996   29.6934 O   0  0  0  0  0  0  0  0  0  0  0  0
  2  1  1  1
  3  2  1  0
  4  3  1  0
  5  4  2  0
  6  5  1  0
  7  8  1  0
  7  6  2  0
  8  9  2  0
  9  4  1  0
 10  2  1  0
 10 12  1  0
 11 10  2  0
 13 12  1  0
 13 14  1  0
 14 15  2  0
 14 20  1  0
 17 18  1  6
 17 16  1  0
 19 17  1  0
 19 20  1  6
 21 19  1  0
 21 22  1  0
 23 21  2  0
M  END
$$$$
