FGV.pdb
     RDKit          3D

 23 23  0  0  1  0  0  0  0  0999 V2000
    8.1025  -16.4319   26.3804 N   0  0  0  0  0  0  0  0  0  0  0  0
    7.1562  -16.1373   25.3239 C   0  0  1  0  0  0  0  0  0  0  0  0
    7.3992  -14.7367   24.8390 C   0  0  0  0  0  0  0  0  0  0  0  0
    7.2137  -13.7093   25.8751 C   0  0  0  0  0  0  0  0  0  0  0  0
    5.9596  -13.3734   26.3169 C   0  0  0  0  0  0  0  0  0  0  0  0
    5.7725  -12.4067   27.2917 C   0  0  0  0  0  0  0  0  0  0  0  0
    6.8770  -11.7773   27.8200 C   0  0  0  0  0  0  0  0  0  0  0  0
    8.1449  -12.0929   27.3972 C   0  0  0  0  0  0  0  0  0  0  0  0
    8.2988  -13.0679   26.4171 C   0  0  0  0  0  0  0  0  0  0  0  0
    7.3366  -17.1027   24.2354 C   0  0  0  0  0  0  0  0  0  0  0  0
    8.4179  -17.7407   24.0249 O   0  0  0  0  0  0  0  0  0  0  0  0
    6.2819  -17.4047   23.3078 N   0  0  0  0  0  0  0  0  0  0  0  0
    5.9521  -16.5441   22.2200 C   0  0  0  0  0  0  0  0  0  0  0  0
    6.9306  -16.5230   21.1389 C   0  0  0  0  0  0  0  0  0  0  0  0
    6.8965  -17.3877   20.2404 O   0  0  0  0  0  0  0  0  0  0  0  0
    6.7344  -13.3365   19.6727 C   0  0  0  0  0  0  0  0  0  0  0  0
    8.2254  -13.5981   19.6706 C   0  0  1  0  0  0  0  0  0  0  0  0
    8.8379  -12.7721   20.7608 C   0  0  0  0  0  0  0  0  0  0  0  0
    8.5298  -15.0684   19.8477 C   0  0  2  0  0  0  0  0  0  0  0  0
    7.9318  -15.5292   21.0862 N   0  0  0  0  0  0  0  0  0  0  0  0
    9.9832  -15.3410   19.9253 C   0  0  0  0  0  0  0  0  0  0  0  0
   10.7723  -15.1956   18.8030 O   0  0  0  0  0  0  0  0  0  0  0  0
   10.5500  -15.7077   20.9895 O   0  0  0  0  0  0  0  0  0  0  0  0
  2  1  1  1
  3  2  1  0
  4  3  1  0
  5  4  2  0
  6  5  1  0
  7  8  1  0
  7  6  2  0
  8  9  2  0
  9  4  1  0
 10  2  1  0
 10 12  1  0
 11 10  2  0
 13 12  1  0
 13 14  1  0
 14 15  2  0
 14 20  1  0
 17 18  1  1
 17 16  1  0
 19 17  1  0
 19 20  1  1
 21 19  1  0
 21 22  1  0
 23 21  2  0
M  END
$$$$
