FGV.pdb
     RDKit          3D

 23 23  0  0  1  0  0  0  0  0999 V2000
    7.5047  -16.6924   26.5830 N   0  0  0  0  0  0  0  0  0  0  0  0
    6.8505  -16.1402   25.4144 C   0  0  1  0  0  0  0  0  0  0  0  0
    7.4517  -14.7961   25.1183 C   0  0  0  0  0  0  0  0  0  0  0  0
    7.1573  -13.7768   26.1370 C   0  0  0  0  0  0  0  0  0  0  0  0
    8.1625  -13.2155   26.8823 C   0  0  0  0  0  0  0  0  0  0  0  0
    7.8972  -12.2551   27.8452 C   0  0  0  0  0  0  0  0  0  0  0  0
    6.5929  -11.8646   28.0485 C   0  0  0  0  0  0  0  0  0  0  0  0
    5.5658  -12.4090   27.3173 C   0  0  0  0  0  0  0  0  0  0  0  0
    5.8654  -13.3710   26.3582 C   0  0  0  0  0  0  0  0  0  0  0  0
    7.0379  -17.0539   24.2831 C   0  0  0  0  0  0  0  0  0  0  0  0
    6.9283  -18.3193   24.3676 O   0  0  0  0  0  0  0  0  0  0  0  0
    7.3657  -16.5753   22.9688 N   0  0  0  0  0  0  0  0  0  0  0  0
    6.7517  -17.0951   21.7918 C   0  0  0  0  0  0  0  0  0  0  0  0
    7.2479  -16.5293   20.5426 C   0  0  0  0  0  0  0  0  0  0  0  0
    6.7817  -16.9084   19.4494 O   0  0  0  0  0  0  0  0  0  0  0  0
    6.9267  -13.1260   19.8379 C   0  0  0  0  0  0  0  0  0  0  0  0
    8.3872  -13.3655   19.5196 C   0  0  1  0  0  0  0  0  0  0  0  0
    9.2022  -12.7622   20.6231 C   0  0  0  0  0  0  0  0  0  0  0  0
    8.6827  -14.8384   19.3499 C   0  0  2  0  0  0  0  0  0  0  0  0
    8.2606  -15.5459   20.5437 N   0  0  0  0  0  0  0  0  0  0  0  0
   10.1259  -15.1085   19.1577 C   0  0  0  0  0  0  0  0  0  0  0  0
   10.8416  -15.7608   20.1404 O   0  0  0  0  0  0  0  0  0  0  0  0
   10.7489  -14.7647   18.1176 O   0  0  0  0  0  0  0  0  0  0  0  0
  2  1  1  1
  3  2  1  0
  4  3  1  0
  5  4  2  0
  6  5  1  0
  7  8  1  0
  7  6  2  0
  8  9  2  0
  9  4  1  0
 10  2  1  0
 10 12  1  0
 11 10  2  0
 13 12  1  0
 13 14  1  0
 14 15  2  0
 14 20  1  0
 17 18  1  1
 17 16  1  0
 19 17  1  0
 19 20  1  1
 21 19  1  0
 21 22  1  0
 23 21  2  0
M  END
$$$$
