FGV.pdb
     RDKit          3D

 23 23  0  0  1  0  0  0  0  0999 V2000
    6.2737  -18.0127   20.0268 N   0  0  0  0  0  0  0  0  0  0  0  0
    7.0084  -16.8956   20.5843 C   0  0  1  0  0  0  0  0  0  0  0  0
    6.2667  -15.6283   20.2689 C   0  0  0  0  0  0  0  0  0  0  0  0
    6.9323  -14.4127   20.7618 C   0  0  0  0  0  0  0  0  0  0  0  0
    7.7709  -13.6914   19.9511 C   0  0  0  0  0  0  0  0  0  0  0  0
    8.4039  -12.5453   20.4046 C   0  0  0  0  0  0  0  0  0  0  0  0
    8.1781  -12.1325   21.6983 C   0  0  0  0  0  0  0  0  0  0  0  0
    7.3435  -12.8345   22.5330 C   0  0  0  0  0  0  0  0  0  0  0  0
    6.7231  -13.9810   22.0473 C   0  0  0  0  0  0  0  0  0  0  0  0
    7.1323  -17.0784   22.0337 C   0  0  0  0  0  0  0  0  0  0  0  0
    6.1400  -17.1336   22.8291 O   0  0  0  0  0  0  0  0  0  0  0  0
    8.4114  -17.2113   22.6741 N   0  0  0  0  0  0  0  0  0  0  0  0
    8.5455  -17.3865   24.0827 C   0  0  0  0  0  0  0  0  0  0  0  0
    9.4056  -16.4099   24.7409 C   0  0  0  0  0  0  0  0  0  0  0  0
   10.4348  -15.9919   24.1731 O   0  0  0  0  0  0  0  0  0  0  0  0
    7.8980  -13.9892   27.7592 C   0  0  0  0  0  0  0  0  0  0  0  0
    9.1955  -13.7256   27.0253 C   0  0  1  0  0  0  0  0  0  0  0  0
   10.0027  -12.7689   27.8494 C   0  0  0  0  0  0  0  0  0  0  0  0
    9.9518  -15.0075   26.7596 C   0  0  2  0  0  0  0  0  0  0  0  0
    9.0940  -15.9194   26.0273 N   0  0  0  0  0  0  0  0  0  0  0  0
   10.3671  -15.6894   28.0067 C   0  0  0  0  0  0  0  0  0  0  0  0
   11.4420  -15.2122   28.7278 O   0  0  0  0  0  0  0  0  0  0  0  0
    9.7747  -16.7079   28.4538 O   0  0  0  0  0  0  0  0  0  0  0  0
  2  1  1  1
  3  2  1  0
  4  3  1  0
  5  4  2  0
  6  5  1  0
  7  8  1  0
  7  6  2  0
  8  9  2  0
  9  4  1  0
 10  2  1  0
 10 12  1  0
 11 10  2  0
 13 12  1  0
 13 14  1  0
 14 15  2  0
 14 20  1  0
 17 18  1  1
 17 16  1  0
 19 17  1  0
 19 20  1  1
 21 19  1  0
 21 22  1  0
 23 21  2  0
M  END
$$$$
