FGV.pdb
     RDKit          3D

 23 23  0  0  1  0  0  0  0  0999 V2000
    8.0552  -14.9808   20.4155 N   0  0  0  0  0  0  0  0  0  0  0  0
    8.1758  -14.6428   21.8189 C   0  0  1  0  0  0  0  0  0  0  0  0
    6.8776  -14.0462   22.2821 C   0  0  0  0  0  0  0  0  0  0  0  0
    6.9335  -13.4847   23.6404 C   0  0  0  0  0  0  0  0  0  0  0  0
    7.5785  -12.2997   23.8862 C   0  0  0  0  0  0  0  0  0  0  0  0
    7.6384  -11.7615   25.1617 C   0  0  0  0  0  0  0  0  0  0  0  0
    7.0337  -12.4403   26.1954 C   0  0  0  0  0  0  0  0  0  0  0  0
    6.3806  -13.6289   25.9793 C   0  0  0  0  0  0  0  0  0  0  0  0
    6.3384  -14.1425   24.6872 C   0  0  0  0  0  0  0  0  0  0  0  0
    8.4906  -15.8563   22.5792 C   0  0  0  0  0  0  0  0  0  0  0  0
    8.0135  -17.0055   22.3105 O   0  0  0  0  0  0  0  0  0  0  0  0
    9.3802  -15.8344   23.7071 N   0  0  0  0  0  0  0  0  0  0  0  0
    9.8200  -17.0254   24.3558 C   0  0  0  0  0  0  0  0  0  0  0  0
   10.6629  -16.8084   25.5259 C   0  0  0  0  0  0  0  0  0  0  0  0
   11.8150  -17.2847   25.5702 O   0  0  0  0  0  0  0  0  0  0  0  0
   10.3136  -13.4906   27.8414 C   0  0  0  0  0  0  0  0  0  0  0  0
   10.3586  -14.7653   28.6568 C   0  0  1  0  0  0  0  0  0  0  0  0
    8.9639  -15.0661   29.1155 C   0  0  0  0  0  0  0  0  0  0  0  0
   10.9428  -15.9109   27.8618 C   0  0  2  0  0  0  0  0  0  0  0  0
   10.1960  -16.0590   26.6273 N   0  0  0  0  0  0  0  0  0  0  0  0
   10.8677  -17.2001   28.5864 C   0  0  0  0  0  0  0  0  0  0  0  0
   11.7092  -17.4411   29.6528 O   0  0  0  0  0  0  0  0  0  0  0  0
   10.0550  -18.1103   28.2714 O   0  0  0  0  0  0  0  0  0  0  0  0
  2  1  1  6
  3  2  1  0
  4  3  1  0
  5  4  2  0
  6  5  1  0
  7  8  1  0
  7  6  2  0
  8  9  2  0
  9  4  1  0
 10  2  1  0
 10 12  1  0
 11 10  2  0
 13 12  1  0
 13 14  1  0
 14 15  2  0
 14 20  1  0
 17 18  1  6
 17 16  1  0
 19 17  1  0
 19 20  1  6
 21 19  1  0
 21 22  1  0
 23 21  2  0
M  END
$$$$
