FGV.pdb
     RDKit          3D

 23 23  0  0  1  0  0  0  0  0999 V2000
    6.2225  -14.8128   21.3246 N   0  0  0  0  0  0  0  0  0  0  0  0
    7.6206  -14.8503   21.7018 C   0  0  1  0  0  0  0  0  0  0  0  0
    8.0052  -13.5068   22.2523 C   0  0  0  0  0  0  0  0  0  0  0  0
    7.3943  -13.2022   23.5552 C   0  0  0  0  0  0  0  0  0  0  0  0
    8.1097  -12.5645   24.5362 C   0  0  0  0  0  0  0  0  0  0  0  0
    7.5452  -12.2731   25.7676 C   0  0  0  0  0  0  0  0  0  0  0  0
    6.2377  -12.6366   25.9988 C   0  0  0  0  0  0  0  0  0  0  0  0
    5.4969  -13.2762   25.0354 C   0  0  0  0  0  0  0  0  0  0  0  0
    6.0929  -13.5544   23.8096 C   0  0  0  0  0  0  0  0  0  0  0  0
    7.8184  -15.8995   22.7066 C   0  0  0  0  0  0  0  0  0  0  0  0
    6.9987  -16.8524   22.9081 O   0  0  0  0  0  0  0  0  0  0  0  0
    8.9779  -15.9279   23.5544 N   0  0  0  0  0  0  0  0  0  0  0  0
    9.2545  -17.0157   24.4335 C   0  0  0  0  0  0  0  0  0  0  0  0
   10.2606  -16.7379   25.4520 C   0  0  0  0  0  0  0  0  0  0  0  0
   11.4732  -16.7460   25.1594 O   0  0  0  0  0  0  0  0  0  0  0  0
   11.1518  -14.5994   29.8007 C   0  0  0  0  0  0  0  0  0  0  0  0
   10.2756  -14.9304   28.6114 C   0  0  1  0  0  0  0  0  0  0  0  0
   10.1507  -13.6932   27.7749 C   0  0  0  0  0  0  0  0  0  0  0  0
   10.8364  -16.0869   27.8152 C   0  0  2  0  0  0  0  0  0  0  0  0
    9.8860  -16.4555   26.7834 N   0  0  0  0  0  0  0  0  0  0  0  0
   11.0764  -17.2861   28.6500 C   0  0  0  0  0  0  0  0  0  0  0  0
   10.0396  -18.1544   28.9230 O   0  0  0  0  0  0  0  0  0  0  0  0
   12.2063  -17.5609   29.1357 O   0  0  0  0  0  0  0  0  0  0  0  0
  2  1  1  1
  3  2  1  0
  4  3  1  0
  5  4  2  0
  6  5  1  0
  7  8  1  0
  7  6  2  0
  8  9  2  0
  9  4  1  0
 10  2  1  0
 10 12  1  0
 11 10  2  0
 13 12  1  0
 13 14  1  0
 14 15  2  0
 14 20  1  0
 17 18  1  6
 17 16  1  0
 19 17  1  0
 19 20  1  6
 21 19  1  0
 21 22  1  0
 23 21  2  0
M  END
$$$$
