FGV.pdb
     RDKit          3D

 23 23  0  0  1  0  0  0  0  0999 V2000
    8.2024  -16.4256   26.5790 N   0  0  0  0  0  0  0  0  0  0  0  0
    7.0600  -16.8539   25.7981 C   0  0  1  0  0  0  0  0  0  0  0  0
    6.2819  -15.6392   25.3800 C   0  0  0  0  0  0  0  0  0  0  0  0
    6.7817  -14.3846   25.9628 C   0  0  0  0  0  0  0  0  0  0  0  0
    7.8731  -14.3798   26.7932 C   0  0  0  0  0  0  0  0  0  0  0  0
    8.3523  -13.2044   27.3487 C   0  0  0  0  0  0  0  0  0  0  0  0
    7.7106  -12.0230   27.0529 C   0  0  0  0  0  0  0  0  0  0  0  0
    6.6155  -11.9970   26.2246 C   0  0  0  0  0  0  0  0  0  0  0  0
    6.1592  -13.1943   25.6830 C   0  0  0  0  0  0  0  0  0  0  0  0
    7.5318  -17.5977   24.6260 C   0  0  0  0  0  0  0  0  0  0  0  0
    7.8039  -18.8412   24.6372 O   0  0  0  0  0  0  0  0  0  0  0  0
    7.7249  -16.9618   23.3523 N   0  0  0  0  0  0  0  0  0  0  0  0
    7.8429  -17.7018   22.1395 C   0  0  0  0  0  0  0  0  0  0  0  0
    8.1567  -16.9002   20.9624 C   0  0  0  0  0  0  0  0  0  0  0  0
    8.2252  -17.4330   19.8365 O   0  0  0  0  0  0  0  0  0  0  0  0
    6.6130  -13.4085   20.3482 C   0  0  0  0  0  0  0  0  0  0  0  0
    8.1076  -13.3087   20.1299 C   0  0  1  0  0  0  0  0  0  0  0  0
    8.6965  -12.5916   21.3068 C   0  0  0  0  0  0  0  0  0  0  0  0
    8.7317  -14.6725   19.9391 C   0  0  2  0  0  0  0  0  0  0  0  0
    8.3886  -15.5119   21.0710 N   0  0  0  0  0  0  0  0  0  0  0  0
   10.2091  -14.6135   19.8586 C   0  0  0  0  0  0  0  0  0  0  0  0
   10.8189  -14.1629   18.7060 O   0  0  0  0  0  0  0  0  0  0  0  0
   10.9560  -14.9621   20.8119 O   0  0  0  0  0  0  0  0  0  0  0  0
  2  1  1  6
  3  2  1  0
  4  3  1  0
  5  4  2  0
  6  5  1  0
  7  8  1  0
  7  6  2  0
  8  9  2  0
  9  4  1  0
 10  2  1  0
 10 12  1  0
 11 10  2  0
 13 12  1  0
 13 14  1  0
 14 15  2  0
 14 20  1  0
 17 18  1  1
 17 16  1  0
 19 17  1  0
 19 20  1  1
 21 19  1  0
 21 22  1  0
 23 21  2  0
M  END
$$$$
