FGV.pdb
     RDKit          3D

 23 23  0  0  1  0  0  0  0  0999 V2000
    7.3333  -16.2614   20.4326 N   0  0  0  0  0  0  0  0  0  0  0  0
    7.6543  -15.6763   21.7183 C   0  0  1  0  0  0  0  0  0  0  0  0
    6.4708  -14.8829   22.1933 C   0  0  0  0  0  0  0  0  0  0  0  0
    6.7470  -14.0568   23.3784 C   0  0  0  0  0  0  0  0  0  0  0  0
    7.4364  -12.8763   23.2685 C   0  0  0  0  0  0  0  0  0  0  0  0
    7.7032  -12.0901   24.3779 C   0  0  0  0  0  0  0  0  0  0  0  0
    7.2616  -12.5140   25.6109 C   0  0  0  0  0  0  0  0  0  0  0  0
    6.5689  -13.6915   25.7515 C   0  0  0  0  0  0  0  0  0  0  0  0
    6.3173  -14.4578   24.6182 C   0  0  0  0  0  0  0  0  0  0  0  0
    7.9760  -16.7477   22.6660 C   0  0  0  0  0  0  0  0  0  0  0  0
    7.1928  -17.7140   22.9369 O   0  0  0  0  0  0  0  0  0  0  0  0
    9.2264  -16.7844   23.3724 N   0  0  0  0  0  0  0  0  0  0  0  0
    9.7968  -15.6254   23.9758 C   0  0  0  0  0  0  0  0  0  0  0  0
   10.5415  -15.8793   25.2037 C   0  0  0  0  0  0  0  0  0  0  0  0
   11.7866  -15.9533   25.1822 O   0  0  0  0  0  0  0  0  0  0  0  0
   10.1745  -14.6232   29.9087 C   0  0  0  0  0  0  0  0  0  0  0  0
    9.5816  -14.9150   28.5468 C   0  0  1  0  0  0  0  0  0  0  0  0
    9.3119  -13.6038   27.8731 C   0  0  0  0  0  0  0  0  0  0  0  0
   10.4974  -15.7884   27.7196 C   0  0  2  0  0  0  0  0  0  0  0  0
    9.8733  -16.0457   26.4359 N   0  0  0  0  0  0  0  0  0  0  0  0
   10.7610  -17.0981   28.3584 C   0  0  0  0  0  0  0  0  0  0  0  0
   11.8504  -17.2519   29.1908 O   0  0  0  0  0  0  0  0  0  0  0  0
   10.0235  -18.1036   28.1762 O   0  0  0  0  0  0  0  0  0  0  0  0
  2  1  1  6
  3  2  1  0
  4  3  1  0
  5  4  2  0
  6  5  1  0
  7  8  1  0
  7  6  2  0
  8  9  2  0
  9  4  1  0
 10  2  1  0
 10 12  1  0
 11 10  2  0
 13 12  1  0
 13 14  1  0
 14 15  2  0
 14 20  1  0
 17 18  1  6
 17 16  1  0
 19 17  1  0
 19 20  1  6
 21 19  1  0
 21 22  1  0
 23 21  2  0
M  END
$$$$
