FGV.pdb
     RDKit          3D

 23 23  0  0  1  0  0  0  0  0999 V2000
    8.4997  -16.1902   21.4000 N   0  0  0  0  0  0  0  0  0  0  0  0
    8.1830  -15.0381   22.2189 C   0  0  1  0  0  0  0  0  0  0  0  0
    6.9674  -14.3644   21.6497 C   0  0  0  0  0  0  0  0  0  0  0  0
    7.2017  -13.7162   20.3503 C   0  0  0  0  0  0  0  0  0  0  0  0
    6.6748  -14.2396   19.1973 C   0  0  0  0  0  0  0  0  0  0  0  0
    6.8895  -13.6383   17.9676 C   0  0  0  0  0  0  0  0  0  0  0  0
    7.6495  -12.4917   17.9154 C   0  0  0  0  0  0  0  0  0  0  0  0
    8.1898  -11.9447   19.0533 C   0  0  0  0  0  0  0  0  0  0  0  0
    7.9557  -12.5726   20.2723 C   0  0  0  0  0  0  0  0  0  0  0  0
    7.9355  -15.4808   23.5946 C   0  0  0  0  0  0  0  0  0  0  0  0
    7.5877  -14.7013   24.5390 O   0  0  0  0  0  0  0  0  0  0  0  0
    8.0706  -16.8571   23.9836 N   0  0  0  0  0  0  0  0  0  0  0  0
    8.0766  -17.2677   25.3489 C   0  0  0  0  0  0  0  0  0  0  0  0
    9.3148  -16.9866   26.0662 C   0  0  0  0  0  0  0  0  0  0  0  0
   10.4160  -17.0961   25.4904 O   0  0  0  0  0  0  0  0  0  0  0  0
   10.2051  -13.8482   27.3548 C   0  0  0  0  0  0  0  0  0  0  0  0
   10.3648  -14.7504   28.5599 C   0  0  1  0  0  0  0  0  0  0  0  0
    9.1889  -14.5247   29.4612 C   0  0  0  0  0  0  0  0  0  0  0  0
   10.4846  -16.2016   28.1532 C   0  0  2  0  0  0  0  0  0  0  0  0
    9.2941  -16.5869   27.4199 N   0  0  0  0  0  0  0  0  0  0  0  0
   10.6049  -17.1084   29.3176 C   0  0  0  0  0  0  0  0  0  0  0  0
   11.7678  -17.1265   30.0596 O   0  0  0  0  0  0  0  0  0  0  0  0
    9.6771  -17.8832   29.6742 O   0  0  0  0  0  0  0  0  0  0  0  0
  2  1  1  6
  3  2  1  0
  4  3  1  0
  5  4  2  0
  6  5  1  0
  7  8  1  0
  7  6  2  0
  8  9  2  0
  9  4  1  0
 10  2  1  0
 10 12  1  0
 11 10  2  0
 13 12  1  0
 13 14  1  0
 14 15  2  0
 14 20  1  0
 17 18  1  1
 17 16  1  0
 19 17  1  0
 19 20  1  1
 21 19  1  0
 21 22  1  0
 23 21  2  0
M  END
$$$$
