HLN.pdb
     RDKit          3D

 27 27  0  0  1  0  0  0  0  0999 V2000
   22.9927  -13.6295  -18.9929 N   0  0  0  0  0  0  0  0  0  0  0  0
   23.7325  -12.4061  -19.1306 C   0  0  1  0  0  0  0  0  0  0  0  0
   23.0617  -11.4093  -20.0511 C   0  0  0  0  0  0  0  0  0  0  0  0
   22.9303  -11.9222  -21.4206 C   0  0  0  0  0  0  0  0  0  0  0  0
   21.8230  -12.4284  -22.0766 C   0  0  0  0  0  0  0  0  0  0  0  0
   22.1483  -12.7790  -23.3244 N   0  0  0  0  0  0  0  0  0  0  0  0
   23.4676  -12.5037  -23.4820 C   0  0  0  0  0  0  0  0  0  0  0  0
   23.9287  -11.9813  -22.3094 N   0  0  0  0  0  0  0  0  0  0  0  0
   23.9815  -11.8082  -17.7802 C   0  0  0  0  0  0  0  0  0  0  0  0
   23.1132  -12.0360  -16.9195 O   0  0  0  0  0  0  0  0  0  0  0  0
   27.5519  -12.5924  -15.3554 C   0  0  0  0  0  0  0  0  0  0  0  0
   27.7096  -11.4729  -16.3897 C   0  0  2  0  0  0  0  0  0  0  0  0
   29.1918  -11.1104  -16.3676 C   0  0  0  0  0  0  0  0  0  0  0  0
   26.9298  -10.2467  -15.9745 C   0  0  0  0  0  0  0  0  0  0  0  0
   25.4714  -10.3806  -16.2854 C   0  0  2  0  0  0  0  0  0  0  0  0
   25.1245  -11.0404  -17.5020 N   0  0  0  0  0  0  0  0  0  0  0  0
   24.6437   -9.1780  -16.0572 C   0  0  0  0  0  0  0  0  0  0  0  0
   24.7899   -8.5627  -14.9385 O   0  0  0  0  0  0  0  0  0  0  0  0
   21.6322   -5.8791  -15.0975 N   0  0  0  0  0  0  0  0  0  0  0  0
   22.9798   -5.5529  -15.4003 C   0  0  0  0  0  0  0  0  0  0  0  0
   23.5310   -4.6416  -14.7436 O   0  0  0  0  0  0  0  0  0  0  0  0
   23.7119   -6.2577  -16.4535 C   0  0  0  0  0  0  0  0  0  0  0  0
   23.0189   -7.4415  -17.0506 C   0  0  2  0  0  0  0  0  0  0  0  0
   23.7168   -8.6643  -16.9617 N   0  0  0  0  0  0  0  0  0  0  0  0
   22.4254   -7.0203  -18.3189 C   0  0  0  0  0  0  0  0  0  0  0  0
   21.5692   -6.1516  -18.4639 O   0  0  0  0  0  0  0  0  0  0  0  0
   22.8909   -7.6871  -19.4693 O   0  0  0  0  0  0  0  0  0  0  0  0
  2  3  1  0
  2  1  1  1
  4  8  1  0
  4  3  1  0
  5  4  2  0
  6  5  1  0
  6  7  1  0
  7  8  2  0
  9  2  1  0
 10  9  2  0
 12 11  1  1
 12 14  1  0
 13 12  1  0
 15 14  1  6
 15 16  1  0
 16  9  1  0
 17 15  1  0
 17 18  2  0
 20 22  1  0
 20 19  1  0
 21 20  2  0
 23 22  1  6
 23 24  1  0
 24 17  1  0
 25 23  1  0
 26 25  2  0
 27 25  1  0
M  END
$$$$
