HLN.pdb
     RDKit          3D

 27 27  0  0  1  0  0  0  0  0999 V2000
   18.5711  -12.7726  -16.7387 N   0  0  0  0  0  0  0  0  0  0  0  0
   19.6909  -11.9788  -17.1617 C   0  0  1  0  0  0  0  0  0  0  0  0
   19.2802  -10.6766  -17.8146 C   0  0  0  0  0  0  0  0  0  0  0  0
   18.4958  -10.8936  -19.0368 C   0  0  0  0  0  0  0  0  0  0  0  0
   18.1228  -12.0735  -19.6544 C   0  0  0  0  0  0  0  0  0  0  0  0
   17.4037  -11.8115  -20.7499 N   0  0  0  0  0  0  0  0  0  0  0  0
   17.3094  -10.4615  -20.8484 C   0  0  0  0  0  0  0  0  0  0  0  0
   17.9822   -9.9174  -19.7940 N   0  0  0  0  0  0  0  0  0  0  0  0
   20.6068  -11.7337  -16.0022 C   0  0  0  0  0  0  0  0  0  0  0  0
   20.0557  -11.6132  -14.8939 O   0  0  0  0  0  0  0  0  0  0  0  0
   23.7977  -14.2232  -14.2612 C   0  0  0  0  0  0  0  0  0  0  0  0
   24.1967  -13.5003  -15.5520 C   0  0  2  0  0  0  0  0  0  0  0  0
   25.5840  -14.0328  -15.8993 C   0  0  0  0  0  0  0  0  0  0  0  0
   24.3206  -12.0127  -15.3161 C   0  0  0  0  0  0  0  0  0  0  0  0
   22.9829  -11.3582  -15.1625 C   0  0  2  0  0  0  0  0  0  0  0  0
   22.0003  -11.6474  -16.1559 N   0  0  0  0  0  0  0  0  0  0  0  0
   22.9964   -9.9247  -14.8041 C   0  0  0  0  0  0  0  0  0  0  0  0
   23.6967   -9.5764  -13.7844 O   0  0  0  0  0  0  0  0  0  0  0  0
   22.2271   -4.6725  -15.2332 N   0  0  0  0  0  0  0  0  0  0  0  0
   21.7521   -5.3106  -16.4085 C   0  0  0  0  0  0  0  0  0  0  0  0
   21.3177   -4.5939  -17.3376 O   0  0  0  0  0  0  0  0  0  0  0  0
   21.7642   -6.7684  -16.5371 C   0  0  0  0  0  0  0  0  0  0  0  0
   22.2086   -7.5271  -15.3267 C   0  0  2  0  0  0  0  0  0  0  0  0
   22.3058   -8.9254  -15.4864 N   0  0  0  0  0  0  0  0  0  0  0  0
   21.5208   -6.9622  -14.1665 C   0  0  0  0  0  0  0  0  0  0  0  0
   21.5530   -5.7881  -13.8073 O   0  0  0  0  0  0  0  0  0  0  0  0
   20.7574   -7.8660  -13.4017 O   0  0  0  0  0  0  0  0  0  0  0  0
  2  3  1  0
  2  1  1  1
  4  8  1  0
  4  3  1  0
  5  4  2  0
  6  5  1  0
  6  7  1  0
  7  8  2  0
  9  2  1  0
 10  9  2  0
 12 11  1  1
 12 14  1  0
 13 12  1  0
 15 14  1  6
 15 16  1  0
 16  9  1  0
 17 15  1  0
 17 18  2  0
 20 22  1  0
 20 19  1  0
 21 20  2  0
 23 22  1  6
 23 24  1  0
 24 17  1  0
 25 23  1  0
 26 25  2  0
 27 25  1  0
M  END
$$$$
