HLN.pdb
     RDKit          3D

 27 27  0  0  1  0  0  0  0  0999 V2000
   28.0241  -20.8764  -17.1790 N   0  0  0  0  0  0  0  0  0  0  0  0
   27.4652  -19.9585  -16.2260 C   0  0  1  0  0  0  0  0  0  0  0  0
   26.6168  -18.8823  -16.8683 C   0  0  0  0  0  0  0  0  0  0  0  0
   27.4153  -17.9663  -17.6926 C   0  0  0  0  0  0  0  0  0  0  0  0
   28.0209  -18.1743  -18.9184 C   0  0  0  0  0  0  0  0  0  0  0  0
   28.6480  -17.0631  -19.3158 N   0  0  0  0  0  0  0  0  0  0  0  0
   28.4535  -16.1312  -18.3488 C   0  0  0  0  0  0  0  0  0  0  0  0
   27.6988  -16.7003  -17.3654 N   0  0  0  0  0  0  0  0  0  0  0  0
   26.6866  -20.7114  -15.1916 C   0  0  0  0  0  0  0  0  0  0  0  0
   26.2473  -21.8196  -15.5459 O   0  0  0  0  0  0  0  0  0  0  0  0
   24.0348  -21.0002  -10.5379 C   0  0  0  0  0  0  0  0  0  0  0  0
   25.5356  -21.2575  -10.3660 C   0  0  2  0  0  0  0  0  0  0  0  0
   25.8992  -20.6347   -9.0211 C   0  0  0  0  0  0  0  0  0  0  0  0
   26.3276  -20.5399  -11.4346 C   0  0  0  0  0  0  0  0  0  0  0  0
   25.7977  -20.8216  -12.8063 C   0  0  2  0  0  0  0  0  0  0  0  0
   26.4679  -20.1998  -13.9018 N   0  0  0  0  0  0  0  0  0  0  0  0
   24.3290  -20.7707  -12.9603 C   0  0  0  0  0  0  0  0  0  0  0  0
   23.6217  -21.4175  -12.1042 O   0  0  0  0  0  0  0  0  0  0  0  0
   20.0644  -17.2167  -15.5699 N   0  0  0  0  0  0  0  0  0  0  0  0
   20.5986  -18.5313  -15.5434 C   0  0  0  0  0  0  0  0  0  0  0  0
   19.8292  -19.4885  -15.7832 O   0  0  0  0  0  0  0  0  0  0  0  0
   22.0106  -18.7697  -15.2419 C   0  0  0  0  0  0  0  0  0  0  0  0
   22.2919  -19.8410  -14.2362 C   0  0  2  0  0  0  0  0  0  0  0  0
   23.6558  -20.0774  -13.9638 N   0  0  0  0  0  0  0  0  0  0  0  0
   21.3884  -20.9582  -14.5074 C   0  0  0  0  0  0  0  0  0  0  0  0
   21.6755  -21.9923  -15.1050 O   0  0  0  0  0  0  0  0  0  0  0  0
   20.0698  -20.8143  -14.0330 O   0  0  0  0  0  0  0  0  0  0  0  0
  2  3  1  0
  2  1  1  6
  4  8  1  0
  4  3  1  0
  5  4  2  0
  6  5  1  0
  6  7  1  0
  7  8  2  0
  9  2  1  0
 10  9  2  0
 12 11  1  6
 12 14  1  0
 13 12  1  0
 15 14  1  1
 15 16  1  0
 16  9  1  0
 17 15  1  0
 17 18  2  0
 20 22  1  0
 20 19  1  0
 21 20  2  0
 23 22  1  6
 23 24  1  0
 24 17  1  0
 25 23  1  0
 26 25  2  0
 27 25  1  0
M  END
$$$$
