HLN.pdb
     RDKit          3D

 27 27  0  0  1  0  0  0  0  0999 V2000
   19.5137  -12.8617  -18.3116 N   0  0  0  0  0  0  0  0  0  0  0  0
   20.3492  -11.8185  -18.8376 C   0  0  1  0  0  0  0  0  0  0  0  0
   19.8350  -11.2497  -20.1424 C   0  0  0  0  0  0  0  0  0  0  0  0
   19.7826  -12.2619  -21.2049 C   0  0  0  0  0  0  0  0  0  0  0  0
   20.7488  -12.6396  -22.1195 C   0  0  0  0  0  0  0  0  0  0  0  0
   20.2796  -13.6098  -22.9097 N   0  0  0  0  0  0  0  0  0  0  0  0
   19.0072  -13.8636  -22.5123 C   0  0  0  0  0  0  0  0  0  0  0  0
   18.7207  -13.0311  -21.4705 N   0  0  0  0  0  0  0  0  0  0  0  0
   20.5225  -10.7407  -17.8122 C   0  0  0  0  0  0  0  0  0  0  0  0
   19.5053  -10.4461  -17.1601 O   0  0  0  0  0  0  0  0  0  0  0  0
   22.6675  -10.3778  -13.9107 C   0  0  0  0  0  0  0  0  0  0  0  0
   23.5403  -10.4342  -15.1688 C   0  0  2  0  0  0  0  0  0  0  0  0
   24.9770  -10.5052  -14.6591 C   0  0  0  0  0  0  0  0  0  0  0  0
   23.4003   -9.1636  -15.9750 C   0  0  0  0  0  0  0  0  0  0  0  0
   22.0701   -9.0787  -16.6570 C   0  0  2  0  0  0  0  0  0  0  0  0
   21.7562  -10.1039  -17.5983 N   0  0  0  0  0  0  0  0  0  0  0  0
   21.6739   -7.7423  -17.1475 C   0  0  0  0  0  0  0  0  0  0  0  0
   22.0460   -7.4128  -18.3326 O   0  0  0  0  0  0  0  0  0  0  0  0
   17.5493   -6.9936  -18.3553 N   0  0  0  0  0  0  0  0  0  0  0  0
   18.1287   -6.0338  -17.4850 C   0  0  0  0  0  0  0  0  0  0  0  0
   17.5002   -5.7158  -16.4509 O   0  0  0  0  0  0  0  0  0  0  0  0
   19.4257   -5.4253  -17.7837 C   0  0  0  0  0  0  0  0  0  0  0  0
   20.4545   -5.5161  -16.7013 C   0  0  2  0  0  0  0  0  0  0  0  0
   20.9308   -6.8141  -16.4213 N   0  0  0  0  0  0  0  0  0  0  0  0
   20.0395   -4.6310  -15.6137 C   0  0  0  0  0  0  0  0  0  0  0  0
   19.8937   -4.9504  -14.4367 O   0  0  0  0  0  0  0  0  0  0  0  0
   19.7860   -3.2921  -15.9708 O   0  0  0  0  0  0  0  0  0  0  0  0
  2  3  1  0
  2  1  1  1
  4  8  1  0
  4  3  1  0
  5  4  2  0
  6  5  1  0
  6  7  1  0
  7  8  2  0
  9  2  1  0
 10  9  2  0
 12 11  1  1
 12 14  1  0
 13 12  1  0
 15 14  1  6
 15 16  1  0
 16  9  1  0
 17 15  1  0
 17 18  2  0
 20 22  1  0
 20 19  1  0
 21 20  2  0
 23 22  1  6
 23 24  1  0
 24 17  1  0
 25 23  1  0
 26 25  2  0
 27 25  1  0
M  END
$$$$
