HLN.pdb
     RDKit          3D

 27 27  0  0  1  0  0  0  0  0999 V2000
   20.9360  -13.2020  -16.2263 N   0  0  0  0  0  0  0  0  0  0  0  0
   21.5586  -12.2041  -17.0508 C   0  0  1  0  0  0  0  0  0  0  0  0
   20.6106  -11.5963  -18.0620 C   0  0  0  0  0  0  0  0  0  0  0  0
   20.1111  -12.5909  -19.0198 C   0  0  0  0  0  0  0  0  0  0  0  0
   20.7314  -13.1527  -20.1208 C   0  0  0  0  0  0  0  0  0  0  0  0
   19.9116  -14.0249  -20.7150 N   0  0  0  0  0  0  0  0  0  0  0  0
   18.7562  -14.0306  -20.0035 C   0  0  0  0  0  0  0  0  0  0  0  0
   18.8960  -13.1489  -18.9722 N   0  0  0  0  0  0  0  0  0  0  0  0
   22.1764  -11.1463  -16.1891 C   0  0  0  0  0  0  0  0  0  0  0  0
   21.6403  -10.9704  -15.0808 O   0  0  0  0  0  0  0  0  0  0  0  0
   26.2076  -11.2938  -14.8763 C   0  0  0  0  0  0  0  0  0  0  0  0
   26.1325  -10.6174  -16.2492 C   0  0  2  0  0  0  0  0  0  0  0  0
   27.5829  -10.3883  -16.6648 C   0  0  0  0  0  0  0  0  0  0  0  0
   25.4649   -9.2656  -16.1442 C   0  0  0  0  0  0  0  0  0  0  0  0
   23.9949   -9.3872  -15.8879 C   0  0  2  0  0  0  0  0  0  0  0  0
   23.2922  -10.4011  -16.6049 N   0  0  0  0  0  0  0  0  0  0  0  0
   23.2350   -8.1208  -15.8407 C   0  0  0  0  0  0  0  0  0  0  0  0
   23.6719   -7.1974  -15.0609 O   0  0  0  0  0  0  0  0  0  0  0  0
   21.2680   -6.7610  -20.3902 N   0  0  0  0  0  0  0  0  0  0  0  0
   21.4517   -6.1980  -19.1005 C   0  0  0  0  0  0  0  0  0  0  0  0
   22.4007   -5.4002  -18.9318 O   0  0  0  0  0  0  0  0  0  0  0  0
   20.5603   -6.5387  -17.9909 C   0  0  0  0  0  0  0  0  0  0  0  0
   21.2188   -6.7421  -16.6630 C   0  0  2  0  0  0  0  0  0  0  0  0
   22.0814   -7.8549  -16.5752 N   0  0  0  0  0  0  0  0  0  0  0  0
   20.2176   -6.4999  -15.6250 C   0  0  0  0  0  0  0  0  0  0  0  0
   19.5066   -5.5035  -15.5241 O   0  0  0  0  0  0  0  0  0  0  0  0
   20.0725   -7.5152  -14.6592 O   0  0  0  0  0  0  0  0  0  0  0  0
  2  3  1  0
  2  1  1  1
  4  8  1  0
  4  3  1  0
  5  4  2  0
  6  5  1  0
  6  7  1  0
  7  8  2  0
  9  2  1  0
 10  9  2  0
 12 11  1  1
 12 14  1  0
 13 12  1  0
 15 14  1  6
 15 16  1  0
 16  9  1  0
 17 15  1  0
 17 18  2  0
 20 22  1  0
 20 19  1  0
 21 20  2  0
 23 22  1  6
 23 24  1  0
 24 17  1  0
 25 23  1  0
 26 25  2  0
 27 25  1  0
M  END
$$$$
