HLN.pdb
     RDKit          3D

 27 27  0  0  1  0  0  0  0  0999 V2000
   20.7834  -13.2559  -16.3568 N   0  0  0  0  0  0  0  0  0  0  0  0
   21.1158  -12.0260  -17.0200 C   0  0  1  0  0  0  0  0  0  0  0  0
   19.9253  -11.3743  -17.6898 C   0  0  0  0  0  0  0  0  0  0  0  0
   19.3862  -12.1955  -18.7811 C   0  0  0  0  0  0  0  0  0  0  0  0
   19.6921  -12.1911  -20.1299 C   0  0  0  0  0  0  0  0  0  0  0  0
   18.9643  -13.1116  -20.7693 N   0  0  0  0  0  0  0  0  0  0  0  0
   18.1824  -13.7149  -19.8387 C   0  0  0  0  0  0  0  0  0  0  0  0
   18.4533  -13.1426  -18.6306 N   0  0  0  0  0  0  0  0  0  0  0  0
   21.7691  -11.0876  -16.0526 C   0  0  0  0  0  0  0  0  0  0  0  0
   21.2364  -11.0094  -14.9316 O   0  0  0  0  0  0  0  0  0  0  0  0
   25.7201  -11.4583  -14.6898 C   0  0  0  0  0  0  0  0  0  0  0  0
   25.7064  -10.6471  -15.9897 C   0  0  2  0  0  0  0  0  0  0  0  0
   27.1748  -10.4335  -16.3463 C   0  0  0  0  0  0  0  0  0  0  0  0
   25.0848   -9.2879  -15.7660 C   0  0  0  0  0  0  0  0  0  0  0  0
   23.5993   -9.3736  -15.6000 C   0  0  2  0  0  0  0  0  0  0  0  0
   22.9125  -10.3441  -16.3889 N   0  0  0  0  0  0  0  0  0  0  0  0
   22.8734   -8.0873  -15.5568 C   0  0  0  0  0  0  0  0  0  0  0  0
   23.2996   -7.1948  -14.7362 O   0  0  0  0  0  0  0  0  0  0  0  0
   21.9394   -5.8830  -19.8807 N   0  0  0  0  0  0  0  0  0  0  0  0
   21.7723   -5.6154  -18.4970 C   0  0  0  0  0  0  0  0  0  0  0  0
   22.6431   -4.9295  -17.9166 O   0  0  0  0  0  0  0  0  0  0  0  0
   20.6157   -6.1269  -17.7605 C   0  0  0  0  0  0  0  0  0  0  0  0
   20.8968   -6.6592  -16.3909 C   0  0  2  0  0  0  0  0  0  0  0  0
   21.7623   -7.7719  -16.3359 N   0  0  0  0  0  0  0  0  0  0  0  0
   19.6387   -6.6644  -15.6456 C   0  0  0  0  0  0  0  0  0  0  0  0
   19.1499   -7.6260  -15.0581 O   0  0  0  0  0  0  0  0  0  0  0  0
   18.9363   -5.4438  -15.6125 O   0  0  0  0  0  0  0  0  0  0  0  0
  2  3  1  0
  2  1  1  1
  4  8  1  0
  4  3  1  0
  5  4  2  0
  6  5  1  0
  6  7  1  0
  7  8  2  0
  9  2  1  0
 10  9  2  0
 12 11  1  1
 12 14  1  0
 13 12  1  0
 15 14  1  6
 15 16  1  0
 16  9  1  0
 17 15  1  0
 17 18  2  0
 20 22  1  0
 20 19  1  0
 21 20  2  0
 23 22  1  6
 23 24  1  0
 24 17  1  0
 25 23  1  0
 26 25  2  0
 27 25  1  0
M  END
$$$$
