HLN.pdb
     RDKit          3D

 27 27  0  0  1  0  0  0  0  0999 V2000
   15.0086  -20.0897    1.4376 N   0  0  0  0  0  0  0  0  0  0  0  0
   14.8075  -19.2498    2.5853 C   0  0  1  0  0  0  0  0  0  0  0  0
   13.8738  -19.8594    3.6085 C   0  0  0  0  0  0  0  0  0  0  0  0
   12.5283  -20.0843    3.0653 C   0  0  0  0  0  0  0  0  0  0  0  0
   11.6113  -19.1793    2.5625 C   0  0  0  0  0  0  0  0  0  0  0  0
   10.5054  -19.8169    2.1672 N   0  0  0  0  0  0  0  0  0  0  0  0
   10.6998  -21.1370    2.4138 C   0  0  0  0  0  0  0  0  0  0  0  0
   11.9402  -21.2816    2.9624 N   0  0  0  0  0  0  0  0  0  0  0  0
   16.1289  -18.9054    3.2007 C   0  0  0  0  0  0  0  0  0  0  0  0
   16.9973  -19.7942    3.1494 O   0  0  0  0  0  0  0  0  0  0  0  0
   19.1099  -15.6537    2.2146 C   0  0  0  0  0  0  0  0  0  0  0  0
   17.8448  -15.2128    2.9584 C   0  0  2  0  0  0  0  0  0  0  0  0
   17.9246  -13.6901    3.0206 C   0  0  0  0  0  0  0  0  0  0  0  0
   17.8498  -15.7322    4.3776 C   0  0  0  0  0  0  0  0  0  0  0  0
   17.5644  -17.2008    4.4358 C   0  0  2  0  0  0  0  0  0  0  0  0
   16.3733  -17.6569    3.7962 N   0  0  0  0  0  0  0  0  0  0  0  0
   17.7685  -17.8526    5.7462 C   0  0  0  0  0  0  0  0  0  0  0  0
   16.7383  -18.0010    6.4999 O   0  0  0  0  0  0  0  0  0  0  0  0
   19.9610  -22.3119    6.1986 N   0  0  0  0  0  0  0  0  0  0  0  0
   19.4982  -21.3456    7.1293 C   0  0  0  0  0  0  0  0  0  0  0  0
   18.4355  -21.5792    7.7471 O   0  0  0  0  0  0  0  0  0  0  0  0
   20.2374  -20.1045    7.3639 C   0  0  0  0  0  0  0  0  0  0  0  0
   19.4120  -18.8602    7.4566 C   0  0  2  0  0  0  0  0  0  0  0  0
   18.9925  -18.3147    6.2251 N   0  0  0  0  0  0  0  0  0  0  0  0
   20.0086  -18.0023    8.4795 C   0  0  0  0  0  0  0  0  0  0  0  0
   20.3725  -16.8392    8.3261 O   0  0  0  0  0  0  0  0  0  0  0  0
   20.1751  -18.5837    9.7518 O   0  0  0  0  0  0  0  0  0  0  0  0
  2  3  1  0
  2  1  1  6
  4  8  1  0
  4  3  1  0
  5  4  2  0
  6  5  1  0
  6  7  1  0
  7  8  2  0
  9  2  1  0
 10  9  2  0
 12 11  1  6
 12 14  1  0
 13 12  1  0
 15 14  1  1
 15 16  1  0
 16  9  1  0
 17 15  1  0
 17 18  2  0
 20 22  1  0
 20 19  1  0
 21 20  2  0
 23 22  1  6
 23 24  1  0
 24 17  1  0
 25 23  1  0
 26 25  2  0
 27 25  1  0
M  END
$$$$
