HLN.pdb
     RDKit          3D

 27 27  0  0  1  0  0  0  0  0999 V2000
   26.1815  -19.1192  -16.2096 N   0  0  0  0  0  0  0  0  0  0  0  0
   26.5302  -20.3986  -16.7614 C   0  0  1  0  0  0  0  0  0  0  0  0
   27.8842  -20.4022  -17.4377 C   0  0  0  0  0  0  0  0  0  0  0  0
   28.0444  -19.2722  -18.3615 C   0  0  0  0  0  0  0  0  0  0  0  0
   28.7450  -18.0901  -18.2050 C   0  0  0  0  0  0  0  0  0  0  0  0
   28.6285  -17.3379  -19.3034 N   0  0  0  0  0  0  0  0  0  0  0  0
   27.8506  -18.0277  -20.1753 C   0  0  0  0  0  0  0  0  0  0  0  0
   27.5030  -19.2064  -19.5833 N   0  0  0  0  0  0  0  0  0  0  0  0
   26.4585  -21.4483  -15.6955 C   0  0  0  0  0  0  0  0  0  0  0  0
   26.7234  -22.6076  -16.0596 O   0  0  0  0  0  0  0  0  0  0  0  0
   26.1694  -19.4793  -11.3373 C   0  0  0  0  0  0  0  0  0  0  0  0
   25.5677  -20.8746  -11.1398 C   0  0  2  0  0  0  0  0  0  0  0  0
   25.8337  -21.2244   -9.6784 C   0  0  0  0  0  0  0  0  0  0  0  0
   26.2856  -21.8932  -11.9949 C   0  0  0  0  0  0  0  0  0  0  0  0
   25.6579  -22.0289  -13.3473 C   0  0  2  0  0  0  0  0  0  0  0  0
   26.1159  -21.1431  -14.3679 N   0  0  0  0  0  0  0  0  0  0  0  0
   24.1883  -22.1813  -13.3710 C   0  0  0  0  0  0  0  0  0  0  0  0
   23.6666  -23.0145  -12.5433 O   0  0  0  0  0  0  0  0  0  0  0  0
   19.0980  -21.6721  -14.0602 N   0  0  0  0  0  0  0  0  0  0  0  0
   19.8090  -21.1110  -12.9676 C   0  0  0  0  0  0  0  0  0  0  0  0
   19.1638  -20.7804  -11.9478 O   0  0  0  0  0  0  0  0  0  0  0  0
   21.2586  -20.9185  -13.0254 C   0  0  0  0  0  0  0  0  0  0  0  0
   21.9259  -21.3577  -14.2903 C   0  0  2  0  0  0  0  0  0  0  0  0
   23.3286  -21.4922  -14.2237 N   0  0  0  0  0  0  0  0  0  0  0  0
   21.3051  -20.6337  -15.3988 C   0  0  0  0  0  0  0  0  0  0  0  0
   21.8811  -19.8950  -16.1933 O   0  0  0  0  0  0  0  0  0  0  0  0
   19.9160  -20.8118  -15.5508 O   0  0  0  0  0  0  0  0  0  0  0  0
  2  3  1  0
  2  1  1  1
  4  8  1  0
  4  3  1  0
  5  4  2  0
  6  5  1  0
  6  7  1  0
  7  8  2  0
  9  2  1  0
 10  9  2  0
 12 11  1  6
 12 14  1  0
 13 12  1  0
 15 14  1  1
 15 16  1  0
 16  9  1  0
 17 15  1  0
 17 18  2  0
 20 22  1  0
 20 19  1  0
 21 20  2  0
 23 22  1  1
 23 24  1  0
 24 17  1  0
 25 23  1  0
 26 25  2  0
 27 25  1  0
M  END
$$$$
