HLN.pdb
     RDKit          3D

 27 27  0  0  1  0  0  0  0  0999 V2000
   16.1499  -16.7051    4.1861 N   0  0  0  0  0  0  0  0  0  0  0  0
   16.0462  -15.6380    5.1419 C   0  0  1  0  0  0  0  0  0  0  0  0
   15.1076  -15.9570    6.2855 C   0  0  0  0  0  0  0  0  0  0  0  0
   13.7132  -16.0751    5.8406 C   0  0  0  0  0  0  0  0  0  0  0  0
   12.7416  -15.1014    5.6977 C   0  0  0  0  0  0  0  0  0  0  0  0
   11.6041  -15.6481    5.2580 N   0  0  0  0  0  0  0  0  0  0  0  0
   11.8328  -16.9780    5.1161 C   0  0  0  0  0  0  0  0  0  0  0  0
   13.1258  -17.2207    5.4765 N   0  0  0  0  0  0  0  0  0  0  0  0
   17.4081  -15.2758    5.6489 C   0  0  0  0  0  0  0  0  0  0  0  0
   18.2578  -16.1832    5.6122 O   0  0  0  0  0  0  0  0  0  0  0  0
   20.4601  -10.2027    7.7621 C   0  0  0  0  0  0  0  0  0  0  0  0
   20.4948  -11.6243    7.1912 C   0  0  2  0  0  0  0  0  0  0  0  0
   21.4692  -11.5632    6.0183 C   0  0  0  0  0  0  0  0  0  0  0  0
   19.1409  -12.0149    6.6448 C   0  0  0  0  0  0  0  0  0  0  0  0
   18.9558  -13.5005    6.6210 C   0  0  2  0  0  0  0  0  0  0  0  0
   17.7082  -13.9918    6.1334 N   0  0  0  0  0  0  0  0  0  0  0  0
   19.4015  -14.2317    7.8252 C   0  0  0  0  0  0  0  0  0  0  0  0
   18.5696  -14.3289    8.8000 O   0  0  0  0  0  0  0  0  0  0  0  0
   22.1804  -17.4443   10.9512 N   0  0  0  0  0  0  0  0  0  0  0  0
   22.7096  -17.5005    9.6356 C   0  0  0  0  0  0  0  0  0  0  0  0
   23.5459  -18.3927    9.3708 O   0  0  0  0  0  0  0  0  0  0  0  0
   22.2952  -16.5418    8.6104 C   0  0  0  0  0  0  0  0  0  0  0  0
   21.2661  -15.5405    9.0304 C   0  0  2  0  0  0  0  0  0  0  0  0
   20.6545  -14.8201    7.9830 N   0  0  0  0  0  0  0  0  0  0  0  0
   21.7768  -14.8406   10.2084 C   0  0  0  0  0  0  0  0  0  0  0  0
   22.1657  -13.6761   10.2461 O   0  0  0  0  0  0  0  0  0  0  0  0
   21.8208  -15.5903   11.4003 O   0  0  0  0  0  0  0  0  0  0  0  0
  2  3  1  0
  2  1  1  6
  4  8  1  0
  4  3  1  0
  5  4  2  0
  6  5  1  0
  6  7  1  0
  7  8  2  0
  9  2  1  0
 10  9  2  0
 12 11  1  6
 12 14  1  0
 13 12  1  0
 15 14  1  1
 15 16  1  0
 16  9  1  0
 17 15  1  0
 17 18  2  0
 20 22  1  0
 20 19  1  0
 21 20  2  0
 23 22  1  6
 23 24  1  0
 24 17  1  0
 25 23  1  0
 26 25  2  0
 27 25  1  0
M  END
$$$$
