HLN.pdb
     RDKit          3D

 27 27  0  0  1  0  0  0  0  0999 V2000
   28.3860  -24.8304  -16.9061 N   0  0  0  0  0  0  0  0  0  0  0  0
   27.2779  -23.9373  -16.7126 C   0  0  1  0  0  0  0  0  0  0  0  0
   26.0169  -24.6465  -16.2682 C   0  0  0  0  0  0  0  0  0  0  0  0
   25.6352  -25.7253  -17.1882 C   0  0  0  0  0  0  0  0  0  0  0  0
   25.6953  -27.0969  -17.0216 C   0  0  0  0  0  0  0  0  0  0  0  0
   25.2395  -27.7134  -18.1161 N   0  0  0  0  0  0  0  0  0  0  0  0
   24.8841  -26.7447  -18.9973 C   0  0  0  0  0  0  0  0  0  0  0  0
   25.1328  -25.5371  -18.4139 N   0  0  0  0  0  0  0  0  0  0  0  0
   27.6576  -22.8585  -15.7455 C   0  0  0  0  0  0  0  0  0  0  0  0
   28.5175  -23.1670  -14.9017 O   0  0  0  0  0  0  0  0  0  0  0  0
   27.0215  -20.0471  -18.0539 C   0  0  0  0  0  0  0  0  0  0  0  0
   26.8400  -18.9673  -16.9819 C   0  0  2  0  0  0  0  0  0  0  0  0
   27.2267  -17.6567  -17.6613 C   0  0  0  0  0  0  0  0  0  0  0  0
   27.7952  -19.1887  -15.8318 C   0  0  0  0  0  0  0  0  0  0  0  0
   27.4502  -20.4167  -15.0479 C   0  0  2  0  0  0  0  0  0  0  0  0
   27.0810  -21.5784  -15.7896 N   0  0  0  0  0  0  0  0  0  0  0  0
   26.5780  -20.2153  -13.8723 C   0  0  0  0  0  0  0  0  0  0  0  0
   26.8662  -19.2444  -13.0812 O   0  0  0  0  0  0  0  0  0  0  0  0
   25.2608  -21.4567   -9.3183 N   0  0  0  0  0  0  0  0  0  0  0  0
   24.3963  -20.6255  -10.0772 C   0  0  0  0  0  0  0  0  0  0  0  0
   23.2639  -20.3667   -9.6120 O   0  0  0  0  0  0  0  0  0  0  0  0
   24.8101  -20.0833  -11.3720 C   0  0  0  0  0  0  0  0  0  0  0  0
   24.4684  -20.9152  -12.5676 C   0  0  2  0  0  0  0  0  0  0  0  0
   25.4705  -20.9996  -13.5570 N   0  0  0  0  0  0  0  0  0  0  0  0
   23.0860  -20.6175  -12.9400 C   0  0  0  0  0  0  0  0  0  0  0  0
   22.1153  -20.6303  -12.1875 O   0  0  0  0  0  0  0  0  0  0  0  0
   22.8684  -20.2904  -14.2929 O   0  0  0  0  0  0  0  0  0  0  0  0
  2  3  1  0
  2  1  1  1
  4  8  1  0
  4  3  1  0
  5  4  2  0
  6  5  1  0
  6  7  1  0
  7  8  2  0
  9  2  1  0
 10  9  2  0
 12 11  1  6
 12 14  1  0
 13 12  1  0
 15 14  1  6
 15 16  1  0
 16  9  1  0
 17 15  1  0
 17 18  2  0
 20 22  1  0
 20 19  1  0
 21 20  2  0
 23 22  1  1
 23 24  1  0
 24 17  1  0
 25 23  1  0
 26 25  2  0
 27 25  1  0
M  END
$$$$
