HLN.pdb
     RDKit          3D

 27 27  0  0  1  0  0  0  0  0999 V2000
   23.4317  -24.3308  -16.8172 N   0  0  0  0  0  0  0  0  0  0  0  0
   23.4214  -22.9056  -16.6393 C   0  0  1  0  0  0  0  0  0  0  0  0
   22.4447  -22.2018  -17.5566 C   0  0  0  0  0  0  0  0  0  0  0  0
   22.8053  -22.3555  -18.9716 C   0  0  0  0  0  0  0  0  0  0  0  0
   22.1288  -22.9925  -19.9960 C   0  0  0  0  0  0  0  0  0  0  0  0
   22.8171  -22.8874  -21.1366 N   0  0  0  0  0  0  0  0  0  0  0  0
   23.9432  -22.1841  -20.8563 C   0  0  0  0  0  0  0  0  0  0  0  0
   23.9192  -21.8678  -19.5297 N   0  0  0  0  0  0  0  0  0  0  0  0
   23.1462  -22.5746  -15.2048 C   0  0  0  0  0  0  0  0  0  0  0  0
   22.3761  -23.3487  -14.6094 O   0  0  0  0  0  0  0  0  0  0  0  0
   25.7527  -22.2484  -11.4488 C   0  0  0  0  0  0  0  0  0  0  0  0
   25.9015  -21.1602  -12.5172 C   0  0  2  0  0  0  0  0  0  0  0  0
   27.0576  -20.2848  -12.0417 C   0  0  0  0  0  0  0  0  0  0  0  0
   24.6636  -20.2953  -12.5765 C   0  0  0  0  0  0  0  0  0  0  0  0
   23.5198  -21.0018  -13.2353 C   0  0  2  0  0  0  0  0  0  0  0  0
   23.7227  -21.4617  -14.5707 N   0  0  0  0  0  0  0  0  0  0  0  0
   22.1876  -20.3862  -13.0628 C   0  0  0  0  0  0  0  0  0  0  0  0
   21.9009  -19.9116  -11.9034 O   0  0  0  0  0  0  0  0  0  0  0  0
   18.6050  -16.3260  -12.5989 N   0  0  0  0  0  0  0  0  0  0  0  0
   18.7877  -17.4880  -13.3929 C   0  0  0  0  0  0  0  0  0  0  0  0
   17.8543  -17.8436  -14.1466 O   0  0  0  0  0  0  0  0  0  0  0  0
   20.0313  -18.2574  -13.3354 C   0  0  0  0  0  0  0  0  0  0  0  0
   20.1196  -19.4265  -14.2647 C   0  0  2  0  0  0  0  0  0  0  0  0
   21.2205  -20.2847  -14.0605 N   0  0  0  0  0  0  0  0  0  0  0  0
   19.7894  -18.9558  -15.6092 C   0  0  0  0  0  0  0  0  0  0  0  0
   18.8281  -18.2548  -15.9145 O   0  0  0  0  0  0  0  0  0  0  0  0
   20.6667  -19.3567  -16.6359 O   0  0  0  0  0  0  0  0  0  0  0  0
  2  3  1  0
  2  1  1  1
  4  8  1  0
  4  3  1  0
  5  4  2  0
  6  5  1  0
  6  7  1  0
  7  8  2  0
  9  2  1  0
 10  9  2  0
 12 11  1  1
 12 14  1  0
 13 12  1  0
 15 14  1  6
 15 16  1  0
 16  9  1  0
 17 15  1  0
 17 18  2  0
 20 22  1  0
 20 19  1  0
 21 20  2  0
 23 22  1  1
 23 24  1  0
 24 17  1  0
 25 23  1  0
 26 25  2  0
 27 25  1  0
M  END
$$$$
