HLN.pdb
     RDKit          3D

 27 27  0  0  1  0  0  0  0  0999 V2000
   22.6068  -15.2732  -17.8844 N   0  0  0  0  0  0  0  0  0  0  0  0
   23.1222  -14.1233  -18.5736 C   0  0  1  0  0  0  0  0  0  0  0  0
   22.2178  -13.6481  -19.6903 C   0  0  0  0  0  0  0  0  0  0  0  0
   22.0274  -14.6744  -20.7230 C   0  0  0  0  0  0  0  0  0  0  0  0
   22.9634  -15.4140  -21.4226 C   0  0  0  0  0  0  0  0  0  0  0  0
   22.3514  -16.2455  -22.2711 N   0  0  0  0  0  0  0  0  0  0  0  0
   21.0169  -16.0471  -22.1267 C   0  0  0  0  0  0  0  0  0  0  0  0
   20.8376  -15.0842  -21.1774 N   0  0  0  0  0  0  0  0  0  0  0  0
   23.3917  -13.0226  -17.5944 C   0  0  0  0  0  0  0  0  0  0  0  0
   22.4992  -12.8167  -16.7531 O   0  0  0  0  0  0  0  0  0  0  0  0
   26.9836  -12.5629  -14.9969 C   0  0  0  0  0  0  0  0  0  0  0  0
   27.1964  -12.0608  -16.4288 C   0  0  2  0  0  0  0  0  0  0  0  0
   28.6697  -11.6702  -16.5036 C   0  0  0  0  0  0  0  0  0  0  0  0
   26.3770  -10.8176  -16.6876 C   0  0  0  0  0  0  0  0  0  0  0  0
   24.9204  -11.1299  -16.8374 C   0  0  2  0  0  0  0  0  0  0  0  0
   24.5782  -12.2712  -17.6224 N   0  0  0  0  0  0  0  0  0  0  0  0
   24.0340   -9.9822  -17.1209 C   0  0  0  0  0  0  0  0  0  0  0  0
   23.8871   -9.6377  -18.3503 O   0  0  0  0  0  0  0  0  0  0  0  0
   20.1497   -6.5531  -18.2684 N   0  0  0  0  0  0  0  0  0  0  0  0
   20.2109   -7.3887  -17.1229 C   0  0  0  0  0  0  0  0  0  0  0  0
   19.4121   -7.1686  -16.1853 O   0  0  0  0  0  0  0  0  0  0  0  0
   21.1819   -8.4799  -17.0318 C   0  0  0  0  0  0  0  0  0  0  0  0
   22.4067   -8.1982  -16.2202 C   0  0  2  0  0  0  0  0  0  0  0  0
   23.3492   -9.2459  -16.1566 N   0  0  0  0  0  0  0  0  0  0  0  0
   21.9873   -7.5069  -15.0018 C   0  0  0  0  0  0  0  0  0  0  0  0
   22.1112   -7.9252  -13.8535 O   0  0  0  0  0  0  0  0  0  0  0  0
   21.3852   -6.2464  -15.1839 O   0  0  0  0  0  0  0  0  0  0  0  0
  2  3  1  0
  2  1  1  1
  4  8  1  0
  4  3  1  0
  5  4  2  0
  6  5  1  0
  6  7  1  0
  7  8  2  0
  9  2  1  0
 10  9  2  0
 12 11  1  1
 12 14  1  0
 13 12  1  0
 15 14  1  6
 15 16  1  0
 16  9  1  0
 17 15  1  0
 17 18  2  0
 20 22  1  0
 20 19  1  0
 21 20  2  0
 23 22  1  1
 23 24  1  0
 24 17  1  0
 25 23  1  0
 26 25  2  0
 27 25  1  0
M  END
$$$$
