HLN.pdb
     RDKit          3D

 27 27  0  0  1  0  0  0  0  0999 V2000
   19.2281  -20.8331  -12.0894 N   0  0  0  0  0  0  0  0  0  0  0  0
   20.2171  -21.3620  -12.9867 C   0  0  1  0  0  0  0  0  0  0  0  0
   19.7721  -21.3474  -14.4332 C   0  0  0  0  0  0  0  0  0  0  0  0
   18.5502  -22.1338  -14.6442 C   0  0  0  0  0  0  0  0  0  0  0  0
   17.3450  -21.7657  -15.2140 C   0  0  0  0  0  0  0  0  0  0  0  0
   16.4997  -22.8008  -15.2104 N   0  0  0  0  0  0  0  0  0  0  0  0
   17.1522  -23.8431  -14.6367 C   0  0  0  0  0  0  0  0  0  0  0  0
   18.4028  -23.4175  -14.2971 N   0  0  0  0  0  0  0  0  0  0  0  0
   21.5078  -20.6220  -12.8135 C   0  0  0  0  0  0  0  0  0  0  0  0
   21.4056  -19.4196  -12.5130 O   0  0  0  0  0  0  0  0  0  0  0  0
   26.4458  -21.5888   -9.9743 C   0  0  0  0  0  0  0  0  0  0  0  0
   25.3418  -20.8251  -10.7132 C   0  0  2  0  0  0  0  0  0  0  0  0
   24.0912  -20.9954   -9.8554 C   0  0  0  0  0  0  0  0  0  0  0  0
   25.0653  -21.4534  -12.0597 C   0  0  0  0  0  0  0  0  0  0  0  0
   24.0550  -20.6739  -12.8428 C   0  0  2  0  0  0  0  0  0  0  0  0
   22.7552  -21.2466  -12.9779 N   0  0  0  0  0  0  0  0  0  0  0  0
   24.5293  -20.0824  -14.1111 C   0  0  0  0  0  0  0  0  0  0  0  0
   25.5902  -19.3585  -14.0660 O   0  0  0  0  0  0  0  0  0  0  0  0
   24.9538  -18.8016  -19.2209 N   0  0  0  0  0  0  0  0  0  0  0  0
   25.5432  -20.0001  -18.7409 C   0  0  0  0  0  0  0  0  0  0  0  0
   26.3564  -20.5981  -19.4802 O   0  0  0  0  0  0  0  0  0  0  0  0
   25.2116  -20.5307  -17.4179 C   0  0  0  0  0  0  0  0  0  0  0  0
   24.1850  -19.7643  -16.6453 C   0  0  2  0  0  0  0  0  0  0  0  0
   23.9118  -20.2487  -15.3488 N   0  0  0  0  0  0  0  0  0  0  0  0
   23.0900  -19.4373  -17.5576 C   0  0  0  0  0  0  0  0  0  0  0  0
   21.9029  -19.7035  -17.3879 O   0  0  0  0  0  0  0  0  0  0  0  0
   23.4518  -18.7557  -18.7362 O   0  0  0  0  0  0  0  0  0  0  0  0
  2  3  1  0
  2  1  1  1
  4  8  1  0
  4  3  1  0
  5  4  2  0
  6  5  1  0
  6  7  1  0
  7  8  2  0
  9  2  1  0
 10  9  2  0
 12 11  1  1
 12 14  1  0
 13 12  1  0
 15 14  1  6
 15 16  1  0
 16  9  1  0
 17 15  1  0
 17 18  2  0
 20 22  1  0
 20 19  1  0
 21 20  2  0
 23 22  1  6
 23 24  1  0
 24 17  1  0
 25 23  1  0
 26 25  2  0
 27 25  1  0
M  END
$$$$
