HLN.pdb
     RDKit          3D

 27 27  0  0  1  0  0  0  0  0999 V2000
   22.3466  -11.9019  -18.7124 N   0  0  0  0  0  0  0  0  0  0  0  0
   21.2448  -11.8265  -17.7940 C   0  0  1  0  0  0  0  0  0  0  0  0
   20.5014  -13.1373  -17.6527 C   0  0  0  0  0  0  0  0  0  0  0  0
   19.9917  -13.6260  -18.9401 C   0  0  0  0  0  0  0  0  0  0  0  0
   18.7039  -13.9634  -19.3146 C   0  0  0  0  0  0  0  0  0  0  0  0
   18.6850  -14.3591  -20.5909 N   0  0  0  0  0  0  0  0  0  0  0  0
   19.9601  -14.2820  -21.0484 C   0  0  0  0  0  0  0  0  0  0  0  0
   20.7444  -13.8327  -20.0268 N   0  0  0  0  0  0  0  0  0  0  0  0
   21.7251  -11.3344  -16.4635 C   0  0  0  0  0  0  0  0  0  0  0  0
   20.8694  -11.2906  -15.5621 O   0  0  0  0  0  0  0  0  0  0  0  0
   27.3488  -11.2173  -15.7380 C   0  0  0  0  0  0  0  0  0  0  0  0
   25.9126  -10.7728  -16.0343 C   0  0  2  0  0  0  0  0  0  0  0  0
   26.0251   -9.3163  -16.4757 C   0  0  0  0  0  0  0  0  0  0  0  0
   25.0712  -10.8096  -14.7794 C   0  0  0  0  0  0  0  0  0  0  0  0
   23.6467  -10.4373  -15.0511 C   0  0  2  0  0  0  0  0  0  0  0  0
   23.0582  -10.9488  -16.2461 N   0  0  0  0  0  0  0  0  0  0  0  0
   23.2890   -9.0215  -14.8250 C   0  0  0  0  0  0  0  0  0  0  0  0
   23.8538   -8.4186  -13.8406 O   0  0  0  0  0  0  0  0  0  0  0  0
   20.6825   -4.4038  -15.2013 N   0  0  0  0  0  0  0  0  0  0  0  0
   22.0675   -4.5369  -15.4806 C   0  0  0  0  0  0  0  0  0  0  0  0
   22.7560   -3.4962  -15.5739 O   0  0  0  0  0  0  0  0  0  0  0  0
   22.6816   -5.8532  -15.6589 C   0  0  0  0  0  0  0  0  0  0  0  0
   21.7796   -7.0284  -15.4504 C   0  0  2  0  0  0  0  0  0  0  0  0
   22.3851   -8.2942  -15.5963 N   0  0  0  0  0  0  0  0  0  0  0  0
   20.5067   -6.7382  -16.1090 C   0  0  0  0  0  0  0  0  0  0  0  0
   19.9655   -7.4247  -16.9718 O   0  0  0  0  0  0  0  0  0  0  0  0
   19.8580   -5.5552  -15.7035 O   0  0  0  0  0  0  0  0  0  0  0  0
  2  3  1  0
  2  1  1  6
  4  8  1  0
  4  3  1  0
  5  4  2  0
  6  5  1  0
  6  7  1  0
  7  8  2  0
  9  2  1  0
 10  9  2  0
 12 11  1  1
 12 14  1  0
 13 12  1  0
 15 14  1  6
 15 16  1  0
 16  9  1  0
 17 15  1  0
 17 18  2  0
 20 22  1  0
 20 19  1  0
 21 20  2  0
 23 22  1  6
 23 24  1  0
 24 17  1  0
 25 23  1  0
 26 25  2  0
 27 25  1  0
M  END
$$$$
