HLN.pdb
     RDKit          3D

 27 27  0  0  1  0  0  0  0  0999 V2000
   20.4799  -20.4519  -11.9535 N   0  0  0  0  0  0  0  0  0  0  0  0
   21.4660  -21.3557  -12.4767 C   0  0  1  0  0  0  0  0  0  0  0  0
   21.0411  -22.0087  -13.7743 C   0  0  0  0  0  0  0  0  0  0  0  0
   19.8361  -22.8317  -13.6110 C   0  0  0  0  0  0  0  0  0  0  0  0
   18.9662  -22.9294  -12.5403 C   0  0  0  0  0  0  0  0  0  0  0  0
   17.9920  -23.8012  -12.8176 N   0  0  0  0  0  0  0  0  0  0  0  0
   18.2273  -24.2737  -14.0676 C   0  0  0  0  0  0  0  0  0  0  0  0
   19.3574  -23.6709  -14.5366 N   0  0  0  0  0  0  0  0  0  0  0  0
   22.7741  -20.6439  -12.6359 C   0  0  0  0  0  0  0  0  0  0  0  0
   22.7015  -19.4222  -12.8568 O   0  0  0  0  0  0  0  0  0  0  0  0
   28.8598  -21.3439  -11.3784 C   0  0  0  0  0  0  0  0  0  0  0  0
   27.7667  -20.8175  -12.3144 C   0  0  2  0  0  0  0  0  0  0  0  0
   27.8311  -19.2976  -12.1935 C   0  0  0  0  0  0  0  0  0  0  0  0
   26.4003  -21.2591  -11.8434 C   0  0  0  0  0  0  0  0  0  0  0  0
   25.3147  -20.7906  -12.7619 C   0  0  2  0  0  0  0  0  0  0  0  0
   24.0055  -21.3128  -12.5397 N   0  0  0  0  0  0  0  0  0  0  0  0
   25.6519  -20.7469  -14.1999 C   0  0  0  0  0  0  0  0  0  0  0  0
   26.7585  -21.2890  -14.5648 O   0  0  0  0  0  0  0  0  0  0  0  0
   23.9281  -21.4392  -19.1449 N   0  0  0  0  0  0  0  0  0  0  0  0
   23.8949  -22.3779  -18.0811 C   0  0  0  0  0  0  0  0  0  0  0  0
   23.5963  -23.5638  -18.3462 O   0  0  0  0  0  0  0  0  0  0  0  0
   24.1982  -21.9769  -16.7067 C   0  0  0  0  0  0  0  0  0  0  0  0
   24.5185  -20.5296  -16.5043 C   0  0  2  0  0  0  0  0  0  0  0  0
   24.8624  -20.1606  -15.1868 N   0  0  0  0  0  0  0  0  0  0  0  0
   23.5432  -19.7451  -17.2603 C   0  0  0  0  0  0  0  0  0  0  0  0
   23.2463  -19.9040  -18.4415 O   0  0  0  0  0  0  0  0  0  0  0  0
   22.8969  -18.7144  -16.5500 O   0  0  0  0  0  0  0  0  0  0  0  0
  2  3  1  0
  2  1  1  6
  4  8  1  0
  4  3  1  0
  5  4  2  0
  6  5  1  0
  6  7  1  0
  7  8  2  0
  9  2  1  0
 10  9  2  0
 12 11  1  1
 12 14  1  0
 13 12  1  0
 15 14  1  1
 15 16  1  0
 16  9  1  0
 17 15  1  0
 17 18  2  0
 20 22  1  0
 20 19  1  0
 21 20  2  0
 23 22  1  1
 23 24  1  0
 24 17  1  0
 25 23  1  0
 26 25  2  0
 27 25  1  0
M  END
$$$$
