HLN.pdb
     RDKit          3D

 27 27  0  0  1  0  0  0  0  0999 V2000
   22.1822  -15.8374  -18.5021 N   0  0  0  0  0  0  0  0  0  0  0  0
   23.3563  -15.1780  -19.0018 C   0  0  1  0  0  0  0  0  0  0  0  0
   23.3852  -15.0847  -20.5121 C   0  0  0  0  0  0  0  0  0  0  0  0
   23.3987  -16.4080  -21.1482 C   0  0  0  0  0  0  0  0  0  0  0  0
   23.8910  -17.6128  -20.6804 C   0  0  0  0  0  0  0  0  0  0  0  0
   23.6913  -18.5741  -21.5870 N   0  0  0  0  0  0  0  0  0  0  0  0
   23.0709  -17.9965  -22.6466 C   0  0  0  0  0  0  0  0  0  0  0  0
   22.9005  -16.6737  -22.3612 N   0  0  0  0  0  0  0  0  0  0  0  0
   23.4829  -13.8229  -18.3766 C   0  0  0  0  0  0  0  0  0  0  0  0
   22.4130  -13.2603  -18.0840 O   0  0  0  0  0  0  0  0  0  0  0  0
   27.9155  -10.1861  -15.7983 C   0  0  0  0  0  0  0  0  0  0  0  0
   26.4929  -10.3714  -16.3365 C   0  0  2  0  0  0  0  0  0  0  0  0
   25.5754  -10.1234  -15.1426 C   0  0  0  0  0  0  0  0  0  0  0  0
   26.2755  -11.7946  -16.7962 C   0  0  0  0  0  0  0  0  0  0  0  0
   25.0020  -11.9434  -17.5692 C   0  0  2  0  0  0  0  0  0  0  0  0
   24.7308  -13.2255  -18.1337 N   0  0  0  0  0  0  0  0  0  0  0  0
   24.6790  -10.8498  -18.5091 C   0  0  0  0  0  0  0  0  0  0  0  0
   25.3982  -10.7492  -19.5693 O   0  0  0  0  0  0  0  0  0  0  0  0
   22.1128   -6.6717  -20.6194 N   0  0  0  0  0  0  0  0  0  0  0  0
   21.3015   -7.2733  -19.6223 C   0  0  0  0  0  0  0  0  0  0  0  0
   20.1327   -6.8513  -19.4752 O   0  0  0  0  0  0  0  0  0  0  0  0
   21.8120   -8.3574  -18.7822 C   0  0  0  0  0  0  0  0  0  0  0  0
   23.2047   -8.8148  -19.0810 C   0  0  2  0  0  0  0  0  0  0  0  0
   23.6567   -9.9203  -18.3303 N   0  0  0  0  0  0  0  0  0  0  0  0
   24.0449   -7.6268  -19.2254 C   0  0  0  0  0  0  0  0  0  0  0  0
   24.4284   -7.1362  -20.2842 O   0  0  0  0  0  0  0  0  0  0  0  0
   24.4425   -7.0031  -18.0265 O   0  0  0  0  0  0  0  0  0  0  0  0
  2  3  1  0
  2  1  1  6
  4  8  1  0
  4  3  1  0
  5  4  2  0
  6  5  1  0
  6  7  1  0
  7  8  2  0
  9  2  1  0
 10  9  2  0
 12 11  1  1
 12 14  1  0
 13 12  1  0
 15 14  1  6
 15 16  1  0
 16  9  1  0
 17 15  1  0
 17 18  2  0
 20 22  1  0
 20 19  1  0
 21 20  2  0
 23 22  1  1
 23 24  1  0
 24 17  1  0
 25 23  1  0
 26 25  2  0
 27 25  1  0
M  END
$$$$
