KLC.pdb
     RDKit          3D

 24 23  0  0  1  0  0  0  0  0999 V2000
    7.6652  -14.9252   20.1850 N   0  0  0  0  0  0  0  0  0  0  0  0
    7.3350  -15.5821   21.4251 C   0  0  1  0  0  0  0  0  0  0  0  0
    7.6032  -17.0650   21.3732 C   0  0  0  0  0  0  0  0  0  0  0  0
    8.6937  -17.3933   20.4115 C   0  0  0  0  0  0  0  0  0  0  0  0
    8.9145  -18.8675   20.2468 C   0  0  0  0  0  0  0  0  0  0  0  0
   10.0111  -19.0515   19.1837 C   0  0  0  0  0  0  0  0  0  0  0  0
   10.1887  -20.4661   18.9188 N   0  0  0  0  0  0  0  0  0  0  0  0
    8.1027  -14.9826   22.5708 C   0  0  0  0  0  0  0  0  0  0  0  0
    9.2954  -14.6284   22.4353 O   0  0  0  0  0  0  0  0  0  0  0  0
    5.6332  -12.0213   26.6871 C   0  0  0  0  0  0  0  0  0  0  0  0
    6.6125  -12.3767   25.5103 C   0  0  1  0  0  0  0  0  0  0  0  0
    7.5397  -11.1793   25.4845 C   0  0  0  0  0  0  0  0  0  0  0  0
    7.2204  -13.6561   25.8965 C   0  0  0  0  0  0  0  0  0  0  0  0
    8.2029  -14.3006   25.0061 C   0  0  2  0  0  0  0  0  0  0  0  0
    7.4583  -14.8214   23.8141 N   0  0  0  0  0  0  0  0  0  0  0  0
    8.8421  -15.4785   25.5651 C   0  0  0  0  0  0  0  0  0  0  0  0
    8.2045  -16.1692   26.4290 O   0  0  0  0  0  0  0  0  0  0  0  0
   10.1359  -15.9462   25.2159 N   0  0  0  0  0  0  0  0  0  0  0  0
   10.5275  -17.2586   25.6878 C   0  0  1  0  0  0  0  0  0  0  0  0
    9.6066  -18.3151   25.0202 C   0  0  0  0  0  0  0  0  0  0  0  0
    9.7195  -19.8005   26.0276 S   0  0  0  0  0  0  0  0  0  0  0  0
   11.9209  -17.5382   25.3604 C   0  0  0  0  0  0  0  0  0  0  0  0
   12.5429  -18.4178   26.0104 O   0  0  0  0  0  0  0  0  0  0  0  0
   12.5831  -16.8764   24.3626 O   0  0  0  0  0  0  0  0  0  0  0  0
  2  1  1  6
  3  2  1  0
  4  3  1  0
  5  4  1  0
  6  5  1  0
  6  7  1  0
  8  9  2  0
  8  2  1  0
 11 10  1  1
 12 11  1  0
 13 11  1  0
 14 15  1  0
 14 13  1  1
 15  8  1  0
 16 14  1  0
 17 16  2  0
 18 16  1  0
 19 18  1  0
 20 21  1  0
 19 20  1  6
 22 19  1  0
 22 24  1  0
 23 22  2  0
M  END
$$$$
