KLC.pdb
     RDKit          3D

 24 23  0  0  1  0  0  0  0  0999 V2000
    6.9007  -17.4098   22.8086 N   0  0  0  0  0  0  0  0  0  0  0  0
    8.0126  -16.9036   22.0432 C   0  0  1  0  0  0  0  0  0  0  0  0
    7.5900  -16.4115   20.6820 C   0  0  0  0  0  0  0  0  0  0  0  0
    7.3851  -17.5390   19.7287 C   0  0  0  0  0  0  0  0  0  0  0  0
    8.2369  -17.4371   18.4987 C   0  0  0  0  0  0  0  0  0  0  0  0
    7.9179  -18.6567   17.6171 C   0  0  0  0  0  0  0  0  0  0  0  0
    8.5651  -18.4988   16.3290 N   0  0  0  0  0  0  0  0  0  0  0  0
    8.7055  -15.7886   22.7767 C   0  0  0  0  0  0  0  0  0  0  0  0
    9.7525  -15.2710   22.3269 O   0  0  0  0  0  0  0  0  0  0  0  0
    5.8720  -12.5331   26.3718 C   0  0  0  0  0  0  0  0  0  0  0  0
    6.7729  -12.9180   25.1429 C   0  0  1  0  0  0  0  0  0  0  0  0
    7.1225  -11.5651   24.5583 C   0  0  0  0  0  0  0  0  0  0  0  0
    7.8884  -13.6820   25.7153 C   0  0  0  0  0  0  0  0  0  0  0  0
    8.8803  -14.3119   24.8248 C   0  0  2  0  0  0  0  0  0  0  0  0
    8.1579  -15.3262   23.9905 N   0  0  0  0  0  0  0  0  0  0  0  0
    9.9028  -15.0824   25.5100 C   0  0  0  0  0  0  0  0  0  0  0  0
   11.1236  -14.9108   25.1784 O   0  0  0  0  0  0  0  0  0  0  0  0
    9.6580  -16.0188   26.5481 N   0  0  0  0  0  0  0  0  0  0  0  0
   10.6005  -16.0672   27.6472 C   0  0  1  0  0  0  0  0  0  0  0  0
   10.2868  -14.8943   28.6146 C   0  0  0  0  0  0  0  0  0  0  0  0
   11.4991  -14.9869   29.9395 S   0  0  0  0  0  0  0  0  0  0  0  0
   10.5082  -17.3359   28.3603 C   0  0  0  0  0  0  0  0  0  0  0  0
   11.3839  -17.6284   29.2151 O   0  0  0  0  0  0  0  0  0  0  0  0
    9.4950  -18.2276   28.1354 O   0  0  0  0  0  0  0  0  0  0  0  0
  2  1  1  1
  3  2  1  0
  4  3  1  0
  5  4  1  0
  6  5  1  0
  6  7  1  0
  8  9  2  0
  8  2  1  0
 11 10  1  1
 12 11  1  0
 13 11  1  0
 14 15  1  0
 14 13  1  1
 15  8  1  0
 16 14  1  0
 17 16  2  0
 18 16  1  0
 19 18  1  0
 20 21  1  0
 19 20  1  1
 22 19  1  0
 22 24  1  0
 23 22  2  0
M  END
$$$$
