KLC.pdb
     RDKit          3D

 24 23  0  0  1  0  0  0  0  0999 V2000
    7.8089  -18.0775   22.4738 N   0  0  0  0  0  0  0  0  0  0  0  0
    9.0358  -17.4540   22.0446 C   0  0  1  0  0  0  0  0  0  0  0  0
    9.0238  -17.1266   20.5727 C   0  0  0  0  0  0  0  0  0  0  0  0
    9.2800  -18.3350   19.7384 C   0  0  0  0  0  0  0  0  0  0  0  0
    9.9805  -18.0270   18.4487 C   0  0  0  0  0  0  0  0  0  0  0  0
   10.1258  -19.3503   17.6778 C   0  0  0  0  0  0  0  0  0  0  0  0
   10.7615  -19.0928   16.4002 N   0  0  0  0  0  0  0  0  0  0  0  0
    9.3010  -16.1971   22.8265 C   0  0  0  0  0  0  0  0  0  0  0  0
   10.3154  -15.4987   22.6038 O   0  0  0  0  0  0  0  0  0  0  0  0
    7.3884  -11.8203   25.2264 C   0  0  0  0  0  0  0  0  0  0  0  0
    7.2679  -13.0607   26.1839 C   0  0  1  0  0  0  0  0  0  0  0  0
    5.9343  -12.8217   26.8611 C   0  0  0  0  0  0  0  0  0  0  0  0
    7.3429  -14.2306   25.2999 C   0  0  0  0  0  0  0  0  0  0  0  0
    8.6188  -14.5777   24.6480 C   0  0  2  0  0  0  0  0  0  0  0  0
    8.3849  -15.8081   23.8247 N   0  0  0  0  0  0  0  0  0  0  0  0
    9.6789  -14.9617   25.5630 C   0  0  0  0  0  0  0  0  0  0  0  0
   10.8645  -14.5467   25.3351 O   0  0  0  0  0  0  0  0  0  0  0  0
    9.5044  -15.7636   26.7211 N   0  0  0  0  0  0  0  0  0  0  0  0
   10.6791  -16.0689   27.5120 C   0  0  1  0  0  0  0  0  0  0  0  0
   10.5824  -15.2938   28.8536 C   0  0  0  0  0  0  0  0  0  0  0  0
   10.7756  -13.5517   28.4519 S   0  0  0  0  0  0  0  0  0  0  0  0
   10.7769  -17.5004   27.7727 C   0  0  0  0  0  0  0  0  0  0  0  0
    9.8997  -18.2735   27.3081 O   0  0  0  0  0  0  0  0  0  0  0  0
   11.7969  -18.0404   28.5077 O   0  0  0  0  0  0  0  0  0  0  0  0
  2  1  1  1
  3  2  1  0
  4  3  1  0
  5  4  1  0
  6  5  1  0
  6  7  1  0
  8  9  2  0
  8  2  1  0
 11 10  1  6
 12 11  1  0
 13 11  1  0
 14 15  1  0
 14 13  1  1
 15  8  1  0
 16 14  1  0
 17 16  2  0
 18 16  1  0
 19 18  1  0
 20 21  1  0
 19 20  1  1
 22 19  1  0
 22 24  1  0
 23 22  2  0
M  END
$$$$
