KLC.pdb
     RDKit          3D

 24 23  0  0  1  0  0  0  0  0999 V2000
    6.8416  -16.8959   21.9901 N   0  0  0  0  0  0  0  0  0  0  0  0
    8.2616  -16.7104   21.8244 C   0  0  1  0  0  0  0  0  0  0  0  0
    8.5965  -15.9964   20.5391 C   0  0  0  0  0  0  0  0  0  0  0  0
    8.8362  -16.9556   19.4236 C   0  0  0  0  0  0  0  0  0  0  0  0
    8.1602  -16.5585   18.1452 C   0  0  0  0  0  0  0  0  0  0  0  0
    8.5286  -17.6105   17.0851 C   0  0  0  0  0  0  0  0  0  0  0  0
    7.9625  -17.2218   15.8078 N   0  0  0  0  0  0  0  0  0  0  0  0
    8.8407  -15.9418   22.9799 C   0  0  0  0  0  0  0  0  0  0  0  0
   10.0224  -15.5302   22.9556 O   0  0  0  0  0  0  0  0  0  0  0  0
    5.7968  -12.4422   26.2956 C   0  0  0  0  0  0  0  0  0  0  0  0
    6.8952  -12.9469   25.2911 C   0  0  1  0  0  0  0  0  0  0  0  0
    7.8695  -11.7875   25.2637 C   0  0  0  0  0  0  0  0  0  0  0  0
    7.3960  -14.1977   25.8744 C   0  0  0  0  0  0  0  0  0  0  0  0
    8.5471  -14.8848   25.2608 C   0  0  2  0  0  0  0  0  0  0  0  0
    8.0302  -15.6864   24.1046 N   0  0  0  0  0  0  0  0  0  0  0  0
    9.1871  -15.8696   26.1146 C   0  0  0  0  0  0  0  0  0  0  0  0
    8.5444  -16.9316   26.4126 O   0  0  0  0  0  0  0  0  0  0  0  0
   10.4986  -15.7576   26.6458 N   0  0  0  0  0  0  0  0  0  0  0  0
   10.9839  -16.8414   27.4755 C   0  0  1  0  0  0  0  0  0  0  0  0
   12.4428  -17.1657   27.0553 C   0  0  0  0  0  0  0  0  0  0  0  0
   13.0196  -18.4560   28.1671 S   0  0  0  0  0  0  0  0  0  0  0  0
   10.9440  -16.4780   28.8872 C   0  0  0  0  0  0  0  0  0  0  0  0
   11.1017  -15.2747   29.2193 O   0  0  0  0  0  0  0  0  0  0  0  0
   10.7371  -17.4035   29.8736 O   0  0  0  0  0  0  0  0  0  0  0  0
  2  1  1  1
  3  2  1  0
  4  3  1  0
  5  4  1  0
  6  5  1  0
  6  7  1  0
  8  9  2  0
  8  2  1  0
 11 10  1  1
 12 11  1  0
 13 11  1  0
 14 15  1  0
 14 13  1  1
 15  8  1  0
 16 14  1  0
 17 16  2  0
 18 16  1  0
 19 18  1  0
 20 21  1  0
 19 20  1  6
 22 19  1  0
 22 24  1  0
 23 22  2  0
M  END
$$$$
