KLC.pdb
     RDKit          3D

 24 23  0  0  1  0  0  0  0  0999 V2000
    7.0330  -15.5838   20.8533 N   0  0  0  0  0  0  0  0  0  0  0  0
    8.1916  -14.7268   20.8148 C   0  0  1  0  0  0  0  0  0  0  0  0
    8.0046  -13.5578   19.8809 C   0  0  0  0  0  0  0  0  0  0  0  0
    7.4830  -13.9920   18.5538 C   0  0  0  0  0  0  0  0  0  0  0  0
    8.5532  -14.1275   17.5120 C   0  0  0  0  0  0  0  0  0  0  0  0
    7.8702  -14.5728   16.2075 C   0  0  0  0  0  0  0  0  0  0  0  0
    8.8751  -14.7501   15.1772 N   0  0  0  0  0  0  0  0  0  0  0  0
    8.5238  -14.2117   22.1881 C   0  0  0  0  0  0  0  0  0  0  0  0
    9.5900  -13.5939   22.4067 O   0  0  0  0  0  0  0  0  0  0  0  0
    7.4859  -11.4175   26.4504 C   0  0  0  0  0  0  0  0  0  0  0  0
    6.6524  -12.7492   26.4947 C   0  0  1  0  0  0  0  0  0  0  0  0
    5.3023  -12.2727   26.9891 C   0  0  0  0  0  0  0  0  0  0  0  0
    6.6914  -13.2665   25.1212 C   0  0  0  0  0  0  0  0  0  0  0  0
    7.9021  -13.9476   24.6272 C   0  0  2  0  0  0  0  0  0  0  0  0
    7.6118  -14.4341   23.2396 N   0  0  0  0  0  0  0  0  0  0  0  0
    8.2567  -15.1521   25.3565 C   0  0  0  0  0  0  0  0  0  0  0  0
    8.3900  -15.0834   26.6242 O   0  0  0  0  0  0  0  0  0  0  0  0
    8.4580  -16.4292   24.7707 N   0  0  0  0  0  0  0  0  0  0  0  0
    8.7878  -17.5301   25.6527 C   0  0  1  0  0  0  0  0  0  0  0  0
    7.8723  -18.7331   25.2994 C   0  0  0  0  0  0  0  0  0  0  0  0
    6.1797  -18.1722   25.5314 S   0  0  0  0  0  0  0  0  0  0  0  0
   10.1875  -17.9138   25.5099 C   0  0  0  0  0  0  0  0  0  0  0  0
   10.9002  -17.3381   24.6476 O   0  0  0  0  0  0  0  0  0  0  0  0
   10.7615  -18.8831   26.2866 O   0  0  0  0  0  0  0  0  0  0  0  0
  2  1  1  1
  3  2  1  0
  4  3  1  0
  5  4  1  0
  6  5  1  0
  6  7  1  0
  8  9  2  0
  8  2  1  0
 11 10  1  6
 12 11  1  0
 13 11  1  0
 14 15  1  0
 14 13  1  1
 15  8  1  0
 16 14  1  0
 17 16  2  0
 18 16  1  0
 19 18  1  0
 20 21  1  0
 19 20  1  6
 22 19  1  0
 22 24  1  0
 23 22  2  0
M  END
$$$$
