KLC.pdb
     RDKit          3D

 24 23  0  0  1  0  0  0  0  0999 V2000
    9.0738  -18.7432   19.2778 N   0  0  0  0  0  0  0  0  0  0  0  0
   10.2655  -18.0447   18.8651 C   0  0  1  0  0  0  0  0  0  0  0  0
   10.2547  -17.7210   17.3924 C   0  0  0  0  0  0  0  0  0  0  0  0
    9.2651  -18.5552   16.6531 C   0  0  0  0  0  0  0  0  0  0  0  0
    9.2797  -18.3190   15.1723 C   0  0  0  0  0  0  0  0  0  0  0  0
    8.2855  -19.3079   14.5398 C   0  0  0  0  0  0  0  0  0  0  0  0
    8.1280  -18.9945   13.1327 N   0  0  0  0  0  0  0  0  0  0  0  0
   10.4401  -16.7726   19.6477 C   0  0  0  0  0  0  0  0  0  0  0  0
   11.4384  -16.0381   19.4739 O   0  0  0  0  0  0  0  0  0  0  0  0
    6.2930  -13.4619   20.7554 C   0  0  0  0  0  0  0  0  0  0  0  0
    7.6958  -14.0043   20.2993 C   0  0  1  0  0  0  0  0  0  0  0  0
    8.3374  -12.7761   19.6876 C   0  0  0  0  0  0  0  0  0  0  0  0
    8.3208  -14.5168   21.5251 C   0  0  0  0  0  0  0  0  0  0  0  0
    9.6265  -15.1976   21.4542 C   0  0  2  0  0  0  0  0  0  0  0  0
    9.4566  -16.4108   20.5905 N   0  0  0  0  0  0  0  0  0  0  0  0
   10.0992  -15.7293   22.7201 C   0  0  0  0  0  0  0  0  0  0  0  0
   10.2333  -14.9312   23.7074 O   0  0  0  0  0  0  0  0  0  0  0  0
   10.4178  -17.0908   22.9635 N   0  0  0  0  0  0  0  0  0  0  0  0
   10.9672  -17.4325   24.2596 C   0  0  1  0  0  0  0  0  0  0  0  0
   10.2982  -18.7466   24.7452 C   0  0  0  0  0  0  0  0  0  0  0  0
   11.1213  -19.2026   26.2777 S   0  0  0  0  0  0  0  0  0  0  0  0
   12.4127  -17.6106   24.1849 C   0  0  0  0  0  0  0  0  0  0  0  0
   13.0750  -17.7328   25.2476 O   0  0  0  0  0  0  0  0  0  0  0  0
   13.0822  -17.6529   22.9923 O   0  0  0  0  0  0  0  0  0  0  0  0
  2  1  1  1
  3  2  1  0
  4  3  1  0
  5  4  1  0
  6  5  1  0
  6  7  1  0
  8  9  2  0
  8  2  1  0
 11 10  1  1
 12 11  1  0
 13 11  1  0
 14 15  1  0
 14 13  1  1
 15  8  1  0
 16 14  1  0
 17 16  2  0
 18 16  1  0
 19 18  1  0
 20 21  1  0
 19 20  1  6
 22 19  1  0
 22 24  1  0
 23 22  2  0
M  END
$$$$
