KLC.pdb
     RDKit          3D

 24 23  0  0  1  0  0  0  0  0999 V2000
    7.0885  -17.0143   21.6490 N   0  0  0  0  0  0  0  0  0  0  0  0
    8.3950  -16.4481   21.4234 C   0  0  1  0  0  0  0  0  0  0  0  0
    8.4704  -15.6902   20.1220 C   0  0  0  0  0  0  0  0  0  0  0  0
    8.0729  -16.5424   18.9655 C   0  0  0  0  0  0  0  0  0  0  0  0
    8.7047  -16.1192   17.6729 C   0  0  0  0  0  0  0  0  0  0  0  0
    7.9720  -16.8583   16.5401 C   0  0  0  0  0  0  0  0  0  0  0  0
    8.4826  -16.4022   15.2619 N   0  0  0  0  0  0  0  0  0  0  0  0
    8.7845  -15.5317   22.5503 C   0  0  0  0  0  0  0  0  0  0  0  0
    9.9205  -15.0083   22.5952 O   0  0  0  0  0  0  0  0  0  0  0  0
    7.9115  -11.5061   25.8711 C   0  0  0  0  0  0  0  0  0  0  0  0
    7.0476  -12.7513   26.2875 C   0  0  1  0  0  0  0  0  0  0  0  0
    5.7287  -12.1172   26.6783 C   0  0  0  0  0  0  0  0  0  0  0  0
    7.0234  -13.6108   25.0974 C   0  0  0  0  0  0  0  0  0  0  0  0
    8.2100  -14.4124   24.7464 C   0  0  2  0  0  0  0  0  0  0  0  0
    7.8465  -15.2643   23.5680 N   0  0  0  0  0  0  0  0  0  0  0  0
    8.6140  -15.3685   25.7618 C   0  0  0  0  0  0  0  0  0  0  0  0
    8.9096  -14.9367   26.9262 O   0  0  0  0  0  0  0  0  0  0  0  0
    8.6965  -16.7726   25.5714 N   0  0  0  0  0  0  0  0  0  0  0  0
    9.1482  -17.5781   26.6875 C   0  0  1  0  0  0  0  0  0  0  0  0
    8.1307  -18.7303   26.9047 C   0  0  0  0  0  0  0  0  0  0  0  0
    6.5878  -18.1982   26.1498 S   0  0  0  0  0  0  0  0  0  0  0  0
   10.4740  -18.1293   26.4324 C   0  0  0  0  0  0  0  0  0  0  0  0
   11.0572  -17.8584   25.3510 O   0  0  0  0  0  0  0  0  0  0  0  0
   11.1152  -18.9352   27.3334 O   0  0  0  0  0  0  0  0  0  0  0  0
  2  1  1  1
  3  2  1  0
  4  3  1  0
  5  4  1  0
  6  5  1  0
  6  7  1  0
  8  9  2  0
  8  2  1  0
 11 10  1  6
 12 11  1  0
 13 11  1  0
 14 15  1  0
 14 13  1  1
 15  8  1  0
 16 14  1  0
 17 16  2  0
 18 16  1  0
 19 18  1  0
 20 21  1  0
 19 20  1  6
 22 19  1  0
 22 24  1  0
 23 22  2  0
M  END
$$$$
