KLC.pdb
     RDKit          3D

 24 23  0  0  1  0  0  0  0  0999 V2000
    9.4512  -16.4121   20.2798 N   0  0  0  0  0  0  0  0  0  0  0  0
    8.8643  -16.7996   21.5383 C   0  0  1  0  0  0  0  0  0  0  0  0
    9.3598  -18.1442   22.0078 C   0  0  0  0  0  0  0  0  0  0  0  0
    8.9605  -19.2345   21.0731 C   0  0  0  0  0  0  0  0  0  0  0  0
    9.3420  -20.6009   21.5592 C   0  0  0  0  0  0  0  0  0  0  0  0
    8.9127  -21.6088   20.4793 C   0  0  0  0  0  0  0  0  0  0  0  0
    9.8693  -21.5797   19.3898 N   0  0  0  0  0  0  0  0  0  0  0  0
    9.1456  -15.7728   22.6003 C   0  0  0  0  0  0  0  0  0  0  0  0
   10.2483  -15.1832   22.6540 O   0  0  0  0  0  0  0  0  0  0  0  0
    7.7062  -11.7315   25.7238 C   0  0  0  0  0  0  0  0  0  0  0  0
    7.0361  -13.0553   26.2421 C   0  0  1  0  0  0  0  0  0  0  0  0
    5.6522  -12.5860   26.6406 C   0  0  0  0  0  0  0  0  0  0  0  0
    7.1012  -13.9830   25.1060 C   0  0  0  0  0  0  0  0  0  0  0  0
    8.4032  -14.5204   24.6706 C   0  0  2  0  0  0  0  0  0  0  0  0
    8.1434  -15.4770   23.5463 N   0  0  0  0  0  0  0  0  0  0  0  0
    9.0875  -15.3249   25.6672 C   0  0  0  0  0  0  0  0  0  0  0  0
    8.9386  -16.5925   25.6382 O   0  0  0  0  0  0  0  0  0  0  0  0
    9.9369  -14.8139   26.6830 N   0  0  0  0  0  0  0  0  0  0  0  0
   10.8605  -15.7342   27.3145 C   0  0  1  0  0  0  0  0  0  0  0  0
   11.7123  -14.9449   28.3448 C   0  0  0  0  0  0  0  0  0  0  0  0
   10.5519  -14.0630   29.3980 S   0  0  0  0  0  0  0  0  0  0  0  0
   10.1463  -16.8142   27.9856 C   0  0  0  0  0  0  0  0  0  0  0  0
    8.8998  -16.7306   28.1342 O   0  0  0  0  0  0  0  0  0  0  0  0
   10.7854  -17.9263   28.4621 O   0  0  0  0  0  0  0  0  0  0  0  0
  2  1  1  6
  3  2  1  0
  4  3  1  0
  5  4  1  0
  6  5  1  0
  6  7  1  0
  8  9  2  0
  8  2  1  0
 11 10  1  6
 12 11  1  0
 13 11  1  0
 14 15  1  0
 14 13  1  1
 15  8  1  0
 16 14  1  0
 17 16  2  0
 18 16  1  0
 19 18  1  0
 20 21  1  0
 19 20  1  1
 22 19  1  0
 22 24  1  0
 23 22  2  0
M  END
$$$$
