KLC.pdb
     RDKit          3D

 24 23  0  0  1  0  0  0  0  0999 V2000
    7.5918  -17.4053   22.0284 N   0  0  0  0  0  0  0  0  0  0  0  0
    7.4310  -17.2458   23.4522 C   0  0  1  0  0  0  0  0  0  0  0  0
    7.8340  -18.4837   24.2131 C   0  0  0  0  0  0  0  0  0  0  0  0
    7.7413  -19.7055   23.3644 C   0  0  0  0  0  0  0  0  0  0  0  0
    7.9884  -20.9747   24.1240 C   0  0  0  0  0  0  0  0  0  0  0  0
    7.7913  -22.1429   23.1427 C   0  0  0  0  0  0  0  0  0  0  0  0
    7.8860  -23.3965   23.8654 N   0  0  0  0  0  0  0  0  0  0  0  0
    8.2315  -16.0763   23.9548 C   0  0  0  0  0  0  0  0  0  0  0  0
    9.3375  -15.7835   23.4473 O   0  0  0  0  0  0  0  0  0  0  0  0
    5.5063  -11.9136   26.6338 C   0  0  0  0  0  0  0  0  0  0  0  0
    6.3357  -12.6560   25.5243 C   0  0  1  0  0  0  0  0  0  0  0  0
    6.6688  -11.5352   24.5613 C   0  0  0  0  0  0  0  0  0  0  0  0
    7.4716  -13.2541   26.2369 C   0  0  0  0  0  0  0  0  0  0  0  0
    8.4433  -14.0853   25.5031 C   0  0  2  0  0  0  0  0  0  0  0  0
    7.7182  -15.3034   25.0161 N   0  0  0  0  0  0  0  0  0  0  0  0
    9.5193  -14.6183   26.3196 C   0  0  0  0  0  0  0  0  0  0  0  0
   10.5014  -13.8565   26.6113 O   0  0  0  0  0  0  0  0  0  0  0  0
    9.5674  -15.9362   26.8443 N   0  0  0  0  0  0  0  0  0  0  0  0
   10.6283  -16.2502   27.7795 C   0  0  1  0  0  0  0  0  0  0  0  0
   10.2942  -15.5852   29.1419 C   0  0  0  0  0  0  0  0  0  0  0  0
   11.5606  -16.1260   30.2984 S   0  0  0  0  0  0  0  0  0  0  0  0
   10.7641  -17.6919   27.9520 C   0  0  0  0  0  0  0  0  0  0  0  0
    9.8996  -18.4573   27.4520 O   0  0  0  0  0  0  0  0  0  0  0  0
   11.8066  -18.2496   28.6407 O   0  0  0  0  0  0  0  0  0  0  0  0
  2  1  1  6
  3  2  1  0
  4  3  1  0
  5  4  1  0
  6  5  1  0
  6  7  1  0
  8  9  2  0
  8  2  1  0
 11 10  1  1
 12 11  1  0
 13 11  1  0
 14 15  1  0
 14 13  1  1
 15  8  1  0
 16 14  1  0
 17 16  2  0
 18 16  1  0
 19 18  1  0
 20 21  1  0
 19 20  1  1
 22 19  1  0
 22 24  1  0
 23 22  2  0
M  END
$$$$
