KLC.pdb
     RDKit          3D

 24 23  0  0  1  0  0  0  0  0999 V2000
    6.8627  -16.2353   21.5752 N   0  0  0  0  0  0  0  0  0  0  0  0
    8.1643  -15.6275   21.4536 C   0  0  1  0  0  0  0  0  0  0  0  0
    8.1724  -14.4925   20.4608 C   0  0  0  0  0  0  0  0  0  0  0  0
    7.5145  -14.8775   19.1799 C   0  0  0  0  0  0  0  0  0  0  0  0
    8.2373  -14.3718   17.9672 C   0  0  0  0  0  0  0  0  0  0  0  0
    7.6068  -13.0210   17.5871 C   0  0  0  0  0  0  0  0  0  0  0  0
    8.3280  -12.4553   16.4634 N   0  0  0  0  0  0  0  0  0  0  0  0
    8.6464  -15.1207   22.7849 C   0  0  0  0  0  0  0  0  0  0  0  0
    9.8076  -14.6756   22.9256 O   0  0  0  0  0  0  0  0  0  0  0  0
    5.6375  -12.1777   26.4800 C   0  0  0  0  0  0  0  0  0  0  0  0
    6.8246  -12.6027   25.5417 C   0  0  1  0  0  0  0  0  0  0  0  0
    7.9057  -11.6089   25.9130 C   0  0  0  0  0  0  0  0  0  0  0  0
    7.0926  -14.0057   25.8816 C   0  0  0  0  0  0  0  0  0  0  0  0
    8.2194  -14.7127   25.2460 C   0  0  2  0  0  0  0  0  0  0  0  0
    7.7672  -15.1522   23.8863 N   0  0  0  0  0  0  0  0  0  0  0  0
    8.6060  -15.9474   25.9053 C   0  0  0  0  0  0  0  0  0  0  0  0
    7.6896  -16.7478   26.2919 O   0  0  0  0  0  0  0  0  0  0  0  0
    9.9430  -16.3564   26.1492 N   0  0  0  0  0  0  0  0  0  0  0  0
   10.1965  -17.7747   26.3001 C   0  0  1  0  0  0  0  0  0  0  0  0
    9.9262  -18.4691   24.9381 C   0  0  0  0  0  0  0  0  0  0  0  0
   10.3563  -20.2017   25.1540 S   0  0  0  0  0  0  0  0  0  0  0  0
   11.5726  -18.0191   26.7164 C   0  0  0  0  0  0  0  0  0  0  0  0
   11.8496  -19.0749   27.3421 O   0  0  0  0  0  0  0  0  0  0  0  0
   12.5839  -17.1374   26.4480 O   0  0  0  0  0  0  0  0  0  0  0  0
  2  1  1  1
  3  2  1  0
  4  3  1  0
  5  4  1  0
  6  5  1  0
  6  7  1  0
  8  9  2  0
  8  2  1  0
 11 10  1  1
 12 11  1  0
 13 11  1  0
 14 15  1  0
 14 13  1  1
 15  8  1  0
 16 14  1  0
 17 16  2  0
 18 16  1  0
 19 18  1  0
 20 21  1  0
 19 20  1  6
 22 19  1  0
 22 24  1  0
 23 22  2  0
M  END
$$$$
