IAT.pdb
     RDKit          3D

 21 20  0  0  1  0  0  0  0  0999 V2000
   20.0056  -11.6694  -19.6022 C   0  0  0  0  0  0  0  0  0  0  0  0
   19.9164  -11.8501  -18.1169 C   0  0  0  0  0  0  0  0  0  0  0  0
   19.7475  -10.5300  -17.3972 C   0  0  2  0  0  0  0  0  0  0  0  0
   20.8832   -9.5866  -17.6634 C   0  0  0  0  0  0  0  0  0  0  0  0
   19.4612  -10.6889  -15.9446 C   0  0  2  0  0  0  0  0  0  0  0  0
   18.2213  -11.4743  -15.8411 N   0  0  0  0  0  0  0  0  0  0  0  0
   19.2645   -9.4385  -15.2122 C   0  0  0  0  0  0  0  0  0  0  0  0
   18.4510   -8.5875  -15.6451 O   0  0  0  0  0  0  0  0  0  0  0  0
   19.7186   -7.9295  -11.9392 C   0  0  0  0  0  0  0  0  0  0  0  0
   19.8361   -7.8280  -13.4520 C   0  0  2  0  0  0  0  0  0  0  0  0
   19.9618   -9.1364  -14.0144 N   0  0  0  0  0  0  0  0  0  0  0  0
   20.9345   -6.9162  -13.8341 C   0  0  0  0  0  0  0  0  0  0  0  0
   22.1535   -7.2182  -13.8477 O   0  0  0  0  0  0  0  0  0  0  0  0
   21.1622   -4.9365  -17.0773 C   0  0  0  0  0  0  0  0  0  0  0  0
   21.0967   -3.9672  -15.9385 C   0  0  1  0  0  0  0  0  0  0  0  0
   19.8298   -3.4088  -15.7730 O   0  0  0  0  0  0  0  0  0  0  0  0
   21.5646   -4.6113  -14.6275 C   0  0  2  0  0  0  0  0  0  0  0  0
   20.5827   -5.5932  -14.2161 N   0  0  0  0  0  0  0  0  0  0  0  0
   21.6907   -3.5313  -13.6216 C   0  0  0  0  0  0  0  0  0  0  0  0
   20.7387   -3.4246  -12.6366 O   0  0  0  0  0  0  0  0  0  0  0  0
   22.6453   -2.7485  -13.6852 O   0  0  0  0  0  0  0  0  0  0  0  0
  2  1  1  0
  3  2  1  0
  3  4  1  1
  5  3  1  0
  5  7  1  0
  5  6  1  6
  7  8  2  0
 10  9  1  1
 11 10  1  0
 11  7  1  0
 12 10  1  0
 12 18  1  0
 13 12  2  0
 15 14  1  6
 15 16  1  0
 17 18  1  1
 17 15  1  0
 19 17  1  0
 20 19  1  0
 21 19  2  0
M  END
$$$$
