IAT.pdb
     RDKit          3D

 21 20  0  0  1  0  0  0  0  0999 V2000
   21.9006  -17.8828  -15.5130 C   0  0  0  0  0  0  0  0  0  0  0  0
   20.6677  -17.1759  -15.9895 C   0  0  0  0  0  0  0  0  0  0  0  0
   20.9151  -15.7004  -16.2150 C   0  0  2  0  0  0  0  0  0  0  0  0
   21.4740  -15.0240  -14.9982 C   0  0  0  0  0  0  0  0  0  0  0  0
   19.7335  -14.9889  -16.7761 C   0  0  2  0  0  0  0  0  0  0  0  0
   19.3675  -15.6895  -18.0171 N   0  0  0  0  0  0  0  0  0  0  0  0
   19.9565  -13.5811  -17.1029 C   0  0  0  0  0  0  0  0  0  0  0  0
   20.9068  -13.2624  -17.8570 O   0  0  0  0  0  0  0  0  0  0  0  0
   18.4212  -10.5722  -17.7994 C   0  0  0  0  0  0  0  0  0  0  0  0
   19.4787  -11.1838  -16.8937 C   0  0  2  0  0  0  0  0  0  0  0  0
   19.1351  -12.5399  -16.5991 N   0  0  0  0  0  0  0  0  0  0  0  0
   19.6820  -10.3539  -15.6879 C   0  0  0  0  0  0  0  0  0  0  0  0
   19.0737  -10.4995  -14.5988 O   0  0  0  0  0  0  0  0  0  0  0  0
   23.1205   -9.8497  -14.1939 C   0  0  0  0  0  0  0  0  0  0  0  0
   22.5715   -8.5018  -14.5433 C   0  0  1  0  0  0  0  0  0  0  0  0
   23.1022   -7.9893  -15.7265 O   0  0  0  0  0  0  0  0  0  0  0  0
   21.0397   -8.5233  -14.6180 C   0  0  2  0  0  0  0  0  0  0  0  0
   20.6419   -9.3089  -15.7680 N   0  0  0  0  0  0  0  0  0  0  0  0
   20.5809   -7.1209  -14.7474 C   0  0  0  0  0  0  0  0  0  0  0  0
   20.6212   -6.3028  -13.6442 O   0  0  0  0  0  0  0  0  0  0  0  0
   20.1717   -6.7125  -15.8401 O   0  0  0  0  0  0  0  0  0  0  0  0
  2  1  1  0
  3  2  1  0
  3  4  1  1
  5  3  1  0
  5  7  1  0
  5  6  1  6
  7  8  2  0
 10  9  1  6
 11 10  1  0
 11  7  1  0
 12 10  1  0
 12 18  1  0
 13 12  2  0
 15 14  1  6
 15 16  1  0
 17 18  1  6
 17 15  1  0
 19 17  1  0
 20 19  1  0
 21 19  2  0
M  END
$$$$
