IAT.pdb
     RDKit          3D

 21 20  0  0  1  0  0  0  0  0999 V2000
   28.6001  -25.2665  -16.7437 C   0  0  0  0  0  0  0  0  0  0  0  0
   27.9838  -23.9027  -16.8284 C   0  0  0  0  0  0  0  0  0  0  0  0
   26.8738  -23.7214  -15.8166 C   0  0  2  0  0  0  0  0  0  0  0  0
   25.9156  -24.8758  -15.8091 C   0  0  0  0  0  0  0  0  0  0  0  0
   26.1868  -22.4054  -15.9322 C   0  0  2  0  0  0  0  0  0  0  0  0
   27.2147  -21.3722  -15.7299 N   0  0  0  0  0  0  0  0  0  0  0  0
   25.1204  -22.1762  -14.9582 C   0  0  0  0  0  0  0  0  0  0  0  0
   25.4137  -21.9292  -13.7639 O   0  0  0  0  0  0  0  0  0  0  0  0
   22.9393  -20.6241  -13.6856 C   0  0  0  0  0  0  0  0  0  0  0  0
   22.7673  -22.0116  -14.2840 C   0  0  2  0  0  0  0  0  0  0  0  0
   23.7456  -22.2206  -15.3052 N   0  0  0  0  0  0  0  0  0  0  0  0
   21.3794  -22.2151  -14.7493 C   0  0  0  0  0  0  0  0  0  0  0  0
   20.8514  -21.6300  -15.7271 O   0  0  0  0  0  0  0  0  0  0  0  0
   18.9408  -24.5962  -12.2049 C   0  0  0  0  0  0  0  0  0  0  0  0
   18.8012  -24.7562  -13.6866 C   0  0  1  0  0  0  0  0  0  0  0  0
   17.5144  -25.1284  -14.0738 O   0  0  0  0  0  0  0  0  0  0  0  0
   19.2286  -23.4844  -14.4298 C   0  0  2  0  0  0  0  0  0  0  0  0
   20.5800  -23.1466  -14.0330 N   0  0  0  0  0  0  0  0  0  0  0  0
   18.2801  -22.4103  -14.0552 C   0  0  0  0  0  0  0  0  0  0  0  0
   17.0702  -22.3351  -14.7021 O   0  0  0  0  0  0  0  0  0  0  0  0
   18.5914  -21.6039  -13.1714 O   0  0  0  0  0  0  0  0  0  0  0  0
  2  1  1  0
  3  2  1  0
  3  4  1  6
  5  3  1  0
  5  7  1  0
  5  6  1  1
  7  8  2  0
 10  9  1  6
 11 10  1  0
 11  7  1  0
 12 10  1  0
 12 18  1  0
 13 12  2  0
 15 14  1  1
 15 16  1  0
 17 18  1  1
 17 15  1  0
 19 17  1  0
 20 19  1  0
 21 19  2  0
M  END
$$$$
