IAT.pdb
     RDKit          3D

 21 20  0  0  1  0  0  0  0  0999 V2000
   15.9775  -12.0329  -16.4755 C   0  0  0  0  0  0  0  0  0  0  0  0
   16.3759  -10.7210  -15.8695 C   0  0  0  0  0  0  0  0  0  0  0  0
   17.8786  -10.5493  -15.8337 C   0  0  2  0  0  0  0  0  0  0  0  0
   18.5743  -11.7409  -15.2449 C   0  0  0  0  0  0  0  0  0  0  0  0
   18.3055   -9.2675  -15.2077 C   0  0  2  0  0  0  0  0  0  0  0  0
   17.7690   -8.1863  -16.0491 N   0  0  0  0  0  0  0  0  0  0  0  0
   19.7523   -9.0812  -15.1038 C   0  0  0  0  0  0  0  0  0  0  0  0
   20.3898   -9.6695  -14.1978 O   0  0  0  0  0  0  0  0  0  0  0  0
   22.5618   -8.6351  -17.1565 C   0  0  0  0  0  0  0  0  0  0  0  0
   21.9040   -8.1799  -15.8631 C   0  0  2  0  0  0  0  0  0  0  0  0
   20.4822   -8.2524  -15.9941 N   0  0  0  0  0  0  0  0  0  0  0  0
   22.3903   -6.8413  -15.4687 C   0  0  0  0  0  0  0  0  0  0  0  0
   23.5966   -6.4952  -15.4210 O   0  0  0  0  0  0  0  0  0  0  0  0
   20.4225   -3.5733  -16.6670 C   0  0  0  0  0  0  0  0  0  0  0  0
   20.6054   -3.5860  -15.1815 C   0  0  1  0  0  0  0  0  0  0  0  0
   19.4435   -3.9352  -14.4943 O   0  0  0  0  0  0  0  0  0  0  0  0
   21.7602   -4.5067  -14.7674 C   0  0  2  0  0  0  0  0  0  0  0  0
   21.4151   -5.8696  -15.1155 N   0  0  0  0  0  0  0  0  0  0  0  0
   21.9425   -4.3612  -13.3047 C   0  0  0  0  0  0  0  0  0  0  0  0
   22.4526   -3.1846  -12.8113 O   0  0  0  0  0  0  0  0  0  0  0  0
   21.6343   -5.2959  -12.5567 O   0  0  0  0  0  0  0  0  0  0  0  0
  2  1  1  0
  3  2  1  0
  3  4  1  1
  5  3  1  0
  5  7  1  0
  5  6  1  6
  7  8  2  0
 10  9  1  6
 11 10  1  0
 11  7  1  0
 12 10  1  0
 12 18  1  0
 13 12  2  0
 15 14  1  6
 15 16  1  0
 17 18  1  1
 17 15  1  0
 19 17  1  0
 20 19  1  0
 21 19  2  0
M  END
$$$$
