IAT.pdb
     RDKit          3D

 21 20  0  0  1  0  0  0  0  0999 V2000
   19.4358  -17.6052  -17.4493 C   0  0  0  0  0  0  0  0  0  0  0  0
   20.1920  -17.8033  -16.1704 C   0  0  0  0  0  0  0  0  0  0  0  0
   21.6313  -18.1967  -16.4212 C   0  0  2  0  0  0  0  0  0  0  0  0
   21.9401  -19.5770  -15.9211 C   0  0  0  0  0  0  0  0  0  0  0  0
   22.6072  -17.1798  -15.9408 C   0  0  2  0  0  0  0  0  0  0  0  0
   22.3511  -15.9514  -16.7089 N   0  0  0  0  0  0  0  0  0  0  0  0
   24.0135  -17.5383  -16.1206 C   0  0  0  0  0  0  0  0  0  0  0  0
   24.4510  -17.7742  -17.2722 O   0  0  0  0  0  0  0  0  0  0  0  0
   27.2303  -17.1280  -14.5443 C   0  0  0  0  0  0  0  0  0  0  0  0
   26.2697  -18.0364  -15.2959 C   0  0  2  0  0  0  0  0  0  0  0  0
   24.9228  -17.6338  -15.0360 N   0  0  0  0  0  0  0  0  0  0  0  0
   26.5306  -19.4558  -14.9777 C   0  0  0  0  0  0  0  0  0  0  0  0
   26.4560  -19.9656  -13.8324 O   0  0  0  0  0  0  0  0  0  0  0  0
   24.8331  -22.5957  -16.0304 C   0  0  0  0  0  0  0  0  0  0  0  0
   26.1698  -22.5308  -16.7010 C   0  0  1  0  0  0  0  0  0  0  0  0
   26.1021  -22.0263  -17.9991 O   0  0  0  0  0  0  0  0  0  0  0  0
   27.1735  -21.7200  -15.8715 C   0  0  2  0  0  0  0  0  0  0  0  0
   26.8946  -20.3104  -16.0533 N   0  0  0  0  0  0  0  0  0  0  0  0
   28.5304  -22.0609  -16.3578 C   0  0  0  0  0  0  0  0  0  0  0  0
   29.0707  -23.2792  -16.0238 O   0  0  0  0  0  0  0  0  0  0  0  0
   29.1504  -21.2476  -17.0524 O   0  0  0  0  0  0  0  0  0  0  0  0
  2  1  1  0
  3  2  1  0
  3  4  1  1
  5  3  1  0
  5  7  1  0
  5  6  1  6
  7  8  2  0
 10  9  1  1
 11 10  1  0
 11  7  1  0
 12 10  1  0
 12 18  1  0
 13 12  2  0
 15 14  1  1
 15 16  1  0
 17 18  1  6
 17 15  1  0
 19 17  1  0
 20 19  1  0
 21 19  2  0
M  END
$$$$
