IAT.pdb
     RDKit          3D

 21 20  0  0  1  0  0  0  0  0999 V2000
   25.4896  -15.4236  -15.6330 C   0  0  0  0  0  0  0  0  0  0  0  0
   24.0209  -15.1681  -15.4768 C   0  0  0  0  0  0  0  0  0  0  0  0
   23.6740  -13.7132  -15.7047 C   0  0  2  0  0  0  0  0  0  0  0  0
   24.4674  -12.7937  -14.8240 C   0  0  0  0  0  0  0  0  0  0  0  0
   22.2105  -13.4451  -15.6448 C   0  0  2  0  0  0  0  0  0  0  0  0
   21.5704  -14.3784  -16.5850 N   0  0  0  0  0  0  0  0  0  0  0  0
   21.8143  -12.0878  -16.0179 C   0  0  0  0  0  0  0  0  0  0  0  0
   22.2765  -11.5721  -17.0637 O   0  0  0  0  0  0  0  0  0  0  0  0
   19.1314   -9.6947  -15.3787 C   0  0  0  0  0  0  0  0  0  0  0  0
   20.5949   -9.9875  -15.6701 C   0  0  2  0  0  0  0  0  0  0  0  0
   20.9163  -11.3125  -15.2401 N   0  0  0  0  0  0  0  0  0  0  0  0
   21.4664   -8.9504  -15.0793 C   0  0  0  0  0  0  0  0  0  0  0  0
   22.0407   -9.0369  -13.9658 O   0  0  0  0  0  0  0  0  0  0  0  0
   23.5193   -4.4979  -16.0447 C   0  0  0  0  0  0  0  0  0  0  0  0
   22.6679   -5.6499  -16.4787 C   0  0  1  0  0  0  0  0  0  0  0  0
   23.1774   -6.3114  -17.5954 O   0  0  0  0  0  0  0  0  0  0  0  0
   22.4450   -6.6445  -15.3325 C   0  0  2  0  0  0  0  0  0  0  0  0
   21.6699   -7.7617  -15.8313 N   0  0  0  0  0  0  0  0  0  0  0  0
   21.7175   -5.9297  -14.2584 C   0  0  0  0  0  0  0  0  0  0  0  0
   20.3435   -5.9359  -14.2669 O   0  0  0  0  0  0  0  0  0  0  0  0
   22.3556   -5.3426  -13.3773 O   0  0  0  0  0  0  0  0  0  0  0  0
  2  1  1  0
  3  2  1  0
  3  4  1  1
  5  3  1  0
  5  7  1  0
  5  6  1  6
  7  8  2  0
 10  9  1  1
 11 10  1  0
 11  7  1  0
 12 10  1  0
 12 18  1  0
 13 12  2  0
 15 14  1  1
 15 16  1  0
 17 18  1  6
 17 15  1  0
 19 17  1  0
 20 19  1  0
 21 19  2  0
M  END
$$$$
