IAT.pdb
     RDKit          3D

 21 20  0  0  1  0  0  0  0  0999 V2000
   13.8909   -8.4170   -6.5416 C   0  0  0  0  0  0  0  0  0  0  0  0
   13.5521   -8.1880   -7.9837 C   0  0  0  0  0  0  0  0  0  0  0  0
   14.7458   -7.6959   -8.7724 C   0  0  2  0  0  0  0  0  0  0  0  0
   15.4015   -6.5083   -8.1319 C   0  0  0  0  0  0  0  0  0  0  0  0
   14.4438   -7.4775  -10.2140 C   0  0  2  0  0  0  0  0  0  0  0  0
   14.0877   -8.7900  -10.7755 N   0  0  0  0  0  0  0  0  0  0  0  0
   15.5496   -6.9355  -11.0027 C   0  0  0  0  0  0  0  0  0  0  0  0
   15.9625   -5.7732  -10.7750 O   0  0  0  0  0  0  0  0  0  0  0  0
   18.0097   -8.0599  -13.5670 C   0  0  0  0  0  0  0  0  0  0  0  0
   17.1622   -7.0207  -12.8496 C   0  0  2  0  0  0  0  0  0  0  0  0
   16.1890   -7.6742  -12.0312 N   0  0  0  0  0  0  0  0  0  0  0  0
   16.5746   -6.0658  -13.8124 C   0  0  0  0  0  0  0  0  0  0  0  0
   15.6043   -6.3092  -14.5716 O   0  0  0  0  0  0  0  0  0  0  0  0
   16.7380   -1.3088  -15.2852 C   0  0  0  0  0  0  0  0  0  0  0  0
   17.0896   -2.3839  -14.3049 C   0  0  1  0  0  0  0  0  0  0  0  0
   16.5110   -2.1865  -13.0517 O   0  0  0  0  0  0  0  0  0  0  0  0
   16.7232   -3.7731  -14.8422 C   0  0  2  0  0  0  0  0  0  0  0  0
   17.1541   -4.7700  -13.8839 N   0  0  0  0  0  0  0  0  0  0  0  0
   17.4183   -3.9461  -16.1387 C   0  0  0  0  0  0  0  0  0  0  0  0
   16.7250   -3.7135  -17.3019 O   0  0  0  0  0  0  0  0  0  0  0  0
   18.6041   -4.2950  -16.1520 O   0  0  0  0  0  0  0  0  0  0  0  0
  2  1  1  0
  3  2  1  0
  3  4  1  1
  5  3  1  0
  5  7  1  0
  5  6  1  6
  7  8  2  0
 10  9  1  6
 11 10  1  0
 11  7  1  0
 12 10  1  0
 12 18  1  0
 13 12  2  0
 15 14  1  6
 15 16  1  0
 17 18  1  1
 17 15  1  0
 19 17  1  0
 20 19  1  0
 21 19  2  0
M  END
$$$$
