IAT.pdb
     RDKit          3D

 21 20  0  0  1  0  0  0  0  0999 V2000
   25.7869  -20.4892   -9.1784 C   0  0  0  0  0  0  0  0  0  0  0  0
   26.0640  -21.3179  -10.3964 C   0  0  0  0  0  0  0  0  0  0  0  0
   25.2181  -20.8887  -11.5751 C   0  0  2  0  0  0  0  0  0  0  0  0
   23.7540  -20.8685  -11.2483 C   0  0  0  0  0  0  0  0  0  0  0  0
   25.5188  -21.6510  -12.8184 C   0  0  2  0  0  0  0  0  0  0  0  0
   26.9747  -21.5781  -13.0178 N   0  0  0  0  0  0  0  0  0  0  0  0
   24.8728  -21.1422  -14.0277 C   0  0  0  0  0  0  0  0  0  0  0  0
   24.9737  -19.9267  -14.3202 O   0  0  0  0  0  0  0  0  0  0  0  0
   24.0259  -22.1641  -17.3047 C   0  0  0  0  0  0  0  0  0  0  0  0
   23.5519  -21.3984  -16.0792 C   0  0  2  0  0  0  0  0  0  0  0  0
   24.1242  -21.9721  -14.9014 N   0  0  0  0  0  0  0  0  0  0  0  0
   22.0762  -21.3284  -16.0413 C   0  0  0  0  0  0  0  0  0  0  0  0
   21.3457  -20.9482  -16.9894 O   0  0  0  0  0  0  0  0  0  0  0  0
   18.0642  -22.8462  -13.6124 C   0  0  0  0  0  0  0  0  0  0  0  0
   19.5312  -22.9001  -13.9046 C   0  0  1  0  0  0  0  0  0  0  0  0
   19.9033  -24.0457  -14.6070 O   0  0  0  0  0  0  0  0  0  0  0  0
   19.9991  -21.6464  -14.6543 C   0  0  2  0  0  0  0  0  0  0  0  0
   21.4340  -21.7227  -14.8363 N   0  0  0  0  0  0  0  0  0  0  0  0
   19.6290  -20.4719  -13.8313 C   0  0  0  0  0  0  0  0  0  0  0  0
   18.4568  -19.8096  -14.1056 O   0  0  0  0  0  0  0  0  0  0  0  0
   20.3771  -20.1094  -12.9164 O   0  0  0  0  0  0  0  0  0  0  0  0
  2  1  1  0
  3  2  1  0
  3  4  1  1
  5  3  1  0
  5  7  1  0
  5  6  1  6
  7  8  2  0
 10  9  1  6
 11 10  1  0
 11  7  1  0
 12 10  1  0
 12 18  1  0
 13 12  2  0
 15 14  1  6
 15 16  1  0
 17 18  1  1
 17 15  1  0
 19 17  1  0
 20 19  1  0
 21 19  2  0
M  END
$$$$
