IAT.pdb
     RDKit          3D

 21 20  0  0  1  0  0  0  0  0999 V2000
   17.7561  -14.6881  -19.9276 C   0  0  0  0  0  0  0  0  0  0  0  0
   19.1488  -14.5182  -19.4002 C   0  0  0  0  0  0  0  0  0  0  0  0
   19.2443  -13.3710  -18.4186 C   0  0  2  0  0  0  0  0  0  0  0  0
   19.1127  -12.0352  -19.0888 C   0  0  0  0  0  0  0  0  0  0  0  0
   20.4404  -13.4554  -17.5357 C   0  0  2  0  0  0  0  0  0  0  0  0
   20.3625  -14.7495  -16.8400 N   0  0  0  0  0  0  0  0  0  0  0  0
   20.5374  -12.4050  -16.5229 C   0  0  0  0  0  0  0  0  0  0  0  0
   19.5621  -12.1806  -15.7667 O   0  0  0  0  0  0  0  0  0  0  0  0
   23.0201  -10.4884  -14.6724 C   0  0  0  0  0  0  0  0  0  0  0  0
   21.6827  -10.5526  -15.3934 C   0  0  2  0  0  0  0  0  0  0  0  0
   21.7021  -11.6136  -16.3514 N   0  0  0  0  0  0  0  0  0  0  0  0
   21.3367   -9.2399  -15.9773 C   0  0  0  0  0  0  0  0  0  0  0  0
   21.7562   -8.8049  -17.0782 O   0  0  0  0  0  0  0  0  0  0  0  0
   18.2518   -5.3752  -15.4673 C   0  0  0  0  0  0  0  0  0  0  0  0
   18.6668   -6.7761  -15.1424 C   0  0  1  0  0  0  0  0  0  0  0  0
   17.7567   -7.7308  -15.5947 O   0  0  0  0  0  0  0  0  0  0  0  0
   20.0682   -7.0849  -15.6841 C   0  0  2  0  0  0  0  0  0  0  0  0
   20.4599   -8.4044  -15.2335 N   0  0  0  0  0  0  0  0  0  0  0  0
   20.9866   -6.0487  -15.1580 C   0  0  0  0  0  0  0  0  0  0  0  0
   21.2720   -4.9541  -15.9379 O   0  0  0  0  0  0  0  0  0  0  0  0
   21.4782   -6.1858  -14.0321 O   0  0  0  0  0  0  0  0  0  0  0  0
  2  1  1  0
  3  2  1  0
  3  4  1  6
  5  3  1  0
  5  7  1  0
  5  6  1  1
  7  8  2  0
 10  9  1  6
 11 10  1  0
 11  7  1  0
 12 10  1  0
 12 18  1  0
 13 12  2  0
 15 14  1  6
 15 16  1  0
 17 18  1  1
 17 15  1  0
 19 17  1  0
 20 19  1  0
 21 19  2  0
M  END
$$$$
