IAT.pdb
     RDKit          3D

 21 20  0  0  1  0  0  0  0  0999 V2000
   18.9334  -13.5702  -20.3339 C   0  0  0  0  0  0  0  0  0  0  0  0
   19.9708  -13.0497  -19.3854 C   0  0  0  0  0  0  0  0  0  0  0  0
   19.5339  -11.7615  -18.7229 C   0  0  2  0  0  0  0  0  0  0  0  0
   19.0616  -10.7416  -19.7166 C   0  0  0  0  0  0  0  0  0  0  0  0
   20.5482  -11.2168  -17.7786 C   0  0  2  0  0  0  0  0  0  0  0  0
   20.8350  -12.2820  -16.8049 N   0  0  0  0  0  0  0  0  0  0  0  0
   20.1276  -10.0293  -17.0359 C   0  0  0  0  0  0  0  0  0  0  0  0
   19.9301   -8.9526  -17.6482 O   0  0  0  0  0  0  0  0  0  0  0  0
   19.0664   -9.0954  -13.5839 C   0  0  0  0  0  0  0  0  0  0  0  0
   19.6228   -8.8071  -14.9695 C   0  0  2  0  0  0  0  0  0  0  0  0
   19.9288  -10.0368  -15.6314 N   0  0  0  0  0  0  0  0  0  0  0  0
   20.7707   -7.8796  -14.8926 C   0  0  0  0  0  0  0  0  0  0  0  0
   21.9779   -8.2142  -14.9820 O   0  0  0  0  0  0  0  0  0  0  0  0
   22.0443   -3.1236  -15.2380 C   0  0  0  0  0  0  0  0  0  0  0  0
   21.0035   -4.1991  -15.2593 C   0  0  1  0  0  0  0  0  0  0  0  0
   20.5188   -4.4605  -16.5403 O   0  0  0  0  0  0  0  0  0  0  0  0
   21.5213   -5.4922  -14.6172 C   0  0  2  0  0  0  0  0  0  0  0  0
   20.4851   -6.5004  -14.7026 N   0  0  0  0  0  0  0  0  0  0  0  0
   21.8513   -5.1868  -13.2059 C   0  0  0  0  0  0  0  0  0  0  0  0
   23.1374   -4.8238  -12.8865 O   0  0  0  0  0  0  0  0  0  0  0  0
   20.9685   -5.2634  -12.3439 O   0  0  0  0  0  0  0  0  0  0  0  0
  2  1  1  0
  3  2  1  0
  3  4  1  6
  5  3  1  0
  5  7  1  0
  5  6  1  1
  7  8  2  0
 10  9  1  1
 11 10  1  0
 11  7  1  0
 12 10  1  0
 12 18  1  0
 13 12  2  0
 15 14  1  6
 15 16  1  0
 17 18  1  1
 17 15  1  0
 19 17  1  0
 20 19  1  0
 21 19  2  0
M  END
$$$$
