IAT.pdb
     RDKit          3D

 21 20  0  0  1  0  0  0  0  0999 V2000
   17.2483  -14.6377  -17.3194 C   0  0  0  0  0  0  0  0  0  0  0  0
   17.1971  -13.8371  -16.0532 C   0  0  0  0  0  0  0  0  0  0  0  0
   17.3706  -12.3569  -16.3143 C   0  0  2  0  0  0  0  0  0  0  0  0
   18.7435  -12.0247  -16.8197 C   0  0  0  0  0  0  0  0  0  0  0  0
   16.9620  -11.5084  -15.1609 C   0  0  2  0  0  0  0  0  0  0  0  0
   15.5300  -11.7603  -14.9364 N   0  0  0  0  0  0  0  0  0  0  0  0
   17.1408  -10.0702  -15.3568 C   0  0  0  0  0  0  0  0  0  0  0  0
   16.4860   -9.4797  -16.2489 O   0  0  0  0  0  0  0  0  0  0  0  0
   16.8306   -7.2204  -14.8155 C   0  0  0  0  0  0  0  0  0  0  0  0
   18.1870   -7.9062  -14.8655 C   0  0  2  0  0  0  0  0  0  0  0  0
   18.0349   -9.2972  -14.5724 N   0  0  0  0  0  0  0  0  0  0  0  0
   19.1550   -7.2221  -13.9828 C   0  0  0  0  0  0  0  0  0  0  0  0
   19.1489   -7.2705  -12.7279 O   0  0  0  0  0  0  0  0  0  0  0  0
   22.6547   -8.1055  -14.1135 C   0  0  0  0  0  0  0  0  0  0  0  0
   22.5847   -6.6588  -14.4912 C   0  0  1  0  0  0  0  0  0  0  0  0
   22.6228   -6.4551  -15.8701 O   0  0  0  0  0  0  0  0  0  0  0  0
   21.3449   -5.9831  -13.8922 C   0  0  2  0  0  0  0  0  0  0  0  0
   20.1727   -6.4486  -14.6041 N   0  0  0  0  0  0  0  0  0  0  0  0
   21.5162   -4.5202  -14.0488 C   0  0  0  0  0  0  0  0  0  0  0  0
   22.4071   -3.8634  -13.2347 O   0  0  0  0  0  0  0  0  0  0  0  0
   20.8581   -3.9183  -14.9048 O   0  0  0  0  0  0  0  0  0  0  0  0
  2  1  1  0
  3  2  1  0
  3  4  1  1
  5  3  1  0
  5  7  1  0
  5  6  1  6
  7  8  2  0
 10  9  1  1
 11 10  1  0
 11  7  1  0
 12 10  1  0
 12 18  1  0
 13 12  2  0
 15 14  1  6
 15 16  1  0
 17 18  1  6
 17 15  1  0
 19 17  1  0
 20 19  1  0
 21 19  2  0
M  END
$$$$
