IAT.pdb
     RDKit          3D

 21 20  0  0  1  0  0  0  0  0999 V2000
   18.3088  -16.5336  -15.3080 C   0  0  0  0  0  0  0  0  0  0  0  0
   17.4166  -15.6175  -16.0901 C   0  0  0  0  0  0  0  0  0  0  0  0
   18.0360  -14.2497  -16.2758 C   0  0  2  0  0  0  0  0  0  0  0  0
   18.4921  -13.6499  -14.9786 C   0  0  0  0  0  0  0  0  0  0  0  0
   17.1803  -13.3234  -17.0677 C   0  0  2  0  0  0  0  0  0  0  0  0
   16.9811  -13.9517  -18.3832 N   0  0  0  0  0  0  0  0  0  0  0  0
   17.7458  -11.9925  -17.2855 C   0  0  0  0  0  0  0  0  0  0  0  0
   18.8275  -11.8726  -17.9091 O   0  0  0  0  0  0  0  0  0  0  0  0
   16.7498   -8.5522  -17.5859 C   0  0  0  0  0  0  0  0  0  0  0  0
   17.7591   -9.5513  -17.0421 C   0  0  2  0  0  0  0  0  0  0  0  0
   17.1185  -10.8095  -16.8172 N   0  0  0  0  0  0  0  0  0  0  0  0
   18.4370   -9.0145  -15.8437 C   0  0  0  0  0  0  0  0  0  0  0  0
   18.1314   -9.2880  -14.6566 O   0  0  0  0  0  0  0  0  0  0  0  0
   22.3783   -6.4315  -14.2890 C   0  0  0  0  0  0  0  0  0  0  0  0
   21.6386   -7.1603  -15.3671 C   0  0  1  0  0  0  0  0  0  0  0  0
   22.2588   -8.3519  -15.7410 O   0  0  0  0  0  0  0  0  0  0  0  0
   20.1826   -7.4270  -14.9651 C   0  0  2  0  0  0  0  0  0  0  0  0
   19.5200   -8.1180  -16.0519 N   0  0  0  0  0  0  0  0  0  0  0  0
   19.5464   -6.1155  -14.7022 C   0  0  0  0  0  0  0  0  0  0  0  0
   19.4157   -5.6876  -13.4031 O   0  0  0  0  0  0  0  0  0  0  0  0
   19.1459   -5.4319  -15.6511 O   0  0  0  0  0  0  0  0  0  0  0  0
  2  1  1  0
  3  2  1  0
  3  4  1  1
  5  3  1  0
  5  7  1  0
  5  6  1  6
  7  8  2  0
 10  9  1  1
 11 10  1  0
 11  7  1  0
 12 10  1  0
 12 18  1  0
 13 12  2  0
 15 14  1  1
 15 16  1  0
 17 18  1  6
 17 15  1  0
 19 17  1  0
 20 19  1  0
 21 19  2  0
M  END
$$$$
