IAT.pdb
     RDKit          3D

 21 20  0  0  1  0  0  0  0  0999 V2000
   36.3566   -6.9032   -6.7564 C   0  0  0  0  0  0  0  0  0  0  0  0
   36.5081   -8.3703   -7.0235 C   0  0  0  0  0  0  0  0  0  0  0  0
   37.9537   -8.8108   -6.9502 C   0  0  2  0  0  0  0  0  0  0  0  0
   38.8592   -7.9309   -7.7604 C   0  0  0  0  0  0  0  0  0  0  0  0
   38.1397  -10.2575   -7.2497 C   0  0  2  0  0  0  0  0  0  0  0  0
   37.3825  -11.0014   -6.2308 N   0  0  0  0  0  0  0  0  0  0  0  0
   39.5250  -10.7243   -7.2111 C   0  0  0  0  0  0  0  0  0  0  0  0
   40.0878  -10.9056   -6.1048 O   0  0  0  0  0  0  0  0  0  0  0  0
   42.0788  -12.0767   -9.5622 C   0  0  0  0  0  0  0  0  0  0  0  0
   41.6248  -11.4434   -8.2563 C   0  0  2  0  0  0  0  0  0  0  0  0
   40.2763  -10.9867   -8.3854 N   0  0  0  0  0  0  0  0  0  0  0  0
   42.5651  -10.3860   -7.8299 C   0  0  0  0  0  0  0  0  0  0  0  0
   42.6441   -9.2405   -8.3387 O   0  0  0  0  0  0  0  0  0  0  0  0
   43.4730   -9.7174   -3.9751 C   0  0  0  0  0  0  0  0  0  0  0  0
   44.6919  -10.0192   -4.7897 C   0  0  1  0  0  0  0  0  0  0  0  0
   45.1624  -11.3183   -4.6023 O   0  0  0  0  0  0  0  0  0  0  0  0
   44.4476   -9.7566   -6.2811 C   0  0  2  0  0  0  0  0  0  0  0  0
   43.4491  -10.6903   -6.7595 N   0  0  0  0  0  0  0  0  0  0  0  0
   45.7370   -9.9503   -6.9838 C   0  0  0  0  0  0  0  0  0  0  0  0
   45.9066  -11.0653   -7.7686 O   0  0  0  0  0  0  0  0  0  0  0  0
   46.6340   -9.1097   -6.8529 O   0  0  0  0  0  0  0  0  0  0  0  0
  2  1  1  0
  3  2  1  0
  3  4  1  6
  5  3  1  0
  5  7  1  0
  5  6  1  1
  7  8  2  0
 10  9  1  6
 11 10  1  0
 11  7  1  0
 12 10  1  0
 12 18  1  0
 13 12  2  0
 15 14  1  1
 15 16  1  0
 17 18  1  6
 17 15  1  0
 19 17  1  0
 20 19  1  0
 21 19  2  0
M  END
$$$$
