IAT.pdb
     RDKit          3D

 21 20  0  0  1  0  0  0  0  0999 V2000
   25.4428  -13.2318  -17.8896 C   0  0  0  0  0  0  0  0  0  0  0  0
   24.2870  -12.9791  -16.9691 C   0  0  0  0  0  0  0  0  0  0  0  0
   23.5415  -11.7141  -17.3338 C   0  0  2  0  0  0  0  0  0  0  0  0
   24.4452  -10.5182  -17.3963 C   0  0  0  0  0  0  0  0  0  0  0  0
   22.3378  -11.4810  -16.4887 C   0  0  2  0  0  0  0  0  0  0  0  0
   21.5588  -12.7290  -16.5085 N   0  0  0  0  0  0  0  0  0  0  0  0
   21.4649  -10.3982  -16.9404 C   0  0  0  0  0  0  0  0  0  0  0  0
   21.6170   -9.9169  -18.0886 O   0  0  0  0  0  0  0  0  0  0  0  0
   18.1726   -9.3404  -16.7859 C   0  0  0  0  0  0  0  0  0  0  0  0
   19.5995   -8.8287  -16.6645 C   0  0  2  0  0  0  0  0  0  0  0  0
   20.4360   -9.8564  -16.1278 N   0  0  0  0  0  0  0  0  0  0  0  0
   19.6430   -7.5711  -15.8896 C   0  0  0  0  0  0  0  0  0  0  0  0
   18.9695   -6.5419  -16.1430 O   0  0  0  0  0  0  0  0  0  0  0  0
   19.1056   -7.4354  -12.1851 C   0  0  0  0  0  0  0  0  0  0  0  0
   20.4606   -6.8530  -12.4408 C   0  0  1  0  0  0  0  0  0  0  0  0
   21.4972   -7.7299  -12.1235 O   0  0  0  0  0  0  0  0  0  0  0  0
   20.5997   -6.3747  -13.8915 C   0  0  2  0  0  0  0  0  0  0  0  0
   20.5164   -7.5236  -14.7693 N   0  0  0  0  0  0  0  0  0  0  0  0
   21.9153   -5.7053  -14.0149 C   0  0  0  0  0  0  0  0  0  0  0  0
   22.1475   -4.5565  -13.2977 O   0  0  0  0  0  0  0  0  0  0  0  0
   22.7774   -6.1891  -14.7571 O   0  0  0  0  0  0  0  0  0  0  0  0
  2  1  1  0
  3  2  1  0
  3  4  1  1
  5  3  1  0
  5  7  1  0
  5  6  1  6
  7  8  2  0
 10  9  1  1
 11 10  1  0
 11  7  1  0
 12 10  1  0
 12 18  1  0
 13 12  2  0
 15 14  1  6
 15 16  1  0
 17 18  1  6
 17 15  1  0
 19 17  1  0
 20 19  1  0
 21 19  2  0
M  END
$$$$
