IAT.pdb
     RDKit          3D

 21 20  0  0  1  0  0  0  0  0999 V2000
   24.3680  -12.3975  -15.3064 C   0  0  0  0  0  0  0  0  0  0  0  0
   23.8422  -11.1752  -14.6162 C   0  0  0  0  0  0  0  0  0  0  0  0
   22.9320  -10.3674  -15.5151 C   0  0  2  0  0  0  0  0  0  0  0  0
   23.5564  -10.0806  -16.8487 C   0  0  0  0  0  0  0  0  0  0  0  0
   22.3962   -9.1440  -14.8566 C   0  0  2  0  0  0  0  0  0  0  0  0
   21.7657   -9.5808  -13.6010 N   0  0  0  0  0  0  0  0  0  0  0  0
   21.3956   -8.4117  -15.6318 C   0  0  0  0  0  0  0  0  0  0  0  0
   21.7588   -7.7012  -16.5996 O   0  0  0  0  0  0  0  0  0  0  0  0
   17.7383   -8.4979  -16.1520 C   0  0  0  0  0  0  0  0  0  0  0  0
   19.0896   -7.8024  -16.2064 C   0  0  2  0  0  0  0  0  0  0  0  0
   20.0091   -8.4672  -15.3367 N   0  0  0  0  0  0  0  0  0  0  0  0
   18.9499   -6.3590  -15.9213 C   0  0  0  0  0  0  0  0  0  0  0  0
   19.2807   -5.7988  -14.8471 O   0  0  0  0  0  0  0  0  0  0  0  0
   17.6964   -2.0273  -18.0655 C   0  0  0  0  0  0  0  0  0  0  0  0
   17.7791   -3.5204  -18.1307 C   0  0  1  0  0  0  0  0  0  0  0  0
   18.6365   -3.9735  -19.1327 O   0  0  0  0  0  0  0  0  0  0  0  0
   18.1860   -4.1182  -16.7780 C   0  0  2  0  0  0  0  0  0  0  0  0
   18.3975   -5.5413  -16.9441 N   0  0  0  0  0  0  0  0  0  0  0  0
   17.0843   -3.8518  -15.8246 C   0  0  0  0  0  0  0  0  0  0  0  0
   17.2285   -2.8397  -14.9066 O   0  0  0  0  0  0  0  0  0  0  0  0
   16.0591   -4.5410  -15.8707 O   0  0  0  0  0  0  0  0  0  0  0  0
  2  1  1  0
  3  2  1  0
  3  4  1  6
  5  3  1  0
  5  7  1  0
  5  6  1  1
  7  8  2  0
 10  9  1  1
 11 10  1  0
 11  7  1  0
 12 10  1  0
 12 18  1  0
 13 12  2  0
 15 14  1  1
 15 16  1  0
 17 18  1  6
 17 15  1  0
 19 17  1  0
 20 19  1  0
 21 19  2  0
M  END
$$$$
