IAT.pdb
     RDKit          3D

 21 20  0  0  1  0  0  0  0  0999 V2000
   26.4727  -20.6331   -9.6507 C   0  0  0  0  0  0  0  0  0  0  0  0
   26.6558  -20.3606  -11.1132 C   0  0  0  0  0  0  0  0  0  0  0  0
   25.5591  -20.9878  -11.9456 C   0  0  2  0  0  0  0  0  0  0  0  0
   25.3792  -22.4465  -11.6449 C   0  0  0  0  0  0  0  0  0  0  0  0
   25.7025  -20.7149  -13.4024 C   0  0  2  0  0  0  0  0  0  0  0  0
   26.0463  -19.2904  -13.5343 N   0  0  0  0  0  0  0  0  0  0  0  0
   24.5023  -20.9641  -14.1998 C   0  0  0  0  0  0  0  0  0  0  0  0
   23.4014  -20.4922  -13.8275 O   0  0  0  0  0  0  0  0  0  0  0  0
   23.5682  -22.4175  -17.5008 C   0  0  0  0  0  0  0  0  0  0  0  0
   23.2902  -21.9968  -16.0661 C   0  0  2  0  0  0  0  0  0  0  0  0
   24.5236  -21.7273  -15.3953 N   0  0  0  0  0  0  0  0  0  0  0  0
   22.4535  -23.0010  -15.3765 C   0  0  0  0  0  0  0  0  0  0  0  0
   22.8870  -23.9175  -14.6354 O   0  0  0  0  0  0  0  0  0  0  0  0
   17.9531  -23.9798  -13.7213 C   0  0  0  0  0  0  0  0  0  0  0  0
   19.0216  -23.0719  -14.2453 C   0  0  1  0  0  0  0  0  0  0  0  0
   19.5793  -22.2622  -13.2565 O   0  0  0  0  0  0  0  0  0  0  0  0
   20.1230  -23.8604  -14.9648 C   0  0  2  0  0  0  0  0  0  0  0  0
   21.0473  -22.9224  -15.5677 N   0  0  0  0  0  0  0  0  0  0  0  0
   19.4687  -24.6993  -15.9953 C   0  0  0  0  0  0  0  0  0  0  0  0
   19.0930  -25.9805  -15.6706 O   0  0  0  0  0  0  0  0  0  0  0  0
   19.2728  -24.2350  -17.1241 O   0  0  0  0  0  0  0  0  0  0  0  0
  2  1  1  0
  3  2  1  0
  3  4  1  6
  5  3  1  0
  5  7  1  0
  5  6  1  1
  7  8  2  0
 10  9  1  6
 11 10  1  0
 11  7  1  0
 12 10  1  0
 12 18  1  0
 13 12  2  0
 15 14  1  1
 15 16  1  0
 17 18  1  6
 17 15  1  0
 19 17  1  0
 20 19  1  0
 21 19  2  0
M  END
$$$$
