INS.pdb
     RDKit          3D

 23 22  0  0  1  0  0  0  0  0999 V2000
    7.8549  -11.2208   20.0780 C   0  0  0  0  0  0  0  0  0  0  0  0
    7.5714  -12.6792   20.3918 C   0  0  0  0  0  0  0  0  0  0  0  0
    8.7397  -13.4838   19.9262 C   0  0  2  0  0  0  0  0  0  0  0  0
    8.9415  -13.3083   18.4442 C   0  0  0  0  0  0  0  0  0  0  0  0
    8.6152  -14.9593   20.2244 C   0  0  2  0  0  0  0  0  0  0  0  0
    8.0279  -15.1887   21.5245 N   0  0  0  0  0  0  0  0  0  0  0  0
    9.9132  -15.6587   20.1392 C   0  0  0  0  0  0  0  0  0  0  0  0
   10.4771  -15.7319   19.0251 O   0  0  0  0  0  0  0  0  0  0  0  0
   13.0330  -17.9275   18.8121 N   0  0  0  0  0  0  0  0  0  0  0  0
   13.1462  -16.5770   19.2131 C   0  0  0  0  0  0  0  0  0  0  0  0
   13.4848  -15.7245   18.3550 O   0  0  0  0  0  0  0  0  0  0  0  0
   12.8887  -16.1192   20.5822 C   0  0  0  0  0  0  0  0  0  0  0  0
   11.8007  -16.8771   21.2836 C   0  0  2  0  0  0  0  0  0  0  0  0
   10.5241  -16.2418   21.2824 N   0  0  0  0  0  0  0  0  0  0  0  0
   12.2207  -17.3041   22.6616 C   0  0  0  0  0  0  0  0  0  0  0  0
   12.9669  -16.6034   23.3949 O   0  0  0  0  0  0  0  0  0  0  0  0
   10.5149  -20.6828   23.9781 O   0  0  0  0  0  0  0  0  0  0  0  0
   10.8903  -19.8359   25.0087 C   0  0  0  0  0  0  0  0  0  0  0  0
   12.0750  -18.9865   24.5470 C   0  0  2  0  0  0  0  0  0  0  0  0
   11.7916  -18.5398   23.2188 N   0  0  0  0  0  0  0  0  0  0  0  0
   13.2804  -19.8725   24.4838 C   0  0  0  0  0  0  0  0  0  0  0  0
   13.7778  -20.2301   23.3991 O   0  0  0  0  0  0  0  0  0  0  0  0
   13.8839  -20.3253   25.6601 O   0  0  0  0  0  0  0  0  0  0  0  0
  2  1  1  0
  3  2  1  0
  3  4  1  6
  5  3  1  0
  5  6  1  1
  7  5  1  0
  7  8  2  0
  9 10  1  0
 10 12  1  0
 11 10  2  0
 13 12  1  1
 14 13  1  0
 14  7  1  0
 15 16  2  0
 15 13  1  0
 17 18  1  0
 19 18  1  6
 19 20  1  0
 19 21  1  0
 20 15  1  0
 21 23  1  0
 22 21  2  0
M  END
$$$$
