INS.pdb
     RDKit          3D

 23 22  0  0  1  0  0  0  0  0999 V2000
    7.2709  -11.8606   19.2459 C   0  0  0  0  0  0  0  0  0  0  0  0
    8.0891  -12.8627   18.4509 C   0  0  0  0  0  0  0  0  0  0  0  0
    8.3323  -14.0503   19.3223 C   0  0  2  0  0  0  0  0  0  0  0  0
    9.1236  -13.6547   20.5410 C   0  0  0  0  0  0  0  0  0  0  0  0
    9.0561  -15.1762   18.6222 C   0  0  2  0  0  0  0  0  0  0  0  0
    8.3475  -15.6055   17.4384 N   0  0  0  0  0  0  0  0  0  0  0  0
    9.2803  -16.3348   19.5102 C   0  0  0  0  0  0  0  0  0  0  0  0
    8.3784  -17.1965   19.6023 O   0  0  0  0  0  0  0  0  0  0  0  0
   12.3987  -17.5632   18.6618 N   0  0  0  0  0  0  0  0  0  0  0  0
   12.6198  -18.2816   19.8586 C   0  0  0  0  0  0  0  0  0  0  0  0
   13.7946  -18.6230   20.1431 O   0  0  0  0  0  0  0  0  0  0  0  0
   11.5459  -18.6498   20.7869 C   0  0  0  0  0  0  0  0  0  0  0  0
   10.7065  -17.4914   21.2379 C   0  0  2  0  0  0  0  0  0  0  0  0
   10.4836  -16.4862   20.2513 N   0  0  0  0  0  0  0  0  0  0  0  0
   11.2055  -16.9148   22.5327 C   0  0  0  0  0  0  0  0  0  0  0  0
   12.0466  -15.9791   22.5832 O   0  0  0  0  0  0  0  0  0  0  0  0
    9.2928  -15.3879   24.8873 O   0  0  0  0  0  0  0  0  0  0  0  0
    9.8710  -16.3252   25.7285 C   0  0  0  0  0  0  0  0  0  0  0  0
   11.1304  -16.8804   25.0624 C   0  0  2  0  0  0  0  0  0  0  0  0
   10.7478  -17.4020   23.7875 N   0  0  0  0  0  0  0  0  0  0  0  0
   11.6258  -18.0231   25.8936 C   0  0  0  0  0  0  0  0  0  0  0  0
   11.5282  -19.2049   25.5122 O   0  0  0  0  0  0  0  0  0  0  0  0
   12.2185  -17.7845   27.1365 O   0  0  0  0  0  0  0  0  0  0  0  0
  2  1  1  0
  3  2  1  0
  3  4  1  1
  5  3  1  0
  5  6  1  6
  7  5  1  0
  7  8  2  0
  9 10  1  0
 10 12  1  0
 11 10  2  0
 13 12  1  6
 14 13  1  0
 14  7  1  0
 15 16  2  0
 15 13  1  0
 17 18  1  0
 19 18  1  1
 19 20  1  0
 19 21  1  0
 20 15  1  0
 21 23  1  0
 22 21  2  0
M  END
$$$$
