INS.pdb
     RDKit          3D

 23 22  0  0  1  0  0  0  0  0999 V2000
    6.4211  -11.3042   26.7091 C   0  0  0  0  0  0  0  0  0  0  0  0
    5.8269  -12.5023   25.9900 C   0  0  0  0  0  0  0  0  0  0  0  0
    6.9155  -13.5048   25.7926 C   0  0  2  0  0  0  0  0  0  0  0  0
    8.0470  -12.9031   25.0017 C   0  0  0  0  0  0  0  0  0  0  0  0
    6.4581  -14.7653   25.0972 C   0  0  2  0  0  0  0  0  0  0  0  0
    5.4121  -15.4298   25.8403 N   0  0  0  0  0  0  0  0  0  0  0  0
    7.5698  -15.7081   24.8598 C   0  0  0  0  0  0  0  0  0  0  0  0
    7.7364  -16.6467   25.6696 O   0  0  0  0  0  0  0  0  0  0  0  0
   12.1096  -17.1514   20.8621 N   0  0  0  0  0  0  0  0  0  0  0  0
   10.9137  -17.4052   21.5712 C   0  0  0  0  0  0  0  0  0  0  0  0
   10.6347  -18.5934   21.8678 O   0  0  0  0  0  0  0  0  0  0  0  0
    9.9799  -16.3505   21.9790 C   0  0  0  0  0  0  0  0  0  0  0  0
    9.4206  -16.5321   23.3589 C   0  0  2  0  0  0  0  0  0  0  0  0
    8.4410  -15.5705   23.7453 N   0  0  0  0  0  0  0  0  0  0  0  0
   10.5088  -16.6772   24.3848 C   0  0  0  0  0  0  0  0  0  0  0  0
   11.3308  -15.7585   24.6415 O   0  0  0  0  0  0  0  0  0  0  0  0
    9.9139  -19.4411   26.9127 O   0  0  0  0  0  0  0  0  0  0  0  0
   11.0539  -18.7627   27.3134 C   0  0  0  0  0  0  0  0  0  0  0  0
   11.7038  -18.1172   26.0891 C   0  0  2  0  0  0  0  0  0  0  0  0
   10.6705  -17.8766   25.1308 N   0  0  0  0  0  0  0  0  0  0  0  0
   12.6556  -19.1091   25.4957 C   0  0  0  0  0  0  0  0  0  0  0  0
   12.4838  -19.5862   24.3578 O   0  0  0  0  0  0  0  0  0  0  0  0
   13.7763  -19.5285   26.2176 O   0  0  0  0  0  0  0  0  0  0  0  0
  2  1  1  0
  3  2  1  0
  3  4  1  6
  5  3  1  0
  5  6  1  1
  7  5  1  0
  7  8  2  0
  9 10  1  0
 10 12  1  0
 11 10  2  0
 13 12  1  6
 14 13  1  0
 14  7  1  0
 15 16  2  0
 15 13  1  0
 17 18  1  0
 19 18  1  1
 19 20  1  0
 19 21  1  0
 20 15  1  0
 21 23  1  0
 22 21  2  0
M  END
$$$$
