INS.pdb
     RDKit          3D

 23 22  0  0  1  0  0  0  0  0999 V2000
    7.4356  -11.5649   19.1566 C   0  0  0  0  0  0  0  0  0  0  0  0
    7.8444  -12.7098   18.2467 C   0  0  0  0  0  0  0  0  0  0  0  0
    8.7240  -13.6268   19.0306 C   0  0  2  0  0  0  0  0  0  0  0  0
    9.9683  -12.9063   19.4781 C   0  0  0  0  0  0  0  0  0  0  0  0
    9.1318  -14.8681   18.2727 C   0  0  2  0  0  0  0  0  0  0  0  0
    7.9825  -15.5696   17.7485 N   0  0  0  0  0  0  0  0  0  0  0  0
    9.9369  -15.7894   19.1000 C   0  0  0  0  0  0  0  0  0  0  0  0
    9.3459  -16.5082   19.9358 O   0  0  0  0  0  0  0  0  0  0  0  0
   13.2144  -19.1523   17.6367 N   0  0  0  0  0  0  0  0  0  0  0  0
   13.3434  -17.7533   17.7908 C   0  0  0  0  0  0  0  0  0  0  0  0
   13.3326  -17.0345   16.7608 O   0  0  0  0  0  0  0  0  0  0  0  0
   13.4899  -17.0968   19.0939 C   0  0  0  0  0  0  0  0  0  0  0  0
   12.1875  -16.7283   19.7403 C   0  0  2  0  0  0  0  0  0  0  0  0
   11.3494  -15.8727   18.9663 N   0  0  0  0  0  0  0  0  0  0  0  0
   12.3869  -16.2142   21.1380 C   0  0  0  0  0  0  0  0  0  0  0  0
   13.0090  -15.1489   21.3905 O   0  0  0  0  0  0  0  0  0  0  0  0
    9.7003  -17.1147   23.7612 O   0  0  0  0  0  0  0  0  0  0  0  0
   10.5782  -16.0953   24.0938 C   0  0  0  0  0  0  0  0  0  0  0  0
   11.9823  -16.4756   23.6228 C   0  0  2  0  0  0  0  0  0  0  0  0
   11.8766  -16.9133   22.2659 N   0  0  0  0  0  0  0  0  0  0  0  0
   12.4443  -17.6396   24.4438 C   0  0  0  0  0  0  0  0  0  0  0  0
   12.6406  -18.7623   23.9412 O   0  0  0  0  0  0  0  0  0  0  0  0
   12.6689  -17.4891   25.8148 O   0  0  0  0  0  0  0  0  0  0  0  0
  2  1  1  0
  3  2  1  0
  3  4  1  6
  5  3  1  0
  5  6  1  1
  7  5  1  0
  7  8  2  0
  9 10  1  0
 10 12  1  0
 11 10  2  0
 13 12  1  6
 14 13  1  0
 14  7  1  0
 15 16  2  0
 15 13  1  0
 17 18  1  0
 19 18  1  1
 19 20  1  0
 19 21  1  0
 20 15  1  0
 21 23  1  0
 22 21  2  0
M  END
$$$$
