INS.pdb
     RDKit          3D

 23 22  0  0  1  0  0  0  0  0999 V2000
    7.7155  -11.8131   18.8667 C   0  0  0  0  0  0  0  0  0  0  0  0
    9.0073  -12.3267   19.4774 C   0  0  0  0  0  0  0  0  0  0  0  0
    8.7114  -13.6261   20.1505 C   0  0  2  0  0  0  0  0  0  0  0  0
    7.6351  -13.4472   21.1885 C   0  0  0  0  0  0  0  0  0  0  0  0
    9.9168  -14.2544   20.8093 C   0  0  2  0  0  0  0  0  0  0  0  0
   10.9828  -14.4772   19.8596 N   0  0  0  0  0  0  0  0  0  0  0  0
    9.5858  -15.5245   21.4863 C   0  0  0  0  0  0  0  0  0  0  0  0
    8.3827  -15.8551   21.5748 O   0  0  0  0  0  0  0  0  0  0  0  0
    9.9493  -20.5238   20.9013 N   0  0  0  0  0  0  0  0  0  0  0  0
   10.6570  -19.6006   20.0986 C   0  0  0  0  0  0  0  0  0  0  0  0
   11.3392  -20.0409   19.1403 O   0  0  0  0  0  0  0  0  0  0  0  0
   10.6359  -18.1523   20.3279 C   0  0  0  0  0  0  0  0  0  0  0  0
   10.7089  -17.7634   21.7747 C   0  0  2  0  0  0  0  0  0  0  0  0
   10.5938  -16.3653   22.0313 N   0  0  0  0  0  0  0  0  0  0  0  0
   11.9058  -18.3680   22.4527 C   0  0  0  0  0  0  0  0  0  0  0  0
   12.2116  -19.5842   22.3395 O   0  0  0  0  0  0  0  0  0  0  0  0
   12.1654  -18.4124   26.7203 O   0  0  0  0  0  0  0  0  0  0  0  0
   11.8469  -18.1582   25.3958 C   0  0  0  0  0  0  0  0  0  0  0  0
   13.1364  -17.9027   24.6150 C   0  0  2  0  0  0  0  0  0  0  0  0
   12.7689  -17.5877   23.2697 N   0  0  0  0  0  0  0  0  0  0  0  0
   13.9193  -19.1788   24.5880 C   0  0  0  0  0  0  0  0  0  0  0  0
   13.5174  -20.1842   23.9720 O   0  0  0  0  0  0  0  0  0  0  0  0
   15.1386  -19.2712   25.2647 O   0  0  0  0  0  0  0  0  0  0  0  0
  2  1  1  0
  3  2  1  0
  3  4  1  1
  5  3  1  0
  5  6  1  6
  7  5  1  0
  7  8  2  0
  9 10  1  0
 10 12  1  0
 11 10  2  0
 13 12  1  6
 14 13  1  0
 14  7  1  0
 15 16  2  0
 15 13  1  0
 17 18  1  0
 19 18  1  1
 19 20  1  0
 19 21  1  0
 20 15  1  0
 21 23  1  0
 22 21  2  0
M  END
$$$$
