INS.pdb
     RDKit          3D

 23 22  0  0  1  0  0  0  0  0999 V2000
    7.3428  -11.9389   19.9454 C   0  0  0  0  0  0  0  0  0  0  0  0
    7.3255  -13.4563   19.8947 C   0  0  0  0  0  0  0  0  0  0  0  0
    7.7297  -13.9646   21.2391 C   0  0  2  0  0  0  0  0  0  0  0  0
    9.1063  -13.4694   21.5961 C   0  0  0  0  0  0  0  0  0  0  0  0
    7.7168  -15.4713   21.3450 C   0  0  2  0  0  0  0  0  0  0  0  0
    6.4031  -16.0095   21.0760 N   0  0  0  0  0  0  0  0  0  0  0  0
    8.1824  -15.9434   22.6647 C   0  0  0  0  0  0  0  0  0  0  0  0
    7.3667  -15.9569   23.6129 O   0  0  0  0  0  0  0  0  0  0  0  0
   11.4351  -19.2802   22.0215 N   0  0  0  0  0  0  0  0  0  0  0  0
   10.7876  -18.9762   23.2404 C   0  0  0  0  0  0  0  0  0  0  0  0
    9.8703  -19.7373   23.6366 O   0  0  0  0  0  0  0  0  0  0  0  0
   11.1322  -17.8154   24.0677 C   0  0  0  0  0  0  0  0  0  0  0  0
   10.0549  -16.7738   24.1347 C   0  0  2  0  0  0  0  0  0  0  0  0
    9.5201  -16.3754   22.8743 N   0  0  0  0  0  0  0  0  0  0  0  0
   10.4711  -15.5975   24.9718 C   0  0  0  0  0  0  0  0  0  0  0  0
   11.4259  -14.8396   24.6562 O   0  0  0  0  0  0  0  0  0  0  0  0
    7.9416  -13.6335   27.3329 O   0  0  0  0  0  0  0  0  0  0  0  0
    9.2013  -13.1309   27.0483 C   0  0  0  0  0  0  0  0  0  0  0  0
   10.2175  -14.2716   27.1129 C   0  0  2  0  0  0  0  0  0  0  0  0
    9.7992  -15.2729   26.1821 N   0  0  0  0  0  0  0  0  0  0  0  0
   10.1541  -14.8681   28.4848 C   0  0  0  0  0  0  0  0  0  0  0  0
    9.7372  -16.0256   28.6803 O   0  0  0  0  0  0  0  0  0  0  0  0
   10.5684  -14.1267   29.5947 O   0  0  0  0  0  0  0  0  0  0  0  0
  2  1  1  0
  3  2  1  0
  3  4  1  6
  5  3  1  0
  5  6  1  1
  7  5  1  0
  7  8  2  0
  9 10  1  0
 10 12  1  0
 11 10  2  0
 13 12  1  6
 14 13  1  0
 14  7  1  0
 15 16  2  0
 15 13  1  0
 17 18  1  0
 19 18  1  1
 19 20  1  0
 19 21  1  0
 20 15  1  0
 21 23  1  0
 22 21  2  0
M  END
$$$$
