INS.pdb
     RDKit          3D

 23 22  0  0  1  0  0  0  0  0999 V2000
    6.9847  -12.2179   18.1704 C   0  0  0  0  0  0  0  0  0  0  0  0
    8.4649  -12.5126   18.3368 C   0  0  0  0  0  0  0  0  0  0  0  0
    8.6063  -13.5822   19.3688 C   0  0  2  0  0  0  0  0  0  0  0  0
    8.1189  -13.0901   20.7060 C   0  0  0  0  0  0  0  0  0  0  0  0
   10.0213  -14.0866   19.5272 C   0  0  2  0  0  0  0  0  0  0  0  0
   10.5760  -14.5122   18.2627 N   0  0  0  0  0  0  0  0  0  0  0  0
   10.1157  -15.1905   20.5037 C   0  0  0  0  0  0  0  0  0  0  0  0
    9.5487  -15.0553   21.6105 O   0  0  0  0  0  0  0  0  0  0  0  0
   13.8824  -19.0980   19.8438 N   0  0  0  0  0  0  0  0  0  0  0  0
   12.6092  -18.5397   19.5892 C   0  0  0  0  0  0  0  0  0  0  0  0
   12.4664  -17.8136   18.5743 O   0  0  0  0  0  0  0  0  0  0  0  0
   11.4443  -18.7647   20.4511 C   0  0  0  0  0  0  0  0  0  0  0  0
   10.9014  -17.5159   21.0801 C   0  0  2  0  0  0  0  0  0  0  0  0
   10.8285  -16.3854   20.2139 N   0  0  0  0  0  0  0  0  0  0  0  0
   11.5984  -17.1965   22.3723 C   0  0  0  0  0  0  0  0  0  0  0  0
   12.7398  -16.6666   22.4186 O   0  0  0  0  0  0  0  0  0  0  0  0
    9.3274  -17.2758   25.6424 O   0  0  0  0  0  0  0  0  0  0  0  0
   10.5014  -16.5509   25.7711 C   0  0  0  0  0  0  0  0  0  0  0  0
   11.5819  -17.1971   24.9034 C   0  0  2  0  0  0  0  0  0  0  0  0
   10.9977  -17.4797   23.6294 N   0  0  0  0  0  0  0  0  0  0  0  0
   11.9591  -18.5023   25.5328 C   0  0  0  0  0  0  0  0  0  0  0  0
   11.6617  -19.5941   25.0118 O   0  0  0  0  0  0  0  0  0  0  0  0
   12.6648  -18.5244   26.7388 O   0  0  0  0  0  0  0  0  0  0  0  0
  2  1  1  0
  3  2  1  0
  3  4  1  1
  5  3  1  0
  5  6  1  6
  7  5  1  0
  7  8  2  0
  9 10  1  0
 10 12  1  0
 11 10  2  0
 13 12  1  6
 14 13  1  0
 14  7  1  0
 15 16  2  0
 15 13  1  0
 17 18  1  0
 19 18  1  1
 19 20  1  0
 19 21  1  0
 20 15  1  0
 21 23  1  0
 22 21  2  0
M  END
$$$$
