INS.pdb
     RDKit          3D

 23 22  0  0  1  0  0  0  0  0999 V2000
    7.5569  -11.6694   19.0730 C   0  0  0  0  0  0  0  0  0  0  0  0
    7.9666  -12.8782   18.2505 C   0  0  0  0  0  0  0  0  0  0  0  0
    8.7358  -13.7984   19.1397 C   0  0  2  0  0  0  0  0  0  0  0  0
    9.9524  -13.1023   19.6902 C   0  0  0  0  0  0  0  0  0  0  0  0
    9.1766  -15.0715   18.4565 C   0  0  2  0  0  0  0  0  0  0  0  0
    8.0585  -15.7677   17.8625 N   0  0  0  0  0  0  0  0  0  0  0  0
    9.8921  -15.9803   19.3748 C   0  0  0  0  0  0  0  0  0  0  0  0
    9.2174  -16.7182   20.1263 O   0  0  0  0  0  0  0  0  0  0  0  0
   13.9490  -19.6885   20.4435 N   0  0  0  0  0  0  0  0  0  0  0  0
   14.1242  -18.2881   20.5194 C   0  0  0  0  0  0  0  0  0  0  0  0
   14.9490  -17.8326   21.3500 O   0  0  0  0  0  0  0  0  0  0  0  0
   13.3907  -17.3380   19.6769 C   0  0  0  0  0  0  0  0  0  0  0  0
   12.0652  -16.9204   20.2414 C   0  0  2  0  0  0  0  0  0  0  0  0
   11.3118  -16.0308   19.4200 N   0  0  0  0  0  0  0  0  0  0  0  0
   12.1953  -16.4179   21.6514 C   0  0  0  0  0  0  0  0  0  0  0  0
   12.8109  -15.3590   21.9439 O   0  0  0  0  0  0  0  0  0  0  0  0
    9.4688  -17.5609   24.2865 O   0  0  0  0  0  0  0  0  0  0  0  0
   10.2394  -16.4445   24.5697 C   0  0  0  0  0  0  0  0  0  0  0  0
   11.6753  -16.7029   24.1120 C   0  0  2  0  0  0  0  0  0  0  0  0
   11.6221  -17.1212   22.7460 N   0  0  0  0  0  0  0  0  0  0  0  0
   12.2179  -17.8421   24.9181 C   0  0  0  0  0  0  0  0  0  0  0  0
   12.4711  -18.9489   24.4054 O   0  0  0  0  0  0  0  0  0  0  0  0
   12.4563  -17.6859   26.2862 O   0  0  0  0  0  0  0  0  0  0  0  0
  2  1  1  0
  3  2  1  0
  3  4  1  6
  5  3  1  0
  5  6  1  1
  7  5  1  0
  7  8  2  0
  9 10  1  0
 10 12  1  0
 11 10  2  0
 13 12  1  6
 14 13  1  0
 14  7  1  0
 15 16  2  0
 15 13  1  0
 17 18  1  0
 19 18  1  1
 19 20  1  0
 19 21  1  0
 20 15  1  0
 21 23  1  0
 22 21  2  0
M  END
$$$$
