INS.pdb
     RDKit          3D

 23 22  0  0  1  0  0  0  0  0999 V2000
    8.2900  -12.5518   21.6072 C   0  0  0  0  0  0  0  0  0  0  0  0
    8.5147  -13.7172   20.6602 C   0  0  0  0  0  0  0  0  0  0  0  0
    9.1494  -13.1834   19.4187 C   0  0  2  0  0  0  0  0  0  0  0  0
    8.2021  -12.2597   18.6995 C   0  0  0  0  0  0  0  0  0  0  0  0
    9.5966  -14.2592   18.4573 C   0  0  2  0  0  0  0  0  0  0  0  0
    8.4882  -15.0831   18.0323 N   0  0  0  0  0  0  0  0  0  0  0  0
   10.6564  -15.1146   19.0285 C   0  0  0  0  0  0  0  0  0  0  0  0
   10.3734  -16.2980   19.3185 O   0  0  0  0  0  0  0  0  0  0  0  0
   15.1294  -13.7187   17.3237 N   0  0  0  0  0  0  0  0  0  0  0  0
   14.7120  -14.8784   18.0154 C   0  0  0  0  0  0  0  0  0  0  0  0
   14.5855  -15.9477   17.3687 O   0  0  0  0  0  0  0  0  0  0  0  0
   14.4179  -14.8971   19.4520 C   0  0  0  0  0  0  0  0  0  0  0  0
   13.0443  -15.3986   19.7862 C   0  0  2  0  0  0  0  0  0  0  0  0
   11.9719  -14.6253   19.2519 N   0  0  0  0  0  0  0  0  0  0  0  0
   12.8865  -15.6455   21.2599 C   0  0  0  0  0  0  0  0  0  0  0  0
   13.1463  -14.7725   22.1293 O   0  0  0  0  0  0  0  0  0  0  0  0
   10.0721  -17.6314   24.2093 O   0  0  0  0  0  0  0  0  0  0  0  0
   10.8777  -18.0460   23.1608 C   0  0  0  0  0  0  0  0  0  0  0  0
   12.1367  -17.1790   23.1288 C   0  0  2  0  0  0  0  0  0  0  0  0
   12.4288  -16.8960   21.7582 N   0  0  0  0  0  0  0  0  0  0  0  0
   13.2687  -17.9898   23.6793 C   0  0  0  0  0  0  0  0  0  0  0  0
   14.1060  -18.5390   22.9382 O   0  0  0  0  0  0  0  0  0  0  0  0
   13.4132  -18.1509   25.0600 O   0  0  0  0  0  0  0  0  0  0  0  0
  2  1  1  0
  3  2  1  0
  3  4  1  6
  5  3  1  0
  5  6  1  1
  7  5  1  0
  7  8  2  0
  9 10  1  0
 10 12  1  0
 11 10  2  0
 13 12  1  1
 14 13  1  0
 14  7  1  0
 15 16  2  0
 15 13  1  0
 17 18  1  0
 19 18  1  6
 19 20  1  0
 19 21  1  0
 20 15  1  0
 21 23  1  0
 22 21  2  0
M  END
$$$$
