INS.pdb
     RDKit          3D

 23 22  0  0  1  0  0  0  0  0999 V2000
    8.2665  -11.7717   19.2713 C   0  0  0  0  0  0  0  0  0  0  0  0
    7.7117  -13.1322   19.6544 C   0  0  0  0  0  0  0  0  0  0  0  0
    8.7106  -13.8021   20.5390 C   0  0  2  0  0  0  0  0  0  0  0  0
   10.0194  -13.9777   19.8151 C   0  0  0  0  0  0  0  0  0  0  0  0
    8.2581  -15.1494   21.0505 C   0  0  2  0  0  0  0  0  0  0  0  0
    6.9167  -15.0893   21.5845 N   0  0  0  0  0  0  0  0  0  0  0  0
    9.1724  -15.6951   22.0739 C   0  0  0  0  0  0  0  0  0  0  0  0
    9.1503  -15.1929   23.2193 O   0  0  0  0  0  0  0  0  0  0  0  0
   12.7092  -18.5093   24.6658 N   0  0  0  0  0  0  0  0  0  0  0  0
   11.7226  -19.2976   24.0312 C   0  0  0  0  0  0  0  0  0  0  0  0
   11.6453  -20.5148   24.3312 O   0  0  0  0  0  0  0  0  0  0  0  0
   10.7831  -18.7664   23.0383 C   0  0  0  0  0  0  0  0  0  0  0  0
   10.9933  -17.3168   22.7151 C   0  0  2  0  0  0  0  0  0  0  0  0
   10.0638  -16.7638   21.7857 N   0  0  0  0  0  0  0  0  0  0  0  0
   12.4178  -17.0347   22.3288 C   0  0  0  0  0  0  0  0  0  0  0  0
   13.3980  -17.3764   23.0415 O   0  0  0  0  0  0  0  0  0  0  0  0
   13.4737  -14.1464   19.4837 O   0  0  0  0  0  0  0  0  0  0  0  0
   13.9374  -15.4354   19.2743 C   0  0  0  0  0  0  0  0  0  0  0  0
   14.0623  -16.1437   20.6236 C   0  0  2  0  0  0  0  0  0  0  0  0
   12.7390  -16.3574   21.1208 N   0  0  0  0  0  0  0  0  0  0  0  0
   14.7611  -15.2157   21.5683 C   0  0  0  0  0  0  0  0  0  0  0  0
   14.2378  -14.8485   22.6374 O   0  0  0  0  0  0  0  0  0  0  0  0
   16.0374  -14.7330   21.2660 O   0  0  0  0  0  0  0  0  0  0  0  0
  2  1  1  0
  3  2  1  0
  3  4  1  6
  5  3  1  0
  5  6  1  1
  7  5  1  0
  7  8  2  0
  9 10  1  0
 10 12  1  0
 11 10  2  0
 13 12  1  6
 14 13  1  0
 14  7  1  0
 15 16  2  0
 15 13  1  0
 17 18  1  0
 19 18  1  6
 19 20  1  0
 19 21  1  0
 20 15  1  0
 21 23  1  0
 22 21  2  0
M  END
$$$$
