INS.pdb
     RDKit          3D

 23 22  0  0  1  0  0  0  0  0999 V2000
    7.4638  -12.0491   19.0994 C   0  0  0  0  0  0  0  0  0  0  0  0
    7.8408  -13.4853   18.7817 C   0  0  0  0  0  0  0  0  0  0  0  0
    8.1386  -14.1770   20.0708 C   0  0  2  0  0  0  0  0  0  0  0  0
    9.2368  -13.4599   20.8107 C   0  0  0  0  0  0  0  0  0  0  0  0
    8.5361  -15.6246   19.9027 C   0  0  2  0  0  0  0  0  0  0  0  0
    7.5946  -16.3388   19.0712 N   0  0  0  0  0  0  0  0  0  0  0  0
    8.6768  -16.3201   21.1980 C   0  0  0  0  0  0  0  0  0  0  0  0
    8.0457  -15.8765   22.1826 O   0  0  0  0  0  0  0  0  0  0  0  0
   13.5127  -18.7171   22.0957 N   0  0  0  0  0  0  0  0  0  0  0  0
   13.0110  -18.0684   20.9446 C   0  0  0  0  0  0  0  0  0  0  0  0
   13.5268  -18.3404   19.8320 O   0  0  0  0  0  0  0  0  0  0  0  0
   11.9175  -17.0921   20.9826 C   0  0  0  0  0  0  0  0  0  0  0  0
   10.8072  -17.4571   21.9228 C   0  0  2  0  0  0  0  0  0  0  0  0
    9.5039  -17.4666   21.3443 N   0  0  0  0  0  0  0  0  0  0  0  0
   10.8609  -16.6466   23.1869 C   0  0  0  0  0  0  0  0  0  0  0  0
   11.7391  -15.7691   23.3976 O   0  0  0  0  0  0  0  0  0  0  0  0
    7.9232  -15.4443   24.5198 O   0  0  0  0  0  0  0  0  0  0  0  0
    8.5911  -15.5278   25.7312 C   0  0  0  0  0  0  0  0  0  0  0  0
    9.9513  -16.1881   25.5040 C   0  0  2  0  0  0  0  0  0  0  0  0
    9.9094  -16.8301   24.2273 N   0  0  0  0  0  0  0  0  0  0  0  0
   10.1274  -17.2506   26.5442 C   0  0  0  0  0  0  0  0  0  0  0  0
   10.1593  -16.9818   27.7602 O   0  0  0  0  0  0  0  0  0  0  0  0
   10.2620  -18.5895   26.1673 O   0  0  0  0  0  0  0  0  0  0  0  0
  2  1  1  0
  3  2  1  0
  3  4  1  6
  5  3  1  0
  5  6  1  6
  7  5  1  0
  7  8  2  0
  9 10  1  0
 10 12  1  0
 11 10  2  0
 13 12  1  6
 14 13  1  0
 14  7  1  0
 15 16  2  0
 15 13  1  0
 17 18  1  0
 19 18  1  1
 19 20  1  0
 19 21  1  0
 20 15  1  0
 21 23  1  0
 22 21  2  0
M  END
$$$$
