INS.pdb
     RDKit          3D

 23 22  0  0  1  0  0  0  0  0999 V2000
    7.3016  -12.0504   19.6641 C   0  0  0  0  0  0  0  0  0  0  0  0
    7.6498  -13.5254   19.5698 C   0  0  0  0  0  0  0  0  0  0  0  0
    7.6934  -14.0757   20.9570 C   0  0  2  0  0  0  0  0  0  0  0  0
    8.7689  -13.3927   21.7599 C   0  0  0  0  0  0  0  0  0  0  0  0
    7.9269  -15.5672   21.0089 C   0  0  2  0  0  0  0  0  0  0  0  0
    6.8992  -16.2889   20.2941 N   0  0  0  0  0  0  0  0  0  0  0  0
    8.0117  -16.0723   22.3941 C   0  0  0  0  0  0  0  0  0  0  0  0
    6.9477  -16.2613   23.0241 O   0  0  0  0  0  0  0  0  0  0  0  0
   11.8407  -17.1817   22.9218 N   0  0  0  0  0  0  0  0  0  0  0  0
   11.3696  -18.1755   23.8094 C   0  0  0  0  0  0  0  0  0  0  0  0
   12.0461  -19.2251   23.9457 O   0  0  0  0  0  0  0  0  0  0  0  0
   10.1291  -18.0442   24.5804 C   0  0  0  0  0  0  0  0  0  0  0  0
    9.4204  -16.7381   24.3763 C   0  0  2  0  0  0  0  0  0  0  0  0
    9.2609  -16.3431   23.0154 N   0  0  0  0  0  0  0  0  0  0  0  0
   10.0162  -15.6454   25.2182 C   0  0  0  0  0  0  0  0  0  0  0  0
   11.0797  -15.0476   24.9067 O   0  0  0  0  0  0  0  0  0  0  0  0
    7.6748  -13.8084   27.6639 O   0  0  0  0  0  0  0  0  0  0  0  0
    8.9337  -13.2292   27.6552 C   0  0  0  0  0  0  0  0  0  0  0  0
    9.9760  -14.3106   27.3684 C   0  0  2  0  0  0  0  0  0  0  0  0
    9.4018  -15.2222   26.4285 N   0  0  0  0  0  0  0  0  0  0  0  0
   10.2235  -15.0610   28.6402 C   0  0  0  0  0  0  0  0  0  0  0  0
   10.6189  -14.4903   29.6744 O   0  0  0  0  0  0  0  0  0  0  0  0
   10.0128  -16.4414   28.6955 O   0  0  0  0  0  0  0  0  0  0  0  0
  2  1  1  0
  3  2  1  0
  3  4  1  1
  5  3  1  0
  5  6  1  1
  7  5  1  0
  7  8  2  0
  9 10  1  0
 10 12  1  0
 11 10  2  0
 13 12  1  6
 14 13  1  0
 14  7  1  0
 15 16  2  0
 15 13  1  0
 17 18  1  0
 19 18  1  1
 19 20  1  0
 19 21  1  0
 20 15  1  0
 21 23  1  0
 22 21  2  0
M  END
$$$$
