INS.pdb
     RDKit          3D

 23 22  0  0  1  0  0  0  0  0999 V2000
    7.1255  -11.8427   19.4180 C   0  0  0  0  0  0  0  0  0  0  0  0
    7.7536  -12.8571   18.4788 C   0  0  0  0  0  0  0  0  0  0  0  0
    8.5181  -13.8365   19.3066 C   0  0  2  0  0  0  0  0  0  0  0  0
    9.6544  -13.1499   20.0175 C   0  0  0  0  0  0  0  0  0  0  0  0
    9.0755  -14.9945   18.5128 C   0  0  2  0  0  0  0  0  0  0  0  0
    8.0348  -15.6924   17.7933 N   0  0  0  0  0  0  0  0  0  0  0  0
    9.8145  -15.9506   19.3619 C   0  0  0  0  0  0  0  0  0  0  0  0
    9.1651  -16.8266   19.9747 O   0  0  0  0  0  0  0  0  0  0  0  0
   15.3768  -18.5535   20.2469 N   0  0  0  0  0  0  0  0  0  0  0  0
   13.9914  -18.2995   20.3629 C   0  0  0  0  0  0  0  0  0  0  0  0
   13.3084  -19.0395   21.1137 O   0  0  0  0  0  0  0  0  0  0  0  0
   13.3090  -17.2147   19.6502 C   0  0  0  0  0  0  0  0  0  0  0  0
   12.0066  -16.8030   20.2701 C   0  0  2  0  0  0  0  0  0  0  0  0
   11.2284  -15.8943   19.4941 N   0  0  0  0  0  0  0  0  0  0  0  0
   12.1896  -16.3292   21.6841 C   0  0  0  0  0  0  0  0  0  0  0  0
   13.0040  -15.4219   21.9993 O   0  0  0  0  0  0  0  0  0  0  0  0
    9.2047  -17.0773   24.1880 O   0  0  0  0  0  0  0  0  0  0  0  0
   10.0699  -16.0466   24.5188 C   0  0  0  0  0  0  0  0  0  0  0  0
   11.4906  -16.4415   24.1142 C   0  0  2  0  0  0  0  0  0  0  0  0
   11.4423  -16.8879   22.7568 N   0  0  0  0  0  0  0  0  0  0  0  0
   11.9055  -17.6032   24.9628 C   0  0  0  0  0  0  0  0  0  0  0  0
   12.0225  -18.7515   24.4943 O   0  0  0  0  0  0  0  0  0  0  0  0
   12.1751  -17.4214   26.3220 O   0  0  0  0  0  0  0  0  0  0  0  0
  2  1  1  0
  3  2  1  0
  3  4  1  6
  5  3  1  0
  5  6  1  1
  7  5  1  0
  7  8  2  0
  9 10  1  0
 10 12  1  0
 11 10  2  0
 13 12  1  6
 14 13  1  0
 14  7  1  0
 15 16  2  0
 15 13  1  0
 17 18  1  0
 19 18  1  1
 19 20  1  0
 19 21  1  0
 20 15  1  0
 21 23  1  0
 22 21  2  0
M  END
$$$$
