INS.pdb
     RDKit          3D

 23 22  0  0  1  0  0  0  0  0999 V2000
    8.1566  -11.8194   20.2357 C   0  0  0  0  0  0  0  0  0  0  0  0
    7.8390  -12.8202   19.1388 C   0  0  0  0  0  0  0  0  0  0  0  0
    8.6624  -14.0419   19.3804 C   0  0  2  0  0  0  0  0  0  0  0  0
   10.1294  -13.7087   19.3137 C   0  0  0  0  0  0  0  0  0  0  0  0
    8.3783  -15.1643   18.4102 C   0  0  2  0  0  0  0  0  0  0  0  0
    6.9628  -15.4399   18.3195 N   0  0  0  0  0  0  0  0  0  0  0  0
    9.1006  -16.4037   18.7617 C   0  0  0  0  0  0  0  0  0  0  0  0
    8.6343  -17.1263   19.6700 O   0  0  0  0  0  0  0  0  0  0  0  0
    8.8282  -19.5190   16.9891 N   0  0  0  0  0  0  0  0  0  0  0  0
   10.0591  -19.1550   16.3976 C   0  0  0  0  0  0  0  0  0  0  0  0
   10.1226  -19.0819   15.1453 O   0  0  0  0  0  0  0  0  0  0  0  0
   11.2682  -18.8582   17.1724 C   0  0  0  0  0  0  0  0  0  0  0  0
   11.0277  -17.9802   18.3646 C   0  0  2  0  0  0  0  0  0  0  0  0
   10.2978  -16.7847   18.0973 N   0  0  0  0  0  0  0  0  0  0  0  0
   12.2972  -17.7125   19.1224 C   0  0  0  0  0  0  0  0  0  0  0  0
   13.0703  -18.6304   19.5036 O   0  0  0  0  0  0  0  0  0  0  0  0
   13.5262  -14.0567   18.9664 O   0  0  0  0  0  0  0  0  0  0  0  0
   14.5139  -14.8424   19.5387 C   0  0  0  0  0  0  0  0  0  0  0  0
   13.8601  -16.0480   20.2147 C   0  0  2  0  0  0  0  0  0  0  0  0
   12.6988  -16.3896   19.4541 N   0  0  0  0  0  0  0  0  0  0  0  0
   13.4057  -15.6225   21.5765 C   0  0  0  0  0  0  0  0  0  0  0  0
   12.2021  -15.6208   21.8976 O   0  0  0  0  0  0  0  0  0  0  0  0
   14.3378  -15.2110   22.5330 O   0  0  0  0  0  0  0  0  0  0  0  0
  2  1  1  0
  3  2  1  0
  3  4  1  6
  5  3  1  0
  5  6  1  1
  7  5  1  0
  7  8  2  0
  9 10  1  0
 10 12  1  0
 11 10  2  0
 13 12  1  6
 14 13  1  0
 14  7  1  0
 15 16  2  0
 15 13  1  0
 17 18  1  0
 19 18  1  6
 19 20  1  0
 19 21  1  0
 20 15  1  0
 21 23  1  0
 22 21  2  0
M  END
$$$$
