INS.pdb
     RDKit          3D

 23 22  0  0  1  0  0  0  0  0999 V2000
    6.5172  -11.4508   26.7630 C   0  0  0  0  0  0  0  0  0  0  0  0
    6.0626  -12.6037   25.8857 C   0  0  0  0  0  0  0  0  0  0  0  0
    7.1363  -13.6410   25.8990 C   0  0  2  0  0  0  0  0  0  0  0  0
    8.4394  -13.0548   25.4237 C   0  0  0  0  0  0  0  0  0  0  0  0
    6.8169  -14.8530   25.0558 C   0  0  2  0  0  0  0  0  0  0  0  0
    5.5900  -15.4859   25.4824 N   0  0  0  0  0  0  0  0  0  0  0  0
    7.9118  -15.8441   25.0635 C   0  0  0  0  0  0  0  0  0  0  0  0
    7.8692  -16.7705   25.9029 O   0  0  0  0  0  0  0  0  0  0  0  0
   10.4563  -15.3804   20.6924 N   0  0  0  0  0  0  0  0  0  0  0  0
   10.2998  -16.4635   21.5868 C   0  0  0  0  0  0  0  0  0  0  0  0
    9.5456  -17.4108   21.2530 O   0  0  0  0  0  0  0  0  0  0  0  0
   10.9737  -16.5379   22.8871 C   0  0  0  0  0  0  0  0  0  0  0  0
   10.0415  -16.7309   24.0463 C   0  0  2  0  0  0  0  0  0  0  0  0
    8.9969  -15.7656   24.1490 N   0  0  0  0  0  0  0  0  0  0  0  0
   10.7895  -16.8971   25.3388 C   0  0  0  0  0  0  0  0  0  0  0  0
   11.3549  -15.9384   25.9277 O   0  0  0  0  0  0  0  0  0  0  0  0
    9.5406  -18.9070   28.2858 O   0  0  0  0  0  0  0  0  0  0  0  0
   10.7825  -19.4438   27.9858 C   0  0  0  0  0  0  0  0  0  0  0  0
   11.5930  -18.4121   27.2004 C   0  0  2  0  0  0  0  0  0  0  0  0
   10.9000  -18.1639   25.9748 N   0  0  0  0  0  0  0  0  0  0  0  0
   12.9157  -19.0264   26.8612 C   0  0  0  0  0  0  0  0  0  0  0  0
   13.2521  -19.2553   25.6838 O   0  0  0  0  0  0  0  0  0  0  0  0
   13.8169  -19.3621   27.8752 O   0  0  0  0  0  0  0  0  0  0  0  0
  2  1  1  0
  3  2  1  0
  3  4  1  6
  5  3  1  0
  5  6  1  1
  7  5  1  0
  7  8  2  0
  9 10  1  0
 10 12  1  0
 11 10  2  0
 13 12  1  6
 14 13  1  0
 14  7  1  0
 15 16  2  0
 15 13  1  0
 17 18  1  0
 19 18  1  1
 19 20  1  0
 19 21  1  0
 20 15  1  0
 21 23  1  0
 22 21  2  0
M  END
$$$$
