DRN.pdb
     RDKit          3D

 28 27  0  0  1  0  0  0  0  0999 V2000
   21.9181  -20.7864  -15.1167 N   0  0  0  0  0  0  0  0  0  0  0  0
   21.5352  -19.4760  -14.5887 C   0  0  1  0  0  0  0  0  0  0  0  0
   20.9049  -19.7251  -13.2507 C   0  0  0  0  0  0  0  0  0  0  0  0
   19.6530  -20.5315  -13.3875 C   0  0  0  0  0  0  0  0  0  0  0  0
   19.2216  -20.8753  -14.5128 O   0  0  0  0  0  0  0  0  0  0  0  0
   22.6795  -18.5716  -14.5614 C   0  0  0  0  0  0  0  0  0  0  0  0
   22.6070  -17.5338  -13.8258 O   0  0  0  0  0  0  0  0  0  0  0  0
   18.9601  -20.9014  -12.2491 O   0  0  0  0  0  0  0  0  0  0  0  0
   29.6243  -22.1446  -15.7288 N   0  0  0  0  0  0  0  0  0  0  0  0
   28.2688  -22.0912  -16.1554 C   0  0  0  0  0  0  0  0  0  0  0  0
   27.7952  -22.9272  -17.0293 N   0  0  0  0  0  0  0  0  0  0  0  0
   27.3488  -21.1289  -15.6527 N   0  0  0  0  0  0  0  0  0  0  0  0
   27.7811  -20.1728  -14.6666 C   0  0  0  0  0  0  0  0  0  0  0  0
   26.6499  -19.2199  -14.2699 C   0  0  0  0  0  0  0  0  0  0  0  0
   26.2542  -18.5261  -15.5381 C   0  0  0  0  0  0  0  0  0  0  0  0
   24.9554  -17.8380  -15.3986 C   0  0  2  0  0  0  0  0  0  0  0  0
   23.8533  -18.7919  -15.3042 N   0  0  0  0  0  0  0  0  0  0  0  0
   24.6753  -16.9334  -16.5170 C   0  0  0  0  0  0  0  0  0  0  0  0
   23.8932  -17.3133  -17.4472 O   0  0  0  0  0  0  0  0  0  0  0  0
   26.8249  -22.9496  -17.3643 N   0  0  0  0  0  0  0  0  0  0  0  0
   21.5057  -12.6170  -17.3687 C   0  0  0  0  0  0  0  0  0  0  0  0
   22.4481  -13.4995  -17.9667 O   0  0  0  0  0  0  0  0  0  0  0  0
   22.7169  -13.4091  -19.1754 C   0  0  0  0  0  0  0  0  0  0  0  0
   23.0855  -14.5146  -17.1028 C   0  0  2  0  0  0  0  0  0  0  0  0
   24.5606  -14.6549  -17.4431 N   0  0  0  0  0  0  0  0  0  0  0  0
   25.2407  -15.6272  -16.6224 C   0  0  0  0  0  0  0  0  0  0  0  0
   25.1969  -13.3433  -17.2992 O   0  0  0  0  0  0  0  0  0  0  0  0
   24.9783  -12.3087  -18.2046 O   0  0  0  0  0  0  0  0  0  0  0  0
  2  1  1  1
  2  3  1  0
  3  4  1  0
  4  8  1  0
  5  4  2  0
  6  2  1  0
  6  7  2  0
  9 10  1  0
 10 12  1  0
 10 11  2  0
 12 13  1  0
 13 14  1  0
 16 15  1  6
 15 14  1  0
 16 17  1  0
 17  6  1  0
 18 16  1  0
 19 18  2  0
 20 21  1  0
 21 22  2  0
 21 23  1  0
 24 23  1  6
 24 26  1  0
 24 25  1  0
 25 18  1  0
 26 27  1  0
 28 26  2  0
M  END
$$$$
