DRN.pdb
     RDKit          3D

 28 27  0  0  1  0  0  0  0  0999 V2000
   27.1297  -13.4605  -17.0108 N   0  0  0  0  0  0  0  0  0  0  0  0
   25.7073  -13.5261  -17.3493 C   0  0  1  0  0  0  0  0  0  0  0  0
   25.2961  -14.9586  -17.1797 C   0  0  0  0  0  0  0  0  0  0  0  0
   26.0458  -15.8483  -18.1192 C   0  0  0  0  0  0  0  0  0  0  0  0
   26.0597  -15.6259  -19.3525 O   0  0  0  0  0  0  0  0  0  0  0  0
   24.9386  -12.5760  -16.5528 C   0  0  0  0  0  0  0  0  0  0  0  0
   25.1962  -12.4894  -15.3079 O   0  0  0  0  0  0  0  0  0  0  0  0
   26.7339  -16.9367  -17.6145 O   0  0  0  0  0  0  0  0  0  0  0  0
   23.6456   -4.2685  -17.1231 N   0  0  0  0  0  0  0  0  0  0  0  0
   22.7419   -4.6163  -16.0817 C   0  0  0  0  0  0  0  0  0  0  0  0
   22.0997   -3.7123  -15.4055 N   0  0  0  0  0  0  0  0  0  0  0  0
   22.4804   -5.9673  -15.7188 N   0  0  0  0  0  0  0  0  0  0  0  0
   23.2224   -7.0320  -16.3427 C   0  0  0  0  0  0  0  0  0  0  0  0
   22.6081   -8.4015  -16.0394 C   0  0  0  0  0  0  0  0  0  0  0  0
   23.5232   -9.3973  -16.6855 C   0  0  0  0  0  0  0  0  0  0  0  0
   23.1649  -10.7819  -16.3194 C   0  0  2  0  0  0  0  0  0  0  0  0
   23.9329  -11.7544  -17.0928 N   0  0  0  0  0  0  0  0  0  0  0  0
   21.7417  -11.0668  -16.5216 C   0  0  0  0  0  0  0  0  0  0  0  0
   21.2971  -11.2201  -17.7049 O   0  0  0  0  0  0  0  0  0  0  0  0
   21.4269   -3.9001  -14.6530 N   0  0  0  0  0  0  0  0  0  0  0  0
   16.9306  -12.1907  -16.3976 C   0  0  0  0  0  0  0  0  0  0  0  0
   17.3267  -12.5450  -15.0777 O   0  0  0  0  0  0  0  0  0  0  0  0
   16.5333  -13.1190  -14.3146 C   0  0  0  0  0  0  0  0  0  0  0  0
   18.7021  -12.2066  -14.6572 C   0  0  2  0  0  0  0  0  0  0  0  0
   19.4326  -11.4666  -15.7664 N   0  0  0  0  0  0  0  0  0  0  0  0
   20.8106  -11.1840  -15.4462 C   0  0  0  0  0  0  0  0  0  0  0  0
   18.7154  -10.2194  -16.0427 O   0  0  0  0  0  0  0  0  0  0  0  0
   17.6565  -10.1559  -16.9442 O   0  0  0  0  0  0  0  0  0  0  0  0
  2  1  1  1
  2  3  1  0
  3  4  1  0
  4  8  1  0
  5  4  2  0
  6  2  1  0
  6  7  2  0
  9 10  1  0
 10 12  1  0
 10 11  2  0
 12 13  1  0
 13 14  1  0
 16 15  1  6
 15 14  1  0
 16 17  1  0
 17  6  1  0
 18 16  1  0
 19 18  2  0
 20 21  1  0
 21 22  2  0
 21 23  1  0
 24 23  1  6
 24 26  1  0
 24 25  1  0
 25 18  1  0
 26 27  1  0
 28 26  2  0
M  END
$$$$
