DRN.pdb
     RDKit          3D

 28 27  0  0  1  0  0  0  0  0999 V2000
   19.3428  -24.7726  -12.7071 N   0  0  0  0  0  0  0  0  0  0  0  0
   18.9305  -23.5854  -11.9568 C   0  0  1  0  0  0  0  0  0  0  0  0
   19.2752  -23.8497  -10.5212 C   0  0  0  0  0  0  0  0  0  0  0  0
   18.3744  -24.8890   -9.9341 C   0  0  0  0  0  0  0  0  0  0  0  0
   17.3919  -25.3330  -10.5732 O   0  0  0  0  0  0  0  0  0  0  0  0
   19.5363  -22.3812  -12.5145 C   0  0  0  0  0  0  0  0  0  0  0  0
   19.3060  -21.2699  -11.9353 O   0  0  0  0  0  0  0  0  0  0  0  0
   18.6322  -25.3655   -8.6616 O   0  0  0  0  0  0  0  0  0  0  0  0
   25.7053  -23.9168  -13.9178 N   0  0  0  0  0  0  0  0  0  0  0  0
   25.0627  -23.9385  -15.1862 C   0  0  0  0  0  0  0  0  0  0  0  0
   24.8997  -25.0431  -15.8497 N   0  0  0  0  0  0  0  0  0  0  0  0
   24.5557  -22.7611  -15.8041 N   0  0  0  0  0  0  0  0  0  0  0  0
   24.6550  -21.4963  -15.1230 C   0  0  0  0  0  0  0  0  0  0  0  0
   23.4951  -21.2891  -14.1448 C   0  0  0  0  0  0  0  0  0  0  0  0
   22.2549  -21.5787  -14.9349 C   0  0  0  0  0  0  0  0  0  0  0  0
   21.0361  -21.2104  -14.1874 C   0  0  2  0  0  0  0  0  0  0  0  0
   20.3596  -22.3903  -13.6547 N   0  0  0  0  0  0  0  0  0  0  0  0
   20.0742  -20.4710  -15.0094 C   0  0  0  0  0  0  0  0  0  0  0  0
   19.3276  -21.1067  -15.8217 O   0  0  0  0  0  0  0  0  0  0  0  0
   24.5388  -25.1121  -16.8084 N   0  0  0  0  0  0  0  0  0  0  0  0
   17.1400  -17.1895  -17.3519 C   0  0  0  0  0  0  0  0  0  0  0  0
   16.9957  -16.9262  -15.9610 O   0  0  0  0  0  0  0  0  0  0  0  0
   16.0615  -16.2212  -15.5469 C   0  0  0  0  0  0  0  0  0  0  0  0
   17.9894  -17.5179  -15.0415 C   0  0  2  0  0  0  0  0  0  0  0  0
   18.9377  -18.4342  -15.7982 N   0  0  0  0  0  0  0  0  0  0  0  0
   19.9257  -19.0528  -14.9481 C   0  0  0  0  0  0  0  0  0  0  0  0
   19.5968  -17.6545  -16.8487 O   0  0  0  0  0  0  0  0  0  0  0  0
   18.9146  -17.1977  -17.9730 O   0  0  0  0  0  0  0  0  0  0  0  0
  2  1  1  6
  2  3  1  0
  3  4  1  0
  4  8  1  0
  5  4  2  0
  6  2  1  0
  6  7  2  0
  9 10  1  0
 10 12  1  0
 10 11  2  0
 12 13  1  0
 13 14  1  0
 16 15  1  6
 15 14  1  0
 16 17  1  0
 17  6  1  0
 18 16  1  0
 19 18  2  0
 20 21  1  0
 21 22  2  0
 21 23  1  0
 24 23  1  1
 24 26  1  0
 24 25  1  0
 25 18  1  0
 26 27  1  0
 28 26  2  0
M  END
$$$$
