DRN.pdb
     RDKit          3D

 28 27  0  0  1  0  0  0  0  0999 V2000
   16.5650  -24.3108   -5.4638 N   0  0  0  0  0  0  0  0  0  0  0  0
   17.6928  -24.9631   -6.1307 C   0  0  1  0  0  0  0  0  0  0  0  0
   17.8337  -26.3168   -5.5002 C   0  0  0  0  0  0  0  0  0  0  0  0
   18.2630  -26.2031   -4.0723 C   0  0  0  0  0  0  0  0  0  0  0  0
   17.7138  -26.8815   -3.1730 O   0  0  0  0  0  0  0  0  0  0  0  0
   17.5006  -24.9843   -7.5767 C   0  0  0  0  0  0  0  0  0  0  0  0
   16.3290  -25.2110   -8.0233 O   0  0  0  0  0  0  0  0  0  0  0  0
   19.2843  -25.3310   -3.7415 O   0  0  0  0  0  0  0  0  0  0  0  0
   22.3646  -21.1403  -13.6481 N   0  0  0  0  0  0  0  0  0  0  0  0
   21.1817  -20.7240  -12.9776 C   0  0  0  0  0  0  0  0  0  0  0  0
   20.8593  -19.4697  -12.8783 N   0  0  0  0  0  0  0  0  0  0  0  0
   20.2783  -21.6476  -12.3809 N   0  0  0  0  0  0  0  0  0  0  0  0
   20.4565  -23.0607  -12.5924 C   0  0  0  0  0  0  0  0  0  0  0  0
   19.2601  -23.8644  -12.0751 C   0  0  0  0  0  0  0  0  0  0  0  0
   19.4681  -23.9750  -10.5950 C   0  0  0  0  0  0  0  0  0  0  0  0
   18.3597  -24.7003   -9.9432 C   0  0  2  0  0  0  0  0  0  0  0  0
   18.5428  -24.7659   -8.4955 N   0  0  0  0  0  0  0  0  0  0  0  0
   18.2138  -26.0704  -10.4423 C   0  0  0  0  0  0  0  0  0  0  0  0
   19.0313  -26.9668  -10.0557 O   0  0  0  0  0  0  0  0  0  0  0  0
   20.0352  -19.1057  -12.3858 N   0  0  0  0  0  0  0  0  0  0  0  0
   16.7344  -30.6701  -11.6141 C   0  0  0  0  0  0  0  0  0  0  0  0
   15.7182  -29.8297  -12.1487 O   0  0  0  0  0  0  0  0  0  0  0  0
   14.8691  -30.2872  -12.9304 C   0  0  0  0  0  0  0  0  0  0  0  0
   15.7142  -28.4095  -11.7415 C   0  0  1  0  0  0  0  0  0  0  0  0
   17.1261  -27.8459  -11.7565 N   0  0  0  0  0  0  0  0  0  0  0  0
   17.1875  -26.4619  -11.3537 C   0  0  0  0  0  0  0  0  0  0  0  0
   17.6732  -28.0005  -13.1067 O   0  0  0  0  0  0  0  0  0  0  0  0
   18.0271  -26.9083  -13.8940 O   0  0  0  0  0  0  0  0  0  0  0  0
  2  1  1  1
  2  3  1  0
  3  4  1  0
  4  8  1  0
  5  4  2  0
  6  2  1  0
  6  7  2  0
  9 10  1  0
 10 12  1  0
 10 11  2  0
 12 13  1  0
 13 14  1  0
 16 15  1  6
 15 14  1  0
 16 17  1  0
 17  6  1  0
 18 16  1  0
 19 18  2  0
 20 21  1  0
 21 22  2  0
 21 23  1  0
 24 23  1  1
 24 26  1  0
 24 25  1  0
 25 18  1  0
 26 27  1  0
 28 26  2  0
M  END
$$$$
