DRN.pdb
     RDKit          3D

 28 27  0  0  1  0  0  0  0  0999 V2000
   18.7871  -24.0423   -8.2103 N   0  0  0  0  0  0  0  0  0  0  0  0
   18.8571  -24.2371   -9.6592 C   0  0  1  0  0  0  0  0  0  0  0  0
   17.4823  -24.6441  -10.0998 C   0  0  0  0  0  0  0  0  0  0  0  0
   17.2790  -26.1166   -9.9367 C   0  0  0  0  0  0  0  0  0  0  0  0
   18.2499  -26.9090   -9.9256 O   0  0  0  0  0  0  0  0  0  0  0  0
   19.3778  -23.0452  -10.3198 C   0  0  0  0  0  0  0  0  0  0  0  0
   18.9130  -21.9123   -9.9678 O   0  0  0  0  0  0  0  0  0  0  0  0
   15.9944  -26.6098   -9.7976 O   0  0  0  0  0  0  0  0  0  0  0  0
   26.4953  -21.8381  -15.5144 N   0  0  0  0  0  0  0  0  0  0  0  0
   26.1946  -20.5865  -14.9099 C   0  0  0  0  0  0  0  0  0  0  0  0
   27.0475  -19.6070  -14.9087 N   0  0  0  0  0  0  0  0  0  0  0  0
   24.9472  -20.3260  -14.2763 N   0  0  0  0  0  0  0  0  0  0  0  0
   24.2787  -21.3769  -13.5538 C   0  0  0  0  0  0  0  0  0  0  0  0
   22.9332  -20.9086  -12.9922 C   0  0  0  0  0  0  0  0  0  0  0  0
   22.3576  -22.1043  -12.2956 C   0  0  0  0  0  0  0  0  0  0  0  0
   20.9325  -21.9067  -11.9647 C   0  0  2  0  0  0  0  0  0  0  0  0
   20.3650  -23.0885  -11.3207 N   0  0  0  0  0  0  0  0  0  0  0  0
   20.1185  -21.6006  -13.1443 C   0  0  0  0  0  0  0  0  0  0  0  0
   19.7552  -22.5465  -13.9154 O   0  0  0  0  0  0  0  0  0  0  0  0
   26.8718  -18.6673  -14.5343 N   0  0  0  0  0  0  0  0  0  0  0  0
   16.1616  -20.1917  -16.1207 C   0  0  0  0  0  0  0  0  0  0  0  0
   16.8872  -19.0600  -15.6546 O   0  0  0  0  0  0  0  0  0  0  0  0
   16.8495  -17.9871  -16.2781 C   0  0  0  0  0  0  0  0  0  0  0  0
   17.6770  -19.2110  -14.4151 C   0  0  1  0  0  0  0  0  0  0  0  0
   18.8869  -20.0991  -14.6579 N   0  0  0  0  0  0  0  0  0  0  0  0
   19.7032  -20.2774  -13.4818 C   0  0  0  0  0  0  0  0  0  0  0  0
   19.6838  -19.5125  -15.7380 O   0  0  0  0  0  0  0  0  0  0  0  0
   19.5544  -19.9211  -17.0625 O   0  0  0  0  0  0  0  0  0  0  0  0
  2  1  1  1
  2  3  1  0
  3  4  1  0
  4  8  1  0
  5  4  2  0
  6  2  1  0
  6  7  2  0
  9 10  1  0
 10 12  1  0
 10 11  2  0
 12 13  1  0
 13 14  1  0
 16 15  1  6
 15 14  1  0
 16 17  1  0
 17  6  1  0
 18 16  1  0
 19 18  2  0
 20 21  1  0
 21 22  2  0
 21 23  1  0
 24 23  1  1
 24 26  1  0
 24 25  1  0
 25 18  1  0
 26 27  1  0
 28 26  2  0
M  END
$$$$
