DRN.pdb
     RDKit          3D

 28 27  0  0  1  0  0  0  0  0999 V2000
   16.0599  -11.9108  -15.0293 N   0  0  0  0  0  0  0  0  0  0  0  0
   17.2215  -11.4120  -14.2917 C   0  0  1  0  0  0  0  0  0  0  0  0
   18.4064  -11.5920  -15.1935 C   0  0  0  0  0  0  0  0  0  0  0  0
   18.6923  -13.0417  -15.4233 C   0  0  0  0  0  0  0  0  0  0  0  0
   18.9092  -13.8207  -14.4658 O   0  0  0  0  0  0  0  0  0  0  0  0
   17.0034  -10.0411  -13.8429 C   0  0  0  0  0  0  0  0  0  0  0  0
   16.4051   -9.2392  -14.6319 O   0  0  0  0  0  0  0  0  0  0  0  0
   18.7186  -13.5280  -16.7178 O   0  0  0  0  0  0  0  0  0  0  0  0
   14.1231   -6.7033   -6.6391 N   0  0  0  0  0  0  0  0  0  0  0  0
   13.7550   -7.2985   -7.8770 C   0  0  0  0  0  0  0  0  0  0  0  0
   12.6552   -7.9771   -8.0073 N   0  0  0  0  0  0  0  0  0  0  0  0
   14.5589   -7.1862   -9.0458 N   0  0  0  0  0  0  0  0  0  0  0  0
   15.9340   -6.7744   -8.9314 C   0  0  0  0  0  0  0  0  0  0  0  0
   16.6142   -6.6907  -10.3009 C   0  0  0  0  0  0  0  0  0  0  0  0
   16.7248   -8.1082  -10.7748 C   0  0  0  0  0  0  0  0  0  0  0  0
   17.2751   -8.1824  -12.1428 C   0  0  2  0  0  0  0  0  0  0  0  0
   17.4193   -9.5668  -12.5859 N   0  0  0  0  0  0  0  0  0  0  0  0
   18.5834   -7.5325  -12.2587 C   0  0  0  0  0  0  0  0  0  0  0  0
   19.5431   -7.9234  -11.5187 O   0  0  0  0  0  0  0  0  0  0  0  0
   12.2990   -8.3669   -8.8878 N   0  0  0  0  0  0  0  0  0  0  0  0
   22.6866   -5.0110  -13.5148 C   0  0  0  0  0  0  0  0  0  0  0  0
   22.2729   -5.8503  -14.5868 O   0  0  0  0  0  0  0  0  0  0  0  0
   23.0338   -6.0730  -15.5421 C   0  0  0  0  0  0  0  0  0  0  0  0
   20.9192   -6.4382  -14.5182 C   0  0  1  0  0  0  0  0  0  0  0  0
   20.1959   -5.9681  -13.2662 N   0  0  0  0  0  0  0  0  0  0  0  0
   18.8455   -6.4672  -13.1717 C   0  0  0  0  0  0  0  0  0  0  0  0
   20.1917   -4.5033  -13.2551 O   0  0  0  0  0  0  0  0  0  0  0  0
   21.3438   -3.7592  -13.0163 O   0  0  0  0  0  0  0  0  0  0  0  0
  2  1  1  6
  2  3  1  0
  3  4  1  0
  4  8  1  0
  5  4  2  0
  6  2  1  0
  6  7  2  0
  9 10  1  0
 10 12  1  0
 10 11  2  0
 12 13  1  0
 13 14  1  0
 16 15  1  1
 15 14  1  0
 16 17  1  0
 17  6  1  0
 18 16  1  0
 19 18  2  0
 20 21  1  0
 21 22  2  0
 21 23  1  0
 24 23  1  1
 24 26  1  0
 24 25  1  0
 25 18  1  0
 26 27  1  0
 28 26  2  0
M  END
$$$$
