DRN.pdb
     RDKit          3D

 28 27  0  0  1  0  0  0  0  0999 V2000
   16.2103  -17.9608    3.4024 N   0  0  0  0  0  0  0  0  0  0  0  0
   16.4459  -18.1590    4.8333 C   0  0  1  0  0  0  0  0  0  0  0  0
   16.3178  -19.6321    5.0846 C   0  0  0  0  0  0  0  0  0  0  0  0
   14.9021  -20.0047    5.3897 C   0  0  0  0  0  0  0  0  0  0  0  0
   14.0238  -19.1286    5.5676 O   0  0  0  0  0  0  0  0  0  0  0  0
   17.7253  -17.5840    5.2344 C   0  0  0  0  0  0  0  0  0  0  0  0
   18.6884  -17.6225    4.4010 O   0  0  0  0  0  0  0  0  0  0  0  0
   14.5597  -21.3418    5.4781 O   0  0  0  0  0  0  0  0  0  0  0  0
   19.8326   -9.8076    7.5805 N   0  0  0  0  0  0  0  0  0  0  0  0
   21.0752  -10.4932    7.6712 C   0  0  0  0  0  0  0  0  0  0  0  0
   22.2003   -9.8541    7.7843 N   0  0  0  0  0  0  0  0  0  0  0  0
   21.1658  -11.9132    7.6492 N   0  0  0  0  0  0  0  0  0  0  0  0
   20.0099  -12.6984    7.3019 C   0  0  0  0  0  0  0  0  0  0  0  0
   20.3101  -14.1991    7.3545 C   0  0  0  0  0  0  0  0  0  0  0  0
   19.0325  -14.8723    6.9533 C   0  0  0  0  0  0  0  0  0  0  0  0
   19.1892  -16.3388    6.8852 C   0  0  2  0  0  0  0  0  0  0  0  0
   17.9431  -16.9911    6.4910 N   0  0  0  0  0  0  0  0  0  0  0  0
   19.6183  -16.9184    8.1610 C   0  0  0  0  0  0  0  0  0  0  0  0
   18.7953  -16.9723    9.1311 O   0  0  0  0  0  0  0  0  0  0  0  0
   23.1273  -10.2908    7.8469 N   0  0  0  0  0  0  0  0  0  0  0  0
   21.0145  -21.3811    8.5686 C   0  0  0  0  0  0  0  0  0  0  0  0
   20.9165  -20.4069    9.6010 O   0  0  0  0  0  0  0  0  0  0  0  0
   20.0103  -20.4745   10.4469 C   0  0  0  0  0  0  0  0  0  0  0  0
   21.9233  -19.3259    9.6255 C   0  0  2  0  0  0  0  0  0  0  0  0
   21.2453  -17.9663    9.6832 N   0  0  0  0  0  0  0  0  0  0  0  0
   20.9308  -17.4349    8.3793 C   0  0  0  0  0  0  0  0  0  0  0  0
   22.1222  -17.0406   10.4044 O   0  0  0  0  0  0  0  0  0  0  0  0
   22.5258  -17.2704   11.7168 O   0  0  0  0  0  0  0  0  0  0  0  0
  2  1  1  6
  2  3  1  0
  3  4  1  0
  4  8  1  0
  5  4  2  0
  6  2  1  0
  6  7  2  0
  9 10  1  0
 10 12  1  0
 10 11  2  0
 12 13  1  0
 13 14  1  0
 16 15  1  1
 15 14  1  0
 16 17  1  0
 17  6  1  0
 18 16  1  0
 19 18  2  0
 20 21  1  0
 21 22  2  0
 21 23  1  0
 24 23  1  1
 24 26  1  0
 24 25  1  0
 25 18  1  0
 26 27  1  0
 28 26  2  0
M  END
$$$$
