DRN.pdb
     RDKit          3D

 28 27  0  0  1  0  0  0  0  0999 V2000
   15.4228  -11.4559  -15.1353 N   0  0  0  0  0  0  0  0  0  0  0  0
   16.2299  -11.4898  -13.9148 C   0  0  1  0  0  0  0  0  0  0  0  0
   17.6356  -11.7896  -14.3436 C   0  0  0  0  0  0  0  0  0  0  0  0
   17.7835  -13.2248  -14.7367 C   0  0  0  0  0  0  0  0  0  0  0  0
   17.0558  -14.1138  -14.2359 O   0  0  0  0  0  0  0  0  0  0  0  0
   16.0778  -10.2531  -13.1560 C   0  0  0  0  0  0  0  0  0  0  0  0
   16.0938   -9.1509  -13.7949 O   0  0  0  0  0  0  0  0  0  0  0  0
   18.7434  -13.5741  -15.6692 O   0  0  0  0  0  0  0  0  0  0  0  0
   10.5180   -9.2923   -6.7790 N   0  0  0  0  0  0  0  0  0  0  0  0
   10.6000   -8.0430   -7.4532 C   0  0  0  0  0  0  0  0  0  0  0  0
    9.8044   -7.0580   -7.1638 N   0  0  0  0  0  0  0  0  0  0  0  0
   11.5551   -7.7908   -8.4776 N   0  0  0  0  0  0  0  0  0  0  0  0
   12.6026   -8.7460   -8.7298 C   0  0  0  0  0  0  0  0  0  0  0  0
   13.5437   -8.2718   -9.8410 C   0  0  0  0  0  0  0  0  0  0  0  0
   14.6197   -9.3122   -9.9188 C   0  0  0  0  0  0  0  0  0  0  0  0
   15.5819   -9.0191  -10.9995 C   0  0  2  0  0  0  0  0  0  0  0  0
   15.9137  -10.2216  -11.7595 N   0  0  0  0  0  0  0  0  0  0  0  0
   16.8323   -8.4424  -10.4981 C   0  0  0  0  0  0  0  0  0  0  0  0
   17.5553   -9.1184   -9.6972 O   0  0  0  0  0  0  0  0  0  0  0  0
    9.8468   -6.1193   -7.5775 N   0  0  0  0  0  0  0  0  0  0  0  0
   20.9701   -5.8860   -9.4787 C   0  0  0  0  0  0  0  0  0  0  0  0
   20.8495   -5.9294  -10.8958 O   0  0  0  0  0  0  0  0  0  0  0  0
   21.7798   -5.5391  -11.6194 C   0  0  0  0  0  0  0  0  0  0  0  0
   19.5893   -6.4507  -11.4641 C   0  0  1  0  0  0  0  0  0  0  0  0
   18.5724   -6.7058  -10.3630 N   0  0  0  0  0  0  0  0  0  0  0  0
   17.2921   -7.1419  -10.8649 C   0  0  0  0  0  0  0  0  0  0  0  0
   18.4136   -5.4754   -9.5840 O   0  0  0  0  0  0  0  0  0  0  0  0
   19.2028   -5.1933   -8.4724 O   0  0  0  0  0  0  0  0  0  0  0  0
  2  1  1  6
  2  3  1  0
  3  4  1  0
  4  8  1  0
  5  4  2  0
  6  2  1  0
  6  7  2  0
  9 10  1  0
 10 12  1  0
 10 11  2  0
 12 13  1  0
 13 14  1  0
 16 15  1  1
 15 14  1  0
 16 17  1  0
 17  6  1  0
 18 16  1  0
 19 18  2  0
 20 21  1  0
 21 22  2  0
 21 23  1  0
 24 23  1  1
 24 26  1  0
 24 25  1  0
 25 18  1  0
 26 27  1  0
 28 26  2  0
M  END
$$$$
