DRN.pdb
     RDKit          3D

 28 27  0  0  1  0  0  0  0  0999 V2000
   18.3296  -11.8466  -16.5111 N   0  0  0  0  0  0  0  0  0  0  0  0
   19.2122  -11.2742  -15.4935 C   0  0  1  0  0  0  0  0  0  0  0  0
   20.5536  -11.1030  -16.1425 C   0  0  0  0  0  0  0  0  0  0  0  0
   21.1458  -12.4258  -16.5106 C   0  0  0  0  0  0  0  0  0  0  0  0
   20.9796  -13.4358  -15.7874 O   0  0  0  0  0  0  0  0  0  0  0  0
   18.6443  -10.0488  -14.9420 C   0  0  0  0  0  0  0  0  0  0  0  0
   17.8832   -9.3509  -15.6884 O   0  0  0  0  0  0  0  0  0  0  0  0
   21.8916  -12.5326  -17.6705 O   0  0  0  0  0  0  0  0  0  0  0  0
   14.2632   -8.8137   -7.8442 N   0  0  0  0  0  0  0  0  0  0  0  0
   13.8078   -8.2408   -9.0635 C   0  0  0  0  0  0  0  0  0  0  0  0
   12.5473   -8.0183   -9.2838 N   0  0  0  0  0  0  0  0  0  0  0  0
   14.6971   -7.8721  -10.1116 N   0  0  0  0  0  0  0  0  0  0  0  0
   16.1056   -8.1421   -9.9827 C   0  0  0  0  0  0  0  0  0  0  0  0
   16.8980   -7.5857  -11.1691 C   0  0  0  0  0  0  0  0  0  0  0  0
   17.6389   -8.7592  -11.7350 C   0  0  0  0  0  0  0  0  0  0  0  0
   18.2703   -8.4308  -13.0286 C   0  0  2  0  0  0  0  0  0  0  0  0
   18.8954   -9.6055  -13.6310 N   0  0  0  0  0  0  0  0  0  0  0  0
   19.2925   -7.3879  -12.9067 C   0  0  0  0  0  0  0  0  0  0  0  0
   20.2386   -7.5352  -12.0673 O   0  0  0  0  0  0  0  0  0  0  0  0
   12.1604   -7.5809  -10.1282 N   0  0  0  0  0  0  0  0  0  0  0  0
   22.2511   -3.3556  -13.3726 C   0  0  0  0  0  0  0  0  0  0  0  0
   22.3298   -4.1629  -14.5416 O   0  0  0  0  0  0  0  0  0  0  0  0
   23.2342   -3.9818  -15.3725 C   0  0  0  0  0  0  0  0  0  0  0  0
   21.3053   -5.2117  -14.7244 C   0  0  1  0  0  0  0  0  0  0  0  0
   20.3746   -5.2639  -13.5234 N   0  0  0  0  0  0  0  0  0  0  0  0
   19.2858   -6.1955  -13.6911 C   0  0  0  0  0  0  0  0  0  0  0  0
   19.8506   -3.9171  -13.2835 O   0  0  0  0  0  0  0  0  0  0  0  0
   18.4963   -3.6160  -13.3984 O   0  0  0  0  0  0  0  0  0  0  0  0
  2  1  1  6
  2  3  1  0
  3  4  1  0
  4  8  1  0
  5  4  2  0
  6  2  1  0
  6  7  2  0
  9 10  1  0
 10 12  1  0
 10 11  2  0
 12 13  1  0
 13 14  1  0
 16 15  1  1
 15 14  1  0
 16 17  1  0
 17  6  1  0
 18 16  1  0
 19 18  2  0
 20 21  1  0
 21 22  2  0
 21 23  1  0
 24 23  1  1
 24 26  1  0
 24 25  1  0
 25 18  1  0
 26 27  1  0
 28 26  2  0
M  END
$$$$
