DRN.pdb
     RDKit          3D

 28 27  0  0  1  0  0  0  0  0999 V2000
   27.3093  -23.4655  -16.8070 N   0  0  0  0  0  0  0  0  0  0  0  0
   26.9903  -22.1415  -16.2709 C   0  0  1  0  0  0  0  0  0  0  0  0
   26.7071  -21.2619  -17.4523 C   0  0  0  0  0  0  0  0  0  0  0  0
   27.9654  -20.6535  -17.9840 C   0  0  0  0  0  0  0  0  0  0  0  0
   27.9370  -19.6300  -18.7066 O   0  0  0  0  0  0  0  0  0  0  0  0
   25.9046  -22.2212  -15.2998 C   0  0  0  0  0  0  0  0  0  0  0  0
   25.1085  -23.2136  -15.3694 O   0  0  0  0  0  0  0  0  0  0  0  0
   29.1809  -21.2348  -17.6719 O   0  0  0  0  0  0  0  0  0  0  0  0
   22.3505  -20.6745   -8.2486 N   0  0  0  0  0  0  0  0  0  0  0  0
   23.6552  -21.0065   -7.7908 C   0  0  0  0  0  0  0  0  0  0  0  0
   23.8495  -21.5818   -6.6426 N   0  0  0  0  0  0  0  0  0  0  0  0
   24.8236  -20.7368   -8.5571 N   0  0  0  0  0  0  0  0  0  0  0  0
   24.7027  -20.1208   -9.8529 C   0  0  0  0  0  0  0  0  0  0  0  0
   24.8626  -21.1436  -10.9815 C   0  0  0  0  0  0  0  0  0  0  0  0
   24.7562  -20.3526  -12.2500 C   0  0  0  0  0  0  0  0  0  0  0  0
   24.5300  -21.2267  -13.4181 C   0  0  2  0  0  0  0  0  0  0  0  0
   25.6980  -21.2593  -14.2947 N   0  0  0  0  0  0  0  0  0  0  0  0
   23.3762  -20.8082  -14.2187 C   0  0  0  0  0  0  0  0  0  0  0  0
   23.4661  -19.7689  -14.9488 O   0  0  0  0  0  0  0  0  0  0  0  0
   24.7665  -21.7915   -6.2312 N   0  0  0  0  0  0  0  0  0  0  0  0
   21.1992  -21.8753  -18.0517 C   0  0  0  0  0  0  0  0  0  0  0  0
   21.0937  -22.5922  -16.8272 O   0  0  0  0  0  0  0  0  0  0  0  0
   21.6885  -23.6713  -16.6758 C   0  0  0  0  0  0  0  0  0  0  0  0
   20.2588  -22.0084  -15.7571 C   0  0  2  0  0  0  0  0  0  0  0  0
   21.0404  -20.9592  -14.9827 N   0  0  0  0  0  0  0  0  0  0  0  0
   22.1357  -21.5141  -14.2252 C   0  0  0  0  0  0  0  0  0  0  0  0
   20.1159  -20.2581  -14.0884 O   0  0  0  0  0  0  0  0  0  0  0  0
   20.2678  -20.2714  -12.7047 O   0  0  0  0  0  0  0  0  0  0  0  0
  2  1  1  6
  2  3  1  0
  3  4  1  0
  4  8  1  0
  5  4  2  0
  6  2  1  0
  6  7  2  0
  9 10  1  0
 10 12  1  0
 10 11  2  0
 12 13  1  0
 13 14  1  0
 16 15  1  1
 15 14  1  0
 16 17  1  0
 17  6  1  0
 18 16  1  0
 19 18  2  0
 20 21  1  0
 21 22  2  0
 21 23  1  0
 24 23  1  6
 24 26  1  0
 24 25  1  0
 25 18  1  0
 26 27  1  0
 28 26  2  0
M  END
$$$$
