DRN.pdb
     RDKit          3D

 28 27  0  0  1  0  0  0  0  0999 V2000
   43.5842  -12.1106  -11.2837 N   0  0  0  0  0  0  0  0  0  0  0  0
   42.5345  -11.1551  -11.6410 C   0  0  1  0  0  0  0  0  0  0  0  0
   41.4162  -11.9567  -12.2381 C   0  0  0  0  0  0  0  0  0  0  0  0
   41.8608  -12.6566  -13.4825 C   0  0  0  0  0  0  0  0  0  0  0  0
   42.6738  -12.1227  -14.2729 O   0  0  0  0  0  0  0  0  0  0  0  0
   42.1531  -10.3462  -10.4885 C   0  0  0  0  0  0  0  0  0  0  0  0
   41.2000   -9.5124  -10.6293 O   0  0  0  0  0  0  0  0  0  0  0  0
   41.3621  -13.9156  -13.7642 O   0  0  0  0  0  0  0  0  0  0  0  0
   46.3158   -9.9798   -3.2432 N   0  0  0  0  0  0  0  0  0  0  0  0
   46.9979  -10.5890   -4.3321 C   0  0  0  0  0  0  0  0  0  0  0  0
   48.2918  -10.7008   -4.3500 N   0  0  0  0  0  0  0  0  0  0  0  0
   46.3123  -11.1162   -5.4622 N   0  0  0  0  0  0  0  0  0  0  0  0
   44.8832  -10.9718   -5.5633 C   0  0  0  0  0  0  0  0  0  0  0  0
   44.4742  -10.3117   -6.8832 C   0  0  0  0  0  0  0  0  0  0  0  0
   42.9800  -10.2096   -6.8280 C   0  0  0  0  0  0  0  0  0  0  0  0
   42.4282   -9.6369   -8.0718 C   0  0  2  0  0  0  0  0  0  0  0  0
   42.7843  -10.4447   -9.2355 N   0  0  0  0  0  0  0  0  0  0  0  0
   42.8907   -8.2676   -8.3141 C   0  0  0  0  0  0  0  0  0  0  0  0
   43.7902   -8.0577   -9.1905 O   0  0  0  0  0  0  0  0  0  0  0  0
   48.8461  -11.0572   -5.1374 N   0  0  0  0  0  0  0  0  0  0  0  0
   43.1911   -3.3186   -8.9260 C   0  0  0  0  0  0  0  0  0  0  0  0
   42.5706   -4.1581   -9.8930 O   0  0  0  0  0  0  0  0  0  0  0  0
   42.3050   -3.7247  -11.0256 C   0  0  0  0  0  0  0  0  0  0  0  0
   42.2593   -5.5479   -9.5000 C   0  0  1  0  0  0  0  0  0  0  0  0
   42.7356   -5.8213   -8.0823 N   0  0  0  0  0  0  0  0  0  0  0  0
   42.3792   -7.1368   -7.6093 C   0  0  0  0  0  0  0  0  0  0  0  0
   42.1704   -4.7995   -7.1978 O   0  0  0  0  0  0  0  0  0  0  0  0
   42.4974   -3.4515   -7.3163 O   0  0  0  0  0  0  0  0  0  0  0  0
  2  1  1  1
  2  3  1  0
  3  4  1  0
  4  8  1  0
  5  4  2  0
  6  2  1  0
  6  7  2  0
  9 10  1  0
 10 12  1  0
 10 11  2  0
 12 13  1  0
 13 14  1  0
 16 15  1  1
 15 14  1  0
 16 17  1  0
 17  6  1  0
 18 16  1  0
 19 18  2  0
 20 21  1  0
 21 22  2  0
 21 23  1  0
 24 23  1  6
 24 26  1  0
 24 25  1  0
 25 18  1  0
 26 27  1  0
 28 26  2  0
M  END
$$$$
