DRN.pdb
     RDKit          3D

 28 27  0  0  1  0  0  0  0  0999 V2000
   28.5815  -21.0642  -18.1551 N   0  0  0  0  0  0  0  0  0  0  0  0
   27.8429  -20.1552  -17.2772 C   0  0  1  0  0  0  0  0  0  0  0  0
   27.2486  -19.0999  -18.1620 C   0  0  0  0  0  0  0  0  0  0  0  0
   28.2053  -17.9693  -18.3682 C   0  0  0  0  0  0  0  0  0  0  0  0
   29.3543  -17.9914  -17.8683 O   0  0  0  0  0  0  0  0  0  0  0  0
   26.8731  -20.8862  -16.4690 C   0  0  0  0  0  0  0  0  0  0  0  0
   26.2983  -21.8972  -16.9895 O   0  0  0  0  0  0  0  0  0  0  0  0
   27.8108  -16.8800  -19.1236 O   0  0  0  0  0  0  0  0  0  0  0  0
   25.8602  -20.7365   -7.9285 N   0  0  0  0  0  0  0  0  0  0  0  0
   24.6437  -20.6619   -8.6610 C   0  0  0  0  0  0  0  0  0  0  0  0
   23.5607  -20.1724   -8.1370 N   0  0  0  0  0  0  0  0  0  0  0  0
   24.5356  -21.1106  -10.0072 N   0  0  0  0  0  0  0  0  0  0  0  0
   25.6214  -21.8420  -10.6067 C   0  0  0  0  0  0  0  0  0  0  0  0
   25.3194  -22.2087  -12.0626 C   0  0  0  0  0  0  0  0  0  0  0  0
   25.8943  -21.0912  -12.8793 C   0  0  0  0  0  0  0  0  0  0  0  0
   25.5917  -21.2559  -14.3149 C   0  0  2  0  0  0  0  0  0  0  0  0
   26.5461  -20.5294  -15.1485 N   0  0  0  0  0  0  0  0  0  0  0  0
   24.2451  -20.7937  -14.6624 C   0  0  0  0  0  0  0  0  0  0  0  0
   24.0224  -19.5449  -14.7738 O   0  0  0  0  0  0  0  0  0  0  0  0
   22.6515  -20.1035   -8.6090 N   0  0  0  0  0  0  0  0  0  0  0  0
   20.2913  -19.4036  -16.5795 C   0  0  0  0  0  0  0  0  0  0  0  0
   20.4714  -20.6553  -17.2316 O   0  0  0  0  0  0  0  0  0  0  0  0
   19.9014  -20.8922  -18.3088 C   0  0  0  0  0  0  0  0  0  0  0  0
   21.3524  -21.6489  -16.5838 C   0  0  2  0  0  0  0  0  0  0  0  0
   21.8785  -21.1139  -15.2615 N   0  0  0  0  0  0  0  0  0  0  0  0
   23.1508  -21.6819  -14.8871 C   0  0  0  0  0  0  0  0  0  0  0  0
   20.8824  -21.3848  -14.2220 O   0  0  0  0  0  0  0  0  0  0  0  0
   19.8673  -20.4835  -13.9136 O   0  0  0  0  0  0  0  0  0  0  0  0
  2  1  1  6
  2  3  1  0
  3  4  1  0
  4  8  1  0
  5  4  2  0
  6  2  1  0
  6  7  2  0
  9 10  1  0
 10 12  1  0
 10 11  2  0
 12 13  1  0
 13 14  1  0
 16 15  1  1
 15 14  1  0
 16 17  1  0
 17  6  1  0
 18 16  1  0
 19 18  2  0
 20 21  1  0
 21 22  2  0
 21 23  1  0
 24 23  1  6
 24 26  1  0
 24 25  1  0
 25 18  1  0
 26 27  1  0
 28 26  2  0
M  END
$$$$
