DRN.pdb
     RDKit          3D

 28 27  0  0  1  0  0  0  0  0999 V2000
   22.0350  -14.2068  -18.5013 N   0  0  0  0  0  0  0  0  0  0  0  0
   21.0012  -15.2135  -18.2566 C   0  0  1  0  0  0  0  0  0  0  0  0
   20.9245  -16.0534  -19.4970 C   0  0  0  0  0  0  0  0  0  0  0  0
   20.2859  -15.2989  -20.6190 C   0  0  0  0  0  0  0  0  0  0  0  0
   20.7548  -15.3420  -21.7805 O   0  0  0  0  0  0  0  0  0  0  0  0
   21.2807  -15.9599  -17.0348 C   0  0  0  0  0  0  0  0  0  0  0  0
   22.4368  -15.8442  -16.5118 O   0  0  0  0  0  0  0  0  0  0  0  0
   19.1582  -14.5391  -20.3664 O   0  0  0  0  0  0  0  0  0  0  0  0
   17.6254  -19.7588  -10.6552 N   0  0  0  0  0  0  0  0  0  0  0  0
   18.9918  -19.6906  -10.2671 C   0  0  0  0  0  0  0  0  0  0  0  0
   19.4495  -20.3703   -9.2594 N   0  0  0  0  0  0  0  0  0  0  0  0
   19.9404  -18.8834  -10.9553 N   0  0  0  0  0  0  0  0  0  0  0  0
   19.5197  -18.0840  -12.0766 C   0  0  0  0  0  0  0  0  0  0  0  0
   19.5703  -18.8766  -13.3859 C   0  0  0  0  0  0  0  0  0  0  0  0
   19.3479  -17.8652  -14.4694 C   0  0  0  0  0  0  0  0  0  0  0  0
   20.5981  -17.5599  -15.1928 C   0  0  2  0  0  0  0  0  0  0  0  0
   20.3377  -16.7956  -16.4100 N   0  0  0  0  0  0  0  0  0  0  0  0
   21.3401  -18.7669  -15.5675 C   0  0  0  0  0  0  0  0  0  0  0  0
   20.8002  -19.6150  -16.3488 O   0  0  0  0  0  0  0  0  0  0  0  0
   20.4295  -20.3918   -8.9538 N   0  0  0  0  0  0  0  0  0  0  0  0
   26.6599  -21.9536  -15.2020 C   0  0  0  0  0  0  0  0  0  0  0  0
   25.2892  -21.7037  -15.4904 O   0  0  0  0  0  0  0  0  0  0  0  0
   24.6143  -22.5386  -16.1138 C   0  0  0  0  0  0  0  0  0  0  0  0
   24.7090  -20.4273  -15.0244 C   0  0  2  0  0  0  0  0  0  0  0  0
   23.2617  -20.3034  -15.4734 N   0  0  0  0  0  0  0  0  0  0  0  0
   22.6577  -19.0485  -15.0967 C   0  0  0  0  0  0  0  0  0  0  0  0
   22.5016  -21.4178  -14.9022 O   0  0  0  0  0  0  0  0  0  0  0  0
   22.1421  -22.5335  -15.6531 O   0  0  0  0  0  0  0  0  0  0  0  0
  2  1  1  6
  2  3  1  0
  3  4  1  0
  4  8  1  0
  5  4  2  0
  6  2  1  0
  6  7  2  0
  9 10  1  0
 10 12  1  0
 10 11  2  0
 12 13  1  0
 13 14  1  0
 16 15  1  6
 15 14  1  0
 16 17  1  0
 17  6  1  0
 18 16  1  0
 19 18  2  0
 20 21  1  0
 21 22  2  0
 21 23  1  0
 24 23  1  6
 24 26  1  0
 24 25  1  0
 25 18  1  0
 26 27  1  0
 28 26  2  0
M  END
$$$$
