DRN.pdb
     RDKit          3D

 28 27  0  0  1  0  0  0  0  0999 V2000
   25.1783  -19.7928   -9.2949 N   0  0  0  0  0  0  0  0  0  0  0  0
   24.3238  -20.4560  -10.2810 C   0  0  1  0  0  0  0  0  0  0  0  0
   22.9110  -20.2662   -9.8145 C   0  0  0  0  0  0  0  0  0  0  0  0
   22.7100  -20.8540   -8.4542 C   0  0  0  0  0  0  0  0  0  0  0  0
   21.9699  -20.2981   -7.6093 O   0  0  0  0  0  0  0  0  0  0  0  0
   24.5921  -19.9532  -11.6239 C   0  0  0  0  0  0  0  0  0  0  0  0
   24.7327  -18.6962  -11.7773 O   0  0  0  0  0  0  0  0  0  0  0  0
   23.3557  -22.0321   -8.1254 O   0  0  0  0  0  0  0  0  0  0  0  0
   28.9618  -24.0239  -17.6268 N   0  0  0  0  0  0  0  0  0  0  0  0
   27.6642  -24.1739  -17.0648 C   0  0  0  0  0  0  0  0  0  0  0  0
   27.0731  -25.3292  -17.0118 N   0  0  0  0  0  0  0  0  0  0  0  0
   26.9364  -23.0774  -16.5234 N   0  0  0  0  0  0  0  0  0  0  0  0
   27.4969  -21.7520  -16.5743 C   0  0  0  0  0  0  0  0  0  0  0  0
   26.5156  -20.7031  -16.0432 C   0  0  0  0  0  0  0  0  0  0  0  0
   26.0441  -21.2349  -14.7236 C   0  0  0  0  0  0  0  0  0  0  0  0
   25.0780  -20.3206  -14.0831 C   0  0  2  0  0  0  0  0  0  0  0  0
   24.7037  -20.7875  -12.7506 N   0  0  0  0  0  0  0  0  0  0  0  0
   23.8502  -20.1607  -14.8670 C   0  0  0  0  0  0  0  0  0  0  0  0
   22.9652  -21.0757  -14.8358 O   0  0  0  0  0  0  0  0  0  0  0  0
   26.1252  -25.4953  -16.6539 N   0  0  0  0  0  0  0  0  0  0  0  0
   19.6060  -18.5458  -16.3054 C   0  0  0  0  0  0  0  0  0  0  0  0
   20.3435  -17.3291  -16.3193 O   0  0  0  0  0  0  0  0  0  0  0  0
   19.7553  -16.2359  -16.3188 C   0  0  0  0  0  0  0  0  0  0  0  0
   21.8183  -17.4179  -16.3344 C   0  0  2  0  0  0  0  0  0  0  0  0
   22.2667  -18.8675  -16.2391 N   0  0  0  0  0  0  0  0  0  0  0  0
   23.5874  -19.0156  -15.6774 C   0  0  0  0  0  0  0  0  0  0  0  0
   22.2225  -19.4560  -17.5798 O   0  0  0  0  0  0  0  0  0  0  0  0
   23.3187  -19.4326  -18.4375 O   0  0  0  0  0  0  0  0  0  0  0  0
  2  1  1  1
  2  3  1  0
  3  4  1  0
  4  8  1  0
  5  4  2  0
  6  2  1  0
  6  7  2  0
  9 10  1  0
 10 12  1  0
 10 11  2  0
 12 13  1  0
 13 14  1  0
 16 15  1  6
 15 14  1  0
 16 17  1  0
 17  6  1  0
 18 16  1  0
 19 18  2  0
 20 21  1  0
 21 22  2  0
 21 23  1  0
 24 23  1  1
 24 26  1  0
 24 25  1  0
 25 18  1  0
 26 27  1  0
 28 26  2  0
M  END
$$$$
