WRH.pdb
     RDKit          3D

 36 38  0  0  1  0  0  0  0  0999 V2000
   23.0240  -21.5927  -21.5879 N   0  0  0  0  0  0  0  0  0  0  0  0
   23.8288  -21.6303  -20.3924 C   0  0  1  0  0  0  0  0  0  0  0  0
   23.1319  -20.8028  -19.3334 C   0  0  0  0  0  0  0  0  0  0  0  0
   23.2152  -19.3753  -19.8048 C   0  0  0  0  0  0  0  0  0  0  0  0
   22.1670  -18.5754  -20.2231 C   0  0  0  0  0  0  0  0  0  0  0  0
   22.6779  -17.3736  -20.5469 N   0  0  0  0  0  0  0  0  0  0  0  0
   23.9893  -17.3587  -20.3597 C   0  0  0  0  0  0  0  0  0  0  0  0
   24.9448  -16.3539  -20.5555 C   0  0  0  0  0  0  0  0  0  0  0  0
   26.2797  -16.6011  -20.2820 C   0  0  0  0  0  0  0  0  0  0  0  0
   26.6354  -17.8490  -19.8176 C   0  0  0  0  0  0  0  0  0  0  0  0
   25.6943  -18.8362  -19.6251 C   0  0  0  0  0  0  0  0  0  0  0  0
   24.3509  -18.6052  -19.8942 C   0  0  0  0  0  0  0  0  0  0  0  0
   24.0271  -23.0327  -19.9403 C   0  0  0  0  0  0  0  0  0  0  0  0
   23.2731  -23.8971  -20.4502 O   0  0  0  0  0  0  0  0  0  0  0  0
   27.3721  -29.2244  -15.4411 N   0  0  0  0  0  0  0  0  0  0  0  0
   27.9687  -29.4091  -16.7128 C   0  0  0  0  0  0  0  0  0  0  0  0
   28.2193  -30.5569  -17.2447 N   0  0  0  0  0  0  0  0  0  0  0  0
   28.3104  -28.2372  -17.4512 N   0  0  0  0  0  0  0  0  0  0  0  0
   27.8763  -26.9008  -17.0684 C   0  0  0  0  0  0  0  0  0  0  0  0
   26.5244  -26.5774  -17.6430 C   0  0  0  0  0  0  0  0  0  0  0  0
   26.5003  -25.1616  -18.1237 C   0  0  0  0  0  0  0  0  0  0  0  0
   25.1644  -24.8002  -18.6572 C   0  0  2  0  0  0  0  0  0  0  0  0
   25.0022  -23.4147  -18.9891 N   0  0  0  0  0  0  0  0  0  0  0  0
   24.0667  -25.1632  -17.6953 C   0  0  0  0  0  0  0  0  0  0  0  0
   24.0818  -24.6127  -16.5719 O   0  0  0  0  0  0  0  0  0  0  0  0
   28.6433  -30.5749  -18.2128 N   0  0  0  0  0  0  0  0  0  0  0  0
   23.0340  -26.0776  -17.9880 C   0  0  2  0  0  0  0  0  0  0  0  0
   21.9900  -26.4058  -16.9947 C   0  0  0  0  0  0  0  0  0  0  0  0
   20.6502  -26.0364  -17.5327 C   0  0  0  0  0  0  0  0  0  0  0  0
   19.5722  -26.3370  -16.5874 C   0  0  0  0  0  0  0  0  0  0  0  0
   19.6948  -26.1665  -15.1920 N   0  0  0  0  0  0  0  0  0  0  0  0
   18.5215  -26.5453  -14.6506 C   0  0  0  0  0  0  0  0  0  0  0  0
   17.6757  -26.9406  -15.6128 N   0  0  0  0  0  0  0  0  0  0  0  0
   18.3409  -26.8024  -16.7699 C   0  0  0  0  0  0  0  0  0  0  0  0
   22.0490  -27.8292  -16.6621 O   0  0  0  0  0  0  0  0  0  0  0  0
   21.5559  -28.4778  -15.5602 O   0  0  0  0  0  0  0  0  0  0  0  0
  2  1  1  6
  3  2  1  0
  3  4  1  0
  4  5  2  0
  5  6  1  0
  7  6  1  0
  8  7  2  0
  9  8  1  0
 10 11  1  0
 10  9  2  0
 11 12  2  0
 12  4  1  0
 12  7  1  0
 13  2  1  0
 13 14  2  0
 16 15  1  0
 17 16  2  0
 18 16  1  0
 19 20  1  0
 19 18  1  0
 20 21  1  0
 22 21  1  1
 22 23  1  0
 23 13  1  0
 24 22  1  0
 25 24  2  0
 26 24  1  0
 27 26  1  0
 27 34  1  0
 27 28  1  6
 29 28  1  0
 30 29  2  0
 31 30  1  0
 32 31  1  0
 32 33  2  0
 33 29  1  0
 34 35  1  0
 36 34  2  0
M  END
$$$$
