WRH.pdb
     RDKit          3D

 36 38  0  0  1  0  0  0  0  0999 V2000
   31.0428  -27.8378  -23.6262 N   0  0  0  0  0  0  0  0  0  0  0  0
   29.7169  -27.6686  -23.0861 C   0  0  1  0  0  0  0  0  0  0  0  0
   28.8961  -26.8947  -24.0957 C   0  0  0  0  0  0  0  0  0  0  0  0
   29.3547  -25.4645  -23.9905 C   0  0  0  0  0  0  0  0  0  0  0  0
   30.5614  -24.9445  -24.4229 C   0  0  0  0  0  0  0  0  0  0  0  0
   30.5588  -23.6281  -24.1452 N   0  0  0  0  0  0  0  0  0  0  0  0
   29.4224  -23.2770  -23.5620 C   0  0  0  0  0  0  0  0  0  0  0  0
   28.9615  -22.0405  -23.0931 C   0  0  0  0  0  0  0  0  0  0  0  0
   27.7106  -21.9415  -22.5072 C   0  0  0  0  0  0  0  0  0  0  0  0
   26.9427  -23.0810  -22.4004 C   0  0  0  0  0  0  0  0  0  0  0  0
   27.3972  -24.2964  -22.8625 C   0  0  0  0  0  0  0  0  0  0  0  0
   28.6494  -24.4135  -23.4531 C   0  0  0  0  0  0  0  0  0  0  0  0
   29.1027  -28.9890  -22.7866 C   0  0  0  0  0  0  0  0  0  0  0  0
   29.3853  -29.9284  -23.5698 O   0  0  0  0  0  0  0  0  0  0  0  0
   29.1612  -32.9796  -15.7797 N   0  0  0  0  0  0  0  0  0  0  0  0
   28.2962  -31.9351  -16.1894 C   0  0  0  0  0  0  0  0  0  0  0  0
   27.4225  -31.3669  -15.4298 N   0  0  0  0  0  0  0  0  0  0  0  0
   28.4082  -31.4845  -17.5384 N   0  0  0  0  0  0  0  0  0  0  0  0
   29.2120  -32.1688  -18.5418 C   0  0  0  0  0  0  0  0  0  0  0  0
   29.1446  -31.4673  -19.8706 C   0  0  0  0  0  0  0  0  0  0  0  0
   27.7310  -31.0864  -20.1747 C   0  0  0  0  0  0  0  0  0  0  0  0
   27.6153  -30.4974  -21.5310 C   0  0  2  0  0  0  0  0  0  0  0  0
   28.2412  -29.2167  -21.6878 N   0  0  0  0  0  0  0  0  0  0  0  0
   26.1786  -30.3495  -21.9504 C   0  0  0  0  0  0  0  0  0  0  0  0
   25.5748  -29.3184  -21.5789 O   0  0  0  0  0  0  0  0  0  0  0  0
   26.8311  -30.5944  -15.8428 N   0  0  0  0  0  0  0  0  0  0  0  0
   25.4846  -31.2970  -22.7305 C   0  0  2  0  0  0  0  0  0  0  0  0
   24.0693  -31.0984  -23.1068 C   0  0  0  0  0  0  0  0  0  0  0  0
   23.7350  -31.9573  -24.2780 C   0  0  0  0  0  0  0  0  0  0  0  0
   22.3572  -31.7592  -24.7344 C   0  0  0  0  0  0  0  0  0  0  0  0
   22.0112  -30.9167  -25.8122 N   0  0  0  0  0  0  0  0  0  0  0  0
   20.6718  -30.9773  -25.9371 C   0  0  0  0  0  0  0  0  0  0  0  0
   20.1588  -31.7997  -25.0108 N   0  0  0  0  0  0  0  0  0  0  0  0
   21.2028  -32.2549  -24.3013 C   0  0  0  0  0  0  0  0  0  0  0  0
   23.2036  -31.4028  -21.9674 O   0  0  0  0  0  0  0  0  0  0  0  0
   23.5130  -32.0468  -20.7980 O   0  0  0  0  0  0  0  0  0  0  0  0
  2  1  1  6
  3  2  1  0
  3  4  1  0
  4  5  2  0
  5  6  1  0
  7  6  1  0
  8  7  2  0
  9  8  1  0
 10 11  1  0
 10  9  2  0
 11 12  2  0
 12  4  1  0
 12  7  1  0
 13  2  1  0
 13 14  2  0
 16 15  1  0
 17 16  2  0
 18 16  1  0
 19 20  1  0
 19 18  1  0
 20 21  1  0
 22 21  1  1
 22 23  1  0
 23 13  1  0
 24 22  1  0
 25 24  2  0
 26 24  1  0
 27 26  1  0
 27 34  1  0
 27 28  1  1
 29 28  1  0
 30 29  2  0
 31 30  1  0
 32 31  1  0
 32 33  2  0
 33 29  1  0
 34 35  1  0
 36 34  2  0
M  END
$$$$
