WRH.pdb
     RDKit          3D

 36 38  0  0  1  0  0  0  0  0999 V2000
   25.4230  -18.7702   -8.5247 N   0  0  0  0  0  0  0  0  0  0  0  0
   26.1805  -19.9018   -8.9981 C   0  0  1  0  0  0  0  0  0  0  0  0
   25.8935  -21.0726   -8.0823 C   0  0  0  0  0  0  0  0  0  0  0  0
   26.3574  -20.6491   -6.7140 C   0  0  0  0  0  0  0  0  0  0  0  0
   25.5804  -20.5147   -5.5775 C   0  0  0  0  0  0  0  0  0  0  0  0
   26.3905  -20.1274   -4.5755 N   0  0  0  0  0  0  0  0  0  0  0  0
   27.6380  -20.0070   -5.0048 C   0  0  0  0  0  0  0  0  0  0  0  0
   28.8159  -19.6340   -4.3456 C   0  0  0  0  0  0  0  0  0  0  0  0
   30.0139  -19.5823   -5.0385 C   0  0  0  0  0  0  0  0  0  0  0  0
   30.0126  -19.9044   -6.3785 C   0  0  0  0  0  0  0  0  0  0  0  0
   28.8533  -20.2716   -7.0254 C   0  0  0  0  0  0  0  0  0  0  0  0
   27.6430  -20.3290   -6.3454 C   0  0  0  0  0  0  0  0  0  0  0  0
   25.8244  -20.2160  -10.4069 C   0  0  0  0  0  0  0  0  0  0  0  0
   24.6636  -19.9086  -10.7728 O   0  0  0  0  0  0  0  0  0  0  0  0
   30.0247  -23.2258  -17.3540 N   0  0  0  0  0  0  0  0  0  0  0  0
   28.8927  -22.6118  -17.9443 C   0  0  0  0  0  0  0  0  0  0  0  0
   28.4674  -22.8527  -19.1377 N   0  0  0  0  0  0  0  0  0  0  0  0
   28.1771  -21.6632  -17.1546 N   0  0  0  0  0  0  0  0  0  0  0  0
   28.6145  -21.2372  -15.8324 C   0  0  0  0  0  0  0  0  0  0  0  0
   27.4598  -20.7411  -15.0059 C   0  0  0  0  0  0  0  0  0  0  0  0
   27.6804  -21.0807  -13.5664 C   0  0  0  0  0  0  0  0  0  0  0  0
   26.5532  -20.6080  -12.7262 C   0  0  2  0  0  0  0  0  0  0  0  0
   26.7166  -20.8278  -11.3186 N   0  0  0  0  0  0  0  0  0  0  0  0
   25.2534  -21.2462  -13.1325 C   0  0  0  0  0  0  0  0  0  0  0  0
   24.9508  -22.3310  -12.5874 O   0  0  0  0  0  0  0  0  0  0  0  0
   27.5974  -22.3506  -19.4669 N   0  0  0  0  0  0  0  0  0  0  0  0
   24.3682  -20.6946  -14.0813 C   0  0  1  0  0  0  0  0  0  0  0  0
   23.1755  -21.4341  -14.5448 C   0  0  0  0  0  0  0  0  0  0  0  0
   23.4818  -22.8911  -14.6117 C   0  0  0  0  0  0  0  0  0  0  0  0
   22.3454  -23.6735  -15.1041 C   0  0  0  0  0  0  0  0  0  0  0  0
   21.0330  -23.1628  -15.1928 N   0  0  0  0  0  0  0  0  0  0  0  0
   20.2624  -24.1558  -15.6760 C   0  0  0  0  0  0  0  0  0  0  0  0
   21.0045  -25.2509  -15.8943 N   0  0  0  0  0  0  0  0  0  0  0  0
   22.2569  -24.9261  -15.5389 C   0  0  0  0  0  0  0  0  0  0  0  0
   22.0489  -21.1742  -13.6484 O   0  0  0  0  0  0  0  0  0  0  0  0
   21.9916  -20.3546  -12.5517 O   0  0  0  0  0  0  0  0  0  0  0  0
  2  1  1  1
  3  2  1  0
  3  4  1  0
  4  5  2  0
  5  6  1  0
  7  6  1  0
  8  7  2  0
  9  8  1  0
 10 11  1  0
 10  9  2  0
 11 12  2  0
 12  4  1  0
 12  7  1  0
 13  2  1  0
 13 14  2  0
 16 15  1  0
 17 16  2  0
 18 16  1  0
 19 20  1  0
 19 18  1  0
 20 21  1  0
 22 21  1  6
 22 23  1  0
 23 13  1  0
 24 22  1  0
 25 24  2  0
 26 24  1  0
 27 26  1  0
 27 34  1  0
 27 28  1  6
 29 28  1  0
 30 29  2  0
 31 30  1  0
 32 31  1  0
 32 33  2  0
 33 29  1  0
 34 35  1  0
 36 34  2  0
M  END
$$$$
