WRH.pdb
     RDKit          3D

 36 38  0  0  1  0  0  0  0  0999 V2000
   27.6158  -18.0317  -20.1560 N   0  0  0  0  0  0  0  0  0  0  0  0
   27.6127  -18.1685  -18.7208 C   0  0  1  0  0  0  0  0  0  0  0  0
   26.6912  -17.1103  -18.1524 C   0  0  0  0  0  0  0  0  0  0  0  0
   27.2931  -15.7866  -18.5429 C   0  0  0  0  0  0  0  0  0  0  0  0
   28.6377  -15.4944  -18.6851 C   0  0  0  0  0  0  0  0  0  0  0  0
   28.7357  -14.2042  -19.0538 N   0  0  0  0  0  0  0  0  0  0  0  0
   27.5340  -13.6559  -19.1557 C   0  0  0  0  0  0  0  0  0  0  0  0
   27.1297  -12.3605  -19.5014 C   0  0  0  0  0  0  0  0  0  0  0  0
   25.7835  -12.0366  -19.5296 C   0  0  0  0  0  0  0  0  0  0  0  0
   24.8654  -13.0141  -19.2115 C   0  0  0  0  0  0  0  0  0  0  0  0
   25.2647  -14.2880  -18.8722 C   0  0  0  0  0  0  0  0  0  0  0  0
   26.6110  -14.6300  -18.8392 C   0  0  0  0  0  0  0  0  0  0  0  0
   27.1769  -19.5343  -18.3274 C   0  0  0  0  0  0  0  0  0  0  0  0
   26.0202  -19.8751  -18.6764 O   0  0  0  0  0  0  0  0  0  0  0  0
   31.1384  -25.5152  -14.8272 N   0  0  0  0  0  0  0  0  0  0  0  0
   30.2558  -25.9917  -15.8277 C   0  0  0  0  0  0  0  0  0  0  0  0
   29.5796  -27.0868  -15.7471 N   0  0  0  0  0  0  0  0  0  0  0  0
   30.1088  -25.1961  -17.0028 N   0  0  0  0  0  0  0  0  0  0  0  0
   30.6046  -23.8306  -17.1064 C   0  0  0  0  0  0  0  0  0  0  0  0
   29.5672  -22.9134  -17.6939 C   0  0  0  0  0  0  0  0  0  0  0  0
   28.4812  -22.6668  -16.6960 C   0  0  0  0  0  0  0  0  0  0  0  0
   27.4729  -21.7169  -17.2261 C   0  0  2  0  0  0  0  0  0  0  0  0
   27.9915  -20.4331  -17.5993 N   0  0  0  0  0  0  0  0  0  0  0  0
   26.3604  -21.4830  -16.2415 C   0  0  0  0  0  0  0  0  0  0  0  0
   26.6035  -20.7380  -15.2661 O   0  0  0  0  0  0  0  0  0  0  0  0
   29.0251  -27.3929  -16.5933 N   0  0  0  0  0  0  0  0  0  0  0  0
   25.0743  -22.0494  -16.3576 C   0  0  1  0  0  0  0  0  0  0  0  0
   24.0163  -21.7708  -15.3640 C   0  0  0  0  0  0  0  0  0  0  0  0
   23.8102  -20.2993  -15.2482 C   0  0  0  0  0  0  0  0  0  0  0  0
   22.6708  -19.9659  -14.3899 C   0  0  0  0  0  0  0  0  0  0  0  0
   21.8793  -20.9369  -13.7405 N   0  0  0  0  0  0  0  0  0  0  0  0
   20.9328  -20.2693  -13.0536 C   0  0  0  0  0  0  0  0  0  0  0  0
   21.0798  -18.9485  -13.2305 N   0  0  0  0  0  0  0  0  0  0  0  0
   22.1378  -18.7993  -14.0422 C   0  0  0  0  0  0  0  0  0  0  0  0
   22.7781  -22.4462  -15.7525 O   0  0  0  0  0  0  0  0  0  0  0  0
   22.5313  -23.2292  -16.8497 O   0  0  0  0  0  0  0  0  0  0  0  0
  2  1  1  6
  3  2  1  0
  3  4  1  0
  4  5  2  0
  5  6  1  0
  7  6  1  0
  8  7  2  0
  9  8  1  0
 10 11  1  0
 10  9  2  0
 11 12  2  0
 12  4  1  0
 12  7  1  0
 13  2  1  0
 13 14  2  0
 16 15  1  0
 17 16  2  0
 18 16  1  0
 19 20  1  0
 19 18  1  0
 20 21  1  0
 22 21  1  1
 22 23  1  0
 23 13  1  0
 24 22  1  0
 25 24  2  0
 26 24  1  0
 27 26  1  0
 27 34  1  0
 27 28  1  6
 29 28  1  0
 30 29  2  0
 31 30  1  0
 32 31  1  0
 32 33  2  0
 33 29  1  0
 34 35  1  0
 36 34  2  0
M  END
$$$$
