WRH.pdb
     RDKit          3D

 36 38  0  0  1  0  0  0  0  0999 V2000
   26.6383  -19.2384  -11.7520 N   0  0  0  0  0  0  0  0  0  0  0  0
   27.0501  -20.5724  -12.1118 C   0  0  1  0  0  0  0  0  0  0  0  0
   26.3176  -21.5461  -11.2133 C   0  0  0  0  0  0  0  0  0  0  0  0
   26.4071  -20.9724   -9.8241 C   0  0  0  0  0  0  0  0  0  0  0  0
   25.3530  -20.6430   -8.9912 C   0  0  0  0  0  0  0  0  0  0  0  0
   25.8743  -20.1741   -7.8429 N   0  0  0  0  0  0  0  0  0  0  0  0
   27.1981  -20.1852   -7.8932 C   0  0  0  0  0  0  0  0  0  0  0  0
   28.1669  -19.7976   -6.9594 C   0  0  0  0  0  0  0  0  0  0  0  0
   29.5127  -19.9086   -7.2670 C   0  0  0  0  0  0  0  0  0  0  0  0
   29.8656  -20.4052   -8.5033 C   0  0  0  0  0  0  0  0  0  0  0  0
   28.9114  -20.7865   -9.4205 C   0  0  0  0  0  0  0  0  0  0  0  0
   27.5571  -20.6821   -9.1282 C   0  0  0  0  0  0  0  0  0  0  0  0
   26.7636  -20.8383  -13.5462 C   0  0  0  0  0  0  0  0  0  0  0  0
   25.7220  -20.3176  -14.0149 O   0  0  0  0  0  0  0  0  0  0  0  0
   31.7106  -24.9216  -15.3578 N   0  0  0  0  0  0  0  0  0  0  0  0
   30.9599  -25.1062  -16.5451 C   0  0  0  0  0  0  0  0  0  0  0  0
   30.4300  -26.2236  -16.9106 N   0  0  0  0  0  0  0  0  0  0  0  0
   30.7804  -23.9696  -17.3886 N   0  0  0  0  0  0  0  0  0  0  0  0
   30.7441  -22.6033  -16.8857 C   0  0  0  0  0  0  0  0  0  0  0  0
   29.6375  -22.4165  -15.8842 C   0  0  0  0  0  0  0  0  0  0  0  0
   28.3123  -22.4539  -16.5760 C   0  0  0  0  0  0  0  0  0  0  0  0
   27.2630  -21.7979  -15.7584 C   0  0  2  0  0  0  0  0  0  0  0  0
   27.5948  -21.6296  -14.3735 N   0  0  0  0  0  0  0  0  0  0  0  0
   25.9617  -22.5494  -15.8203 C   0  0  0  0  0  0  0  0  0  0  0  0
   25.6580  -23.2550  -14.8326 O   0  0  0  0  0  0  0  0  0  0  0  0
   29.9775  -26.2714  -17.8646 N   0  0  0  0  0  0  0  0  0  0  0  0
   25.0761  -22.5012  -16.9165 C   0  0  1  0  0  0  0  0  0  0  0  0
   23.6520  -22.1467  -16.7426 C   0  0  0  0  0  0  0  0  0  0  0  0
   23.5417  -20.8475  -16.0208 C   0  0  0  0  0  0  0  0  0  0  0  0
   22.9876  -21.0078  -14.6742 C   0  0  0  0  0  0  0  0  0  0  0  0
   22.6066  -22.2554  -14.1362 N   0  0  0  0  0  0  0  0  0  0  0  0
   22.1406  -22.0166  -12.8956 C   0  0  0  0  0  0  0  0  0  0  0  0
   22.2048  -20.7054  -12.6232 N   0  0  0  0  0  0  0  0  0  0  0  0
   22.7206  -20.1250  -13.7175 C   0  0  0  0  0  0  0  0  0  0  0  0
   22.9922  -22.0813  -18.0467 O   0  0  0  0  0  0  0  0  0  0  0  0
   21.7744  -22.5849  -18.4225 O   0  0  0  0  0  0  0  0  0  0  0  0
  2  1  1  1
  3  2  1  0
  3  4  1  0
  4  5  2  0
  5  6  1  0
  7  6  1  0
  8  7  2  0
  9  8  1  0
 10 11  1  0
 10  9  2  0
 11 12  2  0
 12  4  1  0
 12  7  1  0
 13  2  1  0
 13 14  2  0
 16 15  1  0
 17 16  2  0
 18 16  1  0
 19 20  1  0
 19 18  1  0
 20 21  1  0
 22 21  1  6
 22 23  1  0
 23 13  1  0
 24 22  1  0
 25 24  2  0
 26 24  1  0
 27 26  1  0
 27 34  1  0
 27 28  1  1
 29 28  1  0
 30 29  2  0
 31 30  1  0
 32 31  1  0
 32 33  2  0
 33 29  1  0
 34 35  1  0
 36 34  2  0
M  END
$$$$
