WRH.pdb
     RDKit          3D

 36 38  0  0  1  0  0  0  0  0999 V2000
   27.4507  -22.0909  -14.7729 N   0  0  0  0  0  0  0  0  0  0  0  0
   26.3601  -21.6763  -13.9260 C   0  0  1  0  0  0  0  0  0  0  0  0
   26.5101  -20.1929  -13.6633 C   0  0  0  0  0  0  0  0  0  0  0  0
   27.6602  -20.0589  -12.7009 C   0  0  0  0  0  0  0  0  0  0  0  0
   28.9576  -19.6860  -13.0027 C   0  0  0  0  0  0  0  0  0  0  0  0
   29.6571  -19.6840  -11.8533 N   0  0  0  0  0  0  0  0  0  0  0  0
   28.8833  -20.0329  -10.8362 C   0  0  0  0  0  0  0  0  0  0  0  0
   29.1527  -20.1745   -9.4693 C   0  0  0  0  0  0  0  0  0  0  0  0
   28.1478  -20.5632   -8.5993 C   0  0  0  0  0  0  0  0  0  0  0  0
   26.8912  -20.8037   -9.1118 C   0  0  0  0  0  0  0  0  0  0  0  0
   26.6277  -20.6635  -10.4565 C   0  0  0  0  0  0  0  0  0  0  0  0
   27.6240  -20.2740  -11.3432 C   0  0  0  0  0  0  0  0  0  0  0  0
   25.0548  -21.9834  -14.5678 C   0  0  0  0  0  0  0  0  0  0  0  0
   24.7626  -21.3158  -15.5899 O   0  0  0  0  0  0  0  0  0  0  0  0
   24.3006  -28.1033  -18.8005 N   0  0  0  0  0  0  0  0  0  0  0  0
   24.2185  -28.3123  -17.4017 C   0  0  0  0  0  0  0  0  0  0  0  0
   24.1362  -29.4689  -16.8373 N   0  0  0  0  0  0  0  0  0  0  0  0
   24.2312  -27.1562  -16.5660 N   0  0  0  0  0  0  0  0  0  0  0  0
   24.3444  -25.8002  -17.0852 C   0  0  0  0  0  0  0  0  0  0  0  0
   24.3281  -24.7847  -15.9757 C   0  0  0  0  0  0  0  0  0  0  0  0
   22.9631  -24.1867  -15.8521 C   0  0  0  0  0  0  0  0  0  0  0  0
   22.9142  -23.1859  -14.7586 C   0  0  2  0  0  0  0  0  0  0  0  0
   24.1609  -22.9678  -14.0844 N   0  0  0  0  0  0  0  0  0  0  0  0
   21.8974  -23.5556  -13.7139 C   0  0  0  0  0  0  0  0  0  0  0  0
   22.2501  -24.3694  -12.8314 O   0  0  0  0  0  0  0  0  0  0  0  0
   24.0362  -29.5036  -15.7856 N   0  0  0  0  0  0  0  0  0  0  0  0
   20.5855  -23.0403  -13.6751 C   0  0  2  0  0  0  0  0  0  0  0  0
   19.5695  -23.5862  -12.7510 C   0  0  0  0  0  0  0  0  0  0  0  0
   19.0995  -22.5133  -11.8296 C   0  0  0  0  0  0  0  0  0  0  0  0
   18.1041  -23.0023  -10.8726 C   0  0  0  0  0  0  0  0  0  0  0  0
   18.4196  -23.8558   -9.7941 N   0  0  0  0  0  0  0  0  0  0  0  0
   17.2669  -24.0984   -9.1416 C   0  0  0  0  0  0  0  0  0  0  0  0
   16.2541  -23.4548   -9.7396 N   0  0  0  0  0  0  0  0  0  0  0  0
   16.7935  -22.8027  -10.7809 C   0  0  0  0  0  0  0  0  0  0  0  0
   18.4552  -24.1503  -13.5130 O   0  0  0  0  0  0  0  0  0  0  0  0
   18.2275  -24.1107  -14.8637 O   0  0  0  0  0  0  0  0  0  0  0  0
  2  1  1  6
  3  2  1  0
  3  4  1  0
  4  5  2  0
  5  6  1  0
  7  6  1  0
  8  7  2  0
  9  8  1  0
 10 11  1  0
 10  9  2  0
 11 12  2  0
 12  4  1  0
 12  7  1  0
 13  2  1  0
 13 14  2  0
 16 15  1  0
 17 16  2  0
 18 16  1  0
 19 20  1  0
 19 18  1  0
 20 21  1  0
 22 21  1  6
 22 23  1  0
 23 13  1  0
 24 22  1  0
 25 24  2  0
 26 24  1  0
 27 26  1  0
 27 34  1  0
 27 28  1  6
 29 28  1  0
 30 29  2  0
 31 30  1  0
 32 31  1  0
 32 33  2  0
 33 29  1  0
 34 35  1  0
 36 34  2  0
M  END
$$$$
