WRH.pdb
     RDKit          3D

 36 38  0  0  1  0  0  0  0  0999 V2000
   23.8829  -26.1584  -19.6454 N   0  0  0  0  0  0  0  0  0  0  0  0
   24.1439  -24.8065  -20.0727 C   0  0  1  0  0  0  0  0  0  0  0  0
   22.9949  -24.3646  -20.9538 C   0  0  0  0  0  0  0  0  0  0  0  0
   23.1158  -25.1668  -22.2222 C   0  0  0  0  0  0  0  0  0  0  0  0
   22.3584  -26.2656  -22.5862 C   0  0  0  0  0  0  0  0  0  0  0  0
   22.7864  -26.6707  -23.7957 N   0  0  0  0  0  0  0  0  0  0  0  0
   23.7712  -25.8957  -24.2253 C   0  0  0  0  0  0  0  0  0  0  0  0
   24.5270  -25.9206  -25.4040 C   0  0  0  0  0  0  0  0  0  0  0  0
   25.5219  -24.9800  -25.6120 C   0  0  0  0  0  0  0  0  0  0  0  0
   25.7436  -24.0311  -24.6373 C   0  0  0  0  0  0  0  0  0  0  0  0
   24.9990  -24.0076  -23.4786 C   0  0  0  0  0  0  0  0  0  0  0  0
   23.9970  -24.9435  -23.2540 C   0  0  0  0  0  0  0  0  0  0  0  0
   24.3022  -23.9089  -18.8982 C   0  0  0  0  0  0  0  0  0  0  0  0
   23.4162  -23.9850  -18.0121 O   0  0  0  0  0  0  0  0  0  0  0  0
   29.9750  -23.8413  -15.9240 N   0  0  0  0  0  0  0  0  0  0  0  0
   30.5471  -23.6048  -17.1984 C   0  0  0  0  0  0  0  0  0  0  0  0
   31.2622  -24.4574  -17.8501 N   0  0  0  0  0  0  0  0  0  0  0  0
   30.3076  -22.3319  -17.7966 N   0  0  0  0  0  0  0  0  0  0  0  0
   29.1421  -21.5147  -17.4889 C   0  0  0  0  0  0  0  0  0  0  0  0
   27.8632  -22.2587  -17.7597 C   0  0  0  0  0  0  0  0  0  0  0  0
   26.6899  -21.3901  -17.4355 C   0  0  0  0  0  0  0  0  0  0  0  0
   25.4142  -22.1249  -17.6156 C   0  0  2  0  0  0  0  0  0  0  0  0
   25.3789  -23.0035  -18.7483 N   0  0  0  0  0  0  0  0  0  0  0  0
   24.2463  -21.1854  -17.7396 C   0  0  0  0  0  0  0  0  0  0  0  0
   24.1593  -20.5122  -18.7906 O   0  0  0  0  0  0  0  0  0  0  0  0
   31.5629  -24.2075  -18.8321 N   0  0  0  0  0  0  0  0  0  0  0  0
   23.2560  -21.0254  -16.7486 C   0  0  1  0  0  0  0  0  0  0  0  0
   22.2228  -19.9739  -16.8534 C   0  0  0  0  0  0  0  0  0  0  0  0
   20.9641  -20.5581  -17.3968 C   0  0  0  0  0  0  0  0  0  0  0  0
   19.9252  -19.5449  -17.5976 C   0  0  0  0  0  0  0  0  0  0  0  0
   20.1419  -18.1639  -17.4054 N   0  0  0  0  0  0  0  0  0  0  0  0
   18.9750  -17.5475  -17.6729 C   0  0  0  0  0  0  0  0  0  0  0  0
   18.0454  -18.4497  -18.0184 N   0  0  0  0  0  0  0  0  0  0  0  0
   18.6515  -19.6455  -17.9630 C   0  0  0  0  0  0  0  0  0  0  0  0
   21.9969  -19.3652  -15.5423 O   0  0  0  0  0  0  0  0  0  0  0  0
   21.1612  -18.3333  -15.2039 O   0  0  0  0  0  0  0  0  0  0  0  0
  2  1  1  1
  3  2  1  0
  3  4  1  0
  4  5  2  0
  5  6  1  0
  7  6  1  0
  8  7  2  0
  9  8  1  0
 10 11  1  0
 10  9  2  0
 11 12  2  0
 12  4  1  0
 12  7  1  0
 13  2  1  0
 13 14  2  0
 16 15  1  0
 17 16  2  0
 18 16  1  0
 19 20  1  0
 19 18  1  0
 20 21  1  0
 22 21  1  6
 22 23  1  0
 23 13  1  0
 24 22  1  0
 25 24  2  0
 26 24  1  0
 27 26  1  0
 27 34  1  0
 27 28  1  6
 29 28  1  0
 30 29  2  0
 31 30  1  0
 32 31  1  0
 32 33  2  0
 33 29  1  0
 34 35  1  0
 36 34  2  0
M  END
$$$$
