WRH.pdb
     RDKit          3D

 36 38  0  0  1  0  0  0  0  0999 V2000
   24.5551   -9.6524  -16.4010 N   0  0  0  0  0  0  0  0  0  0  0  0
   23.1793  -10.0714  -16.3015 C   0  0  1  0  0  0  0  0  0  0  0  0
   22.3079   -8.9357  -16.7942 C   0  0  0  0  0  0  0  0  0  0  0  0
   22.3770   -7.8718  -15.7311 C   0  0  0  0  0  0  0  0  0  0  0  0
   22.7569   -6.5523  -15.8988 C   0  0  0  0  0  0  0  0  0  0  0  0
   22.6673   -5.9487  -14.6997 N   0  0  0  0  0  0  0  0  0  0  0  0
   22.2526   -6.8041  -13.7771 C   0  0  0  0  0  0  0  0  0  0  0  0
   22.0125   -6.6485  -12.4062 C   0  0  0  0  0  0  0  0  0  0  0  0
   21.5783   -7.7243  -11.6499 C   0  0  0  0  0  0  0  0  0  0  0  0
   21.3920   -8.9369  -12.2781 C   0  0  0  0  0  0  0  0  0  0  0  0
   21.6281   -9.0882  -13.6267 C   0  0  0  0  0  0  0  0  0  0  0  0
   22.0637   -8.0194  -14.4003 C   0  0  0  0  0  0  0  0  0  0  0  0
   22.9522  -11.3103  -17.0912 C   0  0  0  0  0  0  0  0  0  0  0  0
   23.4429  -11.3356  -18.2464 O   0  0  0  0  0  0  0  0  0  0  0  0
   19.7484  -18.5054  -17.2385 N   0  0  0  0  0  0  0  0  0  0  0  0
   20.7967  -18.9759  -18.0674 C   0  0  0  0  0  0  0  0  0  0  0  0
   20.6471  -19.8235  -19.0276 N   0  0  0  0  0  0  0  0  0  0  0  0
   22.1063  -18.4687  -17.8166 N   0  0  0  0  0  0  0  0  0  0  0  0
   22.3642  -17.3207  -16.9583 C   0  0  0  0  0  0  0  0  0  0  0  0
   22.0605  -16.0280  -17.6650 C   0  0  0  0  0  0  0  0  0  0  0  0
   22.3823  -14.8718  -16.7730 C   0  0  0  0  0  0  0  0  0  0  0  0
   22.0656  -13.5821  -17.4334 C   0  0  2  0  0  0  0  0  0  0  0  0
   22.2282  -12.4238  -16.6038 N   0  0  0  0  0  0  0  0  0  0  0  0
   20.6580  -13.5614  -17.9627 C   0  0  0  0  0  0  0  0  0  0  0  0
   19.7526  -13.2100  -17.1738 O   0  0  0  0  0  0  0  0  0  0  0  0
   21.4924  -20.0653  -19.6144 N   0  0  0  0  0  0  0  0  0  0  0  0
   20.3082  -13.9108  -19.2832 C   0  0  2  0  0  0  0  0  0  0  0  0
   18.9079  -13.8506  -19.7518 C   0  0  0  0  0  0  0  0  0  0  0  0
   18.8707  -13.3832  -21.1665 C   0  0  0  0  0  0  0  0  0  0  0  0
   19.1168  -11.9436  -21.2805 C   0  0  0  0  0  0  0  0  0  0  0  0
   19.2382  -11.0873  -20.1655 N   0  0  0  0  0  0  0  0  0  0  0  0
   19.4509   -9.8488  -20.6493 C   0  0  0  0  0  0  0  0  0  0  0  0
   19.4701   -9.8741  -21.9896 N   0  0  0  0  0  0  0  0  0  0  0  0
   19.2655  -11.1535  -22.3385 C   0  0  0  0  0  0  0  0  0  0  0  0
   18.2801  -15.1650  -19.6156 O   0  0  0  0  0  0  0  0  0  0  0  0
   16.9878  -15.4718  -19.2787 O   0  0  0  0  0  0  0  0  0  0  0  0
  2  1  1  6
  3  2  1  0
  3  4  1  0
  4  5  2  0
  5  6  1  0
  7  6  1  0
  8  7  2  0
  9  8  1  0
 10 11  1  0
 10  9  2  0
 11 12  2  0
 12  4  1  0
 12  7  1  0
 13  2  1  0
 13 14  2  0
 16 15  1  0
 17 16  2  0
 18 16  1  0
 19 20  1  0
 19 18  1  0
 20 21  1  0
 22 21  1  1
 22 23  1  0
 23 13  1  0
 24 22  1  0
 25 24  2  0
 26 24  1  0
 27 26  1  0
 27 34  1  0
 27 28  1  6
 29 28  1  0
 30 29  2  0
 31 30  1  0
 32 31  1  0
 32 33  2  0
 33 29  1  0
 34 35  1  0
 36 34  2  0
M  END
$$$$
