WRH.pdb
     RDKit          3D

 36 38  0  0  1  0  0  0  0  0999 V2000
   28.0387  -20.5905   -9.1777 N   0  0  0  0  0  0  0  0  0  0  0  0
   26.6039  -20.7014   -9.0907 C   0  0  1  0  0  0  0  0  0  0  0  0
   26.1243  -19.7382   -8.0258 C   0  0  0  0  0  0  0  0  0  0  0  0
   27.3221  -19.4514   -7.1597 C   0  0  0  0  0  0  0  0  0  0  0  0
   28.2283  -18.4172   -7.3102 C   0  0  0  0  0  0  0  0  0  0  0  0
   29.1332  -18.5233   -6.3202 N   0  0  0  0  0  0  0  0  0  0  0  0
   28.8581  -19.5631   -5.5468 C   0  0  0  0  0  0  0  0  0  0  0  0
   29.5008  -20.0731   -4.4119 C   0  0  0  0  0  0  0  0  0  0  0  0
   29.0022  -21.1986   -3.7774 C   0  0  0  0  0  0  0  0  0  0  0  0
   27.8696  -21.7943   -4.2893 C   0  0  0  0  0  0  0  0  0  0  0  0
   27.2383  -21.2911   -5.4054 C   0  0  0  0  0  0  0  0  0  0  0  0
   27.7249  -20.1627   -6.0539 C   0  0  0  0  0  0  0  0  0  0  0  0
   25.9769  -20.4098  -10.4068 C   0  0  0  0  0  0  0  0  0  0  0  0
   25.5769  -19.2339  -10.5881 O   0  0  0  0  0  0  0  0  0  0  0  0
   27.9541  -24.3199  -17.3653 N   0  0  0  0  0  0  0  0  0  0  0  0
   27.0784  -24.6492  -16.3014 C   0  0  0  0  0  0  0  0  0  0  0  0
   26.5448  -25.8097  -16.1241 N   0  0  0  0  0  0  0  0  0  0  0  0
   26.7730  -23.6187  -15.3631 N   0  0  0  0  0  0  0  0  0  0  0  0
   27.3018  -22.2657  -15.4670 C   0  0  0  0  0  0  0  0  0  0  0  0
   26.9028  -21.4282  -14.2830 C   0  0  0  0  0  0  0  0  0  0  0  0
   25.5289  -21.8073  -13.8305 C   0  0  0  0  0  0  0  0  0  0  0  0
   25.1264  -21.0301  -12.6330 C   0  0  2  0  0  0  0  0  0  0  0  0
   25.8208  -21.3771  -11.4274 N   0  0  0  0  0  0  0  0  0  0  0  0
   23.6538  -21.1610  -12.3567 C   0  0  0  0  0  0  0  0  0  0  0  0
   23.2937  -21.1830  -11.1586 O   0  0  0  0  0  0  0  0  0  0  0  0
   25.9697  -25.9650  -15.2509 N   0  0  0  0  0  0  0  0  0  0  0  0
   22.6697  -21.2576  -13.3618 C   0  0  2  0  0  0  0  0  0  0  0  0
   21.4545  -20.4169  -13.3349 C   0  0  0  0  0  0  0  0  0  0  0  0
   21.8395  -18.9777  -13.2940 C   0  0  0  0  0  0  0  0  0  0  0  0
   20.6722  -18.0930  -13.2691 C   0  0  0  0  0  0  0  0  0  0  0  0
   19.3438  -18.5641  -13.2011 N   0  0  0  0  0  0  0  0  0  0  0  0
   18.5469  -17.4786  -13.2041 C   0  0  0  0  0  0  0  0  0  0  0  0
   19.2875  -16.3629  -13.2696 N   0  0  0  0  0  0  0  0  0  0  0  0
   20.5658  -16.7690  -13.3075 C   0  0  0  0  0  0  0  0  0  0  0  0
   20.6230  -20.7058  -14.5035 O   0  0  0  0  0  0  0  0  0  0  0  0
   19.2786  -20.9645  -14.5617 O   0  0  0  0  0  0  0  0  0  0  0  0
  2  1  1  6
  3  2  1  0
  3  4  1  0
  4  5  2  0
  5  6  1  0
  7  6  1  0
  8  7  2  0
  9  8  1  0
 10 11  1  0
 10  9  2  0
 11 12  2  0
 12  4  1  0
 12  7  1  0
 13  2  1  0
 13 14  2  0
 16 15  1  0
 17 16  2  0
 18 16  1  0
 19 20  1  0
 19 18  1  0
 20 21  1  0
 22 21  1  6
 22 23  1  0
 23 13  1  0
 24 22  1  0
 25 24  2  0
 26 24  1  0
 27 26  1  0
 27 34  1  0
 27 28  1  1
 29 28  1  0
 30 29  2  0
 31 30  1  0
 32 31  1  0
 32 33  2  0
 33 29  1  0
 34 35  1  0
 36 34  2  0
M  END
$$$$
