WRH.pdb
     RDKit          3D

 36 38  0  0  1  0  0  0  0  0999 V2000
   15.3072  -12.7149  -20.7060 N   0  0  0  0  0  0  0  0  0  0  0  0
   16.5881  -12.1140  -20.4291 C   0  0  1  0  0  0  0  0  0  0  0  0
   16.6613  -10.8019  -21.1807 C   0  0  0  0  0  0  0  0  0  0  0  0
   17.1913  -11.1395  -22.5489 C   0  0  0  0  0  0  0  0  0  0  0  0
   16.9896  -12.3135  -23.2521 C   0  0  0  0  0  0  0  0  0  0  0  0
   17.6277  -12.1953  -24.4307 N   0  0  0  0  0  0  0  0  0  0  0  0
   18.2240  -11.0158  -24.5216 C   0  0  0  0  0  0  0  0  0  0  0  0
   18.9977  -10.4414  -25.5377 C   0  0  0  0  0  0  0  0  0  0  0  0
   19.5190   -9.1682  -25.3792 C   0  0  0  0  0  0  0  0  0  0  0  0
   19.2574   -8.4920  -24.2070 C   0  0  0  0  0  0  0  0  0  0  0  0
   18.4958   -9.0582  -23.2087 C   0  0  0  0  0  0  0  0  0  0  0  0
   17.9649  -10.3343  -23.3514 C   0  0  0  0  0  0  0  0  0  0  0  0
   16.7645  -11.9113  -18.9669 C   0  0  0  0  0  0  0  0  0  0  0  0
   15.7232  -11.6849  -18.3035 O   0  0  0  0  0  0  0  0  0  0  0  0
   21.8033  -17.0130  -15.4493 N   0  0  0  0  0  0  0  0  0  0  0  0
   21.0254  -17.2385  -16.6117 C   0  0  0  0  0  0  0  0  0  0  0  0
   21.0486  -18.3226  -17.3098 N   0  0  0  0  0  0  0  0  0  0  0  0
   20.1560  -16.1879  -17.0307 N   0  0  0  0  0  0  0  0  0  0  0  0
   19.9496  -14.9703  -16.2587 C   0  0  0  0  0  0  0  0  0  0  0  0
   19.1116  -13.9764  -17.0153 C   0  0  0  0  0  0  0  0  0  0  0  0
   18.8047  -12.8006  -16.1438 C   0  0  0  0  0  0  0  0  0  0  0  0
   18.0988  -11.7406  -16.9042 C   0  0  2  0  0  0  0  0  0  0  0  0
   18.0210  -11.9632  -18.3187 N   0  0  0  0  0  0  0  0  0  0  0  0
   18.7334  -10.3931  -16.6959 C   0  0  0  0  0  0  0  0  0  0  0  0
   19.8436  -10.1910  -17.2364 O   0  0  0  0  0  0  0  0  0  0  0  0
   20.3465  -18.4252  -18.0932 N   0  0  0  0  0  0  0  0  0  0  0  0
   18.1517   -9.3581  -15.9352 C   0  0  1  0  0  0  0  0  0  0  0  0
   18.8368   -8.0625  -15.7444 C   0  0  0  0  0  0  0  0  0  0  0  0
   17.8534   -6.9500  -15.8726 C   0  0  0  0  0  0  0  0  0  0  0  0
   18.2634   -5.9614  -16.8728 C   0  0  0  0  0  0  0  0  0  0  0  0
   19.4947   -6.0184  -17.5597 N   0  0  0  0  0  0  0  0  0  0  0  0
   19.5281   -4.9545  -18.3844 C   0  0  0  0  0  0  0  0  0  0  0  0
   18.4020   -4.2378  -18.2587 N   0  0  0  0  0  0  0  0  0  0  0  0
   17.6601   -4.8728  -17.3385 C   0  0  0  0  0  0  0  0  0  0  0  0
   19.4949   -8.0348  -14.4381 O   0  0  0  0  0  0  0  0  0  0  0  0
   19.5214   -9.0002  -13.4659 O   0  0  0  0  0  0  0  0  0  0  0  0
  2  1  1  1
  3  2  1  0
  3  4  1  0
  4  5  2  0
  5  6  1  0
  7  6  1  0
  8  7  2  0
  9  8  1  0
 10 11  1  0
 10  9  2  0
 11 12  2  0
 12  4  1  0
 12  7  1  0
 13  2  1  0
 13 14  2  0
 16 15  1  0
 17 16  2  0
 18 16  1  0
 19 20  1  0
 19 18  1  0
 20 21  1  0
 22 21  1  1
 22 23  1  0
 23 13  1  0
 24 22  1  0
 25 24  2  0
 26 24  1  0
 27 26  1  0
 27 34  1  0
 27 28  1  1
 29 28  1  0
 30 29  2  0
 31 30  1  0
 32 31  1  0
 32 33  2  0
 33 29  1  0
 34 35  1  0
 36 34  2  0
M  END
$$$$
