WRH.pdb
     RDKit          3D

 36 38  0  0  1  0  0  0  0  0999 V2000
   21.2642  -25.5052  -17.0048 N   0  0  0  0  0  0  0  0  0  0  0  0
   22.0028  -25.8909  -15.8283 C   0  0  1  0  0  0  0  0  0  0  0  0
   22.0814  -24.6892  -14.9109 C   0  0  0  0  0  0  0  0  0  0  0  0
   22.9102  -23.6663  -15.6415 C   0  0  0  0  0  0  0  0  0  0  0  0
   22.4988  -22.4186  -16.0746 C   0  0  0  0  0  0  0  0  0  0  0  0
   23.5512  -21.8282  -16.6695 N   0  0  0  0  0  0  0  0  0  0  0  0
   24.6097  -22.6244  -16.6414 C   0  0  0  0  0  0  0  0  0  0  0  0
   25.9124  -22.4562  -17.1268 C   0  0  0  0  0  0  0  0  0  0  0  0
   26.8486  -23.4645  -16.9693 C   0  0  0  0  0  0  0  0  0  0  0  0
   26.4653  -24.6233  -16.3292 C   0  0  0  0  0  0  0  0  0  0  0  0
   25.1836  -24.7870  -15.8518 C   0  0  0  0  0  0  0  0  0  0  0  0
   24.2321  -23.7856  -16.0011 C   0  0  0  0  0  0  0  0  0  0  0  0
   21.3484  -27.0439  -15.1556 C   0  0  0  0  0  0  0  0  0  0  0  0
   20.1381  -26.9027  -14.8537 O   0  0  0  0  0  0  0  0  0  0  0  0
   24.5931  -33.0502  -14.3857 N   0  0  0  0  0  0  0  0  0  0  0  0
   24.2196  -33.1759  -13.0249 C   0  0  0  0  0  0  0  0  0  0  0  0
   25.0497  -33.2996  -12.0458 N   0  0  0  0  0  0  0  0  0  0  0  0
   22.8248  -33.1607  -12.7256 N   0  0  0  0  0  0  0  0  0  0  0  0
   21.7932  -33.0354  -13.7460 C   0  0  0  0  0  0  0  0  0  0  0  0
   21.1002  -31.7029  -13.6650 C   0  0  0  0  0  0  0  0  0  0  0  0
   21.9440  -30.6496  -14.3088 C   0  0  0  0  0  0  0  0  0  0  0  0
   21.3063  -29.3147  -14.2037 C   0  0  2  0  0  0  0  0  0  0  0  0
   22.0179  -28.2533  -14.8545 N   0  0  0  0  0  0  0  0  0  0  0  0
   21.1056  -28.9077  -12.7698 C   0  0  0  0  0  0  0  0  0  0  0  0
   22.1121  -28.5181  -12.1368 O   0  0  0  0  0  0  0  0  0  0  0  0
   24.6569  -33.4546  -11.0768 N   0  0  0  0  0  0  0  0  0  0  0  0
   19.8603  -28.9396  -12.1093 C   0  0  1  0  0  0  0  0  0  0  0  0
   19.7117  -28.4589  -10.7197 C   0  0  0  0  0  0  0  0  0  0  0  0
   18.5744  -27.4993  -10.6384 C   0  0  0  0  0  0  0  0  0  0  0  0
   18.8217  -26.2810  -11.4133 C   0  0  0  0  0  0  0  0  0  0  0  0
   19.8719  -25.3821  -11.1302 N   0  0  0  0  0  0  0  0  0  0  0  0
   19.7857  -24.3881  -12.0346 C   0  0  0  0  0  0  0  0  0  0  0  0
   18.7535  -24.6055  -12.8620 N   0  0  0  0  0  0  0  0  0  0  0  0
   18.1927  -25.7562  -12.4597 C   0  0  0  0  0  0  0  0  0  0  0  0
   19.5075  -29.5938   -9.8193 O   0  0  0  0  0  0  0  0  0  0  0  0
   19.4626  -29.6099   -8.4497 O   0  0  0  0  0  0  0  0  0  0  0  0
  2  1  1  6
  3  2  1  0
  3  4  1  0
  4  5  2  0
  5  6  1  0
  7  6  1  0
  8  7  2  0
  9  8  1  0
 10 11  1  0
 10  9  2  0
 11 12  2  0
 12  4  1  0
 12  7  1  0
 13  2  1  0
 13 14  2  0
 16 15  1  0
 17 16  2  0
 18 16  1  0
 19 20  1  0
 19 18  1  0
 20 21  1  0
 22 21  1  1
 22 23  1  0
 23 13  1  0
 24 22  1  0
 25 24  2  0
 26 24  1  0
 27 26  1  0
 27 34  1  0
 27 28  1  1
 29 28  1  0
 30 29  2  0
 31 30  1  0
 32 31  1  0
 32 33  2  0
 33 29  1  0
 34 35  1  0
 36 34  2  0
M  END
$$$$
