WRH.pdb
     RDKit          3D

 36 38  0  0  1  0  0  0  0  0999 V2000
   21.2982  -22.6265  -13.9324 N   0  0  0  0  0  0  0  0  0  0  0  0
   20.8984  -22.4794  -12.5551 C   0  0  1  0  0  0  0  0  0  0  0  0
   20.7242  -21.0021  -12.2742 C   0  0  0  0  0  0  0  0  0  0  0  0
   22.1125  -20.4533  -12.0781 C   0  0  0  0  0  0  0  0  0  0  0  0
   22.9154  -19.8615  -13.0365 C   0  0  0  0  0  0  0  0  0  0  0  0
   24.0670  -19.5063  -12.4382 N   0  0  0  0  0  0  0  0  0  0  0  0
   24.0465  -19.8357  -11.1552 C   0  0  0  0  0  0  0  0  0  0  0  0
   24.9968  -19.6756  -10.1392 C   0  0  0  0  0  0  0  0  0  0  0  0
   24.7243  -20.1196   -8.8560 C   0  0  0  0  0  0  0  0  0  0  0  0
   23.5062  -20.7163   -8.6117 C   0  0  0  0  0  0  0  0  0  0  0  0
   22.5722  -20.8726   -9.6120 C   0  0  0  0  0  0  0  0  0  0  0  0
   22.8291  -20.4326  -10.9047 C   0  0  0  0  0  0  0  0  0  0  0  0
   19.6437  -23.2324  -12.2924 C   0  0  0  0  0  0  0  0  0  0  0  0
   18.6410  -22.9043  -12.9727 O   0  0  0  0  0  0  0  0  0  0  0  0
   18.1615  -30.3641   -7.8740 N   0  0  0  0  0  0  0  0  0  0  0  0
   17.6092  -29.1764   -7.3341 C   0  0  0  0  0  0  0  0  0  0  0  0
   17.2008  -29.0452   -6.1180 N   0  0  0  0  0  0  0  0  0  0  0  0
   17.5038  -28.0503   -8.2037 N   0  0  0  0  0  0  0  0  0  0  0  0
   17.1048  -28.1578   -9.6002 C   0  0  0  0  0  0  0  0  0  0  0  0
   16.9867  -26.8031  -10.2430 C   0  0  0  0  0  0  0  0  0  0  0  0
   18.3352  -26.1634  -10.3351 C   0  0  0  0  0  0  0  0  0  0  0  0
   18.2731  -24.8907  -11.0942 C   0  0  2  0  0  0  0  0  0  0  0  0
   19.5431  -24.2702  -11.3362 N   0  0  0  0  0  0  0  0  0  0  0  0
   17.4017  -23.8766  -10.4056 C   0  0  0  0  0  0  0  0  0  0  0  0
   17.9745  -22.9655   -9.7675 O   0  0  0  0  0  0  0  0  0  0  0  0
   16.7712  -28.1221   -5.8341 N   0  0  0  0  0  0  0  0  0  0  0  0
   15.9922  -23.8962  -10.4411 C   0  0  1  0  0  0  0  0  0  0  0  0
   15.1886  -22.8813   -9.7280 C   0  0  0  0  0  0  0  0  0  0  0  0
   15.8263  -22.5637   -8.4190 C   0  0  0  0  0  0  0  0  0  0  0  0
   15.7644  -23.6907   -7.4852 C   0  0  0  0  0  0  0  0  0  0  0  0
   15.2816  -24.9676   -7.8424 N   0  0  0  0  0  0  0  0  0  0  0  0
   15.3673  -25.7367   -6.7403 C   0  0  0  0  0  0  0  0  0  0  0  0
   15.8701  -25.0266   -5.7203 N   0  0  0  0  0  0  0  0  0  0  0  0
   16.0991  -23.7959   -6.2035 C   0  0  0  0  0  0  0  0  0  0  0  0
   15.0564  -21.6808  -10.5535 O   0  0  0  0  0  0  0  0  0  0  0  0
   14.5962  -20.4391  -10.2010 O   0  0  0  0  0  0  0  0  0  0  0  0
  2  1  1  6
  3  2  1  0
  3  4  1  0
  4  5  2  0
  5  6  1  0
  7  6  1  0
  8  7  2  0
  9  8  1  0
 10 11  1  0
 10  9  2  0
 11 12  2  0
 12  4  1  0
 12  7  1  0
 13  2  1  0
 13 14  2  0
 16 15  1  0
 17 16  2  0
 18 16  1  0
 19 20  1  0
 19 18  1  0
 20 21  1  0
 22 21  1  1
 22 23  1  0
 23 13  1  0
 24 22  1  0
 25 24  2  0
 26 24  1  0
 27 26  1  0
 27 34  1  0
 27 28  1  1
 29 28  1  0
 30 29  2  0
 31 30  1  0
 32 31  1  0
 32 33  2  0
 33 29  1  0
 34 35  1  0
 36 34  2  0
M  END
$$$$
