WRH.pdb
     RDKit          3D

 36 38  0  0  1  0  0  0  0  0999 V2000
   28.0214  -19.4321   -9.7596 N   0  0  0  0  0  0  0  0  0  0  0  0
   26.9077  -20.3379   -9.6267 C   0  0  1  0  0  0  0  0  0  0  0  0
   26.0822  -19.8926   -8.4383 C   0  0  0  0  0  0  0  0  0  0  0  0
   27.0698  -19.4267   -7.4017 C   0  0  0  0  0  0  0  0  0  0  0  0
   27.6010  -18.1561   -7.2714 C   0  0  0  0  0  0  0  0  0  0  0  0
   28.4314  -18.1701   -6.2129 N   0  0  0  0  0  0  0  0  0  0  0  0
   28.4613  -19.3735   -5.6597 C   0  0  0  0  0  0  0  0  0  0  0  0
   29.1657  -19.8723   -4.5570 C   0  0  0  0  0  0  0  0  0  0  0  0
   29.0203  -21.1970   -4.1804 C   0  0  0  0  0  0  0  0  0  0  0  0
   28.1730  -21.9996   -4.9136 C   0  0  0  0  0  0  0  0  0  0  0  0
   27.4804  -21.5073   -5.9977 C   0  0  0  0  0  0  0  0  0  0  0  0
   27.6144  -20.1809   -6.3890 C   0  0  0  0  0  0  0  0  0  0  0  0
   26.0974  -20.3556  -10.8730 C   0  0  0  0  0  0  0  0  0  0  0  0
   25.4429  -19.3158  -11.1300 O   0  0  0  0  0  0  0  0  0  0  0  0
   29.6592  -22.7459  -16.8291 N   0  0  0  0  0  0  0  0  0  0  0  0
   28.2912  -22.8791  -17.1726 C   0  0  0  0  0  0  0  0  0  0  0  0
   27.8093  -23.8211  -17.9097 N   0  0  0  0  0  0  0  0  0  0  0  0
   27.3900  -21.8990  -16.6602 N   0  0  0  0  0  0  0  0  0  0  0  0
   27.6681  -21.1071  -15.4700 C   0  0  0  0  0  0  0  0  0  0  0  0
   27.3485  -21.8720  -14.2149 C   0  0  0  0  0  0  0  0  0  0  0  0
   25.8739  -22.1006  -14.1190 C   0  0  0  0  0  0  0  0  0  0  0  0
   25.2921  -21.3660  -12.9693 C   0  0  2  0  0  0  0  0  0  0  0  0
   26.0401  -21.4644  -11.7498 N   0  0  0  0  0  0  0  0  0  0  0  0
   23.8893  -21.8208  -12.6737 C   0  0  0  0  0  0  0  0  0  0  0  0
   23.6383  -22.1863  -11.5037 O   0  0  0  0  0  0  0  0  0  0  0  0
   26.7643  -23.8451  -18.0666 N   0  0  0  0  0  0  0  0  0  0  0  0
   22.8548  -21.8558  -13.6311 C   0  0  2  0  0  0  0  0  0  0  0  0
   21.5846  -21.1301  -13.4211 C   0  0  0  0  0  0  0  0  0  0  0  0
   21.8517  -19.6673  -13.3212 C   0  0  0  0  0  0  0  0  0  0  0  0
   20.6452  -18.9057  -12.9892 C   0  0  0  0  0  0  0  0  0  0  0  0
   19.3848  -19.5038  -12.7776 N   0  0  0  0  0  0  0  0  0  0  0  0
   18.5232  -18.5058  -12.5037 C   0  0  0  0  0  0  0  0  0  0  0  0
   19.1601  -17.3263  -12.5303 N   0  0  0  0  0  0  0  0  0  0  0  0
   20.4393  -17.6030  -12.8262 C   0  0  0  0  0  0  0  0  0  0  0  0
   20.6576  -21.4218  -14.5147 O   0  0  0  0  0  0  0  0  0  0  0  0
   19.3309  -21.7592  -14.4528 O   0  0  0  0  0  0  0  0  0  0  0  0
  2  1  1  6
  3  2  1  0
  3  4  1  0
  4  5  2  0
  5  6  1  0
  7  6  1  0
  8  7  2  0
  9  8  1  0
 10 11  1  0
 10  9  2  0
 11 12  2  0
 12  4  1  0
 12  7  1  0
 13  2  1  0
 13 14  2  0
 16 15  1  0
 17 16  2  0
 18 16  1  0
 19 20  1  0
 19 18  1  0
 20 21  1  0
 22 21  1  6
 22 23  1  0
 23 13  1  0
 24 22  1  0
 25 24  2  0
 26 24  1  0
 27 26  1  0
 27 34  1  0
 27 28  1  1
 29 28  1  0
 30 29  2  0
 31 30  1  0
 32 31  1  0
 32 33  2  0
 33 29  1  0
 34 35  1  0
 36 34  2  0
M  END
$$$$
