WRH.pdb
     RDKit          3D

 36 38  0  0  1  0  0  0  0  0999 V2000
   27.6679  -19.3944   -9.7692 N   0  0  0  0  0  0  0  0  0  0  0  0
   26.9291  -20.6323   -9.7532 C   0  0  1  0  0  0  0  0  0  0  0  0
   26.5714  -20.9447   -8.3158 C   0  0  0  0  0  0  0  0  0  0  0  0
   27.8636  -20.8796   -7.5458 C   0  0  0  0  0  0  0  0  0  0  0  0
   29.0872  -21.3980   -7.9299 C   0  0  0  0  0  0  0  0  0  0  0  0
   29.9727  -21.1103   -6.9587 N   0  0  0  0  0  0  0  0  0  0  0  0
   29.3873  -20.4390   -5.9781 C   0  0  0  0  0  0  0  0  0  0  0  0
   29.8866  -19.9302   -4.7727 C   0  0  0  0  0  0  0  0  0  0  0  0
   29.0470  -19.2560   -3.9018 C   0  0  0  0  0  0  0  0  0  0  0  0
   27.7228  -19.1027   -4.2518 C   0  0  0  0  0  0  0  0  0  0  0  0
   27.2333  -19.6033   -5.4380 C   0  0  0  0  0  0  0  0  0  0  0  0
   28.0617  -20.2819   -6.3233 C   0  0  0  0  0  0  0  0  0  0  0  0
   25.7140  -20.5262  -10.6031 C   0  0  0  0  0  0  0  0  0  0  0  0
   25.0285  -19.4828  -10.4720 O   0  0  0  0  0  0  0  0  0  0  0  0
   27.1402  -19.5417  -17.9841 N   0  0  0  0  0  0  0  0  0  0  0  0
   28.1337  -20.0537  -17.1136 C   0  0  0  0  0  0  0  0  0  0  0  0
   29.3363  -19.5967  -17.0249 N   0  0  0  0  0  0  0  0  0  0  0  0
   27.7683  -21.1506  -16.2777 N   0  0  0  0  0  0  0  0  0  0  0  0
   26.4467  -21.7620  -16.2996 C   0  0  0  0  0  0  0  0  0  0  0  0
   25.5444  -21.1558  -15.2598 C   0  0  0  0  0  0  0  0  0  0  0  0
   25.9074  -21.6746  -13.9052 C   0  0  0  0  0  0  0  0  0  0  0  0
   24.9819  -21.1568  -12.8682 C   0  0  2  0  0  0  0  0  0  0  0  0
   25.3165  -21.5247  -11.5232 N   0  0  0  0  0  0  0  0  0  0  0  0
   23.5668  -21.6013  -13.1165 C   0  0  0  0  0  0  0  0  0  0  0  0
   23.2907  -22.7986  -12.8803 O   0  0  0  0  0  0  0  0  0  0  0  0
   29.9960  -20.0605  -16.3416 N   0  0  0  0  0  0  0  0  0  0  0  0
   22.5472  -20.7523  -13.5938 C   0  0  2  0  0  0  0  0  0  0  0  0
   21.1690  -21.2435  -13.8021 C   0  0  0  0  0  0  0  0  0  0  0  0
   20.2450  -20.0881  -13.9820 C   0  0  0  0  0  0  0  0  0  0  0  0
   19.9813  -19.3890  -12.7220 C   0  0  0  0  0  0  0  0  0  0  0  0
   20.4459  -19.8455  -11.4703 N   0  0  0  0  0  0  0  0  0  0  0  0
   20.0106  -18.9638  -10.5502 C   0  0  0  0  0  0  0  0  0  0  0  0
   19.3061  -17.9890  -11.1425 N   0  0  0  0  0  0  0  0  0  0  0  0
   19.3076  -18.2755  -12.4533 C   0  0  0  0  0  0  0  0  0  0  0  0
   21.1279  -22.1351  -14.9614 O   0  0  0  0  0  0  0  0  0  0  0  0
   22.1275  -22.4446  -15.8462 O   0  0  0  0  0  0  0  0  0  0  0  0
  2  1  1  1
  3  2  1  0
  3  4  1  0
  4  5  2  0
  5  6  1  0
  7  6  1  0
  8  7  2  0
  9  8  1  0
 10 11  1  0
 10  9  2  0
 11 12  2  0
 12  4  1  0
 12  7  1  0
 13  2  1  0
 13 14  2  0
 16 15  1  0
 17 16  2  0
 18 16  1  0
 19 20  1  0
 19 18  1  0
 20 21  1  0
 22 21  1  6
 22 23  1  0
 23 13  1  0
 24 22  1  0
 25 24  2  0
 26 24  1  0
 27 26  1  0
 27 34  1  0
 27 28  1  1
 29 28  1  0
 30 29  2  0
 31 30  1  0
 32 31  1  0
 32 33  2  0
 33 29  1  0
 34 35  1  0
 36 34  2  0
M  END
$$$$
