WRH.pdb
     RDKit          3D

 36 38  0  0  1  0  0  0  0  0999 V2000
   25.5864  -18.8359   -9.6886 N   0  0  0  0  0  0  0  0  0  0  0  0
   26.4371  -19.9167  -10.1205 C   0  0  1  0  0  0  0  0  0  0  0  0
   26.2745  -21.0596   -9.1410 C   0  0  0  0  0  0  0  0  0  0  0  0
   26.6294  -20.4981   -7.7898 C   0  0  0  0  0  0  0  0  0  0  0  0
   25.7535  -20.0163   -6.8337 C   0  0  0  0  0  0  0  0  0  0  0  0
   26.4849  -19.6218   -5.7755 N   0  0  0  0  0  0  0  0  0  0  0  0
   27.7749  -19.8235   -5.9992 C   0  0  0  0  0  0  0  0  0  0  0  0
   28.9050  -19.5749   -5.2106 C   0  0  0  0  0  0  0  0  0  0  0  0
   30.1681  -19.8799   -5.6897 C   0  0  0  0  0  0  0  0  0  0  0  0
   30.2786  -20.4281   -6.9494 C   0  0  0  0  0  0  0  0  0  0  0  0
   29.1659  -20.6726   -7.7238 C   0  0  0  0  0  0  0  0  0  0  0  0
   27.8915  -20.3729   -7.2585 C   0  0  0  0  0  0  0  0  0  0  0  0
   26.0881  -20.3351  -11.5038 C   0  0  0  0  0  0  0  0  0  0  0  0
   24.9402  -20.0282  -11.9087 O   0  0  0  0  0  0  0  0  0  0  0  0
   32.2050  -23.9272  -14.5273 N   0  0  0  0  0  0  0  0  0  0  0  0
   31.3591  -24.1802  -15.6352 C   0  0  0  0  0  0  0  0  0  0  0  0
   31.3567  -25.2725  -16.3208 N   0  0  0  0  0  0  0  0  0  0  0  0
   30.4469  -23.1494  -16.0102 N   0  0  0  0  0  0  0  0  0  0  0  0
   30.1967  -21.9715  -15.1911 C   0  0  0  0  0  0  0  0  0  0  0  0
   28.9021  -22.0938  -14.4350 C   0  0  0  0  0  0  0  0  0  0  0  0
   28.1528  -20.8012  -14.4951 C   0  0  0  0  0  0  0  0  0  0  0  0
   26.8606  -20.8976  -13.7734 C   0  0  2  0  0  0  0  0  0  0  0  0
   26.9734  -21.0421  -12.3511 N   0  0  0  0  0  0  0  0  0  0  0  0
   26.0290  -22.0452  -14.2768 C   0  0  0  0  0  0  0  0  0  0  0  0
   26.1294  -23.1362  -13.6724 O   0  0  0  0  0  0  0  0  0  0  0  0
   30.6508  -25.3684  -17.1017 N   0  0  0  0  0  0  0  0  0  0  0  0
   25.1527  -21.9589  -15.3781 C   0  0  1  0  0  0  0  0  0  0  0  0
   24.2364  -23.0659  -15.7233 C   0  0  0  0  0  0  0  0  0  0  0  0
   24.7942  -24.3546  -15.2242 C   0  0  0  0  0  0  0  0  0  0  0  0
   23.9637  -25.5005  -15.6022 C   0  0  0  0  0  0  0  0  0  0  0  0
   22.6634  -25.3731  -16.1354 N   0  0  0  0  0  0  0  0  0  0  0  0
   22.2097  -26.6222  -16.3533 C   0  0  0  0  0  0  0  0  0  0  0  0
   23.1379  -27.5196  -15.9923 N   0  0  0  0  0  0  0  0  0  0  0  0
   24.1843  -26.8097  -15.5433 C   0  0  0  0  0  0  0  0  0  0  0  0
   22.9120  -22.8114  -15.1562 O   0  0  0  0  0  0  0  0  0  0  0  0
   21.9237  -21.9801  -15.6145 O   0  0  0  0  0  0  0  0  0  0  0  0
  2  1  1  1
  3  2  1  0
  3  4  1  0
  4  5  2  0
  5  6  1  0
  7  6  1  0
  8  7  2  0
  9  8  1  0
 10 11  1  0
 10  9  2  0
 11 12  2  0
 12  4  1  0
 12  7  1  0
 13  2  1  0
 13 14  2  0
 16 15  1  0
 17 16  2  0
 18 16  1  0
 19 20  1  0
 19 18  1  0
 20 21  1  0
 22 21  1  6
 22 23  1  0
 23 13  1  0
 24 22  1  0
 25 24  2  0
 26 24  1  0
 27 26  1  0
 27 34  1  0
 27 28  1  6
 29 28  1  0
 30 29  2  0
 31 30  1  0
 32 31  1  0
 32 33  2  0
 33 29  1  0
 34 35  1  0
 36 34  2  0
M  END
$$$$
