YDG.pdb
     RDKit          3D

 25 25  0  0  1  0  0  0  0  0999 V2000
   29.4571  -19.8914   -3.6834 O   0  0  0  0  0  0  0  0  0  0  0  0
   28.7134  -19.8681   -4.8579 C   0  0  0  0  0  0  0  0  0  0  0  0
   27.6650  -20.7463   -5.0304 C   0  0  0  0  0  0  0  0  0  0  0  0
   26.8937  -20.7677   -6.1746 C   0  0  0  0  0  0  0  0  0  0  0  0
   27.1736  -19.8771   -7.1969 C   0  0  0  0  0  0  0  0  0  0  0  0
   26.3906  -19.8583   -8.4317 C   0  0  0  0  0  0  0  0  0  0  0  0
   26.8419  -20.8588   -9.4662 C   0  0  2  0  0  0  0  0  0  0  0  0
   28.2477  -20.7151   -9.7833 N   0  0  0  0  0  0  0  0  0  0  0  0
   26.0706  -20.5389  -10.7076 C   0  0  0  0  0  0  0  0  0  0  0  0
   26.3024  -19.4605  -11.2838 O   0  0  0  0  0  0  0  0  0  0  0  0
   28.2116  -18.9852   -7.0627 C   0  0  0  0  0  0  0  0  0  0  0  0
   28.9678  -18.9932   -5.8937 C   0  0  0  0  0  0  0  0  0  0  0  0
   25.1000  -21.4172  -11.2353 N   0  0  0  0  0  0  0  0  0  0  0  0
   24.3351  -20.9611  -12.4071 C   0  0  1  0  0  0  0  0  0  0  0  0
   24.7848  -21.9022  -13.5178 C   0  0  0  0  0  0  0  0  0  0  0  0
   26.0930  -21.4708  -14.0248 C   0  0  0  0  0  0  0  0  0  0  0  0
   26.2746  -20.2072  -14.1546 O   0  0  0  0  0  0  0  0  0  0  0  0
   22.8990  -21.0554  -12.1667 C   0  0  0  0  0  0  0  0  0  0  0  0
   22.3638  -21.9193  -11.4147 O   0  0  0  0  0  0  0  0  0  0  0  0
   27.0928  -22.3809  -14.3508 O   0  0  0  0  0  0  0  0  0  0  0  0
   22.0094  -20.1407  -12.7903 N   0  0  0  0  0  0  0  0  0  0  0  0
   20.5776  -20.1480  -12.4932 C   0  0  0  0  0  0  0  0  0  0  0  0
   19.9028  -21.2503  -13.1830 C   0  0  0  0  0  0  0  0  0  0  0  0
   18.6634  -21.4014  -13.0671 O   0  0  0  0  0  0  0  0  0  0  0  0
   20.6186  -22.1393  -13.9700 O   0  0  0  0  0  0  0  0  0  0  0  0
  2  1  1  0
  3  2  2  0
  4  5  2  0
  4  3  1  0
  5 11  1  0
  6  5  1  0
  7  6  1  0
  7  8  1  6
  9  7  1  0
  9 10  2  0
 11 12  2  0
 12  2  1  0
 13  9  1  0
 14 13  1  0
 14 15  1  6
 16 15  1  0
 16 17  2  0
 18 14  1  0
 19 18  2  0
 20 16  1  0
 21 18  1  0
 22 21  1  0
 23 22  1  0
 24 23  2  0
 25 23  1  0
M  END
$$$$
