YDG.pdb
     RDKit          3D

 25 25  0  0  1  0  0  0  0  0999 V2000
   28.8464  -19.8758   -3.1887 O   0  0  0  0  0  0  0  0  0  0  0  0
   28.3807  -19.7923   -4.4960 C   0  0  0  0  0  0  0  0  0  0  0  0
   27.4543  -20.7018   -4.9598 C   0  0  0  0  0  0  0  0  0  0  0  0
   26.9578  -20.6665   -6.2469 C   0  0  0  0  0  0  0  0  0  0  0  0
   27.3994  -19.6840   -7.1166 C   0  0  0  0  0  0  0  0  0  0  0  0
   26.9089  -19.6019   -8.4917 C   0  0  0  0  0  0  0  0  0  0  0  0
   27.0110  -20.8937   -9.2635 C   0  0  2  0  0  0  0  0  0  0  0  0
   28.3874  -21.2814   -9.4932 N   0  0  0  0  0  0  0  0  0  0  0  0
   26.3965  -20.6207  -10.6000 C   0  0  0  0  0  0  0  0  0  0  0  0
   27.0928  -20.0588  -11.4650 O   0  0  0  0  0  0  0  0  0  0  0  0
   28.3232  -18.7583   -6.6915 C   0  0  0  0  0  0  0  0  0  0  0  0
   28.8014  -18.8256   -5.3856 C   0  0  0  0  0  0  0  0  0  0  0  0
   25.0652  -20.9797  -10.9012 N   0  0  0  0  0  0  0  0  0  0  0  0
   24.5719  -20.6874  -12.2567 C   0  0  1  0  0  0  0  0  0  0  0  0
   25.3806  -21.6262  -13.1433 C   0  0  0  0  0  0  0  0  0  0  0  0
   24.4807  -22.5983  -13.7756 C   0  0  0  0  0  0  0  0  0  0  0  0
   23.2973  -22.1912  -14.0589 O   0  0  0  0  0  0  0  0  0  0  0  0
   23.1393  -20.9445  -12.3616 C   0  0  0  0  0  0  0  0  0  0  0  0
   22.5197  -21.7899  -11.6548 O   0  0  0  0  0  0  0  0  0  0  0  0
   24.8832  -23.8992  -14.0575 O   0  0  0  0  0  0  0  0  0  0  0  0
   22.3514  -20.2230  -13.2974 N   0  0  0  0  0  0  0  0  0  0  0  0
   21.0573  -19.6532  -12.9244 C   0  0  0  0  0  0  0  0  0  0  0  0
   20.0567  -20.7049  -12.7267 C   0  0  0  0  0  0  0  0  0  0  0  0
   19.4579  -20.8065  -11.6298 O   0  0  0  0  0  0  0  0  0  0  0  0
   19.7573  -21.5997  -13.7425 O   0  0  0  0  0  0  0  0  0  0  0  0
  2  1  1  0
  3  2  2  0
  4  5  2  0
  4  3  1  0
  5 11  1  0
  6  5  1  0
  7  6  1  0
  7  8  1  6
  9  7  1  0
  9 10  2  0
 11 12  2  0
 12  2  1  0
 13  9  1  0
 14 13  1  0
 14 15  1  6
 16 15  1  0
 16 17  2  0
 18 14  1  0
 19 18  2  0
 20 16  1  0
 21 18  1  0
 22 21  1  0
 23 22  1  0
 24 23  2  0
 25 23  1  0
M  END
$$$$
