YDG.pdb
     RDKit          3D

 25 25  0  0  1  0  0  0  0  0999 V2000
   28.5129  -19.2816   -6.1194 O   0  0  0  0  0  0  0  0  0  0  0  0
   27.9572  -19.9154   -7.2251 C   0  0  0  0  0  0  0  0  0  0  0  0
   28.7387  -20.7202   -8.0263 C   0  0  0  0  0  0  0  0  0  0  0  0
   28.2405  -21.3731   -9.1353 C   0  0  0  0  0  0  0  0  0  0  0  0
   26.9050  -21.2223   -9.4672 C   0  0  0  0  0  0  0  0  0  0  0  0
   26.3256  -21.8886  -10.6328 C   0  0  0  0  0  0  0  0  0  0  0  0
   26.6696  -21.2407  -11.9507 C   0  0  2  0  0  0  0  0  0  0  0  0
   27.6835  -20.2168  -11.8039 N   0  0  0  0  0  0  0  0  0  0  0  0
   25.4176  -20.5643  -12.4124 C   0  0  0  0  0  0  0  0  0  0  0  0
   25.3155  -19.3354  -12.2448 O   0  0  0  0  0  0  0  0  0  0  0  0
   26.0927  -20.4277   -8.6926 C   0  0  0  0  0  0  0  0  0  0  0  0
   26.6309  -19.7847   -7.5811 C   0  0  0  0  0  0  0  0  0  0  0  0
   24.3633  -21.2747  -13.0255 N   0  0  0  0  0  0  0  0  0  0  0  0
   23.2811  -20.4894  -13.6405 C   0  0  1  0  0  0  0  0  0  0  0  0
   23.9293  -19.8990  -14.8866 C   0  0  0  0  0  0  0  0  0  0  0  0
   22.9415  -19.0977  -15.6191 C   0  0  0  0  0  0  0  0  0  0  0  0
   22.3826  -19.6536  -16.6316 O   0  0  0  0  0  0  0  0  0  0  0  0
   22.1407  -21.3365  -13.9738 C   0  0  0  0  0  0  0  0  0  0  0  0
   21.0888  -20.9163  -14.5352 O   0  0  0  0  0  0  0  0  0  0  0  0
   22.6209  -17.7985  -15.2408 O   0  0  0  0  0  0  0  0  0  0  0  0
   22.1700  -22.7240  -13.6721 N   0  0  0  0  0  0  0  0  0  0  0  0
   21.2404  -23.3140  -12.7097 C   0  0  0  0  0  0  0  0  0  0  0  0
   19.8965  -22.7512  -12.8633 C   0  0  0  0  0  0  0  0  0  0  0  0
   18.9598  -23.4654  -13.2931 O   0  0  0  0  0  0  0  0  0  0  0  0
   19.6398  -21.4282  -12.5383 O   0  0  0  0  0  0  0  0  0  0  0  0
  2  1  1  0
  3  2  2  0
  4  5  2  0
  4  3  1  0
  5 11  1  0
  6  5  1  0
  7  6  1  0
  7  8  1  1
  9  7  1  0
  9 10  2  0
 11 12  2  0
 12  2  1  0
 13  9  1  0
 14 13  1  0
 14 15  1  6
 16 15  1  0
 16 17  2  0
 18 14  1  0
 19 18  2  0
 20 16  1  0
 21 18  1  0
 22 21  1  0
 23 22  1  0
 24 23  2  0
 25 23  1  0
M  END
$$$$
