YDG.pdb
     RDKit          3D

 25 25  0  0  1  0  0  0  0  0999 V2000
   23.8038  -13.4561  -17.5365 O   0  0  0  0  0  0  0  0  0  0  0  0
   23.0762  -12.4352  -16.9352 C   0  0  0  0  0  0  0  0  0  0  0  0
   22.3060  -11.5891  -17.7042 C   0  0  0  0  0  0  0  0  0  0  0  0
   21.5641  -10.5599  -17.1613 C   0  0  0  0  0  0  0  0  0  0  0  0
   21.5856  -10.3585  -15.7917 C   0  0  0  0  0  0  0  0  0  0  0  0
   20.8210   -9.2816  -15.1641 C   0  0  0  0  0  0  0  0  0  0  0  0
   19.5069   -9.7213  -14.5684 C   0  0  2  0  0  0  0  0  0  0  0  0
   18.5734  -10.1669  -15.5821 N   0  0  0  0  0  0  0  0  0  0  0  0
   18.9207   -8.5029  -13.9281 C   0  0  0  0  0  0  0  0  0  0  0  0
   18.0414   -7.8769  -14.5475 O   0  0  0  0  0  0  0  0  0  0  0  0
   22.3418  -11.1815  -14.9906 C   0  0  0  0  0  0  0  0  0  0  0  0
   23.0773  -12.2095  -15.5743 C   0  0  0  0  0  0  0  0  0  0  0  0
   19.3334   -8.0514  -12.6562 N   0  0  0  0  0  0  0  0  0  0  0  0
   18.6479   -6.8755  -12.0963 C   0  0  1  0  0  0  0  0  0  0  0  0
   18.4098   -7.2579  -10.6408 C   0  0  0  0  0  0  0  0  0  0  0  0
   17.7113   -6.1638   -9.9554 C   0  0  0  0  0  0  0  0  0  0  0  0
   17.1883   -5.2572  -10.6978 O   0  0  0  0  0  0  0  0  0  0  0  0
   19.4756   -5.6794  -12.2129 C   0  0  0  0  0  0  0  0  0  0  0  0
   19.1771   -4.5614  -11.7037 O   0  0  0  0  0  0  0  0  0  0  0  0
   17.6162   -6.1051   -8.5693 O   0  0  0  0  0  0  0  0  0  0  0  0
   20.7013   -5.7266  -12.9287 N   0  0  0  0  0  0  0  0  0  0  0  0
   21.5577   -4.5477  -13.0511 C   0  0  0  0  0  0  0  0  0  0  0  0
   21.0904   -3.6670  -14.1246 C   0  0  0  0  0  0  0  0  0  0  0  0
   21.7278   -2.6248  -14.4069 O   0  0  0  0  0  0  0  0  0  0  0  0
   19.9427   -3.9691  -14.8413 O   0  0  0  0  0  0  0  0  0  0  0  0
  2  1  1  0
  3  2  2  0
  4  5  2  0
  4  3  1  0
  5 11  1  0
  6  5  1  0
  7  6  1  0
  7  8  1  6
  9  7  1  0
  9 10  2  0
 11 12  2  0
 12  2  1  0
 13  9  1  0
 14 13  1  0
 14 15  1  1
 16 15  1  0
 16 17  2  0
 18 14  1  0
 19 18  2  0
 20 16  1  0
 21 18  1  0
 22 21  1  0
 23 22  1  0
 24 23  2  0
 25 23  1  0
M  END
$$$$
