YDG.pdb
     RDKit          3D

 25 25  0  0  1  0  0  0  0  0999 V2000
   33.3846  -11.8628  -18.0941 O   0  0  0  0  0  0  0  0  0  0  0  0
   32.1424  -11.2445  -18.0056 C   0  0  0  0  0  0  0  0  0  0  0  0
   32.0447   -9.8724  -18.0961 C   0  0  0  0  0  0  0  0  0  0  0  0
   30.8389   -9.2061  -18.0150 C   0  0  0  0  0  0  0  0  0  0  0  0
   29.6742   -9.9327  -17.8357 C   0  0  0  0  0  0  0  0  0  0  0  0
   28.3703   -9.2778  -17.7403 C   0  0  0  0  0  0  0  0  0  0  0  0
   27.4374   -9.5863  -18.8846 C   0  0  2  0  0  0  0  0  0  0  0  0
   27.9334   -9.0699  -20.1436 N   0  0  0  0  0  0  0  0  0  0  0  0
   26.1631   -8.8647  -18.5787 C   0  0  0  0  0  0  0  0  0  0  0  0
   25.9694   -7.7580  -19.1138 O   0  0  0  0  0  0  0  0  0  0  0  0
   29.7302  -11.3034  -17.7408 C   0  0  0  0  0  0  0  0  0  0  0  0
   30.9650  -11.9408  -17.8272 C   0  0  0  0  0  0  0  0  0  0  0  0
   25.1875   -9.4001  -17.7105 N   0  0  0  0  0  0  0  0  0  0  0  0
   23.9324   -8.6480  -17.5513 C   0  0  1  0  0  0  0  0  0  0  0  0
   22.9173   -9.7195  -17.1730 C   0  0  0  0  0  0  0  0  0  0  0  0
   22.7436  -10.6475  -18.2969 C   0  0  0  0  0  0  0  0  0  0  0  0
   23.1290  -11.8574  -18.1124 O   0  0  0  0  0  0  0  0  0  0  0  0
   24.0572   -7.6306  -16.5129 C   0  0  0  0  0  0  0  0  0  0  0  0
   24.7183   -7.7869  -15.4466 O   0  0  0  0  0  0  0  0  0  0  0  0
   22.1889  -10.2432  -19.5064 O   0  0  0  0  0  0  0  0  0  0  0  0
   23.4184   -6.3715  -16.6667 N   0  0  0  0  0  0  0  0  0  0  0  0
   23.5523   -5.3212  -15.6582 C   0  0  0  0  0  0  0  0  0  0  0  0
   22.3821   -5.2852  -14.7775 C   0  0  0  0  0  0  0  0  0  0  0  0
   21.4249   -6.0721  -14.9692 O   0  0  0  0  0  0  0  0  0  0  0  0
   22.3138   -4.3861  -13.7244 O   0  0  0  0  0  0  0  0  0  0  0  0
  2  1  1  0
  3  2  2  0
  4  5  2  0
  4  3  1  0
  5 11  1  0
  6  5  1  0
  7  6  1  0
  7  8  1  6
  9  7  1  0
  9 10  2  0
 11 12  2  0
 12  2  1  0
 13  9  1  0
 14 13  1  0
 14 15  1  1
 16 15  1  0
 16 17  2  0
 18 14  1  0
 19 18  2  0
 20 16  1  0
 21 18  1  0
 22 21  1  0
 23 22  1  0
 24 23  2  0
 25 23  1  0
M  END
$$$$
