YDG.pdb
     RDKit          3D

 25 25  0  0  1  0  0  0  0  0999 V2000
   27.4351  -18.7816   -5.4428 O   0  0  0  0  0  0  0  0  0  0  0  0
   27.1227  -19.3212   -6.6855 C   0  0  0  0  0  0  0  0  0  0  0  0
   26.2522  -20.3862   -6.7781 C   0  0  0  0  0  0  0  0  0  0  0  0
   25.9067  -20.9610   -7.9842 C   0  0  0  0  0  0  0  0  0  0  0  0
   26.4486  -20.4578   -9.1545 C   0  0  0  0  0  0  0  0  0  0  0  0
   26.1192  -21.0304  -10.4590 C   0  0  0  0  0  0  0  0  0  0  0  0
   24.9200  -20.4036  -11.1252 C   0  0  2  0  0  0  0  0  0  0  0  0
   23.7149  -20.5671  -10.3386 N   0  0  0  0  0  0  0  0  0  0  0  0
   24.7229  -21.1561  -12.4031 C   0  0  0  0  0  0  0  0  0  0  0  0
   23.6632  -21.7905  -12.5560 O   0  0  0  0  0  0  0  0  0  0  0  0
   27.3210  -19.3959   -9.1036 C   0  0  0  0  0  0  0  0  0  0  0  0
   27.6461  -18.8419   -7.8684 C   0  0  0  0  0  0  0  0  0  0  0  0
   25.6948  -21.1645  -13.4265 N   0  0  0  0  0  0  0  0  0  0  0  0
   25.2319  -20.9442  -14.8062 C   0  0  1  0  0  0  0  0  0  0  0  0
   24.3249  -19.7253  -14.6903 C   0  0  0  0  0  0  0  0  0  0  0  0
   23.7445  -19.4207  -16.0036 C   0  0  0  0  0  0  0  0  0  0  0  0
   22.9426  -20.2923  -16.4973 O   0  0  0  0  0  0  0  0  0  0  0  0
   26.3551  -20.6991  -15.7048 C   0  0  0  0  0  0  0  0  0  0  0  0
   27.0271  -19.6283  -15.7198 O   0  0  0  0  0  0  0  0  0  0  0  0
   24.0437  -18.2468  -16.6864 O   0  0  0  0  0  0  0  0  0  0  0  0
   26.7568  -21.6956  -16.6334 N   0  0  0  0  0  0  0  0  0  0  0  0
   28.1690  -21.9974  -16.8635 C   0  0  0  0  0  0  0  0  0  0  0  0
   28.3225  -23.1285  -17.7819 C   0  0  0  0  0  0  0  0  0  0  0  0
   27.3107  -23.7189  -18.2288 O   0  0  0  0  0  0  0  0  0  0  0  0
   29.5810  -23.5623  -18.1693 O   0  0  0  0  0  0  0  0  0  0  0  0
  2  1  1  0
  3  2  2  0
  4  5  2  0
  4  3  1  0
  5 11  1  0
  6  5  1  0
  7  6  1  0
  7  8  1  1
  9  7  1  0
  9 10  2  0
 11 12  2  0
 12  2  1  0
 13  9  1  0
 14 13  1  0
 14 15  1  1
 16 15  1  0
 16 17  2  0
 18 14  1  0
 19 18  2  0
 20 16  1  0
 21 18  1  0
 22 21  1  0
 23 22  1  0
 24 23  2  0
 25 23  1  0
M  END
$$$$
