YDG.pdb
     RDKit          3D

 25 25  0  0  1  0  0  0  0  0999 V2000
   30.4350   -2.0570  -18.9113 O   0  0  0  0  0  0  0  0  0  0  0  0
   29.2051   -2.5379  -18.4764 C   0  0  0  0  0  0  0  0  0  0  0  0
   29.0639   -3.8651  -18.1317 C   0  0  0  0  0  0  0  0  0  0  0  0
   27.8678   -4.3962  -17.6940 C   0  0  0  0  0  0  0  0  0  0  0  0
   26.7583   -3.5744  -17.5927 C   0  0  0  0  0  0  0  0  0  0  0  0
   25.4660   -4.0852  -17.1375 C   0  0  0  0  0  0  0  0  0  0  0  0
   24.7119   -4.8760  -18.1773 C   0  0  2  0  0  0  0  0  0  0  0  0
   24.2756   -4.0448  -19.2802 N   0  0  0  0  0  0  0  0  0  0  0  0
   23.4841   -5.3860  -17.4914 C   0  0  0  0  0  0  0  0  0  0  0  0
   22.4115   -4.7831  -17.6777 O   0  0  0  0  0  0  0  0  0  0  0  0
   26.8588   -2.2444  -17.9274 C   0  0  0  0  0  0  0  0  0  0  0  0
   28.0822   -1.7442  -18.3651 C   0  0  0  0  0  0  0  0  0  0  0  0
   23.5105   -6.5188  -16.6498 N   0  0  0  0  0  0  0  0  0  0  0  0
   22.2189   -7.0598  -16.1966 C   0  0  1  0  0  0  0  0  0  0  0  0
   22.4975   -8.5462  -16.0110 C   0  0  0  0  0  0  0  0  0  0  0  0
   21.2346   -9.2542  -15.7692 C   0  0  0  0  0  0  0  0  0  0  0  0
   20.1542   -8.5829  -15.9381 O   0  0  0  0  0  0  0  0  0  0  0  0
   21.7929   -6.4297  -14.9514 C   0  0  0  0  0  0  0  0  0  0  0  0
   22.5568   -6.2277  -13.9645 O   0  0  0  0  0  0  0  0  0  0  0  0
   21.2018  -10.5878  -15.3763 O   0  0  0  0  0  0  0  0  0  0  0  0
   20.4494   -5.9972  -14.7935 N   0  0  0  0  0  0  0  0  0  0  0  0
   20.0110   -5.2989  -13.5858 C   0  0  0  0  0  0  0  0  0  0  0  0
   18.5967   -4.9277  -13.6769 C   0  0  0  0  0  0  0  0  0  0  0  0
   17.9614   -5.1225  -14.7402 O   0  0  0  0  0  0  0  0  0  0  0  0
   17.9414   -4.3582  -12.5960 O   0  0  0  0  0  0  0  0  0  0  0  0
  2  1  1  0
  3  2  2  0
  4  5  2  0
  4  3  1  0
  5 11  1  0
  6  5  1  0
  7  6  1  0
  7  8  1  6
  9  7  1  0
  9 10  2  0
 11 12  2  0
 12  2  1  0
 13  9  1  0
 14 13  1  0
 14 15  1  1
 16 15  1  0
 16 17  2  0
 18 14  1  0
 19 18  2  0
 20 16  1  0
 21 18  1  0
 22 21  1  0
 23 22  1  0
 24 23  2  0
 25 23  1  0
M  END
$$$$
