YDG.pdb
     RDKit          3D

 25 25  0  0  1  0  0  0  0  0999 V2000
   25.4803  -21.0189   -7.3095 O   0  0  0  0  0  0  0  0  0  0  0  0
   25.5129  -20.6123   -8.6386 C   0  0  0  0  0  0  0  0  0  0  0  0
   24.3845  -20.7209   -9.4231 C   0  0  0  0  0  0  0  0  0  0  0  0
   24.3597  -20.3332  -10.7473 C   0  0  0  0  0  0  0  0  0  0  0  0
   25.5066  -19.8132  -11.3226 C   0  0  0  0  0  0  0  0  0  0  0  0
   25.5369  -19.3895  -12.7218 C   0  0  0  0  0  0  0  0  0  0  0  0
   25.5951  -20.5261  -13.7116 C   0  0  2  0  0  0  0  0  0  0  0  0
   26.9327  -21.0666  -13.8393 N   0  0  0  0  0  0  0  0  0  0  0  0
   25.2258  -19.9344  -15.0351 C   0  0  0  0  0  0  0  0  0  0  0  0
   26.1233  -19.4038  -15.7145 O   0  0  0  0  0  0  0  0  0  0  0  0
   26.6526  -19.6889  -10.5727 C   0  0  0  0  0  0  0  0  0  0  0  0
   26.6396  -20.0907   -9.2398 C   0  0  0  0  0  0  0  0  0  0  0  0
   23.9031  -19.9625  -15.5268 N   0  0  0  0  0  0  0  0  0  0  0  0
   23.6494  -19.3337  -16.8331 C   0  0  1  0  0  0  0  0  0  0  0  0
   23.0313  -20.4559  -17.6578 C   0  0  0  0  0  0  0  0  0  0  0  0
   22.9717  -20.0513  -19.0675 C   0  0  0  0  0  0  0  0  0  0  0  0
   23.9995  -19.4446  -19.5387 O   0  0  0  0  0  0  0  0  0  0  0  0
   22.7441  -18.1968  -16.7024 C   0  0  0  0  0  0  0  0  0  0  0  0
   21.9918  -18.0039  -15.7048 O   0  0  0  0  0  0  0  0  0  0  0  0
   21.8591  -20.3093  -19.8611 O   0  0  0  0  0  0  0  0  0  0  0  0
   22.6720  -17.2199  -17.7306 N   0  0  0  0  0  0  0  0  0  0  0  0
   21.6559  -16.1684  -17.7125 C   0  0  0  0  0  0  0  0  0  0  0  0
   22.2451  -14.8733  -17.3633 C   0  0  0  0  0  0  0  0  0  0  0  0
   23.0847  -14.3373  -18.1249 O   0  0  0  0  0  0  0  0  0  0  0  0
   21.8868  -14.2232  -16.1925 O   0  0  0  0  0  0  0  0  0  0  0  0
  2  1  1  0
  3  2  2  0
  4  5  2  0
  4  3  1  0
  5 11  1  0
  6  5  1  0
  7  6  1  0
  7  8  1  6
  9  7  1  0
  9 10  2  0
 11 12  2  0
 12  2  1  0
 13  9  1  0
 14 13  1  0
 14 15  1  6
 16 15  1  0
 16 17  2  0
 18 14  1  0
 19 18  2  0
 20 16  1  0
 21 18  1  0
 22 21  1  0
 23 22  1  0
 24 23  2  0
 25 23  1  0
M  END
$$$$
