YDG.pdb
     RDKit          3D

 25 25  0  0  1  0  0  0  0  0999 V2000
   28.9299  -20.2506   -3.5677 O   0  0  0  0  0  0  0  0  0  0  0  0
   28.3899  -20.1163   -4.8418 C   0  0  0  0  0  0  0  0  0  0  0  0
   27.1461  -20.6392   -5.1245 C   0  0  0  0  0  0  0  0  0  0  0  0
   26.5618  -20.5354   -6.3705 C   0  0  0  0  0  0  0  0  0  0  0  0
   27.2412  -19.8830   -7.3851 C   0  0  0  0  0  0  0  0  0  0  0  0
   26.6704  -19.7467   -8.7244 C   0  0  0  0  0  0  0  0  0  0  0  0
   26.8392  -20.9659   -9.5962 C   0  0  2  0  0  0  0  0  0  0  0  0
   28.2118  -21.1415  -10.0239 N   0  0  0  0  0  0  0  0  0  0  0  0
   26.0207  -20.7082  -10.8217 C   0  0  0  0  0  0  0  0  0  0  0  0
   26.4832  -19.9457  -11.6897 O   0  0  0  0  0  0  0  0  0  0  0  0
   28.4845  -19.3478   -7.1424 C   0  0  0  0  0  0  0  0  0  0  0  0
   29.0420  -19.4721   -5.8727 C   0  0  0  0  0  0  0  0  0  0  0  0
   24.7543  -21.3002  -11.0163 N   0  0  0  0  0  0  0  0  0  0  0  0
   24.0224  -20.9524  -12.2449 C   0  0  1  0  0  0  0  0  0  0  0  0
   23.7689  -22.3015  -12.9060 C   0  0  0  0  0  0  0  0  0  0  0  0
   25.0273  -22.8220  -13.4539 C   0  0  0  0  0  0  0  0  0  0  0  0
   25.3652  -24.0080  -13.0996 O   0  0  0  0  0  0  0  0  0  0  0  0
   22.7763  -20.2588  -11.9360 C   0  0  0  0  0  0  0  0  0  0  0  0
   22.1502  -20.3834  -10.8448 O   0  0  0  0  0  0  0  0  0  0  0  0
   25.8207  -22.0727  -14.3159 O   0  0  0  0  0  0  0  0  0  0  0  0
   22.1956  -19.3773  -12.8861 N   0  0  0  0  0  0  0  0  0  0  0  0
   20.9774  -18.6270  -12.5840 C   0  0  0  0  0  0  0  0  0  0  0  0
   19.7948  -19.4875  -12.6685 C   0  0  0  0  0  0  0  0  0  0  0  0
   19.9091  -20.6811  -13.0353 O   0  0  0  0  0  0  0  0  0  0  0  0
   18.5376  -18.9997  -12.3469 O   0  0  0  0  0  0  0  0  0  0  0  0
  2  1  1  0
  3  2  2  0
  4  5  2  0
  4  3  1  0
  5 11  1  0
  6  5  1  0
  7  6  1  0
  7  8  1  6
  9  7  1  0
  9 10  2  0
 11 12  2  0
 12  2  1  0
 13  9  1  0
 14 13  1  0
 14 15  1  1
 16 15  1  0
 16 17  2  0
 18 14  1  0
 19 18  2  0
 20 16  1  0
 21 18  1  0
 22 21  1  0
 23 22  1  0
 24 23  2  0
 25 23  1  0
M  END
$$$$
