YDG.pdb
     RDKit          3D

 25 25  0  0  1  0  0  0  0  0999 V2000
   31.5066  -22.2626   -9.6399 O   0  0  0  0  0  0  0  0  0  0  0  0
   30.4288  -21.6980  -10.3125 C   0  0  0  0  0  0  0  0  0  0  0  0
   30.5795  -21.2494  -11.6073 C   0  0  0  0  0  0  0  0  0  0  0  0
   29.5450  -20.6810  -12.3222 C   0  0  0  0  0  0  0  0  0  0  0  0
   28.3018  -20.5504  -11.7272 C   0  0  0  0  0  0  0  0  0  0  0  0
   27.1718  -19.9532  -12.4376 C   0  0  0  0  0  0  0  0  0  0  0  0
   27.1593  -20.2260  -13.9210 C   0  0  2  0  0  0  0  0  0  0  0  0
   28.2089  -19.5078  -14.6138 N   0  0  0  0  0  0  0  0  0  0  0  0
   25.8525  -19.6976  -14.4224 C   0  0  0  0  0  0  0  0  0  0  0  0
   25.7385  -18.4697  -14.5895 O   0  0  0  0  0  0  0  0  0  0  0  0
   28.1114  -20.9860  -10.4368 C   0  0  0  0  0  0  0  0  0  0  0  0
   29.1788  -21.5543   -9.7468 C   0  0  0  0  0  0  0  0  0  0  0  0
   24.7602  -20.5448  -14.7074 N   0  0  0  0  0  0  0  0  0  0  0  0
   23.5342  -19.9212  -15.2309 C   0  0  1  0  0  0  0  0  0  0  0  0
   23.2040  -20.7562  -16.4619 C   0  0  0  0  0  0  0  0  0  0  0  0
   24.0730  -20.3530  -17.5740 C   0  0  0  0  0  0  0  0  0  0  0  0
   24.0974  -19.1034  -17.8647 O   0  0  0  0  0  0  0  0  0  0  0  0
   22.4600  -19.9641  -14.2443 C   0  0  0  0  0  0  0  0  0  0  0  0
   21.2586  -19.6597  -14.4942 O   0  0  0  0  0  0  0  0  0  0  0  0
   24.8362  -21.2740  -18.2834 O   0  0  0  0  0  0  0  0  0  0  0  0
   22.7315  -20.3700  -12.9107 N   0  0  0  0  0  0  0  0  0  0  0  0
   22.1956  -21.6187  -12.3703 C   0  0  0  0  0  0  0  0  0  0  0  0
   20.7384  -21.6708  -12.5121 C   0  0  0  0  0  0  0  0  0  0  0  0
   20.2222  -22.2223  -13.5129 O   0  0  0  0  0  0  0  0  0  0  0  0
   19.9113  -21.1146  -11.5486 O   0  0  0  0  0  0  0  0  0  0  0  0
  2  1  1  0
  3  2  2  0
  4  5  2  0
  4  3  1  0
  5 11  1  0
  6  5  1  0
  7  6  1  0
  7  8  1  6
  9  7  1  0
  9 10  2  0
 11 12  2  0
 12  2  1  0
 13  9  1  0
 14 13  1  0
 14 15  1  6
 16 15  1  0
 16 17  2  0
 18 14  1  0
 19 18  2  0
 20 16  1  0
 21 18  1  0
 22 21  1  0
 23 22  1  0
 24 23  2  0
 25 23  1  0
M  END
$$$$
