YDG.pdb
     RDKit          3D

 25 25  0  0  1  0  0  0  0  0999 V2000
   19.4002  -13.4314  -22.7617 O   0  0  0  0  0  0  0  0  0  0  0  0
   19.5247  -12.4320  -21.8031 C   0  0  0  0  0  0  0  0  0  0  0  0
   18.4082  -11.7559  -21.3596 C   0  0  0  0  0  0  0  0  0  0  0  0
   18.4728  -10.7559  -20.4108 C   0  0  0  0  0  0  0  0  0  0  0  0
   19.7013  -10.4086  -19.8752 C   0  0  0  0  0  0  0  0  0  0  0  0
   19.8276   -9.3548  -18.8693 C   0  0  0  0  0  0  0  0  0  0  0  0
   20.3342   -9.8335  -17.5317 C   0  0  2  0  0  0  0  0  0  0  0  0
   19.5151  -10.8984  -16.9906 N   0  0  0  0  0  0  0  0  0  0  0  0
   20.2121   -8.6642  -16.6065 C   0  0  0  0  0  0  0  0  0  0  0  0
   19.2203   -8.6067  -15.8571 O   0  0  0  0  0  0  0  0  0  0  0  0
   20.8385  -11.0599  -20.2919 C   0  0  0  0  0  0  0  0  0  0  0  0
   20.7341  -12.0636  -21.2511 C   0  0  0  0  0  0  0  0  0  0  0  0
   21.1804   -7.6383  -16.5620 N   0  0  0  0  0  0  0  0  0  0  0  0
   20.9637   -6.5392  -15.6074 C   0  0  1  0  0  0  0  0  0  0  0  0
   22.1339   -6.6677  -14.6402 C   0  0  0  0  0  0  0  0  0  0  0  0
   22.0139   -5.6501  -13.5891 C   0  0  0  0  0  0  0  0  0  0  0  0
   21.0664   -5.8070  -12.7383 O   0  0  0  0  0  0  0  0  0  0  0  0
   20.9615   -5.2470  -16.2851 C   0  0  0  0  0  0  0  0  0  0  0  0
   20.9640   -4.1344  -15.6847 O   0  0  0  0  0  0  0  0  0  0  0  0
   22.8810   -4.5656  -13.5119 O   0  0  0  0  0  0  0  0  0  0  0  0
   20.9604   -5.1851  -17.7039 N   0  0  0  0  0  0  0  0  0  0  0  0
   20.9747   -3.9049  -18.4106 C   0  0  0  0  0  0  0  0  0  0  0  0
   19.6170   -3.3799  -18.5755 C   0  0  0  0  0  0  0  0  0  0  0  0
   18.6452   -3.9680  -18.0445 O   0  0  0  0  0  0  0  0  0  0  0  0
   19.3854   -2.2315  -19.3170 O   0  0  0  0  0  0  0  0  0  0  0  0
  2  1  1  0
  3  2  2  0
  4  5  2  0
  4  3  1  0
  5 11  1  0
  6  5  1  0
  7  6  1  0
  7  8  1  1
  9  7  1  0
  9 10  2  0
 11 12  2  0
 12  2  1  0
 13  9  1  0
 14 13  1  0
 14 15  1  1
 16 15  1  0
 16 17  2  0
 18 14  1  0
 19 18  2  0
 20 16  1  0
 21 18  1  0
 22 21  1  0
 23 22  1  0
 24 23  2  0
 25 23  1  0
M  END
$$$$
