YDG.pdb
     RDKit          3D

 25 25  0  0  1  0  0  0  0  0999 V2000
   17.1158  -14.0885  -16.4697 O   0  0  0  0  0  0  0  0  0  0  0  0
   17.3325  -12.7484  -16.1691 C   0  0  0  0  0  0  0  0  0  0  0  0
   18.6142  -12.2411  -16.1553 C   0  0  0  0  0  0  0  0  0  0  0  0
   18.8878  -10.9202  -15.8640 C   0  0  0  0  0  0  0  0  0  0  0  0
   17.8427  -10.0603  -15.5723 C   0  0  0  0  0  0  0  0  0  0  0  0
   18.0757   -8.6523  -15.2539 C   0  0  0  0  0  0  0  0  0  0  0  0
   18.8840   -8.4267  -14.0006 C   0  0  2  0  0  0  0  0  0  0  0  0
   18.1884   -8.8858  -12.8161 N   0  0  0  0  0  0  0  0  0  0  0  0
   19.0417   -6.9441  -13.8776 C   0  0  0  0  0  0  0  0  0  0  0  0
   18.3569   -6.3472  -13.0271 O   0  0  0  0  0  0  0  0  0  0  0  0
   16.5497  -10.5286  -15.5759 C   0  0  0  0  0  0  0  0  0  0  0  0
   16.3125  -11.8676  -15.8746 C   0  0  0  0  0  0  0  0  0  0  0  0
   19.9357   -6.2146  -14.6905 N   0  0  0  0  0  0  0  0  0  0  0  0
   20.0059   -4.7585  -14.4876 C   0  0  1  0  0  0  0  0  0  0  0  0
   21.4590   -4.4223  -14.7990 C   0  0  0  0  0  0  0  0  0  0  0  0
   22.3170   -4.9054  -13.7105 C   0  0  0  0  0  0  0  0  0  0  0  0
   21.9866   -4.5633  -12.5188 O   0  0  0  0  0  0  0  0  0  0  0  0
   19.0860   -4.0587  -15.3783 C   0  0  0  0  0  0  0  0  0  0  0  0
   18.8821   -4.3859  -16.5823 O   0  0  0  0  0  0  0  0  0  0  0  0
   23.4356   -5.6962  -13.9505 O   0  0  0  0  0  0  0  0  0  0  0  0
   18.3501   -2.9389  -14.9077 N   0  0  0  0  0  0  0  0  0  0  0  0
   17.3535   -2.2750  -15.7470 C   0  0  0  0  0  0  0  0  0  0  0  0
   16.0584   -2.9547  -15.6636 C   0  0  0  0  0  0  0  0  0  0  0  0
   15.9044   -4.0834  -16.1876 O   0  0  0  0  0  0  0  0  0  0  0  0
   14.9884   -2.3651  -15.0084 O   0  0  0  0  0  0  0  0  0  0  0  0
  2  1  1  0
  3  2  2  0
  4  5  2  0
  4  3  1  0
  5 11  1  0
  6  5  1  0
  7  6  1  0
  7  8  1  1
  9  7  1  0
  9 10  2  0
 11 12  2  0
 12  2  1  0
 13  9  1  0
 14 13  1  0
 14 15  1  6
 16 15  1  0
 16 17  2  0
 18 14  1  0
 19 18  2  0
 20 16  1  0
 21 18  1  0
 22 21  1  0
 23 22  1  0
 24 23  2  0
 25 23  1  0
M  END
$$$$
