YDG.pdb
     RDKit          3D

 25 25  0  0  1  0  0  0  0  0999 V2000
   39.4951  -11.2232   -5.7622 O   0  0  0  0  0  0  0  0  0  0  0  0
   39.0337  -10.4724   -6.8376 C   0  0  0  0  0  0  0  0  0  0  0  0
   38.2662   -9.3486   -6.6180 C   0  0  0  0  0  0  0  0  0  0  0  0
   37.7818   -8.5665   -7.6467 C   0  0  0  0  0  0  0  0  0  0  0  0
   38.0710   -8.9135   -8.9554 C   0  0  0  0  0  0  0  0  0  0  0  0
   37.5811   -8.1224  -10.0834 C   0  0  0  0  0  0  0  0  0  0  0  0
   38.6349   -7.2708  -10.7461 C   0  0  2  0  0  0  0  0  0  0  0  0
   39.3315   -6.4306   -9.7941 N   0  0  0  0  0  0  0  0  0  0  0  0
   37.8990   -6.3661  -11.6832 C   0  0  0  0  0  0  0  0  0  0  0  0
   37.4349   -5.3027  -11.2330 O   0  0  0  0  0  0  0  0  0  0  0  0
   38.8338  -10.0278   -9.2156 C   0  0  0  0  0  0  0  0  0  0  0  0
   39.3050  -10.7924   -8.1518 C   0  0  0  0  0  0  0  0  0  0  0  0
   37.7202   -6.6831  -13.0469 N   0  0  0  0  0  0  0  0  0  0  0  0
   36.8628   -5.7925  -13.8456 C   0  0  1  0  0  0  0  0  0  0  0  0
   37.8212   -5.1921  -14.8666 C   0  0  0  0  0  0  0  0  0  0  0  0
   37.1043   -4.2153  -15.6952 C   0  0  0  0  0  0  0  0  0  0  0  0
   36.7683   -3.1136  -15.1296 O   0  0  0  0  0  0  0  0  0  0  0  0
   35.7851   -6.5375  -14.4881 C   0  0  0  0  0  0  0  0  0  0  0  0
   35.9048   -7.7180  -14.9246 O   0  0  0  0  0  0  0  0  0  0  0  0
   36.8002   -4.4637  -17.0293 O   0  0  0  0  0  0  0  0  0  0  0  0
   34.5056   -5.9434  -14.6519 N   0  0  0  0  0  0  0  0  0  0  0  0
   33.4090   -6.6625  -15.2989 C   0  0  0  0  0  0  0  0  0  0  0  0
   33.7195   -6.9424  -16.7030 C   0  0  0  0  0  0  0  0  0  0  0  0
   33.8618   -5.9993  -17.5169 O   0  0  0  0  0  0  0  0  0  0  0  0
   33.8598   -8.2464  -17.1525 O   0  0  0  0  0  0  0  0  0  0  0  0
  2  1  1  0
  3  2  2  0
  4  5  2  0
  4  3  1  0
  5 11  1  0
  6  5  1  0
  7  6  1  0
  7  8  1  1
  9  7  1  0
  9 10  2  0
 11 12  2  0
 12  2  1  0
 13  9  1  0
 14 13  1  0
 14 15  1  6
 16 15  1  0
 16 17  2  0
 18 14  1  0
 19 18  2  0
 20 16  1  0
 21 18  1  0
 22 21  1  0
 23 22  1  0
 24 23  2  0
 25 23  1  0
M  END
$$$$
