YDG.pdb
     RDKit          3D

 25 25  0  0  1  0  0  0  0  0999 V2000
   20.2325  -18.4026  -13.9689 O   0  0  0  0  0  0  0  0  0  0  0  0
   20.2851  -17.0799  -14.3942 C   0  0  0  0  0  0  0  0  0  0  0  0
   19.3732  -16.1630  -13.9166 C   0  0  0  0  0  0  0  0  0  0  0  0
   19.3785  -14.8385  -14.3039 C   0  0  0  0  0  0  0  0  0  0  0  0
   20.3320  -14.4006  -15.2071 C   0  0  0  0  0  0  0  0  0  0  0  0
   20.3816  -13.0091  -15.6537 C   0  0  0  0  0  0  0  0  0  0  0  0
   19.1705  -12.5665  -16.4361 C   0  0  2  0  0  0  0  0  0  0  0  0
   19.1594  -13.1161  -17.7761 N   0  0  0  0  0  0  0  0  0  0  0  0
   19.2882  -11.0808  -16.5654 C   0  0  0  0  0  0  0  0  0  0  0  0
   20.0052  -10.6232  -17.4739 O   0  0  0  0  0  0  0  0  0  0  0  0
   21.2591  -15.2851  -15.7064 C   0  0  0  0  0  0  0  0  0  0  0  0
   21.2225  -16.6139  -15.2924 C   0  0  0  0  0  0  0  0  0  0  0  0
   18.6156  -10.1962  -15.6952 N   0  0  0  0  0  0  0  0  0  0  0  0
   18.8196   -8.7532  -15.9009 C   0  0  1  0  0  0  0  0  0  0  0  0
   17.4473   -8.1531  -15.6212 C   0  0  0  0  0  0  0  0  0  0  0  0
   17.4899   -6.7046  -15.8550 C   0  0  0  0  0  0  0  0  0  0  0  0
   18.0297   -6.3116  -16.9508 O   0  0  0  0  0  0  0  0  0  0  0  0
   19.8340   -8.2308  -14.9914 C   0  0  0  0  0  0  0  0  0  0  0  0
   19.9356   -8.5685  -13.7773 O   0  0  0  0  0  0  0  0  0  0  0  0
   16.9726   -5.7954  -14.9387 O   0  0  0  0  0  0  0  0  0  0  0  0
   20.7889   -7.2866  -15.4537 N   0  0  0  0  0  0  0  0  0  0  0  0
   21.8752   -6.8186  -14.5939 C   0  0  0  0  0  0  0  0  0  0  0  0
   21.5055   -5.5786  -13.9068 C   0  0  0  0  0  0  0  0  0  0  0  0
   20.3724   -5.0726  -14.0865 O   0  0  0  0  0  0  0  0  0  0  0  0
   22.3966   -4.9479  -13.0524 O   0  0  0  0  0  0  0  0  0  0  0  0
  2  1  1  0
  3  2  2  0
  4  5  2  0
  4  3  1  0
  5 11  1  0
  6  5  1  0
  7  6  1  0
  7  8  1  6
  9  7  1  0
  9 10  2  0
 11 12  2  0
 12  2  1  0
 13  9  1  0
 14 13  1  0
 14 15  1  1
 16 15  1  0
 16 17  2  0
 18 14  1  0
 19 18  2  0
 20 16  1  0
 21 18  1  0
 22 21  1  0
 23 22  1  0
 24 23  2  0
 25 23  1  0
M  END
$$$$
