DCH.pdb
     RDKit          3D

 25 25  0  0  1  0  0  0  0  0999 V2000
   10.0898  -19.0665   19.3421 N   0  0  0  0  0  0  0  0  0  0  0  0
    9.6129  -17.7084   19.4140 C   0  0  1  0  0  0  0  0  0  0  0  0
    8.9243  -17.3126   18.1303 C   0  0  0  0  0  0  0  0  0  0  0  0
    9.8607  -17.3400   16.9740 C   0  0  0  0  0  0  0  0  0  0  0  0
   10.9495  -16.7172   17.0290 O   0  0  0  0  0  0  0  0  0  0  0  0
    8.7601  -17.5190   20.5987 C   0  0  0  0  0  0  0  0  0  0  0  0
    8.3128  -16.3594   20.8592 O   0  0  0  0  0  0  0  0  0  0  0  0
    9.5168  -18.0525   15.8546 O   0  0  0  0  0  0  0  0  0  0  0  0
    8.3835  -18.5383   21.4972 N   0  0  0  0  0  0  0  0  0  0  0  0
    7.6963  -18.3351   22.7365 C   0  0  1  0  0  0  0  0  0  0  0  0
    6.9110  -19.5367   23.1968 C   0  0  0  0  0  0  0  0  0  0  0  0
    6.0311  -19.1699   24.7546 S   0  0  0  0  0  0  0  0  0  0  0  0
    8.6221  -17.9859   23.8488 C   0  0  0  0  0  0  0  0  0  0  0  0
    9.7633  -18.5149   23.8503 O   0  0  0  0  0  0  0  0  0  0  0  0
    8.2895  -17.1008   24.8916 N   0  0  0  0  0  0  0  0  0  0  0  0
    9.2108  -16.6986   25.9493 C   0  0  1  0  0  0  0  0  0  0  0  0
    8.6627  -15.5833   26.7657 C   0  0  0  0  0  0  0  0  0  0  0  0
    7.9550  -14.6058   25.9276 C   0  0  0  0  0  0  0  0  0  0  0  0
    8.3037  -14.0475   24.7222 C   0  0  0  0  0  0  0  0  0  0  0  0
    7.3330  -13.1712   24.3585 N   0  0  0  0  0  0  0  0  0  0  0  0
    6.3936  -13.1679   25.3004 C   0  0  0  0  0  0  0  0  0  0  0  0
    6.7620  -14.0282   26.2461 N   0  0  0  0  0  0  0  0  0  0  0  0
    9.4406  -17.8888   26.7903 C   0  0  0  0  0  0  0  0  0  0  0  0
    8.8499  -19.0018   26.5855 O   0  0  0  0  0  0  0  0  0  0  0  0
   10.3334  -17.8609   27.8757 O   0  0  0  0  0  0  0  0  0  0  0  0
  2  1  1  6
  2  3  1  0
  4  3  1  0
  5  4  2  0
  6  2  1  0
  6  7  2  0
  8  4  1  0
  9  6  1  0
 10  9  1  0
 10 13  1  0
 10 11  1  1
 12 11  1  0
 13 15  1  0
 14 13  2  0
 15 16  1  0
 16 17  1  1
 17 18  1  0
 18 19  2  0
 18 22  1  0
 19 20  1  0
 20 21  1  0
 22 21  2  0
 23 25  1  0
 23 16  1  0
 24 23  2  0
M  END
$$$$
