DCH.pdb
     RDKit          3D

 25 25  0  0  1  0  0  0  0  0999 V2000
    7.4597  -13.6858   20.3658 N   0  0  0  0  0  0  0  0  0  0  0  0
    7.3618  -14.7293   21.3550 C   0  0  1  0  0  0  0  0  0  0  0  0
    7.8365  -16.0476   20.7933 C   0  0  0  0  0  0  0  0  0  0  0  0
    7.0385  -16.4575   19.6059 C   0  0  0  0  0  0  0  0  0  0  0  0
    5.7943  -16.2889   19.5930 O   0  0  0  0  0  0  0  0  0  0  0  0
    8.0722  -14.3469   22.5861 C   0  0  0  0  0  0  0  0  0  0  0  0
    9.2563  -13.8960   22.5017 O   0  0  0  0  0  0  0  0  0  0  0  0
    7.6807  -17.0188   18.5327 O   0  0  0  0  0  0  0  0  0  0  0  0
    7.5418  -14.4384   23.8894 N   0  0  0  0  0  0  0  0  0  0  0  0
    8.2805  -14.2342   25.0985 C   0  0  1  0  0  0  0  0  0  0  0  0
    7.5818  -13.3397   26.0905 C   0  0  0  0  0  0  0  0  0  0  0  0
    5.9389  -12.8464   25.4637 S   0  0  0  0  0  0  0  0  0  0  0  0
    8.5677  -15.5095   25.8109 C   0  0  0  0  0  0  0  0  0  0  0  0
    7.5894  -16.2112   26.1754 O   0  0  0  0  0  0  0  0  0  0  0  0
    9.8678  -15.9678   26.0959 N   0  0  0  0  0  0  0  0  0  0  0  0
   10.1678  -17.2785   26.6630 C   0  0  1  0  0  0  0  0  0  0  0  0
   11.5361  -17.7364   26.3040 C   0  0  0  0  0  0  0  0  0  0  0  0
   11.7035  -17.8277   24.8471 C   0  0  0  0  0  0  0  0  0  0  0  0
   10.7669  -17.8630   23.8431 C   0  0  0  0  0  0  0  0  0  0  0  0
   11.4147  -17.9812   22.6561 N   0  0  0  0  0  0  0  0  0  0  0  0
   12.7234  -18.0207   22.8922 C   0  0  0  0  0  0  0  0  0  0  0  0
   12.9029  -17.9289   24.2073 N   0  0  0  0  0  0  0  0  0  0  0  0
   10.0342  -17.1509   28.1267 C   0  0  0  0  0  0  0  0  0  0  0  0
    9.7357  -16.0490   28.6980 O   0  0  0  0  0  0  0  0  0  0  0  0
   10.2309  -18.2493   28.9815 O   0  0  0  0  0  0  0  0  0  0  0  0
  2  1  1  6
  2  3  1  0
  4  3  1  0
  5  4  2  0
  6  2  1  0
  6  7  2  0
  8  4  1  0
  9  6  1  0
 10  9  1  0
 10 13  1  0
 10 11  1  1
 12 11  1  0
 13 15  1  0
 14 13  2  0
 15 16  1  0
 16 17  1  1
 17 18  1  0
 18 19  2  0
 18 22  1  0
 19 20  1  0
 20 21  1  0
 22 21  2  0
 23 25  1  0
 23 16  1  0
 24 23  2  0
M  END
$$$$
