DCH.pdb
     RDKit          3D

 25 25  0  0  1  0  0  0  0  0999 V2000
    7.5967  -16.4685   21.1183 N   0  0  0  0  0  0  0  0  0  0  0  0
    8.9746  -16.3758   21.5302 C   0  0  1  0  0  0  0  0  0  0  0  0
    9.8585  -15.9972   20.3665 C   0  0  0  0  0  0  0  0  0  0  0  0
    9.7803  -16.9993   19.2691 C   0  0  0  0  0  0  0  0  0  0  0  0
    9.4757  -18.1906   19.5231 O   0  0  0  0  0  0  0  0  0  0  0  0
    9.1150  -15.4587   22.6729 C   0  0  0  0  0  0  0  0  0  0  0  0
   10.2375  -14.9046   22.8864 O   0  0  0  0  0  0  0  0  0  0  0  0
   10.0449  -16.6025   17.9840 O   0  0  0  0  0  0  0  0  0  0  0  0
    8.0859  -15.1297   23.5790 N   0  0  0  0  0  0  0  0  0  0  0  0
    8.2367  -14.2982   24.7345 C   0  0  1  0  0  0  0  0  0  0  0  0
    6.9382  -13.7227   25.2393 C   0  0  0  0  0  0  0  0  0  0  0  0
    7.2216  -12.7156   26.7363 S   0  0  0  0  0  0  0  0  0  0  0  0
    8.8493  -15.0243   25.8808 C   0  0  0  0  0  0  0  0  0  0  0  0
    8.2276  -16.0125   26.3491 O   0  0  0  0  0  0  0  0  0  0  0  0
   10.0792  -14.6653   26.4638 N   0  0  0  0  0  0  0  0  0  0  0  0
   10.7090  -15.3936   27.5603 C   0  0  1  0  0  0  0  0  0  0  0  0
   12.1883  -15.2436   27.5464 C   0  0  0  0  0  0  0  0  0  0  0  0
   12.7741  -15.8407   26.3385 C   0  0  0  0  0  0  0  0  0  0  0  0
   12.1842  -16.5405   25.3145 C   0  0  0  0  0  0  0  0  0  0  0  0
   13.1505  -16.9133   24.4371 N   0  0  0  0  0  0  0  0  0  0  0  0
   14.3212  -16.4672   24.8849 C   0  0  0  0  0  0  0  0  0  0  0  0
   14.1012  -15.8219   26.0274 N   0  0  0  0  0  0  0  0  0  0  0  0
   10.1473  -14.8504   28.8117 C   0  0  0  0  0  0  0  0  0  0  0  0
    9.4313  -13.7940   28.8441 O   0  0  0  0  0  0  0  0  0  0  0  0
   10.3731  -15.4743   30.0509 O   0  0  0  0  0  0  0  0  0  0  0  0
  2  1  1  6
  2  3  1  0
  4  3  1  0
  5  4  2  0
  6  2  1  0
  6  7  2  0
  8  4  1  0
  9  6  1  0
 10  9  1  0
 10 13  1  0
 10 11  1  1
 12 11  1  0
 13 15  1  0
 14 13  2  0
 15 16  1  0
 16 17  1  1
 17 18  1  0
 18 19  2  0
 18 22  1  0
 19 20  1  0
 20 21  1  0
 22 21  2  0
 23 25  1  0
 23 16  1  0
 24 23  2  0
M  END
$$$$
