DCH.pdb
     RDKit          3D

 25 25  0  0  1  0  0  0  0  0999 V2000
    9.3049  -17.4541   16.1403 N   0  0  0  0  0  0  0  0  0  0  0  0
    8.4020  -17.3689   17.2603 C   0  0  1  0  0  0  0  0  0  0  0  0
    7.9072  -18.7390   17.6564 C   0  0  0  0  0  0  0  0  0  0  0  0
    6.8696  -19.2411   16.7152 C   0  0  0  0  0  0  0  0  0  0  0  0
    7.0146  -19.0902   15.4772 O   0  0  0  0  0  0  0  0  0  0  0  0
    9.0279  -16.6450   18.3787 C   0  0  0  0  0  0  0  0  0  0  0  0
   10.2657  -16.8120   18.6075 O   0  0  0  0  0  0  0  0  0  0  0  0
    5.7595  -19.8676   17.2195 O   0  0  0  0  0  0  0  0  0  0  0  0
    8.3580  -15.7565   19.2448 N   0  0  0  0  0  0  0  0  0  0  0  0
    8.9575  -15.0677   20.3473 C   0  0  1  0  0  0  0  0  0  0  0  0
    8.0511  -14.0484   20.9889 C   0  0  0  0  0  0  0  0  0  0  0  0
    7.6175  -12.7346   19.7967 S   0  0  0  0  0  0  0  0  0  0  0  0
    9.3836  -15.9942   21.4319 C   0  0  0  0  0  0  0  0  0  0  0  0
    8.5994  -16.9248   21.7504 O   0  0  0  0  0  0  0  0  0  0  0  0
   10.6095  -15.8840   22.1150 N   0  0  0  0  0  0  0  0  0  0  0  0
   11.1096  -16.8730   23.0642 C   0  0  1  0  0  0  0  0  0  0  0  0
   12.5179  -17.2533   22.7762 C   0  0  0  0  0  0  0  0  0  0  0  0
   12.6087  -18.0959   21.5759 C   0  0  0  0  0  0  0  0  0  0  0  0
   11.6205  -18.6372   20.7905 C   0  0  0  0  0  0  0  0  0  0  0  0
   12.2056  -19.3688   19.8082 N   0  0  0  0  0  0  0  0  0  0  0  0
   13.5255  -19.2987   19.9599 C   0  0  0  0  0  0  0  0  0  0  0  0
   13.7736  -18.5351   21.0207 N   0  0  0  0  0  0  0  0  0  0  0  0
   11.0027  -16.2690   24.4059 C   0  0  0  0  0  0  0  0  0  0  0  0
   10.6235  -15.0642   24.5910 O   0  0  0  0  0  0  0  0  0  0  0  0
   11.3164  -16.9966   25.5670 O   0  0  0  0  0  0  0  0  0  0  0  0
  2  1  1  6
  2  3  1  0
  4  3  1  0
  5  4  2  0
  6  2  1  0
  6  7  2  0
  8  4  1  0
  9  6  1  0
 10  9  1  0
 10 13  1  0
 10 11  1  1
 12 11  1  0
 13 15  1  0
 14 13  2  0
 15 16  1  0
 16 17  1  6
 17 18  1  0
 18 19  2  0
 18 22  1  0
 19 20  1  0
 20 21  1  0
 22 21  2  0
 23 25  1  0
 23 16  1  0
 24 23  2  0
M  END
$$$$
