DCH.pdb
     RDKit          3D

 25 25  0  0  1  0  0  0  0  0999 V2000
   12.3849  -19.0745   14.9574 N   0  0  0  0  0  0  0  0  0  0  0  0
   12.3524  -20.2408   15.8033 C   0  0  1  0  0  0  0  0  0  0  0  0
   13.6273  -21.0377   15.6681 C   0  0  0  0  0  0  0  0  0  0  0  0
   13.7802  -21.6004   14.2989 C   0  0  0  0  0  0  0  0  0  0  0  0
   12.7819  -21.7047   13.5445 O   0  0  0  0  0  0  0  0  0  0  0  0
   12.0621  -19.8645   17.1964 C   0  0  0  0  0  0  0  0  0  0  0  0
   12.9539  -19.2655   17.8735 O   0  0  0  0  0  0  0  0  0  0  0  0
   15.0217  -22.0006   13.8775 O   0  0  0  0  0  0  0  0  0  0  0  0
   10.8477  -20.1163   17.8674 N   0  0  0  0  0  0  0  0  0  0  0  0
   10.5331  -19.6861   19.1961 C   0  0  1  0  0  0  0  0  0  0  0  0
    9.0615  -19.4514   19.4234 C   0  0  0  0  0  0  0  0  0  0  0  0
    8.0996  -20.9425   18.9913 S   0  0  0  0  0  0  0  0  0  0  0  0
   10.9674  -20.6668   20.2285 C   0  0  0  0  0  0  0  0  0  0  0  0
   10.9887  -21.8835   19.9099 O   0  0  0  0  0  0  0  0  0  0  0  0
   11.3529  -20.3062   21.5335 N   0  0  0  0  0  0  0  0  0  0  0  0
   11.8581  -21.2475   22.5275 C   0  0  1  0  0  0  0  0  0  0  0  0
   12.7013  -20.5730   23.5496 C   0  0  0  0  0  0  0  0  0  0  0  0
   13.3193  -21.5473   24.4594 C   0  0  0  0  0  0  0  0  0  0  0  0
   13.7124  -22.8451   24.2415 C   0  0  0  0  0  0  0  0  0  0  0  0
   14.2051  -23.3450   25.4033 N   0  0  0  0  0  0  0  0  0  0  0  0
   14.1297  -22.3983   26.3351 C   0  0  0  0  0  0  0  0  0  0  0  0
   13.5980  -21.3157   25.7736 N   0  0  0  0  0  0  0  0  0  0  0  0
   10.6811  -21.8722   23.1606 C   0  0  0  0  0  0  0  0  0  0  0  0
   10.7679  -22.8980   23.9156 O   0  0  0  0  0  0  0  0  0  0  0  0
    9.3848  -21.3654   22.9643 O   0  0  0  0  0  0  0  0  0  0  0  0
  2  1  1  6
  2  3  1  0
  4  3  1  0
  5  4  2  0
  6  2  1  0
  6  7  2  0
  8  4  1  0
  9  6  1  0
 10  9  1  0
 10 13  1  0
 10 11  1  6
 12 11  1  0
 13 15  1  0
 14 13  2  0
 15 16  1  0
 16 17  1  1
 17 18  1  0
 18 19  2  0
 18 22  1  0
 19 20  1  0
 20 21  1  0
 22 21  2  0
 23 25  1  0
 23 16  1  0
 24 23  2  0
M  END
$$$$
