DCH.pdb
     RDKit          3D

 25 25  0  0  1  0  0  0  0  0999 V2000
    9.5941  -18.2967   18.9107 N   0  0  0  0  0  0  0  0  0  0  0  0
   10.7244  -17.5561   19.4116 C   0  0  1  0  0  0  0  0  0  0  0  0
   11.5105  -16.9443   18.2774 C   0  0  0  0  0  0  0  0  0  0  0  0
   12.3355  -17.9611   17.5701 C   0  0  0  0  0  0  0  0  0  0  0  0
   11.9760  -19.1640   17.5526 O   0  0  0  0  0  0  0  0  0  0  0  0
   10.2940  -16.5609   20.4071 C   0  0  0  0  0  0  0  0  0  0  0  0
   11.1417  -15.7281   20.8548 O   0  0  0  0  0  0  0  0  0  0  0  0
   13.4875  -17.5648   16.9418 O   0  0  0  0  0  0  0  0  0  0  0  0
    8.9873  -16.4447   20.9240 N   0  0  0  0  0  0  0  0  0  0  0  0
    8.5669  -15.4853   21.8998 C   0  0  1  0  0  0  0  0  0  0  0  0
    7.0760  -15.2643   21.9276 C   0  0  0  0  0  0  0  0  0  0  0  0
    6.2054  -16.8132   22.3499 S   0  0  0  0  0  0  0  0  0  0  0  0
    8.9612  -15.8712   23.2825 C   0  0  0  0  0  0  0  0  0  0  0  0
    9.1899  -17.0871   23.5097 O   0  0  0  0  0  0  0  0  0  0  0  0
    9.0905  -14.9530   24.3416 N   0  0  0  0  0  0  0  0  0  0  0  0
    9.3874  -15.3293   25.7198 C   0  0  1  0  0  0  0  0  0  0  0  0
    9.4047  -14.1491   26.6240 C   0  0  0  0  0  0  0  0  0  0  0  0
    9.6660  -14.5455   28.0145 C   0  0  0  0  0  0  0  0  0  0  0  0
    9.7967  -15.7921   28.5761 C   0  0  0  0  0  0  0  0  0  0  0  0
   10.0041  -15.6425   29.9091 N   0  0  0  0  0  0  0  0  0  0  0  0
   10.0058  -14.3425   30.1922 C   0  0  0  0  0  0  0  0  0  0  0  0
    9.8030  -13.6784   29.0574 N   0  0  0  0  0  0  0  0  0  0  0  0
    8.3416  -16.2829   26.1365 C   0  0  0  0  0  0  0  0  0  0  0  0
    8.5930  -17.3159   26.8433 O   0  0  0  0  0  0  0  0  0  0  0  0
    6.9956  -16.1031   25.7734 O   0  0  0  0  0  0  0  0  0  0  0  0
  2  1  1  6
  2  3  1  0
  4  3  1  0
  5  4  2  0
  6  2  1  0
  6  7  2  0
  8  4  1  0
  9  6  1  0
 10  9  1  0
 10 13  1  0
 10 11  1  1
 12 11  1  0
 13 15  1  0
 14 13  2  0
 15 16  1  0
 16 17  1  1
 17 18  1  0
 18 19  2  0
 18 22  1  0
 19 20  1  0
 20 21  1  0
 22 21  2  0
 23 25  1  0
 23 16  1  0
 24 23  2  0
M  END
$$$$
