DCH.pdb
     RDKit          3D

 25 25  0  0  1  0  0  0  0  0999 V2000
    6.8034  -17.8411   17.8903 N   0  0  0  0  0  0  0  0  0  0  0  0
    8.2009  -18.1457   18.0676 C   0  0  1  0  0  0  0  0  0  0  0  0
    8.9794  -17.8459   16.8095 C   0  0  0  0  0  0  0  0  0  0  0  0
   10.3972  -18.2835   16.9240 C   0  0  0  0  0  0  0  0  0  0  0  0
   10.6743  -19.3995   17.4283 O   0  0  0  0  0  0  0  0  0  0  0  0
    8.7387  -17.4505   19.2483 C   0  0  0  0  0  0  0  0  0  0  0  0
    9.9614  -17.6064   19.5537 O   0  0  0  0  0  0  0  0  0  0  0  0
   11.3897  -17.4528   16.4725 O   0  0  0  0  0  0  0  0  0  0  0  0
    7.9976  -16.6021   20.0964 N   0  0  0  0  0  0  0  0  0  0  0  0
    8.4779  -16.0296   21.3174 C   0  0  1  0  0  0  0  0  0  0  0  0
    7.8223  -14.7188   21.6700 C   0  0  0  0  0  0  0  0  0  0  0  0
    6.0178  -14.9324   21.8523 S   0  0  0  0  0  0  0  0  0  0  0  0
    8.2744  -16.9297   22.4856 C   0  0  0  0  0  0  0  0  0  0  0  0
    7.7657  -18.0605   22.2734 O   0  0  0  0  0  0  0  0  0  0  0  0
    8.6191  -16.5841   23.8059 N   0  0  0  0  0  0  0  0  0  0  0  0
    9.1404  -17.5274   24.7896 C   0  0  1  0  0  0  0  0  0  0  0  0
   10.3377  -18.2492   24.2835 C   0  0  0  0  0  0  0  0  0  0  0  0
   10.8455  -19.2042   25.2780 C   0  0  0  0  0  0  0  0  0  0  0  0
   10.8820  -20.5770   25.2576 C   0  0  0  0  0  0  0  0  0  0  0  0
   11.4215  -21.0093   26.4257 N   0  0  0  0  0  0  0  0  0  0  0  0
   11.7204  -19.9479   27.1702 C   0  0  0  0  0  0  0  0  0  0  0  0
   11.3763  -18.8603   26.4856 N   0  0  0  0  0  0  0  0  0  0  0  0
    9.4807  -16.7446   25.9930 C   0  0  0  0  0  0  0  0  0  0  0  0
    9.5808  -15.4719   25.9816 O   0  0  0  0  0  0  0  0  0  0  0  0
    9.7159  -17.3654   27.2319 O   0  0  0  0  0  0  0  0  0  0  0  0
  2  1  1  6
  2  3  1  0
  4  3  1  0
  5  4  2  0
  6  2  1  0
  6  7  2  0
  8  4  1  0
  9  6  1  0
 10  9  1  0
 10 13  1  0
 10 11  1  1
 12 11  1  0
 13 15  1  0
 14 13  2  0
 15 16  1  0
 16 17  1  6
 17 18  1  0
 18 19  2  0
 18 22  1  0
 19 20  1  0
 20 21  1  0
 22 21  2  0
 23 25  1  0
 23 16  1  0
 24 23  2  0
M  END
$$$$
