DCH.pdb
     RDKit          3D

 25 25  0  0  1  0  0  0  0  0999 V2000
    8.5724  -18.3257   19.5656 N   0  0  0  0  0  0  0  0  0  0  0  0
    9.9360  -18.0222   19.9196 C   0  0  1  0  0  0  0  0  0  0  0  0
   10.7846  -17.8447   18.6838 C   0  0  0  0  0  0  0  0  0  0  0  0
   10.8368  -19.0898   17.8704 C   0  0  0  0  0  0  0  0  0  0  0  0
   11.6626  -19.1953   16.9305 O   0  0  0  0  0  0  0  0  0  0  0  0
    9.9927  -16.8593   20.8203 C   0  0  0  0  0  0  0  0  0  0  0  0
   11.1187  -16.4772   21.2660 O   0  0  0  0  0  0  0  0  0  0  0  0
    9.9734  -20.1136   18.1627 O   0  0  0  0  0  0  0  0  0  0  0  0
    8.8774  -16.1088   21.2457 N   0  0  0  0  0  0  0  0  0  0  0  0
    8.9231  -15.0026   22.1531 C   0  0  1  0  0  0  0  0  0  0  0  0
    7.8236  -13.9949   21.9344 C   0  0  0  0  0  0  0  0  0  0  0  0
    6.3366  -14.4495   22.8922 S   0  0  0  0  0  0  0  0  0  0  0  0
    8.8252  -15.4304   23.5757 C   0  0  0  0  0  0  0  0  0  0  0  0
    7.9490  -16.2826   23.8732 O   0  0  0  0  0  0  0  0  0  0  0  0
    9.6561  -14.9347   24.5981 N   0  0  0  0  0  0  0  0  0  0  0  0
    9.5916  -15.3709   25.9892 C   0  0  1  0  0  0  0  0  0  0  0  0
    8.1885  -15.5009   26.4636 C   0  0  0  0  0  0  0  0  0  0  0  0
    7.5762  -14.1841   26.6871 C   0  0  0  0  0  0  0  0  0  0  0  0
    8.1551  -12.9574   26.9027 C   0  0  0  0  0  0  0  0  0  0  0  0
    7.1682  -12.0434   27.0849 N   0  0  0  0  0  0  0  0  0  0  0  0
    5.9956  -12.6646   26.9895 C   0  0  0  0  0  0  0  0  0  0  0  0
    6.2346  -13.9513   26.7505 N   0  0  0  0  0  0  0  0  0  0  0  0
   10.2829  -16.6722   26.0609 C   0  0  0  0  0  0  0  0  0  0  0  0
   10.9116  -17.0622   27.1013 O   0  0  0  0  0  0  0  0  0  0  0  0
   10.2866  -17.5638   24.9742 O   0  0  0  0  0  0  0  0  0  0  0  0
  2  1  1  6
  2  3  1  0
  4  3  1  0
  5  4  2  0
  6  2  1  0
  6  7  2  0
  8  4  1  0
  9  6  1  0
 10  9  1  0
 10 13  1  0
 10 11  1  6
 12 11  1  0
 13 15  1  0
 14 13  2  0
 15 16  1  0
 16 17  1  6
 17 18  1  0
 18 19  2  0
 18 22  1  0
 19 20  1  0
 20 21  1  0
 22 21  2  0
 23 25  1  0
 23 16  1  0
 24 23  2  0
M  END
$$$$
