DCH.pdb
     RDKit          3D

 25 25  0  0  1  0  0  0  0  0999 V2000
    9.4157  -15.8877   20.6259 N   0  0  0  0  0  0  0  0  0  0  0  0
    8.6185  -16.3534   21.7325 C   0  0  1  0  0  0  0  0  0  0  0  0
    8.8233  -17.8321   21.9569 C   0  0  0  0  0  0  0  0  0  0  0  0
    7.8540  -18.6455   21.1736 C   0  0  0  0  0  0  0  0  0  0  0  0
    7.2103  -18.1243   20.2300 O   0  0  0  0  0  0  0  0  0  0  0  0
    8.8853  -15.5529   22.9386 C   0  0  0  0  0  0  0  0  0  0  0  0
   10.0843  -15.4070   23.3308 O   0  0  0  0  0  0  0  0  0  0  0  0
    7.6766  -19.9656   21.4977 O   0  0  0  0  0  0  0  0  0  0  0  0
    7.9015  -14.9143   23.7212 N   0  0  0  0  0  0  0  0  0  0  0  0
    8.1525  -14.1687   24.9172 C   0  0  1  0  0  0  0  0  0  0  0  0
    6.9828  -13.3290   25.3633 C   0  0  0  0  0  0  0  0  0  0  0  0
    7.3486  -12.5135   26.9559 S   0  0  0  0  0  0  0  0  0  0  0  0
    8.5058  -15.0439   26.0686 C   0  0  0  0  0  0  0  0  0  0  0  0
    7.6328  -15.8490   26.4832 O   0  0  0  0  0  0  0  0  0  0  0  0
    9.7570  -15.0177   26.7130 N   0  0  0  0  0  0  0  0  0  0  0  0
   10.0964  -15.8317   27.8756 C   0  0  1  0  0  0  0  0  0  0  0  0
   11.4778  -16.3745   27.7865 C   0  0  0  0  0  0  0  0  0  0  0  0
   11.5944  -17.3631   26.7058 C   0  0  0  0  0  0  0  0  0  0  0  0
   10.7468  -18.3765   26.3301 C   0  0  0  0  0  0  0  0  0  0  0  0
   11.3078  -19.0406   25.2876 N   0  0  0  0  0  0  0  0  0  0  0  0
   12.4767  -18.4714   25.0052 C   0  0  0  0  0  0  0  0  0  0  0  0
   12.6543  -17.4628   25.8544 N   0  0  0  0  0  0  0  0  0  0  0  0
    9.9592  -14.9627   29.0598 C   0  0  0  0  0  0  0  0  0  0  0  0
    9.6518  -13.7265   28.9755 O   0  0  0  0  0  0  0  0  0  0  0  0
   10.1620  -15.4550   30.3607 O   0  0  0  0  0  0  0  0  0  0  0  0
  2  1  1  6
  2  3  1  0
  4  3  1  0
  5  4  2  0
  6  2  1  0
  6  7  2  0
  8  4  1  0
  9  6  1  0
 10  9  1  0
 10 13  1  0
 10 11  1  1
 12 11  1  0
 13 15  1  0
 14 13  2  0
 15 16  1  0
 16 17  1  6
 17 18  1  0
 18 19  2  0
 18 22  1  0
 19 20  1  0
 20 21  1  0
 22 21  2  0
 23 25  1  0
 23 16  1  0
 24 23  2  0
M  END
$$$$
