DCH.pdb
     RDKit          3D

 25 25  0  0  1  0  0  0  0  0999 V2000
    7.8795  -16.4858   15.8465 N   0  0  0  0  0  0  0  0  0  0  0  0
    8.5197  -17.4671   16.6856 C   0  0  1  0  0  0  0  0  0  0  0  0
    9.6261  -18.1722   15.9388 C   0  0  0  0  0  0  0  0  0  0  0  0
   10.2514  -19.2407   16.7646 C   0  0  0  0  0  0  0  0  0  0  0  0
    9.5699  -19.8569   17.6204 O   0  0  0  0  0  0  0  0  0  0  0  0
    8.9818  -16.8549   17.9419 C   0  0  0  0  0  0  0  0  0  0  0  0
   10.1943  -16.4908   18.0426 O   0  0  0  0  0  0  0  0  0  0  0  0
   11.5759  -19.5393   16.5764 O   0  0  0  0  0  0  0  0  0  0  0  0
    8.1769  -16.6292   19.0773 N   0  0  0  0  0  0  0  0  0  0  0  0
    8.6224  -16.0355   20.3014 C   0  0  1  0  0  0  0  0  0  0  0  0
    7.5266  -15.3457   21.0732 C   0  0  0  0  0  0  0  0  0  0  0  0
    5.9362  -16.2139   20.8446 S   0  0  0  0  0  0  0  0  0  0  0  0
    9.2276  -17.0311   21.2283 C   0  0  0  0  0  0  0  0  0  0  0  0
    9.2709  -18.2311   20.8535 O   0  0  0  0  0  0  0  0  0  0  0  0
    9.7502  -16.7020   22.4932 N   0  0  0  0  0  0  0  0  0  0  0  0
   11.1215  -16.9771   22.9093 C   0  0  1  0  0  0  0  0  0  0  0  0
   12.1131  -16.3669   21.9846 C   0  0  0  0  0  0  0  0  0  0  0  0
   13.4892  -16.6440   22.4188 C   0  0  0  0  0  0  0  0  0  0  0  0
   14.0127  -17.7252   23.0847 C   0  0  0  0  0  0  0  0  0  0  0  0
   15.3366  -17.5045   23.2871 N   0  0  0  0  0  0  0  0  0  0  0  0
   15.6507  -16.3204   22.7681 C   0  0  0  0  0  0  0  0  0  0  0  0
   14.5443  -15.7986   22.2449 N   0  0  0  0  0  0  0  0  0  0  0  0
   11.2745  -16.4231   24.2681 C   0  0  0  0  0  0  0  0  0  0  0  0
   12.2592  -16.7173   25.0254 O   0  0  0  0  0  0  0  0  0  0  0  0
   10.3327  -15.5304   24.8085 O   0  0  0  0  0  0  0  0  0  0  0  0
  2  1  1  6
  2  3  1  0
  4  3  1  0
  5  4  2  0
  6  2  1  0
  6  7  2  0
  8  4  1  0
  9  6  1  0
 10  9  1  0
 10 13  1  0
 10 11  1  1
 12 11  1  0
 13 15  1  0
 14 13  2  0
 15 16  1  0
 16 17  1  6
 17 18  1  0
 18 19  2  0
 18 22  1  0
 19 20  1  0
 20 21  1  0
 22 21  2  0
 23 25  1  0
 23 16  1  0
 24 23  2  0
M  END
$$$$
