DCH.pdb
     RDKit          3D

 25 25  0  0  1  0  0  0  0  0999 V2000
   13.3044  -20.3284   23.0151 N   0  0  0  0  0  0  0  0  0  0  0  0
   14.3326  -20.6116   23.9844 C   0  0  1  0  0  0  0  0  0  0  0  0
   15.6995  -20.3032   23.4229 C   0  0  0  0  0  0  0  0  0  0  0  0
   16.0383  -21.1962   22.2817 C   0  0  0  0  0  0  0  0  0  0  0  0
   15.8229  -22.4307   22.3609 O   0  0  0  0  0  0  0  0  0  0  0  0
   14.0644  -19.9058   25.2480 C   0  0  0  0  0  0  0  0  0  0  0  0
   14.0759  -18.6361   25.2611 O   0  0  0  0  0  0  0  0  0  0  0  0
   16.5862  -20.6518   21.1492 O   0  0  0  0  0  0  0  0  0  0  0  0
   13.7877  -20.5299   26.4817 N   0  0  0  0  0  0  0  0  0  0  0  0
   13.3730  -19.8555   27.6744 C   0  0  1  0  0  0  0  0  0  0  0  0
   11.9971  -19.2475   27.5783 C   0  0  0  0  0  0  0  0  0  0  0  0
   10.8095  -20.4526   26.8909 S   0  0  0  0  0  0  0  0  0  0  0  0
   13.3532  -20.7569   28.8591 C   0  0  0  0  0  0  0  0  0  0  0  0
   12.8221  -21.8894   28.7258 O   0  0  0  0  0  0  0  0  0  0  0  0
   13.8938  -20.4106   30.1118 N   0  0  0  0  0  0  0  0  0  0  0  0
   13.9871  -21.3258   31.2445 C   0  0  1  0  0  0  0  0  0  0  0  0
   15.0114  -20.8856   32.2284 C   0  0  0  0  0  0  0  0  0  0  0  0
   16.3637  -20.9535   31.6578 C   0  0  0  0  0  0  0  0  0  0  0  0
   16.8111  -21.5248   30.4917 C   0  0  0  0  0  0  0  0  0  0  0  0
   18.1552  -21.3510   30.4170 N   0  0  0  0  0  0  0  0  0  0  0  0
   18.5557  -20.6903   31.5001 C   0  0  0  0  0  0  0  0  0  0  0  0
   17.4832  -20.4488   32.2495 N   0  0  0  0  0  0  0  0  0  0  0  0
   12.6526  -21.3654   31.8723 C   0  0  0  0  0  0  0  0  0  0  0  0
   12.3883  -22.0983   32.8836 O   0  0  0  0  0  0  0  0  0  0  0  0
   11.5873  -20.5888   31.3846 O   0  0  0  0  0  0  0  0  0  0  0  0
  2  1  1  6
  2  3  1  0
  4  3  1  0
  5  4  2  0
  6  2  1  0
  6  7  2  0
  8  4  1  0
  9  6  1  0
 10  9  1  0
 10 13  1  0
 10 11  1  6
 12 11  1  0
 13 15  1  0
 14 13  2  0
 15 16  1  0
 16 17  1  1
 17 18  1  0
 18 19  2  0
 18 22  1  0
 19 20  1  0
 20 21  1  0
 22 21  2  0
 23 25  1  0
 23 16  1  0
 24 23  2  0
M  END
$$$$
