DCH.pdb
     RDKit          3D

 25 25  0  0  1  0  0  0  0  0999 V2000
    9.3776  -19.9416   15.7130 N   0  0  0  0  0  0  0  0  0  0  0  0
    9.1747  -18.5893   16.1680 C   0  0  1  0  0  0  0  0  0  0  0  0
    8.2800  -17.8315   15.2172 C   0  0  0  0  0  0  0  0  0  0  0  0
    9.0686  -17.0651   14.2145 C   0  0  0  0  0  0  0  0  0  0  0  0
   10.3197  -17.1665   14.1845 O   0  0  0  0  0  0  0  0  0  0  0  0
    8.6744  -18.5761   17.5522 C   0  0  0  0  0  0  0  0  0  0  0  0
    7.4882  -18.9653   17.7844 O   0  0  0  0  0  0  0  0  0  0  0  0
    8.4101  -16.2514   13.3293 O   0  0  0  0  0  0  0  0  0  0  0  0
    9.4145  -18.1581   18.6773 N   0  0  0  0  0  0  0  0  0  0  0  0
    8.9410  -18.1680   20.0282 C   0  0  1  0  0  0  0  0  0  0  0  0
    9.3113  -19.4149   20.7899 C   0  0  0  0  0  0  0  0  0  0  0  0
   11.1101  -19.7153   20.6937 S   0  0  0  0  0  0  0  0  0  0  0  0
    9.4612  -17.0203   20.8209 C   0  0  0  0  0  0  0  0  0  0  0  0
   10.5813  -16.5457   20.5007 O   0  0  0  0  0  0  0  0  0  0  0  0
    8.7701  -16.4424   21.9026 N   0  0  0  0  0  0  0  0  0  0  0  0
    9.2362  -15.2735   22.6414 C   0  0  1  0  0  0  0  0  0  0  0  0
    8.2376  -14.1721   22.6212 C   0  0  0  0  0  0  0  0  0  0  0  0
    7.9647  -13.7239   21.2488 C   0  0  0  0  0  0  0  0  0  0  0  0
    8.4621  -12.6543   20.5453 C   0  0  0  0  0  0  0  0  0  0  0  0
    7.8830  -12.6415   19.3177 N   0  0  0  0  0  0  0  0  0  0  0  0
    7.0418  -13.6691   19.2378 C   0  0  0  0  0  0  0  0  0  0  0  0
    7.0866  -14.3231   20.3955 N   0  0  0  0  0  0  0  0  0  0  0  0
    9.4877  -15.7163   24.0261 C   0  0  0  0  0  0  0  0  0  0  0  0
    9.1679  -16.8784   24.4468 O   0  0  0  0  0  0  0  0  0  0  0  0
   10.1005  -14.8721   24.9682 O   0  0  0  0  0  0  0  0  0  0  0  0
  2  1  1  6
  2  3  1  0
  4  3  1  0
  5  4  2  0
  6  2  1  0
  6  7  2  0
  8  4  1  0
  9  6  1  0
 10  9  1  0
 10 13  1  0
 10 11  1  1
 12 11  1  0
 13 15  1  0
 14 13  2  0
 15 16  1  0
 16 17  1  1
 17 18  1  0
 18 19  2  0
 18 22  1  0
 19 20  1  0
 20 21  1  0
 22 21  2  0
 23 25  1  0
 23 16  1  0
 24 23  2  0
M  END
$$$$
