DCH.pdb
     RDKit          3D

 25 25  0  0  1  0  0  0  0  0999 V2000
    9.7632  -17.1037   19.8551 N   0  0  0  0  0  0  0  0  0  0  0  0
    8.5121  -16.6423   20.4016 C   0  0  1  0  0  0  0  0  0  0  0  0
    7.4441  -17.7004   20.2658 C   0  0  0  0  0  0  0  0  0  0  0  0
    7.1095  -17.9626   18.8396 C   0  0  0  0  0  0  0  0  0  0  0  0
    7.9339  -18.5484   18.0955 O   0  0  0  0  0  0  0  0  0  0  0  0
    8.6880  -16.1868   21.7902 C   0  0  0  0  0  0  0  0  0  0  0  0
    9.7313  -16.5321   22.4265 O   0  0  0  0  0  0  0  0  0  0  0  0
    5.8934  -17.5562   18.3547 O   0  0  0  0  0  0  0  0  0  0  0  0
    7.7763  -15.3778   22.4992 N   0  0  0  0  0  0  0  0  0  0  0  0
    7.9158  -14.9787   23.8669 C   0  0  1  0  0  0  0  0  0  0  0  0
    6.9080  -13.9454   24.3014 C   0  0  0  0  0  0  0  0  0  0  0  0
    7.1140  -13.5534   26.0732 S   0  0  0  0  0  0  0  0  0  0  0  0
    7.7787  -16.1230   24.8094 C   0  0  0  0  0  0  0  0  0  0  0  0
    6.6193  -16.5437   25.0568 O   0  0  0  0  0  0  0  0  0  0  0  0
    8.8710  -16.7544   25.4337 N   0  0  0  0  0  0  0  0  0  0  0  0
    8.7463  -17.8484   26.3913 C   0  0  1  0  0  0  0  0  0  0  0  0
    9.0902  -19.1598   25.7808 C   0  0  0  0  0  0  0  0  0  0  0  0
    8.0826  -19.5695   24.7930 C   0  0  0  0  0  0  0  0  0  0  0  0
    6.7499  -19.8630   24.9489 C   0  0  0  0  0  0  0  0  0  0  0  0
    6.2454  -20.2210   23.7407 N   0  0  0  0  0  0  0  0  0  0  0  0
    7.2231  -20.1593   22.8405 C   0  0  0  0  0  0  0  0  0  0  0  0
    8.3297  -19.7684   23.4673 N   0  0  0  0  0  0  0  0  0  0  0  0
    9.6608  -17.5439   27.5084 C   0  0  0  0  0  0  0  0  0  0  0  0
   10.4167  -16.5153   27.5193 O   0  0  0  0  0  0  0  0  0  0  0  0
    9.7499  -18.3804   28.6345 O   0  0  0  0  0  0  0  0  0  0  0  0
  2  1  1  1
  2  3  1  0
  4  3  1  0
  5  4  2  0
  6  2  1  0
  6  7  2  0
  8  4  1  0
  9  6  1  0
 10  9  1  0
 10 13  1  0
 10 11  1  1
 12 11  1  0
 13 15  1  0
 14 13  2  0
 15 16  1  0
 16 17  1  6
 17 18  1  0
 18 19  2  0
 18 22  1  0
 19 20  1  0
 20 21  1  0
 22 21  2  0
 23 25  1  0
 23 16  1  0
 24 23  2  0
M  END
$$$$
