DCH.pdb
     RDKit          3D

 25 25  0  0  1  0  0  0  0  0999 V2000
   11.5694  -18.6129   16.7901 N   0  0  0  0  0  0  0  0  0  0  0  0
   11.6804  -19.2768   18.0644 C   0  0  1  0  0  0  0  0  0  0  0  0
   13.0409  -19.9115   18.2223 C   0  0  0  0  0  0  0  0  0  0  0  0
   13.3213  -20.8867   17.1336 C   0  0  0  0  0  0  0  0  0  0  0  0
   12.5013  -21.8033   16.8810 O   0  0  0  0  0  0  0  0  0  0  0  0
   11.3532  -18.3525   19.1623 C   0  0  0  0  0  0  0  0  0  0  0  0
   11.7148  -17.1382   19.0764 O   0  0  0  0  0  0  0  0  0  0  0  0
   14.4829  -20.7681   16.4155 O   0  0  0  0  0  0  0  0  0  0  0  0
   10.6541  -18.7032   20.3355 N   0  0  0  0  0  0  0  0  0  0  0  0
   10.2595  -17.7915   21.3662 C   0  0  1  0  0  0  0  0  0  0  0  0
    8.8047  -17.9002   21.7456 C   0  0  0  0  0  0  0  0  0  0  0  0
    7.7401  -17.6679   20.2800 S   0  0  0  0  0  0  0  0  0  0  0  0
   11.0373  -17.9817   22.6212 C   0  0  0  0  0  0  0  0  0  0  0  0
   11.0829  -19.1384   23.1136 O   0  0  0  0  0  0  0  0  0  0  0  0
   11.7195  -16.9422   23.2811 N   0  0  0  0  0  0  0  0  0  0  0  0
   12.4588  -17.1103   24.5280 C   0  0  1  0  0  0  0  0  0  0  0  0
   13.4987  -16.0615   24.7001 C   0  0  0  0  0  0  0  0  0  0  0  0
   14.4971  -16.1178   23.6236 C   0  0  0  0  0  0  0  0  0  0  0  0
   14.6855  -17.0482   22.6309 C   0  0  0  0  0  0  0  0  0  0  0  0
   15.7620  -16.6758   21.8927 N   0  0  0  0  0  0  0  0  0  0  0  0
   16.2474  -15.5441   22.3964 C   0  0  0  0  0  0  0  0  0  0  0  0
   15.4913  -15.2040   23.4368 N   0  0  0  0  0  0  0  0  0  0  0  0
   11.4715  -17.0419   25.6221 C   0  0  0  0  0  0  0  0  0  0  0  0
   11.7786  -17.2592   26.8420 O   0  0  0  0  0  0  0  0  0  0  0  0
   10.1229  -16.7301   25.3772 O   0  0  0  0  0  0  0  0  0  0  0  0
  2  1  1  6
  2  3  1  0
  4  3  1  0
  5  4  2  0
  6  2  1  0
  6  7  2  0
  8  4  1  0
  9  6  1  0
 10  9  1  0
 10 13  1  0
 10 11  1  1
 12 11  1  0
 13 15  1  0
 14 13  2  0
 15 16  1  0
 16 17  1  1
 17 18  1  0
 18 19  2  0
 18 22  1  0
 19 20  1  0
 20 21  1  0
 22 21  2  0
 23 25  1  0
 23 16  1  0
 24 23  2  0
M  END
$$$$
