DCH.pdb
     RDKit          3D

 25 25  0  0  1  0  0  0  0  0999 V2000
    8.5283  -16.6717   15.1780 N   0  0  0  0  0  0  0  0  0  0  0  0
    9.8730  -16.1653   15.0673 C   0  0  1  0  0  0  0  0  0  0  0  0
   10.0491  -15.3849   13.7872 C   0  0  0  0  0  0  0  0  0  0  0  0
   11.2500  -15.8337   13.0315 C   0  0  0  0  0  0  0  0  0  0  0  0
   12.0386  -14.9891   12.5404 O   0  0  0  0  0  0  0  0  0  0  0  0
   10.2352  -15.3863   16.2626 C   0  0  0  0  0  0  0  0  0  0  0  0
   11.4183  -14.9385   16.3734 O   0  0  0  0  0  0  0  0  0  0  0  0
   11.4795  -17.1768   12.8814 O   0  0  0  0  0  0  0  0  0  0  0  0
    9.3619  -15.0832   17.3274 N   0  0  0  0  0  0  0  0  0  0  0  0
    9.7312  -14.4004   18.5302 C   0  0  1  0  0  0  0  0  0  0  0  0
    8.5675  -14.1128   19.4442 C   0  0  0  0  0  0  0  0  0  0  0  0
    7.2643  -13.1937   18.5542 S   0  0  0  0  0  0  0  0  0  0  0  0
   10.7210  -15.1658   19.3369 C   0  0  0  0  0  0  0  0  0  0  0  0
   10.6340  -16.4207   19.3357 O   0  0  0  0  0  0  0  0  0  0  0  0
   11.7420  -14.5630   20.0956 N   0  0  0  0  0  0  0  0  0  0  0  0
   12.6448  -15.2928   20.9796 C   0  0  1  0  0  0  0  0  0  0  0  0
   13.9325  -14.5744   21.1706 C   0  0  0  0  0  0  0  0  0  0  0  0
   14.7168  -14.5449   19.9285 C   0  0  0  0  0  0  0  0  0  0  0  0
   14.5262  -15.2037   18.7386 C   0  0  0  0  0  0  0  0  0  0  0  0
   15.5389  -14.8722   17.8977 N   0  0  0  0  0  0  0  0  0  0  0  0
   16.3518  -14.0290   18.5287 C   0  0  0  0  0  0  0  0  0  0  0  0
   15.8628  -13.8287   19.7497 N   0  0  0  0  0  0  0  0  0  0  0  0
   11.9454  -15.4493   22.2691 C   0  0  0  0  0  0  0  0  0  0  0  0
   10.8122  -14.9122   22.5080 O   0  0  0  0  0  0  0  0  0  0  0  0
   12.4958  -16.2076   23.3169 O   0  0  0  0  0  0  0  0  0  0  0  0
  2  1  1  1
  2  3  1  0
  4  3  1  0
  5  4  2  0
  6  2  1  0
  6  7  2  0
  8  4  1  0
  9  6  1  0
 10  9  1  0
 10 13  1  0
 10 11  1  1
 12 11  1  0
 13 15  1  0
 14 13  2  0
 15 16  1  0
 16 17  1  1
 17 18  1  0
 18 19  2  0
 18 22  1  0
 19 20  1  0
 20 21  1  0
 22 21  2  0
 23 25  1  0
 23 16  1  0
 24 23  2  0
M  END
$$$$
