CKE.pdb
     RDKit          3D

 25 24  0  0  1  0  0  0  0  0999 V2000
   14.6317  -11.7333  -10.7885 N   0  0  0  0  0  0  0  0  0  0  0  0
   15.8679  -11.0668  -10.4756 C   0  0  1  0  0  0  0  0  0  0  0  0
   17.0306  -11.6936  -11.2185 C   0  0  0  0  0  0  0  0  0  0  0  0
   17.2759  -13.4045  -10.7282 S   0  0  0  0  0  0  0  0  0  0  0  0
   15.7883   -9.6056  -10.7209 C   0  0  0  0  0  0  0  0  0  0  0  0
   15.2548   -9.1459  -11.7599 O   0  0  0  0  0  0  0  0  0  0  0  0
   16.3080   -8.6816   -9.7976 N   0  0  0  0  0  0  0  0  0  0  0  0
   16.3064   -7.2370   -9.9999 C   0  0  1  0  0  0  0  0  0  0  0  0
   15.8919   -6.4944   -8.7982 C   0  0  0  0  0  0  0  0  0  0  0  0
   14.4166   -6.2382   -8.7859 C   0  0  0  0  0  0  0  0  0  0  0  0
   13.9943   -5.5315   -7.4916 C   0  0  0  0  0  0  0  0  0  0  0  0
   12.4918   -5.3512   -7.5896 C   0  0  0  0  0  0  0  0  0  0  0  0
   11.9527   -4.6811   -6.4239 N   0  0  0  0  0  0  0  0  0  0  0  0
   17.7375   -6.9100  -10.3367 C   0  0  0  0  0  0  0  0  0  0  0  0
   18.7137   -7.5127   -9.8153 O   0  0  0  0  0  0  0  0  0  0  0  0
   18.0620   -5.8939  -11.2695 N   0  0  0  0  0  0  0  0  0  0  0  0
   19.3953   -5.8699  -11.8770 C   0  0  1  0  0  0  0  0  0  0  0  0
   19.6853   -7.1905  -12.5348 C   0  0  0  0  0  0  0  0  0  0  0  0
   20.9849   -7.1161  -13.2826 C   0  0  0  0  0  0  0  0  0  0  0  0
   21.2730   -8.4473  -13.9164 C   0  0  0  0  0  0  0  0  0  0  0  0
   21.2499   -8.5471  -15.1602 O   0  0  0  0  0  0  0  0  0  0  0  0
   19.4097   -4.7359  -12.8048 C   0  0  0  0  0  0  0  0  0  0  0  0
   18.3064   -4.3659  -13.3292 O   0  0  0  0  0  0  0  0  0  0  0  0
   21.5649   -9.5742  -13.1696 O   0  0  0  0  0  0  0  0  0  0  0  0
   20.5315   -4.0013  -13.1800 O   0  0  0  0  0  0  0  0  0  0  0  0
  2  3  1  0
  2  1  1  6
  3  4  1  0
  5  2  1  0
  5  6  2  0
  7  5  1  0
  8 14  1  0
  8  7  1  0
  8  9  1  1
 10  9  1  0
 10 11  1  0
 12 13  1  0
 12 11  1  0
 14 15  2  0
 16 14  1  0
 16 17  1  0
 17 22  1  0
 17 18  1  6
 19 20  1  0
 19 18  1  0
 20 21  2  0
 22 23  2  0
 22 25  1  0
 24 20  1  0
M  END
$$$$
