CKE.pdb
     RDKit          3D

 25 24  0  0  1  0  0  0  0  0999 V2000
   19.0478  -15.2382  -17.2855 N   0  0  0  0  0  0  0  0  0  0  0  0
   19.8748  -14.2032  -17.8470 C   0  0  1  0  0  0  0  0  0  0  0  0
   19.0697  -13.2880  -18.7474 C   0  0  0  0  0  0  0  0  0  0  0  0
   18.9837  -13.9279  -20.4240 S   0  0  0  0  0  0  0  0  0  0  0  0
   20.5969  -13.4400  -16.7993 C   0  0  0  0  0  0  0  0  0  0  0  0
   20.0054  -13.0123  -15.7782 O   0  0  0  0  0  0  0  0  0  0  0  0
   21.9715  -13.1678  -16.9121 N   0  0  0  0  0  0  0  0  0  0  0  0
   22.7605  -12.5085  -15.8772 C   0  0  1  0  0  0  0  0  0  0  0  0
   24.1833  -12.8837  -15.9206 C   0  0  0  0  0  0  0  0  0  0  0  0
   24.3815  -14.3410  -15.6389 C   0  0  0  0  0  0  0  0  0  0  0  0
   25.8741  -14.6920  -15.5936 C   0  0  0  0  0  0  0  0  0  0  0  0
   25.9406  -16.1881  -15.3555 C   0  0  0  0  0  0  0  0  0  0  0  0
   27.3067  -16.6695  -15.3318 N   0  0  0  0  0  0  0  0  0  0  0  0
   22.6079  -11.0402  -16.1761 C   0  0  0  0  0  0  0  0  0  0  0  0
   22.7310  -10.5661  -17.3372 O   0  0  0  0  0  0  0  0  0  0  0  0
   22.3145  -10.1057  -15.1521 N   0  0  0  0  0  0  0  0  0  0  0  0
   22.0513   -8.7077  -15.5037 C   0  0  1  0  0  0  0  0  0  0  0  0
   20.8794   -8.6244  -16.4420 C   0  0  0  0  0  0  0  0  0  0  0  0
   19.5962   -8.6603  -15.6638 C   0  0  0  0  0  0  0  0  0  0  0  0
   18.4442   -8.3845  -16.5877 C   0  0  0  0  0  0  0  0  0  0  0  0
   18.2421   -9.1484  -17.5536 O   0  0  0  0  0  0  0  0  0  0  0  0
   21.8450   -7.9928  -14.2415 C   0  0  0  0  0  0  0  0  0  0  0  0
   21.7671   -6.7191  -14.2704 O   0  0  0  0  0  0  0  0  0  0  0  0
   17.5930   -7.3093  -16.4078 O   0  0  0  0  0  0  0  0  0  0  0  0
   21.7198   -8.5756  -12.9831 O   0  0  0  0  0  0  0  0  0  0  0  0
  2  3  1  0
  2  1  1  1
  3  4  1  0
  5  2  1  0
  5  6  2  0
  7  5  1  0
  8 14  1  0
  8  7  1  0
  8  9  1  6
 10  9  1  0
 10 11  1  0
 12 13  1  0
 12 11  1  0
 14 15  2  0
 16 14  1  0
 16 17  1  0
 17 22  1  0
 17 18  1  6
 19 20  1  0
 19 18  1  0
 20 21  2  0
 22 23  2  0
 22 25  1  0
 24 20  1  0
M  END
$$$$
