CKE.pdb
     RDKit          3D

 25 24  0  0  1  0  0  0  0  0999 V2000
   18.0387  -14.8518  -16.7348 N   0  0  0  0  0  0  0  0  0  0  0  0
   18.1048  -13.9112  -15.6480 C   0  0  1  0  0  0  0  0  0  0  0  0
   19.5236  -13.7667  -15.1353 C   0  0  0  0  0  0  0  0  0  0  0  0
   20.0962  -15.2806  -14.3556 S   0  0  0  0  0  0  0  0  0  0  0  0
   17.5211  -12.5973  -16.0146 C   0  0  0  0  0  0  0  0  0  0  0  0
   17.7508  -12.0689  -17.1297 O   0  0  0  0  0  0  0  0  0  0  0  0
   16.6886  -11.8954  -15.1255 N   0  0  0  0  0  0  0  0  0  0  0  0
   15.9805  -10.6668  -15.4680 C   0  0  1  0  0  0  0  0  0  0  0  0
   14.5651  -10.6941  -15.0641 C   0  0  0  0  0  0  0  0  0  0  0  0
   13.7127  -11.3942  -16.0768 C   0  0  0  0  0  0  0  0  0  0  0  0
   12.2552  -11.4732  -15.6051 C   0  0  0  0  0  0  0  0  0  0  0  0
   11.5143  -12.2478  -16.6777 C   0  0  0  0  0  0  0  0  0  0  0  0
   10.1576  -12.5597  -16.2767 N   0  0  0  0  0  0  0  0  0  0  0  0
   16.7114   -9.5943  -14.7037 C   0  0  0  0  0  0  0  0  0  0  0  0
   16.9428   -9.6777  -13.4678 O   0  0  0  0  0  0  0  0  0  0  0  0
   17.1815   -8.4217  -15.3455 N   0  0  0  0  0  0  0  0  0  0  0  0
   17.9060   -7.4134  -14.5673 C   0  0  1  0  0  0  0  0  0  0  0  0
   19.2602   -7.1698  -15.1736 C   0  0  0  0  0  0  0  0  0  0  0  0
   20.2241   -8.2257  -14.7160 C   0  0  0  0  0  0  0  0  0  0  0  0
   21.5895   -7.9278  -15.2670 C   0  0  0  0  0  0  0  0  0  0  0  0
   22.1426   -8.7651  -16.0090 O   0  0  0  0  0  0  0  0  0  0  0  0
   17.0542   -6.2216  -14.5347 C   0  0  0  0  0  0  0  0  0  0  0  0
   17.4369   -5.2200  -13.8421 O   0  0  0  0  0  0  0  0  0  0  0  0
   22.2619   -6.7533  -14.9817 O   0  0  0  0  0  0  0  0  0  0  0  0
   15.8413   -6.0655  -15.2005 O   0  0  0  0  0  0  0  0  0  0  0  0
  2  3  1  0
  2  1  1  6
  3  4  1  0
  5  2  1  0
  5  6  2  0
  7  5  1  0
  8 14  1  0
  8  7  1  0
  8  9  1  1
 10  9  1  0
 10 11  1  0
 12 13  1  0
 12 11  1  0
 14 15  2  0
 16 14  1  0
 16 17  1  0
 17 22  1  0
 17 18  1  6
 19 20  1  0
 19 18  1  0
 20 21  2  0
 22 23  2  0
 22 25  1  0
 24 20  1  0
M  END
$$$$
