CKE.pdb
     RDKit          3D

 25 24  0  0  1  0  0  0  0  0999 V2000
   19.6189  -12.9773  -16.3638 N   0  0  0  0  0  0  0  0  0  0  0  0
   19.8597  -11.8631  -17.2417 C   0  0  1  0  0  0  0  0  0  0  0  0
   18.8372  -10.7655  -17.0256 C   0  0  0  0  0  0  0  0  0  0  0  0
   17.1610  -11.3869  -17.2041 S   0  0  0  0  0  0  0  0  0  0  0  0
   21.2460  -11.3487  -17.1186 C   0  0  0  0  0  0  0  0  0  0  0  0
   21.7768  -11.1640  -15.9963 O   0  0  0  0  0  0  0  0  0  0  0  0
   22.0164  -11.0491  -18.2556 N   0  0  0  0  0  0  0  0  0  0  0  0
   23.3811  -10.5362  -18.2048 C   0  0  1  0  0  0  0  0  0  0  0  0
   24.1524  -10.8490  -19.4191 C   0  0  0  0  0  0  0  0  0  0  0  0
   24.5773  -12.2845  -19.4519 C   0  0  0  0  0  0  0  0  0  0  0  0
   25.3993  -12.5836  -20.7120 C   0  0  0  0  0  0  0  0  0  0  0  0
   25.7540  -14.0560  -20.6352 C   0  0  0  0  0  0  0  0  0  0  0  0
   26.5891  -14.4674  -21.7451 N   0  0  0  0  0  0  0  0  0  0  0  0
   23.2104   -9.0454  -18.0754 C   0  0  0  0  0  0  0  0  0  0  0  0
   22.2388   -8.4253  -18.5849 O   0  0  0  0  0  0  0  0  0  0  0  0
   24.1471   -8.2547  -17.3645 N   0  0  0  0  0  0  0  0  0  0  0  0
   23.8876   -6.8254  -17.1723 C   0  0  1  0  0  0  0  0  0  0  0  0
   23.0583   -6.6142  -15.9360 C   0  0  0  0  0  0  0  0  0  0  0  0
   22.8395   -5.1463  -15.7103 C   0  0  0  0  0  0  0  0  0  0  0  0
   22.0445   -4.9479  -14.4512 C   0  0  0  0  0  0  0  0  0  0  0  0
   21.0178   -4.2391  -14.4848 O   0  0  0  0  0  0  0  0  0  0  0  0
   25.1960   -6.1679  -17.1212 C   0  0  0  0  0  0  0  0  0  0  0  0
   26.2255   -6.8817  -16.8762 O   0  0  0  0  0  0  0  0  0  0  0  0
   22.4088   -5.5244  -13.2479 O   0  0  0  0  0  0  0  0  0  0  0  0
   25.4371   -4.8110  -17.3199 O   0  0  0  0  0  0  0  0  0  0  0  0
  2  3  1  0
  2  1  1  1
  3  4  1  0
  5  2  1  0
  5  6  2  0
  7  5  1  0
  8 14  1  0
  8  7  1  0
  8  9  1  6
 10  9  1  0
 10 11  1  0
 12 13  1  0
 12 11  1  0
 14 15  2  0
 16 14  1  0
 16 17  1  0
 17 22  1  0
 17 18  1  1
 19 20  1  0
 19 18  1  0
 20 21  2  0
 22 23  2  0
 22 25  1  0
 24 20  1  0
M  END
$$$$
