CKE.pdb
     RDKit          3D

 25 24  0  0  1  0  0  0  0  0999 V2000
   29.4286  -29.5790  -16.9506 N   0  0  0  0  0  0  0  0  0  0  0  0
   28.6929  -28.6727  -17.7918 C   0  0  1  0  0  0  0  0  0  0  0  0
   28.2291  -29.3589  -19.0610 C   0  0  0  0  0  0  0  0  0  0  0  0
   29.5284  -29.3904  -20.3014 S   0  0  0  0  0  0  0  0  0  0  0  0
   27.5618  -28.0393  -17.0699 C   0  0  0  0  0  0  0  0  0  0  0  0
   26.9707  -28.6314  -16.1342 O   0  0  0  0  0  0  0  0  0  0  0  0
   27.1104  -26.7516  -17.4078 N   0  0  0  0  0  0  0  0  0  0  0  0
   26.0547  -26.0431  -16.6927 C   0  0  1  0  0  0  0  0  0  0  0  0
   26.0628  -24.5944  -16.9547 C   0  0  0  0  0  0  0  0  0  0  0  0
   24.8734  -23.9147  -16.3500 C   0  0  0  0  0  0  0  0  0  0  0  0
   25.0949  -23.6503  -14.8553 C   0  0  0  0  0  0  0  0  0  0  0  0
   23.8303  -22.9739  -14.3626 C   0  0  0  0  0  0  0  0  0  0  0  0
   23.9333  -22.5886  -12.9699 N   0  0  0  0  0  0  0  0  0  0  0  0
   24.7809  -26.6520  -17.2173 C   0  0  0  0  0  0  0  0  0  0  0  0
   24.5266  -26.7418  -18.4483 O   0  0  0  0  0  0  0  0  0  0  0  0
   23.7910  -27.1610  -16.3404 N   0  0  0  0  0  0  0  0  0  0  0  0
   22.5683  -27.7485  -16.8944 C   0  0  1  0  0  0  0  0  0  0  0  0
   21.9413  -28.6754  -15.8901 C   0  0  0  0  0  0  0  0  0  0  0  0
   20.6698  -29.2485  -16.4454 C   0  0  0  0  0  0  0  0  0  0  0  0
   20.0399  -30.1500  -15.4221 C   0  0  0  0  0  0  0  0  0  0  0  0
   18.8928  -30.5965  -15.6279 O   0  0  0  0  0  0  0  0  0  0  0  0
   21.7052  -26.6285  -17.2786 C   0  0  0  0  0  0  0  0  0  0  0  0
   21.1157  -26.6759  -18.4098 O   0  0  0  0  0  0  0  0  0  0  0  0
   20.6865  -30.5067  -14.2527 O   0  0  0  0  0  0  0  0  0  0  0  0
   21.4546  -25.4909  -16.5159 O   0  0  0  0  0  0  0  0  0  0  0  0
  2  3  1  0
  2  1  1  1
  3  4  1  0
  5  2  1  0
  5  6  2  0
  7  5  1  0
  8 14  1  0
  8  7  1  0
  8  9  1  6
 10  9  1  0
 10 11  1  0
 12 13  1  0
 12 11  1  0
 14 15  2  0
 16 14  1  0
 16 17  1  0
 17 22  1  0
 17 18  1  1
 19 20  1  0
 19 18  1  0
 20 21  2  0
 22 23  2  0
 22 25  1  0
 24 20  1  0
M  END
$$$$
