CKE.pdb
     RDKit          3D

 25 24  0  0  1  0  0  0  0  0999 V2000
   26.8787  -21.5773  -11.7946 N   0  0  0  0  0  0  0  0  0  0  0  0
   25.7418  -20.8315  -11.3236 C   0  0  1  0  0  0  0  0  0  0  0  0
   25.9953  -20.2623   -9.9422 C   0  0  0  0  0  0  0  0  0  0  0  0
   27.1572  -21.2749   -9.0190 S   0  0  0  0  0  0  0  0  0  0  0  0
   25.3350  -19.7749  -12.2825 C   0  0  0  0  0  0  0  0  0  0  0  0
   24.3017  -19.0870  -12.0967 O   0  0  0  0  0  0  0  0  0  0  0  0
   26.0928  -19.5052  -13.4355 N   0  0  0  0  0  0  0  0  0  0  0  0
   25.7651  -18.4632  -14.4023 C   0  0  1  0  0  0  0  0  0  0  0  0
   26.9519  -17.9372  -15.0966 C   0  0  0  0  0  0  0  0  0  0  0  0
   26.5880  -16.8835  -16.0964 C   0  0  0  0  0  0  0  0  0  0  0  0
   27.8130  -16.4616  -16.9177 C   0  0  0  0  0  0  0  0  0  0  0  0
   27.3229  -15.3886  -17.8707 C   0  0  0  0  0  0  0  0  0  0  0  0
   26.4620  -15.9348  -18.8998 N   0  0  0  0  0  0  0  0  0  0  0  0
   24.8553  -19.1476  -15.3884 C   0  0  0  0  0  0  0  0  0  0  0  0
   25.0126  -20.3477  -15.7392 O   0  0  0  0  0  0  0  0  0  0  0  0
   23.7622  -18.4665  -15.9790 N   0  0  0  0  0  0  0  0  0  0  0  0
   22.4926  -19.1714  -16.1751 C   0  0  1  0  0  0  0  0  0  0  0  0
   22.0110  -19.7382  -14.8683 C   0  0  0  0  0  0  0  0  0  0  0  0
   20.6976  -20.4379  -15.0661 C   0  0  0  0  0  0  0  0  0  0  0  0
   20.2368  -21.0137  -13.7574 C   0  0  0  0  0  0  0  0  0  0  0  0
   19.2446  -20.5145  -13.1883 O   0  0  0  0  0  0  0  0  0  0  0  0
   21.5675  -18.2045  -16.7723 C   0  0  0  0  0  0  0  0  0  0  0  0
   21.7904  -16.9604  -16.5941 O   0  0  0  0  0  0  0  0  0  0  0  0
   20.8739  -22.0831  -13.1547 O   0  0  0  0  0  0  0  0  0  0  0  0
   20.4440  -18.5121  -17.5350 O   0  0  0  0  0  0  0  0  0  0  0  0
  2  3  1  0
  2  1  1  6
  3  4  1  0
  5  2  1  0
  5  6  2  0
  7  5  1  0
  8 14  1  0
  8  7  1  0
  8  9  1  6
 10  9  1  0
 10 11  1  0
 12 13  1  0
 12 11  1  0
 14 15  2  0
 16 14  1  0
 16 17  1  0
 17 22  1  0
 17 18  1  1
 19 20  1  0
 19 18  1  0
 20 21  2  0
 22 23  2  0
 22 25  1  0
 24 20  1  0
M  END
$$$$
