CKE.pdb
     RDKit          3D

 25 24  0  0  1  0  0  0  0  0999 V2000
   27.5205  -22.6161  -17.4484 N   0  0  0  0  0  0  0  0  0  0  0  0
   27.9517  -23.5296  -16.4238 C   0  0  1  0  0  0  0  0  0  0  0  0
   26.8322  -24.4688  -16.0219 C   0  0  0  0  0  0  0  0  0  0  0  0
   25.4241  -23.5670  -15.3651 S   0  0  0  0  0  0  0  0  0  0  0  0
   29.1718  -24.2743  -16.8215 C   0  0  0  0  0  0  0  0  0  0  0  0
   29.3695  -24.6153  -18.0133 O   0  0  0  0  0  0  0  0  0  0  0  0
   30.1522  -24.6257  -15.8772 N   0  0  0  0  0  0  0  0  0  0  0  0
   31.3767  -25.3487  -16.2026 C   0  0  1  0  0  0  0  0  0  0  0  0
   32.3515  -25.3425  -15.0995 C   0  0  0  0  0  0  0  0  0  0  0  0
   33.5790  -26.1299  -15.4397 C   0  0  0  0  0  0  0  0  0  0  0  0
   34.2714  -25.5550  -16.6820 C   0  0  0  0  0  0  0  0  0  0  0  0
   35.4861  -26.4306  -16.9213 C   0  0  0  0  0  0  0  0  0  0  0  0
   36.3045  -25.9312  -18.0074 N   0  0  0  0  0  0  0  0  0  0  0  0
   30.9139  -26.7567  -16.4702 C   0  0  0  0  0  0  0  0  0  0  0  0
   30.1051  -27.3616  -15.7165 O   0  0  0  0  0  0  0  0  0  0  0  0
   31.3715  -27.4816  -17.5986 N   0  0  0  0  0  0  0  0  0  0  0  0
   30.8461  -28.8250  -17.8558 C   0  0  1  0  0  0  0  0  0  0  0  0
   29.3466  -28.7807  -17.9587 C   0  0  0  0  0  0  0  0  0  0  0  0
   28.8311  -30.0842  -18.4960 C   0  0  0  0  0  0  0  0  0  0  0  0
   27.3348  -30.0191  -18.6128 C   0  0  0  0  0  0  0  0  0  0  0  0
   26.6342  -30.2787  -17.6131 O   0  0  0  0  0  0  0  0  0  0  0  0
   31.5044  -29.3033  -19.0743 C   0  0  0  0  0  0  0  0  0  0  0  0
   31.3810  -30.5342  -19.3885 O   0  0  0  0  0  0  0  0  0  0  0  0
   26.6992  -29.6803  -19.7935 O   0  0  0  0  0  0  0  0  0  0  0  0
   32.2677  -28.5323  -19.9472 O   0  0  0  0  0  0  0  0  0  0  0  0
  2  3  1  0
  2  1  1  6
  3  4  1  0
  5  2  1  0
  5  6  2  0
  7  5  1  0
  8 14  1  0
  8  7  1  0
  8  9  1  1
 10  9  1  0
 10 11  1  0
 12 13  1  0
 12 11  1  0
 14 15  2  0
 16 14  1  0
 16 17  1  0
 17 22  1  0
 17 18  1  6
 19 20  1  0
 19 18  1  0
 20 21  2  0
 22 23  2  0
 22 25  1  0
 24 20  1  0
M  END
$$$$
