CKE.pdb
     RDKit          3D

 25 24  0  0  1  0  0  0  0  0999 V2000
   14.7604   -8.3186   -8.4241 N   0  0  0  0  0  0  0  0  0  0  0  0
   15.1185   -7.7173   -9.6813 C   0  0  1  0  0  0  0  0  0  0  0  0
   15.4453   -6.2473   -9.5112 C   0  0  0  0  0  0  0  0  0  0  0  0
   13.9856   -5.2983   -9.0682 S   0  0  0  0  0  0  0  0  0  0  0  0
   16.2228   -8.4474  -10.3513 C   0  0  0  0  0  0  0  0  0  0  0  0
   17.2488   -8.8014   -9.7208 O   0  0  0  0  0  0  0  0  0  0  0  0
   16.1604   -8.7698  -11.7182 N   0  0  0  0  0  0  0  0  0  0  0  0
   17.2045   -9.4942  -12.4344 C   0  0  1  0  0  0  0  0  0  0  0  0
   16.6739  -10.5986  -13.2505 C   0  0  0  0  0  0  0  0  0  0  0  0
   16.3633  -11.8039  -12.4180 C   0  0  0  0  0  0  0  0  0  0  0  0
   15.7139  -12.9037  -13.2677 C   0  0  0  0  0  0  0  0  0  0  0  0
   15.3482  -14.0126  -12.3002 C   0  0  0  0  0  0  0  0  0  0  0  0
   14.7026  -15.1220  -12.9718 N   0  0  0  0  0  0  0  0  0  0  0  0
   17.8313   -8.4536  -13.3249 C   0  0  0  0  0  0  0  0  0  0  0  0
   17.1662   -7.5266  -13.8600 O   0  0  0  0  0  0  0  0  0  0  0  0
   19.2194   -8.4656  -13.6093 N   0  0  0  0  0  0  0  0  0  0  0  0
   19.7836   -7.4456  -14.4973 C   0  0  1  0  0  0  0  0  0  0  0  0
   19.4348   -6.0730  -13.9923 C   0  0  0  0  0  0  0  0  0  0  0  0
   20.0958   -5.0296  -14.8455 C   0  0  0  0  0  0  0  0  0  0  0  0
   19.6894   -3.6642  -14.3689 C   0  0  0  0  0  0  0  0  0  0  0  0
   20.5594   -2.7776  -14.2481 O   0  0  0  0  0  0  0  0  0  0  0  0
   21.2253   -7.6995  -14.5598 C   0  0  0  0  0  0  0  0  0  0  0  0
   21.9455   -6.9371  -15.2874 O   0  0  0  0  0  0  0  0  0  0  0  0
   18.3793   -3.3494  -14.0567 O   0  0  0  0  0  0  0  0  0  0  0  0
   21.9069   -8.7109  -13.8880 O   0  0  0  0  0  0  0  0  0  0  0  0
  2  3  1  0
  2  1  1  1
  3  4  1  0
  5  2  1  0
  5  6  2  0
  7  5  1  0
  8 14  1  0
  8  7  1  0
  8  9  1  6
 10  9  1  0
 10 11  1  0
 12 13  1  0
 12 11  1  0
 14 15  2  0
 16 14  1  0
 16 17  1  0
 17 22  1  0
 17 18  1  1
 19 20  1  0
 19 18  1  0
 20 21  2  0
 22 23  2  0
 22 25  1  0
 24 20  1  0
M  END
$$$$
