CKE.pdb
     RDKit          3D

 25 24  0  0  1  0  0  0  0  0999 V2000
   28.3141  -21.4561  -16.7203 N   0  0  0  0  0  0  0  0  0  0  0  0
   27.6595  -20.4125  -15.9768 C   0  0  1  0  0  0  0  0  0  0  0  0
   27.1328  -19.3316  -16.8991 C   0  0  0  0  0  0  0  0  0  0  0  0
   28.4680  -18.5142  -17.7806 S   0  0  0  0  0  0  0  0  0  0  0  0
   26.5914  -20.9452  -15.0953 C   0  0  0  0  0  0  0  0  0  0  0  0
   25.7657  -21.7948  -15.5098 O   0  0  0  0  0  0  0  0  0  0  0  0
   26.4651  -20.5173  -13.7622 N   0  0  0  0  0  0  0  0  0  0  0  0
   25.4425  -21.0036  -12.8424 C   0  0  1  0  0  0  0  0  0  0  0  0
   25.6945  -20.6039  -11.4481 C   0  0  0  0  0  0  0  0  0  0  0  0
   24.6322  -21.1142  -10.5243 C   0  0  0  0  0  0  0  0  0  0  0  0
   24.8853  -20.6443   -9.0861 C   0  0  0  0  0  0  0  0  0  0  0  0
   23.8624  -21.3646   -8.2292 C   0  0  0  0  0  0  0  0  0  0  0  0
   23.8475  -20.8611   -6.8709 N   0  0  0  0  0  0  0  0  0  0  0  0
   24.1696  -20.3677  -13.3362 C   0  0  0  0  0  0  0  0  0  0  0  0
   24.0799  -19.1378  -13.5956 O   0  0  0  0  0  0  0  0  0  0  0  0
   22.9929  -21.1316  -13.5361 N   0  0  0  0  0  0  0  0  0  0  0  0
   21.7797  -20.4738  -14.0287 C   0  0  1  0  0  0  0  0  0  0  0  0
   21.3779  -21.0598  -15.3538 C   0  0  0  0  0  0  0  0  0  0  0  0
   20.1786  -20.3350  -15.8922 C   0  0  0  0  0  0  0  0  0  0  0  0
   19.6780  -21.0415  -17.1198 C   0  0  0  0  0  0  0  0  0  0  0  0
   20.3648  -21.9564  -17.6184 O   0  0  0  0  0  0  0  0  0  0  0  0
   20.7653  -20.6348  -12.9836 C   0  0  0  0  0  0  0  0  0  0  0  0
   19.9107  -19.7014  -12.8176 O   0  0  0  0  0  0  0  0  0  0  0  0
   18.4769  -20.7148  -17.7229 O   0  0  0  0  0  0  0  0  0  0  0  0
   20.6340  -21.7301  -12.1340 O   0  0  0  0  0  0  0  0  0  0  0  0
  2  3  1  0
  2  1  1  6
  3  4  1  0
  5  2  1  0
  5  6  2  0
  7  5  1  0
  8 14  1  0
  8  7  1  0
  8  9  1  1
 10  9  1  0
 10 11  1  0
 12 13  1  0
 12 11  1  0
 14 15  2  0
 16 14  1  0
 16 17  1  0
 17 22  1  0
 17 18  1  6
 19 20  1  0
 19 18  1  0
 20 21  2  0
 22 23  2  0
 22 25  1  0
 24 20  1  0
M  END
$$$$
