CKE.pdb
     RDKit          3D

 25 24  0  0  1  0  0  0  0  0999 V2000
   25.4643  -12.6547  -15.2278 N   0  0  0  0  0  0  0  0  0  0  0  0
   25.4505  -12.1569  -16.5778 C   0  0  1  0  0  0  0  0  0  0  0  0
   25.6969  -13.2718  -17.5743 C   0  0  0  0  0  0  0  0  0  0  0  0
   27.0891  -14.2951  -17.0821 S   0  0  0  0  0  0  0  0  0  0  0  0
   24.2008  -11.4180  -16.8843 C   0  0  0  0  0  0  0  0  0  0  0  0
   24.0285  -10.8584  -17.9945 O   0  0  0  0  0  0  0  0  0  0  0  0
   23.1630  -11.3176  -15.9414 N   0  0  0  0  0  0  0  0  0  0  0  0
   21.9514  -10.5303  -16.1421 C   0  0  1  0  0  0  0  0  0  0  0  0
   20.7482  -11.1916  -15.6108 C   0  0  0  0  0  0  0  0  0  0  0  0
   19.5168  -10.3716  -15.8419 C   0  0  0  0  0  0  0  0  0  0  0  0
   18.2967  -11.0145  -15.1702 C   0  0  0  0  0  0  0  0  0  0  0  0
   17.1343  -10.0789  -15.4405 C   0  0  0  0  0  0  0  0  0  0  0  0
   15.8701  -10.6606  -15.0381 N   0  0  0  0  0  0  0  0  0  0  0  0
   22.2113   -9.2539  -15.3860 C   0  0  0  0  0  0  0  0  0  0  0  0
   22.8300   -9.2275  -14.2885 O   0  0  0  0  0  0  0  0  0  0  0  0
   21.7665   -8.0016  -15.8779 N   0  0  0  0  0  0  0  0  0  0  0  0
   22.2017   -6.7693  -15.2153 C   0  0  1  0  0  0  0  0  0  0  0  0
   22.1969   -5.6285  -16.1947 C   0  0  0  0  0  0  0  0  0  0  0  0
   22.5859   -4.3555  -15.5007 C   0  0  0  0  0  0  0  0  0  0  0  0
   22.4593   -3.2056  -16.4591 C   0  0  0  0  0  0  0  0  0  0  0  0
   23.1619   -3.1925  -17.4904 O   0  0  0  0  0  0  0  0  0  0  0  0
   21.3021   -6.5691  -14.0761 C   0  0  0  0  0  0  0  0  0  0  0  0
   20.0813   -6.9217  -14.1968 O   0  0  0  0  0  0  0  0  0  0  0  0
   21.5882   -2.1537  -16.2412 O   0  0  0  0  0  0  0  0  0  0  0  0
   21.6523   -6.0221  -12.8445 O   0  0  0  0  0  0  0  0  0  0  0  0
  2  3  1  0
  2  1  1  1
  3  4  1  0
  5  2  1  0
  5  6  2  0
  7  5  1  0
  8 14  1  0
  8  7  1  0
  8  9  1  1
 10  9  1  0
 10 11  1  0
 12 13  1  0
 12 11  1  0
 14 15  2  0
 16 14  1  0
 16 17  1  0
 17 22  1  0
 17 18  1  6
 19 20  1  0
 19 18  1  0
 20 21  2  0
 22 23  2  0
 22 25  1  0
 24 20  1  0
M  END
$$$$
