CKE.pdb
     RDKit          3D

 25 24  0  0  1  0  0  0  0  0999 V2000
   13.5354   -7.1227  -13.9285 N   0  0  0  0  0  0  0  0  0  0  0  0
   14.3574   -7.1969  -15.1071 C   0  0  1  0  0  0  0  0  0  0  0  0
   14.6110   -5.8190  -15.6847 C   0  0  0  0  0  0  0  0  0  0  0  0
   13.1877   -5.2214  -16.6038 S   0  0  0  0  0  0  0  0  0  0  0  0
   15.6257   -7.9242  -14.8545 C   0  0  0  0  0  0  0  0  0  0  0  0
   16.1584   -7.9328  -13.7180 O   0  0  0  0  0  0  0  0  0  0  0  0
   16.2780   -8.6309  -15.8798 N   0  0  0  0  0  0  0  0  0  0  0  0
   17.4910   -9.4173  -15.6851 C   0  0  1  0  0  0  0  0  0  0  0  0
   17.4944  -10.6624  -16.4705 C   0  0  0  0  0  0  0  0  0  0  0  0
   18.7825  -11.4108  -16.3181 C   0  0  0  0  0  0  0  0  0  0  0  0
   18.7662  -12.7029  -17.1449 C   0  0  0  0  0  0  0  0  0  0  0  0
   20.1225  -13.3472  -16.9328 C   0  0  0  0  0  0  0  0  0  0  0  0
   20.3194  -14.4871  -17.8049 N   0  0  0  0  0  0  0  0  0  0  0  0
   18.5980   -8.5110  -16.1557 C   0  0  0  0  0  0  0  0  0  0  0  0
   18.4921   -7.7826  -17.1786 O   0  0  0  0  0  0  0  0  0  0  0  0
   19.8311   -8.4313  -15.4620 N   0  0  0  0  0  0  0  0  0  0  0  0
   20.8452   -7.4685  -15.8999 C   0  0  1  0  0  0  0  0  0  0  0  0
   20.9055   -6.3119  -14.9409 C   0  0  0  0  0  0  0  0  0  0  0  0
   22.0035   -5.3702  -15.3422 C   0  0  0  0  0  0  0  0  0  0  0  0
   22.0205   -4.1954  -14.4061 C   0  0  0  0  0  0  0  0  0  0  0  0
   21.3294   -4.2344  -13.3676 O   0  0  0  0  0  0  0  0  0  0  0  0
   22.1047   -8.2098  -16.0057 C   0  0  0  0  0  0  0  0  0  0  0  0
   22.3170   -9.1669  -15.1883 O   0  0  0  0  0  0  0  0  0  0  0  0
   22.7776   -3.0645  -14.6523 O   0  0  0  0  0  0  0  0  0  0  0  0
   23.1174   -7.9723  -16.9314 O   0  0  0  0  0  0  0  0  0  0  0  0
  2  3  1  0
  2  1  1  1
  3  4  1  0
  5  2  1  0
  5  6  2  0
  7  5  1  0
  8 14  1  0
  8  7  1  0
  8  9  1  6
 10  9  1  0
 10 11  1  0
 12 13  1  0
 12 11  1  0
 14 15  2  0
 16 14  1  0
 16 17  1  0
 17 22  1  0
 17 18  1  1
 19 20  1  0
 19 18  1  0
 20 21  2  0
 22 23  2  0
 22 25  1  0
 24 20  1  0
M  END
$$$$
