FYI.pdb
     RDKit          3D

 32 33  0  0  1  0  0  0  0  0999 V2000
    7.2834  -17.0386   20.1352 N   0  0  0  0  0  0  0  0  0  0  0  0
    7.7164  -16.0449   21.1327 C   0  0  1  0  0  0  0  0  0  0  0  0
    6.5004  -15.5743   21.8591 C   0  0  0  0  0  0  0  0  0  0  0  0
    6.7427  -14.5390   22.8718 C   0  0  0  0  0  0  0  0  0  0  0  0
    6.5892  -14.8553   24.1983 C   0  0  0  0  0  0  0  0  0  0  0  0
    6.8016  -13.9233   25.1986 C   0  0  0  0  0  0  0  0  0  0  0  0
    7.1738  -12.6624   24.8166 C   0  0  0  0  0  0  0  0  0  0  0  0
    7.3328  -12.3258   23.4949 C   0  0  0  0  0  0  0  0  0  0  0  0
    7.1158  -13.2694   22.5220 C   0  0  0  0  0  0  0  0  0  0  0  0
    8.7446  -16.6830   21.9535 C   0  0  0  0  0  0  0  0  0  0  0  0
    8.6200  -17.8738   22.4018 O   0  0  0  0  0  0  0  0  0  0  0  0
   16.5711  -19.7551   24.2904 O   0  0  0  0  0  0  0  0  0  0  0  0
   15.4987  -19.0084   23.7655 C   0  0  0  0  0  0  0  0  0  0  0  0
   15.6801  -17.6920   23.3965 C   0  0  0  0  0  0  0  0  0  0  0  0
   14.6310  -16.9687   22.8853 C   0  0  0  0  0  0  0  0  0  0  0  0
   13.3692  -17.4983   22.7146 C   0  0  0  0  0  0  0  0  0  0  0  0
   12.2490  -16.7110   22.1630 C   0  0  0  0  0  0  0  0  0  0  0  0
   11.0282  -16.7062   23.0654 C   0  0  2  0  0  0  0  0  0  0  0  0
    9.9759  -16.0376   22.3257 N   0  0  0  0  0  0  0  0  0  0  0  0
   11.2617  -16.1725   24.3986 C   0  0  0  0  0  0  0  0  0  0  0  0
   11.9369  -15.1029   24.5636 O   0  0  0  0  0  0  0  0  0  0  0  0
   13.2048  -18.8107   23.0869 C   0  0  0  0  0  0  0  0  0  0  0  0
   14.2506  -19.5681   23.6080 C   0  0  0  0  0  0  0  0  0  0  0  0
    9.9210  -13.2276   28.8862 C   0  0  0  0  0  0  0  0  0  0  0  0
   10.1329  -14.7084   28.7623 C   0  0  0  0  0  0  0  0  0  0  0  0
    9.9287  -15.2739   27.3952 C   0  0  2  0  0  0  0  0  0  0  0  0
    8.6617  -16.1439   27.3756 C   0  0  0  0  0  0  0  0  0  0  0  0
   11.0405  -16.1884   26.9176 C   0  0  2  0  0  0  0  0  0  0  0  0
   10.7849  -16.7532   25.6052 N   0  0  0  0  0  0  0  0  0  0  0  0
   11.1175  -17.3057   27.8769 C   0  0  0  0  0  0  0  0  0  0  0  0
   10.8314  -18.5925   27.4774 O   0  0  0  0  0  0  0  0  0  0  0  0
   11.4424  -17.1008   29.0650 O   0  0  0  0  0  0  0  0  0  0  0  0
  2  1  1  6
  3  2  1  0
  3  4  1  0
  4  9  1  0
  5  4  2  0
  5  6  1  0
  6  7  2  0
  7  8  1  0
  9  8  2  0
 10 11  2  0
 10  2  1  0
 12 13  1  0
 13 14  2  0
 14 15  1  0
 16 15  2  0
 16 17  1  0
 18 17  1  6
 18 19  1  0
 19 10  1  0
 20 29  1  0
 20 18  1  0
 21 20  2  0
 22 16  1  0
 23 13  1  0
 23 22  2  0
 24 25  1  0
 25 26  1  0
 26 27  1  1
 26 28  1  0
 28 29  1  6
 28 30  1  0
 30 31  1  0
 32 30  2  0
M  END
$$$$
