FYI.pdb
     RDKit          3D

 32 33  0  0  1  0  0  0  0  0999 V2000
    6.3691  -19.1151   22.5636 N   0  0  0  0  0  0  0  0  0  0  0  0
    6.4863  -17.7792   23.1731 C   0  0  1  0  0  0  0  0  0  0  0  0
    6.0387  -17.8893   24.5926 C   0  0  0  0  0  0  0  0  0  0  0  0
    6.2908  -16.7013   25.4181 C   0  0  0  0  0  0  0  0  0  0  0  0
    5.9214  -15.4684   24.9421 C   0  0  0  0  0  0  0  0  0  0  0  0
    6.1336  -14.3123   25.6721 C   0  0  0  0  0  0  0  0  0  0  0  0
    6.7302  -14.4413   26.8976 C   0  0  0  0  0  0  0  0  0  0  0  0
    7.1072  -15.6657   27.3918 C   0  0  0  0  0  0  0  0  0  0  0  0
    6.8853  -16.7971   26.6473 C   0  0  0  0  0  0  0  0  0  0  0  0
    7.8649  -17.3361   22.9698 C   0  0  0  0  0  0  0  0  0  0  0  0
    8.8480  -18.1528   22.9390 O   0  0  0  0  0  0  0  0  0  0  0  0
    7.1631  -13.8140   16.9277 O   0  0  0  0  0  0  0  0  0  0  0  0
    7.7483  -13.8826   18.2068 C   0  0  0  0  0  0  0  0  0  0  0  0
    8.9470  -14.5391   18.3910 C   0  0  0  0  0  0  0  0  0  0  0  0
    9.5131  -14.6029   19.6403 C   0  0  0  0  0  0  0  0  0  0  0  0
    8.9349  -14.0315   20.7542 C   0  0  0  0  0  0  0  0  0  0  0  0
    9.5534  -14.1058   22.0925 C   0  0  0  0  0  0  0  0  0  0  0  0
    9.6105  -15.5206   22.6403 C   0  0  2  0  0  0  0  0  0  0  0  0
    8.2361  -15.9577   22.7868 N   0  0  0  0  0  0  0  0  0  0  0  0
   10.4239  -15.6753   23.8366 C   0  0  0  0  0  0  0  0  0  0  0  0
   11.6645  -15.3787   23.8243 O   0  0  0  0  0  0  0  0  0  0  0  0
    7.7410  -13.3812   20.5542 C   0  0  0  0  0  0  0  0  0  0  0  0
    7.1441  -13.3008   19.2988 C   0  0  0  0  0  0  0  0  0  0  0  0
    8.3390  -13.3319   28.1248 C   0  0  0  0  0  0  0  0  0  0  0  0
    9.3652  -13.8887   27.1815 C   0  0  0  0  0  0  0  0  0  0  0  0
    9.7420  -15.3154   27.4119 C   0  0  2  0  0  0  0  0  0  0  0  0
   10.5411  -15.4382   28.7191 C   0  0  0  0  0  0  0  0  0  0  0  0
   10.6402  -15.9115   26.3450 C   0  0  2  0  0  0  0  0  0  0  0  0
    9.9496  -16.1480   25.0904 N   0  0  0  0  0  0  0  0  0  0  0  0
   11.1010  -17.2167   26.8536 C   0  0  0  0  0  0  0  0  0  0  0  0
   12.0027  -17.2845   27.8926 O   0  0  0  0  0  0  0  0  0  0  0  0
   10.6807  -18.2787   26.3490 O   0  0  0  0  0  0  0  0  0  0  0  0
  2  1  1  1
  3  2  1  0
  3  4  1  0
  4  9  1  0
  5  4  2  0
  5  6  1  0
  6  7  2  0
  7  8  1  0
  9  8  2  0
 10 11  2  0
 10  2  1  0
 12 13  1  0
 13 14  2  0
 14 15  1  0
 16 15  2  0
 16 17  1  0
 18 17  1  1
 18 19  1  0
 19 10  1  0
 20 29  1  0
 20 18  1  0
 21 20  2  0
 22 16  1  0
 23 13  1  0
 23 22  2  0
 24 25  1  0
 25 26  1  0
 26 27  1  1
 26 28  1  0
 28 29  1  6
 28 30  1  0
 30 31  1  0
 32 30  2  0
M  END
$$$$
