FYI.pdb
     RDKit          3D

 32 33  0  0  1  0  0  0  0  0999 V2000
    7.7616  -18.3325   18.6482 N   0  0  0  0  0  0  0  0  0  0  0  0
    8.0796  -17.0886   19.3701 C   0  0  1  0  0  0  0  0  0  0  0  0
    7.3919  -15.9678   18.6640 C   0  0  0  0  0  0  0  0  0  0  0  0
    7.4433  -14.6729   19.3547 C   0  0  0  0  0  0  0  0  0  0  0  0
    8.3836  -13.7500   18.9712 C   0  0  0  0  0  0  0  0  0  0  0  0
    8.4827  -12.5135   19.5841 C   0  0  0  0  0  0  0  0  0  0  0  0
    7.6024  -12.2392   20.5961 C   0  0  0  0  0  0  0  0  0  0  0  0
    6.6543  -13.1490   20.9947 C   0  0  0  0  0  0  0  0  0  0  0  0
    6.5772  -14.3687   20.3699 C   0  0  0  0  0  0  0  0  0  0  0  0
    7.6975  -17.2949   20.7664 C   0  0  0  0  0  0  0  0  0  0  0  0
    6.7492  -18.0821   21.1065 O   0  0  0  0  0  0  0  0  0  0  0  0
    7.5144  -20.3423   28.7181 O   0  0  0  0  0  0  0  0  0  0  0  0
    7.7433  -19.8723   27.4105 C   0  0  0  0  0  0  0  0  0  0  0  0
    6.6851  -19.6473   26.5551 C   0  0  0  0  0  0  0  0  0  0  0  0
    6.9140  -19.1890   25.2812 C   0  0  0  0  0  0  0  0  0  0  0  0
    8.1783  -18.9332   24.7935 C   0  0  0  0  0  0  0  0  0  0  0  0
    8.4121  -18.4396   23.4221 C   0  0  0  0  0  0  0  0  0  0  0  0
    8.0748  -16.9687   23.2570 C   0  0  2  0  0  0  0  0  0  0  0  0
    8.3467  -16.6402   21.8715 N   0  0  0  0  0  0  0  0  0  0  0  0
    8.7136  -16.0879   24.2228 C   0  0  0  0  0  0  0  0  0  0  0  0
    9.9402  -15.7615   24.0959 O   0  0  0  0  0  0  0  0  0  0  0  0
    9.2217  -19.1622   25.6579 C   0  0  0  0  0  0  0  0  0  0  0  0
    9.0192  -19.6268   26.9548 C   0  0  0  0  0  0  0  0  0  0  0  0
    5.7113  -12.1918   26.7889 C   0  0  0  0  0  0  0  0  0  0  0  0
    6.9100  -12.8077   26.1280 C   0  0  0  0  0  0  0  0  0  0  0  0
    7.7366  -13.6969   26.9977 C   0  0  2  0  0  0  0  0  0  0  0  0
    8.6008  -12.8451   27.9411 C   0  0  0  0  0  0  0  0  0  0  0  0
    8.7209  -14.5749   26.2489 C   0  0  2  0  0  0  0  0  0  0  0  0
    8.0731  -15.5193   25.3572 N   0  0  0  0  0  0  0  0  0  0  0  0
    9.4585  -15.3518   27.2623 C   0  0  0  0  0  0  0  0  0  0  0  0
    9.1297  -16.6657   27.5131 O   0  0  0  0  0  0  0  0  0  0  0  0
   10.3909  -14.8292   27.9077 O   0  0  0  0  0  0  0  0  0  0  0  0
  2  1  1  6
  3  2  1  0
  3  4  1  0
  4  9  1  0
  5  4  2  0
  5  6  1  0
  6  7  2  0
  7  8  1  0
  9  8  2  0
 10 11  2  0
 10  2  1  0
 12 13  1  0
 13 14  2  0
 14 15  1  0
 16 15  2  0
 16 17  1  0
 18 17  1  1
 18 19  1  0
 19 10  1  0
 20 29  1  0
 20 18  1  0
 21 20  2  0
 22 16  1  0
 23 13  1  0
 23 22  2  0
 24 25  1  0
 25 26  1  0
 26 27  1  1
 26 28  1  0
 28 29  1  6
 28 30  1  0
 30 31  1  0
 32 30  2  0
M  END
$$$$
