FYI.pdb
     RDKit          3D

 32 33  0  0  1  0  0  0  0  0999 V2000
    7.5956  -15.3455   26.1766 N   0  0  0  0  0  0  0  0  0  0  0  0
    7.2091  -14.8385   24.8486 C   0  0  1  0  0  0  0  0  0  0  0  0
    7.0766  -13.3555   24.9521 C   0  0  0  0  0  0  0  0  0  0  0  0
    7.1487  -12.8184   26.3169 C   0  0  0  0  0  0  0  0  0  0  0  0
    8.2972  -12.1879   26.7251 C   0  0  0  0  0  0  0  0  0  0  0  0
    8.4264  -11.6625   27.9986 C   0  0  0  0  0  0  0  0  0  0  0  0
    7.3592  -11.7941   28.8460 C   0  0  0  0  0  0  0  0  0  0  0  0
    6.2013  -12.4213   28.4568 C   0  0  0  0  0  0  0  0  0  0  0  0
    6.0991  -12.9339   27.1877 C   0  0  0  0  0  0  0  0  0  0  0  0
    8.2069  -15.3265   23.8977 C   0  0  0  0  0  0  0  0  0  0  0  0
    8.5547  -14.6551   22.8667 O   0  0  0  0  0  0  0  0  0  0  0  0
   13.6401  -21.1678   19.8343 O   0  0  0  0  0  0  0  0  0  0  0  0
   12.7869  -20.5092   20.7406 C   0  0  0  0  0  0  0  0  0  0  0  0
   13.3101  -19.7163   21.7404 C   0  0  0  0  0  0  0  0  0  0  0  0
   12.4735  -19.0763   22.6213 C   0  0  0  0  0  0  0  0  0  0  0  0
   11.1000  -19.1840   22.5621 C   0  0  0  0  0  0  0  0  0  0  0  0
   10.2105  -18.4904   23.5144 C   0  0  0  0  0  0  0  0  0  0  0  0
    9.8161  -17.0998   23.0504 C   0  0  2  0  0  0  0  0  0  0  0  0
    8.8812  -16.5907   24.0344 N   0  0  0  0  0  0  0  0  0  0  0  0
    9.3436  -17.0303   21.6762 C   0  0  0  0  0  0  0  0  0  0  0  0
    8.3321  -17.7101   21.2993 O   0  0  0  0  0  0  0  0  0  0  0  0
   10.5945  -19.9775   21.5605 C   0  0  0  0  0  0  0  0  0  0  0  0
   11.4189  -20.6381   20.6534 C   0  0  0  0  0  0  0  0  0  0  0  0
    7.6777  -12.2912   18.5394 C   0  0  0  0  0  0  0  0  0  0  0  0
    8.0815  -13.7331   18.4352 C   0  0  0  0  0  0  0  0  0  0  0  0
    8.8137  -14.2817   19.6156 C   0  0  2  0  0  0  0  0  0  0  0  0
   10.1511  -13.5438   19.7876 C   0  0  0  0  0  0  0  0  0  0  0  0
    9.1857  -15.7477   19.5025 C   0  0  2  0  0  0  0  0  0  0  0  0
    9.9259  -16.2346   20.6522 N   0  0  0  0  0  0  0  0  0  0  0  0
   10.0594  -15.8778   18.3217 C   0  0  0  0  0  0  0  0  0  0  0  0
   11.3960  -16.1757   18.4691 O   0  0  0  0  0  0  0  0  0  0  0  0
    9.5997  -15.7189   17.1717 O   0  0  0  0  0  0  0  0  0  0  0  0
  2  1  1  1
  3  2  1  0
  3  4  1  0
  4  9  1  0
  5  4  2  0
  5  6  1  0
  6  7  2  0
  7  8  1  0
  9  8  2  0
 10 11  2  0
 10  2  1  0
 12 13  1  0
 13 14  2  0
 14 15  1  0
 16 15  2  0
 16 17  1  0
 18 17  1  1
 18 19  1  0
 19 10  1  0
 20 29  1  0
 20 18  1  0
 21 20  2  0
 22 16  1  0
 23 13  1  0
 23 22  2  0
 24 25  1  0
 25 26  1  0
 26 27  1  6
 26 28  1  0
 28 29  1  1
 28 30  1  0
 30 31  1  0
 32 30  2  0
M  END
$$$$
