FYI.pdb
     RDKit          3D

 32 33  0  0  1  0  0  0  0  0999 V2000
    5.7572  -18.8098   25.6741 N   0  0  0  0  0  0  0  0  0  0  0  0
    5.8395  -17.3408   25.6041 C   0  0  1  0  0  0  0  0  0  0  0  0
    6.1901  -16.8424   26.9665 C   0  0  0  0  0  0  0  0  0  0  0  0
    6.3071  -15.3833   27.0839 C   0  0  0  0  0  0  0  0  0  0  0  0
    5.1997  -14.6054   26.8562 C   0  0  0  0  0  0  0  0  0  0  0  0
    5.2470  -13.2258   26.9501 C   0  0  0  0  0  0  0  0  0  0  0  0
    6.4476  -12.6573   27.2811 C   0  0  0  0  0  0  0  0  0  0  0  0
    7.5672  -13.4178   27.5129 C   0  0  0  0  0  0  0  0  0  0  0  0
    7.4932  -14.7848   27.4131 C   0  0  0  0  0  0  0  0  0  0  0  0
    6.7888  -17.0160   24.5404 C   0  0  0  0  0  0  0  0  0  0  0  0
    7.7928  -17.7598   24.2695 O   0  0  0  0  0  0  0  0  0  0  0  0
    9.4847  -13.4116   16.8665 O   0  0  0  0  0  0  0  0  0  0  0  0
    8.8946  -13.6344   18.1257 C   0  0  0  0  0  0  0  0  0  0  0  0
    8.7661  -12.5998   19.0284 C   0  0  0  0  0  0  0  0  0  0  0  0
    8.1899  -12.8226   20.2547 C   0  0  0  0  0  0  0  0  0  0  0  0
    7.7186  -14.0578   20.6470 C   0  0  0  0  0  0  0  0  0  0  0  0
    7.1000  -14.2852   21.9679 C   0  0  0  0  0  0  0  0  0  0  0  0
    7.6315  -15.5249   22.6646 C   0  0  2  0  0  0  0  0  0  0  0  0
    6.6804  -15.8449   23.7109 N   0  0  0  0  0  0  0  0  0  0  0  0
    9.0116  -15.4235   23.1137 C   0  0  0  0  0  0  0  0  0  0  0  0
    9.9537  -15.2066   22.2816 O   0  0  0  0  0  0  0  0  0  0  0  0
    7.8539  -15.0779   19.7364 C   0  0  0  0  0  0  0  0  0  0  0  0
    8.4339  -14.8809   18.4860 C   0  0  0  0  0  0  0  0  0  0  0  0
   10.3895  -13.4447   28.2375 C   0  0  0  0  0  0  0  0  0  0  0  0
   10.4407  -13.7020   26.7596 C   0  0  0  0  0  0  0  0  0  0  0  0
   10.9516  -15.0471   26.3595 C   0  0  2  0  0  0  0  0  0  0  0  0
   12.4577  -15.1400   26.6523 C   0  0  0  0  0  0  0  0  0  0  0  0
   10.8190  -15.3588   24.8811 C   0  0  2  0  0  0  0  0  0  0  0  0
    9.4418  -15.5462   24.4630 N   0  0  0  0  0  0  0  0  0  0  0  0
   11.5334  -16.6271   24.6452 C   0  0  0  0  0  0  0  0  0  0  0  0
   10.8351  -17.7982   24.4503 O   0  0  0  0  0  0  0  0  0  0  0  0
   12.7814  -16.6571   24.6196 O   0  0  0  0  0  0  0  0  0  0  0  0
  2  1  1  1
  3  2  1  0
  3  4  1  0
  4  9  1  0
  5  4  2  0
  5  6  1  0
  6  7  2  0
  7  8  1  0
  9  8  2  0
 10 11  2  0
 10  2  1  0
 12 13  1  0
 13 14  2  0
 14 15  1  0
 16 15  2  0
 16 17  1  0
 18 17  1  1
 18 19  1  0
 19 10  1  0
 20 29  1  0
 20 18  1  0
 21 20  2  0
 22 16  1  0
 23 13  1  0
 23 22  2  0
 24 25  1  0
 25 26  1  0
 26 27  1  6
 26 28  1  0
 28 29  1  1
 28 30  1  0
 30 31  1  0
 32 30  2  0
M  END
$$$$
