FYI.pdb
     RDKit          3D

 32 33  0  0  1  0  0  0  0  0999 V2000
    5.9050  -18.3255   19.2330 N   0  0  0  0  0  0  0  0  0  0  0  0
    6.7966  -17.2666   19.7366 C   0  0  1  0  0  0  0  0  0  0  0  0
    6.3765  -15.9826   19.1024 C   0  0  0  0  0  0  0  0  0  0  0  0
    7.1271  -14.7984   19.5392 C   0  0  0  0  0  0  0  0  0  0  0  0
    8.1714  -14.3502   18.7700 C   0  0  0  0  0  0  0  0  0  0  0  0
    8.9169  -13.2413   19.1291 C   0  0  0  0  0  0  0  0  0  0  0  0
    8.5743  -12.6001   20.2891 C   0  0  0  0  0  0  0  0  0  0  0  0
    7.5330  -13.0326   21.0727 C   0  0  0  0  0  0  0  0  0  0  0  0
    6.8092  -14.1355   20.6937 C   0  0  0  0  0  0  0  0  0  0  0  0
    6.7301  -17.3105   21.1967 C   0  0  0  0  0  0  0  0  0  0  0  0
    5.6245  -17.4297   21.8275 O   0  0  0  0  0  0  0  0  0  0  0  0
    8.3850  -19.5472   29.5050 O   0  0  0  0  0  0  0  0  0  0  0  0
    8.4125  -19.3103   28.1171 C   0  0  0  0  0  0  0  0  0  0  0  0
    9.5815  -18.9178   27.4997 C   0  0  0  0  0  0  0  0  0  0  0  0
    9.6027  -18.6883   26.1461 C   0  0  0  0  0  0  0  0  0  0  0  0
    8.4895  -18.8318   25.3450 C   0  0  0  0  0  0  0  0  0  0  0  0
    8.5245  -18.5830   23.8904 C   0  0  0  0  0  0  0  0  0  0  0  0
    7.8174  -17.2999   23.4923 C   0  0  2  0  0  0  0  0  0  0  0  0
    7.8888  -17.2258   22.0463 N   0  0  0  0  0  0  0  0  0  0  0  0
    8.2889  -16.1087   24.1817 C   0  0  0  0  0  0  0  0  0  0  0  0
    9.4987  -15.7224   24.0627 O   0  0  0  0  0  0  0  0  0  0  0  0
    7.3328  -19.2234   25.9751 C   0  0  0  0  0  0  0  0  0  0  0  0
    7.2822  -19.4631   27.3458 C   0  0  0  0  0  0  0  0  0  0  0  0
    6.4182  -10.7086   26.7335 C   0  0  0  0  0  0  0  0  0  0  0  0
    7.4129  -11.8293   26.6470 C   0  0  0  0  0  0  0  0  0  0  0  0
    6.9249  -13.0704   25.9746 C   0  0  2  0  0  0  0  0  0  0  0  0
    5.9146  -13.7910   26.8816 C   0  0  0  0  0  0  0  0  0  0  0  0
    8.0019  -14.1000   25.6908 C   0  0  2  0  0  0  0  0  0  0  0  0
    7.4926  -15.2825   25.0208 N   0  0  0  0  0  0  0  0  0  0  0  0
    8.5429  -14.5244   26.9953 C   0  0  0  0  0  0  0  0  0  0  0  0
    8.2444  -15.7683   27.5058 O   0  0  0  0  0  0  0  0  0  0  0  0
    9.2786  -13.7616   27.6556 O   0  0  0  0  0  0  0  0  0  0  0  0
  2  1  1  6
  3  2  1  0
  3  4  1  0
  4  9  1  0
  5  4  2  0
  5  6  1  0
  6  7  2  0
  7  8  1  0
  9  8  2  0
 10 11  2  0
 10  2  1  0
 12 13  1  0
 13 14  2  0
 14 15  1  0
 16 15  2  0
 16 17  1  0
 18 17  1  1
 18 19  1  0
 19 10  1  0
 20 29  1  0
 20 18  1  0
 21 20  2  0
 22 16  1  0
 23 13  1  0
 23 22  2  0
 24 25  1  0
 25 26  1  0
 26 27  1  1
 26 28  1  0
 28 29  1  1
 28 30  1  0
 30 31  1  0
 32 30  2  0
M  END
$$$$
