FYI.pdb
     RDKit          3D

 32 33  0  0  1  0  0  0  0  0999 V2000
    6.0234  -18.4632   24.0009 N   0  0  0  0  0  0  0  0  0  0  0  0
    6.5160  -17.0767   24.0692 C   0  0  1  0  0  0  0  0  0  0  0  0
    5.9755  -16.4662   25.3193 C   0  0  0  0  0  0  0  0  0  0  0  0
    6.4215  -15.0923   25.5837 C   0  0  0  0  0  0  0  0  0  0  0  0
    6.8488  -14.7615   26.8451 C   0  0  0  0  0  0  0  0  0  0  0  0
    7.2796  -13.4840   27.1565 C   0  0  0  0  0  0  0  0  0  0  0  0
    7.2650  -12.5520   26.1538 C   0  0  0  0  0  0  0  0  0  0  0  0
    6.8411  -12.8628   24.8852 C   0  0  0  0  0  0  0  0  0  0  0  0
    6.4187  -14.1379   24.6027 C   0  0  0  0  0  0  0  0  0  0  0  0
    7.9733  -17.1350   23.9643 C   0  0  0  0  0  0  0  0  0  0  0  0
    8.6555  -18.1012   24.4497 O   0  0  0  0  0  0  0  0  0  0  0  0
   16.1232  -16.0047   20.6631 O   0  0  0  0  0  0  0  0  0  0  0  0
   14.7511  -15.9067   20.9646 C   0  0  0  0  0  0  0  0  0  0  0  0
   13.8723  -15.3691   20.0477 C   0  0  0  0  0  0  0  0  0  0  0  0
   12.5354  -15.2760   20.3470 C   0  0  0  0  0  0  0  0  0  0  0  0
   12.0054  -15.7015   21.5469 C   0  0  0  0  0  0  0  0  0  0  0  0
   10.5660  -15.5970   21.8571 C   0  0  0  0  0  0  0  0  0  0  0  0
   10.2068  -16.1921   23.2068 C   0  0  2  0  0  0  0  0  0  0  0  0
    8.7626  -16.1236   23.3121 N   0  0  0  0  0  0  0  0  0  0  0  0
   10.9224  -15.6143   24.3340 C   0  0  0  0  0  0  0  0  0  0  0  0
   11.4419  -14.4523   24.2501 O   0  0  0  0  0  0  0  0  0  0  0  0
   12.8939  -16.2346   22.4495 C   0  0  0  0  0  0  0  0  0  0  0  0
   14.2544  -16.3414   22.1730 C   0  0  0  0  0  0  0  0  0  0  0  0
    9.2763  -14.9494   29.3555 C   0  0  0  0  0  0  0  0  0  0  0  0
   10.0322  -15.6794   28.2837 C   0  0  0  0  0  0  0  0  0  0  0  0
   11.1832  -14.9357   27.6898 C   0  0  2  0  0  0  0  0  0  0  0  0
   10.6733  -13.6792   26.9661 C   0  0  0  0  0  0  0  0  0  0  0  0
   11.9586  -15.7068   26.6389 C   0  0  2  0  0  0  0  0  0  0  0  0
   11.1105  -16.2478   25.5926 N   0  0  0  0  0  0  0  0  0  0  0  0
   12.5983  -16.8434   27.3270 C   0  0  0  0  0  0  0  0  0  0  0  0
   13.5818  -16.6290   28.2672 O   0  0  0  0  0  0  0  0  0  0  0  0
   12.2577  -18.0161   27.0665 O   0  0  0  0  0  0  0  0  0  0  0  0
  2  1  1  1
  3  2  1  0
  3  4  1  0
  4  9  1  0
  5  4  2  0
  5  6  1  0
  6  7  2  0
  7  8  1  0
  9  8  2  0
 10 11  2  0
 10  2  1  0
 12 13  1  0
 13 14  2  0
 14 15  1  0
 16 15  2  0
 16 17  1  0
 18 17  1  6
 18 19  1  0
 19 10  1  0
 20 29  1  0
 20 18  1  0
 21 20  2  0
 22 16  1  0
 23 13  1  0
 23 22  2  0
 24 25  1  0
 25 26  1  0
 26 27  1  6
 26 28  1  0
 28 29  1  6
 28 30  1  0
 30 31  1  0
 32 30  2  0
M  END
$$$$
