FYI.pdb
     RDKit          3D

 32 33  0  0  1  0  0  0  0  0999 V2000
    5.9733  -18.4778   22.5501 N   0  0  0  0  0  0  0  0  0  0  0  0
    6.4057  -17.1304   22.9591 C   0  0  1  0  0  0  0  0  0  0  0  0
    5.7348  -16.8141   24.2543 C   0  0  0  0  0  0  0  0  0  0  0  0
    6.0592  -15.4973   24.8175 C   0  0  0  0  0  0  0  0  0  0  0  0
    6.0995  -14.4077   23.9843 C   0  0  0  0  0  0  0  0  0  0  0  0
    6.4003  -13.1418   24.4549 C   0  0  0  0  0  0  0  0  0  0  0  0
    6.6589  -13.0117   25.7930 C   0  0  0  0  0  0  0  0  0  0  0  0
    6.6237  -14.0893   26.6433 C   0  0  0  0  0  0  0  0  0  0  0  0
    6.3226  -15.3345   26.1507 C   0  0  0  0  0  0  0  0  0  0  0  0
    7.8678  -17.1391   22.9817 C   0  0  0  0  0  0  0  0  0  0  0  0
    8.5429  -18.2151   23.1268 O   0  0  0  0  0  0  0  0  0  0  0  0
    7.5841  -13.8618   17.2134 O   0  0  0  0  0  0  0  0  0  0  0  0
    8.3127  -14.0775   18.3992 C   0  0  0  0  0  0  0  0  0  0  0  0
    8.2824  -13.1458   19.4155 C   0  0  0  0  0  0  0  0  0  0  0  0
    8.9947  -13.3612   20.5694 C   0  0  0  0  0  0  0  0  0  0  0  0
    9.7611  -14.4888   20.7767 C   0  0  0  0  0  0  0  0  0  0  0  0
   10.5220  -14.7100   22.0221 C   0  0  0  0  0  0  0  0  0  0  0  0
   10.1163  -15.9815   22.7456 C   0  0  2  0  0  0  0  0  0  0  0  0
    8.6702  -15.9524   22.8429 N   0  0  0  0  0  0  0  0  0  0  0  0
   10.8020  -16.2054   24.0090 C   0  0  0  0  0  0  0  0  0  0  0  0
   11.9771  -16.7011   24.0342 O   0  0  0  0  0  0  0  0  0  0  0  0
    9.7808  -15.4073   19.7548 C   0  0  0  0  0  0  0  0  0  0  0  0
    9.0684  -15.2151   18.5739 C   0  0  0  0  0  0  0  0  0  0  0  0
    8.6719  -14.1802   28.9808 C   0  0  0  0  0  0  0  0  0  0  0  0
    9.1084  -15.0993   27.8774 C   0  0  0  0  0  0  0  0  0  0  0  0
   10.5797  -15.1469   27.6257 C   0  0  2  0  0  0  0  0  0  0  0  0
   11.0734  -13.7670   27.1621 C   0  0  0  0  0  0  0  0  0  0  0  0
   11.0020  -16.1043   26.5278 C   0  0  2  0  0  0  0  0  0  0  0  0
   10.2664  -15.9089   25.2919 N   0  0  0  0  0  0  0  0  0  0  0  0
   10.7085  -17.4662   27.0112 C   0  0  0  0  0  0  0  0  0  0  0  0
   11.3892  -17.9885   28.0887 O   0  0  0  0  0  0  0  0  0  0  0  0
    9.8392  -18.1652   26.4501 O   0  0  0  0  0  0  0  0  0  0  0  0
  2  1  1  1
  3  2  1  0
  3  4  1  0
  4  9  1  0
  5  4  2  0
  5  6  1  0
  6  7  2  0
  7  8  1  0
  9  8  2  0
 10 11  2  0
 10  2  1  0
 12 13  1  0
 13 14  2  0
 14 15  1  0
 16 15  2  0
 16 17  1  0
 18 17  1  1
 18 19  1  0
 19 10  1  0
 20 29  1  0
 20 18  1  0
 21 20  2  0
 22 16  1  0
 23 13  1  0
 23 22  2  0
 24 25  1  0
 25 26  1  0
 26 27  1  6
 26 28  1  0
 28 29  1  6
 28 30  1  0
 30 31  1  0
 32 30  2  0
M  END
$$$$
