FYI.pdb
     RDKit          3D

 32 33  0  0  1  0  0  0  0  0999 V2000
    6.4453  -19.6968   25.3174 N   0  0  0  0  0  0  0  0  0  0  0  0
    6.3479  -18.2345   25.4664 C   0  0  1  0  0  0  0  0  0  0  0  0
    6.6882  -17.9007   26.8807 C   0  0  0  0  0  0  0  0  0  0  0  0
    6.5684  -16.4795   27.2304 C   0  0  0  0  0  0  0  0  0  0  0  0
    5.5215  -15.7537   26.7201 C   0  0  0  0  0  0  0  0  0  0  0  0
    5.3554  -14.4113   27.0117 C   0  0  0  0  0  0  0  0  0  0  0  0
    6.2798  -13.8260   27.8346 C   0  0  0  0  0  0  0  0  0  0  0  0
    7.3342  -14.5347   28.3555 C   0  0  0  0  0  0  0  0  0  0  0  0
    7.4760  -15.8654   28.0504 C   0  0  0  0  0  0  0  0  0  0  0  0
    7.2097  -17.6423   24.4443 C   0  0  0  0  0  0  0  0  0  0  0  0
    8.3418  -18.1457   24.1291 O   0  0  0  0  0  0  0  0  0  0  0  0
    9.2765  -12.7222   17.2789 O   0  0  0  0  0  0  0  0  0  0  0  0
    8.6944  -13.2282   18.4572 C   0  0  0  0  0  0  0  0  0  0  0  0
    8.5780  -12.4301   19.5759 C   0  0  0  0  0  0  0  0  0  0  0  0
    8.0095  -12.9286   20.7221 C   0  0  0  0  0  0  0  0  0  0  0  0
    7.5344  -14.2193   20.8219 C   0  0  0  0  0  0  0  0  0  0  0  0
    6.9242  -14.7440   22.0594 C   0  0  0  0  0  0  0  0  0  0  0  0
    7.6955  -15.9101   22.6512 C   0  0  2  0  0  0  0  0  0  0  0  0
    6.8659  -16.4543   23.7081 N   0  0  0  0  0  0  0  0  0  0  0  0
    9.0571  -15.5941   23.0547 C   0  0  0  0  0  0  0  0  0  0  0  0
    9.9359  -15.2722   22.1880 O   0  0  0  0  0  0  0  0  0  0  0  0
    7.6577  -15.0016   19.6989 C   0  0  0  0  0  0  0  0  0  0  0  0
    8.2297  -14.5226   18.5233 C   0  0  0  0  0  0  0  0  0  0  0  0
   10.3487  -14.4167   28.5541 C   0  0  0  0  0  0  0  0  0  0  0  0
   10.3388  -15.1546   27.2471 C   0  0  0  0  0  0  0  0  0  0  0  0
   10.8871  -14.4008   26.0802 C   0  0  2  0  0  0  0  0  0  0  0  0
   10.0369  -13.1460   25.8249 C   0  0  0  0  0  0  0  0  0  0  0  0
   10.8653  -15.1633   24.7692 C   0  0  2  0  0  0  0  0  0  0  0  0
    9.5351  -15.6059   24.3934 N   0  0  0  0  0  0  0  0  0  0  0  0
   11.6984  -16.3652   24.9591 C   0  0  0  0  0  0  0  0  0  0  0  0
   13.0522  -16.2501   25.1851 O   0  0  0  0  0  0  0  0  0  0  0  0
   11.1882  -17.5041   24.9170 O   0  0  0  0  0  0  0  0  0  0  0  0
  2  1  1  1
  3  2  1  0
  3  4  1  0
  4  9  1  0
  5  4  2  0
  5  6  1  0
  6  7  2  0
  7  8  1  0
  9  8  2  0
 10 11  2  0
 10  2  1  0
 12 13  1  0
 13 14  2  0
 14 15  1  0
 16 15  2  0
 16 17  1  0
 18 17  1  1
 18 19  1  0
 19 10  1  0
 20 29  1  0
 20 18  1  0
 21 20  2  0
 22 16  1  0
 23 13  1  0
 23 22  2  0
 24 25  1  0
 25 26  1  0
 26 27  1  6
 26 28  1  0
 28 29  1  1
 28 30  1  0
 30 31  1  0
 32 30  2  0
M  END
$$$$
