FYI.pdb
     RDKit          3D

 32 33  0  0  1  0  0  0  0  0999 V2000
    7.2158  -18.2560   19.4281 N   0  0  0  0  0  0  0  0  0  0  0  0
    7.7512  -17.0715   20.1209 C   0  0  1  0  0  0  0  0  0  0  0  0
    6.7339  -15.9850   20.0105 C   0  0  0  0  0  0  0  0  0  0  0  0
    7.1175  -14.7088   20.6274 C   0  0  0  0  0  0  0  0  0  0  0  0
    7.7923  -13.7809   19.8745 C   0  0  0  0  0  0  0  0  0  0  0  0
    8.1817  -12.5613   20.3993 C   0  0  0  0  0  0  0  0  0  0  0  0
    7.8680  -12.3090   21.7078 C   0  0  0  0  0  0  0  0  0  0  0  0
    7.1934  -13.2241   22.4779 C   0  0  0  0  0  0  0  0  0  0  0  0
    6.8185  -14.4267   21.9329 C   0  0  0  0  0  0  0  0  0  0  0  0
    8.0952  -17.4898   21.4792 C   0  0  0  0  0  0  0  0  0  0  0  0
    7.9925  -18.7037   21.8674 O   0  0  0  0  0  0  0  0  0  0  0  0
   11.0663  -22.6314   20.7735 O   0  0  0  0  0  0  0  0  0  0  0  0
   11.0181  -21.2867   21.1890 C   0  0  0  0  0  0  0  0  0  0  0  0
   11.1976  -20.2681   20.2768 C   0  0  0  0  0  0  0  0  0  0  0  0
   11.1496  -18.9588   20.6874 C   0  0  0  0  0  0  0  0  0  0  0  0
   10.9257  -18.5929   21.9981 C   0  0  0  0  0  0  0  0  0  0  0  0
   10.8753  -17.1816   22.4277 C   0  0  0  0  0  0  0  0  0  0  0  0
    9.7052  -16.8846   23.3483 C   0  0  2  0  0  0  0  0  0  0  0  0
    8.5759  -16.5851   22.4900 N   0  0  0  0  0  0  0  0  0  0  0  0
    9.9736  -15.8796   24.3653 C   0  0  0  0  0  0  0  0  0  0  0  0
   11.0426  -15.1845   24.3289 O   0  0  0  0  0  0  0  0  0  0  0  0
   10.7488  -19.6193   22.8945 C   0  0  0  0  0  0  0  0  0  0  0  0
   10.7923  -20.9558   22.5063 C   0  0  0  0  0  0  0  0  0  0  0  0
    5.9729  -12.8246   26.2747 C   0  0  0  0  0  0  0  0  0  0  0  0
    7.3594  -13.2294   25.8662 C   0  0  0  0  0  0  0  0  0  0  0  0
    8.1996  -13.8241   26.9483 C   0  0  2  0  0  0  0  0  0  0  0  0
    8.7471  -12.7095   27.8542 C   0  0  0  0  0  0  0  0  0  0  0  0
    9.4261  -14.5695   26.4578 C   0  0  2  0  0  0  0  0  0  0  0  0
    9.1160  -15.5738   25.4569 N   0  0  0  0  0  0  0  0  0  0  0  0
    9.9996  -15.2648   27.6249 C   0  0  0  0  0  0  0  0  0  0  0  0
    9.9525  -16.6385   27.7143 O   0  0  0  0  0  0  0  0  0  0  0  0
   10.5354  -14.6179   28.5488 O   0  0  0  0  0  0  0  0  0  0  0  0
  2  1  1  6
  3  2  1  0
  3  4  1  0
  4  9  1  0
  5  4  2  0
  5  6  1  0
  6  7  2  0
  7  8  1  0
  9  8  2  0
 10 11  2  0
 10  2  1  0
 12 13  1  0
 13 14  2  0
 14 15  1  0
 16 15  2  0
 16 17  1  0
 18 17  1  6
 18 19  1  0
 19 10  1  0
 20 29  1  0
 20 18  1  0
 21 20  2  0
 22 16  1  0
 23 13  1  0
 23 22  2  0
 24 25  1  0
 25 26  1  0
 26 27  1  1
 26 28  1  0
 28 29  1  6
 28 30  1  0
 30 31  1  0
 32 30  2  0
M  END
$$$$
