FYI.pdb
     RDKit          3D

 32 33  0  0  1  0  0  0  0  0999 V2000
    5.7465  -18.8495   25.5469 N   0  0  0  0  0  0  0  0  0  0  0  0
    5.7986  -17.3783   25.4942 C   0  0  1  0  0  0  0  0  0  0  0  0
    6.0849  -16.8865   26.8740 C   0  0  0  0  0  0  0  0  0  0  0  0
    6.0791  -15.4261   27.0274 C   0  0  0  0  0  0  0  0  0  0  0  0
    5.0477  -14.7029   26.4829 C   0  0  0  0  0  0  0  0  0  0  0  0
    4.9869  -13.3250   26.5927 C   0  0  0  0  0  0  0  0  0  0  0  0
    6.0004  -12.7013   27.2696 C   0  0  0  0  0  0  0  0  0  0  0  0
    7.0411  -13.4067   27.8216 C   0  0  0  0  0  0  0  0  0  0  0  0
    7.0775  -14.7732   27.6983 C   0  0  0  0  0  0  0  0  0  0  0  0
    6.7811  -17.0217   24.4716 C   0  0  0  0  0  0  0  0  0  0  0  0
    7.7946  -17.7563   24.2115 O   0  0  0  0  0  0  0  0  0  0  0  0
    9.7240  -13.1950   16.9918 O   0  0  0  0  0  0  0  0  0  0  0  0
    9.0853  -13.4582   18.2190 C   0  0  0  0  0  0  0  0  0  0  0  0
    9.2122  -12.5789   19.2738 C   0  0  0  0  0  0  0  0  0  0  0  0
    8.5873  -12.8405   20.4682 C   0  0  0  0  0  0  0  0  0  0  0  0
    7.8175  -13.9649   20.6798 C   0  0  0  0  0  0  0  0  0  0  0  0
    7.1496  -14.2352   21.9682 C   0  0  0  0  0  0  0  0  0  0  0  0
    7.6687  -15.4869   22.6527 C   0  0  2  0  0  0  0  0  0  0  0  0
    6.6972  -15.8269   23.6735 N   0  0  0  0  0  0  0  0  0  0  0  0
    9.0393  -15.3921   23.1315 C   0  0  0  0  0  0  0  0  0  0  0  0
    9.9894  -15.0949   22.3339 O   0  0  0  0  0  0  0  0  0  0  0  0
    7.7009  -14.8309   19.6192 C   0  0  0  0  0  0  0  0  0  0  0  0
    8.3233  -14.5911   18.3970 C   0  0  0  0  0  0  0  0  0  0  0  0
   10.2871  -13.4335   28.2157 C   0  0  0  0  0  0  0  0  0  0  0  0
   10.3782  -13.7308   26.7473 C   0  0  0  0  0  0  0  0  0  0  0  0
   10.9176  -15.0788   26.3974 C   0  0  2  0  0  0  0  0  0  0  0  0
   12.4186  -15.1394   26.7227 C   0  0  0  0  0  0  0  0  0  0  0  0
   10.8198  -15.4358   24.9265 C   0  0  2  0  0  0  0  0  0  0  0  0
    9.4511  -15.6070   24.4749 N   0  0  0  0  0  0  0  0  0  0  0  0
   11.5119  -16.7262   24.7523 C   0  0  0  0  0  0  0  0  0  0  0  0
   12.8879  -16.7854   24.7308 O   0  0  0  0  0  0  0  0  0  0  0  0
   10.8603  -17.7831   24.6209 O   0  0  0  0  0  0  0  0  0  0  0  0
  2  1  1  1
  3  2  1  0
  3  4  1  0
  4  9  1  0
  5  4  2  0
  5  6  1  0
  6  7  2  0
  7  8  1  0
  9  8  2  0
 10 11  2  0
 10  2  1  0
 12 13  1  0
 13 14  2  0
 14 15  1  0
 16 15  2  0
 16 17  1  0
 18 17  1  1
 18 19  1  0
 19 10  1  0
 20 29  1  0
 20 18  1  0
 21 20  2  0
 22 16  1  0
 23 13  1  0
 23 22  2  0
 24 25  1  0
 25 26  1  0
 26 27  1  6
 26 28  1  0
 28 29  1  1
 28 30  1  0
 30 31  1  0
 32 30  2  0
M  END
$$$$
