FYI.pdb
     RDKit          3D

 32 33  0  0  1  0  0  0  0  0999 V2000
    6.1299  -16.6491   19.7275 N   0  0  0  0  0  0  0  0  0  0  0  0
    7.1692  -15.9866   20.5342 C   0  0  1  0  0  0  0  0  0  0  0  0
    6.9902  -14.5129   20.3798 C   0  0  0  0  0  0  0  0  0  0  0  0
    7.8925  -13.8748   19.4128 C   0  0  0  0  0  0  0  0  0  0  0  0
    9.1842  -13.6009   19.7868 C   0  0  0  0  0  0  0  0  0  0  0  0
   10.0811  -13.0000   18.9215 C   0  0  0  0  0  0  0  0  0  0  0  0
    9.6320  -12.6847   17.6671 C   0  0  0  0  0  0  0  0  0  0  0  0
    8.3436  -12.9504   17.2735 C   0  0  0  0  0  0  0  0  0  0  0  0
    7.4738  -13.5474   18.1516 C   0  0  0  0  0  0  0  0  0  0  0  0
    7.0494  -16.5061   21.8958 C   0  0  0  0  0  0  0  0  0  0  0  0
    5.9205  -16.6327   22.4824 O   0  0  0  0  0  0  0  0  0  0  0  0
    8.9733  -19.6442   29.9828 O   0  0  0  0  0  0  0  0  0  0  0  0
    8.8959  -19.3551   28.6067 C   0  0  0  0  0  0  0  0  0  0  0  0
   10.0376  -19.0636   27.8900 C   0  0  0  0  0  0  0  0  0  0  0  0
    9.9562  -18.7825   26.5485 C   0  0  0  0  0  0  0  0  0  0  0  0
    8.7636  -18.7747   25.8562 C   0  0  0  0  0  0  0  0  0  0  0  0
    8.6887  -18.4718   24.4134 C   0  0  0  0  0  0  0  0  0  0  0  0
    8.1105  -17.0976   24.1264 C   0  0  2  0  0  0  0  0  0  0  0  0
    8.1770  -16.9184   22.6894 N   0  0  0  0  0  0  0  0  0  0  0  0
    8.7049  -16.0166   24.8977 C   0  0  0  0  0  0  0  0  0  0  0  0
    9.9502  -15.7567   24.8036 O   0  0  0  0  0  0  0  0  0  0  0  0
    7.6355  -19.0671   26.5843 C   0  0  0  0  0  0  0  0  0  0  0  0
    7.6882  -19.3558   27.9454 C   0  0  0  0  0  0  0  0  0  0  0  0
    5.4579  -12.0898   27.5335 C   0  0  0  0  0  0  0  0  0  0  0  0
    6.3728  -13.2597   27.3160 C   0  0  0  0  0  0  0  0  0  0  0  0
    7.7329  -12.9235   26.7987 C   0  0  2  0  0  0  0  0  0  0  0  0
    7.6142  -12.2462   25.4240 C   0  0  0  0  0  0  0  0  0  0  0  0
    8.6352  -14.1210   26.5699 C   0  0  2  0  0  0  0  0  0  0  0  0
    7.9985  -15.1702   25.7951 N   0  0  0  0  0  0  0  0  0  0  0  0
    8.9532  -14.6774   27.8980 C   0  0  0  0  0  0  0  0  0  0  0  0
    9.7556  -13.9814   28.7748 O   0  0  0  0  0  0  0  0  0  0  0  0
    8.5000  -15.7876   28.2460 O   0  0  0  0  0  0  0  0  0  0  0  0
  2  1  1  6
  3  2  1  0
  3  4  1  0
  4  9  1  0
  5  4  2  0
  5  6  1  0
  6  7  2  0
  7  8  1  0
  9  8  2  0
 10 11  2  0
 10  2  1  0
 12 13  1  0
 13 14  2  0
 14 15  1  0
 16 15  2  0
 16 17  1  0
 18 17  1  6
 18 19  1  0
 19 10  1  0
 20 29  1  0
 20 18  1  0
 21 20  2  0
 22 16  1  0
 23 13  1  0
 23 22  2  0
 24 25  1  0
 25 26  1  0
 26 27  1  6
 26 28  1  0
 28 29  1  6
 28 30  1  0
 30 31  1  0
 32 30  2  0
M  END
$$$$
