FYI.pdb
     RDKit          3D

 32 33  0  0  1  0  0  0  0  0999 V2000
    6.5259  -18.4490   19.3809 N   0  0  0  0  0  0  0  0  0  0  0  0
    7.1686  -17.2495   19.9449 C   0  0  1  0  0  0  0  0  0  0  0  0
    6.5242  -16.0563   19.3217 C   0  0  0  0  0  0  0  0  0  0  0  0
    7.0218  -14.7600   19.7997 C   0  0  0  0  0  0  0  0  0  0  0  0
    7.8950  -14.0506   19.0139 C   0  0  0  0  0  0  0  0  0  0  0  0
    8.3996  -12.8246   19.4097 C   0  0  0  0  0  0  0  0  0  0  0  0
    7.9945  -12.3384   20.6238 C   0  0  0  0  0  0  0  0  0  0  0  0
    7.1217  -13.0327   21.4247 C   0  0  0  0  0  0  0  0  0  0  0  0
    6.6357  -14.2469   21.0084 C   0  0  0  0  0  0  0  0  0  0  0  0
    7.0582  -17.3493   21.3995 C   0  0  0  0  0  0  0  0  0  0  0  0
    5.9647  -17.6645   21.9821 O   0  0  0  0  0  0  0  0  0  0  0  0
    8.5142  -19.8075   29.6356 O   0  0  0  0  0  0  0  0  0  0  0  0
    8.5340  -19.5169   28.2577 C   0  0  0  0  0  0  0  0  0  0  0  0
    9.7168  -19.1822   27.6326 C   0  0  0  0  0  0  0  0  0  0  0  0
    9.7303  -18.8998   26.2889 C   0  0  0  0  0  0  0  0  0  0  0  0
    8.5958  -18.9327   25.5056 C   0  0  0  0  0  0  0  0  0  0  0  0
    8.6227  -18.6281   24.0614 C   0  0  0  0  0  0  0  0  0  0  0  0
    8.0534  -17.2592   23.7347 C   0  0  2  0  0  0  0  0  0  0  0  0
    8.1568  -17.1063   22.2968 N   0  0  0  0  0  0  0  0  0  0  0  0
    8.6287  -16.1645   24.5011 C   0  0  0  0  0  0  0  0  0  0  0  0
    9.7656  -15.6773   24.1894 O   0  0  0  0  0  0  0  0  0  0  0  0
    7.4256  -19.2679   26.1433 C   0  0  0  0  0  0  0  0  0  0  0  0
    7.3824  -19.5590   27.5042 C   0  0  0  0  0  0  0  0  0  0  0  0
    5.5627  -12.1966   26.9827 C   0  0  0  0  0  0  0  0  0  0  0  0
    6.6840  -12.8910   26.2661 C   0  0  0  0  0  0  0  0  0  0  0  0
    7.6486  -13.6232   27.1400 C   0  0  2  0  0  0  0  0  0  0  0  0
    8.5035  -12.6179   27.9282 C   0  0  0  0  0  0  0  0  0  0  0  0
    8.6469  -14.4872   26.3934 C   0  0  2  0  0  0  0  0  0  0  0  0
    8.0171  -15.5452   25.6249 N   0  0  0  0  0  0  0  0  0  0  0  0
    9.5057  -15.1240   27.4090 C   0  0  0  0  0  0  0  0  0  0  0  0
    9.3944  -16.4708   27.6753 O   0  0  0  0  0  0  0  0  0  0  0  0
   10.3454  -14.4510   28.0423 O   0  0  0  0  0  0  0  0  0  0  0  0
  2  1  1  6
  3  2  1  0
  3  4  1  0
  4  9  1  0
  5  4  2  0
  5  6  1  0
  6  7  2  0
  7  8  1  0
  9  8  2  0
 10 11  2  0
 10  2  1  0
 12 13  1  0
 13 14  2  0
 14 15  1  0
 16 15  2  0
 16 17  1  0
 18 17  1  1
 18 19  1  0
 19 10  1  0
 20 29  1  0
 20 18  1  0
 21 20  2  0
 22 16  1  0
 23 13  1  0
 23 22  2  0
 24 25  1  0
 25 26  1  0
 26 27  1  6
 26 28  1  0
 28 29  1  1
 28 30  1  0
 30 31  1  0
 32 30  2  0
M  END
$$$$
