FYI.pdb
     RDKit          3D

 32 33  0  0  1  0  0  0  0  0999 V2000
    6.4150  -17.5440   25.2542 N   0  0  0  0  0  0  0  0  0  0  0  0
    6.5381  -17.1383   23.8434 C   0  0  1  0  0  0  0  0  0  0  0  0
    5.8015  -15.8509   23.6775 C   0  0  0  0  0  0  0  0  0  0  0  0
    6.3668  -14.7118   24.4118 C   0  0  0  0  0  0  0  0  0  0  0  0
    6.2009  -14.6476   25.7725 C   0  0  0  0  0  0  0  0  0  0  0  0
    6.7089  -13.5994   26.5194 C   0  0  0  0  0  0  0  0  0  0  0  0
    7.3893  -12.6190   25.8485 C   0  0  0  0  0  0  0  0  0  0  0  0
    7.5662  -12.6648   24.4876 C   0  0  0  0  0  0  0  0  0  0  0  0
    7.0521  -13.7159   23.7701 C   0  0  0  0  0  0  0  0  0  0  0  0
    7.9663  -17.1027   23.5319 C   0  0  0  0  0  0  0  0  0  0  0  0
    8.7114  -18.1378   23.6206 O   0  0  0  0  0  0  0  0  0  0  0  0
    7.4448  -13.9015   17.2919 O   0  0  0  0  0  0  0  0  0  0  0  0
    8.1661  -14.0673   18.4900 C   0  0  0  0  0  0  0  0  0  0  0  0
    8.0411  -13.1496   19.5118 C   0  0  0  0  0  0  0  0  0  0  0  0
    8.7467  -13.3161   20.6780 C   0  0  0  0  0  0  0  0  0  0  0  0
    9.5982  -14.3794   20.8924 C   0  0  0  0  0  0  0  0  0  0  0  0
   10.3510  -14.5484   22.1508 C   0  0  0  0  0  0  0  0  0  0  0  0
   10.0782  -15.8787   22.8295 C   0  0  2  0  0  0  0  0  0  0  0  0
    8.6546  -15.9145   23.1009 N   0  0  0  0  0  0  0  0  0  0  0  0
   10.9199  -16.1546   23.9836 C   0  0  0  0  0  0  0  0  0  0  0  0
   12.1908  -16.1690   23.8753 O   0  0  0  0  0  0  0  0  0  0  0  0
    9.7117  -15.2847   19.8649 C   0  0  0  0  0  0  0  0  0  0  0  0
    9.0084  -15.1411   18.6718 C   0  0  0  0  0  0  0  0  0  0  0  0
   10.2756  -13.5064   29.3538 C   0  0  0  0  0  0  0  0  0  0  0  0
   11.0418  -14.5111   28.5435 C   0  0  0  0  0  0  0  0  0  0  0  0
   10.4240  -14.8875   27.2369 C   0  0  2  0  0  0  0  0  0  0  0  0
    8.9982  -15.4132   27.4674 C   0  0  0  0  0  0  0  0  0  0  0  0
   11.1391  -16.0027   26.4983 C   0  0  2  0  0  0  0  0  0  0  0  0
   10.4434  -16.4228   25.2958 N   0  0  0  0  0  0  0  0  0  0  0  0
   11.1882  -17.1588   27.4124 C   0  0  0  0  0  0  0  0  0  0  0  0
   11.9441  -17.1103   28.5627 O   0  0  0  0  0  0  0  0  0  0  0  0
   10.5457  -18.1983   27.1558 O   0  0  0  0  0  0  0  0  0  0  0  0
  2  1  1  1
  3  2  1  0
  3  4  1  0
  4  9  1  0
  5  4  2  0
  5  6  1  0
  6  7  2  0
  7  8  1  0
  9  8  2  0
 10 11  2  0
 10  2  1  0
 12 13  1  0
 13 14  2  0
 14 15  1  0
 16 15  2  0
 16 17  1  0
 18 17  1  1
 18 19  1  0
 19 10  1  0
 20 29  1  0
 20 18  1  0
 21 20  2  0
 22 16  1  0
 23 13  1  0
 23 22  2  0
 24 25  1  0
 25 26  1  0
 26 27  1  1
 26 28  1  0
 28 29  1  6
 28 30  1  0
 30 31  1  0
 32 30  2  0
M  END
$$$$
