TYR.pdb
     RDKit          3D

 31 31  0  0  1  0  0  0  0  0999 V2000
   22.6178  -15.5857  -15.3234 C   0  0  0  0  0  0  0  0  0  0  0  0
   21.6709  -16.3577  -16.1891 C   0  0  1  0  0  0  0  0  0  0  0  0
   22.1063  -16.3894  -17.5150 O   0  0  0  0  0  0  0  0  0  0  0  0
   21.5594  -17.7817  -15.6954 C   0  0  2  0  0  0  0  0  0  0  0  0
   21.2173  -17.7977  -14.2763 N   0  0  0  0  0  0  0  0  0  0  0  0
   22.8434  -18.4802  -15.8899 C   0  0  0  0  0  0  0  0  0  0  0  0
   23.2015  -18.8193  -17.0498 O   0  0  0  0  0  0  0  0  0  0  0  0
   27.8622  -14.1584  -17.4424 O   0  0  0  0  0  0  0  0  0  0  0  0
   27.4186  -15.2612  -16.7148 C   0  0  0  0  0  0  0  0  0  0  0  0
   26.6537  -15.0830  -15.5810 C   0  0  0  0  0  0  0  0  0  0  0  0
   26.2084  -16.1651  -14.8529 C   0  0  0  0  0  0  0  0  0  0  0  0
   26.5057  -17.4827  -15.2219 C   0  0  0  0  0  0  0  0  0  0  0  0
   26.0081  -18.6042  -14.4128 C   0  0  0  0  0  0  0  0  0  0  0  0
   24.9731  -19.4718  -15.0604 C   0  0  2  0  0  0  0  0  0  0  0  0
   23.6890  -18.7812  -14.7961 N   0  0  0  0  0  0  0  0  0  0  0  0
   24.8306  -20.8184  -14.4629 C   0  0  0  0  0  0  0  0  0  0  0  0
   24.3262  -20.9605  -13.3301 O   0  0  0  0  0  0  0  0  0  0  0  0
   27.2715  -17.6355  -16.3583 C   0  0  0  0  0  0  0  0  0  0  0  0
   27.7216  -16.5516  -17.0933 C   0  0  0  0  0  0  0  0  0  0  0  0
   20.5397  -26.9279  -12.3028 N   0  0  0  0  0  0  0  0  0  0  0  0
   20.2172  -25.5306  -12.2019 C   0  0  0  0  0  0  0  0  0  0  0  0
   19.3285  -25.1374  -11.3762 N   0  0  0  0  0  0  0  0  0  0  0  0
   20.9416  -24.6228  -13.0735 N   0  0  0  0  0  0  0  0  0  0  0  0
   21.6930  -25.1709  -14.1398 C   0  0  0  0  0  0  0  0  0  0  0  0
   23.1454  -24.9519  -14.2124 C   0  0  0  0  0  0  0  0  0  0  0  0
   23.6134  -23.5981  -14.5933 C   0  0  0  0  0  0  0  0  0  0  0  0
   25.0527  -23.3430  -14.7068 C   0  0  2  0  0  0  0  0  0  0  0  0
   25.2614  -21.9575  -15.1730 N   0  0  0  0  0  0  0  0  0  0  0  0
   25.7697  -24.2877  -15.5777 C   0  0  0  0  0  0  0  0  0  0  0  0
   26.0501  -23.9379  -16.9102 O   0  0  0  0  0  0  0  0  0  0  0  0
   26.1656  -25.4090  -15.2230 O   0  0  0  0  0  0  0  0  0  0  0  0
  2  4  1  0
  2  1  1  1
  3  2  1  0
  4  5  1  1
  4  6  1  0
  6 15  1  0
  6  7  2  0
  8  9  1  0
  9 10  2  0
 10 11  1  0
 12 13  1  0
 12 11  2  0
 14 13  1  1
 14 16  1  0
 15 14  1  0
 16 17  2  0
 18 12  1  0
 19  9  1  0
 19 18  2  0
 20 21  1  0
 21 22  2  0
 21 23  1  0
 23 24  1  0
 24 25  1  0
 25 26  1  0
 27 26  1  6
 27 29  1  0
 28 27  1  0
 28 16  1  0
 29 30  1  0
 31 29  2  0
M  END
$$$$
