TYR.pdb
     RDKit          3D

 31 31  0  0  1  0  0  0  0  0999 V2000
   23.3434  -10.4419  -19.0317 C   0  0  0  0  0  0  0  0  0  0  0  0
   22.4338   -9.8183  -18.0189 C   0  0  1  0  0  0  0  0  0  0  0  0
   21.1025  -10.1707  -18.2472 O   0  0  0  0  0  0  0  0  0  0  0  0
   22.8113  -10.2771  -16.6294 C   0  0  2  0  0  0  0  0  0  0  0  0
   22.6442  -11.7227  -16.5133 N   0  0  0  0  0  0  0  0  0  0  0  0
   21.9529   -9.6108  -15.6325 C   0  0  0  0  0  0  0  0  0  0  0  0
   20.9277  -10.2002  -15.1963 O   0  0  0  0  0  0  0  0  0  0  0  0
   18.9675   -4.3988   -9.1707 O   0  0  0  0  0  0  0  0  0  0  0  0
   19.6910   -5.1333  -10.1085 C   0  0  0  0  0  0  0  0  0  0  0  0
   20.4450   -4.4866  -11.0653 C   0  0  0  0  0  0  0  0  0  0  0  0
   21.1653   -5.2011  -11.9980 C   0  0  0  0  0  0  0  0  0  0  0  0
   21.1684   -6.6011  -12.0216 C   0  0  0  0  0  0  0  0  0  0  0  0
   21.9525   -7.3189  -13.0365 C   0  0  0  0  0  0  0  0  0  0  0  0
   21.2469   -7.6112  -14.3249 C   0  0  2  0  0  0  0  0  0  0  0  0
   22.2556   -8.3152  -15.1511 N   0  0  0  0  0  0  0  0  0  0  0  0
   20.8591   -6.4147  -15.1050 C   0  0  0  0  0  0  0  0  0  0  0  0
   21.7278   -5.6992  -15.6447 O   0  0  0  0  0  0  0  0  0  0  0  0
   20.4074   -7.2251  -11.0558 C   0  0  0  0  0  0  0  0  0  0  0  0
   19.6817   -6.5118  -10.1165 C   0  0  0  0  0  0  0  0  0  0  0  0
   14.3432   -7.9456  -18.8311 N   0  0  0  0  0  0  0  0  0  0  0  0
   14.9078   -7.1448  -19.8829 C   0  0  0  0  0  0  0  0  0  0  0  0
   14.5876   -7.3661  -21.0973 N   0  0  0  0  0  0  0  0  0  0  0  0
   15.8390   -6.1023  -19.4897 N   0  0  0  0  0  0  0  0  0  0  0  0
   16.2270   -6.0250  -18.1312 C   0  0  0  0  0  0  0  0  0  0  0  0
   17.1722   -4.9891  -17.6881 C   0  0  0  0  0  0  0  0  0  0  0  0
   17.6038   -5.0202  -16.2705 C   0  0  0  0  0  0  0  0  0  0  0  0
   19.0260   -4.8633  -15.9508 C   0  0  2  0  0  0  0  0  0  0  0  0
   19.4988   -6.0736  -15.2494 N   0  0  0  0  0  0  0  0  0  0  0  0
   19.3421   -3.6612  -15.1634 C   0  0  0  0  0  0  0  0  0  0  0  0
   19.7562   -2.4859  -15.8145 O   0  0  0  0  0  0  0  0  0  0  0  0
   19.2697   -3.5918  -13.9266 O   0  0  0  0  0  0  0  0  0  0  0  0
  2  4  1  0
  2  1  1  6
  3  2  1  0
  4  5  1  6
  4  6  1  0
  6 15  1  0
  6  7  2  0
  8  9  1  0
  9 10  2  0
 10 11  1  0
 12 13  1  0
 12 11  2  0
 14 13  1  1
 14 16  1  0
 15 14  1  0
 16 17  2  0
 18 12  1  0
 19  9  1  0
 19 18  2  0
 20 21  1  0
 21 22  2  0
 21 23  1  0
 23 24  1  0
 24 25  1  0
 25 26  1  0
 27 26  1  1
 27 29  1  0
 28 27  1  0
 28 16  1  0
 29 30  1  0
 31 29  2  0
M  END
$$$$
