TYR.pdb
     RDKit          3D

 31 31  0  0  1  0  0  0  0  0999 V2000
   27.3386  -18.3377  -16.5863 C   0  0  0  0  0  0  0  0  0  0  0  0
   27.6187  -19.5462  -17.4249 C   0  0  1  0  0  0  0  0  0  0  0  0
   28.4708  -19.2404  -18.4874 O   0  0  0  0  0  0  0  0  0  0  0  0
   28.2759  -20.6187  -16.5872 C   0  0  2  0  0  0  0  0  0  0  0  0
   28.5130  -21.8128  -17.3929 N   0  0  0  0  0  0  0  0  0  0  0  0
   27.4043  -20.9692  -15.4504 C   0  0  0  0  0  0  0  0  0  0  0  0
   26.4080  -21.7190  -15.6343 O   0  0  0  0  0  0  0  0  0  0  0  0
   24.3964  -20.8497   -7.0189 O   0  0  0  0  0  0  0  0  0  0  0  0
   25.1496  -20.7367   -8.1861 C   0  0  0  0  0  0  0  0  0  0  0  0
   25.3882  -21.8470   -8.9688 C   0  0  0  0  0  0  0  0  0  0  0  0
   26.1310  -21.7487  -10.1254 C   0  0  0  0  0  0  0  0  0  0  0  0
   26.6741  -20.5331  -10.5592 C   0  0  0  0  0  0  0  0  0  0  0  0
   27.4598  -20.4785  -11.8000 C   0  0  0  0  0  0  0  0  0  0  0  0
   26.7282  -20.8394  -13.0561 C   0  0  2  0  0  0  0  0  0  0  0  0
   27.6625  -20.4792  -14.1484 N   0  0  0  0  0  0  0  0  0  0  0  0
   25.5007  -20.0513  -13.3070 C   0  0  0  0  0  0  0  0  0  0  0  0
   25.5740  -18.8568  -13.6612 O   0  0  0  0  0  0  0  0  0  0  0  0
   26.4223  -19.4377   -9.7605 C   0  0  0  0  0  0  0  0  0  0  0  0
   25.6767  -19.5311   -8.5973 C   0  0  0  0  0  0  0  0  0  0  0  0
   21.3320  -18.1566  -19.4100 N   0  0  0  0  0  0  0  0  0  0  0  0
   20.2642  -17.6561  -18.5880 C   0  0  0  0  0  0  0  0  0  0  0  0
   19.3441  -16.9382  -19.1020 N   0  0  0  0  0  0  0  0  0  0  0  0
   20.2984  -18.0052  -17.1789 N   0  0  0  0  0  0  0  0  0  0  0  0
   21.4572  -18.6391  -16.6714 C   0  0  0  0  0  0  0  0  0  0  0  0
   21.5472  -18.9873  -15.2454 C   0  0  0  0  0  0  0  0  0  0  0  0
   22.8155  -19.5879  -14.7681 C   0  0  0  0  0  0  0  0  0  0  0  0
   22.9579  -19.9281  -13.3492 C   0  0  2  0  0  0  0  0  0  0  0  0
   24.2325  -20.6471  -13.1515 N   0  0  0  0  0  0  0  0  0  0  0  0
   21.8403  -20.7100  -12.7974 C   0  0  0  0  0  0  0  0  0  0  0  0
   20.7165  -20.0499  -12.2701 O   0  0  0  0  0  0  0  0  0  0  0  0
   21.8016  -21.9496  -12.7577 O   0  0  0  0  0  0  0  0  0  0  0  0
  2  4  1  0
  2  1  1  1
  3  2  1  0
  4  5  1  6
  4  6  1  0
  6 15  1  0
  6  7  2  0
  8  9  1  0
  9 10  2  0
 10 11  1  0
 12 13  1  0
 12 11  2  0
 14 13  1  1
 14 16  1  0
 15 14  1  0
 16 17  2  0
 18 12  1  0
 19  9  1  0
 19 18  2  0
 20 21  1  0
 21 22  2  0
 21 23  1  0
 23 24  1  0
 24 25  1  0
 25 26  1  0
 27 26  1  6
 27 29  1  0
 28 27  1  0
 28 16  1  0
 29 30  1  0
 31 29  2  0
M  END
$$$$
