TYR.pdb
     RDKit          3D

 31 31  0  0  1  0  0  0  0  0999 V2000
   19.7742  -29.9423  -14.0350 C   0  0  0  0  0  0  0  0  0  0  0  0
   19.7782  -28.9411  -12.9216 C   0  0  1  0  0  0  0  0  0  0  0  0
   20.6241  -29.3384  -11.8847 O   0  0  0  0  0  0  0  0  0  0  0  0
   20.2541  -27.6001  -13.4306 C   0  0  2  0  0  0  0  0  0  0  0  0
   21.6440  -27.6914  -13.8676 N   0  0  0  0  0  0  0  0  0  0  0  0
   20.1508  -26.5931  -12.3584 C   0  0  0  0  0  0  0  0  0  0  0  0
   21.1876  -26.2269  -11.7424 O   0  0  0  0  0  0  0  0  0  0  0  0
   22.0361  -20.5388  -14.8236 O   0  0  0  0  0  0  0  0  0  0  0  0
   21.1232  -21.3385  -14.1384 C   0  0  0  0  0  0  0  0  0  0  0  0
   20.6936  -20.9784  -12.8782 C   0  0  0  0  0  0  0  0  0  0  0  0
   19.7909  -21.7601  -12.1902 C   0  0  0  0  0  0  0  0  0  0  0  0
   19.2709  -22.9438  -12.7281 C   0  0  0  0  0  0  0  0  0  0  0  0
   18.3104  -23.7441  -11.9554 C   0  0  0  0  0  0  0  0  0  0  0  0
   18.8941  -24.8377  -11.1149 C   0  0  2  0  0  0  0  0  0  0  0  0
   18.9051  -26.0245  -12.0021 N   0  0  0  0  0  0  0  0  0  0  0  0
   18.0753  -25.2242   -9.9441 C   0  0  0  0  0  0  0  0  0  0  0  0
   16.9718  -25.7867  -10.0985 O   0  0  0  0  0  0  0  0  0  0  0  0
   19.7151  -23.2829  -13.9886 C   0  0  0  0  0  0  0  0  0  0  0  0
   20.6222  -22.5010  -14.6840 C   0  0  0  0  0  0  0  0  0  0  0  0
   19.1461  -27.7952   -3.1856 N   0  0  0  0  0  0  0  0  0  0  0  0
   17.8448  -27.5168   -2.6417 C   0  0  0  0  0  0  0  0  0  0  0  0
   17.5445  -27.9127   -1.4673 N   0  0  0  0  0  0  0  0  0  0  0  0
   16.9209  -26.7821   -3.4874 N   0  0  0  0  0  0  0  0  0  0  0  0
   17.3710  -26.3488   -4.7570 C   0  0  0  0  0  0  0  0  0  0  0  0
   18.0393  -25.0468   -4.9018 C   0  0  0  0  0  0  0  0  0  0  0  0
   18.4573  -24.6420   -6.2650 C   0  0  0  0  0  0  0  0  0  0  0  0
   17.7234  -25.1608   -7.4232 C   0  0  2  0  0  0  0  0  0  0  0  0
   18.5386  -24.9631   -8.6385 N   0  0  0  0  0  0  0  0  0  0  0  0
   16.3856  -24.5761   -7.6058 C   0  0  0  0  0  0  0  0  0  0  0  0
   16.2397  -23.3645   -8.3039 O   0  0  0  0  0  0  0  0  0  0  0  0
   15.3341  -25.0809   -7.1823 O   0  0  0  0  0  0  0  0  0  0  0  0
  2  4  1  0
  2  1  1  6
  3  2  1  0
  4  5  1  1
  4  6  1  0
  6 15  1  0
  6  7  2  0
  8  9  1  0
  9 10  2  0
 10 11  1  0
 12 13  1  0
 12 11  2  0
 14 13  1  6
 14 16  1  0
 15 14  1  0
 16 17  2  0
 18 12  1  0
 19  9  1  0
 19 18  2  0
 20 21  1  0
 21 22  2  0
 21 23  1  0
 23 24  1  0
 24 25  1  0
 25 26  1  0
 27 26  1  1
 27 29  1  0
 28 27  1  0
 28 16  1  0
 29 30  1  0
 31 29  2  0
M  END
$$$$
