TYR.pdb
     RDKit          3D

 31 31  0  0  1  0  0  0  0  0999 V2000
   28.5018  -19.7050  -18.1257 C   0  0  0  0  0  0  0  0  0  0  0  0
   27.8245  -20.0679  -16.8406 C   0  0  1  0  0  0  0  0  0  0  0  0
   26.5158  -20.5007  -17.0612 O   0  0  0  0  0  0  0  0  0  0  0  0
   28.5794  -21.1812  -16.1519 C   0  0  2  0  0  0  0  0  0  0  0  0
   28.4807  -22.4130  -16.9291 N   0  0  0  0  0  0  0  0  0  0  0  0
   28.0151  -21.4116  -14.8091 C   0  0  0  0  0  0  0  0  0  0  0  0
   27.1476  -22.3104  -14.6412 O   0  0  0  0  0  0  0  0  0  0  0  0
   26.9172  -20.1696   -6.0009 O   0  0  0  0  0  0  0  0  0  0  0  0
   27.3768  -20.2073   -7.3161 C   0  0  0  0  0  0  0  0  0  0  0  0
   26.8660  -19.3358   -8.2553 C   0  0  0  0  0  0  0  0  0  0  0  0
   27.3121  -19.3624   -9.5590 C   0  0  0  0  0  0  0  0  0  0  0  0
   28.2932  -20.2632   -9.9909 C   0  0  0  0  0  0  0  0  0  0  0  0
   28.7365  -20.2534  -11.3921 C   0  0  0  0  0  0  0  0  0  0  0  0
   27.8261  -20.9261  -12.3728 C   0  0  2  0  0  0  0  0  0  0  0  0
   28.4280  -20.6411  -13.6966 N   0  0  0  0  0  0  0  0  0  0  0  0
   26.4562  -20.3686  -12.4307 C   0  0  0  0  0  0  0  0  0  0  0  0
   26.2361  -19.2827  -13.0053 O   0  0  0  0  0  0  0  0  0  0  0  0
   28.7884  -21.1241   -9.0344 C   0  0  0  0  0  0  0  0  0  0  0  0
   28.3435  -21.1017   -7.7232 C   0  0  0  0  0  0  0  0  0  0  0  0
   19.1570  -22.8358  -11.9992 N   0  0  0  0  0  0  0  0  0  0  0  0
   18.7784  -22.2581  -13.2600 C   0  0  0  0  0  0  0  0  0  0  0  0
   17.5590  -21.9622  -13.4874 N   0  0  0  0  0  0  0  0  0  0  0  0
   19.8372  -22.0417  -14.2299 N   0  0  0  0  0  0  0  0  0  0  0  0
   21.1689  -22.3272  -13.8462 C   0  0  0  0  0  0  0  0  0  0  0  0
   21.8204  -21.5400  -12.7886 C   0  0  0  0  0  0  0  0  0  0  0  0
   23.2655  -21.2501  -12.9454 C   0  0  0  0  0  0  0  0  0  0  0  0
   23.9858  -20.5864  -11.8545 C   0  0  2  0  0  0  0  0  0  0  0  0
   25.3828  -21.0644  -11.8382 N   0  0  0  0  0  0  0  0  0  0  0  0
   23.3720  -20.7591  -10.5284 C   0  0  0  0  0  0  0  0  0  0  0  0
   22.1285  -20.1655  -10.2492 O   0  0  0  0  0  0  0  0  0  0  0  0
   23.8757  -21.4105   -9.6001 O   0  0  0  0  0  0  0  0  0  0  0  0
  2  4  1  0
  2  1  1  6
  3  2  1  0
  4  5  1  6
  4  6  1  0
  6 15  1  0
  6  7  2  0
  8  9  1  0
  9 10  2  0
 10 11  1  0
 12 13  1  0
 12 11  2  0
 14 13  1  1
 14 16  1  0
 15 14  1  0
 16 17  2  0
 18 12  1  0
 19  9  1  0
 19 18  2  0
 20 21  1  0
 21 22  2  0
 21 23  1  0
 23 24  1  0
 24 25  1  0
 25 26  1  0
 27 26  1  6
 27 29  1  0
 28 27  1  0
 28 16  1  0
 29 30  1  0
 31 29  2  0
M  END
$$$$
