TYR.pdb
     RDKit          3D

 31 31  0  0  1  0  0  0  0  0999 V2000
   21.7167  -18.6978  -16.3792 C   0  0  0  0  0  0  0  0  0  0  0  0
   22.1145  -19.5137  -17.5701 C   0  0  1  0  0  0  0  0  0  0  0  0
   21.3109  -19.2250  -18.6744 O   0  0  0  0  0  0  0  0  0  0  0  0
   23.5499  -19.2232  -17.9427 C   0  0  2  0  0  0  0  0  0  0  0  0
   23.9497  -20.0410  -19.0840 N   0  0  0  0  0  0  0  0  0  0  0  0
   24.4334  -19.5237  -16.8009 C   0  0  0  0  0  0  0  0  0  0  0  0
   24.8543  -20.6992  -16.6284 O   0  0  0  0  0  0  0  0  0  0  0  0
   30.3477  -17.2209  -19.1523 O   0  0  0  0  0  0  0  0  0  0  0  0
   29.4754  -17.3553  -18.0737 C   0  0  0  0  0  0  0  0  0  0  0  0
   28.4018  -16.5002  -17.9381 C   0  0  0  0  0  0  0  0  0  0  0  0
   27.5316  -16.6227  -16.8765 C   0  0  0  0  0  0  0  0  0  0  0  0
   27.6908  -17.6082  -15.8946 C   0  0  0  0  0  0  0  0  0  0  0  0
   26.7364  -17.6989  -14.7807 C   0  0  0  0  0  0  0  0  0  0  0  0
   25.7906  -18.8596  -14.8201 C   0  0  2  0  0  0  0  0  0  0  0  0
   24.8222  -18.5155  -15.8875 N   0  0  0  0  0  0  0  0  0  0  0  0
   24.9822  -19.0428  -13.5939 C   0  0  0  0  0  0  0  0  0  0  0  0
   24.0493  -18.2585  -13.3251 O   0  0  0  0  0  0  0  0  0  0  0  0
   28.7709  -18.4508  -16.0514 C   0  0  0  0  0  0  0  0  0  0  0  0
   29.6483  -18.3318  -17.1161 C   0  0  0  0  0  0  0  0  0  0  0  0
   18.9414  -23.8066  -11.4591 N   0  0  0  0  0  0  0  0  0  0  0  0
   18.5441  -22.5337  -10.9221 C   0  0  0  0  0  0  0  0  0  0  0  0
   17.3555  -22.3637  -10.4926 N   0  0  0  0  0  0  0  0  0  0  0  0
   19.5480  -21.4847  -10.9023 N   0  0  0  0  0  0  0  0  0  0  0  0
   20.8496  -21.7911  -11.3649 C   0  0  0  0  0  0  0  0  0  0  0  0
   21.8593  -20.7297  -11.4940 C   0  0  0  0  0  0  0  0  0  0  0  0
   23.1609  -21.0960  -12.1012 C   0  0  0  0  0  0  0  0  0  0  0  0
   24.3900  -20.4877  -11.5829 C   0  0  2  0  0  0  0  0  0  0  0  0
   25.2575  -20.1120  -12.7173 N   0  0  0  0  0  0  0  0  0  0  0  0
   25.1307  -21.3316  -10.6320 C   0  0  0  0  0  0  0  0  0  0  0  0
   24.8819  -21.2177   -9.2529 O   0  0  0  0  0  0  0  0  0  0  0  0
   25.9874  -22.1691  -10.9548 O   0  0  0  0  0  0  0  0  0  0  0  0
  2  4  1  0
  2  1  1  1
  3  2  1  0
  4  5  1  6
  4  6  1  0
  6 15  1  0
  6  7  2  0
  8  9  1  0
  9 10  2  0
 10 11  1  0
 12 13  1  0
 12 11  2  0
 14 13  1  1
 14 16  1  0
 15 14  1  0
 16 17  2  0
 18 12  1  0
 19  9  1  0
 19 18  2  0
 20 21  1  0
 21 22  2  0
 21 23  1  0
 23 24  1  0
 24 25  1  0
 25 26  1  0
 27 26  1  6
 27 29  1  0
 28 27  1  0
 28 16  1  0
 29 30  1  0
 31 29  2  0
M  END
$$$$
