TYR.pdb
     RDKit          3D

 31 31  0  0  1  0  0  0  0  0999 V2000
   25.6670  -24.9697  -16.7942 C   0  0  0  0  0  0  0  0  0  0  0  0
   24.6801  -24.2694  -15.9125 C   0  0  1  0  0  0  0  0  0  0  0  0
   24.7826  -24.7045  -14.5901 O   0  0  0  0  0  0  0  0  0  0  0  0
   24.9266  -22.7786  -15.9387 C   0  0  2  0  0  0  0  0  0  0  0  0
   26.3321  -22.4953  -15.6639 N   0  0  0  0  0  0  0  0  0  0  0  0
   24.0928  -22.1161  -14.9187 C   0  0  0  0  0  0  0  0  0  0  0  0
   24.5605  -21.1478  -14.2612 O   0  0  0  0  0  0  0  0  0  0  0  0
   18.0082  -16.7445  -12.3089 O   0  0  0  0  0  0  0  0  0  0  0  0
   18.9430  -17.6400  -12.8253 C   0  0  0  0  0  0  0  0  0  0  0  0
   18.6659  -18.3454  -13.9777 C   0  0  0  0  0  0  0  0  0  0  0  0
   19.5818  -19.2335  -14.4990 C   0  0  0  0  0  0  0  0  0  0  0  0
   20.8236  -19.4619  -13.8936 C   0  0  0  0  0  0  0  0  0  0  0  0
   21.7674  -20.4193  -14.4874 C   0  0  0  0  0  0  0  0  0  0  0  0
   21.9188  -21.7237  -13.7670 C   0  0  2  0  0  0  0  0  0  0  0  0
   22.7700  -22.5457  -14.6589 N   0  0  0  0  0  0  0  0  0  0  0  0
   20.6630  -22.4891  -13.5996 C   0  0  0  0  0  0  0  0  0  0  0  0
   20.0980  -23.0061  -14.5852 O   0  0  0  0  0  0  0  0  0  0  0  0
   21.0778  -18.7454  -12.7432 C   0  0  0  0  0  0  0  0  0  0  0  0
   20.1608  -17.8521  -12.2152 C   0  0  0  0  0  0  0  0  0  0  0  0
   17.9607  -24.5133   -5.8635 N   0  0  0  0  0  0  0  0  0  0  0  0
   18.1822  -25.7520   -6.5586 C   0  0  0  0  0  0  0  0  0  0  0  0
   18.4634  -26.8104   -5.9053 N   0  0  0  0  0  0  0  0  0  0  0  0
   18.0723  -25.7238   -8.0062 N   0  0  0  0  0  0  0  0  0  0  0  0
   17.5106  -24.5769   -8.6155 C   0  0  0  0  0  0  0  0  0  0  0  0
   17.5938  -24.3958  -10.0726 C   0  0  0  0  0  0  0  0  0  0  0  0
   18.7787  -23.6822  -10.6052 C   0  0  0  0  0  0  0  0  0  0  0  0
   18.8897  -23.4559  -12.0494 C   0  0  2  0  0  0  0  0  0  0  0  0
   20.0940  -22.6451  -12.3193 N   0  0  0  0  0  0  0  0  0  0  0  0
   17.7058  -22.8291  -12.6583 C   0  0  0  0  0  0  0  0  0  0  0  0
   17.5032  -21.4437  -12.5314 O   0  0  0  0  0  0  0  0  0  0  0  0
   16.8386  -23.4412  -13.3010 O   0  0  0  0  0  0  0  0  0  0  0  0
  2  4  1  0
  2  1  1  6
  3  2  1  0
  4  5  1  1
  4  6  1  0
  6 15  1  0
  6  7  2  0
  8  9  1  0
  9 10  2  0
 10 11  1  0
 12 13  1  0
 12 11  2  0
 14 13  1  6
 14 16  1  0
 15 14  1  0
 16 17  2  0
 18 12  1  0
 19  9  1  0
 19 18  2  0
 20 21  1  0
 21 22  2  0
 21 23  1  0
 23 24  1  0
 24 25  1  0
 25 26  1  0
 27 26  1  1
 27 29  1  0
 28 27  1  0
 28 16  1  0
 29 30  1  0
 31 29  2  0
M  END
$$$$
