TYR.pdb
     RDKit          3D

 31 31  0  0  1  0  0  0  0  0999 V2000
   19.3740  -24.0043  -13.3411 C   0  0  0  0  0  0  0  0  0  0  0  0
   19.9764  -22.6683  -13.6479 C   0  0  1  0  0  0  0  0  0  0  0  0
   19.0619  -21.8356  -14.2950 O   0  0  0  0  0  0  0  0  0  0  0  0
   20.4107  -21.9885  -12.3700 C   0  0  2  0  0  0  0  0  0  0  0  0
   19.2513  -21.4439  -11.6698 N   0  0  0  0  0  0  0  0  0  0  0  0
   21.3459  -20.8914  -12.6803 C   0  0  0  0  0  0  0  0  0  0  0  0
   20.9776  -19.6951  -12.5326 O   0  0  0  0  0  0  0  0  0  0  0  0
   28.7942  -17.3214  -16.1516 O   0  0  0  0  0  0  0  0  0  0  0  0
   27.8430  -18.1036  -15.4990 C   0  0  0  0  0  0  0  0  0  0  0  0
   27.0418  -17.5510  -14.5218 C   0  0  0  0  0  0  0  0  0  0  0  0
   26.0971  -18.3133  -13.8693 C   0  0  0  0  0  0  0  0  0  0  0  0
   25.9051  -19.6693  -14.1610 C   0  0  0  0  0  0  0  0  0  0  0  0
   24.8848  -20.4410  -13.4376 C   0  0  0  0  0  0  0  0  0  0  0  0
   23.4642  -20.0241  -13.6640 C   0  0  2  0  0  0  0  0  0  0  0  0
   22.6569  -21.1527  -13.1440 N   0  0  0  0  0  0  0  0  0  0  0  0
   23.0787  -19.8816  -15.0859 C   0  0  0  0  0  0  0  0  0  0  0  0
   22.8990  -20.8898  -15.7994 O   0  0  0  0  0  0  0  0  0  0  0  0
   26.7176  -20.1991  -15.1411 C   0  0  0  0  0  0  0  0  0  0  0  0
   27.6684  -19.4375  -15.7996 C   0  0  0  0  0  0  0  0  0  0  0  0
   18.8113  -13.2212  -18.5738 N   0  0  0  0  0  0  0  0  0  0  0  0
   18.2710  -14.3372  -17.8463 C   0  0  0  0  0  0  0  0  0  0  0  0
   17.1520  -14.2271  -17.2449 N   0  0  0  0  0  0  0  0  0  0  0  0
   19.0555  -15.5591  -17.8365 N   0  0  0  0  0  0  0  0  0  0  0  0
   20.3052  -15.5609  -18.5001 C   0  0  0  0  0  0  0  0  0  0  0  0
   21.1621  -16.7556  -18.4635 C   0  0  0  0  0  0  0  0  0  0  0  0
   21.6648  -17.1948  -17.1402 C   0  0  0  0  0  0  0  0  0  0  0  0
   22.5440  -18.3653  -17.0600 C   0  0  2  0  0  0  0  0  0  0  0  0
   22.9063  -18.6003  -15.6479 N   0  0  0  0  0  0  0  0  0  0  0  0
   23.7561  -18.2719  -17.8889 C   0  0  0  0  0  0  0  0  0  0  0  0
   23.8253  -18.9656  -19.1098 O   0  0  0  0  0  0  0  0  0  0  0  0
   24.7605  -17.6060  -17.5929 O   0  0  0  0  0  0  0  0  0  0  0  0
  2  4  1  0
  2  1  1  1
  3  2  1  0
  4  5  1  6
  4  6  1  0
  6 15  1  0
  6  7  2  0
  8  9  1  0
  9 10  2  0
 10 11  1  0
 12 13  1  0
 12 11  2  0
 14 13  1  6
 14 16  1  0
 15 14  1  0
 16 17  2  0
 18 12  1  0
 19  9  1  0
 19 18  2  0
 20 21  1  0
 21 22  2  0
 21 23  1  0
 23 24  1  0
 24 25  1  0
 25 26  1  0
 27 26  1  1
 27 29  1  0
 28 27  1  0
 28 16  1  0
 29 30  1  0
 31 29  2  0
M  END
$$$$
