TYR.pdb
     RDKit          3D

 31 31  0  0  1  0  0  0  0  0999 V2000
   29.9099  -24.0974  -18.3325 C   0  0  0  0  0  0  0  0  0  0  0  0
   28.9496  -23.4122  -17.4104 C   0  0  1  0  0  0  0  0  0  0  0  0
   29.4949  -23.2548  -16.1352 O   0  0  0  0  0  0  0  0  0  0  0  0
   28.6018  -22.0428  -17.9468 C   0  0  2  0  0  0  0  0  0  0  0  0
   29.8110  -21.2392  -18.0987 N   0  0  0  0  0  0  0  0  0  0  0  0
   27.6828  -21.3604  -17.0170 C   0  0  0  0  0  0  0  0  0  0  0  0
   28.0868  -20.3667  -16.3553 O   0  0  0  0  0  0  0  0  0  0  0  0
   19.7571  -18.8683  -13.7168 O   0  0  0  0  0  0  0  0  0  0  0  0
   20.8146  -19.4496  -14.4141 C   0  0  0  0  0  0  0  0  0  0  0  0
   21.5697  -18.6940  -15.2866 C   0  0  0  0  0  0  0  0  0  0  0  0
   22.6183  -19.2565  -15.9818 C   0  0  0  0  0  0  0  0  0  0  0  0
   22.9659  -20.6055  -15.8399 C   0  0  0  0  0  0  0  0  0  0  0  0
   24.0927  -21.1599  -16.6034 C   0  0  0  0  0  0  0  0  0  0  0  0
   25.4456  -21.0096  -15.9786 C   0  0  2  0  0  0  0  0  0  0  0  0
   26.3482  -21.7991  -16.8491 N   0  0  0  0  0  0  0  0  0  0  0  0
   25.5748  -21.6036  -14.6291 C   0  0  0  0  0  0  0  0  0  0  0  0
   25.6406  -22.8415  -14.4836 O   0  0  0  0  0  0  0  0  0  0  0  0
   22.1968  -21.3402  -14.9625 C   0  0  0  0  0  0  0  0  0  0  0  0
   21.1420  -20.7799  -14.2617 C   0  0  0  0  0  0  0  0  0  0  0  0
   30.8836  -21.1448   -8.3291 N   0  0  0  0  0  0  0  0  0  0  0  0
   30.7044  -21.7164   -9.6359 C   0  0  0  0  0  0  0  0  0  0  0  0
   31.6770  -22.3021  -10.2166 N   0  0  0  0  0  0  0  0  0  0  0  0
   29.3888  -21.5870  -10.2368 N   0  0  0  0  0  0  0  0  0  0  0  0
   28.3115  -21.1797   -9.4148 C   0  0  0  0  0  0  0  0  0  0  0  0
   26.9446  -21.1298   -9.9551 C   0  0  0  0  0  0  0  0  0  0  0  0
   26.7912  -20.8189  -11.3962 C   0  0  0  0  0  0  0  0  0  0  0  0
   25.5917  -21.2765  -12.1042 C   0  0  2  0  0  0  0  0  0  0  0  0
   25.6292  -20.7725  -13.4917 N   0  0  0  0  0  0  0  0  0  0  0  0
   24.3246  -20.8989  -11.4584 C   0  0  0  0  0  0  0  0  0  0  0  0
   23.8574  -21.6293  -10.3517 O   0  0  0  0  0  0  0  0  0  0  0  0
   23.6063  -19.9535  -11.8190 O   0  0  0  0  0  0  0  0  0  0  0  0
  2  4  1  0
  2  1  1  6
  3  2  1  0
  4  5  1  1
  4  6  1  0
  6 15  1  0
  6  7  2  0
  8  9  1  0
  9 10  2  0
 10 11  1  0
 12 13  1  0
 12 11  2  0
 14 13  1  6
 14 16  1  0
 15 14  1  0
 16 17  2  0
 18 12  1  0
 19  9  1  0
 19 18  2  0
 20 21  1  0
 21 22  2  0
 21 23  1  0
 23 24  1  0
 24 25  1  0
 25 26  1  0
 27 26  1  1
 27 29  1  0
 28 27  1  0
 28 16  1  0
 29 30  1  0
 31 29  2  0
M  END
$$$$
