TYR.pdb
     RDKit          3D

 31 31  0  0  1  0  0  0  0  0999 V2000
   16.7179  -26.3661   -9.4393 C   0  0  0  0  0  0  0  0  0  0  0  0
   16.8606  -26.3790   -7.9488 C   0  0  1  0  0  0  0  0  0  0  0  0
   17.6846  -27.4237   -7.5268 O   0  0  0  0  0  0  0  0  0  0  0  0
   17.4672  -25.0789   -7.4738 C   0  0  2  0  0  0  0  0  0  0  0  0
   18.8431  -24.9621   -7.9473 N   0  0  0  0  0  0  0  0  0  0  0  0
   17.4587  -25.0324   -5.9999 C   0  0  0  0  0  0  0  0  0  0  0  0
   18.5357  -25.1847   -5.3633 O   0  0  0  0  0  0  0  0  0  0  0  0
   14.5632  -22.9342    2.1701 O   0  0  0  0  0  0  0  0  0  0  0  0
   14.7122  -23.1699    0.8046 C   0  0  0  0  0  0  0  0  0  0  0  0
   14.1434  -24.2856    0.2265 C   0  0  0  0  0  0  0  0  0  0  0  0
   14.2828  -24.5300   -1.1226 C   0  0  0  0  0  0  0  0  0  0  0  0
   14.9993  -23.6700   -1.9639 C   0  0  0  0  0  0  0  0  0  0  0  0
   15.1203  -23.9734   -3.3968 C   0  0  0  0  0  0  0  0  0  0  0  0
   16.3210  -24.7736   -3.7987 C   0  0  2  0  0  0  0  0  0  0  0  0
   16.2602  -24.8195   -5.2785 N   0  0  0  0  0  0  0  0  0  0  0  0
   16.3016  -26.1858   -3.3561 C   0  0  0  0  0  0  0  0  0  0  0  0
   15.5676  -27.0198   -3.9249 O   0  0  0  0  0  0  0  0  0  0  0  0
   15.5586  -22.5619   -1.3633 C   0  0  0  0  0  0  0  0  0  0  0  0
   15.4216  -22.3118   -0.0082 C   0  0  0  0  0  0  0  0  0  0  0  0
   22.1698  -31.6831   -1.3792 N   0  0  0  0  0  0  0  0  0  0  0  0
   21.0943  -32.6328   -1.2907 C   0  0  0  0  0  0  0  0  0  0  0  0
   21.3100  -33.8022   -0.8302 N   0  0  0  0  0  0  0  0  0  0  0  0
   19.7877  -32.1927   -1.7467 N   0  0  0  0  0  0  0  0  0  0  0  0
   19.6168  -30.8286   -2.0812 C   0  0  0  0  0  0  0  0  0  0  0  0
   18.4398  -30.0894   -1.6006 C   0  0  0  0  0  0  0  0  0  0  0  0
   18.2233  -28.7257   -2.1393 C   0  0  0  0  0  0  0  0  0  0  0  0
   17.0620  -27.9529   -1.6883 C   0  0  2  0  0  0  0  0  0  0  0  0
   17.1188  -26.6039   -2.2861 N   0  0  0  0  0  0  0  0  0  0  0  0
   16.9270  -27.8577   -0.2261 C   0  0  0  0  0  0  0  0  0  0  0  0
   17.2072  -26.6439    0.4258 O   0  0  0  0  0  0  0  0  0  0  0  0
   16.5713  -28.7917    0.5093 O   0  0  0  0  0  0  0  0  0  0  0  0
  2  4  1  0
  2  1  1  6
  3  2  1  0
  4  5  1  1
  4  6  1  0
  6 15  1  0
  6  7  2  0
  8  9  1  0
  9 10  2  0
 10 11  1  0
 12 13  1  0
 12 11  2  0
 14 13  1  1
 14 16  1  0
 15 14  1  0
 16 17  2  0
 18 12  1  0
 19  9  1  0
 19 18  2  0
 20 21  1  0
 21 22  2  0
 21 23  1  0
 23 24  1  0
 24 25  1  0
 25 26  1  0
 27 26  1  1
 27 29  1  0
 28 27  1  0
 28 16  1  0
 29 30  1  0
 31 29  2  0
M  END
$$$$
