TYR.pdb
     RDKit          3D

 31 31  0  0  1  0  0  0  0  0999 V2000
   22.6603  -22.5268  -10.4922 C   0  0  0  0  0  0  0  0  0  0  0  0
   22.0054  -21.7616   -9.3842 C   0  0  1  0  0  0  0  0  0  0  0  0
   20.8715  -22.4240   -8.9110 O   0  0  0  0  0  0  0  0  0  0  0  0
   22.9675  -21.5913   -8.2312 C   0  0  2  0  0  0  0  0  0  0  0  0
   22.3146  -20.8906   -7.1295 N   0  0  0  0  0  0  0  0  0  0  0  0
   24.1407  -20.8132   -8.6700 C   0  0  0  0  0  0  0  0  0  0  0  0
   24.0247  -19.5779   -8.8912 O   0  0  0  0  0  0  0  0  0  0  0  0
   28.0098  -18.4182   -3.4565 O   0  0  0  0  0  0  0  0  0  0  0  0
   27.9359  -19.0223   -4.7103 C   0  0  0  0  0  0  0  0  0  0  0  0
   27.7226  -20.3809   -4.8151 C   0  0  0  0  0  0  0  0  0  0  0  0
   27.6471  -20.9904   -6.0488 C   0  0  0  0  0  0  0  0  0  0  0  0
   27.7813  -20.2713   -7.2428 C   0  0  0  0  0  0  0  0  0  0  0  0
   27.6935  -20.9661   -8.5349 C   0  0  0  0  0  0  0  0  0  0  0  0
   26.5169  -20.6122   -9.3914 C   0  0  2  0  0  0  0  0  0  0  0  0
   25.4032  -21.4261   -8.8500 N   0  0  0  0  0  0  0  0  0  0  0  0
   26.6432  -21.0066  -10.8124 C   0  0  0  0  0  0  0  0  0  0  0  0
   26.6099  -22.2097  -11.1431 O   0  0  0  0  0  0  0  0  0  0  0  0
   27.9939  -18.9151   -7.1126 C   0  0  0  0  0  0  0  0  0  0  0  0
   28.0708  -18.2979   -5.8754 C   0  0  0  0  0  0  0  0  0  0  0  0
   20.0971  -21.7850  -14.1447 N   0  0  0  0  0  0  0  0  0  0  0  0
   20.6514  -20.5829  -13.5843 C   0  0  0  0  0  0  0  0  0  0  0  0
   19.8810  -19.6426  -13.1988 N   0  0  0  0  0  0  0  0  0  0  0  0
   22.0984  -20.5064  -13.4899 N   0  0  0  0  0  0  0  0  0  0  0  0
   22.8575  -20.6403  -14.6764 C   0  0  0  0  0  0  0  0  0  0  0  0
   24.3228  -20.5218  -14.6363 C   0  0  0  0  0  0  0  0  0  0  0  0
   24.9577  -20.3520  -13.3077 C   0  0  0  0  0  0  0  0  0  0  0  0
   26.4150  -20.2166  -13.2220 C   0  0  2  0  0  0  0  0  0  0  0  0
   26.7988  -20.0222  -11.8094 N   0  0  0  0  0  0  0  0  0  0  0  0
   26.9748  -19.1410  -14.0554 C   0  0  0  0  0  0  0  0  0  0  0  0
   27.4060  -19.4208  -15.3640 O   0  0  0  0  0  0  0  0  0  0  0  0
   27.1019  -17.9621  -13.6896 O   0  0  0  0  0  0  0  0  0  0  0  0
  2  4  1  0
  2  1  1  6
  3  2  1  0
  4  5  1  1
  4  6  1  0
  6 15  1  0
  6  7  2  0
  8  9  1  0
  9 10  2  0
 10 11  1  0
 12 13  1  0
 12 11  2  0
 14 13  1  1
 14 16  1  0
 15 14  1  0
 16 17  2  0
 18 12  1  0
 19  9  1  0
 19 18  2  0
 20 21  1  0
 21 22  2  0
 21 23  1  0
 23 24  1  0
 24 25  1  0
 25 26  1  0
 27 26  1  1
 27 29  1  0
 28 27  1  0
 28 16  1  0
 29 30  1  0
 31 29  2  0
M  END
$$$$
