TYR.pdb
     RDKit          3D

 31 31  0  0  1  0  0  0  0  0999 V2000
   19.4255   -3.4569  -14.7664 C   0  0  0  0  0  0  0  0  0  0  0  0
   20.5663   -2.6368  -15.2841 C   0  0  1  0  0  0  0  0  0  0  0  0
   20.5681   -1.3585  -14.7233 O   0  0  0  0  0  0  0  0  0  0  0  0
   21.8802   -3.3022  -14.9450 C   0  0  2  0  0  0  0  0  0  0  0  0
   22.9946   -2.4912  -15.4261 N   0  0  0  0  0  0  0  0  0  0  0  0
   21.9442   -4.6330  -15.5769 C   0  0  0  0  0  0  0  0  0  0  0  0
   21.8276   -4.7378  -16.8275 O   0  0  0  0  0  0  0  0  0  0  0  0
   23.0558  -13.5271  -16.0166 O   0  0  0  0  0  0  0  0  0  0  0  0
   23.0405  -12.1708  -15.6963 C   0  0  0  0  0  0  0  0  0  0  0  0
   22.4433  -11.7394  -14.5302 C   0  0  0  0  0  0  0  0  0  0  0  0
   22.4217  -10.4013  -14.2015 C   0  0  0  0  0  0  0  0  0  0  0  0
   22.9970   -9.4244  -15.0234 C   0  0  0  0  0  0  0  0  0  0  0  0
   22.9484   -8.0092  -14.6301 C   0  0  0  0  0  0  0  0  0  0  0  0
   22.1076   -7.1175  -15.4911 C   0  0  2  0  0  0  0  0  0  0  0  0
   22.1345   -5.8040  -14.8058 N   0  0  0  0  0  0  0  0  0  0  0  0
   20.6789   -7.4968  -15.5674 C   0  0  0  0  0  0  0  0  0  0  0  0
   19.9286   -7.3481  -14.5811 O   0  0  0  0  0  0  0  0  0  0  0  0
   23.5877   -9.8797  -16.1832 C   0  0  0  0  0  0  0  0  0  0  0  0
   23.6120  -11.2231  -16.5182 C   0  0  0  0  0  0  0  0  0  0  0  0
   16.0323   -8.4613  -22.8091 N   0  0  0  0  0  0  0  0  0  0  0  0
   14.9978   -8.9540  -21.9410 C   0  0  0  0  0  0  0  0  0  0  0  0
   13.8276   -9.1701  -22.3994 N   0  0  0  0  0  0  0  0  0  0  0  0
   15.3557   -9.1805  -20.5521 N   0  0  0  0  0  0  0  0  0  0  0  0
   16.6401   -8.7790  -20.1148 C   0  0  0  0  0  0  0  0  0  0  0  0
   17.0381   -8.9682  -18.7118 C   0  0  0  0  0  0  0  0  0  0  0  0
   18.3835   -8.4907  -18.3136 C   0  0  0  0  0  0  0  0  0  0  0  0
   18.7643   -8.5195  -16.8981 C   0  0  2  0  0  0  0  0  0  0  0  0
   20.1499   -8.0276  -16.7614 N   0  0  0  0  0  0  0  0  0  0  0  0
   18.6256   -9.8376  -16.2590 C   0  0  0  0  0  0  0  0  0  0  0  0
   17.4363  -10.1684  -15.5861 O   0  0  0  0  0  0  0  0  0  0  0  0
   19.5007  -10.7173  -16.2648 O   0  0  0  0  0  0  0  0  0  0  0  0
  2  4  1  0
  2  1  1  1
  3  2  1  0
  4  5  1  6
  4  6  1  0
  6 15  1  0
  6  7  2  0
  8  9  1  0
  9 10  2  0
 10 11  1  0
 12 13  1  0
 12 11  2  0
 14 13  1  1
 14 16  1  0
 15 14  1  0
 16 17  2  0
 18 12  1  0
 19  9  1  0
 19 18  2  0
 20 21  1  0
 21 22  2  0
 21 23  1  0
 23 24  1  0
 24 25  1  0
 25 26  1  0
 27 26  1  6
 27 29  1  0
 28 27  1  0
 28 16  1  0
 29 30  1  0
 31 29  2  0
M  END
$$$$
