TYR.pdb
     RDKit          3D

 31 31  0  0  1  0  0  0  0  0999 V2000
   14.7551   -7.0558  -15.2357 C   0  0  0  0  0  0  0  0  0  0  0  0
   15.1341   -8.4895  -15.4430 C   0  0  1  0  0  0  0  0  0  0  0  0
   14.6771   -8.9625  -16.6742 O   0  0  0  0  0  0  0  0  0  0  0  0
   16.6375   -8.6394  -15.4090 C   0  0  2  0  0  0  0  0  0  0  0  0
   17.0104  -10.0321  -15.6375 N   0  0  0  0  0  0  0  0  0  0  0  0
   17.1529   -8.2115  -14.0953 C   0  0  0  0  0  0  0  0  0  0  0  0
   17.0154   -8.9646  -13.0941 O   0  0  0  0  0  0  0  0  0  0  0  0
   23.4057  -10.3073  -13.8608 O   0  0  0  0  0  0  0  0  0  0  0  0
   22.4961   -9.2799  -13.6170 C   0  0  0  0  0  0  0  0  0  0  0  0
   21.9406   -9.1272  -12.3638 C   0  0  0  0  0  0  0  0  0  0  0  0
   21.0403   -8.1153  -12.1094 C   0  0  0  0  0  0  0  0  0  0  0  0
   20.6488   -7.2028  -13.0968 C   0  0  0  0  0  0  0  0  0  0  0  0
   19.6851   -6.1403  -12.7771 C   0  0  0  0  0  0  0  0  0  0  0  0
   18.2669   -6.5791  -12.5783 C   0  0  2  0  0  0  0  0  0  0  0  0
   17.8029   -6.9654  -13.9315 N   0  0  0  0  0  0  0  0  0  0  0  0
   17.3443   -5.5115  -12.1314 C   0  0  0  0  0  0  0  0  0  0  0  0
   17.0847   -4.5437  -12.8755 O   0  0  0  0  0  0  0  0  0  0  0  0
   21.2173   -7.3756  -14.3411 C   0  0  0  0  0  0  0  0  0  0  0  0
   22.1222   -8.3909  -14.6019 C   0  0  0  0  0  0  0  0  0  0  0  0
   11.0013   -6.3988   -6.3611 N   0  0  0  0  0  0  0  0  0  0  0  0
   10.9932   -4.9628   -6.2969 C   0  0  0  0  0  0  0  0  0  0  0  0
   10.2111   -4.3632   -5.4876 N   0  0  0  0  0  0  0  0  0  0  0  0
   11.9007   -4.2585   -7.1853 N   0  0  0  0  0  0  0  0  0  0  0  0
   12.9110   -5.0012   -7.8408 C   0  0  0  0  0  0  0  0  0  0  0  0
   13.8548   -4.3296   -8.7469 C   0  0  0  0  0  0  0  0  0  0  0  0
   14.8578   -5.1752   -9.4369 C   0  0  0  0  0  0  0  0  0  0  0  0
   15.8464   -4.5422  -10.3150 C   0  0  2  0  0  0  0  0  0  0  0  0
   16.7448   -5.5811  -10.8573 N   0  0  0  0  0  0  0  0  0  0  0  0
   16.6299   -3.4733   -9.6757 C   0  0  0  0  0  0  0  0  0  0  0  0
   16.1519   -2.1512   -9.6877 O   0  0  0  0  0  0  0  0  0  0  0  0
   17.7171   -3.6452   -9.1028 O   0  0  0  0  0  0  0  0  0  0  0  0
  2  4  1  0
  2  1  1  6
  3  2  1  0
  4  5  1  1
  4  6  1  0
  6 15  1  0
  6  7  2  0
  8  9  1  0
  9 10  2  0
 10 11  1  0
 12 13  1  0
 12 11  2  0
 14 13  1  6
 14 16  1  0
 15 14  1  0
 16 17  2  0
 18 12  1  0
 19  9  1  0
 19 18  2  0
 20 21  1  0
 21 22  2  0
 21 23  1  0
 23 24  1  0
 24 25  1  0
 25 26  1  0
 27 26  1  1
 27 29  1  0
 28 27  1  0
 28 16  1  0
 29 30  1  0
 31 29  2  0
M  END
$$$$
