IWE.pdb
     RDKit          3D

 32 33  0  0  1  0  0  0  0  0999 V2000
   28.6637  -18.4613  -15.7569 C   0  0  0  0  0  0  0  0  0  0  0  0
   29.0917  -18.6995  -14.3335 C   0  0  0  0  0  0  0  0  0  0  0  0
   28.0717  -19.4467  -13.5438 C   0  0  2  0  0  0  0  0  0  0  0  0
   27.0378  -18.5146  -12.9831 C   0  0  0  0  0  0  0  0  0  0  0  0
   28.7030  -20.3377  -12.4905 C   0  0  2  0  0  0  0  0  0  0  0  0
   29.7041  -21.2050  -12.9668 N   0  0  0  0  0  0  0  0  0  0  0  0
   27.5950  -20.9532  -11.7228 C   0  0  0  0  0  0  0  0  0  0  0  0
   27.1262  -22.0948  -12.0913 O   0  0  0  0  0  0  0  0  0  0  0  0
   26.9624  -20.4117  -10.5800 N   0  0  0  0  0  0  0  0  0  0  0  0
   25.7906  -21.0277   -9.9787 C   0  0  1  0  0  0  0  0  0  0  0  0
   25.8278  -20.9843   -8.4869 C   0  0  0  0  0  0  0  0  0  0  0  0
   26.7140  -19.9959   -7.8834 C   0  0  0  0  0  0  0  0  0  0  0  0
   27.0379  -18.7013   -8.1930 C   0  0  0  0  0  0  0  0  0  0  0  0
   27.9214  -18.2325   -7.2859 N   0  0  0  0  0  0  0  0  0  0  0  0
   28.1797  -19.1936   -6.3926 C   0  0  0  0  0  0  0  0  0  0  0  0
   29.0066  -19.2068   -5.2879 C   0  0  0  0  0  0  0  0  0  0  0  0
   29.1009  -20.3508   -4.5111 C   0  0  0  0  0  0  0  0  0  0  0  0
   28.3777  -21.4862   -4.8235 C   0  0  0  0  0  0  0  0  0  0  0  0
   27.5680  -21.4261   -5.9320 C   0  0  0  0  0  0  0  0  0  0  0  0
   27.4493  -20.3067   -6.7278 C   0  0  0  0  0  0  0  0  0  0  0  0
   24.5150  -20.5406  -10.5584 C   0  0  0  0  0  0  0  0  0  0  0  0
   24.4961  -19.3158  -10.8994 O   0  0  0  0  0  0  0  0  0  0  0  0
   23.3954  -21.3598  -10.7271 N   0  0  0  0  0  0  0  0  0  0  0  0
   22.2338  -20.8688  -11.5000 C   0  0  1  0  0  0  0  0  0  0  0  0
   22.3476  -21.3610  -12.8943 C   0  0  0  0  0  0  0  0  0  0  0  0
   21.2487  -21.1001  -13.8364 C   0  0  0  0  0  0  0  0  0  0  0  0
   21.2282  -19.7495  -14.3855 C   0  0  0  0  0  0  0  0  0  0  0  0
   22.0905  -19.3284  -15.1782 O   0  0  0  0  0  0  0  0  0  0  0  0
   21.0395  -21.2618  -10.7850 C   0  0  0  0  0  0  0  0  0  0  0  0
   21.0414  -22.3053  -10.0614 O   0  0  0  0  0  0  0  0  0  0  0  0
   20.1913  -18.8875  -14.0112 O   0  0  0  0  0  0  0  0  0  0  0  0
   19.8542  -20.5572  -10.8227 O   0  0  0  0  0  0  0  0  0  0  0  0
  2  1  1  0
  3  2  1  0
  3  4  1  1
  5  3  1  0
  5  6  1  6
  7  5  1  0
  7  8  2  0
  9  7  1  0
 10  9  1  0
 10 21  1  0
 10 11  1  1
 12 11  1  0
 13 12  2  0
 14 13  1  0
 15 14  1  0
 15 20  2  0
 16 15  1  0
 17 16  2  0
 17 18  1  0
 18 19  2  0
 19 20  1  0
 20 12  1  0
 21 23  1  0
 22 21  2  0
 23 24  1  0
 24 29  1  0
 24 25  1  6
 26 25  1  0
 27 28  2  0
 27 26  1  0
 29 30  2  0
 29 32  1  0
 31 27  1  0
M  END
$$$$
