IWE.pdb
     RDKit          3D

 32 33  0  0  1  0  0  0  0  0999 V2000
   26.0331  -22.1314   -9.9071 C   0  0  0  0  0  0  0  0  0  0  0  0
   25.9787  -22.1286  -11.4115 C   0  0  0  0  0  0  0  0  0  0  0  0
   25.4299  -20.8577  -11.9646 C   0  0  2  0  0  0  0  0  0  0  0  0
   24.0816  -20.5548  -11.3792 C   0  0  0  0  0  0  0  0  0  0  0  0
   25.4363  -20.8435  -13.4817 C   0  0  2  0  0  0  0  0  0  0  0  0
   26.5225  -21.5108  -14.0785 N   0  0  0  0  0  0  0  0  0  0  0  0
   25.1989  -19.4428  -13.9030 C   0  0  0  0  0  0  0  0  0  0  0  0
   24.0548  -18.8974  -13.6744 O   0  0  0  0  0  0  0  0  0  0  0  0
   26.1224  -18.5938  -14.5555 N   0  0  0  0  0  0  0  0  0  0  0  0
   25.7701  -17.2492  -14.9825 C   0  0  1  0  0  0  0  0  0  0  0  0
   26.9705  -16.4231  -15.3075 C   0  0  0  0  0  0  0  0  0  0  0  0
   26.7220  -15.1085  -15.8873 C   0  0  0  0  0  0  0  0  0  0  0  0
   26.2288  -13.9319  -15.3880 C   0  0  0  0  0  0  0  0  0  0  0  0
   26.2122  -13.0028  -16.3675 N   0  0  0  0  0  0  0  0  0  0  0  0
   26.6837  -13.5487  -17.4936 C   0  0  0  0  0  0  0  0  0  0  0  0
   26.8622  -13.0165  -18.7542 C   0  0  0  0  0  0  0  0  0  0  0  0
   27.3764  -13.8072  -19.7698 C   0  0  0  0  0  0  0  0  0  0  0  0
   27.7163  -15.1273  -19.5428 C   0  0  0  0  0  0  0  0  0  0  0  0
   27.5211  -15.6133  -18.2725 C   0  0  0  0  0  0  0  0  0  0  0  0
   27.0120  -14.8571  -17.2384 C   0  0  0  0  0  0  0  0  0  0  0  0
   24.7276  -17.2282  -16.0376 C   0  0  0  0  0  0  0  0  0  0  0  0
   24.8367  -18.1182  -16.9390 O   0  0  0  0  0  0  0  0  0  0  0  0
   23.6846  -16.2980  -16.0566 N   0  0  0  0  0  0  0  0  0  0  0  0
   22.6772  -16.3437  -17.1386 C   0  0  1  0  0  0  0  0  0  0  0  0
   21.9745  -17.6483  -17.0796 C   0  0  0  0  0  0  0  0  0  0  0  0
   20.9921  -17.8834  -16.0104 C   0  0  0  0  0  0  0  0  0  0  0  0
   20.2928  -19.1598  -16.0991 C   0  0  0  0  0  0  0  0  0  0  0  0
   20.8462  -20.2514  -15.8725 O   0  0  0  0  0  0  0  0  0  0  0  0
   21.8442  -15.1689  -17.0055 C   0  0  0  0  0  0  0  0  0  0  0  0
   22.0051  -14.3783  -16.0250 O   0  0  0  0  0  0  0  0  0  0  0  0
   18.9377  -19.1608  -16.4487 O   0  0  0  0  0  0  0  0  0  0  0  0
   20.8551  -14.8224  -17.9025 O   0  0  0  0  0  0  0  0  0  0  0  0
  2  1  1  0
  3  2  1  0
  3  4  1  6
  5  3  1  0
  5  6  1  1
  7  5  1  0
  7  8  2  0
  9  7  1  0
 10  9  1  0
 10 21  1  0
 10 11  1  6
 12 11  1  0
 13 12  2  0
 14 13  1  0
 15 14  1  0
 15 20  2  0
 16 15  1  0
 17 16  2  0
 17 18  1  0
 18 19  2  0
 19 20  1  0
 20 12  1  0
 21 23  1  0
 22 21  2  0
 23 24  1  0
 24 29  1  0
 24 25  1  1
 26 25  1  0
 27 28  2  0
 27 26  1  0
 29 30  2  0
 29 32  1  0
 31 27  1  0
M  END
$$$$
