IWE.pdb
     RDKit          3D

 32 33  0  0  1  0  0  0  0  0999 V2000
   27.6050  -18.0078  -16.9778 C   0  0  0  0  0  0  0  0  0  0  0  0
   28.2958  -19.1580  -16.2953 C   0  0  0  0  0  0  0  0  0  0  0  0
   27.5311  -19.6752  -15.1249 C   0  0  2  0  0  0  0  0  0  0  0  0
   27.2706  -18.5838  -14.1283 C   0  0  0  0  0  0  0  0  0  0  0  0
   28.1840  -20.8988  -14.5097 C   0  0  2  0  0  0  0  0  0  0  0  0
   28.4154  -21.9622  -15.4025 N   0  0  0  0  0  0  0  0  0  0  0  0
   27.4319  -21.2158  -13.2729 C   0  0  0  0  0  0  0  0  0  0  0  0
   26.3531  -21.9153  -13.3489 O   0  0  0  0  0  0  0  0  0  0  0  0
   27.7741  -20.8246  -11.9579 N   0  0  0  0  0  0  0  0  0  0  0  0
   26.9024  -21.0800  -10.8225 C   0  0  1  0  0  0  0  0  0  0  0  0
   27.6092  -20.9241   -9.5168 C   0  0  0  0  0  0  0  0  0  0  0  0
   26.7713  -20.8210   -8.3279 C   0  0  0  0  0  0  0  0  0  0  0  0
   25.4519  -21.0886   -8.0740 C   0  0  0  0  0  0  0  0  0  0  0  0
   25.1827  -20.8201   -6.7784 N   0  0  0  0  0  0  0  0  0  0  0  0
   26.2979  -20.3836   -6.1833 C   0  0  0  0  0  0  0  0  0  0  0  0
   26.5360  -19.9841   -4.8841 C   0  0  0  0  0  0  0  0  0  0  0  0
   27.8041  -19.5654   -4.5132 C   0  0  0  0  0  0  0  0  0  0  0  0
   28.8418  -19.5402   -5.4254 C   0  0  0  0  0  0  0  0  0  0  0  0
   28.5575  -19.9467   -6.7068 C   0  0  0  0  0  0  0  0  0  0  0  0
   27.3091  -20.3689   -7.1117 C   0  0  0  0  0  0  0  0  0  0  0  0
   25.6177  -20.3421  -10.8977 C   0  0  0  0  0  0  0  0  0  0  0  0
   25.7079  -19.0740  -10.8808 O   0  0  0  0  0  0  0  0  0  0  0  0
   24.3780  -20.9819  -10.9823 N   0  0  0  0  0  0  0  0  0  0  0  0
   23.1553  -20.1878  -11.2312 C   0  0  1  0  0  0  0  0  0  0  0  0
   23.3213  -19.4451  -12.5041 C   0  0  0  0  0  0  0  0  0  0  0  0
   23.0626  -20.1384  -13.7752 C   0  0  0  0  0  0  0  0  0  0  0  0
   23.1927  -19.3000  -14.9610 C   0  0  0  0  0  0  0  0  0  0  0  0
   24.2027  -19.3093  -15.6884 O   0  0  0  0  0  0  0  0  0  0  0  0
   22.0295  -21.0936  -11.1685 C   0  0  0  0  0  0  0  0  0  0  0  0
   20.8473  -20.6392  -11.0769 O   0  0  0  0  0  0  0  0  0  0  0  0
   22.1347  -18.4501  -15.3026 O   0  0  0  0  0  0  0  0  0  0  0  0
   22.1450  -22.4675  -11.2114 O   0  0  0  0  0  0  0  0  0  0  0  0
  2  1  1  0
  3  2  1  0
  3  4  1  1
  5  3  1  0
  5  6  1  6
  7  5  1  0
  7  8  2  0
  9  7  1  0
 10  9  1  0
 10 21  1  0
 10 11  1  1
 12 11  1  0
 13 12  2  0
 14 13  1  0
 15 14  1  0
 15 20  2  0
 16 15  1  0
 17 16  2  0
 17 18  1  0
 18 19  2  0
 19 20  1  0
 20 12  1  0
 21 23  1  0
 22 21  2  0
 23 24  1  0
 24 29  1  0
 24 25  1  6
 26 25  1  0
 27 28  2  0
 27 26  1  0
 29 30  2  0
 29 32  1  0
 31 27  1  0
M  END
$$$$
