IWE.pdb
     RDKit          3D

 32 33  0  0  1  0  0  0  0  0999 V2000
   26.3805  -18.2491   11.6769 C   0  0  0  0  0  0  0  0  0  0  0  0
   25.8155  -16.9092   12.0659 C   0  0  0  0  0  0  0  0  0  0  0  0
   24.4850  -16.6449   11.4479 C   0  0  2  0  0  0  0  0  0  0  0  0
   24.5671  -16.7017    9.9505 C   0  0  0  0  0  0  0  0  0  0  0  0
   23.8601  -15.3610   11.9610 C   0  0  2  0  0  0  0  0  0  0  0  0
   23.8827  -15.2057   13.3598 N   0  0  0  0  0  0  0  0  0  0  0  0
   22.5441  -15.2228   11.2940 C   0  0  0  0  0  0  0  0  0  0  0  0
   21.5288  -15.8667   11.7560 O   0  0  0  0  0  0  0  0  0  0  0  0
   22.2566  -14.4303   10.1588 N   0  0  0  0  0  0  0  0  0  0  0  0
   20.9454  -14.4245    9.5305 C   0  0  1  0  0  0  0  0  0  0  0  0
   20.6829  -13.1643    8.7743 C   0  0  0  0  0  0  0  0  0  0  0  0
   19.4007  -13.0696    8.0863 C   0  0  0  0  0  0  0  0  0  0  0  0
   18.0974  -13.1737    8.4953 C   0  0  0  0  0  0  0  0  0  0  0  0
   17.2805  -12.9939    7.4354 N   0  0  0  0  0  0  0  0  0  0  0  0
   18.0236  -12.7749    6.3452 C   0  0  0  0  0  0  0  0  0  0  0  0
   17.6633  -12.5402    5.0340 C   0  0  0  0  0  0  0  0  0  0  0  0
   18.6439  -12.3422    4.0746 C   0  0  0  0  0  0  0  0  0  0  0  0
   19.9845  -12.3754    4.4081 C   0  0  0  0  0  0  0  0  0  0  0  0
   20.2952  -12.6123    5.7254 C   0  0  0  0  0  0  0  0  0  0  0  0
   19.3476  -12.8139    6.7063 C   0  0  0  0  0  0  0  0  0  0  0  0
   20.6676  -15.6565    8.7522 C   0  0  0  0  0  0  0  0  0  0  0  0
   21.6007  -16.0436    7.9802 O   0  0  0  0  0  0  0  0  0  0  0  0
   19.4640  -16.3604    8.8481 N   0  0  0  0  0  0  0  0  0  0  0  0
   19.3034  -17.6448    8.1324 C   0  0  1  0  0  0  0  0  0  0  0  0
   19.6313  -18.7521    9.0628 C   0  0  0  0  0  0  0  0  0  0  0  0
   19.4574  -20.1409    8.6106 C   0  0  0  0  0  0  0  0  0  0  0  0
   19.9791  -21.1473    9.5277 C   0  0  0  0  0  0  0  0  0  0  0  0
   20.9146  -21.9127    9.2309 O   0  0  0  0  0  0  0  0  0  0  0  0
   17.9714  -17.6640    7.5692 C   0  0  0  0  0  0  0  0  0  0  0  0
   17.0506  -16.9544    8.0801 O   0  0  0  0  0  0  0  0  0  0  0  0
   19.4088  -21.2564   10.8010 O   0  0  0  0  0  0  0  0  0  0  0  0
   17.6123  -18.4167    6.4704 O   0  0  0  0  0  0  0  0  0  0  0  0
  2  1  1  0
  3  2  1  0
  3  4  1  6
  5  3  1  0
  5  6  1  1
  7  5  1  0
  7  8  2  0
  9  7  1  0
 10  9  1  0
 10 21  1  0
 10 11  1  6
 12 11  1  0
 13 12  2  0
 14 13  1  0
 15 14  1  0
 15 20  2  0
 16 15  1  0
 17 16  2  0
 17 18  1  0
 18 19  2  0
 19 20  1  0
 20 12  1  0
 21 23  1  0
 22 21  2  0
 23 24  1  0
 24 29  1  0
 24 25  1  1
 26 25  1  0
 27 28  2  0
 27 26  1  0
 29 30  2  0
 29 32  1  0
 31 27  1  0
M  END
$$$$
