IWE.pdb
     RDKit          3D

 32 33  0  0  1  0  0  0  0  0999 V2000
   25.6782  -16.1524  -17.3218 C   0  0  0  0  0  0  0  0  0  0  0  0
   26.8794  -16.6563  -16.5673 C   0  0  0  0  0  0  0  0  0  0  0  0
   26.6697  -18.0166  -15.9950 C   0  0  2  0  0  0  0  0  0  0  0  0
   25.3853  -18.0822  -15.2215 C   0  0  0  0  0  0  0  0  0  0  0  0
   27.8691  -18.4935  -15.1976 C   0  0  2  0  0  0  0  0  0  0  0  0
   29.1070  -18.3772  -15.8575 N   0  0  0  0  0  0  0  0  0  0  0  0
   27.5247  -19.8279  -14.6528 C   0  0  0  0  0  0  0  0  0  0  0  0
   27.6652  -20.8710  -15.3951 O   0  0  0  0  0  0  0  0  0  0  0  0
   27.0387  -20.1053  -13.3543 N   0  0  0  0  0  0  0  0  0  0  0  0
   26.7852  -21.4617  -12.8958 C   0  0  1  0  0  0  0  0  0  0  0  0
   27.4113  -21.7398  -11.5693 C   0  0  0  0  0  0  0  0  0  0  0  0
   26.8498  -21.0376  -10.4212 C   0  0  0  0  0  0  0  0  0  0  0  0
   25.6733  -20.3706  -10.2027 C   0  0  0  0  0  0  0  0  0  0  0  0
   25.6533  -19.9029   -8.9362 N   0  0  0  0  0  0  0  0  0  0  0  0
   26.7910  -20.2508   -8.3255 C   0  0  0  0  0  0  0  0  0  0  0  0
   27.2424  -20.0113   -7.0437 C   0  0  0  0  0  0  0  0  0  0  0  0
   28.4832  -20.4871   -6.6497 C   0  0  0  0  0  0  0  0  0  0  0  0
   29.2823  -21.2018   -7.5216 C   0  0  0  0  0  0  0  0  0  0  0  0
   28.7913  -21.4156   -8.7870 C   0  0  0  0  0  0  0  0  0  0  0  0
   27.5630  -20.9575   -9.2139 C   0  0  0  0  0  0  0  0  0  0  0  0
   25.3539  -21.8438  -12.9722 C   0  0  0  0  0  0  0  0  0  0  0  0
   24.5284  -20.8794  -13.0446 O   0  0  0  0  0  0  0  0  0  0  0  0
   24.9210  -23.1727  -12.9666 N   0  0  0  0  0  0  0  0  0  0  0  0
   23.5002  -23.4851  -13.2334 C   0  0  1  0  0  0  0  0  0  0  0  0
   22.6534  -22.5174  -12.4946 C   0  0  0  0  0  0  0  0  0  0  0  0
   21.1926  -22.5775  -12.6553 C   0  0  0  0  0  0  0  0  0  0  0  0
   20.5263  -21.2807  -12.6354 C   0  0  0  0  0  0  0  0  0  0  0  0
   21.0737  -20.2330  -13.0251 O   0  0  0  0  0  0  0  0  0  0  0  0
   23.3244  -23.5138  -14.6688 C   0  0  0  0  0  0  0  0  0  0  0  0
   22.7035  -24.4757  -15.2180 O   0  0  0  0  0  0  0  0  0  0  0  0
   19.2110  -21.2081  -12.1632 O   0  0  0  0  0  0  0  0  0  0  0  0
   23.7899  -22.5332  -15.5199 O   0  0  0  0  0  0  0  0  0  0  0  0
  2  1  1  0
  3  2  1  0
  3  4  1  1
  5  3  1  0
  5  6  1  6
  7  5  1  0
  7  8  2  0
  9  7  1  0
 10  9  1  0
 10 21  1  0
 10 11  1  1
 12 11  1  0
 13 12  2  0
 14 13  1  0
 15 14  1  0
 15 20  2  0
 16 15  1  0
 17 16  2  0
 17 18  1  0
 18 19  2  0
 19 20  1  0
 20 12  1  0
 21 23  1  0
 22 21  2  0
 23 24  1  0
 24 29  1  0
 24 25  1  1
 26 25  1  0
 27 28  2  0
 27 26  1  0
 29 30  2  0
 29 32  1  0
 31 27  1  0
M  END
$$$$
