IWE.pdb
     RDKit          3D

 32 33  0  0  1  0  0  0  0  0999 V2000
   28.4376  -18.1459  -17.1268 C   0  0  0  0  0  0  0  0  0  0  0  0
   28.8257  -19.3998  -16.3900 C   0  0  0  0  0  0  0  0  0  0  0  0
   27.9412  -19.6778  -15.2227 C   0  0  2  0  0  0  0  0  0  0  0  0
   27.9055  -18.5069  -14.2846 C   0  0  0  0  0  0  0  0  0  0  0  0
   28.2962  -20.9818  -14.5330 C   0  0  2  0  0  0  0  0  0  0  0  0
   28.3166  -22.1122  -15.3714 N   0  0  0  0  0  0  0  0  0  0  0  0
   27.4590  -21.0689  -13.3134 C   0  0  0  0  0  0  0  0  0  0  0  0
   26.2199  -21.4042  -13.4179 O   0  0  0  0  0  0  0  0  0  0  0  0
   27.8785  -20.8172  -11.9867 N   0  0  0  0  0  0  0  0  0  0  0  0
   26.9788  -20.9492  -10.8520 C   0  0  1  0  0  0  0  0  0  0  0  0
   27.6747  -20.7411   -9.5476 C   0  0  0  0  0  0  0  0  0  0  0  0
   26.8269  -20.5958   -8.3702 C   0  0  0  0  0  0  0  0  0  0  0  0
   25.4970  -20.8184   -8.1284 C   0  0  0  0  0  0  0  0  0  0  0  0
   25.2216  -20.5241   -6.8398 N   0  0  0  0  0  0  0  0  0  0  0  0
   26.3431  -20.1148   -6.2373 C   0  0  0  0  0  0  0  0  0  0  0  0
   26.5789  -19.7055   -4.9407 C   0  0  0  0  0  0  0  0  0  0  0  0
   27.8553  -19.3218   -4.5603 C   0  0  0  0  0  0  0  0  0  0  0  0
   28.9036  -19.3415   -5.4605 C   0  0  0  0  0  0  0  0  0  0  0  0
   28.6212  -19.7562   -6.7397 C   0  0  0  0  0  0  0  0  0  0  0  0
   27.3649  -20.1444   -7.1538 C   0  0  0  0  0  0  0  0  0  0  0  0
   25.7360  -20.1528  -10.9992 C   0  0  0  0  0  0  0  0  0  0  0  0
   25.8987  -18.9190  -11.2594 O   0  0  0  0  0  0  0  0  0  0  0  0
   24.4593  -20.7053  -10.8644 N   0  0  0  0  0  0  0  0  0  0  0  0
   23.2740  -19.9344  -11.2985 C   0  0  1  0  0  0  0  0  0  0  0  0
   23.3703  -19.6960  -12.7590 C   0  0  0  0  0  0  0  0  0  0  0  0
   22.2329  -19.0801  -13.4593 C   0  0  0  0  0  0  0  0  0  0  0  0
   22.1220  -19.4383  -14.8683 C   0  0  0  0  0  0  0  0  0  0  0  0
   23.1120  -19.6494  -15.5925 O   0  0  0  0  0  0  0  0  0  0  0  0
   22.1014  -20.6524  -10.8497 C   0  0  0  0  0  0  0  0  0  0  0  0
   22.1752  -21.8900  -10.5754 O   0  0  0  0  0  0  0  0  0  0  0  0
   20.8472  -19.5564  -15.4334 O   0  0  0  0  0  0  0  0  0  0  0  0
   20.8619  -20.0710  -10.6814 O   0  0  0  0  0  0  0  0  0  0  0  0
  2  1  1  0
  3  2  1  0
  3  4  1  1
  5  3  1  0
  5  6  1  6
  7  5  1  0
  7  8  2  0
  9  7  1  0
 10  9  1  0
 10 21  1  0
 10 11  1  1
 12 11  1  0
 13 12  2  0
 14 13  1  0
 15 14  1  0
 15 20  2  0
 16 15  1  0
 17 16  2  0
 17 18  1  0
 18 19  2  0
 19 20  1  0
 20 12  1  0
 21 23  1  0
 22 21  2  0
 23 24  1  0
 24 29  1  0
 24 25  1  6
 26 25  1  0
 27 28  2  0
 27 26  1  0
 29 30  2  0
 29 32  1  0
 31 27  1  0
M  END
$$$$
