IWE.pdb
     RDKit          3D

 32 33  0  0  1  0  0  0  0  0999 V2000
   28.0301  -22.6472  -19.3465 C   0  0  0  0  0  0  0  0  0  0  0  0
   28.1794  -21.5174  -18.3630 C   0  0  0  0  0  0  0  0  0  0  0  0
   27.3868  -21.7301  -17.1185 C   0  0  2  0  0  0  0  0  0  0  0  0
   25.9506  -22.0240  -17.4396 C   0  0  0  0  0  0  0  0  0  0  0  0
   27.5543  -20.5903  -16.1312 C   0  0  2  0  0  0  0  0  0  0  0  0
   28.8547  -20.0574  -16.0523 N   0  0  0  0  0  0  0  0  0  0  0  0
   26.9311  -21.0241  -14.8586 C   0  0  0  0  0  0  0  0  0  0  0  0
   25.7631  -21.5663  -14.8774 O   0  0  0  0  0  0  0  0  0  0  0  0
   27.4930  -20.9093  -13.5661 N   0  0  0  0  0  0  0  0  0  0  0  0
   26.7116  -21.1301  -12.3598 C   0  0  1  0  0  0  0  0  0  0  0  0
   27.5413  -21.0449  -11.1216 C   0  0  0  0  0  0  0  0  0  0  0  0
   26.8279  -20.8131   -9.8712 C   0  0  0  0  0  0  0  0  0  0  0  0
   25.5227  -20.9662   -9.4840 C   0  0  0  0  0  0  0  0  0  0  0  0
   25.3956  -20.6065   -8.1888 N   0  0  0  0  0  0  0  0  0  0  0  0
   26.5895  -20.2227   -7.7243 C   0  0  0  0  0  0  0  0  0  0  0  0
   26.9758  -19.7706   -6.4790 C   0  0  0  0  0  0  0  0  0  0  0  0
   28.2993  -19.4285   -6.2499 C   0  0  0  0  0  0  0  0  0  0  0  0
   29.2460  -19.5323   -7.2512 C   0  0  0  0  0  0  0  0  0  0  0  0
   28.8150  -19.9869   -8.4741 C   0  0  0  0  0  0  0  0  0  0  0  0
   27.5077  -20.3358   -8.7386 C   0  0  0  0  0  0  0  0  0  0  0  0
   25.4765  -20.3102  -12.3084 C   0  0  0  0  0  0  0  0  0  0  0  0
   25.6372  -19.0595  -12.4720 O   0  0  0  0  0  0  0  0  0  0  0  0
   24.2089  -20.8587  -12.0952 N   0  0  0  0  0  0  0  0  0  0  0  0
   23.0064  -20.0084  -12.2318 C   0  0  1  0  0  0  0  0  0  0  0  0
   22.9708  -19.4520  -13.6060 C   0  0  0  0  0  0  0  0  0  0  0  0
   22.1987  -20.1548  -14.6420 C   0  0  0  0  0  0  0  0  0  0  0  0
   21.4516  -19.2812  -15.5391 C   0  0  0  0  0  0  0  0  0  0  0  0
   21.5319  -18.0398  -15.4964 O   0  0  0  0  0  0  0  0  0  0  0  0
   21.8646  -20.8058  -11.8415 C   0  0  0  0  0  0  0  0  0  0  0  0
   21.9409  -22.0733  -11.8375 O   0  0  0  0  0  0  0  0  0  0  0  0
   20.6104  -19.8609  -16.4955 O   0  0  0  0  0  0  0  0  0  0  0  0
   20.6539  -20.2741  -11.4488 O   0  0  0  0  0  0  0  0  0  0  0  0
  2  1  1  0
  3  2  1  0
  3  4  1  6
  5  3  1  0
  5  6  1  1
  7  5  1  0
  7  8  2  0
  9  7  1  0
 10  9  1  0
 10 21  1  0
 10 11  1  1
 12 11  1  0
 13 12  2  0
 14 13  1  0
 15 14  1  0
 15 20  2  0
 16 15  1  0
 17 16  2  0
 17 18  1  0
 18 19  2  0
 19 20  1  0
 20 12  1  0
 21 23  1  0
 22 21  2  0
 23 24  1  0
 24 29  1  0
 24 25  1  6
 26 25  1  0
 27 28  2  0
 27 26  1  0
 29 30  2  0
 29 32  1  0
 31 27  1  0
M  END
$$$$
