IWE.pdb
     RDKit          3D

 32 33  0  0  1  0  0  0  0  0999 V2000
   27.7827  -19.0860  -18.7144 C   0  0  0  0  0  0  0  0  0  0  0  0
   28.4130  -20.1279  -17.8294 C   0  0  0  0  0  0  0  0  0  0  0  0
   27.6342  -20.3698  -16.5816 C   0  0  2  0  0  0  0  0  0  0  0  0
   27.3662  -19.0829  -15.8574 C   0  0  0  0  0  0  0  0  0  0  0  0
   28.2767  -21.4251  -15.7010 C   0  0  2  0  0  0  0  0  0  0  0  0
   28.5677  -22.6419  -16.3461 N   0  0  0  0  0  0  0  0  0  0  0  0
   27.4715  -21.5024  -14.4594 C   0  0  0  0  0  0  0  0  0  0  0  0
   26.3018  -22.0402  -14.4950 O   0  0  0  0  0  0  0  0  0  0  0  0
   27.8528  -21.0355  -13.1804 N   0  0  0  0  0  0  0  0  0  0  0  0
   26.9892  -21.1690  -12.0182 C   0  0  1  0  0  0  0  0  0  0  0  0
   27.7108  -20.8982  -10.7396 C   0  0  0  0  0  0  0  0  0  0  0  0
   26.8865  -20.6903   -9.5549 C   0  0  0  0  0  0  0  0  0  0  0  0
   25.5357  -20.7063   -9.3274 C   0  0  0  0  0  0  0  0  0  0  0  0
   25.2992  -20.4530   -8.0224 N   0  0  0  0  0  0  0  0  0  0  0  0
   26.4665  -20.2725   -7.3953 C   0  0  0  0  0  0  0  0  0  0  0  0
   26.7530  -19.9905   -6.0753 C   0  0  0  0  0  0  0  0  0  0  0  0
   28.0712  -19.8466   -5.6716 C   0  0  0  0  0  0  0  0  0  0  0  0
   29.1111  -19.9813   -6.5716 C   0  0  0  0  0  0  0  0  0  0  0  0
   28.7775  -20.2620   -7.8746 C   0  0  0  0  0  0  0  0  0  0  0  0
   27.4788  -20.4115   -8.3123 C   0  0  0  0  0  0  0  0  0  0  0  0
   25.7133  -20.4245  -12.1528 C   0  0  0  0  0  0  0  0  0  0  0  0
   25.8218  -19.1677  -12.3113 O   0  0  0  0  0  0  0  0  0  0  0  0
   24.4626  -21.0469  -12.1109 N   0  0  0  0  0  0  0  0  0  0  0  0
   23.2376  -20.2545  -12.3543 C   0  0  1  0  0  0  0  0  0  0  0  0
   22.8460  -20.4088  -13.7764 C   0  0  0  0  0  0  0  0  0  0  0  0
   23.0219  -19.2725  -14.6935 C   0  0  0  0  0  0  0  0  0  0  0  0
   22.5704  -19.5186  -16.0579 C   0  0  0  0  0  0  0  0  0  0  0  0
   22.0151  -20.5767  -16.4061 O   0  0  0  0  0  0  0  0  0  0  0  0
   22.2533  -20.6665  -11.3779 C   0  0  0  0  0  0  0  0  0  0  0  0
   22.3857  -21.7691  -10.7621 O   0  0  0  0  0  0  0  0  0  0  0  0
   22.7631  -18.5208  -17.0200 O   0  0  0  0  0  0  0  0  0  0  0  0
   21.1424  -19.9199  -11.0443 O   0  0  0  0  0  0  0  0  0  0  0  0
  2  1  1  0
  3  2  1  0
  3  4  1  1
  5  3  1  0
  5  6  1  6
  7  5  1  0
  7  8  2  0
  9  7  1  0
 10  9  1  0
 10 21  1  0
 10 11  1  1
 12 11  1  0
 13 12  2  0
 14 13  1  0
 15 14  1  0
 15 20  2  0
 16 15  1  0
 17 16  2  0
 17 18  1  0
 18 19  2  0
 19 20  1  0
 20 12  1  0
 21 23  1  0
 22 21  2  0
 23 24  1  0
 24 29  1  0
 24 25  1  6
 26 25  1  0
 27 28  2  0
 27 26  1  0
 29 30  2  0
 29 32  1  0
 31 27  1  0
M  END
$$$$
