IWE.pdb
     RDKit          3D

 32 33  0  0  1  0  0  0  0  0999 V2000
   26.8267  -15.8549  -19.5810 C   0  0  0  0  0  0  0  0  0  0  0  0
   26.9303  -15.9834  -18.0848 C   0  0  0  0  0  0  0  0  0  0  0  0
   26.3593  -17.2632  -17.5767 C   0  0  2  0  0  0  0  0  0  0  0  0
   24.9513  -17.4528  -18.0600 C   0  0  0  0  0  0  0  0  0  0  0  0
   26.4938  -17.3925  -16.0710 C   0  0  2  0  0  0  0  0  0  0  0  0
   27.7638  -17.0696  -15.5570 N   0  0  0  0  0  0  0  0  0  0  0  0
   25.9380  -18.7146  -15.6981 C   0  0  0  0  0  0  0  0  0  0  0  0
   26.6638  -19.7693  -15.8374 O   0  0  0  0  0  0  0  0  0  0  0  0
   24.6459  -18.9676  -15.1825 N   0  0  0  0  0  0  0  0  0  0  0  0
   24.4309  -19.7846  -13.9990 C   0  0  1  0  0  0  0  0  0  0  0  0
   25.3655  -19.4341  -12.8888 C   0  0  0  0  0  0  0  0  0  0  0  0
   25.7542  -20.5183  -11.9945 C   0  0  0  0  0  0  0  0  0  0  0  0
   26.1962  -21.7991  -12.1966 C   0  0  0  0  0  0  0  0  0  0  0  0
   26.4240  -22.3869  -11.0026 N   0  0  0  0  0  0  0  0  0  0  0  0
   26.1401  -21.5167  -10.0276 C   0  0  0  0  0  0  0  0  0  0  0  0
   26.2077  -21.6388   -8.6548 C   0  0  0  0  0  0  0  0  0  0  0  0
   25.8494  -20.5693   -7.8492 C   0  0  0  0  0  0  0  0  0  0  0  0
   25.4231  -19.3749   -8.3981 C   0  0  0  0  0  0  0  0  0  0  0  0
   25.3720  -19.3000   -9.7691 C   0  0  0  0  0  0  0  0  0  0  0  0
   25.7200  -20.3424  -10.6015 C   0  0  0  0  0  0  0  0  0  0  0  0
   23.0078  -19.8453  -13.5847 C   0  0  0  0  0  0  0  0  0  0  0  0
   22.4727  -18.7319  -13.2838 O   0  0  0  0  0  0  0  0  0  0  0  0
   22.2850  -21.0398  -13.5229 N   0  0  0  0  0  0  0  0  0  0  0  0
   20.8622  -21.0192  -13.1191 C   0  0  1  0  0  0  0  0  0  0  0  0
   20.3188  -22.3953  -13.2207 C   0  0  0  0  0  0  0  0  0  0  0  0
   18.9030  -22.6303  -12.8989 C   0  0  0  0  0  0  0  0  0  0  0  0
   18.4658  -24.0121  -13.0589 C   0  0  0  0  0  0  0  0  0  0  0  0
   19.2298  -24.9257  -13.4206 O   0  0  0  0  0  0  0  0  0  0  0  0
   20.7912  -20.4050  -11.8116 C   0  0  0  0  0  0  0  0  0  0  0  0
   21.7426  -20.5516  -10.9835 O   0  0  0  0  0  0  0  0  0  0  0  0
   17.1299  -24.3299  -12.7891 O   0  0  0  0  0  0  0  0  0  0  0  0
   19.7315  -19.6339  -11.3812 O   0  0  0  0  0  0  0  0  0  0  0  0
  2  1  1  0
  3  2  1  0
  3  4  1  1
  5  3  1  0
  5  6  1  6
  7  5  1  0
  7  8  2  0
  9  7  1  0
 10  9  1  0
 10 21  1  0
 10 11  1  1
 12 11  1  0
 13 12  2  0
 14 13  1  0
 15 14  1  0
 15 20  2  0
 16 15  1  0
 17 16  2  0
 17 18  1  0
 18 19  2  0
 19 20  1  0
 20 12  1  0
 21 23  1  0
 22 21  2  0
 23 24  1  0
 24 29  1  0
 24 25  1  1
 26 25  1  0
 27 28  2  0
 27 26  1  0
 29 30  2  0
 29 32  1  0
 31 27  1  0
M  END
$$$$
