IWE.pdb
     RDKit          3D

 32 33  0  0  1  0  0  0  0  0999 V2000
   29.3290  -20.8514  -17.8751 C   0  0  0  0  0  0  0  0  0  0  0  0
   28.7196  -19.8745  -16.9053 C   0  0  0  0  0  0  0  0  0  0  0  0
   28.1881  -20.5365  -15.6800 C   0  0  2  0  0  0  0  0  0  0  0  0
   27.2589  -21.6599  -16.0362 C   0  0  0  0  0  0  0  0  0  0  0  0
   27.5752  -19.5420  -14.7119 C   0  0  2  0  0  0  0  0  0  0  0  0
   28.3439  -18.3858  -14.4802 N   0  0  0  0  0  0  0  0  0  0  0  0
   27.1435  -20.3080  -13.5191 C   0  0  0  0  0  0  0  0  0  0  0  0
   26.2351  -21.2127  -13.6415 O   0  0  0  0  0  0  0  0  0  0  0  0
   27.6339  -20.1576  -12.2014 N   0  0  0  0  0  0  0  0  0  0  0  0
   26.9468  -20.7212  -11.0505 C   0  0  1  0  0  0  0  0  0  0  0  0
   27.7727  -20.6584   -9.8084 C   0  0  0  0  0  0  0  0  0  0  0  0
   27.0502  -20.6632   -8.5418 C   0  0  0  0  0  0  0  0  0  0  0  0
   25.7987  -21.0765   -8.1679 C   0  0  0  0  0  0  0  0  0  0  0  0
   25.6316  -20.8562   -6.8463 N   0  0  0  0  0  0  0  0  0  0  0  0
   26.7469  -20.3086   -6.3516 C   0  0  0  0  0  0  0  0  0  0  0  0
   27.0680  -19.9028   -5.0724 C   0  0  0  0  0  0  0  0  0  0  0  0
   28.3143  -19.3532   -4.8161 C   0  0  0  0  0  0  0  0  0  0  0  0
   29.2480  -19.2029   -5.8237 C   0  0  0  0  0  0  0  0  0  0  0  0
   28.8837  -19.6209   -7.0808 C   0  0  0  0  0  0  0  0  0  0  0  0
   27.6540  -20.1713   -7.3730 C   0  0  0  0  0  0  0  0  0  0  0  0
   25.5704  -20.1949  -10.8794 C   0  0  0  0  0  0  0  0  0  0  0  0
   25.4755  -18.9356  -10.7320 O   0  0  0  0  0  0  0  0  0  0  0  0
   24.4384  -21.0146  -10.8778 N   0  0  0  0  0  0  0  0  0  0  0  0
   23.1372  -20.4736  -11.3268 C   0  0  1  0  0  0  0  0  0  0  0  0
   23.1662  -20.3278  -12.8024 C   0  0  0  0  0  0  0  0  0  0  0  0
   21.9362  -19.9337  -13.5060 C   0  0  0  0  0  0  0  0  0  0  0  0
   22.1400  -18.9999  -14.6072 C   0  0  0  0  0  0  0  0  0  0  0  0
   23.2677  -18.7037  -15.0429 O   0  0  0  0  0  0  0  0  0  0  0  0
   22.1030  -21.3338  -10.7954 C   0  0  0  0  0  0  0  0  0  0  0  0
   22.2418  -22.5956  -10.8269 O   0  0  0  0  0  0  0  0  0  0  0  0
   21.0200  -18.4133  -15.2070 O   0  0  0  0  0  0  0  0  0  0  0  0
   20.9352  -20.8704  -10.2260 O   0  0  0  0  0  0  0  0  0  0  0  0
  2  1  1  0
  3  2  1  0
  3  4  1  6
  5  3  1  0
  5  6  1  1
  7  5  1  0
  7  8  2  0
  9  7  1  0
 10  9  1  0
 10 21  1  0
 10 11  1  1
 12 11  1  0
 13 12  2  0
 14 13  1  0
 15 14  1  0
 15 20  2  0
 16 15  1  0
 17 16  2  0
 17 18  1  0
 18 19  2  0
 19 20  1  0
 20 12  1  0
 21 23  1  0
 22 21  2  0
 23 24  1  0
 24 29  1  0
 24 25  1  6
 26 25  1  0
 27 28  2  0
 27 26  1  0
 29 30  2  0
 29 32  1  0
 31 27  1  0
M  END
$$$$
