IWE.pdb
     RDKit          3D

 32 33  0  0  1  0  0  0  0  0999 V2000
   28.5332  -17.4790  -16.8955 C   0  0  0  0  0  0  0  0  0  0  0  0
   29.0767  -18.5748  -16.0182 C   0  0  0  0  0  0  0  0  0  0  0  0
   28.0090  -19.2868  -15.2597 C   0  0  2  0  0  0  0  0  0  0  0  0
   27.1949  -18.3241  -14.4458 C   0  0  0  0  0  0  0  0  0  0  0  0
   28.5596  -20.4399  -14.4417 C   0  0  2  0  0  0  0  0  0  0  0  0
   29.3895  -21.3293  -15.1500 N   0  0  0  0  0  0  0  0  0  0  0  0
   27.4184  -21.0329  -13.7055 C   0  0  0  0  0  0  0  0  0  0  0  0
   26.6653  -21.8968  -14.2931 O   0  0  0  0  0  0  0  0  0  0  0  0
   27.0410  -20.7509  -12.3723 N   0  0  0  0  0  0  0  0  0  0  0  0
   25.9849  -21.4855  -11.6947 C   0  0  1  0  0  0  0  0  0  0  0  0
   26.3268  -21.7919  -10.2741 C   0  0  0  0  0  0  0  0  0  0  0  0
   26.4892  -20.6515   -9.3801 C   0  0  0  0  0  0  0  0  0  0  0  0
   25.8106  -19.4726   -9.2173 C   0  0  0  0  0  0  0  0  0  0  0  0
   26.3840  -18.7603   -8.2239 N   0  0  0  0  0  0  0  0  0  0  0  0
   27.4211  -19.4497   -7.7363 C   0  0  0  0  0  0  0  0  0  0  0  0
   28.3148  -19.1518   -6.7280 C   0  0  0  0  0  0  0  0  0  0  0  0
   29.3205  -20.0512   -6.4104 C   0  0  0  0  0  0  0  0  0  0  0  0
   29.4461  -21.2488   -7.0885 C   0  0  0  0  0  0  0  0  0  0  0  0
   28.5337  -21.5019   -8.0841 C   0  0  0  0  0  0  0  0  0  0  0  0
   27.5213  -20.6315   -8.4277 C   0  0  0  0  0  0  0  0  0  0  0  0
   24.6458  -20.8711  -11.8673 C   0  0  0  0  0  0  0  0  0  0  0  0
   24.6021  -19.6047  -11.7628 O   0  0  0  0  0  0  0  0  0  0  0  0
   23.4946  -21.6193  -12.1285 N   0  0  0  0  0  0  0  0  0  0  0  0
   22.2162  -20.9299  -12.4079 C   0  0  1  0  0  0  0  0  0  0  0  0
   21.4826  -21.6911  -13.4480 C   0  0  0  0  0  0  0  0  0  0  0  0
   22.0763  -21.8266  -14.7868 C   0  0  0  0  0  0  0  0  0  0  0  0
   21.3098  -22.6559  -15.7092 C   0  0  0  0  0  0  0  0  0  0  0  0
   21.6897  -22.9082  -16.8672 O   0  0  0  0  0  0  0  0  0  0  0  0
   21.5306  -20.7592  -11.1459 C   0  0  0  0  0  0  0  0  0  0  0  0
   21.9075  -21.4065  -10.1205 O   0  0  0  0  0  0  0  0  0  0  0  0
   20.0953  -23.1986  -15.2745 O   0  0  0  0  0  0  0  0  0  0  0  0
   20.4621  -19.9067  -10.9608 O   0  0  0  0  0  0  0  0  0  0  0  0
  2  1  1  0
  3  2  1  0
  3  4  1  1
  5  3  1  0
  5  6  1  6
  7  5  1  0
  7  8  2  0
  9  7  1  0
 10  9  1  0
 10 21  1  0
 10 11  1  1
 12 11  1  0
 13 12  2  0
 14 13  1  0
 15 14  1  0
 15 20  2  0
 16 15  1  0
 17 16  2  0
 17 18  1  0
 18 19  2  0
 19 20  1  0
 20 12  1  0
 21 23  1  0
 22 21  2  0
 23 24  1  0
 24 29  1  0
 24 25  1  6
 26 25  1  0
 27 28  2  0
 27 26  1  0
 29 30  2  0
 29 32  1  0
 31 27  1  0
M  END
$$$$
