DRA.pdb
     RDKit          3D

 25 24  0  0  1  0  0  0  0  0999 V2000
   19.1318  -24.7814   -6.4060 N   0  0  0  0  0  0  0  0  0  0  0  0
   18.3352  -25.2491   -7.5189 C   0  0  1  0  0  0  0  0  0  0  0  0
   16.9040  -25.5398   -7.0867 C   0  0  0  0  0  0  0  0  0  0  0  0
   16.8699  -26.6524   -6.1063 C   0  0  0  0  0  0  0  0  0  0  0  0
   16.2709  -26.5106   -5.0043 O   0  0  0  0  0  0  0  0  0  0  0  0
   18.3693  -24.2888   -8.6487 C   0  0  0  0  0  0  0  0  0  0  0  0
   18.1766  -23.0556   -8.5003 O   0  0  0  0  0  0  0  0  0  0  0  0
   17.4727  -27.8739   -6.3319 O   0  0  0  0  0  0  0  0  0  0  0  0
   24.4603  -25.0741  -14.3502 N   0  0  0  0  0  0  0  0  0  0  0  0
   23.0799  -25.2364  -14.6347 C   0  0  0  0  0  0  0  0  0  0  0  0
   22.6973  -25.9982  -15.6233 N   0  0  0  0  0  0  0  0  0  0  0  0
   22.0625  -24.6027  -13.8889 N   0  0  0  0  0  0  0  0  0  0  0  0
   20.6764  -24.7241  -14.2955 C   0  0  0  0  0  0  0  0  0  0  0  0
   19.7440  -23.9638  -13.4085 C   0  0  0  0  0  0  0  0  0  0  0  0
   19.6450  -24.6923  -12.0843 C   0  0  0  0  0  0  0  0  0  0  0  0
   18.7487  -23.9479  -11.1210 C   0  0  2  0  0  0  0  0  0  0  0  0
   18.6258  -24.7665   -9.9352 N   0  0  0  0  0  0  0  0  0  0  0  0
   17.4881  -23.5246  -11.6913 C   0  0  0  0  0  0  0  0  0  0  0  0
   16.5968  -24.3595  -11.9454 O   0  0  0  0  0  0  0  0  0  0  0  0
   21.7181  -26.1393  -15.8766 C   0  0  0  0  0  0  0  0  0  0  0  0
   15.7700  -20.2707  -12.1326 C   0  0  1  0  0  0  0  0  0  0  0  0
   15.9727  -21.6988  -12.5571 N   0  0  0  0  0  0  0  0  0  0  0  0
   17.2199  -22.1686  -11.9790 C   0  0  0  0  0  0  0  0  0  0  0  0
   15.8873  -21.9027  -13.9953 O   0  0  0  0  0  0  0  0  0  0  0  0
   14.6608  -22.0110  -14.6137 O   0  0  0  0  0  0  0  0  0  0  0  0
  2  1  1  1
  2  3  1  0
  3  4  1  0
  4  8  1  0
  5  4  2  0
  6  2  1  0
  7  6  2  0
 10 12  1  0
 10  9  1  0
 11 10  2  0
 13 14  1  0
 13 12  1  0
 15 14  1  0
 16 15  1  6
 16 17  1  0
 17  6  1  0
 18 16  1  0
 18 19  2  0
 21 20  1  1
 21 22  1  0
 22 18  1  0
 23 21  1  0
 24 23  1  0
 25 23  2  0
M  END
$$$$
