DRA.pdb
     RDKit          3D

 25 24  0  0  1  0  0  0  0  0999 V2000
   20.0829   -9.8339  -19.6657 N   0  0  0  0  0  0  0  0  0  0  0  0
   21.3531   -9.5518  -19.0343 C   0  0  1  0  0  0  0  0  0  0  0  0
   21.9859   -8.2921  -19.6108 C   0  0  0  0  0  0  0  0  0  0  0  0
   22.2596   -8.4605  -21.0589 C   0  0  0  0  0  0  0  0  0  0  0  0
   22.3668   -9.6161  -21.5555 O   0  0  0  0  0  0  0  0  0  0  0  0
   21.2141   -9.4555  -17.5608 C   0  0  0  0  0  0  0  0  0  0  0  0
   20.1267   -9.1745  -16.9963 O   0  0  0  0  0  0  0  0  0  0  0  0
   22.4091   -7.3965  -21.9259 O   0  0  0  0  0  0  0  0  0  0  0  0
   21.5969  -14.8265  -15.2622 N   0  0  0  0  0  0  0  0  0  0  0  0
   22.7669  -15.0799  -16.0237 C   0  0  0  0  0  0  0  0  0  0  0  0
   22.7915  -16.0607  -16.8848 N   0  0  0  0  0  0  0  0  0  0  0  0
   23.9440  -14.3102  -15.9020 N   0  0  0  0  0  0  0  0  0  0  0  0
   23.9472  -13.1039  -15.0982 C   0  0  0  0  0  0  0  0  0  0  0  0
   23.0378  -12.0469  -15.6366 C   0  0  0  0  0  0  0  0  0  0  0  0
   23.2839  -10.7674  -14.8646 C   0  0  0  0  0  0  0  0  0  0  0  0
   22.3422   -9.6731  -15.3130 C   0  0  2  0  0  0  0  0  0  0  0  0
   22.3337   -9.6852  -16.7591 N   0  0  0  0  0  0  0  0  0  0  0  0
   22.6149   -8.3793  -14.7254 C   0  0  0  0  0  0  0  0  0  0  0  0
   22.6845   -8.2491  -13.4868 O   0  0  0  0  0  0  0  0  0  0  0  0
   23.6224  -16.3162  -17.4207 C   0  0  0  0  0  0  0  0  0  0  0  0
   23.5964   -5.0433  -16.0993 C   0  0  2  0  0  0  0  0  0  0  0  0
   23.1106   -5.9152  -14.9748 N   0  0  0  0  0  0  0  0  0  0  0  0
   22.8104   -7.2281  -15.5193 C   0  0  0  0  0  0  0  0  0  0  0  0
   22.0121   -5.3377  -14.2152 O   0  0  0  0  0  0  0  0  0  0  0  0
   20.7437   -5.8679  -14.3086 O   0  0  0  0  0  0  0  0  0  0  0  0
  2  1  1  6
  2  3  1  0
  3  4  1  0
  4  8  1  0
  5  4  2  0
  6  2  1  0
  7  6  2  0
 10 12  1  0
 10  9  1  0
 11 10  2  0
 13 14  1  0
 13 12  1  0
 15 14  1  0
 16 15  1  6
 16 17  1  0
 17  6  1  0
 18 16  1  0
 18 19  2  0
 21 20  1  1
 21 22  1  0
 22 18  1  0
 23 21  1  0
 24 23  1  0
 25 23  2  0
M  END
$$$$
