DRA.pdb
     RDKit          3D

 25 24  0  0  1  0  0  0  0  0999 V2000
   20.4967  -12.3531  -15.7962 N   0  0  0  0  0  0  0  0  0  0  0  0
   19.6754  -11.2299  -16.1907 C   0  0  1  0  0  0  0  0  0  0  0  0
   18.2839  -11.3246  -15.5789 C   0  0  0  0  0  0  0  0  0  0  0  0
   17.6445  -12.6155  -15.9320 C   0  0  0  0  0  0  0  0  0  0  0  0
   16.6623  -13.0423  -15.2638 O   0  0  0  0  0  0  0  0  0  0  0  0
   20.3242   -9.9405  -15.8497 C   0  0  0  0  0  0  0  0  0  0  0  0
   19.9114   -9.1934  -14.9270 O   0  0  0  0  0  0  0  0  0  0  0  0
   18.0712  -13.4054  -16.9810 O   0  0  0  0  0  0  0  0  0  0  0  0
   28.2958  -10.9014  -17.0305 N   0  0  0  0  0  0  0  0  0  0  0  0
   27.5126  -11.5374  -16.0330 C   0  0  0  0  0  0  0  0  0  0  0  0
   27.9561  -12.6080  -15.4320 N   0  0  0  0  0  0  0  0  0  0  0  0
   26.2413  -11.0668  -15.6389 N   0  0  0  0  0  0  0  0  0  0  0  0
   25.5889  -10.0121  -16.3892 C   0  0  0  0  0  0  0  0  0  0  0  0
   24.2282   -9.6845  -15.8644 C   0  0  0  0  0  0  0  0  0  0  0  0
   23.6272   -8.6035  -16.7385 C   0  0  0  0  0  0  0  0  0  0  0  0
   22.1956   -8.3201  -16.3443 C   0  0  2  0  0  0  0  0  0  0  0  0
   21.4416   -9.5314  -16.5798 N   0  0  0  0  0  0  0  0  0  0  0  0
   21.6355   -7.1357  -16.9584 C   0  0  0  0  0  0  0  0  0  0  0  0
   21.4862   -7.0749  -18.1953 O   0  0  0  0  0  0  0  0  0  0  0  0
   27.4169  -13.1244  -14.7353 C   0  0  0  0  0  0  0  0  0  0  0  0
   19.4473   -5.1686  -17.5315 C   0  0  2  0  0  0  0  0  0  0  0  0
   20.6890   -4.8018  -16.7670 N   0  0  0  0  0  0  0  0  0  0  0  0
   21.2408   -6.0168  -16.1930 C   0  0  0  0  0  0  0  0  0  0  0  0
   20.4876   -3.7399  -15.7927 O   0  0  0  0  0  0  0  0  0  0  0  0
   20.2046   -2.4566  -16.2070 O   0  0  0  0  0  0  0  0  0  0  0  0
  2  1  1  1
  2  3  1  0
  3  4  1  0
  4  8  1  0
  5  4  2  0
  6  2  1  0
  7  6  2  0
 10 12  1  0
 10  9  1  0
 11 10  2  0
 13 14  1  0
 13 12  1  0
 15 14  1  0
 16 15  1  6
 16 17  1  0
 17  6  1  0
 18 16  1  0
 18 19  2  0
 21 20  1  6
 21 22  1  0
 22 18  1  0
 23 21  1  0
 24 23  1  0
 25 23  2  0
M  END
$$$$
