DRA.pdb
     RDKit          3D

 25 24  0  0  1  0  0  0  0  0999 V2000
   17.0843  -10.4677  -14.6077 N   0  0  0  0  0  0  0  0  0  0  0  0
   17.8368   -9.3659  -14.0496 C   0  0  1  0  0  0  0  0  0  0  0  0
   18.8860   -8.8629  -15.0324 C   0  0  0  0  0  0  0  0  0  0  0  0
   19.8792   -9.9248  -15.3255 C   0  0  0  0  0  0  0  0  0  0  0  0
   20.1121  -10.8294  -14.4764 O   0  0  0  0  0  0  0  0  0  0  0  0
   16.9416   -8.2671  -13.6124 C   0  0  0  0  0  0  0  0  0  0  0  0
   16.0041   -7.8281  -14.3253 O   0  0  0  0  0  0  0  0  0  0  0  0
   20.5881   -9.9874  -16.5087 O   0  0  0  0  0  0  0  0  0  0  0  0
   13.2073   -6.8879   -5.9097 N   0  0  0  0  0  0  0  0  0  0  0  0
   13.2994   -7.6865   -7.0787 C   0  0  0  0  0  0  0  0  0  0  0  0
   12.8847   -8.9241   -7.0640 N   0  0  0  0  0  0  0  0  0  0  0  0
   13.8300   -7.2075   -8.2961 N   0  0  0  0  0  0  0  0  0  0  0  0
   14.9589   -6.2982   -8.2924 C   0  0  0  0  0  0  0  0  0  0  0  0
   15.3344   -5.8357   -9.6633 C   0  0  0  0  0  0  0  0  0  0  0  0
   16.0684   -6.9612  -10.3621 C   0  0  0  0  0  0  0  0  0  0  0  0
   16.3621   -6.6062  -11.8019 C   0  0  2  0  0  0  0  0  0  0  0  0
   17.1418   -7.6903  -12.3569 N   0  0  0  0  0  0  0  0  0  0  0  0
   16.9455   -5.2943  -11.9814 C   0  0  0  0  0  0  0  0  0  0  0  0
   18.0276   -5.0030  -11.4337 O   0  0  0  0  0  0  0  0  0  0  0  0
   12.8627   -9.5184   -7.8942 C   0  0  0  0  0  0  0  0  0  0  0  0
   16.6549   -2.6255  -14.4449 C   0  0  1  0  0  0  0  0  0  0  0  0
   16.8836   -2.9852  -13.0030 N   0  0  0  0  0  0  0  0  0  0  0  0
   16.3220   -4.3050  -12.7727 C   0  0  0  0  0  0  0  0  0  0  0  0
   16.4078   -1.9809  -12.0637 O   0  0  0  0  0  0  0  0  0  0  0  0
   17.1753   -0.8729  -11.7777 O   0  0  0  0  0  0  0  0  0  0  0  0
  2  1  1  6
  2  3  1  0
  3  4  1  0
  4  8  1  0
  5  4  2  0
  6  2  1  0
  7  6  2  0
 10 12  1  0
 10  9  1  0
 11 10  2  0
 13 14  1  0
 13 12  1  0
 15 14  1  0
 16 15  1  1
 16 17  1  0
 17  6  1  0
 18 16  1  0
 18 19  2  0
 21 20  1  6
 21 22  1  0
 22 18  1  0
 23 21  1  0
 24 23  1  0
 25 23  2  0
M  END
$$$$
