DRA.pdb
     RDKit          3D

 25 24  0  0  1  0  0  0  0  0999 V2000
   17.2791  -10.5155  -14.8979 N   0  0  0  0  0  0  0  0  0  0  0  0
   17.9898   -9.7090  -15.8654 C   0  0  1  0  0  0  0  0  0  0  0  0
   17.1186   -8.5696  -16.3775 C   0  0  0  0  0  0  0  0  0  0  0  0
   16.0257   -9.0915  -17.2337 C   0  0  0  0  0  0  0  0  0  0  0  0
   15.9552  -10.3248  -17.4934 O   0  0  0  0  0  0  0  0  0  0  0  0
   19.2668   -9.1991  -15.3094 C   0  0  0  0  0  0  0  0  0  0  0  0
   19.3889   -8.8263  -14.1152 O   0  0  0  0  0  0  0  0  0  0  0  0
   15.0483   -8.2854  -17.7825 O   0  0  0  0  0  0  0  0  0  0  0  0
   26.9682  -12.7623  -16.5326 N   0  0  0  0  0  0  0  0  0  0  0  0
   27.3077  -11.4426  -16.1376 C   0  0  0  0  0  0  0  0  0  0  0  0
   28.5590  -11.0761  -16.0755 N   0  0  0  0  0  0  0  0  0  0  0  0
   26.3422  -10.4707  -15.7965 N   0  0  0  0  0  0  0  0  0  0  0  0
   24.9537  -10.6601  -16.1672 C   0  0  0  0  0  0  0  0  0  0  0  0
   24.0825   -9.5188  -15.7515 C   0  0  0  0  0  0  0  0  0  0  0  0
   22.6590   -9.8306  -16.1639 C   0  0  0  0  0  0  0  0  0  0  0  0
   21.7139   -8.7365  -15.7221 C   0  0  2  0  0  0  0  0  0  0  0  0
   20.3859   -9.1266  -16.1410 N   0  0  0  0  0  0  0  0  0  0  0  0
   22.1087   -7.4085  -16.1393 C   0  0  0  0  0  0  0  0  0  0  0  0
   22.2182   -7.1325  -17.3508 O   0  0  0  0  0  0  0  0  0  0  0  0
   28.8539  -10.1125  -15.9100 C   0  0  0  0  0  0  0  0  0  0  0  0
   22.4227   -4.1155  -14.4489 C   0  0  1  0  0  0  0  0  0  0  0  0
   22.7853   -5.0408  -15.5772 N   0  0  0  0  0  0  0  0  0  0  0  0
   22.3821   -6.3858  -15.2049 C   0  0  0  0  0  0  0  0  0  0  0  0
   24.1772   -4.9465  -15.9909 O   0  0  0  0  0  0  0  0  0  0  0  0
   25.0058   -6.0444  -15.9097 O   0  0  0  0  0  0  0  0  0  0  0  0
  2  1  1  1
  2  3  1  0
  3  4  1  0
  4  8  1  0
  5  4  2  0
  6  2  1  0
  7  6  2  0
 10 12  1  0
 10  9  1  0
 11 10  2  0
 13 14  1  0
 13 12  1  0
 15 14  1  0
 16 15  1  6
 16 17  1  0
 17  6  1  0
 18 16  1  0
 18 19  2  0
 21 20  1  6
 21 22  1  0
 22 18  1  0
 23 21  1  0
 24 23  1  0
 25 23  2  0
M  END
$$$$
