DRA.pdb
     RDKit          3D

 25 24  0  0  1  0  0  0  0  0999 V2000
   15.7619  -10.8010  -13.4724 N   0  0  0  0  0  0  0  0  0  0  0  0
   16.1499   -9.7004  -14.3267 C   0  0  1  0  0  0  0  0  0  0  0  0
   15.1440   -8.5597  -14.2448 C   0  0  0  0  0  0  0  0  0  0  0  0
   13.8052   -9.0100  -14.6973 C   0  0  0  0  0  0  0  0  0  0  0  0
   13.6868   -9.6899  -15.7543 O   0  0  0  0  0  0  0  0  0  0  0  0
   17.5208   -9.2298  -14.0120 C   0  0  0  0  0  0  0  0  0  0  0  0
   17.8961   -8.9585  -12.8434 O   0  0  0  0  0  0  0  0  0  0  0  0
   12.6420   -8.7222  -14.0114 O   0  0  0  0  0  0  0  0  0  0  0  0
   22.2597  -11.9070  -20.0250 N   0  0  0  0  0  0  0  0  0  0  0  0
   21.2666  -10.9080  -20.1942 C   0  0  0  0  0  0  0  0  0  0  0  0
   20.9703  -10.4708  -21.3879 N   0  0  0  0  0  0  0  0  0  0  0  0
   20.5571  -10.3399  -19.1140 N   0  0  0  0  0  0  0  0  0  0  0  0
   20.6673  -10.9123  -17.7869 C   0  0  0  0  0  0  0  0  0  0  0  0
   19.7813  -10.2378  -16.7898 C   0  0  0  0  0  0  0  0  0  0  0  0
   20.6202   -9.2655  -15.9869 C   0  0  0  0  0  0  0  0  0  0  0  0
   19.7978   -8.6044  -14.9043 C   0  0  2  0  0  0  0  0  0  0  0  0
   18.4398   -9.0789  -15.0520 N   0  0  0  0  0  0  0  0  0  0  0  0
   19.9285   -7.1642  -14.8573 C   0  0  0  0  0  0  0  0  0  0  0  0
   19.1504   -6.4370  -15.5065 O   0  0  0  0  0  0  0  0  0  0  0  0
   20.2586   -9.7600  -21.5645 C   0  0  0  0  0  0  0  0  0  0  0  0
   21.7530   -4.7406  -12.7308 C   0  0  1  0  0  0  0  0  0  0  0  0
   21.1347   -5.0953  -14.0546 N   0  0  0  0  0  0  0  0  0  0  0  0
   20.9281   -6.5329  -14.0854 C   0  0  0  0  0  0  0  0  0  0  0  0
   21.8733   -4.5912  -15.2026 O   0  0  0  0  0  0  0  0  0  0  0  0
   22.4797   -5.4630  -16.0805 O   0  0  0  0  0  0  0  0  0  0  0  0
  2  1  1  1
  2  3  1  0
  3  4  1  0
  4  8  1  0
  5  4  2  0
  6  2  1  0
  7  6  2  0
 10 12  1  0
 10  9  1  0
 11 10  2  0
 13 14  1  0
 13 12  1  0
 15 14  1  0
 16 15  1  6
 16 17  1  0
 17  6  1  0
 18 16  1  0
 18 19  2  0
 21 20  1  1
 21 22  1  0
 22 18  1  0
 23 21  1  0
 24 23  1  0
 25 23  2  0
M  END
$$$$
