DRA.pdb
     RDKit          3D

 25 24  0  0  1  0  0  0  0  0999 V2000
   18.5677  -24.7646   -6.7984 N   0  0  0  0  0  0  0  0  0  0  0  0
   18.2379  -24.8996   -8.2000 C   0  0  1  0  0  0  0  0  0  0  0  0
   17.1675  -25.9618   -8.4132 C   0  0  0  0  0  0  0  0  0  0  0  0
   17.6552  -27.2912   -7.9715 C   0  0  0  0  0  0  0  0  0  0  0  0
   16.9854  -27.9721   -7.1461 O   0  0  0  0  0  0  0  0  0  0  0  0
   17.8277  -23.6002   -8.7858 C   0  0  0  0  0  0  0  0  0  0  0  0
   16.8604  -22.9295   -8.3448 O   0  0  0  0  0  0  0  0  0  0  0  0
   18.8354  -27.8484   -8.4220 O   0  0  0  0  0  0  0  0  0  0  0  0
   22.1008  -22.1119  -12.8847 N   0  0  0  0  0  0  0  0  0  0  0  0
   22.2183  -20.7522  -13.2726 C   0  0  0  0  0  0  0  0  0  0  0  0
   22.7344  -20.4409  -14.4305 N   0  0  0  0  0  0  0  0  0  0  0  0
   21.7971  -19.6813  -12.4548 N   0  0  0  0  0  0  0  0  0  0  0  0
   21.2445  -19.9407  -11.1401 C   0  0  0  0  0  0  0  0  0  0  0  0
   19.7548  -20.0617  -11.1516 C   0  0  0  0  0  0  0  0  0  0  0  0
   19.3957  -21.5069  -11.4280 C   0  0  0  0  0  0  0  0  0  0  0  0
   18.1743  -21.9230  -10.6403 C   0  0  2  0  0  0  0  0  0  0  0  0
   18.5407  -23.0931   -9.8736 N   0  0  0  0  0  0  0  0  0  0  0  0
   16.9788  -22.0798  -11.4401 C   0  0  0  0  0  0  0  0  0  0  0  0
   16.6371  -23.2063  -11.8527 O   0  0  0  0  0  0  0  0  0  0  0  0
   22.8300  -19.4797  -14.7620 C   0  0  0  0  0  0  0  0  0  0  0  0
   15.3071  -22.1367  -13.6933 C   0  0  2  0  0  0  0  0  0  0  0  0
   15.0199  -21.0696  -12.6737 N   0  0  0  0  0  0  0  0  0  0  0  0
   16.1622  -20.9795  -11.7809 C   0  0  0  0  0  0  0  0  0  0  0  0
   13.7536  -21.2457  -11.9788 O   0  0  0  0  0  0  0  0  0  0  0  0
   12.5617  -21.0120  -12.6293 O   0  0  0  0  0  0  0  0  0  0  0  0
  2  1  1  1
  2  3  1  0
  3  4  1  0
  4  8  1  0
  5  4  2  0
  6  2  1  0
  7  6  2  0
 10 12  1  0
 10  9  1  0
 11 10  2  0
 13 14  1  0
 13 12  1  0
 15 14  1  0
 16 15  1  6
 16 17  1  0
 17  6  1  0
 18 16  1  0
 18 19  2  0
 21 20  1  6
 21 22  1  0
 22 18  1  0
 23 21  1  0
 24 23  1  0
 25 23  2  0
M  END
$$$$
