DRA.pdb
     RDKit          3D

 25 24  0  0  1  0  0  0  0  0999 V2000
   14.7536   -7.4095   -8.3280 N   0  0  0  0  0  0  0  0  0  0  0  0
   15.4461   -6.5966   -9.3033 C   0  0  1  0  0  0  0  0  0  0  0  0
   16.0760   -5.3728   -8.6514 C   0  0  0  0  0  0  0  0  0  0  0  0
   15.0679   -4.2999   -8.4706 C   0  0  0  0  0  0  0  0  0  0  0  0
   13.8779   -4.4744   -8.8537 O   0  0  0  0  0  0  0  0  0  0  0  0
   16.4568   -7.3881  -10.0462 C   0  0  0  0  0  0  0  0  0  0  0  0
   17.3067   -8.1161   -9.4737 O   0  0  0  0  0  0  0  0  0  0  0  0
   15.3602   -3.0817   -7.8900 O   0  0  0  0  0  0  0  0  0  0  0  0
   16.4193  -13.5852  -14.9782 N   0  0  0  0  0  0  0  0  0  0  0  0
   17.4166  -12.9022  -15.7211 C   0  0  0  0  0  0  0  0  0  0  0  0
   18.0512  -13.5117  -16.6853 N   0  0  0  0  0  0  0  0  0  0  0  0
   17.7754  -11.5598  -15.4718 N   0  0  0  0  0  0  0  0  0  0  0  0
   16.9759  -10.7446  -14.5789 C   0  0  0  0  0  0  0  0  0  0  0  0
   17.5466   -9.3782  -14.3753 C   0  0  0  0  0  0  0  0  0  0  0  0
   16.6363   -8.6162  -13.4348 C   0  0  0  0  0  0  0  0  0  0  0  0
   17.4209   -8.0056  -12.2959 C   0  0  2  0  0  0  0  0  0  0  0  0
   16.4720   -7.3278  -11.4409 N   0  0  0  0  0  0  0  0  0  0  0  0
   18.5387   -7.1893  -12.7174 C   0  0  0  0  0  0  0  0  0  0  0  0
   18.3571   -6.0145  -13.0952 O   0  0  0  0  0  0  0  0  0  0  0  0
   18.7758  -13.0656  -17.2500 C   0  0  0  0  0  0  0  0  0  0  0  0
   22.2285   -7.7796  -13.0587 C   0  0  1  0  0  0  0  0  0  0  0  0
   21.0177   -6.8891  -13.0974 N   0  0  0  0  0  0  0  0  0  0  0  0
   19.8617   -7.6827  -12.7178 C   0  0  0  0  0  0  0  0  0  0  0  0
   20.8471   -6.1828  -14.3581 O   0  0  0  0  0  0  0  0  0  0  0  0
   21.3478   -4.9091  -14.5183 O   0  0  0  0  0  0  0  0  0  0  0  0
  2  1  1  1
  2  3  1  0
  3  4  1  0
  4  8  1  0
  5  4  2  0
  6  2  1  0
  7  6  2  0
 10 12  1  0
 10  9  1  0
 11 10  2  0
 13 14  1  0
 13 12  1  0
 15 14  1  0
 16 15  1  6
 16 17  1  0
 17  6  1  0
 18 16  1  0
 18 19  2  0
 21 20  1  1
 21 22  1  0
 22 18  1  0
 23 21  1  0
 24 23  1  0
 25 23  2  0
M  END
$$$$
