DRA.pdb
     RDKit          3D

 25 24  0  0  1  0  0  0  0  0999 V2000
   18.9921  -21.9178  -11.5019 N   0  0  0  0  0  0  0  0  0  0  0  0
   18.9456  -21.8268  -12.9445 C   0  0  1  0  0  0  0  0  0  0  0  0
   17.5383  -21.5054  -13.4300 C   0  0  0  0  0  0  0  0  0  0  0  0
   16.6053  -22.6088  -13.0953 C   0  0  0  0  0  0  0  0  0  0  0  0
   17.0460  -23.7734  -12.8881 O   0  0  0  0  0  0  0  0  0  0  0  0
   19.9274  -20.8393  -13.4552 C   0  0  0  0  0  0  0  0  0  0  0  0
   20.0183  -19.6713  -12.9995 O   0  0  0  0  0  0  0  0  0  0  0  0
   15.2393  -22.4352  -12.9929 O   0  0  0  0  0  0  0  0  0  0  0  0
   27.3379  -23.5499  -16.1933 N   0  0  0  0  0  0  0  0  0  0  0  0
   25.9995  -23.8081  -15.7997 C   0  0  0  0  0  0  0  0  0  0  0  0
   25.6204  -25.0247  -15.5166 N   0  0  0  0  0  0  0  0  0  0  0  0
   25.0215  -22.7956  -15.6927 N   0  0  0  0  0  0  0  0  0  0  0  0
   25.3577  -21.4206  -16.0050 C   0  0  0  0  0  0  0  0  0  0  0  0
   24.2142  -20.4820  -15.7912 C   0  0  0  0  0  0  0  0  0  0  0  0
   23.0241  -21.2828  -15.3054 C   0  0  0  0  0  0  0  0  0  0  0  0
   21.8363  -20.3852  -15.0433 C   0  0  2  0  0  0  0  0  0  0  0  0
   20.7910  -21.2146  -14.4858 N   0  0  0  0  0  0  0  0  0  0  0  0
   21.4296  -19.5929  -16.1837 C   0  0  0  0  0  0  0  0  0  0  0  0
   20.8012  -20.1161  -17.1256 O   0  0  0  0  0  0  0  0  0  0  0  0
   24.6772  -25.2600  -15.2037 C   0  0  0  0  0  0  0  0  0  0  0  0
   21.8178  -15.9822  -17.1316 C   0  0  1  0  0  0  0  0  0  0  0  0
   21.3557  -17.3858  -17.4095 N   0  0  0  0  0  0  0  0  0  0  0  0
   21.7234  -18.2149  -16.2748 C   0  0  0  0  0  0  0  0  0  0  0  0
   21.8134  -17.9138  -18.6858 O   0  0  0  0  0  0  0  0  0  0  0  0
   21.0186  -17.8171  -19.8071 O   0  0  0  0  0  0  0  0  0  0  0  0
  2  1  1  1
  2  3  1  0
  3  4  1  0
  4  8  1  0
  5  4  2  0
  6  2  1  0
  7  6  2  0
 10 12  1  0
 10  9  1  0
 11 10  2  0
 13 14  1  0
 13 12  1  0
 15 14  1  0
 16 15  1  6
 16 17  1  0
 17  6  1  0
 18 16  1  0
 18 19  2  0
 21 20  1  1
 21 22  1  0
 22 18  1  0
 23 21  1  0
 24 23  1  0
 25 23  2  0
M  END
$$$$
