DRA.pdb
     RDKit          3D

 25 24  0  0  1  0  0  0  0  0999 V2000
   18.7687  -10.5809  -17.2316 N   0  0  0  0  0  0  0  0  0  0  0  0
   19.5339  -10.4210  -16.0148 C   0  0  1  0  0  0  0  0  0  0  0  0
   21.0249  -10.5873  -16.2771 C   0  0  0  0  0  0  0  0  0  0  0  0
   21.3579  -12.0131  -16.5145 C   0  0  0  0  0  0  0  0  0  0  0  0
   20.4903  -12.9094  -16.3210 O   0  0  0  0  0  0  0  0  0  0  0  0
   19.2462   -9.1201  -15.3631 C   0  0  0  0  0  0  0  0  0  0  0  0
   19.3190   -8.0227  -15.9717 O   0  0  0  0  0  0  0  0  0  0  0  0
   22.5990  -12.4346  -16.9485 O   0  0  0  0  0  0  0  0  0  0  0  0
   14.6573   -8.1643   -7.8179 N   0  0  0  0  0  0  0  0  0  0  0  0
   14.7698   -6.8855   -8.4219 C   0  0  0  0  0  0  0  0  0  0  0  0
   13.9894   -5.9093   -8.0449 N   0  0  0  0  0  0  0  0  0  0  0  0
   15.7050   -6.5961   -9.4390 N   0  0  0  0  0  0  0  0  0  0  0  0
   16.2648   -7.6658  -10.2413 C   0  0  0  0  0  0  0  0  0  0  0  0
   17.1783   -7.1676  -11.3144 C   0  0  0  0  0  0  0  0  0  0  0  0
   17.7053   -8.3608  -12.0842 C   0  0  0  0  0  0  0  0  0  0  0  0
   18.5588   -7.9198  -13.2514 C   0  0  2  0  0  0  0  0  0  0  0  0
   18.8783   -9.1047  -14.0165 N   0  0  0  0  0  0  0  0  0  0  0  0
   19.7050   -7.1195  -12.8780 C   0  0  0  0  0  0  0  0  0  0  0  0
   20.6743   -7.6388  -12.2893 O   0  0  0  0  0  0  0  0  0  0  0  0
   14.0543   -4.9620   -8.4208 C   0  0  0  0  0  0  0  0  0  0  0  0
   22.0761   -5.5907  -13.7895 C   0  0  2  0  0  0  0  0  0  0  0  0
   20.9742   -4.9392  -13.0007 N   0  0  0  0  0  0  0  0  0  0  0  0
   19.7714   -5.7378  -13.1613 C   0  0  0  0  0  0  0  0  0  0  0  0
   20.7810   -3.5311  -13.3126 O   0  0  0  0  0  0  0  0  0  0  0  0
   19.6134   -3.1007  -13.9042 O   0  0  0  0  0  0  0  0  0  0  0  0
  2  1  1  6
  2  3  1  0
  3  4  1  0
  4  8  1  0
  5  4  2  0
  6  2  1  0
  7  6  2  0
 10 12  1  0
 10  9  1  0
 11 10  2  0
 13 14  1  0
 13 12  1  0
 15 14  1  0
 16 15  1  1
 16 17  1  0
 17  6  1  0
 18 16  1  0
 18 19  2  0
 21 20  1  1
 21 22  1  0
 22 18  1  0
 23 21  1  0
 24 23  1  0
 25 23  2  0
M  END
$$$$
