IPL.pdb
     RDKit          3D

 24 24  0  0  1  0  0  0  0  0999 V2000
   18.3788  -13.6947  -20.8403 C   0  0  0  0  0  0  0  0  0  0  0  0
   19.6037  -13.7264  -19.9920 C   0  0  0  0  0  0  0  0  0  0  0  0
   19.7328  -12.5357  -19.1137 C   0  0  2  0  0  0  0  0  0  0  0  0
   19.9520  -11.3066  -20.0021 C   0  0  0  0  0  0  0  0  0  0  0  0
   20.8996  -12.6987  -18.1524 C   0  0  2  0  0  0  0  0  0  0  0  0
   20.8460  -13.9638  -17.5499 N   0  0  0  0  0  0  0  0  0  0  0  0
   21.0809  -11.5237  -17.2866 C   0  0  0  0  0  0  0  0  0  0  0  0
   20.0666  -11.2977  -16.5173 O   0  0  0  0  0  0  0  0  0  0  0  0
   22.2004  -10.6634  -17.2224 N   0  0  0  0  0  0  0  0  0  0  0  0
   23.4503  -10.8907  -17.9088 C   0  0  0  0  0  0  0  0  0  0  0  0
   24.3380   -9.6768  -17.5796 C   0  0  0  0  0  0  0  0  0  0  0  0
   23.3355   -8.6440  -17.2487 C   0  0  0  0  0  0  0  0  0  0  0  0
   22.2667   -9.4234  -16.4710 C   0  0  1  0  0  0  0  0  0  0  0  0
   21.0363   -8.5954  -16.5842 C   0  0  0  0  0  0  0  0  0  0  0  0
   20.1230   -8.7808  -17.4149 O   0  0  0  0  0  0  0  0  0  0  0  0
   15.9812   -7.5987  -14.9085 C   0  0  0  0  0  0  0  0  0  0  0  0
   17.1492   -6.7395  -15.3618 C   0  0  2  0  0  0  0  0  0  0  0  0
   16.7764   -5.8927  -16.5275 C   0  0  0  0  0  0  0  0  0  0  0  0
   18.4191   -7.5056  -15.4906 C   0  0  0  0  0  0  0  0  0  0  0  0
   19.6728   -6.7064  -15.6038 C   0  0  2  0  0  0  0  0  0  0  0  0
   20.8775   -7.5069  -15.6825 N   0  0  0  0  0  0  0  0  0  0  0  0
   19.7912   -5.6201  -14.6362 C   0  0  0  0  0  0  0  0  0  0  0  0
   20.2734   -5.8504  -13.3638 O   0  0  0  0  0  0  0  0  0  0  0  0
   19.4567   -4.4547  -14.9423 O   0  0  0  0  0  0  0  0  0  0  0  0
  1  2  1  0
  3  2  1  0
  3  4  1  6
  5  3  1  0
  5  6  1  1
  7  8  2  0
  7  5  1  0
  9  7  1  0
 10  9  1  0
 11 10  1  0
 12 11  1  0
 12 13  1  0
 13 14  1  6
 13  9  1  0
 14 15  2  0
 17 16  1  6
 17 19  1  0
 18 17  1  0
 20 19  1  1
 20 21  1  0
 21 14  1  0
 22 20  1  0
 23 22  1  0
 24 22  2  0
M  END
$$$$
