IPL.pdb
     RDKit          3D

 24 24  0  0  1  0  0  0  0  0999 V2000
   25.6071  -18.0655  -14.4352 C   0  0  0  0  0  0  0  0  0  0  0  0
   25.9010  -19.4726  -14.0418 C   0  0  0  0  0  0  0  0  0  0  0  0
   26.4380  -19.5898  -12.6620 C   0  0  2  0  0  0  0  0  0  0  0  0
   27.7457  -18.7945  -12.5878 C   0  0  0  0  0  0  0  0  0  0  0  0
   26.6923  -21.0456  -12.3043 C   0  0  2  0  0  0  0  0  0  0  0  0
   25.5416  -21.8055  -12.5582 N   0  0  0  0  0  0  0  0  0  0  0  0
   27.3494  -21.1949  -10.9970 C   0  0  0  0  0  0  0  0  0  0  0  0
   26.5477  -21.0051  -10.0004 O   0  0  0  0  0  0  0  0  0  0  0  0
   28.7039  -21.5082  -10.7425 N   0  0  0  0  0  0  0  0  0  0  0  0
   29.6956  -21.7516  -11.7634 C   0  0  0  0  0  0  0  0  0  0  0  0
   31.0175  -22.0016  -11.0151 C   0  0  0  0  0  0  0  0  0  0  0  0
   30.7790  -21.3109   -9.7315 C   0  0  0  0  0  0  0  0  0  0  0  0
   29.3080  -21.6245   -9.4279 C   0  0  1  0  0  0  0  0  0  0  0  0
   28.8804  -20.5585   -8.4827 C   0  0  0  0  0  0  0  0  0  0  0  0
   28.5260  -19.4083   -8.8143 O   0  0  0  0  0  0  0  0  0  0  0  0
   25.6895  -20.2230   -5.8245 C   0  0  0  0  0  0  0  0  0  0  0  0
   26.6864  -21.0649   -5.0465 C   0  0  2  0  0  0  0  0  0  0  0  0
   26.0617  -21.6577   -3.8327 C   0  0  0  0  0  0  0  0  0  0  0  0
   27.9912  -20.3786   -4.8405 C   0  0  0  0  0  0  0  0  0  0  0  0
   28.6754  -19.8639   -6.0612 C   0  0  2  0  0  0  0  0  0  0  0  0
   28.8707  -20.8616   -7.0931 N   0  0  0  0  0  0  0  0  0  0  0  0
   29.8864  -19.0921   -5.8000 C   0  0  0  0  0  0  0  0  0  0  0  0
   29.8196  -17.8294   -5.2471 O   0  0  0  0  0  0  0  0  0  0  0  0
   31.0128  -19.5615   -6.0734 O   0  0  0  0  0  0  0  0  0  0  0  0
  1  2  1  0
  3  2  1  0
  3  4  1  6
  5  3  1  0
  5  6  1  1
  7  8  2  0
  7  5  1  0
  9  7  1  0
 10  9  1  0
 11 10  1  0
 12 11  1  0
 12 13  1  0
 13 14  1  1
 13  9  1  0
 14 15  2  0
 17 16  1  1
 17 19  1  0
 18 17  1  0
 20 19  1  1
 20 21  1  0
 21 14  1  0
 22 20  1  0
 23 22  1  0
 24 22  2  0
M  END
$$$$
