IPL.pdb
     RDKit          3D

 24 24  0  0  1  0  0  0  0  0999 V2000
   22.4132  -18.1844  -14.4271 C   0  0  0  0  0  0  0  0  0  0  0  0
   23.0916  -19.5108  -14.3896 C   0  0  0  0  0  0  0  0  0  0  0  0
   23.7897  -19.7700  -13.1046 C   0  0  2  0  0  0  0  0  0  0  0  0
   24.9003  -18.7266  -12.9439 C   0  0  0  0  0  0  0  0  0  0  0  0
   24.3830  -21.1699  -13.0860 C   0  0  2  0  0  0  0  0  0  0  0  0
   23.3974  -22.1084  -13.4237 N   0  0  0  0  0  0  0  0  0  0  0  0
   25.1970  -21.4178  -11.8865 C   0  0  0  0  0  0  0  0  0  0  0  0
   24.4913  -21.5448  -10.8105 O   0  0  0  0  0  0  0  0  0  0  0  0
   26.6041  -21.5227  -11.8048 N   0  0  0  0  0  0  0  0  0  0  0  0
   27.4924  -21.5492  -12.9428 C   0  0  0  0  0  0  0  0  0  0  0  0
   28.9167  -21.6233  -12.3634 C   0  0  0  0  0  0  0  0  0  0  0  0
   28.7301  -21.0490  -11.0156 C   0  0  0  0  0  0  0  0  0  0  0  0
   27.3714  -21.6102  -10.5758 C   0  0  1  0  0  0  0  0  0  0  0  0
   26.9014  -20.6783   -9.5161 C   0  0  0  0  0  0  0  0  0  0  0  0
   26.1118  -19.7285   -9.6972 O   0  0  0  0  0  0  0  0  0  0  0  0
   28.4398  -21.8845   -4.0421 C   0  0  0  0  0  0  0  0  0  0  0  0
   28.4102  -20.7895   -5.0948 C   0  0  2  0  0  0  0  0  0  0  0  0
   29.0177  -19.5312   -4.5824 C   0  0  0  0  0  0  0  0  0  0  0  0
   27.0826  -20.6525   -5.7541 C   0  0  0  0  0  0  0  0  0  0  0  0
   27.0652  -19.9898   -7.0897 C   0  0  2  0  0  0  0  0  0  0  0  0
   27.3815  -20.8751   -8.1918 N   0  0  0  0  0  0  0  0  0  0  0  0
   27.8079  -18.7350   -7.1559 C   0  0  0  0  0  0  0  0  0  0  0  0
   27.3594  -17.6076   -6.4984 O   0  0  0  0  0  0  0  0  0  0  0  0
   28.8693  -18.6565   -7.8123 O   0  0  0  0  0  0  0  0  0  0  0  0
  1  2  1  0
  3  2  1  0
  3  4  1  6
  5  3  1  0
  5  6  1  1
  7  8  2  0
  7  5  1  0
  9  7  1  0
 10  9  1  0
 11 10  1  0
 12 11  1  0
 12 13  1  0
 13 14  1  1
 13  9  1  0
 14 15  2  0
 17 16  1  1
 17 19  1  0
 18 17  1  0
 20 19  1  1
 20 21  1  0
 21 14  1  0
 22 20  1  0
 23 22  1  0
 24 22  2  0
M  END
$$$$
