IPL.pdb
     RDKit          3D

 24 24  0  0  1  0  0  0  0  0999 V2000
   13.9417  -11.5060  -14.6756 C   0  0  0  0  0  0  0  0  0  0  0  0
   14.7694  -11.2258  -15.8828 C   0  0  0  0  0  0  0  0  0  0  0  0
   15.9191  -10.3280  -15.6031 C   0  0  2  0  0  0  0  0  0  0  0  0
   15.3723   -8.9273  -15.3086 C   0  0  0  0  0  0  0  0  0  0  0  0
   16.8662  -10.2786  -16.7916 C   0  0  2  0  0  0  0  0  0  0  0  0
   17.2830  -11.5761  -17.1217 N   0  0  0  0  0  0  0  0  0  0  0  0
   17.8919   -9.2344  -16.6478 C   0  0  0  0  0  0  0  0  0  0  0  0
   18.9062   -9.6122  -15.9405 O   0  0  0  0  0  0  0  0  0  0  0  0
   17.8720   -7.9257  -17.1810 N   0  0  0  0  0  0  0  0  0  0  0  0
   16.8594   -7.4203  -18.0777 C   0  0  0  0  0  0  0  0  0  0  0  0
   17.2295   -5.9501  -18.3448 C   0  0  0  0  0  0  0  0  0  0  0  0
   18.0351   -5.6148  -17.1532 C   0  0  0  0  0  0  0  0  0  0  0  0
   18.8517   -6.8904  -16.9068 C   0  0  1  0  0  0  0  0  0  0  0  0
   19.2496   -6.8151  -15.4756 C   0  0  0  0  0  0  0  0  0  0  0  0
   18.5901   -7.2821  -14.5240 O   0  0  0  0  0  0  0  0  0  0  0  0
   22.3363   -9.8289  -13.9548 C   0  0  0  0  0  0  0  0  0  0  0  0
   22.2894   -8.3550  -14.3197 C   0  0  2  0  0  0  0  0  0  0  0  0
   23.6492   -7.8292  -14.6190 C   0  0  0  0  0  0  0  0  0  0  0  0
   21.4705   -7.5477  -13.3743 C   0  0  0  0  0  0  0  0  0  0  0  0
   21.0661   -6.1880  -13.8338 C   0  0  2  0  0  0  0  0  0  0  0  0
   20.4729   -6.1640  -15.1551 N   0  0  0  0  0  0  0  0  0  0  0  0
   22.0888   -5.1602  -13.6665 C   0  0  0  0  0  0  0  0  0  0  0  0
   22.5771   -4.8397  -12.4161 O   0  0  0  0  0  0  0  0  0  0  0  0
   22.5444   -4.5473  -14.6567 O   0  0  0  0  0  0  0  0  0  0  0  0
  1  2  1  0
  3  2  1  0
  3  4  1  6
  5  3  1  0
  5  6  1  1
  7  8  2  0
  7  5  1  0
  9  7  1  0
 10  9  1  0
 11 10  1  0
 12 11  1  0
 12 13  1  0
 13 14  1  1
 13  9  1  0
 14 15  2  0
 17 16  1  1
 17 19  1  0
 18 17  1  0
 20 19  1  6
 20 21  1  0
 21 14  1  0
 22 20  1  0
 23 22  1  0
 24 22  2  0
M  END
$$$$
