IPL.pdb
     RDKit          3D

 24 24  0  0  1  0  0  0  0  0999 V2000
   15.8995  -14.7357  -16.2500 C   0  0  0  0  0  0  0  0  0  0  0  0
   16.8815  -14.5189  -17.3499 C   0  0  0  0  0  0  0  0  0  0  0  0
   17.7572  -13.3409  -17.1227 C   0  0  2  0  0  0  0  0  0  0  0  0
   16.9099  -12.0751  -17.2888 C   0  0  0  0  0  0  0  0  0  0  0  0
   18.9119  -13.3288  -18.1119 C   0  0  2  0  0  0  0  0  0  0  0  0
   19.5515  -14.5766  -18.1115 N   0  0  0  0  0  0  0  0  0  0  0  0
   19.7430  -12.1217  -17.9884 C   0  0  0  0  0  0  0  0  0  0  0  0
   20.4553  -12.1031  -16.9095 O   0  0  0  0  0  0  0  0  0  0  0  0
   19.8293  -11.0372  -18.8906 N   0  0  0  0  0  0  0  0  0  0  0  0
   19.2032  -10.9999  -20.1912 C   0  0  0  0  0  0  0  0  0  0  0  0
   19.5340   -9.6158  -20.7781 C   0  0  0  0  0  0  0  0  0  0  0  0
   19.7920   -8.8199  -19.5610 C   0  0  0  0  0  0  0  0  0  0  0  0
   20.5463   -9.7982  -18.6508 C   0  0  1  0  0  0  0  0  0  0  0  0
   20.3572   -9.2604  -17.2770 C   0  0  0  0  0  0  0  0  0  0  0  0
   19.2969   -9.3288  -16.6215 O   0  0  0  0  0  0  0  0  0  0  0  0
   21.2262  -10.2668  -13.1035 C   0  0  0  0  0  0  0  0  0  0  0  0
   22.4070   -9.9493  -14.0050 C   0  0  2  0  0  0  0  0  0  0  0  0
   23.6678  -10.5304  -13.4685 C   0  0  0  0  0  0  0  0  0  0  0  0
   22.4660   -8.5161  -14.4029 C   0  0  0  0  0  0  0  0  0  0  0  0
   21.4000   -8.0350  -15.3278 C   0  0  2  0  0  0  0  0  0  0  0  0
   21.4616   -8.6174  -16.6528 N   0  0  0  0  0  0  0  0  0  0  0  0
   21.2371   -6.5850  -15.3666 C   0  0  0  0  0  0  0  0  0  0  0  0
   20.6705   -5.9046  -14.3081 O   0  0  0  0  0  0  0  0  0  0  0  0
   21.6090   -5.9283  -16.3636 O   0  0  0  0  0  0  0  0  0  0  0  0
  1  2  1  0
  3  2  1  0
  3  4  1  6
  5  3  1  0
  5  6  1  1
  7  8  2  0
  7  5  1  0
  9  7  1  0
 10  9  1  0
 11 10  1  0
 12 11  1  0
 12 13  1  0
 13 14  1  1
 13  9  1  0
 14 15  2  0
 17 16  1  1
 17 19  1  0
 18 17  1  0
 20 19  1  6
 20 21  1  0
 21 14  1  0
 22 20  1  0
 23 22  1  0
 24 22  2  0
M  END
$$$$
