IPL.pdb
     RDKit          3D

 24 24  0  0  1  0  0  0  0  0999 V2000
   17.6197  -13.8356  -19.9991 C   0  0  0  0  0  0  0  0  0  0  0  0
   18.9896  -13.4868  -19.5272 C   0  0  0  0  0  0  0  0  0  0  0  0
   18.9860  -12.5416  -18.3815 C   0  0  2  0  0  0  0  0  0  0  0  0
   18.4483  -11.1939  -18.8741 C   0  0  0  0  0  0  0  0  0  0  0  0
   20.3886  -12.3694  -17.8202 C   0  0  2  0  0  0  0  0  0  0  0  0
   20.9653  -13.6262  -17.5878 N   0  0  0  0  0  0  0  0  0  0  0  0
   20.4422  -11.3701  -16.7424 C   0  0  0  0  0  0  0  0  0  0  0  0
   19.7436  -11.7019  -15.7063 O   0  0  0  0  0  0  0  0  0  0  0  0
   21.1475  -10.1453  -16.7353 N   0  0  0  0  0  0  0  0  0  0  0  0
   22.0756   -9.7269  -17.7593 C   0  0  0  0  0  0  0  0  0  0  0  0
   22.5504   -8.3214  -17.3482 C   0  0  0  0  0  0  0  0  0  0  0  0
   21.4385   -7.8598  -16.4926 C   0  0  0  0  0  0  0  0  0  0  0  0
   21.0442   -9.1208  -15.7123 C   0  0  1  0  0  0  0  0  0  0  0  0
   19.6483   -8.8687  -15.2648 C   0  0  0  0  0  0  0  0  0  0  0  0
   18.6326   -9.0051  -15.9779 O   0  0  0  0  0  0  0  0  0  0  0  0
   16.3843   -9.0560  -10.0939 C   0  0  0  0  0  0  0  0  0  0  0  0
   16.4846   -8.5215  -11.5124 C   0  0  2  0  0  0  0  0  0  0  0  0
   15.2332   -8.7779  -12.2761 C   0  0  0  0  0  0  0  0  0  0  0  0
   17.7534   -8.9051  -12.1900 C   0  0  0  0  0  0  0  0  0  0  0  0
   18.1411   -8.1033  -13.3858 C   0  0  2  0  0  0  0  0  0  0  0  0
   19.4431   -8.4392  -13.9245 N   0  0  0  0  0  0  0  0  0  0  0  0
   17.9570   -6.6629  -13.2381 C   0  0  0  0  0  0  0  0  0  0  0  0
   19.0173   -5.8396  -12.9178 O   0  0  0  0  0  0  0  0  0  0  0  0
   16.8306   -6.1445  -13.3995 O   0  0  0  0  0  0  0  0  0  0  0  0
  1  2  1  0
  3  2  1  0
  3  4  1  6
  5  3  1  0
  5  6  1  1
  7  8  2  0
  7  5  1  0
  9  7  1  0
 10  9  1  0
 11 10  1  0
 12 11  1  0
 12 13  1  0
 13 14  1  6
 13  9  1  0
 14 15  2  0
 17 16  1  1
 17 19  1  0
 18 17  1  0
 20 19  1  1
 20 21  1  0
 21 14  1  0
 22 20  1  0
 23 22  1  0
 24 22  2  0
M  END
$$$$
