IPL.pdb
     RDKit          3D

 24 24  0  0  1  0  0  0  0  0999 V2000
   21.1183  -19.1571  -13.6383 C   0  0  0  0  0  0  0  0  0  0  0  0
   22.2556  -20.0655  -13.9581 C   0  0  0  0  0  0  0  0  0  0  0  0
   23.1288  -20.3371  -12.7877 C   0  0  2  0  0  0  0  0  0  0  0  0
   23.7425  -19.0099  -12.3298 C   0  0  0  0  0  0  0  0  0  0  0  0
   24.2287  -21.3216  -13.1525 C   0  0  2  0  0  0  0  0  0  0  0  0
   23.6687  -22.4607  -13.7484 N   0  0  0  0  0  0  0  0  0  0  0  0
   25.1949  -21.5124  -12.0603 C   0  0  0  0  0  0  0  0  0  0  0  0
   24.6463  -21.9144  -10.9606 O   0  0  0  0  0  0  0  0  0  0  0  0
   26.5927  -21.3065  -12.0986 N   0  0  0  0  0  0  0  0  0  0  0  0
   27.3518  -21.0508  -13.3000 C   0  0  0  0  0  0  0  0  0  0  0  0
   28.8076  -20.8475  -12.8427 C   0  0  0  0  0  0  0  0  0  0  0  0
   28.6324  -20.4295  -11.4370 C   0  0  0  0  0  0  0  0  0  0  0  0
   27.4756  -21.3103  -10.9466 C   0  0  1  0  0  0  0  0  0  0  0  0
   26.9201  -20.5869   -9.7716 C   0  0  0  0  0  0  0  0  0  0  0  0
   26.1802  -19.5833   -9.8336 O   0  0  0  0  0  0  0  0  0  0  0  0
   28.6164  -18.8102   -5.0327 C   0  0  0  0  0  0  0  0  0  0  0  0
   27.8305  -20.0937   -4.8260 C   0  0  2  0  0  0  0  0  0  0  0  0
   28.2729  -20.8059   -3.5963 C   0  0  0  0  0  0  0  0  0  0  0  0
   27.7324  -20.9206   -6.0600 C   0  0  0  0  0  0  0  0  0  0  0  0
   27.2637  -20.2267   -7.2937 C   0  0  2  0  0  0  0  0  0  0  0  0
   27.2503  -21.0664   -8.4739 N   0  0  0  0  0  0  0  0  0  0  0  0
   27.8934  -18.9333   -7.5406 C   0  0  0  0  0  0  0  0  0  0  0  0
   29.1664  -18.8511   -8.0673 O   0  0  0  0  0  0  0  0  0  0  0  0
   27.2897  -17.8700   -7.2786 O   0  0  0  0  0  0  0  0  0  0  0  0
  1  2  1  0
  3  2  1  0
  3  4  1  6
  5  3  1  0
  5  6  1  1
  7  8  2  0
  7  5  1  0
  9  7  1  0
 10  9  1  0
 11 10  1  0
 12 11  1  0
 12 13  1  0
 13 14  1  1
 13  9  1  0
 14 15  2  0
 17 16  1  6
 17 19  1  0
 18 17  1  0
 20 19  1  1
 20 21  1  0
 21 14  1  0
 22 20  1  0
 23 22  1  0
 24 22  2  0
M  END
$$$$
