IPL.pdb
     RDKit          3D

 24 24  0  0  1  0  0  0  0  0999 V2000
   15.9465  -23.2212    3.0309 C   0  0  0  0  0  0  0  0  0  0  0  0
   15.8096  -21.7656    2.7422 C   0  0  0  0  0  0  0  0  0  0  0  0
   16.5103  -20.9086    3.7325 C   0  0  2  0  0  0  0  0  0  0  0  0
   15.7460  -20.9857    5.0583 C   0  0  0  0  0  0  0  0  0  0  0  0
   16.5732  -19.4680    3.2501 C   0  0  2  0  0  0  0  0  0  0  0  0
   17.0423  -19.4290    1.9293 N   0  0  0  0  0  0  0  0  0  0  0  0
   17.1979  -18.5735    4.2363 C   0  0  0  0  0  0  0  0  0  0  0  0
   18.4769  -18.7367    4.3323 O   0  0  0  0  0  0  0  0  0  0  0  0
   16.5634  -17.6049    5.0469 N   0  0  0  0  0  0  0  0  0  0  0  0
   15.1813  -17.2065    4.9198 C   0  0  0  0  0  0  0  0  0  0  0  0
   14.9365  -16.1746    6.0356 C   0  0  0  0  0  0  0  0  0  0  0  0
   15.9865  -16.5247    7.0135 C   0  0  0  0  0  0  0  0  0  0  0  0
   17.1923  -16.8718    6.1302 C   0  0  1  0  0  0  0  0  0  0  0  0
   18.0622  -17.7169    6.9912 C   0  0  0  0  0  0  0  0  0  0  0  0
   18.0574  -18.9652    7.0069 O   0  0  0  0  0  0  0  0  0  0  0  0
   22.7821  -15.9686    7.7137 C   0  0  0  0  0  0  0  0  0  0  0  0
   22.1155  -16.7025    8.8648 C   0  0  2  0  0  0  0  0  0  0  0  0
   23.0928  -17.0191    9.9417 C   0  0  0  0  0  0  0  0  0  0  0  0
   21.2524  -17.8286    8.4144 C   0  0  0  0  0  0  0  0  0  0  0  0
   19.8161  -17.7693    8.8104 C   0  0  2  0  0  0  0  0  0  0  0  0
   18.9728  -17.0639    7.8672 N   0  0  0  0  0  0  0  0  0  0  0  0
   19.5818  -17.3465   10.1876 C   0  0  0  0  0  0  0  0  0  0  0  0
   19.9505  -18.1468   11.2497 O   0  0  0  0  0  0  0  0  0  0  0  0
   19.0401  -16.2465   10.4332 O   0  0  0  0  0  0  0  0  0  0  0  0
  1  2  1  0
  3  2  1  0
  3  4  1  1
  5  3  1  0
  5  6  1  6
  7  8  2  0
  7  5  1  0
  9  7  1  0
 10  9  1  0
 11 10  1  0
 12 11  1  0
 12 13  1  0
 13 14  1  1
 13  9  1  0
 14 15  2  0
 17 16  1  6
 17 19  1  0
 18 17  1  0
 20 19  1  6
 20 21  1  0
 21 14  1  0
 22 20  1  0
 23 22  1  0
 24 22  2  0
M  END
$$$$
