IPL.pdb
     RDKit          3D

 24 24  0  0  1  0  0  0  0  0999 V2000
   12.8064  -11.3887  -16.2584 C   0  0  0  0  0  0  0  0  0  0  0  0
   14.2476  -11.4701  -15.8883 C   0  0  0  0  0  0  0  0  0  0  0  0
   14.6349  -10.4894  -14.8422 C   0  0  2  0  0  0  0  0  0  0  0  0
   14.5559   -9.0849  -15.4497 C   0  0  0  0  0  0  0  0  0  0  0  0
   16.0448  -10.7626  -14.3426 C   0  0  2  0  0  0  0  0  0  0  0  0
   16.1505  -12.0965  -13.9234 N   0  0  0  0  0  0  0  0  0  0  0  0
   16.5333   -9.7095  -13.4396 C   0  0  0  0  0  0  0  0  0  0  0  0
   15.9215   -9.6924  -12.3006 O   0  0  0  0  0  0  0  0  0  0  0  0
   17.5536   -8.7637  -13.6886 N   0  0  0  0  0  0  0  0  0  0  0  0
   18.4023   -8.7608  -14.8569 C   0  0  0  0  0  0  0  0  0  0  0  0
   19.3155   -7.5301  -14.7106 C   0  0  0  0  0  0  0  0  0  0  0  0
   18.5209   -6.6626  -13.8176 C   0  0  0  0  0  0  0  0  0  0  0  0
   17.8999   -7.6518  -12.8225 C   0  0  1  0  0  0  0  0  0  0  0  0
   16.7165   -6.9404  -12.2694 C   0  0  0  0  0  0  0  0  0  0  0  0
   15.6280   -6.7935  -12.8630 O   0  0  0  0  0  0  0  0  0  0  0  0
   13.4265   -7.0605   -9.1757 C   0  0  0  0  0  0  0  0  0  0  0  0
   14.8155   -7.0239   -8.5614 C   0  0  2  0  0  0  0  0  0  0  0  0
   14.7754   -7.3691   -7.1142 C   0  0  0  0  0  0  0  0  0  0  0  0
   15.5772   -5.7959   -8.9189 C   0  0  0  0  0  0  0  0  0  0  0  0
   15.7976   -5.5459  -10.3723 C   0  0  2  0  0  0  0  0  0  0  0  0
   16.8215   -6.3811  -10.9659 N   0  0  0  0  0  0  0  0  0  0  0  0
   15.9526   -4.1395  -10.7309 C   0  0  0  0  0  0  0  0  0  0  0  0
   14.8649   -3.2909  -10.7675 O   0  0  0  0  0  0  0  0  0  0  0  0
   17.0783   -3.6741  -11.0134 O   0  0  0  0  0  0  0  0  0  0  0  0
  1  2  1  0
  3  2  1  0
  3  4  1  6
  5  3  1  0
  5  6  1  1
  7  8  2  0
  7  5  1  0
  9  7  1  0
 10  9  1  0
 11 10  1  0
 12 11  1  0
 12 13  1  0
 13 14  1  6
 13  9  1  0
 14 15  2  0
 17 16  1  1
 17 19  1  0
 18 17  1  0
 20 19  1  1
 20 21  1  0
 21 14  1  0
 22 20  1  0
 23 22  1  0
 24 22  2  0
M  END
$$$$
