IPL.pdb
     RDKit          3D

 24 24  0  0  1  0  0  0  0  0999 V2000
   21.6492  -19.7304  -13.4153 C   0  0  0  0  0  0  0  0  0  0  0  0
   22.9158  -20.4779  -13.6555 C   0  0  0  0  0  0  0  0  0  0  0  0
   23.6688  -20.7611  -12.4069 C   0  0  2  0  0  0  0  0  0  0  0  0
   23.9607  -19.4276  -11.7108 C   0  0  0  0  0  0  0  0  0  0  0  0
   24.9704  -21.4843  -12.7146 C   0  0  2  0  0  0  0  0  0  0  0  0
   24.7256  -22.5520  -13.5900 N   0  0  0  0  0  0  0  0  0  0  0  0
   25.7659  -21.7453  -11.5054 C   0  0  0  0  0  0  0  0  0  0  0  0
   25.0997  -22.3560  -10.5806 O   0  0  0  0  0  0  0  0  0  0  0  0
   27.1182  -21.4070  -11.2721 N   0  0  0  0  0  0  0  0  0  0  0  0
   28.0177  -20.8843  -12.2734 C   0  0  0  0  0  0  0  0  0  0  0  0
   29.3508  -20.6262  -11.5481 C   0  0  0  0  0  0  0  0  0  0  0  0
   28.9122  -20.4678  -10.1467 C   0  0  0  0  0  0  0  0  0  0  0  0
   27.8069  -21.5219   -9.9997 C   0  0  1  0  0  0  0  0  0  0  0  0
   26.9945  -21.0604   -8.8423 C   0  0  0  0  0  0  0  0  0  0  0  0
   26.0197  -21.6748   -8.3619 O   0  0  0  0  0  0  0  0  0  0  0  0
   30.3837  -21.0903   -4.5565 C   0  0  0  0  0  0  0  0  0  0  0  0
   28.9618  -20.6554   -4.8677 C   0  0  2  0  0  0  0  0  0  0  0  0
   27.9831  -21.3249   -3.9683 C   0  0  0  0  0  0  0  0  0  0  0  0
   28.6463  -20.6963   -6.3220 C   0  0  0  0  0  0  0  0  0  0  0  0
   27.6570  -19.6977   -6.8194 C   0  0  2  0  0  0  0  0  0  0  0  0
   27.3461  -19.8265   -8.2283 N   0  0  0  0  0  0  0  0  0  0  0  0
   27.9416  -18.3177   -6.4384 C   0  0  0  0  0  0  0  0  0  0  0  0
   27.3117  -17.7338   -5.3582 O   0  0  0  0  0  0  0  0  0  0  0  0
   28.7649  -17.6346   -7.0859 O   0  0  0  0  0  0  0  0  0  0  0  0
  1  2  1  0
  3  2  1  0
  3  4  1  6
  5  3  1  0
  5  6  1  1
  7  8  2  0
  7  5  1  0
  9  7  1  0
 10  9  1  0
 11 10  1  0
 12 11  1  0
 12 13  1  0
 13 14  1  1
 13  9  1  0
 14 15  2  0
 17 16  1  6
 17 19  1  0
 18 17  1  0
 20 19  1  6
 20 21  1  0
 21 14  1  0
 22 20  1  0
 23 22  1  0
 24 22  2  0
M  END
$$$$
