IPL.pdb
     RDKit          3D

 24 24  0  0  1  0  0  0  0  0999 V2000
   16.2134  -15.7967  -15.7552 C   0  0  0  0  0  0  0  0  0  0  0  0
   16.7383  -15.2377  -17.0330 C   0  0  0  0  0  0  0  0  0  0  0  0
   17.5452  -14.0058  -16.8400 C   0  0  2  0  0  0  0  0  0  0  0  0
   16.6116  -12.8935  -16.3509 C   0  0  0  0  0  0  0  0  0  0  0  0
   18.2143  -13.5903  -18.1406 C   0  0  2  0  0  0  0  0  0  0  0  0
   18.8629  -14.6929  -18.7150 N   0  0  0  0  0  0  0  0  0  0  0  0
   18.9664  -12.3335  -18.0074 C   0  0  0  0  0  0  0  0  0  0  0  0
   20.0651  -12.4669  -17.3390 O   0  0  0  0  0  0  0  0  0  0  0  0
   18.6173  -11.0609  -18.5136 N   0  0  0  0  0  0  0  0  0  0  0  0
   17.4874  -10.8021  -19.3747 C   0  0  0  0  0  0  0  0  0  0  0  0
   17.4857   -9.2826  -19.6215 C   0  0  0  0  0  0  0  0  0  0  0  0
   18.2213   -8.7793  -18.4438 C   0  0  0  0  0  0  0  0  0  0  0  0
   19.3271   -9.8241  -18.2432 C   0  0  1  0  0  0  0  0  0  0  0  0
   19.7366   -9.6745  -16.8212 C   0  0  0  0  0  0  0  0  0  0  0  0
   19.0644  -10.0525  -15.8394 O   0  0  0  0  0  0  0  0  0  0  0  0
   22.5249  -11.6419  -14.4824 C   0  0  0  0  0  0  0  0  0  0  0  0
   23.3187  -10.6654  -15.3335 C   0  0  2  0  0  0  0  0  0  0  0  0
   24.7721  -10.9850  -15.3088 C   0  0  0  0  0  0  0  0  0  0  0  0
   22.9582   -9.2441  -15.0771 C   0  0  0  0  0  0  0  0  0  0  0  0
   21.5168   -8.8861  -15.2094 C   0  0  2  0  0  0  0  0  0  0  0  0
   20.9873   -9.0552  -16.5471 N   0  0  0  0  0  0  0  0  0  0  0  0
   21.1543   -7.5970  -14.6286 C   0  0  0  0  0  0  0  0  0  0  0  0
   21.0183   -7.4451  -13.2637 O   0  0  0  0  0  0  0  0  0  0  0  0
   20.9590   -6.6011  -15.3591 O   0  0  0  0  0  0  0  0  0  0  0  0
  1  2  1  0
  3  2  1  0
  3  4  1  6
  5  3  1  0
  5  6  1  1
  7  8  2  0
  7  5  1  0
  9  7  1  0
 10  9  1  0
 11 10  1  0
 12 11  1  0
 12 13  1  0
 13 14  1  1
 13  9  1  0
 14 15  2  0
 17 16  1  1
 17 19  1  0
 18 17  1  0
 20 19  1  6
 20 21  1  0
 21 14  1  0
 22 20  1  0
 23 22  1  0
 24 22  2  0
M  END
$$$$
