IPL.pdb
     RDKit          3D

 24 24  0  0  1  0  0  0  0  0999 V2000
   25.5424  -14.5479  -15.2433 C   0  0  0  0  0  0  0  0  0  0  0  0
   25.1995  -15.9361  -15.6632 C   0  0  0  0  0  0  0  0  0  0  0  0
   25.5878  -16.9592  -14.6589 C   0  0  2  0  0  0  0  0  0  0  0  0
   27.1158  -16.9629  -14.5451 C   0  0  0  0  0  0  0  0  0  0  0  0
   25.0926  -18.3361  -15.0727 C   0  0  2  0  0  0  0  0  0  0  0  0
   23.7588  -18.2537  -15.4976 N   0  0  0  0  0  0  0  0  0  0  0  0
   25.4480  -19.3764  -14.0958 C   0  0  0  0  0  0  0  0  0  0  0  0
   24.7468  -19.3160  -13.0111 O   0  0  0  0  0  0  0  0  0  0  0  0
   26.4334  -20.3813  -14.2250 N   0  0  0  0  0  0  0  0  0  0  0  0
   27.2485  -20.5851  -15.3993 C   0  0  0  0  0  0  0  0  0  0  0  0
   28.1965  -21.7487  -15.0569 C   0  0  0  0  0  0  0  0  0  0  0  0
   28.2325  -21.6914  -13.5815 C   0  0  0  0  0  0  0  0  0  0  0  0
   26.7845  -21.3517  -13.2043 C   0  0  1  0  0  0  0  0  0  0  0  0
   26.8752  -20.7690  -11.8388 C   0  0  0  0  0  0  0  0  0  0  0  0
   27.7506  -19.9628  -11.4615 O   0  0  0  0  0  0  0  0  0  0  0  0
   27.0615  -18.1259   -7.1583 C   0  0  0  0  0  0  0  0  0  0  0  0
   26.9186  -19.5863   -7.5515 C   0  0  2  0  0  0  0  0  0  0  0  0
   27.9628  -20.4252   -6.9027 C   0  0  0  0  0  0  0  0  0  0  0  0
   26.7434  -19.7795   -9.0172 C   0  0  0  0  0  0  0  0  0  0  0  0
   26.0963  -21.0509   -9.4509 C   0  0  2  0  0  0  0  0  0  0  0  0
   25.8952  -21.1523  -10.8818 N   0  0  0  0  0  0  0  0  0  0  0  0
   24.9008  -21.4134   -8.6960 C   0  0  0  0  0  0  0  0  0  0  0  0
   24.9913  -21.8694   -7.3966 O   0  0  0  0  0  0  0  0  0  0  0  0
   23.7666  -21.3176   -9.2138 O   0  0  0  0  0  0  0  0  0  0  0  0
  1  2  1  0
  3  2  1  0
  3  4  1  6
  5  3  1  0
  5  6  1  1
  7  8  2  0
  7  5  1  0
  9  7  1  0
 10  9  1  0
 11 10  1  0
 12 11  1  0
 12 13  1  0
 13 14  1  1
 13  9  1  0
 14 15  2  0
 17 16  1  6
 17 19  1  0
 18 17  1  0
 20 19  1  6
 20 21  1  0
 21 14  1  0
 22 20  1  0
 23 22  1  0
 24 22  2  0
M  END
$$$$
