IPL.pdb
     RDKit          3D

 24 24  0  0  1  0  0  0  0  0999 V2000
   24.1839  -15.0283  -15.6735 C   0  0  0  0  0  0  0  0  0  0  0  0
   24.7622  -16.3131  -16.1592 C   0  0  0  0  0  0  0  0  0  0  0  0
   25.0753  -17.2614  -15.0599 C   0  0  2  0  0  0  0  0  0  0  0  0
   26.2483  -16.6917  -14.2553 C   0  0  0  0  0  0  0  0  0  0  0  0
   25.4396  -18.6292  -15.6152 C   0  0  2  0  0  0  0  0  0  0  0  0
   24.5527  -18.9762  -16.6443 N   0  0  0  0  0  0  0  0  0  0  0  0
   25.6930  -19.6156  -14.5541 C   0  0  0  0  0  0  0  0  0  0  0  0
   24.6310  -19.9277  -13.8860 O   0  0  0  0  0  0  0  0  0  0  0  0
   26.9244  -20.2202  -14.2139 N   0  0  0  0  0  0  0  0  0  0  0  0
   28.1350  -20.1113  -14.9933 C   0  0  0  0  0  0  0  0  0  0  0  0
   29.2106  -20.8865  -14.2108 C   0  0  0  0  0  0  0  0  0  0  0  0
   28.6767  -20.8473  -12.8343 C   0  0  0  0  0  0  0  0  0  0  0  0
   27.1664  -21.0304  -13.0342 C   0  0  1  0  0  0  0  0  0  0  0  0
   26.5506  -20.4769  -11.7985 C   0  0  0  0  0  0  0  0  0  0  0  0
   26.8935  -19.4128  -11.2430 O   0  0  0  0  0  0  0  0  0  0  0  0
   26.4777  -21.0816   -7.2122 C   0  0  0  0  0  0  0  0  0  0  0  0
   26.7705  -20.0117   -8.2501 C   0  0  2  0  0  0  0  0  0  0  0  0
   27.3525  -18.7945   -7.6218 C   0  0  0  0  0  0  0  0  0  0  0  0
   25.6360  -19.7842   -9.1868 C   0  0  0  0  0  0  0  0  0  0  0  0
   25.0495  -20.9938   -9.8319 C   0  0  2  0  0  0  0  0  0  0  0  0
   25.4895  -21.2072  -11.1954 N   0  0  0  0  0  0  0  0  0  0  0  0
   23.6019  -21.1170   -9.6908 C   0  0  0  0  0  0  0  0  0  0  0  0
   22.8022  -21.3944  -10.7807 O   0  0  0  0  0  0  0  0  0  0  0  0
   23.0558  -20.9729   -8.5751 O   0  0  0  0  0  0  0  0  0  0  0  0
  1  2  1  0
  3  2  1  0
  3  4  1  6
  5  3  1  0
  5  6  1  6
  7  8  2  0
  7  5  1  0
  9  7  1  0
 10  9  1  0
 11 10  1  0
 12 11  1  0
 12 13  1  0
 13 14  1  1
 13  9  1  0
 14 15  2  0
 17 16  1  1
 17 19  1  0
 18 17  1  0
 20 19  1  6
 20 21  1  0
 21 14  1  0
 22 20  1  0
 23 22  1  0
 24 22  2  0
M  END
$$$$
