AYP.pdb
     RDKit          3D

 25 26  0  0  1  0  0  0  0  0999 V2000
    6.3961  -20.9557   22.3072 C   0  0  0  0  0  0  0  0  0  0  0  0
    5.3435  -20.1598   23.0400 C   0  0  2  0  0  0  0  0  0  0  0  0
    4.0701  -20.3799   22.4151 N   0  0  0  0  0  0  0  0  0  0  0  0
    5.6982  -18.7191   23.1188 C   0  0  0  0  0  0  0  0  0  0  0  0
    5.4163  -17.9782   22.1618 O   0  0  0  0  0  0  0  0  0  0  0  0
    7.2618  -10.9422   26.9572 O   0  0  0  0  0  0  0  0  0  0  0  0
    7.2857  -12.3022   26.6819 C   0  0  0  0  0  0  0  0  0  0  0  0
    6.0998  -12.9795   26.7069 C   0  0  0  0  0  0  0  0  0  0  0  0
    6.0559  -14.3201   26.4450 C   0  0  0  0  0  0  0  0  0  0  0  0
    7.1993  -15.0606   26.1422 C   0  0  0  0  0  0  0  0  0  0  0  0
    7.0347  -16.4842   25.8735 C   0  0  0  0  0  0  0  0  0  0  0  0
    6.7491  -16.8474   24.4372 C   0  0  2  0  0  0  0  0  0  0  0  0
    6.3384  -18.1961   24.2466 N   0  0  0  0  0  0  0  0  0  0  0  0
    7.9581  -16.5863   23.6301 C   0  0  0  0  0  0  0  0  0  0  0  0
    8.8817  -17.4840   23.5519 O   0  0  0  0  0  0  0  0  0  0  0  0
    8.3701  -14.3493   26.1260 C   0  0  0  0  0  0  0  0  0  0  0  0
    8.4345  -12.9832   26.3905 C   0  0  0  0  0  0  0  0  0  0  0  0
    8.1946  -15.3881   22.9072 N   0  0  0  0  0  0  0  0  0  0  0  0
    7.5099  -14.1038   22.9669 C   0  0  0  0  0  0  0  0  0  0  0  0
    7.5458  -13.6484   21.4977 C   0  0  0  0  0  0  0  0  0  0  0  0
    8.9709  -13.9951   21.1345 C   0  0  0  0  0  0  0  0  0  0  0  0
    9.2382  -15.2526   21.8901 C   0  0  1  0  0  0  0  0  0  0  0  0
   10.5646  -15.0971   22.5537 C   0  0  0  0  0  0  0  0  0  0  0  0
   10.5973  -15.0113   23.8063 O   0  0  0  0  0  0  0  0  0  0  0  0
   11.7703  -15.0410   21.8697 O   0  0  0  0  0  0  0  0  0  0  0  0
  2  1  1  6
  2  3  1  0
  4 13  1  0
  4  2  1  0
  5  4  2  0
  6  7  1  0
  7 17  2  0
  8  9  2  0
  8  7  1  0
  9 10  1  0
 10 16  2  0
 10 11  1  0
 12 11  1  1
 12 13  1  0
 14 12  1  0
 15 14  2  0
 17 16  1  0
 18 14  1  0
 18 22  1  0
 19 20  1  0
 19 18  1  0
 20 21  1  0
 22 21  1  0
 23 25  1  0
 22 23  1  1
 24 23  2  0
M  END
$$$$
