AYP.pdb
     RDKit          3D

 25 26  0  0  1  0  0  0  0  0999 V2000
    6.4548  -20.9072   22.4150 C   0  0  0  0  0  0  0  0  0  0  0  0
    5.3575  -20.1269   23.0970 C   0  0  2  0  0  0  0  0  0  0  0  0
    4.1120  -20.3937   22.4353 N   0  0  0  0  0  0  0  0  0  0  0  0
    5.6705  -18.6758   23.1588 C   0  0  0  0  0  0  0  0  0  0  0  0
    5.3224  -17.9458   22.2152 O   0  0  0  0  0  0  0  0  0  0  0  0
    7.2735  -10.8650   26.9894 O   0  0  0  0  0  0  0  0  0  0  0  0
    7.1452  -12.2199   26.7174 C   0  0  0  0  0  0  0  0  0  0  0  0
    8.2787  -12.9211   26.4187 C   0  0  0  0  0  0  0  0  0  0  0  0
    8.2197  -14.2580   26.1412 C   0  0  0  0  0  0  0  0  0  0  0  0
    7.0199  -14.9706   26.1472 C   0  0  0  0  0  0  0  0  0  0  0  0
    7.0750  -16.3953   25.8424 C   0  0  0  0  0  0  0  0  0  0  0  0
    6.7303  -16.7717   24.4226 C   0  0  2  0  0  0  0  0  0  0  0  0
    6.3449  -18.1309   24.2559 N   0  0  0  0  0  0  0  0  0  0  0  0
    7.8924  -16.4839   23.5578 C   0  0  0  0  0  0  0  0  0  0  0  0
    8.8379  -17.3547   23.4455 O   0  0  0  0  0  0  0  0  0  0  0  0
    5.9040  -14.2358   26.4508 C   0  0  0  0  0  0  0  0  0  0  0  0
    5.9446  -12.8729   26.7360 C   0  0  0  0  0  0  0  0  0  0  0  0
    8.0592  -15.2873   22.8131 N   0  0  0  0  0  0  0  0  0  0  0  0
    7.3242  -14.0312   22.8756 C   0  0  0  0  0  0  0  0  0  0  0  0
    7.3005  -13.5954   21.4002 C   0  0  0  0  0  0  0  0  0  0  0  0
    8.7280  -13.8888   21.0012 C   0  0  0  0  0  0  0  0  0  0  0  0
    9.0677  -15.1237   21.7651 C   0  0  1  0  0  0  0  0  0  0  0  0
   10.4045  -14.9050   22.3887 C   0  0  0  0  0  0  0  0  0  0  0  0
   10.4635  -14.7587   23.6347 O   0  0  0  0  0  0  0  0  0  0  0  0
   11.5926  -14.8528   21.6742 O   0  0  0  0  0  0  0  0  0  0  0  0
  2  1  1  6
  2  3  1  0
  4 13  1  0
  4  2  1  0
  5  4  2  0
  6  7  1  0
  7 17  2  0
  8  9  2  0
  8  7  1  0
  9 10  1  0
 10 16  2  0
 10 11  1  0
 12 11  1  1
 12 13  1  0
 14 12  1  0
 15 14  2  0
 17 16  1  0
 18 14  1  0
 18 22  1  0
 19 20  1  0
 19 18  1  0
 20 21  1  0
 22 21  1  0
 23 25  1  0
 22 23  1  1
 24 23  2  0
M  END
$$$$
