AYP.pdb
     RDKit          3D

 25 26  0  0  1  0  0  0  0  0999 V2000
    6.6011  -21.1081   22.4347 C   0  0  0  0  0  0  0  0  0  0  0  0
    5.5068  -20.3988   23.1947 C   0  0  2  0  0  0  0  0  0  0  0  0
    4.2376  -20.7432   22.6193 N   0  0  0  0  0  0  0  0  0  0  0  0
    5.7315  -18.9309   23.2417 C   0  0  0  0  0  0  0  0  0  0  0  0
    5.2556  -18.2214   22.3393 O   0  0  0  0  0  0  0  0  0  0  0  0
    7.5093  -11.0023   26.8187 O   0  0  0  0  0  0  0  0  0  0  0  0
    7.3344  -12.3581   26.5791 C   0  0  0  0  0  0  0  0  0  0  0  0
    8.4513  -13.1247   26.4043 C   0  0  0  0  0  0  0  0  0  0  0  0
    8.3467  -14.4661   26.1647 C   0  0  0  0  0  0  0  0  0  0  0  0
    7.1152  -15.1179   26.0866 C   0  0  0  0  0  0  0  0  0  0  0  0
    7.1219  -16.5536   25.8327 C   0  0  0  0  0  0  0  0  0  0  0  0
    6.7785  -16.9677   24.4231 C   0  0  2  0  0  0  0  0  0  0  0  0
    6.4648  -18.3478   24.2799 N   0  0  0  0  0  0  0  0  0  0  0  0
    7.9113  -16.6298   23.5378 C   0  0  0  0  0  0  0  0  0  0  0  0
    8.8686  -17.4787   23.3710 O   0  0  0  0  0  0  0  0  0  0  0  0
    6.0172  -14.3185   26.2667 C   0  0  0  0  0  0  0  0  0  0  0  0
    6.1041  -12.9499   26.5116 C   0  0  0  0  0  0  0  0  0  0  0  0
    8.0365  -15.4062   22.8296 N   0  0  0  0  0  0  0  0  0  0  0  0
    7.2423  -14.1878   22.9108 C   0  0  0  0  0  0  0  0  0  0  0  0
    7.2275  -13.7122   21.4477 C   0  0  0  0  0  0  0  0  0  0  0  0
    8.6748  -13.9277   21.0711 C   0  0  0  0  0  0  0  0  0  0  0  0
    9.0568  -15.1666   21.8080 C   0  0  1  0  0  0  0  0  0  0  0  0
   10.3693  -14.9038   22.4655 C   0  0  0  0  0  0  0  0  0  0  0  0
   11.3745  -14.7192   21.7356 O   0  0  0  0  0  0  0  0  0  0  0  0
   10.5493  -14.8506   23.8401 O   0  0  0  0  0  0  0  0  0  0  0  0
  2  1  1  6
  2  3  1  0
  4 13  1  0
  4  2  1  0
  5  4  2  0
  6  7  1  0
  7 17  2  0
  8  9  2  0
  8  7  1  0
  9 10  1  0
 10 16  2  0
 10 11  1  0
 12 11  1  1
 12 13  1  0
 14 12  1  0
 15 14  2  0
 17 16  1  0
 18 14  1  0
 18 22  1  0
 19 20  1  0
 19 18  1  0
 20 21  1  0
 22 21  1  0
 23 25  1  0
 22 23  1  1
 24 23  2  0
M  END
$$$$
