AYP.pdb
     RDKit          3D

 25 26  0  0  1  0  0  0  0  0999 V2000
    6.6415  -21.0503   22.5641 C   0  0  0  0  0  0  0  0  0  0  0  0
    5.5368  -20.3539   23.3211 C   0  0  2  0  0  0  0  0  0  0  0  0
    4.2723  -20.7279   22.7541 N   0  0  0  0  0  0  0  0  0  0  0  0
    5.7341  -18.8816   23.3522 C   0  0  0  0  0  0  0  0  0  0  0  0
    5.2307  -18.1891   22.4515 O   0  0  0  0  0  0  0  0  0  0  0  0
    7.4106  -10.8622   26.7261 O   0  0  0  0  0  0  0  0  0  0  0  0
    7.2444  -12.2271   26.5372 C   0  0  0  0  0  0  0  0  0  0  0  0
    8.3540  -12.9724   26.2562 C   0  0  0  0  0  0  0  0  0  0  0  0
    8.2573  -14.3213   26.0592 C   0  0  0  0  0  0  0  0  0  0  0  0
    7.0415  -15.0025   26.1328 C   0  0  0  0  0  0  0  0  0  0  0  0
    7.0562  -16.4434   25.9113 C   0  0  0  0  0  0  0  0  0  0  0  0
    6.7623  -16.8888   24.5001 C   0  0  2  0  0  0  0  0  0  0  0  0
    6.4721  -18.2757   24.3738 N   0  0  0  0  0  0  0  0  0  0  0  0
    7.9172  -16.5514   23.6436 C   0  0  0  0  0  0  0  0  0  0  0  0
    8.9154  -17.3654   23.5653 O   0  0  0  0  0  0  0  0  0  0  0  0
    5.9505  -14.2238   26.4163 C   0  0  0  0  0  0  0  0  0  0  0  0
    6.0295  -12.8480   26.6199 C   0  0  0  0  0  0  0  0  0  0  0  0
    8.0219  -15.3651   22.8717 N   0  0  0  0  0  0  0  0  0  0  0  0
    7.2225  -14.1479   22.9061 C   0  0  0  0  0  0  0  0  0  0  0  0
    7.1769  -13.7476   21.4211 C   0  0  0  0  0  0  0  0  0  0  0  0
    8.6179  -13.9754   21.0279 C   0  0  0  0  0  0  0  0  0  0  0  0
    9.0210  -15.1732   21.8195 C   0  0  1  0  0  0  0  0  0  0  0  0
   10.3443  -14.8710   22.4371 C   0  0  0  0  0  0  0  0  0  0  0  0
   10.3994  -14.7192   23.6827 O   0  0  0  0  0  0  0  0  0  0  0  0
   11.5239  -14.7466   21.7175 O   0  0  0  0  0  0  0  0  0  0  0  0
  2  1  1  6
  2  3  1  0
  4 13  1  0
  4  2  1  0
  5  4  2  0
  6  7  1  0
  7 17  2  0
  8  9  2  0
  8  7  1  0
  9 10  1  0
 10 16  2  0
 10 11  1  0
 12 11  1  1
 12 13  1  0
 14 12  1  0
 15 14  2  0
 17 16  1  0
 18 14  1  0
 18 22  1  0
 19 20  1  0
 19 18  1  0
 20 21  1  0
 22 21  1  0
 23 25  1  0
 22 23  1  1
 24 23  2  0
M  END
$$$$
