AYP.pdb
     RDKit          3D

 25 26  0  0  1  0  0  0  0  0999 V2000
    6.3046  -20.1923   22.2793 C   0  0  0  0  0  0  0  0  0  0  0  0
    5.6939  -19.2863   23.3207 C   0  0  2  0  0  0  0  0  0  0  0  0
    4.3045  -19.6141   23.4703 N   0  0  0  0  0  0  0  0  0  0  0  0
    5.9094  -17.8522   22.9974 C   0  0  0  0  0  0  0  0  0  0  0  0
    5.0013  -17.2217   22.4298 O   0  0  0  0  0  0  0  0  0  0  0  0
    5.8372  -11.4618   27.5494 O   0  0  0  0  0  0  0  0  0  0  0  0
    6.3999  -12.4408   26.7427 C   0  0  0  0  0  0  0  0  0  0  0  0
    7.3156  -12.0492   25.8080 C   0  0  0  0  0  0  0  0  0  0  0  0
    7.9059  -12.9647   24.9826 C   0  0  0  0  0  0  0  0  0  0  0  0
    7.6125  -14.3275   25.0463 C   0  0  0  0  0  0  0  0  0  0  0  0
    8.3065  -15.2154   24.1212 C   0  0  0  0  0  0  0  0  0  0  0  0
    7.4440  -15.8555   23.0616 C   0  0  2  0  0  0  0  0  0  0  0  0
    7.1103  -17.2136   23.3222 N   0  0  0  0  0  0  0  0  0  0  0  0
    8.1393  -15.7640   21.7618 C   0  0  0  0  0  0  0  0  0  0  0  0
    8.7055  -16.8111   21.2638 O   0  0  0  0  0  0  0  0  0  0  0  0
    6.6902  -14.6841   25.9948 C   0  0  0  0  0  0  0  0  0  0  0  0
    6.0782  -13.7654   26.8445 C   0  0  0  0  0  0  0  0  0  0  0  0
    8.2376  -14.5783   20.9882 N   0  0  0  0  0  0  0  0  0  0  0  0
    7.7376  -13.2367   21.2568 C   0  0  0  0  0  0  0  0  0  0  0  0
    7.3299  -12.7555   19.8535 C   0  0  0  0  0  0  0  0  0  0  0  0
    8.5149  -13.2270   19.0432 C   0  0  0  0  0  0  0  0  0  0  0  0
    8.8947  -14.5200   19.6818 C   0  0  1  0  0  0  0  0  0  0  0  0
   10.3743  -14.5043   19.8676 C   0  0  0  0  0  0  0  0  0  0  0  0
   10.8289  -14.2137   21.0018 O   0  0  0  0  0  0  0  0  0  0  0  0
   11.2838  -14.7921   18.8604 O   0  0  0  0  0  0  0  0  0  0  0  0
  2  1  1  6
  2  3  1  0
  4 13  1  0
  4  2  1  0
  5  4  2  0
  6  7  1  0
  7 17  2  0
  8  9  2  0
  8  7  1  0
  9 10  1  0
 10 16  2  0
 10 11  1  0
 12 11  1  1
 12 13  1  0
 14 12  1  0
 15 14  2  0
 17 16  1  0
 18 14  1  0
 18 22  1  0
 19 20  1  0
 19 18  1  0
 20 21  1  0
 22 21  1  0
 23 25  1  0
 22 23  1  1
 24 23  2  0
M  END
$$$$
