AYP.pdb
     RDKit          3D

 25 26  0  0  1  0  0  0  0  0999 V2000
   11.9830  -18.6698   21.8909 C   0  0  0  0  0  0  0  0  0  0  0  0
   11.5685  -17.3312   21.3300 C   0  0  2  0  0  0  0  0  0  0  0  0
   12.6216  -16.8265   20.4954 N   0  0  0  0  0  0  0  0  0  0  0  0
   11.1866  -16.3785   22.4043 C   0  0  0  0  0  0  0  0  0  0  0  0
   12.0491  -15.6069   22.8570 O   0  0  0  0  0  0  0  0  0  0  0  0
    5.6814  -11.9246   27.8501 O   0  0  0  0  0  0  0  0  0  0  0  0
    6.2582  -12.6476   26.8153 C   0  0  0  0  0  0  0  0  0  0  0  0
    6.1381  -14.0079   26.8427 C   0  0  0  0  0  0  0  0  0  0  0  0
    6.6839  -14.7769   25.8534 C   0  0  0  0  0  0  0  0  0  0  0  0
    7.3823  -14.2265   24.7779 C   0  0  0  0  0  0  0  0  0  0  0  0
    7.9172  -15.1411   23.7763 C   0  0  0  0  0  0  0  0  0  0  0  0
    9.3838  -15.4688   23.9104 C   0  0  2  0  0  0  0  0  0  0  0  0
    9.8811  -16.3430   22.9043 N   0  0  0  0  0  0  0  0  0  0  0  0
    9.6183  -16.0697   25.2390 C   0  0  0  0  0  0  0  0  0  0  0  0
    9.5767  -17.3518   25.3780 O   0  0  0  0  0  0  0  0  0  0  0  0
    7.4830  -12.8601   24.7830 C   0  0  0  0  0  0  0  0  0  0  0  0
    6.9336  -12.0601   25.7823 C   0  0  0  0  0  0  0  0  0  0  0  0
    9.8970  -15.3267   26.4156 N   0  0  0  0  0  0  0  0  0  0  0  0
    9.7521  -13.9024   26.6842 C   0  0  0  0  0  0  0  0  0  0  0  0
   10.9613  -13.6187   27.5923 C   0  0  0  0  0  0  0  0  0  0  0  0
   10.9000  -14.8122   28.5169 C   0  0  0  0  0  0  0  0  0  0  0  0
   10.4375  -15.9242   27.6375 C   0  0  1  0  0  0  0  0  0  0  0  0
    9.3511  -16.6415   28.3650 C   0  0  0  0  0  0  0  0  0  0  0  0
    8.1705  -16.5025   27.9596 O   0  0  0  0  0  0  0  0  0  0  0  0
    9.5649  -17.4565   29.4672 O   0  0  0  0  0  0  0  0  0  0  0  0
  2  1  1  1
  2  3  1  0
  4 13  1  0
  4  2  1  0
  5  4  2  0
  6  7  1  0
  7 17  2  0
  8  9  2  0
  8  7  1  0
  9 10  1  0
 10 16  2  0
 10 11  1  0
 12 11  1  6
 12 13  1  0
 14 12  1  0
 15 14  2  0
 17 16  1  0
 18 14  1  0
 18 22  1  0
 19 20  1  0
 19 18  1  0
 20 21  1  0
 22 21  1  0
 23 25  1  0
 22 23  1  1
 24 23  2  0
M  END
$$$$
