AYP.pdb
     RDKit          3D

 25 26  0  0  1  0  0  0  0  0999 V2000
   11.9520  -16.5983   19.8161 C   0  0  0  0  0  0  0  0  0  0  0  0
   11.7711  -17.2286   21.1756 C   0  0  2  0  0  0  0  0  0  0  0  0
   10.8709  -18.3407   21.0605 N   0  0  0  0  0  0  0  0  0  0  0  0
   11.3246  -16.2365   22.1874 C   0  0  0  0  0  0  0  0  0  0  0  0
   12.0712  -15.2820   22.4627 O   0  0  0  0  0  0  0  0  0  0  0  0
    5.7467  -11.7327   27.4531 O   0  0  0  0  0  0  0  0  0  0  0  0
    6.3446  -12.5358   26.4920 C   0  0  0  0  0  0  0  0  0  0  0  0
    6.2244  -13.8897   26.6268 C   0  0  0  0  0  0  0  0  0  0  0  0
    6.7904  -14.7350   25.7142 C   0  0  0  0  0  0  0  0  0  0  0  0
    7.5104  -14.2719   24.6121 C   0  0  0  0  0  0  0  0  0  0  0  0
    8.0659  -15.2634   23.6987 C   0  0  0  0  0  0  0  0  0  0  0  0
    9.5514  -15.4990   23.8178 C   0  0  2  0  0  0  0  0  0  0  0  0
   10.0866  -16.3657   22.8248 N   0  0  0  0  0  0  0  0  0  0  0  0
    9.8405  -16.0522   25.1563 C   0  0  0  0  0  0  0  0  0  0  0  0
   10.0034  -17.3240   25.3016 O   0  0  0  0  0  0  0  0  0  0  0  0
    7.6106  -12.9094   24.5088 C   0  0  0  0  0  0  0  0  0  0  0  0
    7.0408  -12.0324   25.4288 C   0  0  0  0  0  0  0  0  0  0  0  0
    9.9595  -15.2725   26.3361 N   0  0  0  0  0  0  0  0  0  0  0  0
    9.5813  -13.8890   26.5904 C   0  0  0  0  0  0  0  0  0  0  0  0
   10.7002  -13.4151   27.5342 C   0  0  0  0  0  0  0  0  0  0  0  0
   10.7998  -14.6016   28.4644 C   0  0  0  0  0  0  0  0  0  0  0  0
   10.5486  -15.7744   27.5783 C   0  0  1  0  0  0  0  0  0  0  0  0
    9.5672  -16.6543   28.2760 C   0  0  0  0  0  0  0  0  0  0  0  0
    8.3924  -16.7031   27.8348 O   0  0  0  0  0  0  0  0  0  0  0  0
    9.8734  -17.4258   29.3877 O   0  0  0  0  0  0  0  0  0  0  0  0
  2  1  1  6
  2  3  1  0
  4 13  1  0
  4  2  1  0
  5  4  2  0
  6  7  1  0
  7 17  2  0
  8  9  2  0
  8  7  1  0
  9 10  1  0
 10 16  2  0
 10 11  1  0
 12 11  1  6
 12 13  1  0
 14 12  1  0
 15 14  2  0
 17 16  1  0
 18 14  1  0
 18 22  1  0
 19 20  1  0
 19 18  1  0
 20 21  1  0
 22 21  1  0
 23 25  1  0
 22 23  1  1
 24 23  2  0
M  END
$$$$
