AYP.pdb
     RDKit          3D

 25 26  0  0  1  0  0  0  0  0999 V2000
    6.0291  -20.6035   21.8317 C   0  0  0  0  0  0  0  0  0  0  0  0
    5.0677  -19.8232   22.6949 C   0  0  2  0  0  0  0  0  0  0  0  0
    3.7382  -19.9825   22.1777 N   0  0  0  0  0  0  0  0  0  0  0  0
    5.4663  -18.3967   22.8120 C   0  0  0  0  0  0  0  0  0  0  0  0
    5.0532  -17.5863   21.9653 O   0  0  0  0  0  0  0  0  0  0  0  0
    7.1851  -10.8723   26.9311 O   0  0  0  0  0  0  0  0  0  0  0  0
    7.2453  -12.2116   26.5722 C   0  0  0  0  0  0  0  0  0  0  0  0
    6.0862  -12.9336   26.6037 C   0  0  0  0  0  0  0  0  0  0  0  0
    6.0786  -14.2569   26.2621 C   0  0  0  0  0  0  0  0  0  0  0  0
    7.2335  -14.9341   25.8684 C   0  0  0  0  0  0  0  0  0  0  0  0
    7.1081  -16.3443   25.5200 C   0  0  0  0  0  0  0  0  0  0  0  0
    6.7313  -16.6304   24.0873 C   0  0  2  0  0  0  0  0  0  0  0  0
    6.2921  -17.9633   23.8540 N   0  0  0  0  0  0  0  0  0  0  0  0
    7.8925  -16.3403   23.2221 C   0  0  0  0  0  0  0  0  0  0  0  0
    8.7809  -17.2531   23.0158 O   0  0  0  0  0  0  0  0  0  0  0  0
    8.3768  -14.1793   25.8485 C   0  0  0  0  0  0  0  0  0  0  0  0
    8.4040  -12.8299   26.1934 C   0  0  0  0  0  0  0  0  0  0  0  0
    8.1181  -15.0974   22.5752 N   0  0  0  0  0  0  0  0  0  0  0  0
    7.4714  -13.8065   22.7681 C   0  0  0  0  0  0  0  0  0  0  0  0
    7.4350  -13.2447   21.3362 C   0  0  0  0  0  0  0  0  0  0  0  0
    8.8275  -13.5943   20.8654 C   0  0  0  0  0  0  0  0  0  0  0  0
    9.1049  -14.9097   21.5108 C   0  0  1  0  0  0  0  0  0  0  0  0
   10.4708  -14.8323   22.1045 C   0  0  0  0  0  0  0  0  0  0  0  0
   10.5736  -14.7595   23.3541 O   0  0  0  0  0  0  0  0  0  0  0  0
   11.6403  -14.8357   21.3583 O   0  0  0  0  0  0  0  0  0  0  0  0
  2  1  1  6
  2  3  1  0
  4 13  1  0
  4  2  1  0
  5  4  2  0
  6  7  1  0
  7 17  2  0
  8  9  2  0
  8  7  1  0
  9 10  1  0
 10 16  2  0
 10 11  1  0
 12 11  1  1
 12 13  1  0
 14 12  1  0
 15 14  2  0
 17 16  1  0
 18 14  1  0
 18 22  1  0
 19 20  1  0
 19 18  1  0
 20 21  1  0
 22 21  1  0
 23 25  1  0
 22 23  1  1
 24 23  2  0
M  END
$$$$
