AYP.pdb
     RDKit          3D

 25 26  0  0  1  0  0  0  0  0999 V2000
    6.4632  -20.0998   24.3199 C   0  0  0  0  0  0  0  0  0  0  0  0
    7.2590  -19.2680   25.2961 C   0  0  2  0  0  0  0  0  0  0  0  0
    6.8091  -19.5520   26.6293 N   0  0  0  0  0  0  0  0  0  0  0  0
    7.1922  -17.8204   24.9684 C   0  0  0  0  0  0  0  0  0  0  0  0
    6.1542  -17.1916   25.2355 O   0  0  0  0  0  0  0  0  0  0  0  0
    9.9887  -14.5481   30.0733 O   0  0  0  0  0  0  0  0  0  0  0  0
    9.8270  -14.6076   28.6961 C   0  0  0  0  0  0  0  0  0  0  0  0
   10.4960  -15.5854   28.0165 C   0  0  0  0  0  0  0  0  0  0  0  0
   10.3790  -15.6973   26.6595 C   0  0  0  0  0  0  0  0  0  0  0  0
    9.5836  -14.8348   25.9039 C   0  0  0  0  0  0  0  0  0  0  0  0
    9.5277  -15.0503   24.4630 C   0  0  0  0  0  0  0  0  0  0  0  0
    8.3203  -15.8047   23.9634 C   0  0  2  0  0  0  0  0  0  0  0  0
    8.2739  -17.1673   24.3695 N   0  0  0  0  0  0  0  0  0  0  0  0
    8.2905  -15.7333   22.4885 C   0  0  0  0  0  0  0  0  0  0  0  0
    8.4383  -16.8097   21.7925 O   0  0  0  0  0  0  0  0  0  0  0  0
    8.9277  -13.8669   26.6181 C   0  0  0  0  0  0  0  0  0  0  0  0
    9.0348  -13.7373   28.0009 C   0  0  0  0  0  0  0  0  0  0  0  0
    8.1045  -14.5366   21.7486 N   0  0  0  0  0  0  0  0  0  0  0  0
    7.9294  -13.1653   22.2078 C   0  0  0  0  0  0  0  0  0  0  0  0
    6.9295  -12.6047   21.1815 C   0  0  0  0  0  0  0  0  0  0  0  0
    7.5110  -13.1532   19.8993 C   0  0  0  0  0  0  0  0  0  0  0  0
    8.0340  -14.4947   20.2873 C   0  0  1  0  0  0  0  0  0  0  0  0
    9.4069  -14.6164   19.7178 C   0  0  0  0  0  0  0  0  0  0  0  0
   10.3865  -14.4063   20.4752 O   0  0  0  0  0  0  0  0  0  0  0  0
    9.6701  -14.9489   18.3969 O   0  0  0  0  0  0  0  0  0  0  0  0
  2  1  1  6
  2  3  1  0
  4 13  1  0
  4  2  1  0
  5  4  2  0
  6  7  1  0
  7 17  2  0
  8  9  2  0
  8  7  1  0
  9 10  1  0
 10 16  2  0
 10 11  1  0
 12 11  1  6
 12 13  1  0
 14 12  1  0
 15 14  2  0
 17 16  1  0
 18 14  1  0
 18 22  1  0
 19 20  1  0
 19 18  1  0
 20 21  1  0
 22 21  1  0
 23 25  1  0
 22 23  1  6
 24 23  2  0
M  END
$$$$
