AYP.pdb
     RDKit          3D

 25 26  0  0  1  0  0  0  0  0999 V2000
    6.4547  -20.8942   22.3101 C   0  0  0  0  0  0  0  0  0  0  0  0
    5.4738  -20.1348   23.1699 C   0  0  2  0  0  0  0  0  0  0  0  0
    4.1391  -20.4354   22.7354 N   0  0  0  0  0  0  0  0  0  0  0  0
    5.7574  -18.6763   23.1717 C   0  0  0  0  0  0  0  0  0  0  0  0
    5.2234  -17.9597   22.3082 O   0  0  0  0  0  0  0  0  0  0  0  0
    6.9579  -10.8980   27.0117 O   0  0  0  0  0  0  0  0  0  0  0  0
    7.0161  -12.2414   26.6685 C   0  0  0  0  0  0  0  0  0  0  0  0
    8.2300  -12.7578   26.3144 C   0  0  0  0  0  0  0  0  0  0  0  0
    8.3540  -14.0734   25.9656 C   0  0  0  0  0  0  0  0  0  0  0  0
    7.2674  -14.9489   25.9516 C   0  0  0  0  0  0  0  0  0  0  0  0
    7.5161  -16.3336   25.5690 C   0  0  0  0  0  0  0  0  0  0  0  0
    6.9861  -16.7411   24.2164 C   0  0  2  0  0  0  0  0  0  0  0  0
    6.6094  -18.1099   24.1249 N   0  0  0  0  0  0  0  0  0  0  0  0
    8.0111  -16.4472   23.1946 C   0  0  0  0  0  0  0  0  0  0  0  0
    8.8167  -17.3789   22.8097 O   0  0  0  0  0  0  0  0  0  0  0  0
    6.0663  -14.3970   26.3121 C   0  0  0  0  0  0  0  0  0  0  0  0
    5.9205  -13.0588   26.6704 C   0  0  0  0  0  0  0  0  0  0  0  0
    8.1876  -15.1808   22.5788 N   0  0  0  0  0  0  0  0  0  0  0  0
    7.5906  -13.8904   22.8955 C   0  0  0  0  0  0  0  0  0  0  0  0
    7.4074  -13.2667   21.5009 C   0  0  0  0  0  0  0  0  0  0  0  0
    8.7328  -13.6153   20.8647 C   0  0  0  0  0  0  0  0  0  0  0  0
    9.0547  -14.9613   21.4203 C   0  0  1  0  0  0  0  0  0  0  0  0
   10.4788  -14.9290   21.8619 C   0  0  0  0  0  0  0  0  0  0  0  0
   10.7194  -14.8824   23.0937 O   0  0  0  0  0  0  0  0  0  0  0  0
   11.5593  -14.9473   20.9919 O   0  0  0  0  0  0  0  0  0  0  0  0
  2  1  1  6
  2  3  1  0
  4 13  1  0
  4  2  1  0
  5  4  2  0
  6  7  1  0
  7 17  2  0
  8  9  2  0
  8  7  1  0
  9 10  1  0
 10 16  2  0
 10 11  1  0
 12 11  1  1
 12 13  1  0
 14 12  1  0
 15 14  2  0
 17 16  1  0
 18 14  1  0
 18 22  1  0
 19 20  1  0
 19 18  1  0
 20 21  1  0
 22 21  1  0
 23 25  1  0
 22 23  1  1
 24 23  2  0
M  END
$$$$
