AYP.pdb
     RDKit          3D

 25 26  0  0  1  0  0  0  0  0999 V2000
   12.0495  -18.9375   22.0784 C   0  0  0  0  0  0  0  0  0  0  0  0
   11.5509  -17.6352   21.5007 C   0  0  2  0  0  0  0  0  0  0  0  0
   12.4745  -17.1827   20.4993 N   0  0  0  0  0  0  0  0  0  0  0  0
   11.3139  -16.6187   22.5581 C   0  0  0  0  0  0  0  0  0  0  0  0
   12.2043  -15.7867   22.8016 O   0  0  0  0  0  0  0  0  0  0  0  0
    6.8811  -12.8796   19.0112 O   0  0  0  0  0  0  0  0  0  0  0  0
    7.2644  -13.3692   20.2519 C   0  0  0  0  0  0  0  0  0  0  0  0
    6.7693  -14.5814   20.6406 C   0  0  0  0  0  0  0  0  0  0  0  0
    7.1082  -15.1184   21.8508 C   0  0  0  0  0  0  0  0  0  0  0  0
    7.9643  -14.4710   22.7426 C   0  0  0  0  0  0  0  0  0  0  0  0
    8.2624  -15.1392   24.0038 C   0  0  0  0  0  0  0  0  0  0  0  0
    9.6935  -15.5816   24.1844 C   0  0  2  0  0  0  0  0  0  0  0  0
   10.1124  -16.5904   23.2730 N   0  0  0  0  0  0  0  0  0  0  0  0
    9.8709  -16.0686   25.5674 C   0  0  0  0  0  0  0  0  0  0  0  0
   10.0906  -17.3220   25.7813 O   0  0  0  0  0  0  0  0  0  0  0  0
    8.4416  -13.2582   22.3202 C   0  0  0  0  0  0  0  0  0  0  0  0
    8.1073  -12.6951   21.0907 C   0  0  0  0  0  0  0  0  0  0  0  0
    9.8193  -15.2421   26.7199 N   0  0  0  0  0  0  0  0  0  0  0  0
    9.1707  -13.9539   26.9243 C   0  0  0  0  0  0  0  0  0  0  0  0
   10.1625  -13.2356   27.8560 C   0  0  0  0  0  0  0  0  0  0  0  0
   10.4855  -14.3470   28.8273 C   0  0  0  0  0  0  0  0  0  0  0  0
   10.4824  -15.5752   27.9814 C   0  0  1  0  0  0  0  0  0  0  0  0
    9.6879  -16.6092   28.7050 C   0  0  0  0  0  0  0  0  0  0  0  0
    8.5348  -16.8761   28.2847 O   0  0  0  0  0  0  0  0  0  0  0  0
   10.1459  -17.2976   29.8190 O   0  0  0  0  0  0  0  0  0  0  0  0
  2  1  1  1
  2  3  1  0
  4 13  1  0
  4  2  1  0
  5  4  2  0
  6  7  1  0
  7 17  2  0
  8  9  2  0
  8  7  1  0
  9 10  1  0
 10 16  2  0
 10 11  1  0
 12 11  1  6
 12 13  1  0
 14 12  1  0
 15 14  2  0
 17 16  1  0
 18 14  1  0
 18 22  1  0
 19 20  1  0
 19 18  1  0
 20 21  1  0
 22 21  1  0
 23 25  1  0
 22 23  1  1
 24 23  2  0
M  END
$$$$
