CIV.pdb
     RDKit          3D

 22 21  0  0  1  0  0  0  0  0999 V2000
    9.3241  -15.7256   20.2454 N   0  0  0  0  0  0  0  0  0  0  0  0
    8.4434  -16.1040   21.3264 C   0  0  1  0  0  0  0  0  0  0  0  0
    8.5264  -17.6037   21.4997 C   0  0  0  0  0  0  0  0  0  0  0  0
    7.4852  -18.3428   20.1942 S   0  0  0  0  0  0  0  0  0  0  0  0
    8.8049  -15.3751   22.5539 C   0  0  0  0  0  0  0  0  0  0  0  0
    9.9584  -14.8897   22.6526 O   0  0  0  0  0  0  0  0  0  0  0  0
    5.4289  -12.1048   25.4408 C   0  0  0  0  0  0  0  0  0  0  0  0
    6.6301  -12.6687   24.7110 C   0  0  0  0  0  0  0  0  0  0  0  0
    7.1724  -13.7987   25.5242 C   0  0  2  0  0  0  0  0  0  0  0  0
    7.5960  -13.2743   26.8781 C   0  0  0  0  0  0  0  0  0  0  0  0
    8.3358  -14.4998   24.8598 C   0  0  2  0  0  0  0  0  0  0  0  0
    7.9283  -15.1806   23.6473 N   0  0  0  0  0  0  0  0  0  0  0  0
    9.0065  -15.4452   25.8049 C   0  0  0  0  0  0  0  0  0  0  0  0
    8.8465  -16.6890   25.6864 O   0  0  0  0  0  0  0  0  0  0  0  0
   11.2947  -13.8154   28.9605 C   0  0  0  0  0  0  0  0  0  0  0  0
   10.7684  -15.2239   29.0771 C   0  0  2  0  0  0  0  0  0  0  0  0
   11.7692  -16.0096   29.8975 C   0  0  0  0  0  0  0  0  0  0  0  0
   10.5558  -15.8744   27.7357 C   0  0  2  0  0  0  0  0  0  0  0  0
    9.8373  -14.9849   26.8567 N   0  0  0  0  0  0  0  0  0  0  0  0
    9.8433  -17.1545   27.9491 C   0  0  0  0  0  0  0  0  0  0  0  0
   10.6195  -18.2907   28.1330 O   0  0  0  0  0  0  0  0  0  0  0  0
    8.5911  -17.2445   27.9688 O   0  0  0  0  0  0  0  0  0  0  0  0
  2  1  1  6
  2  5  1  0
  3  2  1  0
  4  3  1  0
  5 12  1  0
  5  6  2  0
  7  8  1  0
  8  9  1  0
  9 10  1  1
 11  9  1  0
 11 13  1  0
 11 12  1  6
 13 14  2  0
 16 15  1  6
 16 17  1  0
 16 18  1  0
 18 20  1  0
 18 19  1  6
 19 13  1  0
 20 21  1  0
 22 20  2  0
M  END
$$$$
