CIV.pdb
     RDKit          3D

 22 21  0  0  1  0  0  0  0  0999 V2000
    6.4379  -16.3832   21.0475 N   0  0  0  0  0  0  0  0  0  0  0  0
    6.0940  -16.5405   22.4419 C   0  0  1  0  0  0  0  0  0  0  0  0
    5.9503  -18.0181   22.7286 C   0  0  0  0  0  0  0  0  0  0  0  0
    4.3567  -18.5416   22.0071 S   0  0  0  0  0  0  0  0  0  0  0  0
    7.1123  -15.8992   23.2908 C   0  0  0  0  0  0  0  0  0  0  0  0
    8.3046  -15.8819   22.8983 O   0  0  0  0  0  0  0  0  0  0  0  0
    5.8448  -11.8739   26.7669 C   0  0  0  0  0  0  0  0  0  0  0  0
    6.6347  -12.6173   25.7100 C   0  0  0  0  0  0  0  0  0  0  0  0
    7.3391  -13.7531   26.3777 C   0  0  2  0  0  0  0  0  0  0  0  0
    8.4682  -13.2061   27.2224 C   0  0  0  0  0  0  0  0  0  0  0  0
    7.8791  -14.7711   25.3986 C   0  0  2  0  0  0  0  0  0  0  0  0
    6.8358  -15.2915   24.5382 N   0  0  0  0  0  0  0  0  0  0  0  0
    8.5889  -15.8791   26.1094 C   0  0  0  0  0  0  0  0  0  0  0  0
    7.9782  -16.5981   26.9442 O   0  0  0  0  0  0  0  0  0  0  0  0
   12.8694  -16.5929   25.5745 C   0  0  0  0  0  0  0  0  0  0  0  0
   11.8170  -17.6727   25.5435 C   0  0  2  0  0  0  0  0  0  0  0  0
   11.4128  -17.8630   24.0971 C   0  0  0  0  0  0  0  0  0  0  0  0
   10.6174  -17.3351   26.3889 C   0  0  2  0  0  0  0  0  0  0  0  0
    9.9580  -16.1598   25.8749 N   0  0  0  0  0  0  0  0  0  0  0  0
   11.0701  -17.1621   27.7878 C   0  0  0  0  0  0  0  0  0  0  0  0
   10.9680  -15.8907   28.3360 O   0  0  0  0  0  0  0  0  0  0  0  0
   11.5319  -18.1039   28.4779 O   0  0  0  0  0  0  0  0  0  0  0  0
  2  1  1  6
  2  5  1  0
  3  2  1  0
  4  3  1  0
  5 12  1  0
  5  6  2  0
  7  8  1  0
  8  9  1  0
  9 10  1  6
 11  9  1  0
 11 13  1  0
 11 12  1  1
 13 14  2  0
 16 15  1  6
 16 17  1  0
 16 18  1  0
 18 20  1  0
 18 19  1  6
 19 13  1  0
 20 21  1  0
 22 20  2  0
M  END
$$$$
