CIV.pdb
     RDKit          3D

 22 21  0  0  1  0  0  0  0  0999 V2000
    8.2194  -14.7432   20.2633 N   0  0  0  0  0  0  0  0  0  0  0  0
    7.5145  -15.3485   21.3697 C   0  0  1  0  0  0  0  0  0  0  0  0
    7.5033  -16.8457   21.1596 C   0  0  0  0  0  0  0  0  0  0  0  0
    5.7667  -17.3216   20.8560 S   0  0  0  0  0  0  0  0  0  0  0  0
    8.1448  -14.9639   22.6439 C   0  0  0  0  0  0  0  0  0  0  0  0
    9.3978  -14.9403   22.7170 O   0  0  0  0  0  0  0  0  0  0  0  0
    5.8758  -11.4804   26.2699 C   0  0  0  0  0  0  0  0  0  0  0  0
    6.8394  -12.1874   25.3396 C   0  0  0  0  0  0  0  0  0  0  0  0
    7.2232  -13.4838   25.9752 C   0  0  2  0  0  0  0  0  0  0  0  0
    7.9598  -13.2025   27.2659 C   0  0  0  0  0  0  0  0  0  0  0  0
    8.0761  -14.3521   25.0779 C   0  0  2  0  0  0  0  0  0  0  0  0
    7.4247  -14.6136   23.8102 N   0  0  0  0  0  0  0  0  0  0  0  0
    8.4503  -15.6291   25.7607 C   0  0  0  0  0  0  0  0  0  0  0  0
    7.5597  -16.4107   26.1881 O   0  0  0  0  0  0  0  0  0  0  0  0
   12.6411  -16.9745   26.1062 C   0  0  0  0  0  0  0  0  0  0  0  0
   11.4077  -17.8151   25.8900 C   0  0  2  0  0  0  0  0  0  0  0  0
   11.1837  -17.9059   24.3956 C   0  0  0  0  0  0  0  0  0  0  0  0
   10.1930  -17.2458   26.5743 C   0  0  2  0  0  0  0  0  0  0  0  0
    9.8034  -16.0048   25.9511 N   0  0  0  0  0  0  0  0  0  0  0  0
   10.5052  -17.0818   28.0121 C   0  0  0  0  0  0  0  0  0  0  0  0
   10.6943  -18.2379   28.7570 O   0  0  0  0  0  0  0  0  0  0  0  0
   10.6023  -15.9595   28.5666 O   0  0  0  0  0  0  0  0  0  0  0  0
  2  1  1  6
  2  5  1  0
  3  2  1  0
  4  3  1  0
  5 12  1  0
  5  6  2  0
  7  8  1  0
  8  9  1  0
  9 10  1  1
 11  9  1  0
 11 13  1  0
 11 12  1  6
 13 14  2  0
 16 15  1  6
 16 17  1  0
 16 18  1  0
 18 20  1  0
 18 19  1  6
 19 13  1  0
 20 21  1  0
 22 20  2  0
M  END
$$$$
