CIV.pdb
     RDKit          3D

 22 21  0  0  1  0  0  0  0  0999 V2000
    8.7528  -15.5771   19.9625 N   0  0  0  0  0  0  0  0  0  0  0  0
    7.9041  -15.9383   21.0746 C   0  0  1  0  0  0  0  0  0  0  0  0
    7.6959  -17.4355   21.0424 C   0  0  0  0  0  0  0  0  0  0  0  0
    6.2158  -17.7392   20.0169 S   0  0  0  0  0  0  0  0  0  0  0  0
    8.5034  -15.4808   22.3396 C   0  0  0  0  0  0  0  0  0  0  0  0
    9.7523  -15.5090   22.4631 O   0  0  0  0  0  0  0  0  0  0  0  0
    7.3238  -11.9615   27.2344 C   0  0  0  0  0  0  0  0  0  0  0  0
    8.2195  -13.0266   26.6371 C   0  0  0  0  0  0  0  0  0  0  0  0
    7.5689  -13.5262   25.3884 C   0  0  2  0  0  0  0  0  0  0  0  0
    6.1994  -14.0704   25.7285 C   0  0  0  0  0  0  0  0  0  0  0  0
    8.3814  -14.5887   24.6832 C   0  0  2  0  0  0  0  0  0  0  0  0
    7.7574  -15.0040   23.4431 N   0  0  0  0  0  0  0  0  0  0  0  0
    8.6271  -15.7619   25.5778 C   0  0  0  0  0  0  0  0  0  0  0  0
    7.6630  -16.4376   26.0257 O   0  0  0  0  0  0  0  0  0  0  0  0
   12.6438  -17.2862   26.1131 C   0  0  0  0  0  0  0  0  0  0  0  0
   11.3712  -18.0956   26.1153 C   0  0  2  0  0  0  0  0  0  0  0  0
   11.0770  -18.4718   24.6787 C   0  0  0  0  0  0  0  0  0  0  0  0
   10.2108  -17.3464   26.7152 C   0  0  2  0  0  0  0  0  0  0  0  0
    9.9365  -16.1541   25.9515 N   0  0  0  0  0  0  0  0  0  0  0  0
   10.5322  -17.0495   28.1295 C   0  0  0  0  0  0  0  0  0  0  0  0
   10.6874  -18.1307   28.9863 O   0  0  0  0  0  0  0  0  0  0  0  0
   10.6657  -15.8810   28.5691 O   0  0  0  0  0  0  0  0  0  0  0  0
  2  1  1  6
  2  5  1  0
  3  2  1  0
  4  3  1  0
  5 12  1  0
  5  6  2  0
  7  8  1  0
  8  9  1  0
  9 10  1  1
 11  9  1  0
 11 13  1  0
 11 12  1  6
 13 14  2  0
 16 15  1  6
 16 17  1  0
 16 18  1  0
 18 20  1  0
 18 19  1  6
 19 13  1  0
 20 21  1  0
 22 20  2  0
M  END
$$$$
