CIV.pdb
     RDKit          3D

 22 21  0  0  1  0  0  0  0  0999 V2000
    8.7332  -15.6142   20.2527 N   0  0  0  0  0  0  0  0  0  0  0  0
    7.8589  -15.8841   21.3708 C   0  0  1  0  0  0  0  0  0  0  0  0
    7.6683  -17.3807   21.4701 C   0  0  0  0  0  0  0  0  0  0  0  0
    6.5966  -17.8685   20.0745 S   0  0  0  0  0  0  0  0  0  0  0  0
    8.4189  -15.3053   22.6037 C   0  0  0  0  0  0  0  0  0  0  0  0
    9.6637  -15.3138   22.7658 O   0  0  0  0  0  0  0  0  0  0  0  0
    6.9394  -11.4636   27.1910 C   0  0  0  0  0  0  0  0  0  0  0  0
    7.9146  -12.5056   26.6842 C   0  0  0  0  0  0  0  0  0  0  0  0
    7.3134  -13.1484   25.4771 C   0  0  2  0  0  0  0  0  0  0  0  0
    6.0073  -13.8047   25.8655 C   0  0  0  0  0  0  0  0  0  0  0  0
    8.2267  -14.1672   24.8334 C   0  0  2  0  0  0  0  0  0  0  0  0
    7.6388  -14.7309   23.6349 N   0  0  0  0  0  0  0  0  0  0  0  0
    8.6022  -15.2430   25.8022 C   0  0  0  0  0  0  0  0  0  0  0  0
    7.7259  -16.0188   26.2678 O   0  0  0  0  0  0  0  0  0  0  0  0
   12.7732  -15.9461   26.8346 C   0  0  0  0  0  0  0  0  0  0  0  0
   11.7083  -17.0076   26.7173 C   0  0  2  0  0  0  0  0  0  0  0  0
   11.7113  -17.4885   25.2818 C   0  0  0  0  0  0  0  0  0  0  0  0
   10.3435  -16.5023   27.1040 C   0  0  2  0  0  0  0  0  0  0  0  0
    9.9408  -15.4291   26.2287 N   0  0  0  0  0  0  0  0  0  0  0  0
   10.3886  -16.0859   28.5240 C   0  0  0  0  0  0  0  0  0  0  0  0
   10.5981  -17.0791   29.4710 O   0  0  0  0  0  0  0  0  0  0  0  0
   10.2471  -14.8935   28.8912 O   0  0  0  0  0  0  0  0  0  0  0  0
  2  1  1  6
  2  5  1  0
  3  2  1  0
  4  3  1  0
  5 12  1  0
  5  6  2  0
  7  8  1  0
  8  9  1  0
  9 10  1  1
 11  9  1  0
 11 13  1  0
 11 12  1  6
 13 14  2  0
 16 15  1  6
 16 17  1  0
 16 18  1  0
 18 20  1  0
 18 19  1  6
 19 13  1  0
 20 21  1  0
 22 20  2  0
M  END
$$$$
