CIV.pdb
     RDKit          3D

 22 21  0  0  1  0  0  0  0  0999 V2000
    9.1621  -15.5664   20.2632 N   0  0  0  0  0  0  0  0  0  0  0  0
    8.1414  -15.7271   21.2730 C   0  0  1  0  0  0  0  0  0  0  0  0
    7.7581  -17.1886   21.3281 C   0  0  0  0  0  0  0  0  0  0  0  0
    6.9406  -17.5784   19.7425 S   0  0  0  0  0  0  0  0  0  0  0  0
    8.6265  -15.2235   22.5691 C   0  0  0  0  0  0  0  0  0  0  0  0
    9.8545  -15.2863   22.8221 O   0  0  0  0  0  0  0  0  0  0  0  0
    6.8881  -11.6559   27.2994 C   0  0  0  0  0  0  0  0  0  0  0  0
    7.8890  -12.6655   26.7776 C   0  0  0  0  0  0  0  0  0  0  0  0
    7.3634  -13.2092   25.4891 C   0  0  2  0  0  0  0  0  0  0  0  0
    6.0229  -13.8636   25.7392 C   0  0  0  0  0  0  0  0  0  0  0  0
    8.3029  -14.1993   24.8384 C   0  0  2  0  0  0  0  0  0  0  0  0
    7.7914  -14.6649   23.5652 N   0  0  0  0  0  0  0  0  0  0  0  0
    8.5923  -15.3482   25.7513 C   0  0  0  0  0  0  0  0  0  0  0  0
    7.6883  -16.1745   26.0458 O   0  0  0  0  0  0  0  0  0  0  0  0
   12.6616  -16.4192   26.7409 C   0  0  0  0  0  0  0  0  0  0  0  0
   11.4684  -17.3384   26.6653 C   0  0  2  0  0  0  0  0  0  0  0  0
   11.3284  -17.7730   25.2219 C   0  0  0  0  0  0  0  0  0  0  0  0
   10.2014  -16.6816   27.1460 C   0  0  2  0  0  0  0  0  0  0  0  0
    9.8776  -15.5495   26.3131 N   0  0  0  0  0  0  0  0  0  0  0  0
   10.3851  -16.3037   28.5657 C   0  0  0  0  0  0  0  0  0  0  0  0
   10.5851  -17.3325   29.4761 O   0  0  0  0  0  0  0  0  0  0  0  0
   10.3665  -15.1131   28.9638 O   0  0  0  0  0  0  0  0  0  0  0  0
  2  1  1  6
  2  5  1  0
  3  2  1  0
  4  3  1  0
  5 12  1  0
  5  6  2  0
  7  8  1  0
  8  9  1  0
  9 10  1  1
 11  9  1  0
 11 13  1  0
 11 12  1  6
 13 14  2  0
 16 15  1  6
 16 17  1  0
 16 18  1  0
 18 20  1  0
 18 19  1  6
 19 13  1  0
 20 21  1  0
 22 20  2  0
M  END
$$$$
