CIV.pdb
     RDKit          3D

 22 21  0  0  1  0  0  0  0  0999 V2000
    9.9378  -15.8662   20.0853 N   0  0  0  0  0  0  0  0  0  0  0  0
    9.1407  -16.3868   21.1720 C   0  0  1  0  0  0  0  0  0  0  0  0
    9.5558  -17.8199   21.4172 C   0  0  0  0  0  0  0  0  0  0  0  0
    8.9334  -18.7970   20.0057 S   0  0  0  0  0  0  0  0  0  0  0  0
    9.3003  -15.5424   22.3679 C   0  0  0  0  0  0  0  0  0  0  0  0
   10.4057  -14.9832   22.5713 O   0  0  0  0  0  0  0  0  0  0  0  0
    6.1048  -12.2961   26.4639 C   0  0  0  0  0  0  0  0  0  0  0  0
    7.4388  -12.9287   26.1268 C   0  0  0  0  0  0  0  0  0  0  0  0
    7.2153  -13.9114   25.0239 C   0  0  2  0  0  0  0  0  0  0  0  0
    6.2681  -14.9878   25.5055 C   0  0  0  0  0  0  0  0  0  0  0  0
    8.4961  -14.5420   24.5256 C   0  0  2  0  0  0  0  0  0  0  0  0
    8.2781  -15.3140   23.3190 N   0  0  0  0  0  0  0  0  0  0  0  0
    9.1341  -15.3789   25.5885 C   0  0  0  0  0  0  0  0  0  0  0  0
    8.9975  -16.6310   25.5845 O   0  0  0  0  0  0  0  0  0  0  0  0
   11.5553  -15.5367   29.9305 C   0  0  0  0  0  0  0  0  0  0  0  0
   11.0245  -14.7294   28.7724 C   0  0  2  0  0  0  0  0  0  0  0  0
    9.8448  -13.9316   29.2858 C   0  0  0  0  0  0  0  0  0  0  0  0
   10.6149  -15.5907   27.6071 C   0  0  2  0  0  0  0  0  0  0  0  0
    9.9068  -14.8035   26.6277 N   0  0  0  0  0  0  0  0  0  0  0  0
    9.8007  -16.7138   28.1244 C   0  0  0  0  0  0  0  0  0  0  0  0
   10.4822  -17.8168   28.6204 O   0  0  0  0  0  0  0  0  0  0  0  0
    8.5452  -16.7020   28.1293 O   0  0  0  0  0  0  0  0  0  0  0  0
  2  1  1  6
  2  5  1  0
  3  2  1  0
  4  3  1  0
  5 12  1  0
  5  6  2  0
  7  8  1  0
  8  9  1  0
  9 10  1  1
 11  9  1  0
 11 13  1  0
 11 12  1  6
 13 14  2  0
 16 15  1  1
 16 17  1  0
 16 18  1  0
 18 20  1  0
 18 19  1  6
 19 13  1  0
 20 21  1  0
 22 20  2  0
M  END
$$$$
