CIV.pdb
     RDKit          3D

 22 21  0  0  1  0  0  0  0  0999 V2000
    7.9379  -15.3905   19.8539 N   0  0  0  0  0  0  0  0  0  0  0  0
    7.1576  -15.6639   21.0387 C   0  0  1  0  0  0  0  0  0  0  0  0
    6.8265  -17.1390   21.0557 C   0  0  0  0  0  0  0  0  0  0  0  0
    5.5929  -17.4167   19.7384 S   0  0  0  0  0  0  0  0  0  0  0  0
    7.8947  -15.2389   22.2407 C   0  0  0  0  0  0  0  0  0  0  0  0
    9.1483  -15.3057   22.2377 O   0  0  0  0  0  0  0  0  0  0  0  0
    7.3184  -11.8749   27.3601 C   0  0  0  0  0  0  0  0  0  0  0  0
    8.0762  -12.9906   26.6715 C   0  0  0  0  0  0  0  0  0  0  0  0
    7.3451  -13.3346   25.4148 C   0  0  2  0  0  0  0  0  0  0  0  0
    5.9406  -13.7736   25.7646 C   0  0  0  0  0  0  0  0  0  0  0  0
    8.0323  -14.4128   24.6076 C   0  0  2  0  0  0  0  0  0  0  0  0
    7.2784  -14.7527   23.4178 N   0  0  0  0  0  0  0  0  0  0  0  0
    8.2929  -15.6270   25.4412 C   0  0  0  0  0  0  0  0  0  0  0  0
    7.3368  -16.2738   25.9455 O   0  0  0  0  0  0  0  0  0  0  0  0
   12.3266  -17.2857   25.8543 C   0  0  0  0  0  0  0  0  0  0  0  0
   11.0272  -18.0485   25.7900 C   0  0  2  0  0  0  0  0  0  0  0  0
   10.7375  -18.3176   24.3287 C   0  0  0  0  0  0  0  0  0  0  0  0
    9.8860  -17.3008   26.4275 C   0  0  2  0  0  0  0  0  0  0  0  0
    9.6079  -16.0912   25.6929 N   0  0  0  0  0  0  0  0  0  0  0  0
   10.2380  -17.0348   27.8407 C   0  0  0  0  0  0  0  0  0  0  0  0
   10.3229  -18.1288   28.6911 O   0  0  0  0  0  0  0  0  0  0  0  0
   10.4571  -15.8809   28.2847 O   0  0  0  0  0  0  0  0  0  0  0  0
  2  1  1  6
  2  5  1  0
  3  2  1  0
  4  3  1  0
  5 12  1  0
  5  6  2  0
  7  8  1  0
  8  9  1  0
  9 10  1  1
 11  9  1  0
 11 13  1  0
 11 12  1  6
 13 14  2  0
 16 15  1  6
 16 17  1  0
 16 18  1  0
 18 20  1  0
 18 19  1  6
 19 13  1  0
 20 21  1  0
 22 20  2  0
M  END
$$$$
