CIV.pdb
     RDKit          3D

 22 21  0  0  1  0  0  0  0  0999 V2000
    7.7444  -15.5760   20.7157 N   0  0  0  0  0  0  0  0  0  0  0  0
    7.0515  -15.8920   21.9435 C   0  0  1  0  0  0  0  0  0  0  0  0
    6.8208  -17.3857   21.9841 C   0  0  0  0  0  0  0  0  0  0  0  0
    5.9592  -17.7426   23.5541 S   0  0  0  0  0  0  0  0  0  0  0  0
    7.8249  -15.4106   23.1007 C   0  0  0  0  0  0  0  0  0  0  0  0
    9.0783  -15.4047   23.0313 O   0  0  0  0  0  0  0  0  0  0  0  0
    5.9774  -11.5679   26.6309 C   0  0  0  0  0  0  0  0  0  0  0  0
    6.8301  -12.3595   25.6615 C   0  0  0  0  0  0  0  0  0  0  0  0
    7.2768  -13.6053   26.3546 C   0  0  2  0  0  0  0  0  0  0  0  0
    8.1365  -13.2295   27.5410 C   0  0  0  0  0  0  0  0  0  0  0  0
    8.0386  -14.5454   25.4478 C   0  0  2  0  0  0  0  0  0  0  0  0
    7.2441  -14.9467   24.3045 N   0  0  0  0  0  0  0  0  0  0  0  0
    8.5332  -15.7389   26.2014 C   0  0  0  0  0  0  0  0  0  0  0  0
    7.7272  -16.4846   26.8186 O   0  0  0  0  0  0  0  0  0  0  0  0
   12.7740  -16.7855   26.2251 C   0  0  0  0  0  0  0  0  0  0  0  0
   11.6326  -17.7702   26.1785 C   0  0  2  0  0  0  0  0  0  0  0  0
   11.3301  -18.0367   24.7193 C   0  0  0  0  0  0  0  0  0  0  0  0
   10.4051  -17.2664   26.8907 C   0  0  2  0  0  0  0  0  0  0  0  0
    9.9095  -16.0730   26.2501 N   0  0  0  0  0  0  0  0  0  0  0  0
   10.7536  -17.0410   28.3118 C   0  0  0  0  0  0  0  0  0  0  0  0
   10.7192  -15.7326   28.7746 O   0  0  0  0  0  0  0  0  0  0  0  0
   11.0714  -17.9710   29.0932 O   0  0  0  0  0  0  0  0  0  0  0  0
  2  1  1  6
  2  5  1  0
  3  2  1  0
  4  3  1  0
  5 12  1  0
  5  6  2  0
  7  8  1  0
  8  9  1  0
  9 10  1  1
 11  9  1  0
 11 13  1  0
 11 12  1  6
 13 14  2  0
 16 15  1  6
 16 17  1  0
 16 18  1  0
 18 20  1  0
 18 19  1  6
 19 13  1  0
 20 21  1  0
 22 20  2  0
M  END
$$$$
