CIV.pdb
     RDKit          3D

 22 21  0  0  1  0  0  0  0  0999 V2000
    8.8221  -15.0942   19.9435 N   0  0  0  0  0  0  0  0  0  0  0  0
    7.9007  -15.4880   20.9844 C   0  0  1  0  0  0  0  0  0  0  0  0
    7.6382  -16.9706   20.8460 C   0  0  0  0  0  0  0  0  0  0  0  0
    6.3780  -17.4008   22.0955 S   0  0  0  0  0  0  0  0  0  0  0  0
    8.4467  -15.1343   22.3055 C   0  0  0  0  0  0  0  0  0  0  0  0
    9.6759  -15.2831   22.5125 O   0  0  0  0  0  0  0  0  0  0  0  0
    7.0424  -11.9171   27.3826 C   0  0  0  0  0  0  0  0  0  0  0  0
    7.9762  -12.9197   26.7373 C   0  0  0  0  0  0  0  0  0  0  0  0
    7.3790  -13.3280   25.4301 C   0  0  2  0  0  0  0  0  0  0  0  0
    6.0132  -13.9291   25.6771 C   0  0  0  0  0  0  0  0  0  0  0  0
    8.2401  -14.3098   24.6679 C   0  0  2  0  0  0  0  0  0  0  0  0
    7.6697  -14.6302   23.3750 N   0  0  0  0  0  0  0  0  0  0  0  0
    8.4817  -15.5498   25.4685 C   0  0  0  0  0  0  0  0  0  0  0  0
    7.5239  -16.3055   25.7820 O   0  0  0  0  0  0  0  0  0  0  0  0
   12.5096  -17.0313   26.1107 C   0  0  0  0  0  0  0  0  0  0  0  0
   11.2436  -17.8429   25.9966 C   0  0  2  0  0  0  0  0  0  0  0  0
   11.0118  -18.1068   24.5240 C   0  0  0  0  0  0  0  0  0  0  0  0
   10.0541  -17.1470   26.6038 C   0  0  2  0  0  0  0  0  0  0  0  0
    9.7803  -15.9183   25.9000 N   0  0  0  0  0  0  0  0  0  0  0  0
   10.3312  -16.9246   28.0410 C   0  0  0  0  0  0  0  0  0  0  0  0
   10.3711  -18.0440   28.8611 O   0  0  0  0  0  0  0  0  0  0  0  0
   10.5266  -15.7851   28.5309 O   0  0  0  0  0  0  0  0  0  0  0  0
  2  1  1  6
  2  5  1  0
  3  2  1  0
  4  3  1  0
  5 12  1  0
  5  6  2  0
  7  8  1  0
  8  9  1  0
  9 10  1  1
 11  9  1  0
 11 13  1  0
 11 12  1  6
 13 14  2  0
 16 15  1  6
 16 17  1  0
 16 18  1  0
 18 20  1  0
 18 19  1  6
 19 13  1  0
 20 21  1  0
 22 20  2  0
M  END
$$$$
