CIV.pdb
     RDKit          3D

 22 21  0  0  1  0  0  0  0  0999 V2000
    7.8583  -15.5902   20.0127 N   0  0  0  0  0  0  0  0  0  0  0  0
    7.1083  -15.8804   21.2130 C   0  0  1  0  0  0  0  0  0  0  0  0
    6.7917  -17.3587   21.2257 C   0  0  0  0  0  0  0  0  0  0  0  0
    5.7639  -17.6642   22.7038 S   0  0  0  0  0  0  0  0  0  0  0  0
    7.8691  -15.4578   22.4011 C   0  0  0  0  0  0  0  0  0  0  0  0
    9.1155  -15.6069   22.4067 O   0  0  0  0  0  0  0  0  0  0  0  0
    7.4515  -11.6791   27.2279 C   0  0  0  0  0  0  0  0  0  0  0  0
    8.2283  -12.7970   26.5643 C   0  0  0  0  0  0  0  0  0  0  0  0
    7.3874  -13.3468   25.4586 C   0  0  2  0  0  0  0  0  0  0  0  0
    6.0790  -13.8429   26.0327 C   0  0  0  0  0  0  0  0  0  0  0  0
    8.0679  -14.4621   24.6972 C   0  0  2  0  0  0  0  0  0  0  0  0
    7.2834  -14.8863   23.5552 N   0  0  0  0  0  0  0  0  0  0  0  0
    8.3753  -15.6184   25.5947 C   0  0  0  0  0  0  0  0  0  0  0  0
    7.4455  -16.3140   26.0828 O   0  0  0  0  0  0  0  0  0  0  0  0
   12.4674  -17.0212   25.9842 C   0  0  0  0  0  0  0  0  0  0  0  0
   11.2166  -17.8627   25.9399 C   0  0  2  0  0  0  0  0  0  0  0  0
   10.9101  -18.1333   24.4823 C   0  0  0  0  0  0  0  0  0  0  0  0
   10.0464  -17.1946   26.6122 C   0  0  2  0  0  0  0  0  0  0  0  0
    9.7068  -15.9719   25.9267 N   0  0  0  0  0  0  0  0  0  0  0  0
   10.3961  -16.9670   28.0327 C   0  0  0  0  0  0  0  0  0  0  0  0
   10.4996  -15.6497   28.4583 O   0  0  0  0  0  0  0  0  0  0  0  0
   10.5971  -17.9028   28.8453 O   0  0  0  0  0  0  0  0  0  0  0  0
  2  1  1  6
  2  5  1  0
  3  2  1  0
  4  3  1  0
  5 12  1  0
  5  6  2  0
  7  8  1  0
  8  9  1  0
  9 10  1  1
 11  9  1  0
 11 13  1  0
 11 12  1  6
 13 14  2  0
 16 15  1  6
 16 17  1  0
 16 18  1  0
 18 20  1  0
 18 19  1  6
 19 13  1  0
 20 21  1  0
 22 20  2  0
M  END
$$$$
