CIV.pdb
     RDKit          3D

 22 21  0  0  1  0  0  0  0  0999 V2000
    8.1269  -16.0237   20.3463 N   0  0  0  0  0  0  0  0  0  0  0  0
    7.4922  -16.3099   21.6122 C   0  0  1  0  0  0  0  0  0  0  0  0
    7.5759  -17.7998   21.8558 C   0  0  0  0  0  0  0  0  0  0  0  0
    6.4664  -18.5945   20.6427 S   0  0  0  0  0  0  0  0  0  0  0  0
    8.1274  -15.5278   22.6863 C   0  0  0  0  0  0  0  0  0  0  0  0
    9.3657  -15.3273   22.6385 O   0  0  0  0  0  0  0  0  0  0  0  0
    6.9254  -11.6062   27.2797 C   0  0  0  0  0  0  0  0  0  0  0  0
    7.9062  -12.5988   26.6912 C   0  0  0  0  0  0  0  0  0  0  0  0
    7.2243  -13.3053   25.5653 C   0  0  2  0  0  0  0  0  0  0  0  0
    5.9651  -13.9628   26.0847 C   0  0  0  0  0  0  0  0  0  0  0  0
    8.1032  -14.3387   24.8974 C   0  0  2  0  0  0  0  0  0  0  0  0
    7.4277  -14.9777   23.7861 N   0  0  0  0  0  0  0  0  0  0  0  0
    8.5879  -15.3531   25.8839 C   0  0  0  0  0  0  0  0  0  0  0  0
    7.7826  -16.1601   26.4194 O   0  0  0  0  0  0  0  0  0  0  0  0
   12.8236  -15.6663   26.8648 C   0  0  0  0  0  0  0  0  0  0  0  0
   11.8708  -16.8306   26.7593 C   0  0  2  0  0  0  0  0  0  0  0  0
   11.9245  -17.3253   25.3295 C   0  0  0  0  0  0  0  0  0  0  0  0
   10.4615  -16.4603   27.1393 C   0  0  2  0  0  0  0  0  0  0  0  0
    9.9538  -15.4448   26.2499 N   0  0  0  0  0  0  0  0  0  0  0  0
   10.4626  -16.0227   28.5537 C   0  0  0  0  0  0  0  0  0  0  0  0
   10.7707  -16.9770   29.5137 O   0  0  0  0  0  0  0  0  0  0  0  0
   10.2007  -14.8461   28.9051 O   0  0  0  0  0  0  0  0  0  0  0  0
  2  1  1  6
  2  5  1  0
  3  2  1  0
  4  3  1  0
  5 12  1  0
  5  6  2  0
  7  8  1  0
  8  9  1  0
  9 10  1  1
 11  9  1  0
 11 13  1  0
 11 12  1  6
 13 14  2  0
 16 15  1  6
 16 17  1  0
 16 18  1  0
 18 20  1  0
 18 19  1  6
 19 13  1  0
 20 21  1  0
 22 20  2  0
M  END
$$$$
