CIV.pdb
     RDKit          3D

 22 21  0  0  1  0  0  0  0  0999 V2000
    4.7791  -12.8762   26.5562 N   0  0  0  0  0  0  0  0  0  0  0  0
    6.0037  -12.4389   25.9264 C   0  0  1  0  0  0  0  0  0  0  0  0
    6.8101  -11.6684   26.9471 C   0  0  0  0  0  0  0  0  0  0  0  0
    7.6905  -10.3523   26.0376 S   0  0  0  0  0  0  0  0  0  0  0  0
    6.7376  -13.5960   25.3867 C   0  0  0  0  0  0  0  0  0  0  0  0
    6.7898  -14.6505   26.0658 O   0  0  0  0  0  0  0  0  0  0  0  0
    7.6743  -13.8521   19.9724 C   0  0  0  0  0  0  0  0  0  0  0  0
    7.2211  -14.0992   21.3961 C   0  0  0  0  0  0  0  0  0  0  0  0
    8.3787  -14.6608   22.1554 C   0  0  2  0  0  0  0  0  0  0  0  0
    8.7148  -16.0284   21.6039 C   0  0  0  0  0  0  0  0  0  0  0  0
    8.1193  -14.7579   23.6419 C   0  0  2  0  0  0  0  0  0  0  0  0
    7.3987  -13.6019   24.1358 N   0  0  0  0  0  0  0  0  0  0  0  0
    9.3932  -14.9583   24.3996 C   0  0  0  0  0  0  0  0  0  0  0  0
   10.4687  -14.4469   23.9892 O   0  0  0  0  0  0  0  0  0  0  0  0
    9.3504  -16.5098   28.4086 C   0  0  0  0  0  0  0  0  0  0  0  0
   10.4166  -15.6306   27.8047 C   0  0  2  0  0  0  0  0  0  0  0  0
    9.9733  -14.1953   27.9926 C   0  0  0  0  0  0  0  0  0  0  0  0
   10.6520  -15.9259   26.3469 C   0  0  2  0  0  0  0  0  0  0  0  0
    9.4396  -15.7212   25.5929 N   0  0  0  0  0  0  0  0  0  0  0  0
   11.1618  -17.3110   26.2310 C   0  0  0  0  0  0  0  0  0  0  0  0
   12.4337  -17.5634   26.7268 O   0  0  0  0  0  0  0  0  0  0  0  0
   10.4984  -18.2421   25.7120 O   0  0  0  0  0  0  0  0  0  0  0  0
  2  1  1  1
  2  5  1  0
  3  2  1  0
  4  3  1  0
  5 12  1  0
  5  6  2  0
  7  8  1  0
  8  9  1  0
  9 10  1  6
 11  9  1  0
 11 13  1  0
 11 12  1  1
 13 14  2  0
 16 15  1  6
 16 17  1  0
 16 18  1  0
 18 20  1  0
 18 19  1  6
 19 13  1  0
 20 21  1  0
 22 20  2  0
M  END
$$$$
