AYI.pdb
     RDKit          3D

 26 26  0  0  1  0  0  0  0  0999 V2000
   19.9099  -15.4018  -15.9840 C   0  0  0  0  0  0  0  0  0  0  0  0
   18.9948  -14.9570  -17.1117 C   0  0  2  0  0  0  0  0  0  0  0  0
   19.1897  -15.7641  -18.2844 N   0  0  0  0  0  0  0  0  0  0  0  0
   19.2239  -13.4920  -17.3849 C   0  0  0  0  0  0  0  0  0  0  0  0
   20.3002  -13.1962  -17.9634 O   0  0  0  0  0  0  0  0  0  0  0  0
   16.0583  -12.0628  -23.2449 O   0  0  0  0  0  0  0  0  0  0  0  0
   16.3679  -11.6600  -21.9380 C   0  0  0  0  0  0  0  0  0  0  0  0
   17.1724  -10.5665  -21.6983 C   0  0  0  0  0  0  0  0  0  0  0  0
   17.4510  -10.2056  -20.3800 C   0  0  0  0  0  0  0  0  0  0  0  0
   16.9466  -10.9098  -19.3139 C   0  0  0  0  0  0  0  0  0  0  0  0
   17.2541  -10.5125  -17.9497 C   0  0  0  0  0  0  0  0  0  0  0  0
   18.4565  -11.1184  -17.3172 C   0  0  2  0  0  0  0  0  0  0  0  0
   18.2787  -12.5153  -17.0107 N   0  0  0  0  0  0  0  0  0  0  0  0
   19.0327  -10.4049  -16.1809 C   0  0  0  0  0  0  0  0  0  0  0  0
   18.4794  -10.4855  -15.0347 O   0  0  0  0  0  0  0  0  0  0  0  0
   16.1403  -12.0056  -19.5420 C   0  0  0  0  0  0  0  0  0  0  0  0
   15.8662  -12.3600  -20.8619 C   0  0  0  0  0  0  0  0  0  0  0  0
   23.8617  -11.0561  -14.6277 C   0  0  0  0  0  0  0  0  0  0  0  0
   22.4119  -10.7103  -14.8015 C   0  0  0  0  0  0  0  0  0  0  0  0
   22.1847   -9.2089  -14.8212 C   0  0  2  0  0  0  0  0  0  0  0  0
   22.5586   -8.6870  -13.4485 C   0  0  0  0  0  0  0  0  0  0  0  0
   20.7134   -8.9169  -15.0391 C   0  0  2  0  0  0  0  0  0  0  0  0
   20.2026   -9.5898  -16.2107 N   0  0  0  0  0  0  0  0  0  0  0  0
   20.5033   -7.4613  -15.0368 C   0  0  0  0  0  0  0  0  0  0  0  0
   20.1862   -6.7360  -16.1739 O   0  0  0  0  0  0  0  0  0  0  0  0
   20.6125   -6.8237  -13.9623 O   0  0  0  0  0  0  0  0  0  0  0  0
  2  3  1  0
  2  1  1  1
  4  2  1  0
  5  4  2  0
  7  6  1  0
  7  8  2  0
  9  8  1  0
 10  9  2  0
 11 10  1  0
 12 11  1  1
 12 13  1  0
 13  4  1  0
 14 23  1  0
 14 12  1  0
 15 14  2  0
 16 17  2  0
 16 10  1  0
 17  7  1  0
 18 19  1  0
 19 20  1  0
 20 22  1  0
 20 21  1  1
 22 23  1  6
 24 25  1  0
 24 22  1  0
 26 24  2  0
M  END
$$$$
