AYI.pdb
     RDKit          3D

 26 26  0  0  1  0  0  0  0  0999 V2000
   28.8137  -19.3435  -13.6906 C   0  0  0  0  0  0  0  0  0  0  0  0
   27.6052  -20.2481  -13.5230 C   0  0  2  0  0  0  0  0  0  0  0  0
   26.6936  -20.1021  -14.6242 N   0  0  0  0  0  0  0  0  0  0  0  0
   26.9483  -19.9545  -12.1981 C   0  0  0  0  0  0  0  0  0  0  0  0
   26.3856  -18.8353  -12.0926 O   0  0  0  0  0  0  0  0  0  0  0  0
   20.6327  -19.9550  -12.7079 O   0  0  0  0  0  0  0  0  0  0  0  0
   21.7428  -20.2887  -11.9191 C   0  0  0  0  0  0  0  0  0  0  0  0
   21.8887  -19.7898  -10.6423 C   0  0  0  0  0  0  0  0  0  0  0  0
   23.0109  -20.1518   -9.8969 C   0  0  0  0  0  0  0  0  0  0  0  0
   23.9751  -20.9909  -10.4000 C   0  0  0  0  0  0  0  0  0  0  0  0
   25.1356  -21.3508   -9.6019 C   0  0  0  0  0  0  0  0  0  0  0  0
   26.3950  -20.5996   -9.8517 C   0  0  2  0  0  0  0  0  0  0  0  0
   26.9675  -20.8885  -11.1423 N   0  0  0  0  0  0  0  0  0  0  0  0
   27.4128  -20.6546   -8.8061 C   0  0  0  0  0  0  0  0  0  0  0  0
   28.3829  -21.4760   -8.9079 O   0  0  0  0  0  0  0  0  0  0  0  0
   23.8392  -21.4962  -11.6763 C   0  0  0  0  0  0  0  0  0  0  0  0
   22.7152  -21.1302  -12.4150 C   0  0  0  0  0  0  0  0  0  0  0  0
   29.9304  -17.2546   -5.2218 C   0  0  0  0  0  0  0  0  0  0  0  0
   29.5102  -18.4127   -6.0785 C   0  0  0  0  0  0  0  0  0  0  0  0
   28.3686  -19.1959   -5.4544 C   0  0  2  0  0  0  0  0  0  0  0  0
   28.8982  -19.8025   -4.1707 C   0  0  0  0  0  0  0  0  0  0  0  0
   27.9688  -20.3353   -6.3706 C   0  0  2  0  0  0  0  0  0  0  0  0
   27.4456  -19.8524   -7.6273 N   0  0  0  0  0  0  0  0  0  0  0  0
   27.0659  -21.2437   -5.6477 C   0  0  0  0  0  0  0  0  0  0  0  0
   27.5087  -22.3301   -4.9108 O   0  0  0  0  0  0  0  0  0  0  0  0
   25.8283  -21.0439   -5.6872 O   0  0  0  0  0  0  0  0  0  0  0  0
  2  3  1  0
  2  1  1  6
  4  2  1  0
  5  4  2  0
  7  6  1  0
  7  8  2  0
  9  8  1  0
 10  9  2  0
 11 10  1  0
 12 11  1  1
 12 13  1  0
 13  4  1  0
 14 23  1  0
 14 12  1  0
 15 14  2  0
 16 17  2  0
 16 10  1  0
 17  7  1  0
 18 19  1  0
 19 20  1  0
 20 22  1  0
 20 21  1  1
 22 23  1  6
 24 25  1  0
 24 22  1  0
 26 24  2  0
M  END
$$$$
