AYI.pdb
     RDKit          3D

 26 26  0  0  1  0  0  0  0  0999 V2000
   28.6743  -18.7102  -14.8993 C   0  0  0  0  0  0  0  0  0  0  0  0
   27.3444  -19.2624  -15.3824 C   0  0  2  0  0  0  0  0  0  0  0  0
   26.8992  -18.5777  -16.5647 N   0  0  0  0  0  0  0  0  0  0  0  0
   26.3382  -19.1772  -14.2628 C   0  0  0  0  0  0  0  0  0  0  0  0
   25.9217  -18.0261  -13.9763 O   0  0  0  0  0  0  0  0  0  0  0  0
   20.5151  -17.9410  -16.6291 O   0  0  0  0  0  0  0  0  0  0  0  0
   21.2700  -18.6526  -15.6858 C   0  0  0  0  0  0  0  0  0  0  0  0
   20.9688  -18.5993  -14.3416 C   0  0  0  0  0  0  0  0  0  0  0  0
   21.7496  -19.3256  -13.4424 C   0  0  0  0  0  0  0  0  0  0  0  0
   22.8109  -20.0919  -13.8589 C   0  0  0  0  0  0  0  0  0  0  0  0
   23.6091  -20.8380  -12.8999 C   0  0  0  0  0  0  0  0  0  0  0  0
   24.9263  -20.2636  -12.5152 C   0  0  2  0  0  0  0  0  0  0  0  0
   25.8935  -20.3286  -13.5815 N   0  0  0  0  0  0  0  0  0  0  0  0
   25.5051  -20.7282  -11.2577 C   0  0  0  0  0  0  0  0  0  0  0  0
   26.1154  -21.8471  -11.2156 O   0  0  0  0  0  0  0  0  0  0  0  0
   23.1212  -20.1528  -15.2016 C   0  0  0  0  0  0  0  0  0  0  0  0
   22.3363  -19.4245  -16.0941 C   0  0  0  0  0  0  0  0  0  0  0  0
   28.0853  -17.9522   -7.4248 C   0  0  0  0  0  0  0  0  0  0  0  0
   27.5885  -19.0673   -8.2973 C   0  0  0  0  0  0  0  0  0  0  0  0
   26.3262  -19.7034   -7.7420 C   0  0  2  0  0  0  0  0  0  0  0  0
   26.7327  -20.4951   -6.5155 C   0  0  0  0  0  0  0  0  0  0  0  0
   25.7585  -20.6803   -8.7524 C   0  0  2  0  0  0  0  0  0  0  0  0
   25.4635  -20.0362  -10.0113 N   0  0  0  0  0  0  0  0  0  0  0  0
   24.6178  -21.3887   -8.1527 C   0  0  0  0  0  0  0  0  0  0  0  0
   23.2973  -21.0384   -8.3833 O   0  0  0  0  0  0  0  0  0  0  0  0
   24.8277  -22.3619   -7.3899 O   0  0  0  0  0  0  0  0  0  0  0  0
  2  3  1  0
  2  1  1  1
  4  2  1  0
  5  4  2  0
  7  6  1  0
  7  8  2  0
  9  8  1  0
 10  9  2  0
 11 10  1  0
 12 11  1  6
 12 13  1  0
 13  4  1  0
 14 23  1  0
 14 12  1  0
 15 14  2  0
 16 17  2  0
 16 10  1  0
 17  7  1  0
 18 19  1  0
 19 20  1  0
 20 22  1  0
 20 21  1  1
 22 23  1  6
 24 25  1  0
 24 22  1  0
 26 24  2  0
M  END
$$$$
