AYI.pdb
     RDKit          3D

 26 26  0  0  1  0  0  0  0  0999 V2000
   17.0688  -12.7698  -17.9852 C   0  0  0  0  0  0  0  0  0  0  0  0
   18.4510  -12.9208  -17.3738 C   0  0  2  0  0  0  0  0  0  0  0  0
   18.6067  -14.2109  -16.7605 N   0  0  0  0  0  0  0  0  0  0  0  0
   18.6854  -11.7952  -16.3985 C   0  0  0  0  0  0  0  0  0  0  0  0
   17.9997  -11.8208  -15.3450 O   0  0  0  0  0  0  0  0  0  0  0  0
   22.3584   -4.3528  -13.1015 O   0  0  0  0  0  0  0  0  0  0  0  0
   22.0706   -5.5985  -13.6770 C   0  0  0  0  0  0  0  0  0  0  0  0
   21.8046   -6.7028  -12.8959 C   0  0  0  0  0  0  0  0  0  0  0  0
   21.5234   -7.9203  -13.5160 C   0  0  0  0  0  0  0  0  0  0  0  0
   21.5049   -8.0497  -14.8834 C   0  0  0  0  0  0  0  0  0  0  0  0
   21.2102   -9.3310  -15.5037 C   0  0  0  0  0  0  0  0  0  0  0  0
   19.7831   -9.6383  -15.7899 C   0  0  2  0  0  0  0  0  0  0  0  0
   19.6234  -10.7759  -16.6601 N   0  0  0  0  0  0  0  0  0  0  0  0
   18.9451   -8.5256  -16.2278 C   0  0  0  0  0  0  0  0  0  0  0  0
   18.9020   -8.2119  -17.4631 O   0  0  0  0  0  0  0  0  0  0  0  0
   21.7694   -6.9513  -15.6748 C   0  0  0  0  0  0  0  0  0  0  0  0
   22.0493   -5.7381  -15.0480 C   0  0  0  0  0  0  0  0  0  0  0  0
   13.8837   -7.5810  -16.3901 C   0  0  0  0  0  0  0  0  0  0  0  0
   15.3604   -7.4527  -16.6238 C   0  0  0  0  0  0  0  0  0  0  0  0
   16.0115   -6.5029  -15.6338 C   0  0  2  0  0  0  0  0  0  0  0  0
   15.4904   -5.1143  -15.9449 C   0  0  0  0  0  0  0  0  0  0  0  0
   17.5119   -6.4897  -15.8486 C   0  0  2  0  0  0  0  0  0  0  0  0
   18.1287   -7.7119  -15.3879 N   0  0  0  0  0  0  0  0  0  0  0  0
   18.0748   -5.2667  -15.2566 C   0  0  0  0  0  0  0  0  0  0  0  0
   18.3478   -4.1224  -15.9884 O   0  0  0  0  0  0  0  0  0  0  0  0
   18.3291   -5.2361  -14.0288 O   0  0  0  0  0  0  0  0  0  0  0  0
  2  3  1  0
  2  1  1  1
  4  2  1  0
  5  4  2  0
  7  6  1  0
  7  8  2  0
  9  8  1  0
 10  9  2  0
 11 10  1  0
 12 11  1  6
 12 13  1  0
 13  4  1  0
 14 23  1  0
 14 12  1  0
 15 14  2  0
 16 17  2  0
 16 10  1  0
 17  7  1  0
 18 19  1  0
 19 20  1  0
 20 22  1  0
 20 21  1  6
 22 23  1  1
 24 25  1  0
 24 22  1  0
 26 24  2  0
M  END
$$$$
