AYI.pdb
     RDKit          3D

 26 26  0  0  1  0  0  0  0  0999 V2000
   27.2503  -20.3740  -17.3810 C   0  0  0  0  0  0  0  0  0  0  0  0
   27.8501  -21.4782  -16.5279 C   0  0  2  0  0  0  0  0  0  0  0  0
   27.9009  -22.7195  -17.2500 N   0  0  0  0  0  0  0  0  0  0  0  0
   27.0623  -21.5967  -15.2479 C   0  0  0  0  0  0  0  0  0  0  0  0
   26.0555  -22.3489  -15.2824 O   0  0  0  0  0  0  0  0  0  0  0  0
   24.8237  -20.4651   -6.6872 O   0  0  0  0  0  0  0  0  0  0  0  0
   25.4710  -20.5192   -7.9298 C   0  0  0  0  0  0  0  0  0  0  0  0
   25.0467  -21.3790   -8.9204 C   0  0  0  0  0  0  0  0  0  0  0  0
   25.7237  -21.3953  -10.1399 C   0  0  0  0  0  0  0  0  0  0  0  0
   26.8018  -20.5791  -10.3811 C   0  0  0  0  0  0  0  0  0  0  0  0
   27.4901  -20.6175  -11.6610 C   0  0  0  0  0  0  0  0  0  0  0  0
   26.6869  -20.9889  -12.8568 C   0  0  2  0  0  0  0  0  0  0  0  0
   27.4408  -20.9007  -14.0818 N   0  0  0  0  0  0  0  0  0  0  0  0
   25.3834  -20.3465  -12.9997 C   0  0  0  0  0  0  0  0  0  0  0  0
   25.2972  -19.2049  -13.5613 O   0  0  0  0  0  0  0  0  0  0  0  0
   27.2349  -19.7147   -9.3972 C   0  0  0  0  0  0  0  0  0  0  0  0
   26.5534  -19.7039   -8.1813 C   0  0  0  0  0  0  0  0  0  0  0  0
   21.1399  -19.3272  -16.1780 C   0  0  0  0  0  0  0  0  0  0  0  0
   21.3839  -19.4405  -14.7018 C   0  0  0  0  0  0  0  0  0  0  0  0
   22.6413  -20.2343  -14.3935 C   0  0  2  0  0  0  0  0  0  0  0  0
   22.3916  -21.6556  -14.8562 C   0  0  0  0  0  0  0  0  0  0  0  0
   22.8682  -20.2717  -12.8953 C   0  0  2  0  0  0  0  0  0  0  0  0
   24.1353  -20.8797  -12.5615 N   0  0  0  0  0  0  0  0  0  0  0  0
   21.7066  -20.8971  -12.2453 C   0  0  0  0  0  0  0  0  0  0  0  0
   20.6136  -20.1802  -11.7859 O   0  0  0  0  0  0  0  0  0  0  0  0
   21.6833  -22.1412  -12.0878 O   0  0  0  0  0  0  0  0  0  0  0  0
  2  3  1  0
  2  1  1  6
  4  2  1  0
  5  4  2  0
  7  6  1  0
  7  8  2  0
  9  8  1  0
 10  9  2  0
 11 10  1  0
 12 11  1  1
 12 13  1  0
 13  4  1  0
 14 23  1  0
 14 12  1  0
 15 14  2  0
 16 17  2  0
 16 10  1  0
 17  7  1  0
 18 19  1  0
 19 20  1  0
 20 22  1  0
 20 21  1  1
 22 23  1  6
 24 25  1  0
 24 22  1  0
 26 24  2  0
M  END
$$$$
