AYI.pdb
     RDKit          3D

 26 26  0  0  1  0  0  0  0  0999 V2000
   28.5306  -17.9483  -14.5590 C   0  0  0  0  0  0  0  0  0  0  0  0
   27.6992  -19.1619  -14.9368 C   0  0  2  0  0  0  0  0  0  0  0  0
   27.0542  -18.9715  -16.2066 N   0  0  0  0  0  0  0  0  0  0  0  0
   26.7114  -19.4468  -13.8340 C   0  0  0  0  0  0  0  0  0  0  0  0
   25.9171  -18.5161  -13.5452 O   0  0  0  0  0  0  0  0  0  0  0  0
   21.0984  -20.8532  -16.7568 O   0  0  0  0  0  0  0  0  0  0  0  0
   21.9951  -21.1556  -15.7222 C   0  0  0  0  0  0  0  0  0  0  0  0
   21.6972  -20.8613  -14.4088 C   0  0  0  0  0  0  0  0  0  0  0  0
   22.6223  -21.1823  -13.4153 C   0  0  0  0  0  0  0  0  0  0  0  0
   23.8222  -21.7828  -13.7092 C   0  0  0  0  0  0  0  0  0  0  0  0
   24.7689  -22.1053  -12.6542 C   0  0  0  0  0  0  0  0  0  0  0  0
   25.6758  -21.0188  -12.1958 C   0  0  2  0  0  0  0  0  0  0  0  0
   26.6857  -20.6901  -13.1698 N   0  0  0  0  0  0  0  0  0  0  0  0
   26.2625  -21.1678  -10.8669 C   0  0  0  0  0  0  0  0  0  0  0  0
   27.2307  -21.9783  -10.6884 O   0  0  0  0  0  0  0  0  0  0  0  0
   24.1307  -22.0821  -15.0200 C   0  0  0  0  0  0  0  0  0  0  0  0
   23.2013  -21.7585  -16.0072 C   0  0  0  0  0  0  0  0  0  0  0  0
   28.9775  -19.3974   -6.0140 C   0  0  0  0  0  0  0  0  0  0  0  0
   27.8654  -20.2784   -6.5028 C   0  0  0  0  0  0  0  0  0  0  0  0
   27.3103  -19.8056   -7.8349 C   0  0  2  0  0  0  0  0  0  0  0  0
   26.5408  -18.5283   -7.5651 C   0  0  0  0  0  0  0  0  0  0  0  0
   26.3293  -20.8285   -8.3723 C   0  0  2  0  0  0  0  0  0  0  0  0
   25.8549  -20.4736   -9.6896 N   0  0  0  0  0  0  0  0  0  0  0  0
   25.2631  -21.0434   -7.3823 C   0  0  0  0  0  0  0  0  0  0  0  0
   23.9409  -20.6906   -7.5985 O   0  0  0  0  0  0  0  0  0  0  0  0
   25.5426  -21.5706   -6.2791 O   0  0  0  0  0  0  0  0  0  0  0  0
  2  3  1  0
  2  1  1  1
  4  2  1  0
  5  4  2  0
  7  6  1  0
  7  8  2  0
  9  8  1  0
 10  9  2  0
 11 10  1  0
 12 11  1  6
 12 13  1  0
 13  4  1  0
 14 23  1  0
 14 12  1  0
 15 14  2  0
 16 17  2  0
 16 10  1  0
 17  7  1  0
 18 19  1  0
 19 20  1  0
 20 22  1  0
 20 21  1  1
 22 23  1  6
 24 25  1  0
 24 22  1  0
 26 24  2  0
M  END
$$$$
