AYI.pdb
     RDKit          3D

 26 26  0  0  1  0  0  0  0  0999 V2000
   27.9232  -22.5905  -19.5968 C   0  0  0  0  0  0  0  0  0  0  0  0
   28.0296  -23.4761  -18.3674 C   0  0  2  0  0  0  0  0  0  0  0  0
   27.0651  -23.0967  -17.3721 N   0  0  0  0  0  0  0  0  0  0  0  0
   29.4413  -23.4228  -17.8408 C   0  0  0  0  0  0  0  0  0  0  0  0
   29.7273  -22.4361  -17.1161 O   0  0  0  0  0  0  0  0  0  0  0  0
   28.7789  -29.9406  -15.8813 O   0  0  0  0  0  0  0  0  0  0  0  0
   29.5051  -28.7451  -15.9781 C   0  0  0  0  0  0  0  0  0  0  0  0
   28.9116  -27.5258  -15.7303 C   0  0  0  0  0  0  0  0  0  0  0  0
   29.6768  -26.3645  -15.8395 C   0  0  0  0  0  0  0  0  0  0  0  0
   31.0050  -26.4020  -16.1878 C   0  0  0  0  0  0  0  0  0  0  0  0
   31.7788  -25.1761  -16.2957 C   0  0  0  0  0  0  0  0  0  0  0  0
   31.7076  -24.4355  -17.5838 C   0  0  2  0  0  0  0  0  0  0  0  0
   30.3814  -24.4276  -18.1476 N   0  0  0  0  0  0  0  0  0  0  0  0
   32.7022  -24.7787  -18.5964 C   0  0  0  0  0  0  0  0  0  0  0  0
   32.3817  -25.5405  -19.5675 O   0  0  0  0  0  0  0  0  0  0  0  0
   31.6092  -27.6166  -16.4378 C   0  0  0  0  0  0  0  0  0  0  0  0
   30.8383  -28.7726  -16.3266 C   0  0  0  0  0  0  0  0  0  0  0  0
   36.4766  -21.3025  -20.3213 C   0  0  0  0  0  0  0  0  0  0  0  0
   35.4469  -22.3785  -20.1376 C   0  0  0  0  0  0  0  0  0  0  0  0
   36.0814  -23.7309  -19.8649 C   0  0  2  0  0  0  0  0  0  0  0  0
   36.8319  -24.1284  -21.1200 C   0  0  0  0  0  0  0  0  0  0  0  0
   34.9991  -24.7656  -19.6293 C   0  0  2  0  0  0  0  0  0  0  0  0
   34.0572  -24.3344  -18.6227 N   0  0  0  0  0  0  0  0  0  0  0  0
   35.6256  -26.0675  -19.3544 C   0  0  0  0  0  0  0  0  0  0  0  0
   35.8832  -27.0110  -20.3357 O   0  0  0  0  0  0  0  0  0  0  0  0
   35.9507  -26.3598  -18.1788 O   0  0  0  0  0  0  0  0  0  0  0  0
  2  3  1  0
  2  1  1  6
  4  2  1  0
  5  4  2  0
  7  6  1  0
  7  8  2  0
  9  8  1  0
 10  9  2  0
 11 10  1  0
 12 11  1  1
 12 13  1  0
 13  4  1  0
 14 23  1  0
 14 12  1  0
 15 14  2  0
 16 17  2  0
 16 10  1  0
 17  7  1  0
 18 19  1  0
 19 20  1  0
 20 22  1  0
 20 21  1  6
 22 23  1  1
 24 25  1  0
 24 22  1  0
 26 24  2  0
M  END
$$$$
