AYI.pdb
     RDKit          3D

 26 26  0  0  1  0  0  0  0  0999 V2000
   28.7763  -22.1539  -15.2916 C   0  0  0  0  0  0  0  0  0  0  0  0
   27.3039  -21.9012  -15.5655 C   0  0  2  0  0  0  0  0  0  0  0  0
   27.1174  -21.2615  -16.8386 N   0  0  0  0  0  0  0  0  0  0  0  0
   26.7221  -21.0941  -14.4327 C   0  0  0  0  0  0  0  0  0  0  0  0
   27.0168  -19.8721  -14.4123 O   0  0  0  0  0  0  0  0  0  0  0  0
   21.7290  -18.3576  -17.1901 O   0  0  0  0  0  0  0  0  0  0  0  0
   22.2377  -18.9982  -16.0514 C   0  0  0  0  0  0  0  0  0  0  0  0
   22.4045  -20.3661  -16.0149 C   0  0  0  0  0  0  0  0  0  0  0  0
   22.9148  -20.9564  -14.8586 C   0  0  0  0  0  0  0  0  0  0  0  0
   23.2551  -20.2127  -13.7549 C   0  0  0  0  0  0  0  0  0  0  0  0
   23.7836  -20.8539  -12.5621 C   0  0  0  0  0  0  0  0  0  0  0  0
   25.2629  -20.9108  -12.4166 C   0  0  2  0  0  0  0  0  0  0  0  0
   25.8940  -21.6841  -13.4561 N   0  0  0  0  0  0  0  0  0  0  0  0
   25.7814  -21.2824  -11.1031 C   0  0  0  0  0  0  0  0  0  0  0  0
   25.8878  -22.5136  -10.7883 O   0  0  0  0  0  0  0  0  0  0  0  0
   23.0926  -18.8431  -13.7804 C   0  0  0  0  0  0  0  0  0  0  0  0
   22.5824  -18.2604  -14.9393 C   0  0  0  0  0  0  0  0  0  0  0  0
   28.6842  -19.4878   -5.8999 C   0  0  0  0  0  0  0  0  0  0  0  0
   27.7061  -20.3664   -6.6233 C   0  0  0  0  0  0  0  0  0  0  0  0
   27.3587  -19.8189   -7.9964 C   0  0  2  0  0  0  0  0  0  0  0  0
   26.5635  -18.5476   -7.7774 C   0  0  0  0  0  0  0  0  0  0  0  0
   26.4644  -20.8004   -8.7273 C   0  0  2  0  0  0  0  0  0  0  0  0
   26.2040  -20.3785  -10.0840 N   0  0  0  0  0  0  0  0  0  0  0  0
   25.2553  -21.0430   -7.9260 C   0  0  0  0  0  0  0  0  0  0  0  0
   25.1988  -21.9640   -6.8925 O   0  0  0  0  0  0  0  0  0  0  0  0
   24.2105  -20.3949   -8.1738 O   0  0  0  0  0  0  0  0  0  0  0  0
  2  3  1  0
  2  1  1  1
  4  2  1  0
  5  4  2  0
  7  6  1  0
  7  8  2  0
  9  8  1  0
 10  9  2  0
 11 10  1  0
 12 11  1  1
 12 13  1  0
 13  4  1  0
 14 23  1  0
 14 12  1  0
 15 14  2  0
 16 17  2  0
 16 10  1  0
 17  7  1  0
 18 19  1  0
 19 20  1  0
 20 22  1  0
 20 21  1  1
 22 23  1  6
 24 25  1  0
 24 22  1  0
 26 24  2  0
M  END
$$$$
