AYI.pdb
     RDKit          3D

 26 26  0  0  1  0  0  0  0  0999 V2000
   29.0652  -19.7773  -13.3922 C   0  0  0  0  0  0  0  0  0  0  0  0
   27.6364  -20.2904  -13.4372 C   0  0  2  0  0  0  0  0  0  0  0  0
   26.9303  -19.7550  -14.5684 N   0  0  0  0  0  0  0  0  0  0  0  0
   26.9529  -19.9638  -12.1336 C   0  0  0  0  0  0  0  0  0  0  0  0
   26.5358  -18.7848  -12.0048 O   0  0  0  0  0  0  0  0  0  0  0  0
   21.0467  -19.4976  -13.8509 O   0  0  0  0  0  0  0  0  0  0  0  0
   21.9605  -19.9606  -12.8936 C   0  0  0  0  0  0  0  0  0  0  0  0
   22.8045  -21.0168  -13.1626 C   0  0  0  0  0  0  0  0  0  0  0  0
   23.6963  -21.4403  -12.1772 C   0  0  0  0  0  0  0  0  0  0  0  0
   23.7566  -20.8346  -10.9457 C   0  0  0  0  0  0  0  0  0  0  0  0
   24.6948  -21.2971   -9.9363 C   0  0  0  0  0  0  0  0  0  0  0  0
   26.0433  -20.6693   -9.9195 C   0  0  2  0  0  0  0  0  0  0  0  0
   26.7935  -20.9321  -11.1215 N   0  0  0  0  0  0  0  0  0  0  0  0
   26.8625  -20.9008   -8.7330 C   0  0  0  0  0  0  0  0  0  0  0  0
   27.5265  -21.9838   -8.6222 O   0  0  0  0  0  0  0  0  0  0  0  0
   22.9169  -19.7766  -10.6657 C   0  0  0  0  0  0  0  0  0  0  0  0
   22.0286  -19.3590  -11.6554 C   0  0  0  0  0  0  0  0  0  0  0  0
   29.5003  -17.3719   -5.3137 C   0  0  0  0  0  0  0  0  0  0  0  0
   29.0716  -18.5763   -6.0993 C   0  0  0  0  0  0  0  0  0  0  0  0
   27.8850  -19.2773   -5.4616 C   0  0  2  0  0  0  0  0  0  0  0  0
   28.3625  -19.8395   -4.1379 C   0  0  0  0  0  0  0  0  0  0  0  0
   27.4538  -20.4440   -6.3279 C   0  0  2  0  0  0  0  0  0  0  0  0
   27.0113  -20.0070   -7.6316 N   0  0  0  0  0  0  0  0  0  0  0  0
   26.4696  -21.2538   -5.5943 C   0  0  0  0  0  0  0  0  0  0  0  0
   26.8199  -22.2391   -4.6854 O   0  0  0  0  0  0  0  0  0  0  0  0
   25.2453  -21.0602   -5.7861 O   0  0  0  0  0  0  0  0  0  0  0  0
  2  3  1  0
  2  1  1  1
  4  2  1  0
  5  4  2  0
  7  6  1  0
  7  8  2  0
  9  8  1  0
 10  9  2  0
 11 10  1  0
 12 11  1  1
 12 13  1  0
 13  4  1  0
 14 23  1  0
 14 12  1  0
 15 14  2  0
 16 17  2  0
 16 10  1  0
 17  7  1  0
 18 19  1  0
 19 20  1  0
 20 22  1  0
 20 21  1  1
 22 23  1  6
 24 25  1  0
 24 22  1  0
 26 24  2  0
M  END
$$$$
