AYI.pdb
     RDKit          3D

 26 26  0  0  1  0  0  0  0  0999 V2000
   16.2300   -3.9741  -14.0649 C   0  0  0  0  0  0  0  0  0  0  0  0
   17.1460   -3.5559  -15.2019 C   0  0  2  0  0  0  0  0  0  0  0  0
   16.4764   -2.6574  -16.1014 N   0  0  0  0  0  0  0  0  0  0  0  0
   17.6559   -4.7887  -15.9043 C   0  0  0  0  0  0  0  0  0  0  0  0
   16.7875   -5.6261  -16.2581 O   0  0  0  0  0  0  0  0  0  0  0  0
   21.8018  -10.0223  -21.5010 O   0  0  0  0  0  0  0  0  0  0  0  0
   21.3078   -8.9784  -20.7059 C   0  0  0  0  0  0  0  0  0  0  0  0
   22.1589   -8.1178  -20.0460 C   0  0  0  0  0  0  0  0  0  0  0  0
   21.6185   -7.0944  -19.2672 C   0  0  0  0  0  0  0  0  0  0  0  0
   20.2620   -6.9206  -19.1389 C   0  0  0  0  0  0  0  0  0  0  0  0
   19.7256   -5.8463  -18.3194 C   0  0  0  0  0  0  0  0  0  0  0  0
   19.5276   -6.1260  -16.8719 C   0  0  2  0  0  0  0  0  0  0  0  0
   19.0308   -4.9832  -16.1481 N   0  0  0  0  0  0  0  0  0  0  0  0
   20.6427   -6.7474  -16.1629 C   0  0  0  0  0  0  0  0  0  0  0  0
   21.5850   -6.0216  -15.7028 O   0  0  0  0  0  0  0  0  0  0  0  0
   19.4010   -7.7757  -19.7950 C   0  0  0  0  0  0  0  0  0  0  0  0
   19.9483   -8.7958  -20.5714 C   0  0  0  0  0  0  0  0  0  0  0  0
   20.6277   -8.9710  -11.7002 C   0  0  0  0  0  0  0  0  0  0  0  0
   21.0548   -8.3422  -12.9941 C   0  0  0  0  0  0  0  0  0  0  0  0
   21.6324   -9.3635  -13.9582 C   0  0  2  0  0  0  0  0  0  0  0  0
   22.9253   -9.8660  -13.3481 C   0  0  0  0  0  0  0  0  0  0  0  0
   21.9753   -8.6899  -15.2720 C   0  0  2  0  0  0  0  0  0  0  0  0
   20.8029   -8.1426  -15.9142 N   0  0  0  0  0  0  0  0  0  0  0  0
   22.7437   -9.6239  -16.1087 C   0  0  0  0  0  0  0  0  0  0  0  0
   24.1262   -9.7097  -16.0817 O   0  0  0  0  0  0  0  0  0  0  0  0
   22.1372  -10.3905  -16.8945 O   0  0  0  0  0  0  0  0  0  0  0  0
  2  3  1  0
  2  1  1  1
  4  2  1  0
  5  4  2  0
  7  6  1  0
  7  8  2  0
  9  8  1  0
 10  9  2  0
 11 10  1  0
 12 11  1  6
 12 13  1  0
 13  4  1  0
 14 23  1  0
 14 12  1  0
 15 14  2  0
 16 17  2  0
 16 10  1  0
 17  7  1  0
 18 19  1  0
 19 20  1  0
 20 22  1  0
 20 21  1  1
 22 23  1  6
 24 25  1  0
 24 22  1  0
 26 24  2  0
M  END
$$$$
