AYI.pdb
     RDKit          3D

 26 26  0  0  1  0  0  0  0  0999 V2000
   20.2120  -13.2629  -18.0683 C   0  0  0  0  0  0  0  0  0  0  0  0
   21.5977  -13.4548  -17.4767 C   0  0  2  0  0  0  0  0  0  0  0  0
   21.7343  -14.7608  -16.8932 N   0  0  0  0  0  0  0  0  0  0  0  0
   21.8658  -12.3557  -16.4801 C   0  0  0  0  0  0  0  0  0  0  0  0
   21.4557  -12.5554  -15.3086 O   0  0  0  0  0  0  0  0  0  0  0  0
   27.5726  -14.2810  -17.0789 O   0  0  0  0  0  0  0  0  0  0  0  0
   26.7260  -13.2569  -16.6315 C   0  0  0  0  0  0  0  0  0  0  0  0
   26.3099  -13.1953  -15.3187 C   0  0  0  0  0  0  0  0  0  0  0  0
   25.4678  -12.1563  -14.9222 C   0  0  0  0  0  0  0  0  0  0  0  0
   25.0409  -11.1931  -15.8036 C   0  0  0  0  0  0  0  0  0  0  0  0
   24.1622  -10.1218  -15.3640 C   0  0  0  0  0  0  0  0  0  0  0  0
   22.7802  -10.1037  -15.9143 C   0  0  2  0  0  0  0  0  0  0  0  0
   22.5404  -11.1740  -16.8490 N   0  0  0  0  0  0  0  0  0  0  0  0
   22.2995   -8.8310  -16.4449 C   0  0  0  0  0  0  0  0  0  0  0  0
   22.2695   -8.6403  -17.7054 O   0  0  0  0  0  0  0  0  0  0  0  0
   25.4513  -11.2447  -17.1196 C   0  0  0  0  0  0  0  0  0  0  0  0
   26.2927  -12.2857  -17.5083 C   0  0  0  0  0  0  0  0  0  0  0  0
   17.9360   -6.2257  -18.3233 C   0  0  0  0  0  0  0  0  0  0  0  0
   19.1072   -5.8349  -17.4705 C   0  0  0  0  0  0  0  0  0  0  0  0
   19.8374   -7.0467  -16.9189 C   0  0  2  0  0  0  0  0  0  0  0  0
   18.9521   -7.6454  -15.8445 C   0  0  0  0  0  0  0  0  0  0  0  0
   21.1295   -6.6086  -16.2585 C   0  0  2  0  0  0  0  0  0  0  0  0
   21.8360   -7.7245  -15.6736 N   0  0  0  0  0  0  0  0  0  0  0  0
   20.8460   -5.5124  -15.3201 C   0  0  0  0  0  0  0  0  0  0  0  0
   20.8870   -5.6591  -13.9430 O   0  0  0  0  0  0  0  0  0  0  0  0
   20.5491   -4.3787  -15.7670 O   0  0  0  0  0  0  0  0  0  0  0  0
  2  3  1  0
  2  1  1  1
  4  2  1  0
  5  4  2  0
  7  6  1  0
  7  8  2  0
  9  8  1  0
 10  9  2  0
 11 10  1  0
 12 11  1  6
 12 13  1  0
 13  4  1  0
 14 23  1  0
 14 12  1  0
 15 14  2  0
 16 17  2  0
 16 10  1  0
 17  7  1  0
 18 19  1  0
 19 20  1  0
 20 22  1  0
 20 21  1  1
 22 23  1  1
 24 25  1  0
 24 22  1  0
 26 24  2  0
M  END
$$$$
