AYI.pdb
     RDKit          3D

 26 26  0  0  1  0  0  0  0  0999 V2000
   32.3458  -25.0245  -15.0098 C   0  0  0  0  0  0  0  0  0  0  0  0
   32.0738  -25.7694  -16.3053 C   0  0  2  0  0  0  0  0  0  0  0  0
   33.2349  -25.7752  -17.1518 N   0  0  0  0  0  0  0  0  0  0  0  0
   30.8767  -25.1556  -16.9859 C   0  0  0  0  0  0  0  0  0  0  0  0
   31.1207  -24.3510  -17.9207 O   0  0  0  0  0  0  0  0  0  0  0  0
   28.4780  -31.0945  -19.5738 O   0  0  0  0  0  0  0  0  0  0  0  0
   28.4409  -29.7095  -19.3586 C   0  0  0  0  0  0  0  0  0  0  0  0
   27.3290  -29.0991  -18.8189 C   0  0  0  0  0  0  0  0  0  0  0  0
   27.3411  -27.7179  -18.6239 C   0  0  0  0  0  0  0  0  0  0  0  0
   28.4300  -26.9489  -18.9553 C   0  0  0  0  0  0  0  0  0  0  0  0
   28.4153  -25.5109  -18.7427 C   0  0  0  0  0  0  0  0  0  0  0  0
   28.4089  -25.0293  -17.3352 C   0  0  2  0  0  0  0  0  0  0  0  0
   29.5609  -25.4723  -16.5912 N   0  0  0  0  0  0  0  0  0  0  0  0
   27.1823  -25.2422  -16.5722 C   0  0  0  0  0  0  0  0  0  0  0  0
   27.1160  -26.1996  -15.7324 O   0  0  0  0  0  0  0  0  0  0  0  0
   29.5482  -27.5491  -19.4958 C   0  0  0  0  0  0  0  0  0  0  0  0
   29.5287  -28.9296  -19.6876 C   0  0  0  0  0  0  0  0  0  0  0  0
   22.9460  -22.5475  -13.2736 C   0  0  0  0  0  0  0  0  0  0  0  0
   23.3147  -23.7389  -14.1081 C   0  0  0  0  0  0  0  0  0  0  0  0
   24.4298  -23.4220  -15.0890 C   0  0  2  0  0  0  0  0  0  0  0  0
   23.8568  -22.4669  -16.1165 C   0  0  0  0  0  0  0  0  0  0  0  0
   24.8453  -24.6850  -15.8167 C   0  0  2  0  0  0  0  0  0  0  0  0
   25.9931  -24.4605  -16.6645 N   0  0  0  0  0  0  0  0  0  0  0  0
   23.6789  -25.2483  -16.5132 C   0  0  0  0  0  0  0  0  0  0  0  0
   23.5307  -25.2263  -17.8905 O   0  0  0  0  0  0  0  0  0  0  0  0
   22.7594  -25.7799  -15.8462 O   0  0  0  0  0  0  0  0  0  0  0  0
  2  3  1  0
  2  1  1  1
  4  2  1  0
  5  4  2  0
  7  6  1  0
  7  8  2  0
  9  8  1  0
 10  9  2  0
 11 10  1  0
 12 11  1  6
 12 13  1  0
 13  4  1  0
 14 23  1  0
 14 12  1  0
 15 14  2  0
 16 17  2  0
 16 10  1  0
 17  7  1  0
 18 19  1  0
 19 20  1  0
 20 22  1  0
 20 21  1  6
 22 23  1  6
 24 25  1  0
 24 22  1  0
 26 24  2  0
M  END
$$$$
