AYI.pdb
     RDKit          3D

 26 26  0  0  1  0  0  0  0  0999 V2000
   29.1670  -19.1168  -14.0968 C   0  0  0  0  0  0  0  0  0  0  0  0
   27.8429  -19.8467  -14.2417 C   0  0  2  0  0  0  0  0  0  0  0  0
   27.1278  -19.3944  -15.4031 N   0  0  0  0  0  0  0  0  0  0  0  0
   27.0416  -19.6722  -12.9766 C   0  0  0  0  0  0  0  0  0  0  0  0
   26.6249  -18.5102  -12.7385 O   0  0  0  0  0  0  0  0  0  0  0  0
   21.1839  -19.3215  -15.1300 O   0  0  0  0  0  0  0  0  0  0  0  0
   22.0284  -19.7976  -14.1170 C   0  0  0  0  0  0  0  0  0  0  0  0
   21.9782  -19.2781  -12.8411 C   0  0  0  0  0  0  0  0  0  0  0  0
   22.8390  -19.7858  -11.8679 C   0  0  0  0  0  0  0  0  0  0  0  0
   23.7360  -20.7884  -12.1456 C   0  0  0  0  0  0  0  0  0  0  0  0
   24.6227  -21.2981  -11.1126 C   0  0  0  0  0  0  0  0  0  0  0  0
   25.9393  -20.6248  -10.9505 C   0  0  2  0  0  0  0  0  0  0  0  0
   26.7778  -20.7565  -12.1151 N   0  0  0  0  0  0  0  0  0  0  0  0
   26.6873  -20.9261   -9.7332 C   0  0  0  0  0  0  0  0  0  0  0  0
   27.3199  -22.0290   -9.6341 O   0  0  0  0  0  0  0  0  0  0  0  0
   23.7947  -21.3158  -13.4189 C   0  0  0  0  0  0  0  0  0  0  0  0
   22.9313  -20.8036  -14.3860 C   0  0  0  0  0  0  0  0  0  0  0  0
   29.3575  -18.1178   -5.7916 C   0  0  0  0  0  0  0  0  0  0  0  0
   28.7927  -19.1907   -6.6756 C   0  0  0  0  0  0  0  0  0  0  0  0
   27.3856  -19.5847   -6.2621 C   0  0  2  0  0  0  0  0  0  0  0  0
   27.4947  -20.2595   -4.9096 C   0  0  0  0  0  0  0  0  0  0  0  0
   26.8309  -20.6016   -7.2398 C   0  0  2  0  0  0  0  0  0  0  0  0
   26.7960  -20.0834   -8.5877 N   0  0  0  0  0  0  0  0  0  0  0  0
   25.5353  -21.0915   -6.7456 C   0  0  0  0  0  0  0  0  0  0  0  0
   25.3915  -22.2602   -6.0154 O   0  0  0  0  0  0  0  0  0  0  0  0
   24.4946  -20.4344   -6.9862 O   0  0  0  0  0  0  0  0  0  0  0  0
  2  3  1  0
  2  1  1  1
  4  2  1  0
  5  4  2  0
  7  6  1  0
  7  8  2  0
  9  8  1  0
 10  9  2  0
 11 10  1  0
 12 11  1  6
 12 13  1  0
 13  4  1  0
 14 23  1  0
 14 12  1  0
 15 14  2  0
 16 17  2  0
 16 10  1  0
 17  7  1  0
 18 19  1  0
 19 20  1  0
 20 22  1  0
 20 21  1  1
 22 23  1  6
 24 25  1  0
 24 22  1  0
 26 24  2  0
M  END
$$$$
