AYI.pdb
     RDKit          3D

 26 26  0  0  1  0  0  0  0  0999 V2000
   27.0454  -33.9933  -16.3050 C   0  0  0  0  0  0  0  0  0  0  0  0
   27.4812  -32.5555  -16.5277 C   0  0  2  0  0  0  0  0  0  0  0  0
   28.8022  -32.3296  -16.0093 N   0  0  0  0  0  0  0  0  0  0  0  0
   26.4627  -31.6296  -15.9123 C   0  0  0  0  0  0  0  0  0  0  0  0
   26.7608  -31.1406  -14.7931 O   0  0  0  0  0  0  0  0  0  0  0  0
   28.7576  -25.8983  -17.5192 O   0  0  0  0  0  0  0  0  0  0  0  0
   27.6180  -26.6978  -17.3522 C   0  0  0  0  0  0  0  0  0  0  0  0
   26.7578  -26.5046  -16.2924 C   0  0  0  0  0  0  0  0  0  0  0  0
   25.6371  -27.3261  -16.1701 C   0  0  0  0  0  0  0  0  0  0  0  0
   25.3670  -28.3228  -17.0760 C   0  0  0  0  0  0  0  0  0  0  0  0
   24.1923  -29.1656  -16.9238 C   0  0  0  0  0  0  0  0  0  0  0  0
   24.3185  -30.3599  -16.0461 C   0  0  2  0  0  0  0  0  0  0  0  0
   25.2475  -31.3332  -16.5625 N   0  0  0  0  0  0  0  0  0  0  0  0
   23.0762  -30.9993  -15.6217 C   0  0  0  0  0  0  0  0  0  0  0  0
   22.6529  -32.0333  -16.2366 O   0  0  0  0  0  0  0  0  0  0  0  0
   26.2207  -28.5249  -18.1405 C   0  0  0  0  0  0  0  0  0  0  0  0
   27.3383  -27.7000  -18.2561 C   0  0  0  0  0  0  0  0  0  0  0  0
   22.0564  -32.7536  -10.8533 C   0  0  0  0  0  0  0  0  0  0  0  0
   22.0396  -32.4909  -12.3306 C   0  0  0  0  0  0  0  0  0  0  0  0
   20.9165  -31.5489  -12.7271 C   0  0  2  0  0  0  0  0  0  0  0  0
   19.6149  -32.2872  -12.4882 C   0  0  0  0  0  0  0  0  0  0  0  0
   21.0056  -31.2416  -14.2087 C   0  0  2  0  0  0  0  0  0  0  0  0
   22.2437  -30.5772  -14.5434 N   0  0  0  0  0  0  0  0  0  0  0  0
   19.7967  -30.5154  -14.6259 C   0  0  0  0  0  0  0  0  0  0  0  0
   18.7166  -31.1258  -15.2426 O   0  0  0  0  0  0  0  0  0  0  0  0
   19.7182  -29.2801  -14.4237 O   0  0  0  0  0  0  0  0  0  0  0  0
  2  3  1  0
  2  1  1  1
  4  2  1  0
  5  4  2  0
  7  6  1  0
  7  8  2  0
  9  8  1  0
 10  9  2  0
 11 10  1  0
 12 11  1  6
 12 13  1  0
 13  4  1  0
 14 23  1  0
 14 12  1  0
 15 14  2  0
 16 17  2  0
 16 10  1  0
 17  7  1  0
 18 19  1  0
 19 20  1  0
 20 22  1  0
 20 21  1  6
 22 23  1  1
 24 25  1  0
 24 22  1  0
 26 24  2  0
M  END
$$$$
