AYI.pdb
     RDKit          3D

 26 26  0  0  1  0  0  0  0  0999 V2000
   35.4235  -28.8984  -22.0232 C   0  0  0  0  0  0  0  0  0  0  0  0
   34.5203  -28.2286  -21.0022 C   0  0  2  0  0  0  0  0  0  0  0  0
   35.2712  -27.3580  -20.1402 N   0  0  0  0  0  0  0  0  0  0  0  0
   33.7753  -29.2885  -20.2310 C   0  0  0  0  0  0  0  0  0  0  0  0
   34.4811  -30.1264  -19.6143 O   0  0  0  0  0  0  0  0  0  0  0  0
   27.8430  -32.9462  -14.9017 O   0  0  0  0  0  0  0  0  0  0  0  0
   28.6312  -32.1225  -15.7179 C   0  0  0  0  0  0  0  0  0  0  0  0
   28.0612  -31.1716  -16.5372 C   0  0  0  0  0  0  0  0  0  0  0  0
   28.8883  -30.3762  -17.3303 C   0  0  0  0  0  0  0  0  0  0  0  0
   30.2549  -30.5145  -17.3184 C   0  0  0  0  0  0  0  0  0  0  0  0
   31.0934  -29.6730  -18.1564 C   0  0  0  0  0  0  0  0  0  0  0  0
   31.6403  -30.2781  -19.4004 C   0  0  2  0  0  0  0  0  0  0  0  0
   32.3664  -29.3298  -20.2068 N   0  0  0  0  0  0  0  0  0  0  0  0
   30.7123  -31.0546  -20.2179 C   0  0  0  0  0  0  0  0  0  0  0  0
   29.9518  -30.4606  -21.0516 O   0  0  0  0  0  0  0  0  0  0  0  0
   30.8361  -31.4626  -16.5022 C   0  0  0  0  0  0  0  0  0  0  0  0
   30.0032  -32.2535  -15.7124 C   0  0  0  0  0  0  0  0  0  0  0  0
   31.7751  -35.3852  -23.0207 C   0  0  0  0  0  0  0  0  0  0  0  0
   31.1792  -34.1355  -22.4421 C   0  0  0  0  0  0  0  0  0  0  0  0
   29.9940  -34.4358  -21.5413 C   0  0  2  0  0  0  0  0  0  0  0  0
   28.8853  -34.9625  -22.4301 C   0  0  0  0  0  0  0  0  0  0  0  0
   29.5002  -33.1538  -20.9010 C   0  0  2  0  0  0  0  0  0  0  0  0
   30.5549  -32.4718  -20.1877 N   0  0  0  0  0  0  0  0  0  0  0  0
   28.3100  -33.4461  -20.0880 C   0  0  0  0  0  0  0  0  0  0  0  0
   28.3617  -34.1118  -18.8742 O   0  0  0  0  0  0  0  0  0  0  0  0
   27.1804  -33.0840  -20.4954 O   0  0  0  0  0  0  0  0  0  0  0  0
  2  3  1  0
  2  1  1  6
  4  2  1  0
  5  4  2  0
  7  6  1  0
  7  8  2  0
  9  8  1  0
 10  9  2  0
 11 10  1  0
 12 11  1  1
 12 13  1  0
 13  4  1  0
 14 23  1  0
 14 12  1  0
 15 14  2  0
 16 17  2  0
 16 10  1  0
 17  7  1  0
 18 19  1  0
 19 20  1  0
 20 22  1  0
 20 21  1  6
 22 23  1  1
 24 25  1  0
 24 22  1  0
 26 24  2  0
M  END
$$$$
