QSD.pdb
     RDKit          3D

 24 23  0  0  1  0  0  0  0  0999 V2000
   19.2125  -24.9452  -13.0298 N   0  0  0  0  0  0  0  0  0  0  0  0
   18.8765  -23.7357  -12.3775 C   0  0  0  0  0  0  0  0  0  0  0  0
   19.2511  -22.6557  -12.8804 O   0  0  0  0  0  0  0  0  0  0  0  0
   18.0984  -23.7225  -11.1247 C   0  0  0  0  0  0  0  0  0  0  0  0
   17.7143  -25.1167  -10.7538 C   0  0  0  0  0  0  0  0  0  0  0  0
   18.6812  -25.8054   -9.8491 C   0  0  2  0  0  0  0  0  0  0  0  0
   19.4205  -26.8282  -10.5254 N   0  0  0  0  0  0  0  0  0  0  0  0
   18.0557  -26.2665   -8.5800 C   0  0  0  0  0  0  0  0  0  0  0  0
   17.1967  -27.1707   -8.6548 O   0  0  0  0  0  0  0  0  0  0  0  0
   18.7699  -24.0425   -5.1244 O   0  0  0  0  0  0  0  0  0  0  0  0
   18.5333  -25.4184   -4.8843 C   0  0  0  0  0  0  0  0  0  0  0  0
   17.8813  -26.0710   -6.0432 C   0  0  2  0  0  0  0  0  0  0  0  0
   18.3935  -25.7266   -7.3167 N   0  0  0  0  0  0  0  0  0  0  0  0
   16.3982  -26.0232   -5.9015 C   0  0  0  0  0  0  0  0  0  0  0  0
   15.7510  -25.2139   -6.6008 O   0  0  0  0  0  0  0  0  0  0  0  0
   15.6566  -26.8408   -5.0192 N   0  0  0  0  0  0  0  0  0  0  0  0
   14.2261  -26.7191   -4.8392 C   0  0  1  0  0  0  0  0  0  0  0  0
   13.6070  -28.0093   -4.3552 C   0  0  0  0  0  0  0  0  0  0  0  0
   12.1265  -27.9106   -4.2951 C   0  0  0  0  0  0  0  0  0  0  0  0
   11.3729  -28.8205   -4.7224 O   0  0  0  0  0  0  0  0  0  0  0  0
   13.9897  -25.6883   -3.7957 C   0  0  0  0  0  0  0  0  0  0  0  0
   12.9615  -24.9594   -3.7931 O   0  0  0  0  0  0  0  0  0  0  0  0
   11.5082  -26.7883   -3.7543 O   0  0  0  0  0  0  0  0  0  0  0  0
   14.8918  -25.4658   -2.7564 O   0  0  0  0  0  0  0  0  0  0  0  0
  2  1  1  0
  2  3  2  0
  4  5  1  0
  4  2  1  0
  5  6  1  0
  6  8  1  0
  6  7  1  6
  8 13  1  0
  9  8  2  0
 10 11  1  0
 12 11  1  1
 12 14  1  0
 13 12  1  0
 14 15  2  0
 14 16  1  0
 16 17  1  0
 17 21  1  0
 17 18  1  1
 19 18  1  0
 20 19  2  0
 21 22  2  0
 21 24  1  0
 23 19  1  0
M  END
$$$$
