QSD.pdb
     RDKit          3D

 24 23  0  0  1  0  0  0  0  0999 V2000
   14.9675  -10.2580  -15.3383 N   0  0  0  0  0  0  0  0  0  0  0  0
   15.1531  -11.3932  -16.1616 C   0  0  0  0  0  0  0  0  0  0  0  0
   14.1518  -12.0487  -16.5187 O   0  0  0  0  0  0  0  0  0  0  0  0
   16.4944  -11.8169  -16.6047 C   0  0  0  0  0  0  0  0  0  0  0  0
   17.5267  -10.8983  -16.0394 C   0  0  0  0  0  0  0  0  0  0  0  0
   18.9216  -11.1843  -16.4867 C   0  0  2  0  0  0  0  0  0  0  0  0
   19.3201  -12.5272  -16.1905 N   0  0  0  0  0  0  0  0  0  0  0  0
   19.8971  -10.1603  -16.0236 C   0  0  0  0  0  0  0  0  0  0  0  0
   19.6194   -9.5272  -14.9829 O   0  0  0  0  0  0  0  0  0  0  0  0
   24.2548   -7.9757  -16.8224 O   0  0  0  0  0  0  0  0  0  0  0  0
   23.3232   -8.9657  -17.2209 C   0  0  0  0  0  0  0  0  0  0  0  0
   22.0828   -8.9054  -16.4136 C   0  0  2  0  0  0  0  0  0  0  0  0
   21.1043   -9.8846  -16.7079 N   0  0  0  0  0  0  0  0  0  0  0  0
   21.5923   -7.5012  -16.3164 C   0  0  0  0  0  0  0  0  0  0  0  0
   20.9236   -7.0288  -17.2611 O   0  0  0  0  0  0  0  0  0  0  0  0
   21.8316   -6.6495  -15.2144 N   0  0  0  0  0  0  0  0  0  0  0  0
   21.3896   -5.2726  -15.1661 C   0  0  1  0  0  0  0  0  0  0  0  0
   19.8834   -5.1624  -15.2017 C   0  0  0  0  0  0  0  0  0  0  0  0
   19.4409   -3.7491  -15.0910 C   0  0  0  0  0  0  0  0  0  0  0  0
   20.0941   -2.7979  -15.5879 O   0  0  0  0  0  0  0  0  0  0  0  0
   21.8519   -4.6963  -13.8772 C   0  0  0  0  0  0  0  0  0  0  0  0
   21.6241   -3.4987  -13.5573 O   0  0  0  0  0  0  0  0  0  0  0  0
   18.2669   -3.4201  -14.4217 O   0  0  0  0  0  0  0  0  0  0  0  0
   22.5659   -5.4465  -12.9439 O   0  0  0  0  0  0  0  0  0  0  0  0
  2  1  1  0
  2  3  2  0
  4  5  1  0
  4  2  1  0
  5  6  1  0
  6  8  1  0
  6  7  1  1
  8 13  1  0
  9  8  2  0
 10 11  1  0
 12 11  1  6
 12 14  1  0
 13 12  1  0
 14 15  2  0
 14 16  1  0
 16 17  1  0
 17 21  1  0
 17 18  1  1
 19 18  1  0
 20 19  2  0
 21 22  2  0
 21 24  1  0
 23 19  1  0
M  END
$$$$
