QSD.pdb
     RDKit          3D

 24 23  0  0  1  0  0  0  0  0999 V2000
   15.5867  -11.0136  -15.9419 N   0  0  0  0  0  0  0  0  0  0  0  0
   15.6822  -12.3966  -16.2239 C   0  0  0  0  0  0  0  0  0  0  0  0
   14.6318  -13.0640  -16.3287 O   0  0  0  0  0  0  0  0  0  0  0  0
   16.9866  -13.0630  -16.3957 C   0  0  0  0  0  0  0  0  0  0  0  0
   18.0889  -12.0866  -16.1501 C   0  0  0  0  0  0  0  0  0  0  0  0
   19.2148  -12.1653  -17.1268 C   0  0  2  0  0  0  0  0  0  0  0  0
   19.8756  -13.4349  -17.0895 N   0  0  0  0  0  0  0  0  0  0  0  0
   20.1461  -11.0089  -17.0277 C   0  0  0  0  0  0  0  0  0  0  0  0
   20.7440  -10.8401  -15.9437 O   0  0  0  0  0  0  0  0  0  0  0  0
   22.4817   -9.5037  -20.0841 O   0  0  0  0  0  0  0  0  0  0  0  0
   21.6564   -8.5299  -19.4698 C   0  0  0  0  0  0  0  0  0  0  0  0
   21.2027   -8.9655  -18.1288 C   0  0  2  0  0  0  0  0  0  0  0  0
   20.3731  -10.1116  -18.0978 N   0  0  0  0  0  0  0  0  0  0  0  0
   20.7307   -7.7964  -17.3334 C   0  0  0  0  0  0  0  0  0  0  0  0
   19.7281   -7.1630  -17.7286 O   0  0  0  0  0  0  0  0  0  0  0  0
   21.3443   -7.3440  -16.1436 N   0  0  0  0  0  0  0  0  0  0  0  0
   20.9196   -6.1562  -15.4348 C   0  0  1  0  0  0  0  0  0  0  0  0
   20.1354   -6.4935  -14.1884 C   0  0  0  0  0  0  0  0  0  0  0  0
   20.8845   -7.4321  -13.3147 C   0  0  0  0  0  0  0  0  0  0  0  0
   21.9631   -7.9687  -13.6709 O   0  0  0  0  0  0  0  0  0  0  0  0
   22.1407   -5.4230  -15.0125 C   0  0  0  0  0  0  0  0  0  0  0  0
   22.0852   -4.3468  -14.3589 O   0  0  0  0  0  0  0  0  0  0  0  0
   20.4118   -7.7578  -12.0478 O   0  0  0  0  0  0  0  0  0  0  0  0
   23.4220   -5.8822  -15.3143 O   0  0  0  0  0  0  0  0  0  0  0  0
  2  1  1  0
  2  3  2  0
  4  5  1  0
  4  2  1  0
  5  6  1  0
  6  8  1  0
  6  7  1  1
  8 13  1  0
  9  8  2  0
 10 11  1  0
 12 11  1  6
 12 14  1  0
 13 12  1  0
 14 15  2  0
 14 16  1  0
 16 17  1  0
 17 21  1  0
 17 18  1  1
 19 18  1  0
 20 19  2  0
 21 22  2  0
 21 24  1  0
 23 19  1  0
M  END
$$$$
