QSD.pdb
     RDKit          3D

 24 23  0  0  1  0  0  0  0  0999 V2000
   14.7658  -14.1045   -9.7205 N   0  0  0  0  0  0  0  0  0  0  0  0
   14.7252  -14.3462  -11.1138 C   0  0  0  0  0  0  0  0  0  0  0  0
   14.7921  -15.5243  -11.5231 O   0  0  0  0  0  0  0  0  0  0  0  0
   14.6063  -13.2447  -12.0871 C   0  0  0  0  0  0  0  0  0  0  0  0
   14.6665  -11.9334  -11.3759 C   0  0  0  0  0  0  0  0  0  0  0  0
   14.0897  -10.7879  -12.1393 C   0  0  2  0  0  0  0  0  0  0  0  0
   13.7385  -11.1524  -13.4786 N   0  0  0  0  0  0  0  0  0  0  0  0
   14.9278   -9.5609  -12.0590 C   0  0  0  0  0  0  0  0  0  0  0  0
   15.5395   -9.2109  -13.0906 O   0  0  0  0  0  0  0  0  0  0  0  0
   15.9171   -7.6179   -8.2864 O   0  0  0  0  0  0  0  0  0  0  0  0
   15.4932   -6.8709   -9.4130 C   0  0  0  0  0  0  0  0  0  0  0  0
   15.7693   -7.5879  -10.6793 C   0  0  2  0  0  0  0  0  0  0  0  0
   15.0533   -8.7924  -10.8778 N   0  0  0  0  0  0  0  0  0  0  0  0
   17.2369   -7.6517  -10.9325 C   0  0  0  0  0  0  0  0  0  0  0  0
   17.8341   -8.7347  -10.7501 O   0  0  0  0  0  0  0  0  0  0  0  0
   18.0166   -6.5583  -11.3722 N   0  0  0  0  0  0  0  0  0  0  0  0
   19.4457   -6.6380  -11.5838 C   0  0  1  0  0  0  0  0  0  0  0  0
   19.9133   -5.6704  -12.6455 C   0  0  0  0  0  0  0  0  0  0  0  0
   21.3794   -5.7690  -12.8606 C   0  0  0  0  0  0  0  0  0  0  0  0
   22.1806   -4.8922  -12.4511 O   0  0  0  0  0  0  0  0  0  0  0  0
   20.1111   -6.2626  -10.3096 C   0  0  0  0  0  0  0  0  0  0  0  0
   21.3595   -6.3420  -10.1555 O   0  0  0  0  0  0  0  0  0  0  0  0
   21.9296   -6.8540  -13.5346 O   0  0  0  0  0  0  0  0  0  0  0  0
   19.3937   -5.7997   -9.2075 O   0  0  0  0  0  0  0  0  0  0  0  0
  2  1  1  0
  2  3  2  0
  4  5  1  0
  4  2  1  0
  5  6  1  0
  6  8  1  0
  6  7  1  6
  8 13  1  0
  9  8  2  0
 10 11  1  0
 12 11  1  1
 12 14  1  0
 13 12  1  0
 14 15  2  0
 14 16  1  0
 16 17  1  0
 17 21  1  0
 17 18  1  6
 19 18  1  0
 20 19  2  0
 21 22  2  0
 21 24  1  0
 23 19  1  0
M  END
$$$$
