QSD.pdb
     RDKit          3D

 24 23  0  0  1  0  0  0  0  0999 V2000
   19.3161  -11.5329  -19.5269 N   0  0  0  0  0  0  0  0  0  0  0  0
   18.0340  -12.1168  -19.3987 C   0  0  0  0  0  0  0  0  0  0  0  0
   17.6732  -12.9685  -20.2378 O   0  0  0  0  0  0  0  0  0  0  0  0
   17.1201  -11.7442  -18.3028 C   0  0  0  0  0  0  0  0  0  0  0  0
   17.7460  -10.6806  -17.4626 C   0  0  0  0  0  0  0  0  0  0  0  0
   18.7999  -11.1712  -16.5264 C   0  0  2  0  0  0  0  0  0  0  0  0
   18.3234  -12.2215  -15.6779 N   0  0  0  0  0  0  0  0  0  0  0  0
   19.4717  -10.0691  -15.7857 C   0  0  0  0  0  0  0  0  0  0  0  0
   18.7496   -9.2952  -15.1220 O   0  0  0  0  0  0  0  0  0  0  0  0
   23.3609  -10.2400  -14.1687 O   0  0  0  0  0  0  0  0  0  0  0  0
   23.0894   -9.1515  -15.0337 C   0  0  0  0  0  0  0  0  0  0  0  0
   21.6359   -8.8857  -15.1377 C   0  0  2  0  0  0  0  0  0  0  0  0
   20.8725   -9.8716  -15.8071 N   0  0  0  0  0  0  0  0  0  0  0  0
   21.3929   -7.4760  -15.5569 C   0  0  0  0  0  0  0  0  0  0  0  0
   21.3333   -7.2111  -16.7771 O   0  0  0  0  0  0  0  0  0  0  0  0
   21.2212   -6.3977  -14.6598 N   0  0  0  0  0  0  0  0  0  0  0  0
   20.9231   -5.0487  -15.0898 C   0  0  1  0  0  0  0  0  0  0  0  0
   19.7042   -4.4913  -14.3928 C   0  0  0  0  0  0  0  0  0  0  0  0
   19.4305   -3.0940  -14.8149 C   0  0  0  0  0  0  0  0  0  0  0  0
   19.2727   -2.7728  -16.0191 O   0  0  0  0  0  0  0  0  0  0  0  0
   22.0808   -4.1930  -14.7229 C   0  0  0  0  0  0  0  0  0  0  0  0
   22.1830   -2.9988  -15.1127 O   0  0  0  0  0  0  0  0  0  0  0  0
   19.3370   -2.0714  -13.8768 O   0  0  0  0  0  0  0  0  0  0  0  0
   23.1241   -4.6604  -13.9250 O   0  0  0  0  0  0  0  0  0  0  0  0
  2  1  1  0
  2  3  2  0
  4  5  1  0
  4  2  1  0
  5  6  1  0
  6  8  1  0
  6  7  1  1
  8 13  1  0
  9  8  2  0
 10 11  1  0
 12 11  1  6
 12 14  1  0
 13 12  1  0
 14 15  2  0
 14 16  1  0
 16 17  1  0
 17 21  1  0
 17 18  1  1
 19 18  1  0
 20 19  2  0
 21 22  2  0
 21 24  1  0
 23 19  1  0
M  END
$$$$
