QSD.pdb
     RDKit          3D

 24 23  0  0  1  0  0  0  0  0999 V2000
   24.1367  -21.4259  -15.9888 N   0  0  0  0  0  0  0  0  0  0  0  0
   23.4396  -20.4564  -16.7472 C   0  0  0  0  0  0  0  0  0  0  0  0
   23.5855  -20.4426  -17.9875 O   0  0  0  0  0  0  0  0  0  0  0  0
   22.5500  -19.4680  -16.1094 C   0  0  0  0  0  0  0  0  0  0  0  0
   22.4891  -19.7180  -14.6388 C   0  0  0  0  0  0  0  0  0  0  0  0
   21.1423  -19.5087  -14.0304 C   0  0  2  0  0  0  0  0  0  0  0  0
   21.0081  -18.2076  -13.4479 N   0  0  0  0  0  0  0  0  0  0  0  0
   20.7453  -20.6124  -13.1146 C   0  0  0  0  0  0  0  0  0  0  0  0
   20.7631  -21.7755  -13.5704 O   0  0  0  0  0  0  0  0  0  0  0  0
   19.5052  -19.9106   -8.9343 O   0  0  0  0  0  0  0  0  0  0  0  0
   20.2790  -21.0043   -9.3946 C   0  0  0  0  0  0  0  0  0  0  0  0
   19.9617  -21.3447  -10.8008 C   0  0  2  0  0  0  0  0  0  0  0  0
   20.3561  -20.3940  -11.7721 N   0  0  0  0  0  0  0  0  0  0  0  0
   18.5636  -21.8498  -10.9118 C   0  0  0  0  0  0  0  0  0  0  0  0
   17.7901  -21.3092  -11.7316 O   0  0  0  0  0  0  0  0  0  0  0  0
   18.0392  -22.9144  -10.1447 N   0  0  0  0  0  0  0  0  0  0  0  0
   16.6794  -23.3912  -10.2759 C   0  0  1  0  0  0  0  0  0  0  0  0
   16.4521  -24.0907  -11.5954 C   0  0  0  0  0  0  0  0  0  0  0  0
   15.0454  -24.5470  -11.7313 C   0  0  0  0  0  0  0  0  0  0  0  0
   14.7019  -25.7391  -11.5335 O   0  0  0  0  0  0  0  0  0  0  0  0
   16.4439  -24.3832   -9.1953 C   0  0  0  0  0  0  0  0  0  0  0  0
   17.3800  -25.0568   -8.6869 O   0  0  0  0  0  0  0  0  0  0  0  0
   14.0386  -23.6566  -12.0888 O   0  0  0  0  0  0  0  0  0  0  0  0
   15.1724  -24.6282   -8.6787 O   0  0  0  0  0  0  0  0  0  0  0  0
  2  1  1  0
  2  3  2  0
  4  5  1  0
  4  2  1  0
  5  6  1  0
  6  8  1  0
  6  7  1  1
  8 13  1  0
  9  8  2  0
 10 11  1  0
 12 11  1  1
 12 14  1  0
 13 12  1  0
 14 15  2  0
 14 16  1  0
 16 17  1  0
 17 21  1  0
 17 18  1  6
 19 18  1  0
 20 19  2  0
 21 22  2  0
 21 24  1  0
 23 19  1  0
M  END
$$$$
