QSD.pdb
     RDKit          3D

 24 23  0  0  1  0  0  0  0  0999 V2000
   20.3005  -15.9507  -15.7828 N   0  0  0  0  0  0  0  0  0  0  0  0
   18.8941  -16.0328  -15.9115 C   0  0  0  0  0  0  0  0  0  0  0  0
   18.3152  -17.0760  -15.5423 O   0  0  0  0  0  0  0  0  0  0  0  0
   18.1018  -14.9206  -16.4686 C   0  0  0  0  0  0  0  0  0  0  0  0
   19.0141  -13.8367  -16.9395 C   0  0  0  0  0  0  0  0  0  0  0  0
   19.1893  -12.7119  -15.9741 C   0  0  2  0  0  0  0  0  0  0  0  0
   18.1742  -12.7026  -14.9644 N   0  0  0  0  0  0  0  0  0  0  0  0
   19.3685  -11.3969  -16.6471 C   0  0  0  0  0  0  0  0  0  0  0  0
   19.6859  -11.4051  -17.8555 O   0  0  0  0  0  0  0  0  0  0  0  0
   18.2966   -6.7582  -17.0642 O   0  0  0  0  0  0  0  0  0  0  0  0
   18.1063   -8.0056  -16.4203 C   0  0  0  0  0  0  0  0  0  0  0  0
   19.3198   -8.8514  -16.4980 C   0  0  2  0  0  0  0  0  0  0  0  0
   19.1953  -10.1620  -15.9788 N   0  0  0  0  0  0  0  0  0  0  0  0
   20.5185   -8.0846  -16.0540 C   0  0  0  0  0  0  0  0  0  0  0  0
   21.6435   -8.4230  -16.4811 O   0  0  0  0  0  0  0  0  0  0  0  0
   20.4755   -6.9828  -15.1701 N   0  0  0  0  0  0  0  0  0  0  0  0
   21.6514   -6.2393  -14.7725 C   0  0  1  0  0  0  0  0  0  0  0  0
   22.3904   -5.6744  -15.9628 C   0  0  0  0  0  0  0  0  0  0  0  0
   23.5184   -4.8068  -15.5382 C   0  0  0  0  0  0  0  0  0  0  0  0
   24.3862   -5.1862  -14.7127 O   0  0  0  0  0  0  0  0  0  0  0  0
   21.2000   -5.0949  -13.9395 C   0  0  0  0  0  0  0  0  0  0  0  0
   20.0494   -4.5936  -14.0546 O   0  0  0  0  0  0  0  0  0  0  0  0
   23.6588   -3.5201  -16.0471 O   0  0  0  0  0  0  0  0  0  0  0  0
   22.0231   -4.5069  -12.9801 O   0  0  0  0  0  0  0  0  0  0  0  0
  2  1  1  0
  2  3  2  0
  4  5  1  0
  4  2  1  0
  5  6  1  0
  6  8  1  0
  6  7  1  1
  8 13  1  0
  9  8  2  0
 10 11  1  0
 12 11  1  1
 12 14  1  0
 13 12  1  0
 14 15  2  0
 14 16  1  0
 16 17  1  0
 17 21  1  0
 17 18  1  6
 19 18  1  0
 20 19  2  0
 21 22  2  0
 21 24  1  0
 23 19  1  0
M  END
$$$$
