QSD.pdb
     RDKit          3D

 24 23  0  0  1  0  0  0  0  0999 V2000
   15.1408   -4.7699   -7.5169 N   0  0  0  0  0  0  0  0  0  0  0  0
   13.8586   -5.3465   -7.3591 C   0  0  0  0  0  0  0  0  0  0  0  0
   12.9942   -4.7240   -6.7073 O   0  0  0  0  0  0  0  0  0  0  0  0
   13.5227   -6.6581   -7.9438 C   0  0  0  0  0  0  0  0  0  0  0  0
   14.7126   -7.2148   -8.6530 C   0  0  0  0  0  0  0  0  0  0  0  0
   14.3923   -8.2408   -9.6885 C   0  0  2  0  0  0  0  0  0  0  0  0
   14.0947   -9.5170   -9.1117 N   0  0  0  0  0  0  0  0  0  0  0  0
   15.4093   -8.3027  -10.7730 C   0  0  0  0  0  0  0  0  0  0  0  0
   16.4232   -9.0053  -10.5745 O   0  0  0  0  0  0  0  0  0  0  0  0
   16.5394   -7.4196  -15.4504 O   0  0  0  0  0  0  0  0  0  0  0  0
   15.5673   -7.3560  -14.4219 C   0  0  0  0  0  0  0  0  0  0  0  0
   16.1746   -7.5417  -13.0838 C   0  0  2  0  0  0  0  0  0  0  0  0
   15.2704   -7.6069  -11.9970 N   0  0  0  0  0  0  0  0  0  0  0  0
   17.3399   -6.6287  -12.9093 C   0  0  0  0  0  0  0  0  0  0  0  0
   17.1550   -5.5067  -12.3900 O   0  0  0  0  0  0  0  0  0  0  0  0
   18.6624   -6.9444  -13.2942 N   0  0  0  0  0  0  0  0  0  0  0  0
   19.7580   -6.0028  -13.2124 C   0  0  1  0  0  0  0  0  0  0  0  0
   21.0125   -6.6436  -12.6667 C   0  0  0  0  0  0  0  0  0  0  0  0
   22.1318   -5.6700  -12.5968 C   0  0  0  0  0  0  0  0  0  0  0  0
   23.2994   -6.0078  -12.2794 O   0  0  0  0  0  0  0  0  0  0  0  0
   20.0551   -5.5367  -14.5914 C   0  0  0  0  0  0  0  0  0  0  0  0
   20.7772   -4.5290  -14.8183 O   0  0  0  0  0  0  0  0  0  0  0  0
   21.9256   -4.3251  -12.8850 O   0  0  0  0  0  0  0  0  0  0  0  0
   19.5523   -6.1868  -15.7175 O   0  0  0  0  0  0  0  0  0  0  0  0
  2  1  1  0
  2  3  2  0
  4  5  1  0
  4  2  1  0
  5  6  1  0
  6  8  1  0
  6  7  1  1
  8 13  1  0
  9  8  2  0
 10 11  1  0
 12 11  1  6
 12 14  1  0
 13 12  1  0
 14 15  2  0
 14 16  1  0
 16 17  1  0
 17 21  1  0
 17 18  1  6
 19 18  1  0
 20 19  2  0
 21 22  2  0
 21 24  1  0
 23 19  1  0
M  END
$$$$
