QSD.pdb
     RDKit          3D

 24 23  0  0  1  0  0  0  0  0999 V2000
   19.1094  -15.1738  -15.2724 N   0  0  0  0  0  0  0  0  0  0  0  0
   18.4004  -15.2945  -16.4906 C   0  0  0  0  0  0  0  0  0  0  0  0
   18.1952  -16.4343  -16.9579 O   0  0  0  0  0  0  0  0  0  0  0  0
   17.9016  -14.1113  -17.2161 C   0  0  0  0  0  0  0  0  0  0  0  0
   18.2385  -12.8724  -16.4542 C   0  0  0  0  0  0  0  0  0  0  0  0
   19.2470  -11.9935  -17.1161 C   0  0  2  0  0  0  0  0  0  0  0  0
   20.2028  -12.7427  -17.8745 N   0  0  0  0  0  0  0  0  0  0  0  0
   19.8670  -11.0189  -16.1778 C   0  0  0  0  0  0  0  0  0  0  0  0
   19.1008  -10.2844  -15.5186 O   0  0  0  0  0  0  0  0  0  0  0  0
   24.2130  -10.3962  -15.9683 O   0  0  0  0  0  0  0  0  0  0  0  0
   23.3651  -10.4050  -14.8334 C   0  0  0  0  0  0  0  0  0  0  0  0
   21.9828  -10.0019  -15.1811 C   0  0  2  0  0  0  0  0  0  0  0  0
   21.2665  -10.8979  -16.0101 N   0  0  0  0  0  0  0  0  0  0  0  0
   21.9441   -8.5673  -15.5840 C   0  0  0  0  0  0  0  0  0  0  0  0
   22.1118   -8.2738  -16.7875 O   0  0  0  0  0  0  0  0  0  0  0  0
   21.7273   -7.4953  -14.6891 N   0  0  0  0  0  0  0  0  0  0  0  0
   21.7606   -6.1064  -15.0932 C   0  0  1  0  0  0  0  0  0  0  0  0
   20.4108   -5.6260  -15.5720 C   0  0  0  0  0  0  0  0  0  0  0  0
   20.4336   -4.1757  -15.8905 C   0  0  0  0  0  0  0  0  0  0  0  0
   21.4421   -3.6097  -16.3813 O   0  0  0  0  0  0  0  0  0  0  0  0
   22.1276   -5.2994  -13.9011 C   0  0  0  0  0  0  0  0  0  0  0  0
   22.1251   -5.7823  -12.7369 O   0  0  0  0  0  0  0  0  0  0  0  0
   19.3204   -3.3762  -15.6534 O   0  0  0  0  0  0  0  0  0  0  0  0
   22.4970   -3.9586  -13.9991 O   0  0  0  0  0  0  0  0  0  0  0  0
  2  1  1  0
  2  3  2  0
  4  5  1  0
  4  2  1  0
  5  6  1  0
  6  8  1  0
  6  7  1  1
  8 13  1  0
  9  8  2  0
 10 11  1  0
 12 11  1  6
 12 14  1  0
 13 12  1  0
 14 15  2  0
 14 16  1  0
 16 17  1  0
 17 21  1  0
 17 18  1  1
 19 18  1  0
 20 19  2  0
 21 22  2  0
 21 24  1  0
 23 19  1  0
M  END
$$$$
