QSD.pdb
     RDKit          3D

 24 23  0  0  1  0  0  0  0  0999 V2000
   23.9638  -35.4993   -7.8171 N   0  0  0  0  0  0  0  0  0  0  0  0
   23.2694  -34.9810   -8.9353 C   0  0  0  0  0  0  0  0  0  0  0  0
   22.1715  -35.4864   -9.2500 O   0  0  0  0  0  0  0  0  0  0  0  0
   23.8100  -33.8640   -9.7322 C   0  0  0  0  0  0  0  0  0  0  0  0
   25.1494  -33.4687   -9.2043 C   0  0  0  0  0  0  0  0  0  0  0  0
   25.1052  -32.6049   -7.9879 C   0  0  2  0  0  0  0  0  0  0  0  0
   25.2863  -31.2196   -8.3012 N   0  0  0  0  0  0  0  0  0  0  0  0
   26.0014  -33.0898   -6.9034 C   0  0  0  0  0  0  0  0  0  0  0  0
   26.8956  -33.9051   -7.2144 O   0  0  0  0  0  0  0  0  0  0  0  0
   25.1993  -31.8983   -2.9212 O   0  0  0  0  0  0  0  0  0  0  0  0
   26.5512  -32.1635   -3.2513 C   0  0  0  0  0  0  0  0  0  0  0  0
   26.6615  -33.0398   -4.4404 C   0  0  2  0  0  0  0  0  0  0  0  0
   25.8780  -32.6676   -5.5587 N   0  0  0  0  0  0  0  0  0  0  0  0
   26.5871  -34.4736   -4.0396 C   0  0  0  0  0  0  0  0  0  0  0  0
   25.5339  -35.1089   -4.2631 O   0  0  0  0  0  0  0  0  0  0  0  0
   27.6391  -35.1804   -3.4146 N   0  0  0  0  0  0  0  0  0  0  0  0
   27.4938  -36.5237   -2.8969 C   0  0  1  0  0  0  0  0  0  0  0  0
   28.8305  -37.1580   -2.5919 C   0  0  0  0  0  0  0  0  0  0  0  0
   28.6748  -38.5730   -2.1689 C   0  0  0  0  0  0  0  0  0  0  0  0
   29.6213  -39.2372   -1.6775 O   0  0  0  0  0  0  0  0  0  0  0  0
   26.7372  -36.4353   -1.6214 C   0  0  0  0  0  0  0  0  0  0  0  0
   26.2978  -37.4576   -1.0294 O   0  0  0  0  0  0  0  0  0  0  0  0
   27.4547  -39.2270   -2.3030 O   0  0  0  0  0  0  0  0  0  0  0  0
   26.4679  -35.2153   -1.0028 O   0  0  0  0  0  0  0  0  0  0  0  0
  2  1  1  0
  2  3  2  0
  4  5  1  0
  4  2  1  0
  5  6  1  0
  6  8  1  0
  6  7  1  6
  8 13  1  0
  9  8  2  0
 10 11  1  0
 12 11  1  1
 12 14  1  0
 13 12  1  0
 14 15  2  0
 14 16  1  0
 16 17  1  0
 17 21  1  0
 17 18  1  1
 19 18  1  0
 20 19  2  0
 21 22  2  0
 21 24  1  0
 23 19  1  0
M  END
$$$$
