QSD.pdb
     RDKit          3D

 24 23  0  0  1  0  0  0  0  0999 V2000
   15.1281  -25.8972   -1.7318 N   0  0  0  0  0  0  0  0  0  0  0  0
   13.8707  -25.6162   -2.3158 C   0  0  0  0  0  0  0  0  0  0  0  0
   13.5179  -26.2606   -3.3257 O   0  0  0  0  0  0  0  0  0  0  0  0
   12.9731  -24.5856   -1.7615 C   0  0  0  0  0  0  0  0  0  0  0  0
   13.5679  -24.0137   -0.5173 C   0  0  0  0  0  0  0  0  0  0  0  0
   14.1730  -22.6598   -0.6859 C   0  0  2  0  0  0  0  0  0  0  0  0
   14.7426  -22.4801   -1.9871 N   0  0  0  0  0  0  0  0  0  0  0  0
   15.0991  -22.3000    0.4219 C   0  0  0  0  0  0  0  0  0  0  0  0
   16.2823  -22.6920    0.3357 O   0  0  0  0  0  0  0  0  0  0  0  0
   16.0176  -19.3369    4.1693 O   0  0  0  0  0  0  0  0  0  0  0  0
   15.0312  -19.8472    3.2899 C   0  0  0  0  0  0  0  0  0  0  0  0
   15.4734  -21.1043    2.6433 C   0  0  2  0  0  0  0  0  0  0  0  0
   14.6938  -21.5443    1.5471 N   0  0  0  0  0  0  0  0  0  0  0  0
   15.7935  -22.1347    3.6719 C   0  0  0  0  0  0  0  0  0  0  0  0
   14.8841  -22.8964    4.0662 O   0  0  0  0  0  0  0  0  0  0  0  0
   17.0727  -22.3171    4.2438 N   0  0  0  0  0  0  0  0  0  0  0  0
   17.3445  -23.2832    5.2861 C   0  0  1  0  0  0  0  0  0  0  0  0
   18.7193  -23.8933    5.1446 C   0  0  0  0  0  0  0  0  0  0  0  0
   18.8875  -25.0639    6.0429 C   0  0  0  0  0  0  0  0  0  0  0  0
   19.9623  -25.7107    6.1122 O   0  0  0  0  0  0  0  0  0  0  0  0
   17.3030  -22.5662    6.5866 C   0  0  0  0  0  0  0  0  0  0  0  0
   17.3121  -23.1758    7.6897 O   0  0  0  0  0  0  0  0  0  0  0  0
   17.8439  -25.4950    6.8550 O   0  0  0  0  0  0  0  0  0  0  0  0
   17.2514  -21.1752    6.6643 O   0  0  0  0  0  0  0  0  0  0  0  0
  2  1  1  0
  2  3  2  0
  4  5  1  0
  4  2  1  0
  5  6  1  0
  6  8  1  0
  6  7  1  6
  8 13  1  0
  9  8  2  0
 10 11  1  0
 12 11  1  1
 12 14  1  0
 13 12  1  0
 14 15  2  0
 14 16  1  0
 16 17  1  0
 17 21  1  0
 17 18  1  6
 19 18  1  0
 20 19  2  0
 21 22  2  0
 21 24  1  0
 23 19  1  0
M  END
$$$$
