QSD.pdb
     RDKit          3D

 24 23  0  0  1  0  0  0  0  0999 V2000
   27.1619  -19.2577  -17.5942 N   0  0  0  0  0  0  0  0  0  0  0  0
   28.2109  -18.4547  -17.0881 C   0  0  0  0  0  0  0  0  0  0  0  0
   28.9432  -17.8424  -17.8934 O   0  0  0  0  0  0  0  0  0  0  0  0
   28.4570  -18.3259  -15.6397 C   0  0  0  0  0  0  0  0  0  0  0  0
   27.3594  -18.9938  -14.8794 C   0  0  0  0  0  0  0  0  0  0  0  0
   27.6934  -20.3611  -14.3827 C   0  0  2  0  0  0  0  0  0  0  0  0
   28.3458  -21.1546  -15.3800 N   0  0  0  0  0  0  0  0  0  0  0  0
   26.5334  -21.0432  -13.7474 C   0  0  0  0  0  0  0  0  0  0  0  0
   25.7715  -21.6986  -14.4896 O   0  0  0  0  0  0  0  0  0  0  0  0
   25.4969  -19.9810   -9.7073 O   0  0  0  0  0  0  0  0  0  0  0  0
   25.1488  -21.2655  -10.1929 C   0  0  0  0  0  0  0  0  0  0  0  0
   25.0717  -21.2881  -11.6719 C   0  0  2  0  0  0  0  0  0  0  0  0
   26.2688  -20.9760  -12.3592 N   0  0  0  0  0  0  0  0  0  0  0  0
   23.8465  -20.5800  -12.1405 C   0  0  0  0  0  0  0  0  0  0  0  0
   23.9654  -19.4529  -12.6677 O   0  0  0  0  0  0  0  0  0  0  0  0
   22.5368  -21.0992  -12.0310 N   0  0  0  0  0  0  0  0  0  0  0  0
   21.3821  -20.4717  -12.6365 C   0  0  1  0  0  0  0  0  0  0  0  0
   21.4511  -20.5007  -14.1453 C   0  0  0  0  0  0  0  0  0  0  0  0
   20.2766  -19.8260  -14.7543 C   0  0  0  0  0  0  0  0  0  0  0  0
   19.8649  -18.7059  -14.3618 O   0  0  0  0  0  0  0  0  0  0  0  0
   20.1823  -21.2459  -12.2267 C   0  0  0  0  0  0  0  0  0  0  0  0
   20.1622  -22.5061  -12.2332 O   0  0  0  0  0  0  0  0  0  0  0  0
   19.5768  -20.4190  -15.7998 O   0  0  0  0  0  0  0  0  0  0  0  0
   19.0061  -20.6242  -11.8101 O   0  0  0  0  0  0  0  0  0  0  0  0
  2  1  1  0
  2  3  2  0
  4  5  1  0
  4  2  1  0
  5  6  1  0
  6  8  1  0
  6  7  1  6
  8 13  1  0
  9  8  2  0
 10 11  1  0
 12 11  1  1
 12 14  1  0
 13 12  1  0
 14 15  2  0
 14 16  1  0
 16 17  1  0
 17 21  1  0
 17 18  1  6
 19 18  1  0
 20 19  2  0
 21 22  2  0
 21 24  1  0
 23 19  1  0
M  END
$$$$
