ACR.pdb
     RDKit          3D

 23 22  0  0  1  0  0  0  0  0999 V2000
   19.6890  -13.9719  -17.4002 C   0  0  0  0  0  0  0  0  0  0  0  0
   19.8475  -12.5310  -17.8301 C   0  0  2  0  0  0  0  0  0  0  0  0
   20.6527  -12.5229  -19.0352 N   0  0  0  0  0  0  0  0  0  0  0  0
   20.5441  -11.8100  -16.7184 C   0  0  0  0  0  0  0  0  0  0  0  0
   20.0299  -11.7034  -15.5760 O   0  0  0  0  0  0  0  0  0  0  0  0
   21.8211  -11.2084  -16.8957 N   0  0  0  0  0  0  0  0  0  0  0  0
   22.4567  -10.4479  -15.8376 C   0  0  1  0  0  0  0  0  0  0  0  0
   23.9163  -10.7729  -15.8404 C   0  0  0  0  0  0  0  0  0  0  0  0
   24.8588   -9.7594  -14.6703 S   0  0  0  0  0  0  0  0  0  0  0  0
   22.1948   -9.0001  -16.0092 C   0  0  0  0  0  0  0  0  0  0  0  0
   22.3745   -8.3787  -17.0718 O   0  0  0  0  0  0  0  0  0  0  0  0
   14.8027   -5.7655  -15.6911 N   0  0  0  0  0  0  0  0  0  0  0  0
   15.4603   -6.1249  -16.8888 C   0  0  0  0  0  0  0  0  0  0  0  0
   14.8006   -6.2159  -18.0035 N   0  0  0  0  0  0  0  0  0  0  0  0
   16.8543   -6.4036  -16.9472 N   0  0  0  0  0  0  0  0  0  0  0  0
   17.6637   -6.3088  -15.7591 C   0  0  0  0  0  0  0  0  0  0  0  0
   19.1437   -6.5373  -16.0830 C   0  0  0  0  0  0  0  0  0  0  0  0
   19.9708   -6.4912  -14.8231 C   0  0  0  0  0  0  0  0  0  0  0  0
   21.4136   -6.8074  -15.0386 C   0  0  2  0  0  0  0  0  0  0  0  0
   21.7006   -8.2262  -14.9004 N   0  0  0  0  0  0  0  0  0  0  0  0
   22.1802   -6.1099  -13.9732 C   0  0  0  0  0  0  0  0  0  0  0  0
   22.8108   -6.7280  -13.0574 O   0  0  0  0  0  0  0  0  0  0  0  0
   22.2550   -4.7265  -13.9132 O   0  0  0  0  0  0  0  0  0  0  0  0
  2  1  1  1
  2  3  1  0
  4  5  2  0
  4  2  1  0
  6  4  1  0
  7 10  1  0
  7  6  1  0
  7  8  1  6
  9  8  1  0
 10 20  1  0
 11 10  2  0
 12 13  1  0
 13 15  1  0
 13 14  2  0
 15 16  1  0
 17 16  1  0
 18 17  1  0
 19 18  1  1
 20 19  1  0
 21 23  1  0
 21 19  1  0
 22 21  2  0
M  END
$$$$
