ACR.pdb
     RDKit          3D

 23 22  0  0  1  0  0  0  0  0999 V2000
   19.0824  -13.8654  -15.7440 C   0  0  0  0  0  0  0  0  0  0  0  0
   18.3418  -12.5606  -15.9314 C   0  0  2  0  0  0  0  0  0  0  0  0
   18.5531  -12.1333  -17.3001 N   0  0  0  0  0  0  0  0  0  0  0  0
   18.9277  -11.5753  -14.9686 C   0  0  0  0  0  0  0  0  0  0  0  0
   18.8625  -11.7483  -13.7249 O   0  0  0  0  0  0  0  0  0  0  0  0
   19.5870  -10.3940  -15.4090 N   0  0  0  0  0  0  0  0  0  0  0  0
   20.0014   -9.3627  -14.4781 C   0  0  1  0  0  0  0  0  0  0  0  0
   21.2634   -8.7478  -14.9931 C   0  0  0  0  0  0  0  0  0  0  0  0
   21.8236   -7.3530  -13.9805 S   0  0  0  0  0  0  0  0  0  0  0  0
   18.9194   -8.3691  -14.2883 C   0  0  0  0  0  0  0  0  0  0  0  0
   18.1565   -7.9854  -15.1931 O   0  0  0  0  0  0  0  0  0  0  0  0
   14.1989   -6.9487   -7.0514 N   0  0  0  0  0  0  0  0  0  0  0  0
   14.0799   -7.7869   -8.1825 C   0  0  0  0  0  0  0  0  0  0  0  0
   13.4151   -8.9000   -8.1133 N   0  0  0  0  0  0  0  0  0  0  0  0
   14.6678   -7.4712   -9.4391 N   0  0  0  0  0  0  0  0  0  0  0  0
   15.4465   -6.2690   -9.5945 C   0  0  0  0  0  0  0  0  0  0  0  0
   15.9043   -6.0948  -11.0462 C   0  0  0  0  0  0  0  0  0  0  0  0
   17.0145   -7.0634  -11.3671 C   0  0  0  0  0  0  0  0  0  0  0  0
   17.5795   -6.8980  -12.7389 C   0  0  2  0  0  0  0  0  0  0  0  0
   18.7035   -7.7855  -12.9901 N   0  0  0  0  0  0  0  0  0  0  0  0
   18.1008   -5.5094  -12.8349 C   0  0  0  0  0  0  0  0  0  0  0  0
   19.3391   -5.2286  -12.7575 O   0  0  0  0  0  0  0  0  0  0  0  0
   17.2580   -4.4234  -13.0172 O   0  0  0  0  0  0  0  0  0  0  0  0
  2  1  1  6
  2  3  1  0
  4  5  2  0
  4  2  1  0
  6  4  1  0
  7 10  1  0
  7  6  1  0
  7  8  1  6
  9  8  1  0
 10 20  1  0
 11 10  2  0
 12 13  1  0
 13 15  1  0
 13 14  2  0
 15 16  1  0
 17 16  1  0
 18 17  1  0
 19 18  1  1
 20 19  1  0
 21 23  1  0
 21 19  1  0
 22 21  2  0
M  END
$$$$
