ACR.pdb
     RDKit          3D

 23 22  0  0  1  0  0  0  0  0999 V2000
   21.9717  -15.4257  -17.5583 C   0  0  0  0  0  0  0  0  0  0  0  0
   21.7369  -14.0270  -18.0823 C   0  0  2  0  0  0  0  0  0  0  0  0
   22.6459  -13.8201  -19.1920 N   0  0  0  0  0  0  0  0  0  0  0  0
   22.0359  -13.0779  -16.9639 C   0  0  0  0  0  0  0  0  0  0  0  0
   21.4017  -13.1151  -15.8787 O   0  0  0  0  0  0  0  0  0  0  0  0
   23.0503  -12.0861  -17.0698 N   0  0  0  0  0  0  0  0  0  0  0  0
   23.1911  -11.0342  -16.0821 C   0  0  1  0  0  0  0  0  0  0  0  0
   24.5751  -10.4776  -16.1861 C   0  0  0  0  0  0  0  0  0  0  0  0
   25.7768  -11.4065  -15.1974 S   0  0  0  0  0  0  0  0  0  0  0  0
   22.1460  -10.0016  -16.2704 C   0  0  0  0  0  0  0  0  0  0  0  0
   21.7330   -9.6197  -17.3801 O   0  0  0  0  0  0  0  0  0  0  0  0
   13.9042   -9.5318  -14.3125 N   0  0  0  0  0  0  0  0  0  0  0  0
   14.2223   -8.2118  -14.7031 C   0  0  0  0  0  0  0  0  0  0  0  0
   13.2846   -7.3325  -14.8862 N   0  0  0  0  0  0  0  0  0  0  0  0
   15.5591   -7.7734  -14.9154 N   0  0  0  0  0  0  0  0  0  0  0  0
   16.6500   -8.7122  -14.8483 C   0  0  0  0  0  0  0  0  0  0  0  0
   17.9899   -8.0170  -15.1107 C   0  0  0  0  0  0  0  0  0  0  0  0
   19.1232   -9.0070  -15.0162 C   0  0  0  0  0  0  0  0  0  0  0  0
   20.4674   -8.4087  -15.2677 C   0  0  2  0  0  0  0  0  0  0  0  0
   21.5443   -9.3749  -15.1225 N   0  0  0  0  0  0  0  0  0  0  0  0
   20.6852   -7.3661  -14.2310 C   0  0  0  0  0  0  0  0  0  0  0  0
   21.4387   -7.5415  -13.2211 O   0  0  0  0  0  0  0  0  0  0  0  0
   20.0728   -6.1240  -14.3038 O   0  0  0  0  0  0  0  0  0  0  0  0
  2  1  1  1
  2  3  1  0
  4  5  2  0
  4  2  1  0
  6  4  1  0
  7 10  1  0
  7  6  1  0
  7  8  1  6
  9  8  1  0
 10 20  1  0
 11 10  2  0
 12 13  1  0
 13 15  1  0
 13 14  2  0
 15 16  1  0
 17 16  1  0
 18 17  1  0
 19 18  1  1
 20 19  1  0
 21 23  1  0
 21 19  1  0
 22 21  2  0
M  END
$$$$
