ACR.pdb
     RDKit          3D

 23 22  0  0  1  0  0  0  0  0999 V2000
   28.9153  -22.1461  -16.3218 C   0  0  0  0  0  0  0  0  0  0  0  0
   27.4391  -21.9811  -16.6042 C   0  0  2  0  0  0  0  0  0  0  0  0
   27.2241  -20.6049  -17.0047 N   0  0  0  0  0  0  0  0  0  0  0  0
   26.7072  -22.2878  -15.3349 C   0  0  0  0  0  0  0  0  0  0  0  0
   26.7503  -23.4279  -14.8065 O   0  0  0  0  0  0  0  0  0  0  0  0
   25.9259  -21.3079  -14.6615 N   0  0  0  0  0  0  0  0  0  0  0  0
   25.1655  -21.6295  -13.4697 C   0  0  1  0  0  0  0  0  0  0  0  0
   25.5494  -20.6628  -12.3953 C   0  0  0  0  0  0  0  0  0  0  0  0
   26.7992  -21.3337  -11.2673 S   0  0  0  0  0  0  0  0  0  0  0  0
   23.7130  -21.6119  -13.7598 C   0  0  0  0  0  0  0  0  0  0  0  0
   23.1643  -20.8047  -14.5312 O   0  0  0  0  0  0  0  0  0  0  0  0
   17.8134  -24.9561   -8.5870 N   0  0  0  0  0  0  0  0  0  0  0  0
   18.4767  -25.6277   -9.6383 C   0  0  0  0  0  0  0  0  0  0  0  0
   18.6774  -26.9093   -9.5813 N   0  0  0  0  0  0  0  0  0  0  0  0
   18.9556  -24.9573  -10.7983 N   0  0  0  0  0  0  0  0  0  0  0  0
   18.4534  -23.6510  -11.1407 C   0  0  0  0  0  0  0  0  0  0  0  0
   19.1538  -23.1030  -12.3883 C   0  0  0  0  0  0  0  0  0  0  0  0
   20.6373  -22.9814  -12.1477 C   0  0  0  0  0  0  0  0  0  0  0  0
   21.4090  -22.5525  -13.3514 C   0  0  2  0  0  0  0  0  0  0  0  0
   22.8459  -22.5727  -13.1294 N   0  0  0  0  0  0  0  0  0  0  0  0
   21.0388  -21.1403  -13.6305 C   0  0  0  0  0  0  0  0  0  0  0  0
   21.4554  -20.1645  -12.9287 O   0  0  0  0  0  0  0  0  0  0  0  0
   20.2071  -20.7978  -14.6859 O   0  0  0  0  0  0  0  0  0  0  0  0
  2  1  1  1
  2  3  1  0
  4  5  2  0
  4  2  1  0
  6  4  1  0
  7 10  1  0
  7  6  1  0
  7  8  1  1
  9  8  1  0
 10 20  1  0
 11 10  2  0
 12 13  1  0
 13 15  1  0
 13 14  2  0
 15 16  1  0
 17 16  1  0
 18 17  1  0
 19 18  1  1
 20 19  1  0
 21 23  1  0
 21 19  1  0
 22 21  2  0
M  END
$$$$
