ACR.pdb
     RDKit          3D

 23 22  0  0  1  0  0  0  0  0999 V2000
   12.8629  -10.9668   -9.0173 C   0  0  0  0  0  0  0  0  0  0  0  0
   12.6441   -9.7012   -8.2196 C   0  0  2  0  0  0  0  0  0  0  0  0
   11.2219   -9.4218   -8.2287 N   0  0  0  0  0  0  0  0  0  0  0  0
   13.4066   -8.6087   -8.9021 C   0  0  0  0  0  0  0  0  0  0  0  0
   12.9678   -8.0431   -9.9358 O   0  0  0  0  0  0  0  0  0  0  0  0
   14.6651   -8.1543   -8.4187 N   0  0  0  0  0  0  0  0  0  0  0  0
   15.3791   -7.0682   -9.0609 C   0  0  1  0  0  0  0  0  0  0  0  0
   16.0023   -6.2239   -7.9956 C   0  0  0  0  0  0  0  0  0  0  0  0
   17.2046   -5.0405   -8.6577 S   0  0  0  0  0  0  0  0  0  0  0  0
   16.3732   -7.5973  -10.0231 C   0  0  0  0  0  0  0  0  0  0  0  0
   17.2820   -8.3921   -9.7227 O   0  0  0  0  0  0  0  0  0  0  0  0
   17.5536  -12.8918  -16.6350 N   0  0  0  0  0  0  0  0  0  0  0  0
   18.5746  -12.1309  -16.0229 C   0  0  0  0  0  0  0  0  0  0  0  0
   19.6899  -12.6898  -15.6628 N   0  0  0  0  0  0  0  0  0  0  0  0
   18.4477  -10.7368  -15.7684 N   0  0  0  0  0  0  0  0  0  0  0  0
   17.5197  -10.2623  -14.7737 C   0  0  0  0  0  0  0  0  0  0  0  0
   17.5909   -8.7378  -14.6389 C   0  0  0  0  0  0  0  0  0  0  0  0
   16.6203   -8.2569  -13.5899 C   0  0  0  0  0  0  0  0  0  0  0  0
   17.2784   -7.6917  -12.3751 C   0  0  2  0  0  0  0  0  0  0  0  0
   16.3199   -7.1909  -11.4032 N   0  0  0  0  0  0  0  0  0  0  0  0
   18.0889   -6.5265  -12.8164 C   0  0  0  0  0  0  0  0  0  0  0  0
   19.3112   -6.6229  -13.1556 O   0  0  0  0  0  0  0  0  0  0  0  0
   17.5545   -5.2488  -12.8859 O   0  0  0  0  0  0  0  0  0  0  0  0
  2  1  1  6
  2  3  1  0
  4  5  2  0
  4  2  1  0
  6  4  1  0
  7 10  1  0
  7  6  1  0
  7  8  1  1
  9  8  1  0
 10 20  1  0
 11 10  2  0
 12 13  1  0
 13 15  1  0
 13 14  2  0
 15 16  1  0
 17 16  1  0
 18 17  1  0
 19 18  1  6
 20 19  1  0
 21 23  1  0
 21 19  1  0
 22 21  2  0
M  END
$$$$
