ACR.pdb
     RDKit          3D

 23 22  0  0  1  0  0  0  0  0999 V2000
   29.4081  -17.2913  -18.3872 C   0  0  0  0  0  0  0  0  0  0  0  0
   28.0442  -16.8412  -18.8598 C   0  0  2  0  0  0  0  0  0  0  0  0
   28.2053  -15.5393  -19.4760 N   0  0  0  0  0  0  0  0  0  0  0  0
   27.1624  -16.7548  -17.6532 C   0  0  0  0  0  0  0  0  0  0  0  0
   27.5755  -17.0729  -16.5090 O   0  0  0  0  0  0  0  0  0  0  0  0
   25.8137  -16.3100  -17.7375 N   0  0  0  0  0  0  0  0  0  0  0  0
   24.9815  -16.1783  -16.5576 C   0  0  1  0  0  0  0  0  0  0  0  0
   24.5758  -14.7448  -16.4294 C   0  0  0  0  0  0  0  0  0  0  0  0
   23.3570  -14.4796  -15.1146 S   0  0  0  0  0  0  0  0  0  0  0  0
   23.8202  -17.0944  -16.6362 C   0  0  0  0  0  0  0  0  0  0  0  0
   23.0484  -17.1623  -17.6096 O   0  0  0  0  0  0  0  0  0  0  0  0
   18.5148  -21.4121  -12.7793 N   0  0  0  0  0  0  0  0  0  0  0  0
   19.0354  -22.6596  -13.1904 C   0  0  0  0  0  0  0  0  0  0  0  0
   18.2474  -23.6731  -13.3845 N   0  0  0  0  0  0  0  0  0  0  0  0
   20.4236  -22.8784  -13.4120 N   0  0  0  0  0  0  0  0  0  0  0  0
   21.3604  -21.7923  -13.2755 C   0  0  0  0  0  0  0  0  0  0  0  0
   21.2391  -20.8118  -14.4465 C   0  0  0  0  0  0  0  0  0  0  0  0
   22.3293  -19.7725  -14.3771 C   0  0  0  0  0  0  0  0  0  0  0  0
   22.4089  -18.9023  -15.5873 C   0  0  2  0  0  0  0  0  0  0  0  0
   23.5309  -17.9787  -15.5376 N   0  0  0  0  0  0  0  0  0  0  0  0
   21.1745  -18.0749  -15.6156 C   0  0  0  0  0  0  0  0  0  0  0  0
   21.0648  -16.9745  -14.9869 O   0  0  0  0  0  0  0  0  0  0  0  0
   20.0546  -18.4577  -16.3384 O   0  0  0  0  0  0  0  0  0  0  0  0
  2  1  1  1
  2  3  1  0
  4  5  2  0
  4  2  1  0
  6  4  1  0
  7 10  1  0
  7  6  1  0
  7  8  1  6
  9  8  1  0
 10 20  1  0
 11 10  2  0
 12 13  1  0
 13 15  1  0
 13 14  2  0
 15 16  1  0
 17 16  1  0
 18 17  1  0
 19 18  1  1
 20 19  1  0
 21 23  1  0
 21 19  1  0
 22 21  2  0
M  END
$$$$
