ACR.pdb
     RDKit          3D

 23 22  0  0  1  0  0  0  0  0999 V2000
   28.3308  -23.5210  -18.5963 C   0  0  0  0  0  0  0  0  0  0  0  0
   29.2777  -22.5955  -17.8663 C   0  0  2  0  0  0  0  0  0  0  0  0
   30.5143  -23.3202  -17.6510 N   0  0  0  0  0  0  0  0  0  0  0  0
   28.6339  -22.2399  -16.5624 C   0  0  0  0  0  0  0  0  0  0  0  0
   28.9547  -22.8120  -15.4897 O   0  0  0  0  0  0  0  0  0  0  0  0
   27.6274  -21.2388  -16.4687 N   0  0  0  0  0  0  0  0  0  0  0  0
   27.0884  -20.8201  -15.1897 C   0  0  1  0  0  0  0  0  0  0  0  0
   27.8491  -19.6162  -14.7334 C   0  0  0  0  0  0  0  0  0  0  0  0
   27.4061  -18.1202  -15.6555 S   0  0  0  0  0  0  0  0  0  0  0  0
   25.6328  -20.5675  -15.2970 C   0  0  0  0  0  0  0  0  0  0  0  0
   25.0849  -20.0474  -16.2855 O   0  0  0  0  0  0  0  0  0  0  0  0
   19.1679  -23.9532  -15.4559 N   0  0  0  0  0  0  0  0  0  0  0  0
   18.8356  -23.6223  -14.1232 C   0  0  0  0  0  0  0  0  0  0  0  0
   17.8951  -24.2630  -13.4980 N   0  0  0  0  0  0  0  0  0  0  0  0
   19.4952  -22.5902  -13.3994 N   0  0  0  0  0  0  0  0  0  0  0  0
   20.5419  -21.8213  -14.0232 C   0  0  0  0  0  0  0  0  0  0  0  0
   21.1451  -20.8142  -13.0386 C   0  0  0  0  0  0  0  0  0  0  0  0
   22.6434  -20.9718  -12.9773 C   0  0  0  0  0  0  0  0  0  0  0  0
   23.3347  -20.6558  -14.2620 C   0  0  2  0  0  0  0  0  0  0  0  0
   24.7614  -20.9317  -14.2105 N   0  0  0  0  0  0  0  0  0  0  0  0
   23.1894  -19.1945  -14.4914 C   0  0  0  0  0  0  0  0  0  0  0  0
   22.3883  -18.7054  -15.3500 O   0  0  0  0  0  0  0  0  0  0  0  0
   23.9275  -18.2652  -13.7738 O   0  0  0  0  0  0  0  0  0  0  0  0
  2  1  1  6
  2  3  1  0
  4  5  2  0
  4  2  1  0
  6  4  1  0
  7 10  1  0
  7  6  1  0
  7  8  1  6
  9  8  1  0
 10 20  1  0
 11 10  2  0
 12 13  1  0
 13 15  1  0
 13 14  2  0
 15 16  1  0
 17 16  1  0
 18 17  1  0
 19 18  1  1
 20 19  1  0
 21 23  1  0
 21 19  1  0
 22 21  2  0
M  END
$$$$
