ACR.pdb
     RDKit          3D

 23 22  0  0  1  0  0  0  0  0999 V2000
   27.7757  -20.2078  -17.7640 C   0  0  0  0  0  0  0  0  0  0  0  0
   28.0148  -19.6827  -16.3664 C   0  0  2  0  0  0  0  0  0  0  0  0
   28.5563  -20.7724  -15.5791 N   0  0  0  0  0  0  0  0  0  0  0  0
   26.6907  -19.2406  -15.8256 C   0  0  0  0  0  0  0  0  0  0  0  0
   25.9837  -19.9958  -15.1109 O   0  0  0  0  0  0  0  0  0  0  0  0
   26.1638  -17.9461  -16.0915 N   0  0  0  0  0  0  0  0  0  0  0  0
   24.9335  -17.4855  -15.4783 C   0  0  1  0  0  0  0  0  0  0  0  0
   25.0394  -16.0085  -15.2701 C   0  0  0  0  0  0  0  0  0  0  0  0
   25.5178  -15.1239  -16.7778 S   0  0  0  0  0  0  0  0  0  0  0  0
   23.7664  -17.8616  -16.3094 C   0  0  0  0  0  0  0  0  0  0  0  0
   23.8004  -17.9844  -17.5469 O   0  0  0  0  0  0  0  0  0  0  0  0
   20.2143  -23.6829  -14.5064 N   0  0  0  0  0  0  0  0  0  0  0  0
   19.0587  -23.0077  -14.0538 C   0  0  0  0  0  0  0  0  0  0  0  0
   18.4543  -23.3862  -12.9687 N   0  0  0  0  0  0  0  0  0  0  0  0
   18.4975  -21.8965  -14.7427 N   0  0  0  0  0  0  0  0  0  0  0  0
   19.1957  -21.3046  -15.8555 C   0  0  0  0  0  0  0  0  0  0  0  0
   20.4863  -20.6205  -15.3931 C   0  0  0  0  0  0  0  0  0  0  0  0
   21.1989  -19.9951  -16.5655 C   0  0  0  0  0  0  0  0  0  0  0  0
   21.3348  -18.5119  -16.4656 C   0  0  2  0  0  0  0  0  0  0  0  0
   22.4932  -18.1090  -15.6846 N   0  0  0  0  0  0  0  0  0  0  0  0
   20.1364  -18.0084  -15.7445 C   0  0  0  0  0  0  0  0  0  0  0  0
   18.9946  -17.8972  -16.2941 O   0  0  0  0  0  0  0  0  0  0  0  0
   20.1922  -17.6255  -14.4129 O   0  0  0  0  0  0  0  0  0  0  0  0
  2  1  1  6
  2  3  1  0
  4  5  2  0
  4  2  1  0
  6  4  1  0
  7 10  1  0
  7  6  1  0
  7  8  1  6
  9  8  1  0
 10 20  1  0
 11 10  2  0
 12 13  1  0
 13 15  1  0
 13 14  2  0
 15 16  1  0
 17 16  1  0
 18 17  1  0
 19 18  1  1
 20 19  1  0
 21 23  1  0
 21 19  1  0
 22 21  2  0
M  END
$$$$
