ACR.pdb
     RDKit          3D

 23 22  0  0  1  0  0  0  0  0999 V2000
   19.3615  -12.6894  -18.4998 C   0  0  0  0  0  0  0  0  0  0  0  0
   20.6859  -12.2101  -17.9501 C   0  0  2  0  0  0  0  0  0  0  0  0
   21.4379  -13.3810  -17.5448 N   0  0  0  0  0  0  0  0  0  0  0  0
   20.3875  -11.3343  -16.7733 C   0  0  0  0  0  0  0  0  0  0  0  0
   19.6536  -11.7236  -15.8294 O   0  0  0  0  0  0  0  0  0  0  0  0
   20.9167  -10.0184  -16.6614 N   0  0  0  0  0  0  0  0  0  0  0  0
   20.5563   -9.1451  -15.5618 C   0  0  1  0  0  0  0  0  0  0  0  0
   21.7987   -8.4711  -15.0736 C   0  0  0  0  0  0  0  0  0  0  0  0
   21.4829   -7.3419  -13.6917 S   0  0  0  0  0  0  0  0  0  0  0  0
   19.5136   -8.1814  -15.9840 C   0  0  0  0  0  0  0  0  0  0  0  0
   19.5252   -7.5695  -17.0672 O   0  0  0  0  0  0  0  0  0  0  0  0
   11.0427   -6.9399  -13.1228 N   0  0  0  0  0  0  0  0  0  0  0  0
   11.3120   -5.9468  -14.0910 C   0  0  0  0  0  0  0  0  0  0  0  0
   10.4022   -5.0812  -14.4210 N   0  0  0  0  0  0  0  0  0  0  0  0
   12.5680   -5.8358  -14.7502 N   0  0  0  0  0  0  0  0  0  0  0  0
   13.6511   -6.7197  -14.4018 C   0  0  0  0  0  0  0  0  0  0  0  0
   14.9131   -6.3847  -15.2034 C   0  0  0  0  0  0  0  0  0  0  0  0
   16.0617   -7.2575  -14.7648 C   0  0  0  0  0  0  0  0  0  0  0  0
   17.3241   -7.0175  -15.5244 C   0  0  2  0  0  0  0  0  0  0  0  0
   18.3993   -7.9066  -15.1150 N   0  0  0  0  0  0  0  0  0  0  0  0
   17.7695   -5.6345  -15.2107 C   0  0  0  0  0  0  0  0  0  0  0  0
   17.1735   -4.5997  -15.6493 O   0  0  0  0  0  0  0  0  0  0  0  0
   18.8749   -5.3865  -14.4110 O   0  0  0  0  0  0  0  0  0  0  0  0
  2  1  1  1
  2  3  1  0
  4  5  2  0
  4  2  1  0
  6  4  1  0
  7 10  1  0
  7  6  1  0
  7  8  1  6
  9  8  1  0
 10 20  1  0
 11 10  2  0
 12 13  1  0
 13 15  1  0
 13 14  2  0
 15 16  1  0
 17 16  1  0
 18 17  1  0
 19 18  1  1
 20 19  1  0
 21 23  1  0
 21 19  1  0
 22 21  2  0
M  END
$$$$
