ACR.pdb
     RDKit          3D

 23 22  0  0  1  0  0  0  0  0999 V2000
   18.0677  -12.7316  -17.4264 C   0  0  0  0  0  0  0  0  0  0  0  0
   18.3554  -11.2566  -17.5929 C   0  0  2  0  0  0  0  0  0  0  0  0
   19.0984  -11.0950  -18.8268 N   0  0  0  0  0  0  0  0  0  0  0  0
   19.1760  -10.8287  -16.4163 C   0  0  0  0  0  0  0  0  0  0  0  0
   18.7340  -10.9011  -15.2414 O   0  0  0  0  0  0  0  0  0  0  0  0
   20.4957  -10.3185  -16.5651 N   0  0  0  0  0  0  0  0  0  0  0  0
   21.2250   -9.7582  -15.4444 C   0  0  1  0  0  0  0  0  0  0  0  0
   22.4925  -10.5336  -15.2768 C   0  0  0  0  0  0  0  0  0  0  0  0
   23.5729   -9.8368  -13.9994 S   0  0  0  0  0  0  0  0  0  0  0  0
   21.4653   -8.3114  -15.6523 C   0  0  0  0  0  0  0  0  0  0  0  0
   22.0676   -7.8368  -16.6319 O   0  0  0  0  0  0  0  0  0  0  0  0
   15.0349   -3.2921  -14.8711 N   0  0  0  0  0  0  0  0  0  0  0  0
   15.4797   -3.7517  -16.1309 C   0  0  0  0  0  0  0  0  0  0  0  0
   14.7376   -3.6082  -17.1866 N   0  0  0  0  0  0  0  0  0  0  0  0
   16.7394   -4.3862  -16.3173 N   0  0  0  0  0  0  0  0  0  0  0  0
   17.7621   -4.2798  -15.3080 C   0  0  0  0  0  0  0  0  0  0  0  0
   19.0167   -5.0605  -15.7127 C   0  0  0  0  0  0  0  0  0  0  0  0
   19.9896   -5.1250  -14.5626 C   0  0  0  0  0  0  0  0  0  0  0  0
   21.2107   -5.9334  -14.8519 C   0  0  2  0  0  0  0  0  0  0  0  0
   20.9883   -7.3603  -14.6825 N   0  0  0  0  0  0  0  0  0  0  0  0
   22.2436   -5.5403  -13.8580 C   0  0  0  0  0  0  0  0  0  0  0  0
   22.7842   -4.3889  -13.8408 O   0  0  0  0  0  0  0  0  0  0  0  0
   22.6851   -6.4161  -12.8776 O   0  0  0  0  0  0  0  0  0  0  0  0
  2  1  1  1
  2  3  1  0
  4  5  2  0
  4  2  1  0
  6  4  1  0
  7 10  1  0
  7  6  1  0
  7  8  1  6
  9  8  1  0
 10 20  1  0
 11 10  2  0
 12 13  1  0
 13 15  1  0
 13 14  2  0
 15 16  1  0
 17 16  1  0
 18 17  1  0
 19 18  1  1
 20 19  1  0
 21 23  1  0
 21 19  1  0
 22 21  2  0
M  END
$$$$
