ACR.pdb
     RDKit          3D

 23 22  0  0  1  0  0  0  0  0999 V2000
   26.2827  -16.0887  -16.3754 C   0  0  0  0  0  0  0  0  0  0  0  0
   25.3881  -15.0607  -17.0304 C   0  0  2  0  0  0  0  0  0  0  0  0
   25.9128  -14.8104  -18.3580 N   0  0  0  0  0  0  0  0  0  0  0  0
   25.4465  -13.8223  -16.1914 C   0  0  0  0  0  0  0  0  0  0  0  0
   25.0417  -13.8111  -15.0010 O   0  0  0  0  0  0  0  0  0  0  0  0
   25.9614  -12.5957  -16.6957 N   0  0  0  0  0  0  0  0  0  0  0  0
   25.8878  -11.3677  -15.9286 C   0  0  1  0  0  0  0  0  0  0  0  0
   27.1495  -10.5979  -16.1562 C   0  0  0  0  0  0  0  0  0  0  0  0
   27.0836   -8.9276  -15.4561 S   0  0  0  0  0  0  0  0  0  0  0  0
   24.6766  -10.5979  -16.2954 C   0  0  0  0  0  0  0  0  0  0  0  0
   24.3027  -10.3992  -17.4652 O   0  0  0  0  0  0  0  0  0  0  0  0
   16.3100  -11.4332  -15.5556 N   0  0  0  0  0  0  0  0  0  0  0  0
   16.4737  -10.1133  -16.0321 C   0  0  0  0  0  0  0  0  0  0  0  0
   15.4597   -9.4467  -16.4939 N   0  0  0  0  0  0  0  0  0  0  0  0
   17.7309   -9.4471  -16.0358 N   0  0  0  0  0  0  0  0  0  0  0  0
   18.9181  -10.1352  -15.5965 C   0  0  0  0  0  0  0  0  0  0  0  0
   20.1618   -9.2608  -15.7864 C   0  0  0  0  0  0  0  0  0  0  0  0
   21.4063  -10.0312  -15.4241 C   0  0  0  0  0  0  0  0  0  0  0  0
   22.6671   -9.2488  -15.5870 C   0  0  2  0  0  0  0  0  0  0  0  0
   23.8522  -10.0263  -15.2628 N   0  0  0  0  0  0  0  0  0  0  0  0
   22.6146   -8.1239  -14.6169 C   0  0  0  0  0  0  0  0  0  0  0  0
   23.3733   -8.0532  -13.5981 O   0  0  0  0  0  0  0  0  0  0  0  0
   21.7247   -7.0709  -14.7663 O   0  0  0  0  0  0  0  0  0  0  0  0
  2  1  1  1
  2  3  1  0
  4  5  2  0
  4  2  1  0
  6  4  1  0
  7 10  1  0
  7  6  1  0
  7  8  1  6
  9  8  1  0
 10 20  1  0
 11 10  2  0
 12 13  1  0
 13 15  1  0
 13 14  2  0
 15 16  1  0
 17 16  1  0
 18 17  1  0
 19 18  1  1
 20 19  1  0
 21 23  1  0
 21 19  1  0
 22 21  2  0
M  END
$$$$
