ACR.pdb
     RDKit          3D

 23 22  0  0  1  0  0  0  0  0999 V2000
   21.7933  -14.3697  -18.1745 C   0  0  0  0  0  0  0  0  0  0  0  0
   21.6900  -12.9489  -18.6813 C   0  0  2  0  0  0  0  0  0  0  0  0
   22.6710  -12.7913  -19.7365 N   0  0  0  0  0  0  0  0  0  0  0  0
   21.9957  -12.0432  -17.5293 C   0  0  0  0  0  0  0  0  0  0  0  0
   21.2959  -12.0440  -16.4847 O   0  0  0  0  0  0  0  0  0  0  0  0
   23.0911  -11.1357  -17.5558 N   0  0  0  0  0  0  0  0  0  0  0  0
   23.3311  -10.2020  -16.4731 C   0  0  1  0  0  0  0  0  0  0  0  0
   24.8065  -10.1228  -16.2426 C   0  0  0  0  0  0  0  0  0  0  0  0
   25.2489  -10.2860  -14.4927 S   0  0  0  0  0  0  0  0  0  0  0  0
   22.7310   -8.8834  -16.7817 C   0  0  0  0  0  0  0  0  0  0  0  0
   22.9520   -8.2419  -17.8245 O   0  0  0  0  0  0  0  0  0  0  0  0
   14.8853   -8.0631  -17.3547 N   0  0  0  0  0  0  0  0  0  0  0  0
   15.8645   -8.8148  -16.6676 C   0  0  0  0  0  0  0  0  0  0  0  0
   15.5203   -9.8035  -15.8995 N   0  0  0  0  0  0  0  0  0  0  0  0
   17.2570   -8.5419  -16.7716 N   0  0  0  0  0  0  0  0  0  0  0  0
   17.7375   -7.5736  -17.7242 C   0  0  0  0  0  0  0  0  0  0  0  0
   19.2642   -7.4582  -17.6676 C   0  0  0  0  0  0  0  0  0  0  0  0
   19.7137   -7.1093  -16.2712 C   0  0  0  0  0  0  0  0  0  0  0  0
   21.1949   -6.9933  -16.1273 C   0  0  2  0  0  0  0  0  0  0  0  0
   21.8295   -8.2700  -15.8417 N   0  0  0  0  0  0  0  0  0  0  0  0
   21.4552   -6.1147  -14.9569 C   0  0  0  0  0  0  0  0  0  0  0  0
   21.9563   -6.5425  -13.8687 O   0  0  0  0  0  0  0  0  0  0  0  0
   21.1639   -4.7591  -14.9817 O   0  0  0  0  0  0  0  0  0  0  0  0
  2  1  1  1
  2  3  1  0
  4  5  2  0
  4  2  1  0
  6  4  1  0
  7 10  1  0
  7  6  1  0
  7  8  1  6
  9  8  1  0
 10 20  1  0
 11 10  2  0
 12 13  1  0
 13 15  1  0
 13 14  2  0
 15 16  1  0
 17 16  1  0
 18 17  1  0
 19 18  1  1
 20 19  1  0
 21 23  1  0
 21 19  1  0
 22 21  2  0
M  END
$$$$
