ACR.pdb
     RDKit          3D

 23 22  0  0  1  0  0  0  0  0999 V2000
   24.3316  -15.0971  -17.9531 C   0  0  0  0  0  0  0  0  0  0  0  0
   25.5517  -14.2233  -17.7688 C   0  0  2  0  0  0  0  0  0  0  0  0
   26.6475  -15.0845  -17.3713 N   0  0  0  0  0  0  0  0  0  0  0  0
   25.2315  -13.2355  -16.6905 C   0  0  0  0  0  0  0  0  0  0  0  0
   24.6928  -13.5882  -15.6104 O   0  0  0  0  0  0  0  0  0  0  0  0
   25.5185  -11.8491  -16.8308 N   0  0  0  0  0  0  0  0  0  0  0  0
   25.2484  -10.9051  -15.7641 C   0  0  1  0  0  0  0  0  0  0  0  0
   26.5189  -10.1840  -15.4453 C   0  0  0  0  0  0  0  0  0  0  0  0
   27.2704   -9.4160  -16.9047 S   0  0  0  0  0  0  0  0  0  0  0  0
   24.1525   -9.9859  -16.1492 C   0  0  0  0  0  0  0  0  0  0  0  0
   23.9249   -9.6204  -17.3164 O   0  0  0  0  0  0  0  0  0  0  0  0
   15.7880  -10.6862  -16.2085 N   0  0  0  0  0  0  0  0  0  0  0  0
   15.9821   -9.3112  -16.4692 C   0  0  0  0  0  0  0  0  0  0  0  0
   14.9972   -8.5705  -16.8782 N   0  0  0  0  0  0  0  0  0  0  0  0
   17.2398   -8.6669  -16.3040 N   0  0  0  0  0  0  0  0  0  0  0  0
   18.3699   -9.4012  -15.7945 C   0  0  0  0  0  0  0  0  0  0  0  0
   19.6454   -8.5542  -15.8497 C   0  0  0  0  0  0  0  0  0  0  0  0
   20.8429   -9.3808  -15.4543 C   0  0  0  0  0  0  0  0  0  0  0  0
   22.1317   -8.6285  -15.4903 C   0  0  2  0  0  0  0  0  0  0  0  0
   23.2725   -9.4589  -15.1391 N   0  0  0  0  0  0  0  0  0  0  0  0
   22.0463   -7.5607  -14.4599 C   0  0  0  0  0  0  0  0  0  0  0  0
   22.6365   -7.6358  -13.3354 O   0  0  0  0  0  0  0  0  0  0  0  0
   21.3091   -6.4043  -14.6653 O   0  0  0  0  0  0  0  0  0  0  0  0
  2  1  1  1
  2  3  1  0
  4  5  2  0
  4  2  1  0
  6  4  1  0
  7 10  1  0
  7  6  1  0
  7  8  1  6
  9  8  1  0
 10 20  1  0
 11 10  2  0
 12 13  1  0
 13 15  1  0
 13 14  2  0
 15 16  1  0
 17 16  1  0
 18 17  1  0
 19 18  1  1
 20 19  1  0
 21 23  1  0
 21 19  1  0
 22 21  2  0
M  END
$$$$
