ACR.pdb
     RDKit          3D

 23 22  0  0  1  0  0  0  0  0999 V2000
   22.3961  -12.7508  -16.3816 C   0  0  0  0  0  0  0  0  0  0  0  0
   21.2169  -11.9647  -16.9084 C   0  0  2  0  0  0  0  0  0  0  0  0
   21.5076  -11.6145  -18.2845 N   0  0  0  0  0  0  0  0  0  0  0  0
   21.0877  -10.7371  -16.0616 C   0  0  0  0  0  0  0  0  0  0  0  0
   20.8508  -10.8071  -14.8287 O   0  0  0  0  0  0  0  0  0  0  0  0
   21.2251   -9.4298  -16.6058 N   0  0  0  0  0  0  0  0  0  0  0  0
   20.8702   -8.2482  -15.8444 C   0  0  1  0  0  0  0  0  0  0  0  0
   21.9450   -7.2269  -16.0383 C   0  0  0  0  0  0  0  0  0  0  0  0
   22.2695   -6.2623  -14.5387 S   0  0  0  0  0  0  0  0  0  0  0  0
   19.5337   -7.7526  -16.2476 C   0  0  0  0  0  0  0  0  0  0  0  0
   19.1092   -7.7603  -17.4170 O   0  0  0  0  0  0  0  0  0  0  0  0
   11.4403   -9.3432  -13.6011 N   0  0  0  0  0  0  0  0  0  0  0  0
   11.3280   -8.1426  -14.3374 C   0  0  0  0  0  0  0  0  0  0  0  0
   10.1647   -7.6114  -14.5621 N   0  0  0  0  0  0  0  0  0  0  0  0
   12.4563   -7.4564  -14.8668 N   0  0  0  0  0  0  0  0  0  0  0  0
   13.7879   -7.9425  -14.6092 C   0  0  0  0  0  0  0  0  0  0  0  0
   14.8382   -7.0433  -15.2691 C   0  0  0  0  0  0  0  0  0  0  0  0
   16.2261   -7.5581  -14.9822 C   0  0  0  0  0  0  0  0  0  0  0  0
   17.3105   -6.7470  -15.6102 C   0  0  2  0  0  0  0  0  0  0  0  0
   18.6386   -7.2198  -15.2539 N   0  0  0  0  0  0  0  0  0  0  0  0
   17.1908   -5.3649  -15.0765 C   0  0  0  0  0  0  0  0  0  0  0  0
   18.0199   -4.8688  -14.2490 O   0  0  0  0  0  0  0  0  0  0  0  0
   16.1554   -4.5231  -15.4538 O   0  0  0  0  0  0  0  0  0  0  0  0
  2  1  1  1
  2  3  1  0
  4  5  2  0
  4  2  1  0
  6  4  1  0
  7 10  1  0
  7  6  1  0
  7  8  1  6
  9  8  1  0
 10 20  1  0
 11 10  2  0
 12 13  1  0
 13 15  1  0
 13 14  2  0
 15 16  1  0
 17 16  1  0
 18 17  1  0
 19 18  1  1
 20 19  1  0
 21 23  1  0
 21 19  1  0
 22 21  2  0
M  END
$$$$
