NFP.pdb
     RDKit          3D

 27 28  0  0  1  0  0  0  0  0999 V2000
   27.1802  -21.2114  -20.1340 N   0  0  0  0  0  0  0  0  0  0  0  0
   27.4242  -22.5012  -19.6242 C   0  0  0  0  0  0  0  0  0  0  0  0
   28.1357  -23.3017  -20.2748 O   0  0  0  0  0  0  0  0  0  0  0  0
   26.8706  -22.9793  -18.3235 C   0  0  0  0  0  0  0  0  0  0  0  0
   27.7195  -22.3794  -17.2351 C   0  0  2  0  0  0  0  0  0  0  0  0
   28.9186  -23.1581  -17.0876 N   0  0  0  0  0  0  0  0  0  0  0  0
   26.9822  -22.2377  -15.9524 C   0  0  0  0  0  0  0  0  0  0  0  0
   26.2879  -23.2248  -15.5844 O   0  0  0  0  0  0  0  0  0  0  0  0
   27.0496  -21.0589  -15.1764 N   0  0  0  0  0  0  0  0  0  0  0  0
   26.1265  -20.9001  -14.0675 C   0  0  1  0  0  0  0  0  0  0  0  0
   26.7001  -19.7583  -13.2410 C   0  0  0  0  0  0  0  0  0  0  0  0
   26.6611  -20.1474  -11.8083 C   0  0  0  0  0  0  0  0  0  0  0  0
   27.6533  -20.9350  -11.2416 C   0  0  0  0  0  0  0  0  0  0  0  0
   27.6105  -21.2957   -9.8990 C   0  0  0  0  0  0  0  0  0  0  0  0
   26.5681  -20.8722   -9.0957 C   0  0  0  0  0  0  0  0  0  0  0  0
   25.5737  -20.0898   -9.6397 C   0  0  0  0  0  0  0  0  0  0  0  0
   25.6359  -19.7461  -10.9654 C   0  0  0  0  0  0  0  0  0  0  0  0
   24.7565  -20.6043  -14.5303 C   0  0  0  0  0  0  0  0  0  0  0  0
   24.6800  -19.9621  -15.6331 O   0  0  0  0  0  0  0  0  0  0  0  0
   23.5610  -20.9498  -13.8981 N   0  0  0  0  0  0  0  0  0  0  0  0
   23.4884  -21.6633  -12.6080 C   0  0  0  0  0  0  0  0  0  0  0  0
   22.5780  -22.8278  -13.0207 C   0  0  0  0  0  0  0  0  0  0  0  0
   21.5685  -22.1166  -13.8967 C   0  0  0  0  0  0  0  0  0  0  0  0
   22.1649  -20.7671  -14.2353 C   0  0  1  0  0  0  0  0  0  0  0  0
   21.5557  -19.6648  -13.4321 C   0  0  0  0  0  0  0  0  0  0  0  0
   22.1322  -19.2019  -12.4223 O   0  0  0  0  0  0  0  0  0  0  0  0
   20.3323  -19.1292  -13.7915 O   0  0  0  0  0  0  0  0  0  0  0  0
  2  1  1  0
  3  2  2  0
  4  2  1  0
  5  4  1  0
  5  6  1  1
  7  5  1  0
  7  8  2  0
  9  7  1  0
 10  9  1  0
 10 11  1  1
 11 12  1  0
 12 13  2  0
 12 17  1  0
 13 14  1  0
 14 15  2  0
 16 15  1  0
 17 16  2  0
 18 10  1  0
 19 18  2  0
 20 18  1  0
 20 24  1  0
 21 22  1  0
 21 20  1  0
 22 23  1  0
 23 24  1  0
 24 25  1  1
 25 27  1  0
 26 25  2  0
M  END
$$$$
