NFP.pdb
     RDKit          3D

 27 28  0  0  1  0  0  0  0  0999 V2000
   20.7834  -16.0049  -18.6571 N   0  0  0  0  0  0  0  0  0  0  0  0
   20.3613  -14.6889  -18.9276 C   0  0  0  0  0  0  0  0  0  0  0  0
   19.9904  -14.3812  -20.0844 O   0  0  0  0  0  0  0  0  0  0  0  0
   20.3302  -13.6160  -17.8910 C   0  0  0  0  0  0  0  0  0  0  0  0
   20.9659  -12.3952  -18.4997 C   0  0  2  0  0  0  0  0  0  0  0  0
   22.3373  -12.6852  -18.8177 N   0  0  0  0  0  0  0  0  0  0  0  0
   20.8334  -11.1942  -17.6343 C   0  0  0  0  0  0  0  0  0  0  0  0
   19.6746  -10.9195  -17.2174 O   0  0  0  0  0  0  0  0  0  0  0  0
   21.9452  -10.3933  -17.2898 N   0  0  0  0  0  0  0  0  0  0  0  0
   21.7191   -9.1719  -16.5388 C   0  0  1  0  0  0  0  0  0  0  0  0
   22.8860   -9.0890  -15.5655 C   0  0  0  0  0  0  0  0  0  0  0  0
   22.7053   -7.8856  -14.7141 C   0  0  0  0  0  0  0  0  0  0  0  0
   22.1216   -7.9649  -13.4577 C   0  0  0  0  0  0  0  0  0  0  0  0
   21.9554   -6.8338  -12.6656 C   0  0  0  0  0  0  0  0  0  0  0  0
   22.3729   -5.5966  -13.1197 C   0  0  0  0  0  0  0  0  0  0  0  0
   22.9546   -5.4973  -14.3642 C   0  0  0  0  0  0  0  0  0  0  0  0
   23.1085   -6.6252  -15.1281 C   0  0  0  0  0  0  0  0  0  0  0  0
   21.6572   -7.9885  -17.4188 C   0  0  0  0  0  0  0  0  0  0  0  0
   22.5483   -7.9425  -18.3344 O   0  0  0  0  0  0  0  0  0  0  0  0
   20.7412   -6.9373  -17.3534 N   0  0  0  0  0  0  0  0  0  0  0  0
   19.6725   -6.8386  -16.3400 C   0  0  0  0  0  0  0  0  0  0  0  0
   18.4650   -6.6631  -17.2709 C   0  0  0  0  0  0  0  0  0  0  0  0
   19.0296   -5.7189  -18.3111 C   0  0  0  0  0  0  0  0  0  0  0  0
   20.5341   -5.7436  -18.1460 C   0  0  1  0  0  0  0  0  0  0  0  0
   21.0428   -4.5308  -17.4377 C   0  0  0  0  0  0  0  0  0  0  0  0
   21.0510   -3.4096  -17.9937 O   0  0  0  0  0  0  0  0  0  0  0  0
   21.5189   -4.6236  -16.1424 O   0  0  0  0  0  0  0  0  0  0  0  0
  2  1  1  0
  3  2  2  0
  4  2  1  0
  5  4  1  0
  5  6  1  1
  7  5  1  0
  7  8  2  0
  9  7  1  0
 10  9  1  0
 10 11  1  1
 11 12  1  0
 12 13  2  0
 12 17  1  0
 13 14  1  0
 14 15  2  0
 16 15  1  0
 17 16  2  0
 18 10  1  0
 19 18  2  0
 20 18  1  0
 20 24  1  0
 21 22  1  0
 21 20  1  0
 22 23  1  0
 23 24  1  0
 24 25  1  1
 25 27  1  0
 26 25  2  0
M  END
$$$$
