NFP.pdb
     RDKit          3D

 27 28  0  0  1  0  0  0  0  0999 V2000
   28.2664  -18.0394  -20.2425 N   0  0  0  0  0  0  0  0  0  0  0  0
   26.9163  -18.0023  -19.8436 C   0  0  0  0  0  0  0  0  0  0  0  0
   26.0915  -17.3301  -20.5056 O   0  0  0  0  0  0  0  0  0  0  0  0
   26.4010  -18.7349  -18.6501 C   0  0  0  0  0  0  0  0  0  0  0  0
   27.5800  -19.4112  -18.0040 C   0  0  2  0  0  0  0  0  0  0  0  0
   28.2051  -20.2852  -18.9586 N   0  0  0  0  0  0  0  0  0  0  0  0
   27.2115  -20.1216  -16.7515 C   0  0  0  0  0  0  0  0  0  0  0  0
   26.8235  -21.3164  -16.8693 O   0  0  0  0  0  0  0  0  0  0  0  0
   27.2888  -19.4975  -15.4864 N   0  0  0  0  0  0  0  0  0  0  0  0
   26.6645  -20.1475  -14.3486 C   0  0  1  0  0  0  0  0  0  0  0  0
   27.3288  -19.5253  -13.1290 C   0  0  0  0  0  0  0  0  0  0  0  0
   26.6528  -20.0389  -11.9105 C   0  0  0  0  0  0  0  0  0  0  0  0
   25.5846  -19.3666  -11.3337 C   0  0  0  0  0  0  0  0  0  0  0  0
   24.9562  -19.8533  -10.1924 C   0  0  0  0  0  0  0  0  0  0  0  0
   25.3882  -21.0278   -9.6051 C   0  0  0  0  0  0  0  0  0  0  0  0
   26.4470  -21.7096  -10.1627 C   0  0  0  0  0  0  0  0  0  0  0  0
   27.0517  -21.2118  -11.2878 C   0  0  0  0  0  0  0  0  0  0  0  0
   25.2021  -19.9476  -14.3351 C   0  0  0  0  0  0  0  0  0  0  0  0
   24.8103  -18.7668  -14.6293 O   0  0  0  0  0  0  0  0  0  0  0  0
   24.2247  -20.8996  -14.0406 N   0  0  0  0  0  0  0  0  0  0  0  0
   24.5220  -22.2632  -13.5599 C   0  0  0  0  0  0  0  0  0  0  0  0
   23.7353  -23.0694  -14.6021 C   0  0  0  0  0  0  0  0  0  0  0  0
   22.4742  -22.2407  -14.7253 C   0  0  0  0  0  0  0  0  0  0  0  0
   22.7782  -20.8958  -14.1004 C   0  0  1  0  0  0  0  0  0  0  0  0
   22.1822  -20.7608  -12.7374 C   0  0  0  0  0  0  0  0  0  0  0  0
   22.8079  -21.1239  -11.7161 O   0  0  0  0  0  0  0  0  0  0  0  0
   20.9165  -20.2272  -12.5754 O   0  0  0  0  0  0  0  0  0  0  0  0
  2  1  1  0
  3  2  2  0
  4  2  1  0
  5  4  1  0
  5  6  1  6
  7  5  1  0
  7  8  2  0
  9  7  1  0
 10  9  1  0
 10 11  1  1
 11 12  1  0
 12 13  2  0
 12 17  1  0
 13 14  1  0
 14 15  2  0
 16 15  1  0
 17 16  2  0
 18 10  1  0
 19 18  2  0
 20 18  1  0
 20 24  1  0
 21 22  1  0
 21 20  1  0
 22 23  1  0
 23 24  1  0
 24 25  1  1
 25 27  1  0
 26 25  2  0
M  END
$$$$
