NFP.pdb
     RDKit          3D

 27 28  0  0  1  0  0  0  0  0999 V2000
   22.7690  -18.1607  -21.4488 N   0  0  0  0  0  0  0  0  0  0  0  0
   23.3392  -18.0060  -20.1705 C   0  0  0  0  0  0  0  0  0  0  0  0
   23.7301  -16.8752  -19.7976 O   0  0  0  0  0  0  0  0  0  0  0  0
   23.5080  -19.1383  -19.2133 C   0  0  0  0  0  0  0  0  0  0  0  0
   24.9328  -19.0996  -18.7302 C   0  0  2  0  0  0  0  0  0  0  0  0
   25.8003  -19.5608  -19.7794 N   0  0  0  0  0  0  0  0  0  0  0  0
   25.1259  -19.8609  -17.4685 C   0  0  0  0  0  0  0  0  0  0  0  0
   25.2925  -21.1069  -17.5768 O   0  0  0  0  0  0  0  0  0  0  0  0
   25.1245  -19.2288  -16.2050 N   0  0  0  0  0  0  0  0  0  0  0  0
   25.0423  -20.0527  -15.0128 C   0  0  1  0  0  0  0  0  0  0  0  0
   25.4540  -19.1334  -13.8722 C   0  0  0  0  0  0  0  0  0  0  0  0
   25.3799  -19.8973  -12.6007 C   0  0  0  0  0  0  0  0  0  0  0  0
   24.2602  -19.8409  -11.7829 C   0  0  0  0  0  0  0  0  0  0  0  0
   24.1976  -20.5590  -10.5934 C   0  0  0  0  0  0  0  0  0  0  0  0
   25.2604  -21.3503  -10.1994 C   0  0  0  0  0  0  0  0  0  0  0  0
   26.3807  -21.4194  -10.9975 C   0  0  0  0  0  0  0  0  0  0  0  0
   26.4210  -20.7033  -12.1658 C   0  0  0  0  0  0  0  0  0  0  0  0
   23.6848  -20.5966  -14.8127 C   0  0  0  0  0  0  0  0  0  0  0  0
   22.7292  -19.8035  -15.1164 O   0  0  0  0  0  0  0  0  0  0  0  0
   23.3472  -21.8644  -14.3361 N   0  0  0  0  0  0  0  0  0  0  0  0
   24.3041  -22.7807  -13.6853 C   0  0  0  0  0  0  0  0  0  0  0  0
   24.0908  -24.0230  -14.5608 C   0  0  0  0  0  0  0  0  0  0  0  0
   22.5866  -24.0083  -14.7321 C   0  0  0  0  0  0  0  0  0  0  0  0
   22.1182  -22.6293  -14.3191 C   0  0  1  0  0  0  0  0  0  0  0  0
   21.5009  -22.6283  -12.9589 C   0  0  0  0  0  0  0  0  0  0  0  0
   20.2720  -22.8069  -12.8031 O   0  0  0  0  0  0  0  0  0  0  0  0
   22.2817  -22.4282  -11.8349 O   0  0  0  0  0  0  0  0  0  0  0  0
  2  1  1  0
  3  2  2  0
  4  2  1  0
  5  4  1  0
  5  6  1  6
  7  5  1  0
  7  8  2  0
  9  7  1  0
 10  9  1  0
 10 11  1  1
 11 12  1  0
 12 13  2  0
 12 17  1  0
 13 14  1  0
 14 15  2  0
 16 15  1  0
 17 16  2  0
 18 10  1  0
 19 18  2  0
 20 18  1  0
 20 24  1  0
 21 22  1  0
 21 20  1  0
 22 23  1  0
 23 24  1  0
 24 25  1  1
 25 27  1  0
 26 25  2  0
M  END
$$$$
