NFP.pdb
     RDKit          3D

 27 28  0  0  1  0  0  0  0  0999 V2000
   25.3631  -21.9735  -13.9064 N   0  0  0  0  0  0  0  0  0  0  0  0
   25.1992  -20.8145  -13.1234 C   0  0  0  0  0  0  0  0  0  0  0  0
   24.1399  -20.1507  -13.2110 O   0  0  0  0  0  0  0  0  0  0  0  0
   26.2393  -20.3212  -12.1739 C   0  0  0  0  0  0  0  0  0  0  0  0
   25.9560  -20.9566  -10.8394 C   0  0  2  0  0  0  0  0  0  0  0  0
   24.5844  -20.7162  -10.4831 N   0  0  0  0  0  0  0  0  0  0  0  0
   26.8972  -20.5025   -9.7826 C   0  0  0  0  0  0  0  0  0  0  0  0
   28.1272  -20.5451  -10.0609 O   0  0  0  0  0  0  0  0  0  0  0  0
   26.4458  -20.0439   -8.5248 N   0  0  0  0  0  0  0  0  0  0  0  0
   27.4286  -19.7153   -7.5083 C   0  0  1  0  0  0  0  0  0  0  0  0
   26.6887  -18.8234   -6.5221 C   0  0  0  0  0  0  0  0  0  0  0  0
   27.5816  -18.5570   -5.3656 C   0  0  0  0  0  0  0  0  0  0  0  0
   27.6301  -19.4108   -4.2727 C   0  0  0  0  0  0  0  0  0  0  0  0
   28.4688  -19.1551   -3.1930 C   0  0  0  0  0  0  0  0  0  0  0  0
   29.2780  -18.0343   -3.1882 C   0  0  0  0  0  0  0  0  0  0  0  0
   29.2442  -17.1747   -4.2638 C   0  0  0  0  0  0  0  0  0  0  0  0
   28.4101  -17.4461   -5.3174 C   0  0  0  0  0  0  0  0  0  0  0  0
   27.9676  -20.9234   -6.8536 C   0  0  0  0  0  0  0  0  0  0  0  0
   27.1408  -21.8902   -6.7271 O   0  0  0  0  0  0  0  0  0  0  0  0
   29.2633  -21.1122   -6.3700 N   0  0  0  0  0  0  0  0  0  0  0  0
   30.3185  -20.0811   -6.4188 C   0  0  0  0  0  0  0  0  0  0  0  0
   31.4159  -20.8843   -7.1300 C   0  0  0  0  0  0  0  0  0  0  0  0
   31.2812  -22.2316   -6.4524 C   0  0  0  0  0  0  0  0  0  0  0  0
   29.9426  -22.2278   -5.7455 C   0  0  1  0  0  0  0  0  0  0  0  0
   30.0839  -22.0177   -4.2734 C   0  0  0  0  0  0  0  0  0  0  0  0
   29.9792  -20.8780   -3.7669 O   0  0  0  0  0  0  0  0  0  0  0  0
   30.3353  -23.0876   -3.4336 O   0  0  0  0  0  0  0  0  0  0  0  0
  2  1  1  0
  3  2  2  0
  4  2  1  0
  5  4  1  0
  5  6  1  1
  7  5  1  0
  7  8  2  0
  9  7  1  0
 10  9  1  0
 10 11  1  1
 11 12  1  0
 12 13  2  0
 12 17  1  0
 13 14  1  0
 14 15  2  0
 16 15  1  0
 17 16  2  0
 18 10  1  0
 19 18  2  0
 20 18  1  0
 20 24  1  0
 21 22  1  0
 21 20  1  0
 22 23  1  0
 23 24  1  0
 24 25  1  1
 25 27  1  0
 26 25  2  0
M  END
$$$$
