NFP.pdb
     RDKit          3D

 27 28  0  0  1  0  0  0  0  0999 V2000
   26.2747  -16.6474  -19.8602 N   0  0  0  0  0  0  0  0  0  0  0  0
   25.2045  -17.5604  -19.9261 C   0  0  0  0  0  0  0  0  0  0  0  0
   24.1915  -17.2816  -20.6091 O   0  0  0  0  0  0  0  0  0  0  0  0
   25.2091  -18.8708  -19.2123 C   0  0  0  0  0  0  0  0  0  0  0  0
   26.5083  -18.9583  -18.4579 C   0  0  2  0  0  0  0  0  0  0  0  0
   27.5258  -19.4815  -19.3280 N   0  0  0  0  0  0  0  0  0  0  0  0
   26.3851  -19.7456  -17.2033 C   0  0  0  0  0  0  0  0  0  0  0  0
   26.1357  -20.9763  -17.3272 O   0  0  0  0  0  0  0  0  0  0  0  0
   26.5381  -19.1534  -15.9297 N   0  0  0  0  0  0  0  0  0  0  0  0
   26.1070  -19.8955  -14.7590 C   0  0  1  0  0  0  0  0  0  0  0  0
   26.7742  -19.1954  -13.5841 C   0  0  0  0  0  0  0  0  0  0  0  0
   26.3389  -19.8608  -12.3298 C   0  0  0  0  0  0  0  0  0  0  0  0
   27.0233  -20.9501  -11.8092 C   0  0  0  0  0  0  0  0  0  0  0  0
   26.6100  -21.5684  -10.6340 C   0  0  0  0  0  0  0  0  0  0  0  0
   25.4983  -21.1050   -9.9554 C   0  0  0  0  0  0  0  0  0  0  0  0
   24.8056  -20.0250  -10.4561 C   0  0  0  0  0  0  0  0  0  0  0  0
   25.2306  -19.4307  -11.6160 C   0  0  0  0  0  0  0  0  0  0  0  0
   24.6371  -19.9061  -14.6251 C   0  0  0  0  0  0  0  0  0  0  0  0
   24.0574  -18.7976  -14.8889 O   0  0  0  0  0  0  0  0  0  0  0  0
   23.8336  -20.9834  -14.2482 N   0  0  0  0  0  0  0  0  0  0  0  0
   24.3592  -22.2556  -13.7152 C   0  0  0  0  0  0  0  0  0  0  0  0
   23.6796  -23.2299  -14.6868 C   0  0  0  0  0  0  0  0  0  0  0  0
   22.2993  -22.6182  -14.8004 C   0  0  0  0  0  0  0  0  0  0  0  0
   22.4038  -21.2111  -14.2522 C   0  0  1  0  0  0  0  0  0  0  0  0
   21.8360  -21.0997  -12.8751 C   0  0  0  0  0  0  0  0  0  0  0  0
   22.5719  -21.1427  -11.8637 O   0  0  0  0  0  0  0  0  0  0  0  0
   20.4742  -20.9456  -12.6887 O   0  0  0  0  0  0  0  0  0  0  0  0
  2  1  1  0
  3  2  2  0
  4  2  1  0
  5  4  1  0
  5  6  1  6
  7  5  1  0
  7  8  2  0
  9  7  1  0
 10  9  1  0
 10 11  1  1
 11 12  1  0
 12 13  2  0
 12 17  1  0
 13 14  1  0
 14 15  2  0
 16 15  1  0
 17 16  2  0
 18 10  1  0
 19 18  2  0
 20 18  1  0
 20 24  1  0
 21 22  1  0
 21 20  1  0
 22 23  1  0
 23 24  1  0
 24 25  1  1
 25 27  1  0
 26 25  2  0
M  END
$$$$
