NFP.pdb
     RDKit          3D

 27 28  0  0  1  0  0  0  0  0999 V2000
   19.1620  -21.5672  -16.1057 N   0  0  0  0  0  0  0  0  0  0  0  0
   19.9973  -21.8913  -15.0192 C   0  0  0  0  0  0  0  0  0  0  0  0
   19.5945  -22.6926  -14.1438 O   0  0  0  0  0  0  0  0  0  0  0  0
   21.3657  -21.3216  -14.8477 C   0  0  0  0  0  0  0  0  0  0  0  0
   21.4076  -20.6742  -13.4897 C   0  0  2  0  0  0  0  0  0  0  0  0
   20.4966  -19.5627  -13.4677 N   0  0  0  0  0  0  0  0  0  0  0  0
   22.7836  -20.2787  -13.0910 C   0  0  0  0  0  0  0  0  0  0  0  0
   23.1721  -19.1334  -13.4507 O   0  0  0  0  0  0  0  0  0  0  0  0
   23.6229  -21.1366  -12.3455 N   0  0  0  0  0  0  0  0  0  0  0  0
   25.0525  -20.8855  -12.3439 C   0  0  1  0  0  0  0  0  0  0  0  0
   25.6276  -21.9021  -11.3685 C   0  0  0  0  0  0  0  0  0  0  0  0
   26.1576  -21.1746  -10.1872 C   0  0  0  0  0  0  0  0  0  0  0  0
   25.3196  -20.4877   -9.3202 C   0  0  0  0  0  0  0  0  0  0  0  0
   25.8227  -19.8085   -8.2157 C   0  0  0  0  0  0  0  0  0  0  0  0
   27.1810  -19.8048   -7.9581 C   0  0  0  0  0  0  0  0  0  0  0  0
   28.0291  -20.4809   -8.8070 C   0  0  0  0  0  0  0  0  0  0  0  0
   27.5116  -21.1437   -9.8897 C   0  0  0  0  0  0  0  0  0  0  0  0
   25.6378  -21.0300  -13.6912 C   0  0  0  0  0  0  0  0  0  0  0  0
   24.9940  -21.7967  -14.4862 O   0  0  0  0  0  0  0  0  0  0  0  0
   26.7991  -20.4247  -14.1743 N   0  0  0  0  0  0  0  0  0  0  0  0
   27.7954  -19.7535  -13.3166 C   0  0  0  0  0  0  0  0  0  0  0  0
   27.8511  -18.3917  -14.0220 C   0  0  0  0  0  0  0  0  0  0  0  0
   27.8157  -18.8114  -15.4763 C   0  0  0  0  0  0  0  0  0  0  0  0
   27.3587  -20.2544  -15.4986 C   0  0  1  0  0  0  0  0  0  0  0  0
   28.4913  -21.2001  -15.7314 C   0  0  0  0  0  0  0  0  0  0  0  0
   29.0238  -21.8214  -14.7844 O   0  0  0  0  0  0  0  0  0  0  0  0
   28.9780  -21.4099  -17.0089 O   0  0  0  0  0  0  0  0  0  0  0  0
  2  1  1  0
  3  2  2  0
  4  2  1  0
  5  4  1  0
  5  6  1  6
  7  5  1  0
  7  8  2  0
  9  7  1  0
 10  9  1  0
 10 11  1  1
 11 12  1  0
 12 13  2  0
 12 17  1  0
 13 14  1  0
 14 15  2  0
 16 15  1  0
 17 16  2  0
 18 10  1  0
 19 18  2  0
 20 18  1  0
 20 24  1  0
 21 22  1  0
 21 20  1  0
 22 23  1  0
 23 24  1  0
 24 25  1  1
 25 27  1  0
 26 25  2  0
M  END
$$$$
