NFP.pdb
     RDKit          3D

 27 28  0  0  1  0  0  0  0  0999 V2000
   23.0415  -20.7117  -14.2190 N   0  0  0  0  0  0  0  0  0  0  0  0
   23.7151  -20.0335  -13.1847 C   0  0  0  0  0  0  0  0  0  0  0  0
   24.0664  -18.8419  -13.3494 O   0  0  0  0  0  0  0  0  0  0  0  0
   24.0415  -20.6683  -11.8743 C   0  0  0  0  0  0  0  0  0  0  0  0
   25.5382  -20.8146  -11.8151 C   0  0  2  0  0  0  0  0  0  0  0  0
   25.9492  -21.8427  -12.7315 N   0  0  0  0  0  0  0  0  0  0  0  0
   26.0305  -21.0646  -10.4352 C   0  0  0  0  0  0  0  0  0  0  0  0
   25.8228  -22.2139   -9.9576 O   0  0  0  0  0  0  0  0  0  0  0  0
   26.6994  -20.0701   -9.6872 N   0  0  0  0  0  0  0  0  0  0  0  0
   27.0759  -20.3633   -8.3164 C   0  0  1  0  0  0  0  0  0  0  0  0
   28.2792  -19.4730   -8.0418 C   0  0  0  0  0  0  0  0  0  0  0  0
   28.6225  -19.5757   -6.6006 C   0  0  0  0  0  0  0  0  0  0  0  0
   29.4154  -20.6053   -6.1136 C   0  0  0  0  0  0  0  0  0  0  0  0
   29.7330  -20.6953   -4.7625 C   0  0  0  0  0  0  0  0  0  0  0  0
   29.2601  -19.7513   -3.8702 C   0  0  0  0  0  0  0  0  0  0  0  0
   28.4717  -18.7217   -4.3342 C   0  0  0  0  0  0  0  0  0  0  0  0
   28.1710  -18.6523   -5.6699 C   0  0  0  0  0  0  0  0  0  0  0  0
   25.9723  -20.0954   -7.3736 C   0  0  0  0  0  0  0  0  0  0  0  0
   25.2979  -19.0354   -7.6103 O   0  0  0  0  0  0  0  0  0  0  0  0
   25.5983  -20.8684   -6.2732 N   0  0  0  0  0  0  0  0  0  0  0  0
   26.3628  -22.0344   -5.7884 C   0  0  0  0  0  0  0  0  0  0  0  0
   25.2413  -23.0821   -5.7880 C   0  0  0  0  0  0  0  0  0  0  0  0
   24.0827  -22.2736   -5.2436 C   0  0  0  0  0  0  0  0  0  0  0  0
   24.4835  -20.8178   -5.3509 C   0  0  1  0  0  0  0  0  0  0  0  0
   24.8989  -20.2496   -4.0333 C   0  0  0  0  0  0  0  0  0  0  0  0
   26.0826  -20.3309   -3.6350 O   0  0  0  0  0  0  0  0  0  0  0  0
   23.9758  -19.6171   -3.2204 O   0  0  0  0  0  0  0  0  0  0  0  0
  2  1  1  0
  3  2  2  0
  4  2  1  0
  5  4  1  0
  5  6  1  6
  7  5  1  0
  7  8  2  0
  9  7  1  0
 10  9  1  0
 10 11  1  1
 11 12  1  0
 12 13  2  0
 12 17  1  0
 13 14  1  0
 14 15  2  0
 16 15  1  0
 17 16  2  0
 18 10  1  0
 19 18  2  0
 20 18  1  0
 20 24  1  0
 21 22  1  0
 21 20  1  0
 22 23  1  0
 23 24  1  0
 24 25  1  1
 25 27  1  0
 26 25  2  0
M  END
$$$$
