NFP.pdb
     RDKit          3D

 27 28  0  0  1  0  0  0  0  0999 V2000
   12.8598  -16.9821    6.7901 N   0  0  0  0  0  0  0  0  0  0  0  0
   13.7707  -18.0320    7.0168 C   0  0  0  0  0  0  0  0  0  0  0  0
   13.3667  -19.2182    7.0035 O   0  0  0  0  0  0  0  0  0  0  0  0
   15.2225  -17.8065    7.2777 C   0  0  0  0  0  0  0  0  0  0  0  0
   15.8257  -17.2894    5.9995 C   0  0  2  0  0  0  0  0  0  0  0  0
   16.0194  -18.3860    5.0907 N   0  0  0  0  0  0  0  0  0  0  0  0
   17.0796  -16.5257    6.2312 C   0  0  0  0  0  0  0  0  0  0  0  0
   18.1483  -17.1936    6.2925 O   0  0  0  0  0  0  0  0  0  0  0  0
   17.0842  -15.1204    6.3769 N   0  0  0  0  0  0  0  0  0  0  0  0
   18.3251  -14.4609    6.7405 C   0  0  1  0  0  0  0  0  0  0  0  0
   18.0676  -12.9808    6.4981 C   0  0  0  0  0  0  0  0  0  0  0  0
   19.3142  -12.2305    6.7953 C   0  0  0  0  0  0  0  0  0  0  0  0
   20.2344  -11.9267    5.8019 C   0  0  0  0  0  0  0  0  0  0  0  0
   21.3999  -11.2236    6.0874 C   0  0  0  0  0  0  0  0  0  0  0  0
   21.6665  -10.8099    7.3792 C   0  0  0  0  0  0  0  0  0  0  0  0
   20.7655  -11.1018    8.3792 C   0  0  0  0  0  0  0  0  0  0  0  0
   19.6230  -11.7959    8.0754 C   0  0  0  0  0  0  0  0  0  0  0  0
   18.6990  -14.7273    8.1433 C   0  0  0  0  0  0  0  0  0  0  0  0
   17.7264  -14.7461    8.9729 O   0  0  0  0  0  0  0  0  0  0  0  0
   19.9815  -14.9573    8.6440 N   0  0  0  0  0  0  0  0  0  0  0  0
   21.2112  -14.8606    7.8332 C   0  0  0  0  0  0  0  0  0  0  0  0
   21.8083  -16.2441    8.1244 C   0  0  0  0  0  0  0  0  0  0  0  0
   21.5232  -16.3826    9.6049 C   0  0  0  0  0  0  0  0  0  0  0  0
   20.4923  -15.3282    9.9469 C   0  0  1  0  0  0  0  0  0  0  0  0
   21.0980  -14.1536   10.6432 C   0  0  0  0  0  0  0  0  0  0  0  0
   21.3822  -13.1054   10.0212 O   0  0  0  0  0  0  0  0  0  0  0  0
   21.3589  -14.2014   12.0006 O   0  0  0  0  0  0  0  0  0  0  0  0
  2  1  1  0
  3  2  2  0
  4  2  1  0
  5  4  1  0
  5  6  1  6
  7  5  1  0
  7  8  2  0
  9  7  1  0
 10  9  1  0
 10 11  1  1
 11 12  1  0
 12 13  2  0
 12 17  1  0
 13 14  1  0
 14 15  2  0
 16 15  1  0
 17 16  2  0
 18 10  1  0
 19 18  2  0
 20 18  1  0
 20 24  1  0
 21 22  1  0
 21 20  1  0
 22 23  1  0
 23 24  1  0
 24 25  1  6
 25 27  1  0
 26 25  2  0
M  END
$$$$
