NFP.pdb
     RDKit          3D

 27 28  0  0  1  0  0  0  0  0999 V2000
   21.5663  -20.9467  -13.3615 N   0  0  0  0  0  0  0  0  0  0  0  0
   22.5916  -21.9056  -13.2496 C   0  0  0  0  0  0  0  0  0  0  0  0
   22.3949  -23.0751  -13.6547 O   0  0  0  0  0  0  0  0  0  0  0  0
   23.9292  -21.6006  -12.6626 C   0  0  0  0  0  0  0  0  0  0  0  0
   23.8200  -20.2598  -11.9879 C   0  0  2  0  0  0  0  0  0  0  0  0
   23.5992  -19.2465  -12.9831 N   0  0  0  0  0  0  0  0  0  0  0  0
   24.9965  -19.9570  -11.1316 C   0  0  0  0  0  0  0  0  0  0  0  0
   25.9932  -19.4328  -11.7006 O   0  0  0  0  0  0  0  0  0  0  0  0
   25.0074  -20.2390   -9.7473 N   0  0  0  0  0  0  0  0  0  0  0  0
   26.2697  -20.1795   -9.0331 C   0  0  1  0  0  0  0  0  0  0  0  0
   25.8935  -20.2925   -7.5629 C   0  0  0  0  0  0  0  0  0  0  0  0
   27.1144  -20.0749   -6.7458 C   0  0  0  0  0  0  0  0  0  0  0  0
   27.7663  -21.1269   -6.1182 C   0  0  0  0  0  0  0  0  0  0  0  0
   28.9093  -20.9158   -5.3544 C   0  0  0  0  0  0  0  0  0  0  0  0
   29.4227  -19.6410   -5.2045 C   0  0  0  0  0  0  0  0  0  0  0  0
   28.7898  -18.5836   -5.8196 C   0  0  0  0  0  0  0  0  0  0  0  0
   27.6646  -18.8145   -6.5678 C   0  0  0  0  0  0  0  0  0  0  0  0
   27.1869  -21.2595   -9.4465 C   0  0  0  0  0  0  0  0  0  0  0  0
   26.6564  -22.4187   -9.5430 O   0  0  0  0  0  0  0  0  0  0  0  0
   28.5471  -21.1438   -9.7377 N   0  0  0  0  0  0  0  0  0  0  0  0
   29.3263  -19.9041   -9.5513 C   0  0  0  0  0  0  0  0  0  0  0  0
   29.9169  -19.7693  -10.9614 C   0  0  0  0  0  0  0  0  0  0  0  0
   30.2726  -21.2081  -11.2708 C   0  0  0  0  0  0  0  0  0  0  0  0
   29.5373  -22.0619  -10.2600 C   0  0  1  0  0  0  0  0  0  0  0  0
   30.4400  -22.5551   -9.1768 C   0  0  0  0  0  0  0  0  0  0  0  0
   30.4394  -22.0292   -8.0411 O   0  0  0  0  0  0  0  0  0  0  0  0
   31.3017  -23.6117   -9.4093 O   0  0  0  0  0  0  0  0  0  0  0  0
  2  1  1  0
  3  2  2  0
  4  2  1  0
  5  4  1  0
  5  6  1  6
  7  5  1  0
  7  8  2  0
  9  7  1  0
 10  9  1  0
 10 11  1  1
 11 12  1  0
 12 13  2  0
 12 17  1  0
 13 14  1  0
 14 15  2  0
 16 15  1  0
 17 16  2  0
 18 10  1  0
 19 18  2  0
 20 18  1  0
 20 24  1  0
 21 22  1  0
 21 20  1  0
 22 23  1  0
 23 24  1  0
 24 25  1  1
 25 27  1  0
 26 25  2  0
M  END
$$$$
