NFP.pdb
     RDKit          3D

 27 28  0  0  1  0  0  0  0  0999 V2000
   13.3122  -10.9643  -16.4863 N   0  0  0  0  0  0  0  0  0  0  0  0
   13.8997  -10.4704  -15.3056 C   0  0  0  0  0  0  0  0  0  0  0  0
   13.1778  -10.2096  -14.3150 O   0  0  0  0  0  0  0  0  0  0  0  0
   15.3664  -10.2349  -15.1644 C   0  0  0  0  0  0  0  0  0  0  0  0
   15.9849  -10.4791  -16.5145 C   0  0  2  0  0  0  0  0  0  0  0  0
   15.9973  -11.8917  -16.7801 N   0  0  0  0  0  0  0  0  0  0  0  0
   17.3367   -9.8740  -16.6381 C   0  0  0  0  0  0  0  0  0  0  0  0
   18.3045  -10.5499  -16.1926 O   0  0  0  0  0  0  0  0  0  0  0  0
   17.5379   -8.6044  -17.2244 N   0  0  0  0  0  0  0  0  0  0  0  0
   18.8891   -8.0806  -17.3077 C   0  0  1  0  0  0  0  0  0  0  0  0
   18.9147   -7.2657  -18.5926 C   0  0  0  0  0  0  0  0  0  0  0  0
   18.9270   -8.2025  -19.7449 C   0  0  0  0  0  0  0  0  0  0  0  0
   20.1004   -8.7990  -20.1845 C   0  0  0  0  0  0  0  0  0  0  0  0
   20.1046   -9.6754  -21.2644 C   0  0  0  0  0  0  0  0  0  0  0  0
   18.9281   -9.9720  -21.9269 C   0  0  0  0  0  0  0  0  0  0  0  0
   17.7530   -9.3900  -21.5056 C   0  0  0  0  0  0  0  0  0  0  0  0
   17.7719   -8.5291  -20.4390 C   0  0  0  0  0  0  0  0  0  0  0  0
   19.2331   -7.2571  -16.1321 C   0  0  0  0  0  0  0  0  0  0  0  0
   18.2617   -6.5999  -15.6233 O   0  0  0  0  0  0  0  0  0  0  0  0
   20.4868   -7.1279  -15.5321 N   0  0  0  0  0  0  0  0  0  0  0  0
   21.6948   -7.8438  -15.9871 C   0  0  0  0  0  0  0  0  0  0  0  0
   22.1085   -8.4972  -14.6615 C   0  0  0  0  0  0  0  0  0  0  0  0
   21.8495   -7.3704  -13.6839 C   0  0  0  0  0  0  0  0  0  0  0  0
   20.9799   -6.3634  -14.4058 C   0  0  1  0  0  0  0  0  0  0  0  0
   21.7575   -5.1722  -14.8614 C   0  0  0  0  0  0  0  0  0  0  0  0
   22.2166   -5.1019  -16.0236 O   0  0  0  0  0  0  0  0  0  0  0  0
   21.9875   -4.1142  -14.0008 O   0  0  0  0  0  0  0  0  0  0  0  0
  2  1  1  0
  3  2  2  0
  4  2  1  0
  5  4  1  0
  5  6  1  1
  7  5  1  0
  7  8  2  0
  9  7  1  0
 10  9  1  0
 10 11  1  6
 11 12  1  0
 12 13  2  0
 12 17  1  0
 13 14  1  0
 14 15  2  0
 16 15  1  0
 17 16  2  0
 18 10  1  0
 19 18  2  0
 20 18  1  0
 20 24  1  0
 21 22  1  0
 21 20  1  0
 22 23  1  0
 23 24  1  0
 24 25  1  6
 25 27  1  0
 26 25  2  0
M  END
$$$$
