NFP.pdb
     RDKit          3D

 27 28  0  0  1  0  0  0  0  0999 V2000
   30.6403  -25.0333  -17.9436 N   0  0  0  0  0  0  0  0  0  0  0  0
   29.5269  -24.1854  -17.7860 C   0  0  0  0  0  0  0  0  0  0  0  0
   28.6348  -24.1619  -18.6658 O   0  0  0  0  0  0  0  0  0  0  0  0
   29.3456  -23.2933  -16.6036 C   0  0  0  0  0  0  0  0  0  0  0  0
   28.6781  -22.0376  -17.0961 C   0  0  2  0  0  0  0  0  0  0  0  0
   29.6084  -21.2912  -17.8982 N   0  0  0  0  0  0  0  0  0  0  0  0
   28.1133  -21.2226  -15.9889 C   0  0  0  0  0  0  0  0  0  0  0  0
   28.9383  -20.6110  -15.2558 O   0  0  0  0  0  0  0  0  0  0  0  0
   26.7220  -21.1312  -15.7608 N   0  0  0  0  0  0  0  0  0  0  0  0
   26.2505  -20.3596  -14.6253 C   0  0  1  0  0  0  0  0  0  0  0  0
   25.3947  -19.2561  -15.2300 C   0  0  0  0  0  0  0  0  0  0  0  0
   26.2773  -18.1155  -15.5843 C   0  0  0  0  0  0  0  0  0  0  0  0
   26.5288  -17.0854  -14.6891 C   0  0  0  0  0  0  0  0  0  0  0  0
   27.3565  -16.0202  -15.0276 C   0  0  0  0  0  0  0  0  0  0  0  0
   27.9504  -15.9670  -16.2748 C   0  0  0  0  0  0  0  0  0  0  0  0
   27.7131  -16.9800  -17.1773 C   0  0  0  0  0  0  0  0  0  0  0  0
   26.8939  -18.0204  -16.8226 C   0  0  0  0  0  0  0  0  0  0  0  0
   25.4813  -21.1897  -13.6777 C   0  0  0  0  0  0  0  0  0  0  0  0
   25.0796  -22.3128  -14.1379 O   0  0  0  0  0  0  0  0  0  0  0  0
   25.1566  -20.8780  -12.3565 N   0  0  0  0  0  0  0  0  0  0  0  0
   25.6145  -19.6586  -11.6620 C   0  0  0  0  0  0  0  0  0  0  0  0
   26.2498  -20.3039  -10.4229 C   0  0  0  0  0  0  0  0  0  0  0  0
   25.2423  -21.3888  -10.1062 C   0  0  0  0  0  0  0  0  0  0  0  0
   24.3749  -21.5456  -11.3369 C   0  0  1  0  0  0  0  0  0  0  0  0
   23.0393  -20.8977  -11.1707 C   0  0  0  0  0  0  0  0  0  0  0  0
   22.1297  -21.4454  -10.5081 O   0  0  0  0  0  0  0  0  0  0  0  0
   22.7789  -19.6693  -11.7506 O   0  0  0  0  0  0  0  0  0  0  0  0
  2  1  1  0
  3  2  2  0
  4  2  1  0
  5  4  1  0
  5  6  1  1
  7  5  1  0
  7  8  2  0
  9  7  1  0
 10  9  1  0
 10 11  1  6
 11 12  1  0
 12 13  2  0
 12 17  1  0
 13 14  1  0
 14 15  2  0
 16 15  1  0
 17 16  2  0
 18 10  1  0
 19 18  2  0
 20 18  1  0
 20 24  1  0
 21 22  1  0
 21 20  1  0
 22 23  1  0
 23 24  1  0
 24 25  1  1
 25 27  1  0
 26 25  2  0
M  END
$$$$
