SKA.pdb
     RDKit          3D

 21 20  0  0  1  0  0  0  0  0999 V2000
    9.6215  -18.7918   17.3913 O   0  0  0  0  0  0  0  0  0  0  0  0
    9.0792  -18.0153   18.4146 C   0  0  0  0  0  0  0  0  0  0  0  0
    7.5896  -18.3344   18.5115 C   0  0  2  0  0  0  0  0  0  0  0  0
    6.8925  -17.7923   17.3686 N   0  0  0  0  0  0  0  0  0  0  0  0
    7.0240  -17.8991   19.7946 C   0  0  0  0  0  0  0  0  0  0  0  0
    6.4032  -16.8195   19.9617 O   0  0  0  0  0  0  0  0  0  0  0  0
    7.1819  -18.7403   20.9204 N   0  0  0  0  0  0  0  0  0  0  0  0
    6.6773  -18.4307   22.2334 C   0  0  1  0  0  0  0  0  0  0  0  0
    6.5471  -19.7267   22.9937 C   0  0  0  0  0  0  0  0  0  0  0  0
    5.2515  -20.4301   22.7838 C   0  0  0  0  0  0  0  0  0  0  0  0
    5.1578  -21.7627   23.4831 C   0  0  0  0  0  0  0  0  0  0  0  0
    3.9435  -22.5395   23.1140 C   0  0  0  0  0  0  0  0  0  0  0  0
    3.8342  -23.8169   23.7675 N   0  0  0  0  0  0  0  0  0  0  0  0
    7.5748  -17.5122   22.9784 C   0  0  0  0  0  0  0  0  0  0  0  0
    8.8034  -17.7685   23.0640 O   0  0  0  0  0  0  0  0  0  0  0  0
    7.2204  -14.1213   24.5994 C   0  0  0  0  0  0  0  0  0  0  0  0
    7.9849  -15.3943   24.2908 C   0  0  2  0  0  0  0  0  0  0  0  0
    7.1248  -16.3259   23.6214 N   0  0  0  0  0  0  0  0  0  0  0  0
    8.6632  -15.9445   25.4613 C   0  0  0  0  0  0  0  0  0  0  0  0
    9.5774  -15.2791   26.0103 O   0  0  0  0  0  0  0  0  0  0  0  0
    8.3547  -17.1783   26.0142 O   0  0  0  0  0  0  0  0  0  0  0  0
  1  2  1  0
  2  3  1  0
  3  4  1  6
  5  3  1  0
  5  7  1  0
  6  5  2  0
  8  7  1  0
  8 14  1  0
  8  9  1  1
 10  9  1  0
 11 10  1  0
 12 11  1  0
 13 12  1  0
 14 15  2  0
 17 16  1  1
 17 19  1  0
 18 14  1  0
 18 17  1  0
 19 21  1  0
 20 19  2  0
M  END
$$$$
