SKA.pdb
     RDKit          3D

 21 20  0  0  1  0  0  0  0  0999 V2000
   11.7592  -18.7205   16.0058 O   0  0  0  0  0  0  0  0  0  0  0  0
   10.6638  -18.3035   16.7610 C   0  0  0  0  0  0  0  0  0  0  0  0
   10.7806  -18.9289   18.1486 C   0  0  2  0  0  0  0  0  0  0  0  0
    9.5711  -19.6502   18.4691 N   0  0  0  0  0  0  0  0  0  0  0  0
   11.1469  -17.9330   19.1634 C   0  0  0  0  0  0  0  0  0  0  0  0
   12.2608  -17.3538   19.2133 O   0  0  0  0  0  0  0  0  0  0  0  0
   10.1933  -17.5966   20.1521 N   0  0  0  0  0  0  0  0  0  0  0  0
   10.4108  -16.6078   21.1765 C   0  0  1  0  0  0  0  0  0  0  0  0
    9.1793  -15.7401   21.2474 C   0  0  0  0  0  0  0  0  0  0  0  0
    9.0592  -14.7588   20.1338 C   0  0  0  0  0  0  0  0  0  0  0  0
    7.7773  -13.9650   20.1528 C   0  0  0  0  0  0  0  0  0  0  0  0
    7.6740  -12.9830   19.0396 C   0  0  0  0  0  0  0  0  0  0  0  0
    6.4294  -12.2618   18.9973 N   0  0  0  0  0  0  0  0  0  0  0  0
   10.6569  -17.2208   22.5062 C   0  0  0  0  0  0  0  0  0  0  0  0
    9.8251  -18.0336   22.9857 O   0  0  0  0  0  0  0  0  0  0  0  0
   13.4862  -17.2774   24.9974 C   0  0  0  0  0  0  0  0  0  0  0  0
   12.0361  -17.4854   24.6048 C   0  0  2  0  0  0  0  0  0  0  0  0
   11.8051  -16.9420   23.2981 N   0  0  0  0  0  0  0  0  0  0  0  0
   11.1012  -17.0104   25.6213 C   0  0  0  0  0  0  0  0  0  0  0  0
   10.4203  -15.9784   25.3949 O   0  0  0  0  0  0  0  0  0  0  0  0
   10.9155  -17.6395   26.8431 O   0  0  0  0  0  0  0  0  0  0  0  0
  1  2  1  0
  2  3  1  0
  3  4  1  1
  5  3  1  0
  5  7  1  0
  6  5  2  0
  8  7  1  0
  8 14  1  0
  8  9  1  1
 10  9  1  0
 11 10  1  0
 12 11  1  0
 13 12  1  0
 14 15  2  0
 17 16  1  1
 17 19  1  0
 18 14  1  0
 18 17  1  0
 19 21  1  0
 20 19  2  0
M  END
$$$$
