SKA.pdb
     RDKit          3D

 21 20  0  0  1  0  0  0  0  0999 V2000
   10.1443  -14.3267   18.8855 O   0  0  0  0  0  0  0  0  0  0  0  0
    9.2681  -15.0610   18.0872 C   0  0  0  0  0  0  0  0  0  0  0  0
    7.8663  -14.4855   18.2710 C   0  0  2  0  0  0  0  0  0  0  0  0
    7.7958  -13.1623   17.6965 N   0  0  0  0  0  0  0  0  0  0  0  0
    7.4414  -14.5301   19.6758 C   0  0  0  0  0  0  0  0  0  0  0  0
    7.4062  -13.5288   20.4340 O   0  0  0  0  0  0  0  0  0  0  0  0
    7.0447  -15.7735   20.2204 N   0  0  0  0  0  0  0  0  0  0  0  0
    6.4430  -15.9276   21.5198 C   0  0  1  0  0  0  0  0  0  0  0  0
    5.8200  -17.2998   21.5786 C   0  0  0  0  0  0  0  0  0  0  0  0
    4.5110  -17.4065   20.8768 C   0  0  0  0  0  0  0  0  0  0  0  0
    3.9377  -18.8010   20.8586 C   0  0  0  0  0  0  0  0  0  0  0  0
    2.6517  -18.9015   20.1169 C   0  0  0  0  0  0  0  0  0  0  0  0
    2.0729  -20.2190   20.1073 N   0  0  0  0  0  0  0  0  0  0  0  0
    7.4331  -15.7903   22.6176 C   0  0  0  0  0  0  0  0  0  0  0  0
    8.5953  -16.2500   22.4750 O   0  0  0  0  0  0  0  0  0  0  0  0
    7.6421  -13.7740   25.7744 C   0  0  0  0  0  0  0  0  0  0  0  0
    8.1208  -14.9002   24.8783 C   0  0  2  0  0  0  0  0  0  0  0  0
    7.1467  -15.1545   23.8573 N   0  0  0  0  0  0  0  0  0  0  0  0
    8.5222  -16.0876   25.6279 C   0  0  0  0  0  0  0  0  0  0  0  0
    7.8138  -17.1238   25.5619 O   0  0  0  0  0  0  0  0  0  0  0  0
    9.6576  -16.1429   26.4222 O   0  0  0  0  0  0  0  0  0  0  0  0
  1  2  1  0
  2  3  1  0
  3  4  1  1
  5  3  1  0
  5  7  1  0
  6  5  2  0
  8  7  1  0
  8 14  1  0
  8  9  1  6
 10  9  1  0
 11 10  1  0
 12 11  1  0
 13 12  1  0
 14 15  2  0
 17 16  1  1
 17 19  1  0
 18 14  1  0
 18 17  1  0
 19 21  1  0
 20 19  2  0
M  END
$$$$
