SKA.pdb
     RDKit          3D

 21 20  0  0  1  0  0  0  0  0999 V2000
    8.7706  -14.1823   19.1147 O   0  0  0  0  0  0  0  0  0  0  0  0
    8.8109  -14.5998   20.4445 C   0  0  0  0  0  0  0  0  0  0  0  0
    7.5126  -15.3439   20.7458 C   0  0  2  0  0  0  0  0  0  0  0  0
    6.4528  -14.8530   19.8963 N   0  0  0  0  0  0  0  0  0  0  0  0
    7.1786  -15.2951   22.1748 C   0  0  0  0  0  0  0  0  0  0  0  0
    6.4707  -14.4017   22.7035 O   0  0  0  0  0  0  0  0  0  0  0  0
    7.6801  -16.3130   23.0189 N   0  0  0  0  0  0  0  0  0  0  0  0
    7.4202  -16.3858   24.4337 C   0  0  1  0  0  0  0  0  0  0  0  0
    7.7055  -17.7973   24.8819 C   0  0  0  0  0  0  0  0  0  0  0  0
    7.5443  -18.0173   26.3458 C   0  0  0  0  0  0  0  0  0  0  0  0
    7.7557  -19.4466   26.7772 C   0  0  0  0  0  0  0  0  0  0  0  0
    7.5736  -19.6555   28.2392 C   0  0  0  0  0  0  0  0  0  0  0  0
    7.5787  -21.0355   28.6472 N   0  0  0  0  0  0  0  0  0  0  0  0
    8.2657  -15.4438   25.2097 C   0  0  0  0  0  0  0  0  0  0  0  0
    9.4987  -15.3666   24.9726 O   0  0  0  0  0  0  0  0  0  0  0  0
    7.7609  -12.5379   27.4937 C   0  0  0  0  0  0  0  0  0  0  0  0
    8.5713  -13.7401   27.0482 C   0  0  2  0  0  0  0  0  0  0  0  0
    7.7594  -14.5971   26.2344 N   0  0  0  0  0  0  0  0  0  0  0  0
    9.2293  -14.4219   28.1595 C   0  0  0  0  0  0  0  0  0  0  0  0
    8.8655  -15.5847   28.4682 O   0  0  0  0  0  0  0  0  0  0  0  0
   10.2492  -13.8547   28.9085 O   0  0  0  0  0  0  0  0  0  0  0  0
  1  2  1  0
  2  3  1  0
  3  4  1  6
  5  3  1  0
  5  7  1  0
  6  5  2  0
  8  7  1  0
  8 14  1  0
  8  9  1  1
 10  9  1  0
 11 10  1  0
 12 11  1  0
 13 12  1  0
 14 15  2  0
 17 16  1  1
 17 19  1  0
 18 14  1  0
 18 17  1  0
 19 21  1  0
 20 19  2  0
M  END
$$$$
