SKA.pdb
     RDKit          3D

 21 20  0  0  1  0  0  0  0  0999 V2000
   14.8821  -14.6745   18.6678 O   0  0  0  0  0  0  0  0  0  0  0  0
   13.7839  -14.6564   19.5268 C   0  0  0  0  0  0  0  0  0  0  0  0
   12.5891  -15.2421   18.7788 C   0  0  2  0  0  0  0  0  0  0  0  0
   12.2121  -14.3712   17.6901 N   0  0  0  0  0  0  0  0  0  0  0  0
   11.4770  -15.5475   19.6876 C   0  0  0  0  0  0  0  0  0  0  0  0
   10.4851  -14.7969   19.8656 O   0  0  0  0  0  0  0  0  0  0  0  0
   11.5140  -16.7605   20.4137 N   0  0  0  0  0  0  0  0  0  0  0  0
   10.4570  -17.2112   21.2820 C   0  0  1  0  0  0  0  0  0  0  0  0
   10.4665  -18.7193   21.2740 C   0  0  0  0  0  0  0  0  0  0  0  0
    9.4041  -19.3410   22.1120 C   0  0  0  0  0  0  0  0  0  0  0  0
    9.3251  -20.8416   21.9869 C   0  0  0  0  0  0  0  0  0  0  0  0
    8.1725  -21.4354   22.7169 C   0  0  0  0  0  0  0  0  0  0  0  0
    8.0604  -22.8644   22.5884 N   0  0  0  0  0  0  0  0  0  0  0  0
   10.6284  -16.7264   22.6747 C   0  0  0  0  0  0  0  0  0  0  0  0
   11.7446  -16.8368   23.2443 O   0  0  0  0  0  0  0  0  0  0  0  0
    8.5692  -14.8331   25.1982 C   0  0  0  0  0  0  0  0  0  0  0  0
    9.6836  -15.7903   24.8212 C   0  0  2  0  0  0  0  0  0  0  0  0
    9.5833  -16.1274   23.4311 N   0  0  0  0  0  0  0  0  0  0  0  0
    9.7613  -16.9463   25.7104 C   0  0  0  0  0  0  0  0  0  0  0  0
    9.2498  -18.0355   25.3474 O   0  0  0  0  0  0  0  0  0  0  0  0
   10.3759  -16.9151   26.9531 O   0  0  0  0  0  0  0  0  0  0  0  0
  1  2  1  0
  2  3  1  0
  3  4  1  6
  5  3  1  0
  5  7  1  0
  6  5  2  0
  8  7  1  0
  8 14  1  0
  8  9  1  1
 10  9  1  0
 11 10  1  0
 12 11  1  0
 13 12  1  0
 14 15  2  0
 17 16  1  1
 17 19  1  0
 18 14  1  0
 18 17  1  0
 19 21  1  0
 20 19  2  0
M  END
$$$$
