SKA.pdb
     RDKit          3D

 21 20  0  0  1  0  0  0  0  0999 V2000
   12.4401  -18.3325   20.0291 O   0  0  0  0  0  0  0  0  0  0  0  0
   11.7099  -18.9473   19.0128 C   0  0  0  0  0  0  0  0  0  0  0  0
   10.7733  -17.9053   18.4069 C   0  0  2  0  0  0  0  0  0  0  0  0
   11.5416  -16.8504   17.7880 N   0  0  0  0  0  0  0  0  0  0  0  0
    9.8010  -17.4126   19.3906 C   0  0  0  0  0  0  0  0  0  0  0  0
    9.7550  -16.2269   19.8039 O   0  0  0  0  0  0  0  0  0  0  0  0
    8.8515  -18.3214   19.9128 N   0  0  0  0  0  0  0  0  0  0  0  0
    7.8702  -17.9761   20.9088 C   0  0  1  0  0  0  0  0  0  0  0  0
    6.8543  -19.0897   20.9593 C   0  0  0  0  0  0  0  0  0  0  0  0
    5.8084  -18.9149   22.0048 C   0  0  0  0  0  0  0  0  0  0  0  0
    4.7855  -20.0223   22.0388 C   0  0  0  0  0  0  0  0  0  0  0  0
    3.7863  -19.8701   23.1309 C   0  0  0  0  0  0  0  0  0  0  0  0
    2.8175  -20.9319   23.2017 N   0  0  0  0  0  0  0  0  0  0  0  0
    8.4727  -17.7996   22.2541 C   0  0  0  0  0  0  0  0  0  0  0  0
    9.3340  -18.6179   22.6678 O   0  0  0  0  0  0  0  0  0  0  0  0
    8.4778  -15.1369   24.9088 C   0  0  0  0  0  0  0  0  0  0  0  0
    8.6736  -16.5693   24.4501 C   0  0  2  0  0  0  0  0  0  0  0  0
    8.1310  -16.7348   23.1332 N   0  0  0  0  0  0  0  0  0  0  0  0
    8.1881  -17.5456   25.4216 C   0  0  0  0  0  0  0  0  0  0  0  0
    7.0670  -18.0848   25.2422 O   0  0  0  0  0  0  0  0  0  0  0  0
    8.9011  -17.9209   26.5503 O   0  0  0  0  0  0  0  0  0  0  0  0
  1  2  1  0
  2  3  1  0
  3  4  1  1
  5  3  1  0
  5  7  1  0
  6  5  2  0
  8  7  1  0
  8 14  1  0
  8  9  1  1
 10  9  1  0
 11 10  1  0
 12 11  1  0
 13 12  1  0
 14 15  2  0
 17 16  1  1
 17 19  1  0
 18 14  1  0
 18 17  1  0
 19 21  1  0
 20 19  2  0
M  END
$$$$
