SKA.pdb
     RDKit          3D

 21 20  0  0  1  0  0  0  0  0999 V2000
   10.4980  -13.3563   19.2003 O   0  0  0  0  0  0  0  0  0  0  0  0
    9.7777  -14.2164   18.3722 C   0  0  0  0  0  0  0  0  0  0  0  0
    8.2944  -13.8918   18.5295 C   0  0  2  0  0  0  0  0  0  0  0  0
    8.0552  -12.5043   18.2079 N   0  0  0  0  0  0  0  0  0  0  0  0
    7.7933  -14.2734   19.8558 C   0  0  0  0  0  0  0  0  0  0  0  0
    7.4333  -13.4529   20.7366 O   0  0  0  0  0  0  0  0  0  0  0  0
    7.7060  -15.6489   20.1727 N   0  0  0  0  0  0  0  0  0  0  0  0
    7.0884  -16.1615   21.3687 C   0  0  1  0  0  0  0  0  0  0  0  0
    6.9776  -17.6586   21.2239 C   0  0  0  0  0  0  0  0  0  0  0  0
    6.4457  -18.3508   22.4303 C   0  0  0  0  0  0  0  0  0  0  0  0
    6.2334  -19.8319   22.2427 C   0  0  0  0  0  0  0  0  0  0  0  0
    5.5804  -20.4873   23.4081 C   0  0  0  0  0  0  0  0  0  0  0  0
    5.2999  -21.8865   23.2224 N   0  0  0  0  0  0  0  0  0  0  0  0
    7.8736  -15.8428   22.5877 C   0  0  0  0  0  0  0  0  0  0  0  0
    9.1234  -15.9863   22.5840 O   0  0  0  0  0  0  0  0  0  0  0  0
    7.2817  -13.9667   25.7588 C   0  0  0  0  0  0  0  0  0  0  0  0
    8.0348  -15.0206   24.9698 C   0  0  2  0  0  0  0  0  0  0  0  0
    7.2896  -15.3718   23.7962 N   0  0  0  0  0  0  0  0  0  0  0  0
    8.4315  -16.1635   25.7879 C   0  0  0  0  0  0  0  0  0  0  0  0
    7.8320  -17.2589   25.6441 O   0  0  0  0  0  0  0  0  0  0  0  0
    9.4473  -16.1134   26.7305 O   0  0  0  0  0  0  0  0  0  0  0  0
  1  2  1  0
  2  3  1  0
  3  4  1  1
  5  3  1  0
  5  7  1  0
  6  5  2  0
  8  7  1  0
  8 14  1  0
  8  9  1  6
 10  9  1  0
 11 10  1  0
 12 11  1  0
 13 12  1  0
 14 15  2  0
 17 16  1  1
 17 19  1  0
 18 14  1  0
 18 17  1  0
 19 21  1  0
 20 19  2  0
M  END
$$$$
