SKA.pdb
     RDKit          3D

 21 20  0  0  1  0  0  0  0  0999 V2000
   10.5441  -13.3852   18.7978 O   0  0  0  0  0  0  0  0  0  0  0  0
    9.8108  -14.2273   17.9627 C   0  0  0  0  0  0  0  0  0  0  0  0
    8.3365  -13.8530   18.0907 C   0  0  2  0  0  0  0  0  0  0  0  0
    8.1316  -12.4930   17.6500 N   0  0  0  0  0  0  0  0  0  0  0  0
    7.8284  -14.1055   19.4449 C   0  0  0  0  0  0  0  0  0  0  0  0
    7.6904  -13.2177   20.3233 O   0  0  0  0  0  0  0  0  0  0  0  0
    7.4684  -15.4279   19.7937 N   0  0  0  0  0  0  0  0  0  0  0  0
    7.0390  -15.8245   21.1100 C   0  0  1  0  0  0  0  0  0  0  0  0
    6.4261  -17.1981   20.9997 C   0  0  0  0  0  0  0  0  0  0  0  0
    7.3863  -18.2648   20.6027 C   0  0  0  0  0  0  0  0  0  0  0  0
    6.7684  -19.6362   20.4962 C   0  0  0  0  0  0  0  0  0  0  0  0
    7.7421  -20.6949   20.1152 C   0  0  0  0  0  0  0  0  0  0  0  0
    7.1799  -22.0170   20.0325 N   0  0  0  0  0  0  0  0  0  0  0  0
    8.1627  -15.8644   22.0796 C   0  0  0  0  0  0  0  0  0  0  0  0
    9.3343  -16.0759   21.6733 O   0  0  0  0  0  0  0  0  0  0  0  0
    8.7844  -14.5534   25.4676 C   0  0  0  0  0  0  0  0  0  0  0  0
    9.0799  -15.6077   24.4181 C   0  0  2  0  0  0  0  0  0  0  0  0
    7.9980  -15.6738   23.4795 N   0  0  0  0  0  0  0  0  0  0  0  0
    9.4445  -16.8972   24.9989 C   0  0  0  0  0  0  0  0  0  0  0  0
    8.6859  -17.8845   24.8267 O   0  0  0  0  0  0  0  0  0  0  0  0
   10.5971  -17.1027   25.7421 O   0  0  0  0  0  0  0  0  0  0  0  0
  1  2  1  0
  2  3  1  0
  3  4  1  1
  5  3  1  0
  5  7  1  0
  6  5  2  0
  8  7  1  0
  8 14  1  0
  8  9  1  6
 10  9  1  0
 11 10  1  0
 12 11  1  0
 13 12  1  0
 14 15  2  0
 17 16  1  1
 17 19  1  0
 18 14  1  0
 18 17  1  0
 19 21  1  0
 20 19  2  0
M  END
$$$$
