SKA.pdb
     RDKit          3D

 21 20  0  0  1  0  0  0  0  0999 V2000
    9.4588  -17.9899   19.1741 O   0  0  0  0  0  0  0  0  0  0  0  0
    8.7125  -19.1672   19.2075 C   0  0  0  0  0  0  0  0  0  0  0  0
    7.2372  -18.7890   19.3103 C   0  0  2  0  0  0  0  0  0  0  0  0
    6.9013  -17.8263   18.2874 N   0  0  0  0  0  0  0  0  0  0  0  0
    6.8848  -18.3422   20.6639 C   0  0  0  0  0  0  0  0  0  0  0  0
    6.5119  -17.1762   20.9469 O   0  0  0  0  0  0  0  0  0  0  0  0
    6.9667  -19.2749   21.7237 N   0  0  0  0  0  0  0  0  0  0  0  0
    6.6966  -18.9533   23.1014 C   0  0  1  0  0  0  0  0  0  0  0  0
    6.5161  -20.2501   23.8498 C   0  0  0  0  0  0  0  0  0  0  0  0
    6.3575  -20.0886   25.3217 C   0  0  0  0  0  0  0  0  0  0  0  0
    6.1998  -21.3898   26.0671 C   0  0  0  0  0  0  0  0  0  0  0  0
    6.0182  -21.2124   27.5333 C   0  0  0  0  0  0  0  0  0  0  0  0
    5.9933  -22.4413   28.2817 N   0  0  0  0  0  0  0  0  0  0  0  0
    7.7981  -18.1764   23.7237 C   0  0  0  0  0  0  0  0  0  0  0  0
    8.9909  -18.5444   23.5679 O   0  0  0  0  0  0  0  0  0  0  0  0
    8.1135  -14.7549   25.1956 C   0  0  0  0  0  0  0  0  0  0  0  0
    8.6397  -16.1631   24.9943 C   0  0  2  0  0  0  0  0  0  0  0  0
    7.5886  -17.0083   24.5079 N   0  0  0  0  0  0  0  0  0  0  0  0
    9.3259  -16.6843   26.1735 C   0  0  0  0  0  0  0  0  0  0  0  0
    8.7954  -17.6149   26.8312 O   0  0  0  0  0  0  0  0  0  0  0  0
   10.5489  -16.2069   26.6200 O   0  0  0  0  0  0  0  0  0  0  0  0
  1  2  1  0
  2  3  1  0
  3  4  1  6
  5  3  1  0
  5  7  1  0
  6  5  2  0
  8  7  1  0
  8 14  1  0
  8  9  1  1
 10  9  1  0
 11 10  1  0
 12 11  1  0
 13 12  1  0
 14 15  2  0
 17 16  1  1
 17 19  1  0
 18 14  1  0
 18 17  1  0
 19 21  1  0
 20 19  2  0
M  END
$$$$
