SKA.pdb
     RDKit          3D

 21 20  0  0  1  0  0  0  0  0999 V2000
   10.9185  -13.8897   17.6576 O   0  0  0  0  0  0  0  0  0  0  0  0
   10.2196  -13.7110   18.8509 C   0  0  0  0  0  0  0  0  0  0  0  0
    8.7450  -14.0005   18.5829 C   0  0  2  0  0  0  0  0  0  0  0  0
    8.1534  -12.9098   17.8439 N   0  0  0  0  0  0  0  0  0  0  0  0
    8.0217  -14.3214   19.8198 C   0  0  0  0  0  0  0  0  0  0  0  0
    7.4605  -13.4670   20.5505 O   0  0  0  0  0  0  0  0  0  0  0  0
    7.9456  -15.6745   20.2240 N   0  0  0  0  0  0  0  0  0  0  0  0
    7.2070  -16.1307   21.3732 C   0  0  1  0  0  0  0  0  0  0  0  0
    6.9405  -17.6042   21.1937 C   0  0  0  0  0  0  0  0  0  0  0  0
    6.2560  -18.2461   22.3499 C   0  0  0  0  0  0  0  0  0  0  0  0
    5.9831  -19.7170   22.1604 C   0  0  0  0  0  0  0  0  0  0  0  0
    5.1678  -20.3121   23.2537 C   0  0  0  0  0  0  0  0  0  0  0  0
    4.7569  -21.6707   23.0162 N   0  0  0  0  0  0  0  0  0  0  0  0
    7.9505  -15.9169   22.6404 C   0  0  0  0  0  0  0  0  0  0  0  0
    9.1497  -16.2854   22.7337 O   0  0  0  0  0  0  0  0  0  0  0  0
    7.3098  -14.1521   25.9104 C   0  0  0  0  0  0  0  0  0  0  0  0
    8.0648  -15.1381   25.0396 C   0  0  2  0  0  0  0  0  0  0  0  0
    7.3804  -15.3047   23.7908 N   0  0  0  0  0  0  0  0  0  0  0  0
    8.3598  -16.3912   25.7293 C   0  0  0  0  0  0  0  0  0  0  0  0
    9.0909  -16.3720   26.7516 O   0  0  0  0  0  0  0  0  0  0  0  0
    7.8738  -17.6232   25.3181 O   0  0  0  0  0  0  0  0  0  0  0  0
  1  2  1  0
  2  3  1  0
  3  4  1  1
  5  3  1  0
  5  7  1  0
  6  5  2  0
  8  7  1  0
  8 14  1  0
  8  9  1  6
 10  9  1  0
 11 10  1  0
 12 11  1  0
 13 12  1  0
 14 15  2  0
 17 16  1  1
 17 19  1  0
 18 14  1  0
 18 17  1  0
 19 21  1  0
 20 19  2  0
M  END
$$$$
