SKA.pdb
     RDKit          3D

 21 20  0  0  1  0  0  0  0  0999 V2000
   10.6116  -12.7508   19.8089 O   0  0  0  0  0  0  0  0  0  0  0  0
   10.2029  -14.0474   20.1188 C   0  0  0  0  0  0  0  0  0  0  0  0
    8.6970  -14.1369   19.8854 C   0  0  2  0  0  0  0  0  0  0  0  0
    8.2594  -13.0393   19.0550 N   0  0  0  0  0  0  0  0  0  0  0  0
    7.9572  -14.2371   21.1498 C   0  0  0  0  0  0  0  0  0  0  0  0
    7.1471  -13.3703   21.5634 O   0  0  0  0  0  0  0  0  0  0  0  0
    8.1615  -15.3771   21.9613 N   0  0  0  0  0  0  0  0  0  0  0  0
    7.4945  -15.6002   23.2182 C   0  0  1  0  0  0  0  0  0  0  0  0
    7.6099  -17.0677   23.5462 C   0  0  0  0  0  0  0  0  0  0  0  0
    6.8492  -17.9601   22.6283 C   0  0  0  0  0  0  0  0  0  0  0  0
    6.9340  -19.4224   22.9863 C   0  0  0  0  0  0  0  0  0  0  0  0
    6.1813  -20.3037   22.0529 C   0  0  0  0  0  0  0  0  0  0  0  0
    6.3216  -21.7105   22.3212 N   0  0  0  0  0  0  0  0  0  0  0  0
    8.0896  -14.8024   24.3198 C   0  0  0  0  0  0  0  0  0  0  0  0
    9.3396  -14.7498   24.4516 O   0  0  0  0  0  0  0  0  0  0  0  0
    6.8192  -12.3713   26.9041 C   0  0  0  0  0  0  0  0  0  0  0  0
    7.8736  -13.3053   26.3417 C   0  0  2  0  0  0  0  0  0  0  0  0
    7.3176  -14.0714   25.2647 N   0  0  0  0  0  0  0  0  0  0  0  0
    8.5234  -14.1107   27.3723 C   0  0  0  0  0  0  0  0  0  0  0  0
    8.3036  -15.3475   27.4143 O   0  0  0  0  0  0  0  0  0  0  0  0
    9.3835  -13.5849   28.3246 O   0  0  0  0  0  0  0  0  0  0  0  0
  1  2  1  0
  2  3  1  0
  3  4  1  1
  5  3  1  0
  5  7  1  0
  6  5  2  0
  8  7  1  0
  8 14  1  0
  8  9  1  1
 10  9  1  0
 11 10  1  0
 12 11  1  0
 13 12  1  0
 14 15  2  0
 17 16  1  1
 17 19  1  0
 18 14  1  0
 18 17  1  0
 19 21  1  0
 20 19  2  0
M  END
$$$$
