TQM.pdb
     RDKit          3D

 25 24  0  0  1  0  0  0  0  0999 V2000
    8.8622  -12.1721   18.7892 C   0  0  0  0  0  0  0  0  0  0  0  0
    8.8573  -12.9975   20.0641 C   0  0  1  0  0  0  0  0  0  0  0  0
    8.0363  -12.3491   20.9804 O   0  0  0  0  0  0  0  0  0  0  0  0
    8.3649  -14.3653   19.7143 C   0  0  2  0  0  0  0  0  0  0  0  0
    7.0715  -14.3936   19.0893 N   0  0  0  0  0  0  0  0  0  0  0  0
    8.3892  -15.2921   20.8956 C   0  0  0  0  0  0  0  0  0  0  0  0
    7.3464  -15.5287   21.5576 O   0  0  0  0  0  0  0  0  0  0  0  0
   12.9101  -19.5767   21.7811 N   0  0  0  0  0  0  0  0  0  0  0  0
   12.1273  -19.7207   22.9511 C   0  0  0  0  0  0  0  0  0  0  0  0
   12.4492  -20.5924   23.7829 O   0  0  0  0  0  0  0  0  0  0  0  0
   10.9592  -18.8652   23.1861 C   0  0  0  0  0  0  0  0  0  0  0  0
   10.6996  -17.8449   22.1327 C   0  0  0  0  0  0  0  0  0  0  0  0
    9.5708  -16.9049   22.4004 C   0  0  2  0  0  0  0  0  0  0  0  0
    9.5833  -15.9301   21.3048 N   0  0  0  0  0  0  0  0  0  0  0  0
    9.7409  -16.1294   23.6708 C   0  0  0  0  0  0  0  0  0  0  0  0
   10.6976  -15.3130   23.7306 O   0  0  0  0  0  0  0  0  0  0  0  0
    6.3274  -10.9223   26.2729 C   0  0  0  0  0  0  0  0  0  0  0  0
    6.3499  -12.6737   26.7249 S   0  0  0  0  0  0  0  0  0  0  0  0
    7.8598  -13.4673   26.0621 C   0  0  0  0  0  0  0  0  0  0  0  0
    7.9558  -14.8923   26.5242 C   0  0  0  0  0  0  0  0  0  0  0  0
    9.1882  -15.5477   26.0051 C   0  0  2  0  0  0  0  0  0  0  0  0
    8.8636  -16.3011   24.7690 N   0  0  0  0  0  0  0  0  0  0  0  0
    9.7200  -16.5309   26.9664 C   0  0  0  0  0  0  0  0  0  0  0  0
    9.6669  -17.7611   26.7631 O   0  0  0  0  0  0  0  0  0  0  0  0
   10.3107  -16.0726   28.1598 O   0  0  0  0  0  0  0  0  0  0  0  0
  2  1  1  6
  3  2  1  0
  4  5  1  1
  4  6  1  0
  4  2  1  0
  6 14  1  0
  7  6  2  0
  9  8  1  0
 10  9  2  0
 11  9  1  0
 12 11  1  0
 13 12  1  6
 14 13  1  0
 15 22  1  0
 15 13  1  0
 16 15  2  0
 18 17  1  0
 18 19  1  0
 19 20  1  0
 21 20  1  1
 21 22  1  0
 21 23  1  0
 23 25  1  0
 24 23  2  0
M  END
$$$$
