TQM.pdb
     RDKit          3D

 25 24  0  0  1  0  0  0  0  0999 V2000
    9.2840  -12.6450   20.3919 C   0  0  0  0  0  0  0  0  0  0  0  0
    8.0399  -13.0685   19.6306 C   0  0  1  0  0  0  0  0  0  0  0  0
    8.0052  -12.3407   18.4458 O   0  0  0  0  0  0  0  0  0  0  0  0
    8.1318  -14.5429   19.4000 C   0  0  2  0  0  0  0  0  0  0  0  0
    7.1009  -15.0819   18.5567 N   0  0  0  0  0  0  0  0  0  0  0  0
    8.2010  -15.3114   20.6883 C   0  0  0  0  0  0  0  0  0  0  0  0
    7.1574  -15.6130   21.3220 O   0  0  0  0  0  0  0  0  0  0  0  0
   12.6368  -19.4980   21.6321 N   0  0  0  0  0  0  0  0  0  0  0  0
   11.9650  -19.5320   22.8771 C   0  0  0  0  0  0  0  0  0  0  0  0
   12.2891  -20.4036   23.7082 O   0  0  0  0  0  0  0  0  0  0  0  0
   10.9076  -18.5645   23.1894 C   0  0  0  0  0  0  0  0  0  0  0  0
   10.6339  -17.5602   22.1243 C   0  0  0  0  0  0  0  0  0  0  0  0
    9.4842  -16.6412   22.3755 C   0  0  2  0  0  0  0  0  0  0  0  0
    9.4397  -15.7221   21.2337 N   0  0  0  0  0  0  0  0  0  0  0  0
    9.6627  -15.7988   23.6015 C   0  0  0  0  0  0  0  0  0  0  0  0
   10.5810  -14.9374   23.5871 O   0  0  0  0  0  0  0  0  0  0  0  0
    5.8092  -10.9072   25.1644 C   0  0  0  0  0  0  0  0  0  0  0  0
    6.1137  -12.3954   26.1464 S   0  0  0  0  0  0  0  0  0  0  0  0
    7.6282  -13.2332   25.5522 C   0  0  0  0  0  0  0  0  0  0  0  0
    7.9375  -14.4328   26.4000 C   0  0  0  0  0  0  0  0  0  0  0  0
    9.1648  -15.1295   25.9247 C   0  0  2  0  0  0  0  0  0  0  0  0
    8.8346  -15.9579   24.7391 N   0  0  0  0  0  0  0  0  0  0  0  0
    9.6889  -16.0533   26.9472 C   0  0  0  0  0  0  0  0  0  0  0  0
   10.1017  -15.6582   28.0567 O   0  0  0  0  0  0  0  0  0  0  0  0
    9.7283  -17.4332   26.6688 O   0  0  0  0  0  0  0  0  0  0  0  0
  2  1  1  1
  3  2  1  0
  4  5  1  1
  4  6  1  0
  4  2  1  0
  6 14  1  0
  7  6  2  0
  9  8  1  0
 10  9  2  0
 11  9  1  0
 12 11  1  0
 13 12  1  6
 14 13  1  0
 15 22  1  0
 15 13  1  0
 16 15  2  0
 18 17  1  0
 18 19  1  0
 19 20  1  0
 21 20  1  1
 21 22  1  0
 21 23  1  0
 23 25  1  0
 24 23  2  0
M  END
$$$$
