TQM.pdb
     RDKit          3D

 25 24  0  0  1  0  0  0  0  0999 V2000
    8.0361  -12.4638   19.3104 C   0  0  0  0  0  0  0  0  0  0  0  0
    9.0528  -13.3026   18.5557 C   0  0  1  0  0  0  0  0  0  0  0  0
   10.2176  -13.3335   19.3150 O   0  0  0  0  0  0  0  0  0  0  0  0
    8.4582  -14.6597   18.3548 C   0  0  2  0  0  0  0  0  0  0  0  0
    7.2768  -14.6801   17.5373 N   0  0  0  0  0  0  0  0  0  0  0  0
    8.1979  -15.3593   19.6579 C   0  0  0  0  0  0  0  0  0  0  0  0
    7.1043  -15.2202   20.2631 O   0  0  0  0  0  0  0  0  0  0  0  0
   11.5785  -20.3024   21.6481 N   0  0  0  0  0  0  0  0  0  0  0  0
   10.7741  -20.0143   22.7761 C   0  0  0  0  0  0  0  0  0  0  0  0
   10.9004  -20.7194   23.7969 O   0  0  0  0  0  0  0  0  0  0  0  0
    9.8089  -18.9100   22.7508 C   0  0  0  0  0  0  0  0  0  0  0  0
    9.7945  -18.1105   21.4944 C   0  0  0  0  0  0  0  0  0  0  0  0
    8.8713  -16.9371   21.4796 C   0  0  2  0  0  0  0  0  0  0  0  0
    9.1716  -16.1973   20.2495 N   0  0  0  0  0  0  0  0  0  0  0  0
    9.1034  -15.9927   22.6192 C   0  0  0  0  0  0  0  0  0  0  0  0
   10.0763  -15.1987   22.5281 O   0  0  0  0  0  0  0  0  0  0  0  0
    6.1183  -10.5464   26.7881 C   0  0  0  0  0  0  0  0  0  0  0  0
    5.7906  -12.2756   26.3708 S   0  0  0  0  0  0  0  0  0  0  0  0
    7.3691  -13.1557   26.0835 C   0  0  0  0  0  0  0  0  0  0  0  0
    7.2094  -14.1938   25.0110 C   0  0  0  0  0  0  0  0  0  0  0  0
    8.4928  -14.9017   24.7476 C   0  0  2  0  0  0  0  0  0  0  0  0
    8.2653  -15.9857   23.7607 N   0  0  0  0  0  0  0  0  0  0  0  0
    9.0102  -15.5487   25.9672 C   0  0  0  0  0  0  0  0  0  0  0  0
    8.9620  -16.7835   26.1409 O   0  0  0  0  0  0  0  0  0  0  0  0
    9.5809  -14.7504   26.9773 O   0  0  0  0  0  0  0  0  0  0  0  0
  2  1  1  1
  3  2  1  0
  4  5  1  1
  4  6  1  0
  4  2  1  0
  6 14  1  0
  7  6  2  0
  9  8  1  0
 10  9  2  0
 11  9  1  0
 12 11  1  0
 13 12  1  1
 14 13  1  0
 15 22  1  0
 15 13  1  0
 16 15  2  0
 18 17  1  0
 18 19  1  0
 19 20  1  0
 21 20  1  1
 21 22  1  0
 21 23  1  0
 23 25  1  0
 24 23  2  0
M  END
$$$$
