TQM.pdb
     RDKit          3D

 25 24  0  0  1  0  0  0  0  0999 V2000
    7.5420  -12.1844   18.0972 C   0  0  0  0  0  0  0  0  0  0  0  0
    7.4918  -13.4902   18.8713 C   0  0  1  0  0  0  0  0  0  0  0  0
    7.7252  -14.5222   17.9686 O   0  0  0  0  0  0  0  0  0  0  0  0
    8.5285  -13.4178   19.9462 C   0  0  2  0  0  0  0  0  0  0  0  0
    9.8732  -13.2468   19.4698 N   0  0  0  0  0  0  0  0  0  0  0  0
    8.4555  -14.5921   20.8794 C   0  0  0  0  0  0  0  0  0  0  0  0
    7.4264  -14.8121   21.5680 O   0  0  0  0  0  0  0  0  0  0  0  0
   10.7404  -20.2230   20.6819 N   0  0  0  0  0  0  0  0  0  0  0  0
   10.9220  -19.9776   22.0636 C   0  0  0  0  0  0  0  0  0  0  0  0
   11.1462  -20.9446   22.8186 O   0  0  0  0  0  0  0  0  0  0  0  0
   10.8488  -18.6155   22.6029 C   0  0  0  0  0  0  0  0  0  0  0  0
   10.5314  -17.5560   21.6056 C   0  0  0  0  0  0  0  0  0  0  0  0
    9.5003  -16.5589   22.0204 C   0  0  2  0  0  0  0  0  0  0  0  0
    9.5394  -15.4902   21.0168 N   0  0  0  0  0  0  0  0  0  0  0  0
    9.7986  -15.9209   23.3427 C   0  0  0  0  0  0  0  0  0  0  0  0
   10.8495  -15.2333   23.4332 O   0  0  0  0  0  0  0  0  0  0  0  0
    5.7866  -12.4736   27.0032 C   0  0  0  0  0  0  0  0  0  0  0  0
    7.5046  -12.1076   27.4349 S   0  0  0  0  0  0  0  0  0  0  0  0
    8.5209  -13.6213   27.2784 C   0  0  0  0  0  0  0  0  0  0  0  0
    8.2954  -14.2755   25.9463 C   0  0  0  0  0  0  0  0  0  0  0  0
    9.3015  -15.3432   25.6905 C   0  0  2  0  0  0  0  0  0  0  0  0
    8.9369  -16.0795   24.4552 N   0  0  0  0  0  0  0  0  0  0  0  0
    9.3197  -16.3370   26.7794 C   0  0  0  0  0  0  0  0  0  0  0  0
    8.8779  -17.4952   26.6352 O   0  0  0  0  0  0  0  0  0  0  0  0
    9.8537  -15.9731   28.0307 O   0  0  0  0  0  0  0  0  0  0  0  0
  2  1  1  6
  3  2  1  0
  4  5  1  6
  4  6  1  0
  4  2  1  0
  6 14  1  0
  7  6  2  0
  9  8  1  0
 10  9  2  0
 11  9  1  0
 12 11  1  0
 13 12  1  6
 14 13  1  0
 15 22  1  0
 15 13  1  0
 16 15  2  0
 18 17  1  0
 18 19  1  0
 19 20  1  0
 21 20  1  1
 21 22  1  0
 21 23  1  0
 23 25  1  0
 24 23  2  0
M  END
$$$$
