TQM.pdb
     RDKit          3D

 25 24  0  0  1  0  0  0  0  0999 V2000
    9.0537  -12.5793   19.6758 C   0  0  0  0  0  0  0  0  0  0  0  0
    8.1095  -13.2281   18.6787 C   0  0  1  0  0  0  0  0  0  0  0  0
    8.1001  -12.4376   17.5344 O   0  0  0  0  0  0  0  0  0  0  0  0
    8.6091  -14.6133   18.4194 C   0  0  2  0  0  0  0  0  0  0  0  0
    7.9868  -15.2750   17.3062 N   0  0  0  0  0  0  0  0  0  0  0  0
    8.5324  -15.4785   19.6445 C   0  0  0  0  0  0  0  0  0  0  0  0
    7.4261  -15.8759   20.0912 O   0  0  0  0  0  0  0  0  0  0  0  0
   13.0363  -19.3667   21.3231 N   0  0  0  0  0  0  0  0  0  0  0  0
   11.9934  -19.5333   20.3814 C   0  0  0  0  0  0  0  0  0  0  0  0
   12.1037  -20.4268   19.5183 O   0  0  0  0  0  0  0  0  0  0  0  0
   10.8042  -18.6751   20.4143 C   0  0  0  0  0  0  0  0  0  0  0  0
   10.8071  -17.6301   21.4753 C   0  0  0  0  0  0  0  0  0  0  0  0
    9.6076  -16.7418   21.5179 C   0  0  2  0  0  0  0  0  0  0  0  0
    9.6993  -15.8757   20.3380 N   0  0  0  0  0  0  0  0  0  0  0  0
    9.5862  -15.8407   22.7146 C   0  0  0  0  0  0  0  0  0  0  0  0
   10.3876  -14.8697   22.7263 O   0  0  0  0  0  0  0  0  0  0  0  0
    6.4898  -10.9778   27.5366 C   0  0  0  0  0  0  0  0  0  0  0  0
    6.3027  -12.1705   26.1895 S   0  0  0  0  0  0  0  0  0  0  0  0
    7.6659  -13.3901   26.2454 C   0  0  0  0  0  0  0  0  0  0  0  0
    7.5932  -14.3202   25.0694 C   0  0  0  0  0  0  0  0  0  0  0  0
    8.8248  -15.1500   24.9587 C   0  0  2  0  0  0  0  0  0  0  0  0
    8.7013  -16.0647   23.7972 N   0  0  0  0  0  0  0  0  0  0  0  0
    9.0060  -16.0046   26.1463 C   0  0  0  0  0  0  0  0  0  0  0  0
    8.8106  -17.2369   26.1195 O   0  0  0  0  0  0  0  0  0  0  0  0
    9.4144  -15.4158   27.3588 O   0  0  0  0  0  0  0  0  0  0  0  0
  2  1  1  1
  3  2  1  0
  4  5  1  6
  4  6  1  0
  4  2  1  0
  6 14  1  0
  7  6  2  0
  9  8  1  0
 10  9  2  0
 11  9  1  0
 12 11  1  0
 13 12  1  1
 14 13  1  0
 15 22  1  0
 15 13  1  0
 16 15  2  0
 18 17  1  0
 18 19  1  0
 19 20  1  0
 21 20  1  1
 21 22  1  0
 21 23  1  0
 23 25  1  0
 24 23  2  0
M  END
$$$$
