TQM.pdb
     RDKit          3D

 25 24  0  0  1  0  0  0  0  0999 V2000
    9.3654  -12.4045   20.2622 C   0  0  0  0  0  0  0  0  0  0  0  0
    8.2737  -12.7245   19.2559 C   0  0  1  0  0  0  0  0  0  0  0  0
    8.3980  -11.8256   18.2020 O   0  0  0  0  0  0  0  0  0  0  0  0
    8.4571  -14.1453   18.8277 C   0  0  2  0  0  0  0  0  0  0  0  0
    7.5895  -14.5656   17.7623 N   0  0  0  0  0  0  0  0  0  0  0  0
    8.3575  -15.0994   19.9831 C   0  0  0  0  0  0  0  0  0  0  0  0
    7.2419  -15.5158   20.3877 O   0  0  0  0  0  0  0  0  0  0  0  0
   12.7019  -19.3269   21.1884 N   0  0  0  0  0  0  0  0  0  0  0  0
   11.7760  -19.5597   22.2328 C   0  0  0  0  0  0  0  0  0  0  0  0
   11.9392  -20.5550   22.9663 O   0  0  0  0  0  0  0  0  0  0  0  0
   10.6448  -18.6522   22.4530 C   0  0  0  0  0  0  0  0  0  0  0  0
   10.5315  -17.5333   21.4767 C   0  0  0  0  0  0  0  0  0  0  0  0
    9.4062  -16.5793   21.7069 C   0  0  2  0  0  0  0  0  0  0  0  0
    9.5123  -15.5621   20.6558 N   0  0  0  0  0  0  0  0  0  0  0  0
    9.5055  -15.8590   23.0168 C   0  0  0  0  0  0  0  0  0  0  0  0
   10.4217  -15.0047   23.1431 O   0  0  0  0  0  0  0  0  0  0  0  0
    6.1015  -10.6671   25.8028 C   0  0  0  0  0  0  0  0  0  0  0  0
    6.0227  -12.4541   26.0714 S   0  0  0  0  0  0  0  0  0  0  0  0
    7.5770  -13.2369   25.5056 C   0  0  0  0  0  0  0  0  0  0  0  0
    7.5433  -14.7179   25.7482 C   0  0  0  0  0  0  0  0  0  0  0  0
    8.8205  -15.3631   25.3358 C   0  0  2  0  0  0  0  0  0  0  0  0
    8.6070  -16.1222   24.0792 N   0  0  0  0  0  0  0  0  0  0  0  0
    9.2790  -16.3392   26.3411 C   0  0  0  0  0  0  0  0  0  0  0  0
    9.2193  -17.5714   26.1525 O   0  0  0  0  0  0  0  0  0  0  0  0
    9.8046  -15.8714   27.5610 O   0  0  0  0  0  0  0  0  0  0  0  0
  2  1  1  1
  3  2  1  0
  4  5  1  6
  4  6  1  0
  4  2  1  0
  6 14  1  0
  7  6  2  0
  9  8  1  0
 10  9  2  0
 11  9  1  0
 12 11  1  0
 13 12  1  6
 14 13  1  0
 15 22  1  0
 15 13  1  0
 16 15  2  0
 18 17  1  0
 18 19  1  0
 19 20  1  0
 21 20  1  1
 21 22  1  0
 21 23  1  0
 23 25  1  0
 24 23  2  0
M  END
$$$$
