TQM.pdb
     RDKit          3D

 25 24  0  0  1  0  0  0  0  0999 V2000
    8.9353  -12.4202   20.3477 C   0  0  0  0  0  0  0  0  0  0  0  0
    8.1474  -12.9226   19.1504 C   0  0  1  0  0  0  0  0  0  0  0  0
    8.4133  -12.0690   18.0851 O   0  0  0  0  0  0  0  0  0  0  0  0
    8.5785  -14.3294   18.8846 C   0  0  2  0  0  0  0  0  0  0  0  0
    8.0794  -14.8862   17.6576 N   0  0  0  0  0  0  0  0  0  0  0  0
    8.2616  -15.2426   20.0339 C   0  0  0  0  0  0  0  0  0  0  0  0
    7.1258  -15.7697   20.1511 O   0  0  0  0  0  0  0  0  0  0  0  0
   11.3894  -19.9616   21.0472 N   0  0  0  0  0  0  0  0  0  0  0  0
   11.9802  -18.8840   21.7487 C   0  0  0  0  0  0  0  0  0  0  0  0
   13.1862  -18.9604   22.0573 O   0  0  0  0  0  0  0  0  0  0  0  0
   11.1950  -17.6985   22.1088 C   0  0  0  0  0  0  0  0  0  0  0  0
    9.7617  -17.7424   21.7067 C   0  0  0  0  0  0  0  0  0  0  0  0
    8.9490  -16.5407   22.0597 C   0  0  2  0  0  0  0  0  0  0  0  0
    9.2272  -15.5412   21.0232 N   0  0  0  0  0  0  0  0  0  0  0  0
    9.3447  -15.9277   23.3682 C   0  0  0  0  0  0  0  0  0  0  0  0
   10.4015  -15.2437   23.3945 O   0  0  0  0  0  0  0  0  0  0  0  0
    6.1638  -10.9211   25.8023 C   0  0  0  0  0  0  0  0  0  0  0  0
    6.2339  -12.6481   26.3356 S   0  0  0  0  0  0  0  0  0  0  0  0
    7.8911  -13.3404   25.9842 C   0  0  0  0  0  0  0  0  0  0  0  0
    7.9875  -14.7572   26.4707 C   0  0  0  0  0  0  0  0  0  0  0  0
    9.0859  -15.4917   25.7840 C   0  0  2  0  0  0  0  0  0  0  0  0
    8.5657  -16.1053   24.5374 N   0  0  0  0  0  0  0  0  0  0  0  0
    9.5938  -16.5990   26.6145 C   0  0  0  0  0  0  0  0  0  0  0  0
    9.4357  -17.7966   26.3014 O   0  0  0  0  0  0  0  0  0  0  0  0
   10.2833  -16.3019   27.8060 O   0  0  0  0  0  0  0  0  0  0  0  0
  2  1  1  1
  3  2  1  0
  4  5  1  6
  4  6  1  0
  4  2  1  0
  6 14  1  0
  7  6  2  0
  9  8  1  0
 10  9  2  0
 11  9  1  0
 12 11  1  0
 13 12  1  6
 14 13  1  0
 15 22  1  0
 15 13  1  0
 16 15  2  0
 18 17  1  0
 18 19  1  0
 19 20  1  0
 21 20  1  1
 21 22  1  0
 21 23  1  0
 23 25  1  0
 24 23  2  0
M  END
$$$$
