TQM.pdb
     RDKit          3D

 25 24  0  0  1  0  0  0  0  0999 V2000
    9.3020  -12.5626   17.8118 C   0  0  0  0  0  0  0  0  0  0  0  0
    9.0710  -13.2932   19.1232 C   0  0  1  0  0  0  0  0  0  0  0  0
    8.4187  -12.4158   19.9828 O   0  0  0  0  0  0  0  0  0  0  0  0
    8.2632  -14.5150   18.8230 C   0  0  2  0  0  0  0  0  0  0  0  0
    6.9917  -14.2547   18.2064 N   0  0  0  0  0  0  0  0  0  0  0  0
    8.0826  -15.3829   20.0351 C   0  0  0  0  0  0  0  0  0  0  0  0
    7.0252  -15.3385   20.7145 O   0  0  0  0  0  0  0  0  0  0  0  0
   11.8086  -20.2408   21.6867 N   0  0  0  0  0  0  0  0  0  0  0  0
   11.1234  -19.9511   22.8905 C   0  0  0  0  0  0  0  0  0  0  0  0
   11.3655  -20.6446   23.8984 O   0  0  0  0  0  0  0  0  0  0  0  0
   10.1468  -18.8588   22.9574 C   0  0  0  0  0  0  0  0  0  0  0  0
    9.9434  -18.1126   21.6848 C   0  0  0  0  0  0  0  0  0  0  0  0
    8.9953  -16.9609   21.7493 C   0  0  2  0  0  0  0  0  0  0  0  0
    9.0932  -16.2789   20.4547 N   0  0  0  0  0  0  0  0  0  0  0  0
    9.3637  -15.9548   22.7965 C   0  0  0  0  0  0  0  0  0  0  0  0
   10.2659  -15.1235   22.5131 O   0  0  0  0  0  0  0  0  0  0  0  0
    6.0861  -11.4175   27.7939 C   0  0  0  0  0  0  0  0  0  0  0  0
    7.0484  -11.6702   26.2833 S   0  0  0  0  0  0  0  0  0  0  0  0
    7.2461  -13.4613   25.9645 C   0  0  0  0  0  0  0  0  0  0  0  0
    8.0848  -13.6923   24.7411 C   0  0  0  0  0  0  0  0  0  0  0  0
    9.0614  -14.7960   24.9550 C   0  0  2  0  0  0  0  0  0  0  0  0
    8.7266  -15.9317   24.0610 N   0  0  0  0  0  0  0  0  0  0  0  0
    8.9932  -15.3149   26.3333 C   0  0  0  0  0  0  0  0  0  0  0  0
    9.2804  -14.6154   27.3261 O   0  0  0  0  0  0  0  0  0  0  0  0
    8.5904  -16.6476   26.5449 O   0  0  0  0  0  0  0  0  0  0  0  0
  2  1  1  6
  3  2  1  0
  4  5  1  1
  4  6  1  0
  4  2  1  0
  6 14  1  0
  7  6  2  0
  9  8  1  0
 10  9  2  0
 11  9  1  0
 12 11  1  0
 13 12  1  6
 14 13  1  0
 15 22  1  0
 15 13  1  0
 16 15  2  0
 18 17  1  0
 18 19  1  0
 19 20  1  0
 21 20  1  1
 21 22  1  0
 21 23  1  0
 23 25  1  0
 24 23  2  0
M  END
$$$$
