TQM.pdb
     RDKit          3D

 25 24  0  0  1  0  0  0  0  0999 V2000
    9.4259  -12.4067   17.8091 C   0  0  0  0  0  0  0  0  0  0  0  0
    8.8742  -13.1525   19.0117 C   0  0  1  0  0  0  0  0  0  0  0  0
    7.6581  -12.5666   19.3468 O   0  0  0  0  0  0  0  0  0  0  0  0
    8.7356  -14.5905   18.6263 C   0  0  2  0  0  0  0  0  0  0  0  0
    7.8752  -14.8277   17.5002 N   0  0  0  0  0  0  0  0  0  0  0  0
    8.3173  -15.4470   19.7867 C   0  0  0  0  0  0  0  0  0  0  0  0
    7.1066  -15.7202   19.9896 O   0  0  0  0  0  0  0  0  0  0  0  0
   10.1186  -20.9021   19.4166 N   0  0  0  0  0  0  0  0  0  0  0  0
   10.3380  -19.9211   20.4125 C   0  0  0  0  0  0  0  0  0  0  0  0
   11.4679  -19.8401   20.9340 O   0  0  0  0  0  0  0  0  0  0  0  0
    9.2616  -19.0151   20.8277 C   0  0  0  0  0  0  0  0  0  0  0  0
    9.6455  -18.0029   21.8504 C   0  0  0  0  0  0  0  0  0  0  0  0
    8.8368  -16.7478   21.8603 C   0  0  2  0  0  0  0  0  0  0  0  0
    9.2681  -15.9754   20.6906 N   0  0  0  0  0  0  0  0  0  0  0  0
    9.0954  -15.8918   23.0624 C   0  0  0  0  0  0  0  0  0  0  0  0
   10.1522  -15.2074   23.0730 O   0  0  0  0  0  0  0  0  0  0  0  0
    6.4591  -10.6098   27.9120 C   0  0  0  0  0  0  0  0  0  0  0  0
    6.1193  -11.8495   26.6393 S   0  0  0  0  0  0  0  0  0  0  0  0
    7.4346  -13.1218   26.6441 C   0  0  0  0  0  0  0  0  0  0  0  0
    7.2114  -14.1187   25.5442 C   0  0  0  0  0  0  0  0  0  0  0  0
    8.4681  -14.8430   25.2070 C   0  0  2  0  0  0  0  0  0  0  0  0
    8.1909  -15.8476   24.1511 N   0  0  0  0  0  0  0  0  0  0  0  0
    8.9868  -15.5891   26.3680 C   0  0  0  0  0  0  0  0  0  0  0  0
    9.3266  -15.0249   27.4280 O   0  0  0  0  0  0  0  0  0  0  0  0
    9.1060  -16.9900   26.2850 O   0  0  0  0  0  0  0  0  0  0  0  0
  2  1  1  6
  3  2  1  0
  4  5  1  6
  4  6  1  0
  4  2  1  0
  6 14  1  0
  7  6  2  0
  9  8  1  0
 10  9  2  0
 11  9  1  0
 12 11  1  0
 13 12  1  1
 14 13  1  0
 15 22  1  0
 15 13  1  0
 16 15  2  0
 18 17  1  0
 18 19  1  0
 19 20  1  0
 21 20  1  1
 21 22  1  0
 21 23  1  0
 23 25  1  0
 24 23  2  0
M  END
$$$$
