TQM.pdb
     RDKit          3D

 25 24  0  0  1  0  0  0  0  0999 V2000
    5.0514  -21.2335   23.3450 C   0  0  0  0  0  0  0  0  0  0  0  0
    6.0312  -20.3861   22.5522 C   0  0  1  0  0  0  0  0  0  0  0  0
    5.3482  -19.8702   21.4559 O   0  0  0  0  0  0  0  0  0  0  0  0
    6.5474  -19.3202   23.4648 C   0  0  2  0  0  0  0  0  0  0  0  0
    5.5332  -18.4727   24.0285 N   0  0  0  0  0  0  0  0  0  0  0  0
    7.6137  -18.4878   22.8127 C   0  0  0  0  0  0  0  0  0  0  0  0
    8.6457  -19.0177   22.3273 O   0  0  0  0  0  0  0  0  0  0  0  0
    6.4699  -13.3006   19.6697 N   0  0  0  0  0  0  0  0  0  0  0  0
    7.8814  -13.2533   19.7582 C   0  0  0  0  0  0  0  0  0  0  0  0
    8.4909  -12.3652   19.1297 O   0  0  0  0  0  0  0  0  0  0  0  0
    8.6184  -14.2269   20.5710 C   0  0  0  0  0  0  0  0  0  0  0  0
    7.7775  -15.2559   21.2433 C   0  0  0  0  0  0  0  0  0  0  0  0
    8.5161  -16.2900   22.0273 C   0  0  2  0  0  0  0  0  0  0  0  0
    7.4954  -17.0814   22.7219 N   0  0  0  0  0  0  0  0  0  0  0  0
    9.4019  -15.7043   23.0841 C   0  0  0  0  0  0  0  0  0  0  0  0
   10.0647  -14.6766   22.7840 O   0  0  0  0  0  0  0  0  0  0  0  0
    6.3554  -11.3683   27.6517 C   0  0  0  0  0  0  0  0  0  0  0  0
    6.5015  -12.5325   26.2750 S   0  0  0  0  0  0  0  0  0  0  0  0
    7.8557  -13.7184   26.6048 C   0  0  0  0  0  0  0  0  0  0  0  0
    8.0646  -14.6250   25.4267 C   0  0  0  0  0  0  0  0  0  0  0  0
    9.3600  -15.3528   25.5270 C   0  0  2  0  0  0  0  0  0  0  0  0
    9.4970  -16.2779   24.3753 N   0  0  0  0  0  0  0  0  0  0  0  0
    9.4158  -16.1865   26.7417 C   0  0  0  0  0  0  0  0  0  0  0  0
    9.3497  -15.7011   27.8894 O   0  0  0  0  0  0  0  0  0  0  0  0
    9.5486  -17.5823   26.6096 O   0  0  0  0  0  0  0  0  0  0  0  0
  2  1  1  1
  3  2  1  0
  4  5  1  6
  4  6  1  0
  4  2  1  0
  6 14  1  0
  7  6  2  0
  9  8  1  0
 10  9  2  0
 11  9  1  0
 12 11  1  0
 13 12  1  1
 14 13  1  0
 15 22  1  0
 15 13  1  0
 16 15  2  0
 18 17  1  0
 18 19  1  0
 19 20  1  0
 21 20  1  6
 21 22  1  0
 21 23  1  0
 23 25  1  0
 24 23  2  0
M  END
$$$$
