TQM.pdb
     RDKit          3D

 25 24  0  0  1  0  0  0  0  0999 V2000
    9.1450  -12.7050   19.9607 C   0  0  0  0  0  0  0  0  0  0  0  0
    8.2834  -13.3247   18.8743 C   0  0  1  0  0  0  0  0  0  0  0  0
    8.5449  -12.6422   17.6911 O   0  0  0  0  0  0  0  0  0  0  0  0
    8.6338  -14.7760   18.7934 C   0  0  2  0  0  0  0  0  0  0  0  0
    8.1113  -15.4540   17.6393 N   0  0  0  0  0  0  0  0  0  0  0  0
    8.2567  -15.5173   20.0438 C   0  0  0  0  0  0  0  0  0  0  0  0
    7.3494  -16.3881   20.0345 O   0  0  0  0  0  0  0  0  0  0  0  0
   12.1985  -18.9667   21.7665 N   0  0  0  0  0  0  0  0  0  0  0  0
   11.0057  -19.5017   22.3082 C   0  0  0  0  0  0  0  0  0  0  0  0
   11.0477  -20.6195   22.8597 O   0  0  0  0  0  0  0  0  0  0  0  0
    9.7421  -18.7613   22.2254 C   0  0  0  0  0  0  0  0  0  0  0  0
    9.8382  -17.4132   21.5999 C   0  0  0  0  0  0  0  0  0  0  0  0
    9.0626  -16.3274   22.2700 C   0  0  2  0  0  0  0  0  0  0  0  0
    8.9071  -15.2626   21.2736 N   0  0  0  0  0  0  0  0  0  0  0  0
    9.7834  -15.7251   23.4371 C   0  0  0  0  0  0  0  0  0  0  0  0
   10.6893  -16.4115   23.9789 O   0  0  0  0  0  0  0  0  0  0  0  0
    6.9661  -10.9564   26.9870 C   0  0  0  0  0  0  0  0  0  0  0  0
    5.8063  -12.2881   26.5955 S   0  0  0  0  0  0  0  0  0  0  0  0
    6.7096  -13.8713   26.4328 C   0  0  0  0  0  0  0  0  0  0  0  0
    7.4007  -13.9526   25.1026 C   0  0  0  0  0  0  0  0  0  0  0  0
    8.8247  -14.3601   25.2567 C   0  0  2  0  0  0  0  0  0  0  0  0
    9.4649  -14.4326   23.9203 N   0  0  0  0  0  0  0  0  0  0  0  0
    8.9380  -15.7059   25.8480 C   0  0  0  0  0  0  0  0  0  0  0  0
    8.6676  -16.7425   25.2079 O   0  0  0  0  0  0  0  0  0  0  0  0
    9.3665  -15.8341   27.1834 O   0  0  0  0  0  0  0  0  0  0  0  0
  2  1  1  1
  3  2  1  0
  4  5  1  6
  4  6  1  0
  4  2  1  0
  6 14  1  0
  7  6  2  0
  9  8  1  0
 10  9  2  0
 11  9  1  0
 12 11  1  0
 13 12  1  6
 14 13  1  0
 15 22  1  0
 15 13  1  0
 16 15  2  0
 18 17  1  0
 18 19  1  0
 19 20  1  0
 21 20  1  6
 21 22  1  0
 21 23  1  0
 23 25  1  0
 24 23  2  0
M  END
$$$$
