TQM.pdb
     RDKit          3D

 25 24  0  0  1  0  0  0  0  0999 V2000
    8.5643  -12.2928   18.6560 C   0  0  0  0  0  0  0  0  0  0  0  0
    8.7353  -13.1680   19.8855 C   0  0  1  0  0  0  0  0  0  0  0  0
    7.9918  -12.5975   20.9131 O   0  0  0  0  0  0  0  0  0  0  0  0
    8.2683  -14.5429   19.5292 C   0  0  2  0  0  0  0  0  0  0  0  0
    6.9130  -14.6106   19.0570 N   0  0  0  0  0  0  0  0  0  0  0  0
    8.4737  -15.5168   20.6537 C   0  0  0  0  0  0  0  0  0  0  0  0
    7.5146  -15.8823   21.3803 O   0  0  0  0  0  0  0  0  0  0  0  0
    9.0237  -20.3965   20.5420 N   0  0  0  0  0  0  0  0  0  0  0  0
   10.1648  -19.9844   21.2702 C   0  0  0  0  0  0  0  0  0  0  0  0
   10.4492  -20.5836   22.3264 O   0  0  0  0  0  0  0  0  0  0  0  0
   11.0000  -18.8750   20.7977 C   0  0  0  0  0  0  0  0  0  0  0  0
   11.1722  -17.7557   21.7648 C   0  0  0  0  0  0  0  0  0  0  0  0
    9.9436  -16.9640   22.0703 C   0  0  2  0  0  0  0  0  0  0  0  0
    9.7506  -16.0560   20.9349 N   0  0  0  0  0  0  0  0  0  0  0  0
   10.0859  -16.1061   23.2902 C   0  0  0  0  0  0  0  0  0  0  0  0
   10.8450  -15.1045   23.2120 O   0  0  0  0  0  0  0  0  0  0  0  0
    5.6852  -12.4913   26.3784 C   0  0  0  0  0  0  0  0  0  0  0  0
    7.4422  -12.1198   26.5951 S   0  0  0  0  0  0  0  0  0  0  0  0
    8.3761  -13.6696   26.8685 C   0  0  0  0  0  0  0  0  0  0  0  0
    8.3864  -14.5086   25.6238 C   0  0  0  0  0  0  0  0  0  0  0  0
    9.5524  -15.4347   25.6049 C   0  0  2  0  0  0  0  0  0  0  0  0
    9.3966  -16.4023   24.4912 N   0  0  0  0  0  0  0  0  0  0  0  0
    9.6267  -16.2312   26.8434 C   0  0  0  0  0  0  0  0  0  0  0  0
    9.4048  -17.4590   26.8630 O   0  0  0  0  0  0  0  0  0  0  0  0
    9.9596  -15.5896   28.0521 O   0  0  0  0  0  0  0  0  0  0  0  0
  2  1  1  6
  3  2  1  0
  4  5  1  1
  4  6  1  0
  4  2  1  0
  6 14  1  0
  7  6  2  0
  9  8  1  0
 10  9  2  0
 11  9  1  0
 12 11  1  0
 13 12  1  6
 14 13  1  0
 15 22  1  0
 15 13  1  0
 16 15  2  0
 18 17  1  0
 18 19  1  0
 19 20  1  0
 21 20  1  1
 21 22  1  0
 21 23  1  0
 23 25  1  0
 24 23  2  0
M  END
$$$$
