QCP.pdb
     RDKit          3D

 23 23  0  0  1  0  0  0  0  0999 V2000
   19.1529  -14.3794  -21.1014 N   0  0  0  0  0  0  0  0  0  0  0  0
   18.7142  -13.0565  -20.7994 C   0  0  0  0  0  0  0  0  0  0  0  0
   17.5211  -12.7115  -20.7315 O   0  0  0  0  0  0  0  0  0  0  0  0
   19.7715  -12.0332  -20.5518 C   0  0  0  0  0  0  0  0  0  0  0  0
   19.8260  -11.7528  -19.0815 C   0  0  0  0  0  0  0  0  0  0  0  0
   21.2026  -11.7567  -18.5095 C   0  0  2  0  0  0  0  0  0  0  0  0
   21.5696  -13.1626  -18.2946 N   0  0  0  0  0  0  0  0  0  0  0  0
   21.3095  -11.0015  -17.2423 C   0  0  0  0  0  0  0  0  0  0  0  0
   20.5180  -11.2349  -16.3142 O   0  0  0  0  0  0  0  0  0  0  0  0
   22.3133  -10.0006  -17.0630 N   0  0  0  0  0  0  0  0  0  0  0  0
   22.3498   -9.2705  -15.8047 C   0  0  1  0  0  0  0  0  0  0  0  0
   23.7214   -9.5301  -15.2218 C   0  0  0  0  0  0  0  0  0  0  0  0
   23.8635  -11.1491  -14.4535 S   0  0  0  0  0  0  0  0  0  0  0  0
   22.0709   -7.8412  -16.0572 C   0  0  0  0  0  0  0  0  0  0  0  0
   22.4152   -7.4116  -17.2178 O   0  0  0  0  0  0  0  0  0  0  0  0
   21.4814   -6.9283  -15.1800 N   0  0  0  0  0  0  0  0  0  0  0  0
   21.0195   -7.2917  -13.8232 C   0  0  0  0  0  0  0  0  0  0  0  0
   19.5945   -6.7417  -13.8850 C   0  0  0  0  0  0  0  0  0  0  0  0
   19.8196   -5.4085  -14.5619 C   0  0  0  0  0  0  0  0  0  0  0  0
   21.1634   -5.5351  -15.2751 C   0  0  1  0  0  0  0  0  0  0  0  0
   22.1518   -4.6870  -14.5298 C   0  0  0  0  0  0  0  0  0  0  0  0
   22.8694   -5.2837  -13.6882 O   0  0  0  0  0  0  0  0  0  0  0  0
   22.2970   -3.3300  -14.7257 O   0  0  0  0  0  0  0  0  0  0  0  0
  2  1  1  0
  2  3  2  0
  4  2  1  0
  5  4  1  0
  5  6  1  0
  6  7  1  1
  8  6  1  0
  8  9  2  0
 10  8  1  0
 11 14  1  0
 11 10  1  0
 11 12  1  6
 13 12  1  0
 14 16  1  0
 15 14  2  0
 16 20  1  0
 17 16  1  0
 18 19  1  0
 18 17  1  0
 19 20  1  0
 20 21  1  1
 21 23  1  0
 22 21  2  0
M  END
$$$$
