QCP.pdb
     RDKit          3D

 23 23  0  0  1  0  0  0  0  0999 V2000
   22.8979  -35.5513  -10.9080 N   0  0  0  0  0  0  0  0  0  0  0  0
   23.4617  -34.4421  -11.6048 C   0  0  0  0  0  0  0  0  0  0  0  0
   24.3037  -34.5401  -12.5151 O   0  0  0  0  0  0  0  0  0  0  0  0
   22.9979  -33.0827  -11.2006 C   0  0  0  0  0  0  0  0  0  0  0  0
   22.0169  -33.2299  -10.0783 C   0  0  0  0  0  0  0  0  0  0  0  0
   22.4825  -32.6611   -8.7814 C   0  0  2  0  0  0  0  0  0  0  0  0
   22.9157  -31.2841   -9.0524 N   0  0  0  0  0  0  0  0  0  0  0  0
   23.5861  -33.4325   -8.1692 C   0  0  0  0  0  0  0  0  0  0  0  0
   23.4589  -34.6539   -7.9839 O   0  0  0  0  0  0  0  0  0  0  0  0
   24.8055  -32.7954   -7.7836 N   0  0  0  0  0  0  0  0  0  0  0  0
   25.8984  -33.6235   -7.2962 C   0  0  1  0  0  0  0  0  0  0  0  0
   27.1668  -32.9068   -7.7035 C   0  0  0  0  0  0  0  0  0  0  0  0
   27.3314  -32.7270   -9.4846 S   0  0  0  0  0  0  0  0  0  0  0  0
   25.7616  -33.8087   -5.8363 C   0  0  0  0  0  0  0  0  0  0  0  0
   25.0688  -32.9116   -5.2318 O   0  0  0  0  0  0  0  0  0  0  0  0
   26.2975  -34.8404   -5.0623 N   0  0  0  0  0  0  0  0  0  0  0  0
   27.1378  -35.9203   -5.6226 C   0  0  0  0  0  0  0  0  0  0  0  0
   26.3960  -37.1343   -5.0633 C   0  0  0  0  0  0  0  0  0  0  0  0
   26.1224  -36.6879   -3.6448 C   0  0  0  0  0  0  0  0  0  0  0  0
   26.2277  -35.1651   -3.6692 C   0  0  1  0  0  0  0  0  0  0  0  0
   27.4876  -34.7880   -2.9465 C   0  0  0  0  0  0  0  0  0  0  0  0
   27.4402  -34.8324   -1.6916 O   0  0  0  0  0  0  0  0  0  0  0  0
   28.6507  -34.4092   -3.5829 O   0  0  0  0  0  0  0  0  0  0  0  0
  2  1  1  0
  2  3  2  0
  4  2  1  0
  5  4  1  0
  5  6  1  0
  6  7  1  6
  8  6  1  0
  8  9  2  0
 10  8  1  0
 11 14  1  0
 11 10  1  0
 11 12  1  1
 13 12  1  0
 14 16  1  0
 15 14  2  0
 16 20  1  0
 17 16  1  0
 18 19  1  0
 18 17  1  0
 19 20  1  0
 20 21  1  1
 21 23  1  0
 22 21  2  0
M  END
$$$$
