QCP.pdb
     RDKit          3D

 23 23  0  0  1  0  0  0  0  0999 V2000
   24.9400  -24.1566  -15.0262 N   0  0  0  0  0  0  0  0  0  0  0  0
   25.5422  -23.3455  -14.0196 C   0  0  0  0  0  0  0  0  0  0  0  0
   26.4945  -22.5708  -14.2198 O   0  0  0  0  0  0  0  0  0  0  0  0
   24.9781  -23.4471  -12.6420 C   0  0  0  0  0  0  0  0  0  0  0  0
   25.0713  -22.1018  -11.9902 C   0  0  0  0  0  0  0  0  0  0  0  0
   24.2695  -21.0402  -12.6630 C   0  0  2  0  0  0  0  0  0  0  0  0
   23.5785  -21.6798  -13.7903 N   0  0  0  0  0  0  0  0  0  0  0  0
   25.0893  -19.9067  -13.1433 C   0  0  0  0  0  0  0  0  0  0  0  0
   25.6945  -19.1917  -12.3280 O   0  0  0  0  0  0  0  0  0  0  0  0
   25.1997  -19.6156  -14.5378 N   0  0  0  0  0  0  0  0  0  0  0  0
   25.9977  -18.4697  -14.9474 C   0  0  1  0  0  0  0  0  0  0  0  0
   27.1299  -19.0357  -15.7758 C   0  0  0  0  0  0  0  0  0  0  0  0
   28.2882  -20.0125  -14.8085 S   0  0  0  0  0  0  0  0  0  0  0  0
   25.1434  -17.5127  -15.6815 C   0  0  0  0  0  0  0  0  0  0  0  0
   24.0132  -17.9776  -16.0772 O   0  0  0  0  0  0  0  0  0  0  0  0
   25.4337  -16.1800  -15.9817 N   0  0  0  0  0  0  0  0  0  0  0  0
   26.7260  -15.5396  -15.6560 C   0  0  0  0  0  0  0  0  0  0  0  0
   26.2161  -14.2976  -14.9252 C   0  0  0  0  0  0  0  0  0  0  0  0
   25.0673  -13.8797  -15.8152 C   0  0  0  0  0  0  0  0  0  0  0  0
   24.6928  -15.1279  -16.6104 C   0  0  1  0  0  0  0  0  0  0  0  0
   25.1323  -14.9087  -18.0283 C   0  0  0  0  0  0  0  0  0  0  0  0
   26.2056  -15.4673  -18.3676 O   0  0  0  0  0  0  0  0  0  0  0  0
   24.4302  -14.1468  -18.9381 O   0  0  0  0  0  0  0  0  0  0  0  0
  2  1  1  0
  2  3  2  0
  4  2  1  0
  5  4  1  0
  5  6  1  0
  6  7  1  6
  8  6  1  0
  8  9  2  0
 10  8  1  0
 11 14  1  0
 11 10  1  0
 11 12  1  6
 13 12  1  0
 14 16  1  0
 15 14  2  0
 16 20  1  0
 17 16  1  0
 18 19  1  0
 18 17  1  0
 19 20  1  0
 20 21  1  6
 21 23  1  0
 22 21  2  0
M  END
$$$$
