QCP.pdb
     RDKit          3D

 23 23  0  0  1  0  0  0  0  0999 V2000
   20.5752  -21.6754  -12.1860 N   0  0  0  0  0  0  0  0  0  0  0  0
   19.3498  -21.2577  -12.7840 C   0  0  0  0  0  0  0  0  0  0  0  0
   18.3026  -21.9289  -12.7794 O   0  0  0  0  0  0  0  0  0  0  0  0
   19.3440  -19.9247  -13.4542 C   0  0  0  0  0  0  0  0  0  0  0  0
   20.7322  -19.3642  -13.4087 C   0  0  0  0  0  0  0  0  0  0  0  0
   21.3070  -19.0466  -14.7470 C   0  0  2  0  0  0  0  0  0  0  0  0
   21.3683  -20.3099  -15.4939 N   0  0  0  0  0  0  0  0  0  0  0  0
   22.6498  -18.4310  -14.6736 C   0  0  0  0  0  0  0  0  0  0  0  0
   22.7977  -17.3342  -14.1103 O   0  0  0  0  0  0  0  0  0  0  0  0
   23.7896  -19.0783  -15.2425 N   0  0  0  0  0  0  0  0  0  0  0  0
   25.0706  -18.3890  -15.2057 C   0  0  1  0  0  0  0  0  0  0  0  0
   26.1208  -19.4778  -15.2213 C   0  0  0  0  0  0  0  0  0  0  0  0
   27.7326  -18.8920  -15.7600 S   0  0  0  0  0  0  0  0  0  0  0  0
   25.1611  -17.4580  -16.3500 C   0  0  0  0  0  0  0  0  0  0  0  0
   24.4960  -17.8042  -17.3930 O   0  0  0  0  0  0  0  0  0  0  0  0
   25.8811  -16.2629  -16.4111 N   0  0  0  0  0  0  0  0  0  0  0  0
   26.7628  -15.7921  -15.3215 C   0  0  0  0  0  0  0  0  0  0  0  0
   26.2151  -14.3757  -15.1467 C   0  0  0  0  0  0  0  0  0  0  0  0
   26.0519  -13.9404  -16.5855 C   0  0  0  0  0  0  0  0  0  0  0  0
   25.9963  -15.2316  -17.3982 C   0  0  1  0  0  0  0  0  0  0  0  0
   27.2813  -15.3376  -18.1658 C   0  0  0  0  0  0  0  0  0  0  0  0
   28.0916  -16.2130  -17.7704 O   0  0  0  0  0  0  0  0  0  0  0  0
   27.5948  -14.5415  -19.2471 O   0  0  0  0  0  0  0  0  0  0  0  0
  2  1  1  0
  2  3  2  0
  4  2  1  0
  5  4  1  0
  5  6  1  0
  6  7  1  6
  8  6  1  0
  8  9  2  0
 10  8  1  0
 11 14  1  0
 11 10  1  0
 11 12  1  6
 13 12  1  0
 14 16  1  0
 15 14  2  0
 16 20  1  0
 17 16  1  0
 18 19  1  0
 18 17  1  0
 19 20  1  0
 20 21  1  1
 21 23  1  0
 22 21  2  0
M  END
$$$$
