QCP.pdb
     RDKit          3D

 23 23  0  0  1  0  0  0  0  0999 V2000
   19.7708  -16.1365  -16.9516 N   0  0  0  0  0  0  0  0  0  0  0  0
   20.1465  -17.4979  -17.1500 C   0  0  0  0  0  0  0  0  0  0  0  0
   19.4761  -18.3237  -17.7947 O   0  0  0  0  0  0  0  0  0  0  0  0
   21.4320  -17.9412  -16.5357 C   0  0  0  0  0  0  0  0  0  0  0  0
   22.0255  -16.7856  -15.7903 C   0  0  0  0  0  0  0  0  0  0  0  0
   23.4508  -16.5083  -16.1277 C   0  0  2  0  0  0  0  0  0  0  0  0
   24.2261  -17.6770  -15.6911 N   0  0  0  0  0  0  0  0  0  0  0  0
   23.9731  -15.2812  -15.4882 C   0  0  0  0  0  0  0  0  0  0  0  0
   24.1788  -15.2610  -14.2636 O   0  0  0  0  0  0  0  0  0  0  0  0
   24.2481  -14.1089  -16.2574 N   0  0  0  0  0  0  0  0  0  0  0  0
   24.6616  -12.9008  -15.5594 C   0  0  1  0  0  0  0  0  0  0  0  0
   26.1103  -12.6859  -15.9382 C   0  0  0  0  0  0  0  0  0  0  0  0
   26.9065  -14.1785  -16.5463 S   0  0  0  0  0  0  0  0  0  0  0  0
   23.7738  -11.7831  -15.9428 C   0  0  0  0  0  0  0  0  0  0  0  0
   23.1892  -11.9116  -17.0794 O   0  0  0  0  0  0  0  0  0  0  0  0
   23.5099  -10.6246  -15.2088 N   0  0  0  0  0  0  0  0  0  0  0  0
   24.1400  -10.3318  -13.9036 C   0  0  0  0  0  0  0  0  0  0  0  0
   22.8884  -10.0265  -13.0809 C   0  0  0  0  0  0  0  0  0  0  0  0
   22.0994   -9.1711  -14.0464 C   0  0  0  0  0  0  0  0  0  0  0  0
   22.6632   -9.4906  -15.4287 C   0  0  1  0  0  0  0  0  0  0  0  0
   23.4445   -8.2936  -15.8854 C   0  0  0  0  0  0  0  0  0  0  0  0
   24.6949   -8.3826  -15.7981 O   0  0  0  0  0  0  0  0  0  0  0  0
   22.8645   -7.1438  -16.3782 O   0  0  0  0  0  0  0  0  0  0  0  0
  2  1  1  0
  2  3  2  0
  4  2  1  0
  5  4  1  0
  5  6  1  0
  6  7  1  1
  8  6  1  0
  8  9  2  0
 10  8  1  0
 11 14  1  0
 11 10  1  0
 11 12  1  6
 13 12  1  0
 14 16  1  0
 15 14  2  0
 16 20  1  0
 17 16  1  0
 18 19  1  0
 18 17  1  0
 19 20  1  0
 20 21  1  1
 21 23  1  0
 22 21  2  0
M  END
$$$$
