QCP.pdb
     RDKit          3D

 23 23  0  0  1  0  0  0  0  0999 V2000
   17.2450  -13.6925  -14.9759 N   0  0  0  0  0  0  0  0  0  0  0  0
   17.0596  -14.2427  -16.2784 C   0  0  0  0  0  0  0  0  0  0  0  0
   16.2483  -15.1458  -16.5494 O   0  0  0  0  0  0  0  0  0  0  0  0
   17.9039  -13.6849  -17.3749 C   0  0  0  0  0  0  0  0  0  0  0  0
   18.7579  -12.5929  -16.8078 C   0  0  0  0  0  0  0  0  0  0  0  0
   20.1878  -12.6567  -17.2247 C   0  0  2  0  0  0  0  0  0  0  0  0
   20.5943  -14.0652  -17.1345 N   0  0  0  0  0  0  0  0  0  0  0  0
   21.0754  -11.8147  -16.3936 C   0  0  0  0  0  0  0  0  0  0  0  0
   21.2264  -12.0760  -15.1889 O   0  0  0  0  0  0  0  0  0  0  0  0
   21.7684  -10.6976  -16.9536 N   0  0  0  0  0  0  0  0  0  0  0  0
   22.7067   -9.9694  -16.1129 C   0  0  1  0  0  0  0  0  0  0  0  0
   24.0635  -10.5758  -16.3952 C   0  0  0  0  0  0  0  0  0  0  0  0
   25.4161   -9.6413  -15.6680 S   0  0  0  0  0  0  0  0  0  0  0  0
   22.6241   -8.5260  -16.4198 C   0  0  0  0  0  0  0  0  0  0  0  0
   22.4217   -8.2383  -17.6553 O   0  0  0  0  0  0  0  0  0  0  0  0
   22.7401   -7.4637  -15.5206 N   0  0  0  0  0  0  0  0  0  0  0  0
   23.0671   -7.6457  -14.0901 C   0  0  0  0  0  0  0  0  0  0  0  0
   21.9296   -6.8379  -13.4655 C   0  0  0  0  0  0  0  0  0  0  0  0
   21.9064   -5.6178  -14.3583 C   0  0  0  0  0  0  0  0  0  0  0  0
   22.6003   -6.0442  -15.6495 C   0  0  1  0  0  0  0  0  0  0  0  0
   23.9331   -5.3560  -15.6942 C   0  0  0  0  0  0  0  0  0  0  0  0
   24.9197   -6.0352  -15.3141 O   0  0  0  0  0  0  0  0  0  0  0  0
   24.1094   -4.0565  -16.1202 O   0  0  0  0  0  0  0  0  0  0  0  0
  2  1  1  0
  2  3  2  0
  4  2  1  0
  5  4  1  0
  5  6  1  0
  6  7  1  1
  8  6  1  0
  8  9  2  0
 10  8  1  0
 11 14  1  0
 11 10  1  0
 11 12  1  6
 13 12  1  0
 14 16  1  0
 15 14  2  0
 16 20  1  0
 17 16  1  0
 18 19  1  0
 18 17  1  0
 19 20  1  0
 20 21  1  1
 21 23  1  0
 22 21  2  0
M  END
$$$$
