QCP.pdb
     RDKit          3D

 23 23  0  0  1  0  0  0  0  0999 V2000
   19.5140  -18.0164  -13.7133 N   0  0  0  0  0  0  0  0  0  0  0  0
   20.4088  -18.9166  -14.3634 C   0  0  0  0  0  0  0  0  0  0  0  0
   20.2871  -20.1544  -14.3554 O   0  0  0  0  0  0  0  0  0  0  0  0
   21.5606  -18.3143  -15.0961 C   0  0  0  0  0  0  0  0  0  0  0  0
   21.3731  -16.8288  -15.1366 C   0  0  0  0  0  0  0  0  0  0  0  0
   21.0249  -16.2936  -16.4838 C   0  0  2  0  0  0  0  0  0  0  0  0
   21.6520  -17.1835  -17.4697 N   0  0  0  0  0  0  0  0  0  0  0  0
   21.4770  -14.9009  -16.6924 C   0  0  0  0  0  0  0  0  0  0  0  0
   22.6872  -14.6566  -16.8257 O   0  0  0  0  0  0  0  0  0  0  0  0
   20.5414  -13.8221  -16.7442 N   0  0  0  0  0  0  0  0  0  0  0  0
   21.0453  -12.4754  -16.9682 C   0  0  1  0  0  0  0  0  0  0  0  0
   20.2209  -11.9151  -18.1061 C   0  0  0  0  0  0  0  0  0  0  0  0
   20.3549  -10.1289  -18.2578 S   0  0  0  0  0  0  0  0  0  0  0  0
   20.9398  -11.6965  -15.7166 C   0  0  0  0  0  0  0  0  0  0  0  0
   19.9460  -12.0019  -14.9622 O   0  0  0  0  0  0  0  0  0  0  0  0
   21.7948  -10.6828  -15.2785 N   0  0  0  0  0  0  0  0  0  0  0  0
   22.9742  -10.2299  -16.0469 C   0  0  0  0  0  0  0  0  0  0  0  0
   24.0407  -10.3303  -14.9564 C   0  0  0  0  0  0  0  0  0  0  0  0
   23.3097   -9.7421  -13.7707 C   0  0  0  0  0  0  0  0  0  0  0  0
   21.8254   -9.8568  -14.1090 C   0  0  1  0  0  0  0  0  0  0  0  0
   21.3187   -8.4730  -14.3921 C   0  0  0  0  0  0  0  0  0  0  0  0
   21.1638   -8.1774  -15.6036 O   0  0  0  0  0  0  0  0  0  0  0  0
   21.0277   -7.5490  -13.4109 O   0  0  0  0  0  0  0  0  0  0  0  0
  2  1  1  0
  2  3  2  0
  4  2  1  0
  5  4  1  0
  5  6  1  0
  6  7  1  6
  8  6  1  0
  8  9  2  0
 10  8  1  0
 11 14  1  0
 11 10  1  0
 11 12  1  6
 13 12  1  0
 14 16  1  0
 15 14  2  0
 16 20  1  0
 17 16  1  0
 18 19  1  0
 18 17  1  0
 19 20  1  0
 20 21  1  6
 21 23  1  0
 22 21  2  0
M  END
$$$$
