QCP.pdb
     RDKit          3D

 23 23  0  0  1  0  0  0  0  0999 V2000
   22.1784   -8.6046  -14.4896 N   0  0  0  0  0  0  0  0  0  0  0  0
   21.1621   -8.2549  -15.4269 C   0  0  0  0  0  0  0  0  0  0  0  0
   21.3440   -7.5289  -16.4204 O   0  0  0  0  0  0  0  0  0  0  0  0
   19.7974   -8.8062  -15.1821 C   0  0  0  0  0  0  0  0  0  0  0  0
   19.8543   -9.6984  -13.9803 C   0  0  0  0  0  0  0  0  0  0  0  0
   18.5272  -10.2159  -13.5404 C   0  0  2  0  0  0  0  0  0  0  0  0
   17.9693  -10.9701  -14.6705 N   0  0  0  0  0  0  0  0  0  0  0  0
   17.5920   -9.1466  -13.1285 C   0  0  0  0  0  0  0  0  0  0  0  0
   16.6967   -8.7748  -13.9047 O   0  0  0  0  0  0  0  0  0  0  0  0
   17.6988   -8.5280  -11.8449 N   0  0  0  0  0  0  0  0  0  0  0  0
   16.7006   -7.5397  -11.4646 C   0  0  1  0  0  0  0  0  0  0  0  0
   16.9143   -7.2911   -9.9878 C   0  0  0  0  0  0  0  0  0  0  0  0
   16.7096   -8.7717   -8.9890 S   0  0  0  0  0  0  0  0  0  0  0  0
   16.8609   -6.3318  -12.3011 C   0  0  0  0  0  0  0  0  0  0  0  0
   18.0399   -6.1455  -12.7758 O   0  0  0  0  0  0  0  0  0  0  0  0
   15.8798   -5.3914  -12.6228 N   0  0  0  0  0  0  0  0  0  0  0  0
   14.4853   -5.4781  -12.1388 C   0  0  0  0  0  0  0  0  0  0  0  0
   13.7461   -5.3351  -13.4691 C   0  0  0  0  0  0  0  0  0  0  0  0
   14.5293   -4.2209  -14.1260 C   0  0  0  0  0  0  0  0  0  0  0  0
   15.8806   -4.1989  -13.4159 C   0  0  1  0  0  0  0  0  0  0  0  0
   15.9228   -2.9644  -12.5638 C   0  0  0  0  0  0  0  0  0  0  0  0
   15.5980   -3.1123  -11.3589 O   0  0  0  0  0  0  0  0  0  0  0  0
   16.2902   -1.7217  -13.0347 O   0  0  0  0  0  0  0  0  0  0  0  0
  2  1  1  0
  2  3  2  0
  4  2  1  0
  5  4  1  0
  5  6  1  0
  6  7  1  6
  8  6  1  0
  8  9  2  0
 10  8  1  0
 11 14  1  0
 11 10  1  0
 11 12  1  1
 13 12  1  0
 14 16  1  0
 15 14  2  0
 16 20  1  0
 17 16  1  0
 18 19  1  0
 18 17  1  0
 19 20  1  0
 20 21  1  1
 21 23  1  0
 22 21  2  0
M  END
$$$$
