QCP.pdb
     RDKit          3D

 23 23  0  0  1  0  0  0  0  0999 V2000
   21.3397  -14.1192  -20.8853 N   0  0  0  0  0  0  0  0  0  0  0  0
   21.7613  -14.4051  -19.5534 C   0  0  0  0  0  0  0  0  0  0  0  0
   21.6650  -15.5205  -19.0114 O   0  0  0  0  0  0  0  0  0  0  0  0
   22.3546  -13.2787  -18.7751 C   0  0  0  0  0  0  0  0  0  0  0  0
   22.3705  -12.0583  -19.6433 C   0  0  0  0  0  0  0  0  0  0  0  0
   22.9607  -10.8537  -18.9930 C   0  0  2  0  0  0  0  0  0  0  0  0
   24.1514  -11.3060  -18.2615 N   0  0  0  0  0  0  0  0  0  0  0  0
   22.0253  -10.1704  -18.0733 C   0  0  0  0  0  0  0  0  0  0  0  0
   20.9008  -10.6536  -17.8630 O   0  0  0  0  0  0  0  0  0  0  0  0
   22.3926   -8.9557  -17.4167 N   0  0  0  0  0  0  0  0  0  0  0  0
   21.4817   -8.3968  -16.4290 C   0  0  1  0  0  0  0  0  0  0  0  0
   21.3899   -9.4296  -15.3276 C   0  0  0  0  0  0  0  0  0  0  0  0
   22.8910   -9.5447  -14.3452 S   0  0  0  0  0  0  0  0  0  0  0  0
   21.9924   -7.0861  -15.9753 C   0  0  0  0  0  0  0  0  0  0  0  0
   23.2506   -6.8964  -16.1517 O   0  0  0  0  0  0  0  0  0  0  0  0
   21.2603   -6.0526  -15.3868 N   0  0  0  0  0  0  0  0  0  0  0  0
   19.8141   -6.1492  -15.0946 C   0  0  0  0  0  0  0  0  0  0  0  0
   19.3337   -4.8620  -15.7647 C   0  0  0  0  0  0  0  0  0  0  0  0
   20.3989   -3.8829  -15.3255 C   0  0  0  0  0  0  0  0  0  0  0  0
   21.6017   -4.7375  -14.9338 C   0  0  1  0  0  0  0  0  0  0  0  0
   21.7292   -4.6798  -13.4398 C   0  0  0  0  0  0  0  0  0  0  0  0
   22.1286   -3.5891  -12.9601 O   0  0  0  0  0  0  0  0  0  0  0  0
   21.4361   -5.7375  -12.6052 O   0  0  0  0  0  0  0  0  0  0  0  0
  2  1  1  0
  2  3  2  0
  4  2  1  0
  5  4  1  0
  5  6  1  0
  6  7  1  1
  8  6  1  0
  8  9  2  0
 10  8  1  0
 11 14  1  0
 11 10  1  0
 11 12  1  1
 13 12  1  0
 14 16  1  0
 15 14  2  0
 16 20  1  0
 17 16  1  0
 18 19  1  0
 18 17  1  0
 19 20  1  0
 20 21  1  1
 21 23  1  0
 22 21  2  0
M  END
$$$$
