QCP.pdb
     RDKit          3D

 23 23  0  0  1  0  0  0  0  0999 V2000
   19.2086  -23.4486  -14.3828 N   0  0  0  0  0  0  0  0  0  0  0  0
   20.3424  -22.8937  -15.0464 C   0  0  0  0  0  0  0  0  0  0  0  0
   21.4562  -23.4436  -15.1105 O   0  0  0  0  0  0  0  0  0  0  0  0
   20.1602  -21.5652  -15.7007 C   0  0  0  0  0  0  0  0  0  0  0  0
   20.3848  -20.4963  -14.6757 C   0  0  0  0  0  0  0  0  0  0  0  0
   20.9636  -20.9909  -13.3940 C   0  0  2  0  0  0  0  0  0  0  0  0
   20.0671  -20.5406  -12.3212 N   0  0  0  0  0  0  0  0  0  0  0  0
   22.3384  -20.5039  -13.1489 C   0  0  0  0  0  0  0  0  0  0  0  0
   22.5397  -19.2955  -12.9454 O   0  0  0  0  0  0  0  0  0  0  0  0
   23.4487  -21.4032  -13.1414 N   0  0  0  0  0  0  0  0  0  0  0  0
   24.7881  -20.8527  -12.9979 C   0  0  1  0  0  0  0  0  0  0  0  0
   25.4945  -21.7503  -12.0061 C   0  0  0  0  0  0  0  0  0  0  0  0
   27.2807  -21.5487  -12.0239 S   0  0  0  0  0  0  0  0  0  0  0  0
   25.4418  -20.7981  -14.3223 C   0  0  0  0  0  0  0  0  0  0  0  0
   24.9575  -21.5942  -15.2066 O   0  0  0  0  0  0  0  0  0  0  0  0
   26.5107  -19.9841  -14.7033 N   0  0  0  0  0  0  0  0  0  0  0  0
   27.2883  -19.1681  -13.7463 C   0  0  0  0  0  0  0  0  0  0  0  0
   27.2104  -17.8122  -14.4478 C   0  0  0  0  0  0  0  0  0  0  0  0
   27.4575  -18.2071  -15.8863 C   0  0  0  0  0  0  0  0  0  0  0  0
   27.1300  -19.6963  -15.9622 C   0  0  1  0  0  0  0  0  0  0  0  0
   28.4253  -20.4357  -16.1266 C   0  0  0  0  0  0  0  0  0  0  0  0
   29.0152  -20.2811  -17.2254 O   0  0  0  0  0  0  0  0  0  0  0  0
   28.9720  -21.2471  -15.1551 O   0  0  0  0  0  0  0  0  0  0  0  0
  2  1  1  0
  2  3  2  0
  4  2  1  0
  5  4  1  0
  5  6  1  0
  6  7  1  1
  8  6  1  0
  8  9  2  0
 10  8  1  0
 11 14  1  0
 11 10  1  0
 11 12  1  1
 13 12  1  0
 14 16  1  0
 15 14  2  0
 16 20  1  0
 17 16  1  0
 18 19  1  0
 18 17  1  0
 19 20  1  0
 20 21  1  1
 21 23  1  0
 22 21  2  0
M  END
$$$$
