QCP.pdb
     RDKit          3D

 23 23  0  0  1  0  0  0  0  0999 V2000
   28.6712  -17.2176  -18.2209 N   0  0  0  0  0  0  0  0  0  0  0  0
   29.0118  -18.6018  -18.1810 C   0  0  0  0  0  0  0  0  0  0  0  0
   28.8113  -19.4006  -19.1131 O   0  0  0  0  0  0  0  0  0  0  0  0
   29.6499  -19.1056  -16.9299 C   0  0  0  0  0  0  0  0  0  0  0  0
   28.8493  -20.2653  -16.4223 C   0  0  0  0  0  0  0  0  0  0  0  0
   27.6029  -19.8785  -15.7017 C   0  0  2  0  0  0  0  0  0  0  0  0
   27.9298  -18.6984  -14.8906 N   0  0  0  0  0  0  0  0  0  0  0  0
   27.0679  -20.9567  -14.8422 C   0  0  0  0  0  0  0  0  0  0  0  0
   26.9709  -22.1121  -15.2872 O   0  0  0  0  0  0  0  0  0  0  0  0
   26.6571  -20.6935  -13.4993 N   0  0  0  0  0  0  0  0  0  0  0  0
   25.7339  -21.6197  -12.8608 C   0  0  1  0  0  0  0  0  0  0  0  0
   26.0051  -21.5084  -11.3767 C   0  0  0  0  0  0  0  0  0  0  0  0
   25.0744  -20.1873  -10.5893 S   0  0  0  0  0  0  0  0  0  0  0  0
   24.3483  -21.2730  -13.2405 C   0  0  0  0  0  0  0  0  0  0  0  0
   24.1593  -20.0447  -13.5655 O   0  0  0  0  0  0  0  0  0  0  0  0
   23.2452  -22.1285  -13.2824 N   0  0  0  0  0  0  0  0  0  0  0  0
   23.2882  -23.5289  -12.8096 C   0  0  0  0  0  0  0  0  0  0  0  0
   22.7106  -24.2292  -14.0394 C   0  0  0  0  0  0  0  0  0  0  0  0
   21.5652  -23.3085  -14.3953 C   0  0  0  0  0  0  0  0  0  0  0  0
   21.8946  -21.9732  -13.7327 C   0  0  1  0  0  0  0  0  0  0  0  0
   20.9436  -21.7914  -12.5862 C   0  0  0  0  0  0  0  0  0  0  0  0
   21.3959  -22.0579  -11.4445 O   0  0  0  0  0  0  0  0  0  0  0  0
   19.6424  -21.3595  -12.7324 O   0  0  0  0  0  0  0  0  0  0  0  0
  2  1  1  0
  2  3  2  0
  4  2  1  0
  5  4  1  0
  5  6  1  0
  6  7  1  1
  8  6  1  0
  8  9  2  0
 10  8  1  0
 11 14  1  0
 11 10  1  0
 11 12  1  1
 13 12  1  0
 14 16  1  0
 15 14  2  0
 16 20  1  0
 17 16  1  0
 18 19  1  0
 18 17  1  0
 19 20  1  0
 20 21  1  1
 21 23  1  0
 22 21  2  0
M  END
$$$$
