QCP.pdb
     RDKit          3D

 23 23  0  0  1  0  0  0  0  0999 V2000
   16.0764  -20.6402  -11.4676 N   0  0  0  0  0  0  0  0  0  0  0  0
   16.9937  -20.7701  -12.5518 C   0  0  0  0  0  0  0  0  0  0  0  0
   17.3590  -19.8288  -13.2781 O   0  0  0  0  0  0  0  0  0  0  0  0
   17.5400  -22.1333  -12.8160 C   0  0  0  0  0  0  0  0  0  0  0  0
   17.0258  -23.0636  -11.7607 C   0  0  0  0  0  0  0  0  0  0  0  0
   18.0815  -23.8876  -11.1058 C   0  0  2  0  0  0  0  0  0  0  0  0
   18.5365  -24.8658  -12.1026 N   0  0  0  0  0  0  0  0  0  0  0  0
   17.6079  -24.5815   -9.8885 C   0  0  0  0  0  0  0  0  0  0  0  0
   16.8394  -25.5519   -9.9888 O   0  0  0  0  0  0  0  0  0  0  0  0
   18.0202  -24.1543   -8.5889 N   0  0  0  0  0  0  0  0  0  0  0  0
   17.5117  -24.8698   -7.4283 C   0  0  1  0  0  0  0  0  0  0  0  0
   18.6494  -24.8921   -6.4316 C   0  0  0  0  0  0  0  0  0  0  0  0
   20.2589  -24.6564   -7.1969 S   0  0  0  0  0  0  0  0  0  0  0  0
   16.2954  -24.1950   -6.9286 C   0  0  0  0  0  0  0  0  0  0  0  0
   16.1053  -23.0054   -7.3747 O   0  0  0  0  0  0  0  0  0  0  0  0
   15.3496  -24.7093   -6.0390 N   0  0  0  0  0  0  0  0  0  0  0  0
   15.4526  -26.0558   -5.4368 C   0  0  0  0  0  0  0  0  0  0  0  0
   14.0625  -26.5927   -5.7776 C   0  0  0  0  0  0  0  0  0  0  0  0
   13.1950  -25.3965   -5.4568 C   0  0  0  0  0  0  0  0  0  0  0  0
   14.1333  -24.1926   -5.4868 C   0  0  1  0  0  0  0  0  0  0  0  0
   14.3181  -23.7288   -4.0717 C   0  0  0  0  0  0  0  0  0  0  0  0
   15.2444  -24.2794   -3.4253 O   0  0  0  0  0  0  0  0  0  0  0  0
   13.5398  -22.7586   -3.4767 O   0  0  0  0  0  0  0  0  0  0  0  0
  2  1  1  0
  2  3  2  0
  4  2  1  0
  5  4  1  0
  5  6  1  0
  6  7  1  6
  8  6  1  0
  8  9  2  0
 10  8  1  0
 11 14  1  0
 11 10  1  0
 11 12  1  1
 13 12  1  0
 14 16  1  0
 15 14  2  0
 16 20  1  0
 17 16  1  0
 18 19  1  0
 18 17  1  0
 19 20  1  0
 20 21  1  1
 21 23  1  0
 22 21  2  0
M  END
$$$$
