QCP.pdb
     RDKit          3D

 23 23  0  0  1  0  0  0  0  0999 V2000
   14.4545  -10.9395  -15.5349 N   0  0  0  0  0  0  0  0  0  0  0  0
   14.4601  -11.4821  -16.8538 C   0  0  0  0  0  0  0  0  0  0  0  0
   13.4549  -11.5674  -17.5814 O   0  0  0  0  0  0  0  0  0  0  0  0
   15.7677  -11.9746  -17.3771 C   0  0  0  0  0  0  0  0  0  0  0  0
   16.8196  -11.7207  -16.3414 C   0  0  0  0  0  0  0  0  0  0  0  0
   18.1829  -12.1825  -16.7294 C   0  0  2  0  0  0  0  0  0  0  0  0
   18.1785  -13.6481  -16.6333 N   0  0  0  0  0  0  0  0  0  0  0  0
   19.2534  -11.6181  -15.8792 C   0  0  0  0  0  0  0  0  0  0  0  0
   19.3175  -11.9273  -14.6781 O   0  0  0  0  0  0  0  0  0  0  0  0
   20.2234  -10.7168  -16.4163 N   0  0  0  0  0  0  0  0  0  0  0  0
   21.1565  -10.0747  -15.5028 C   0  0  1  0  0  0  0  0  0  0  0  0
   22.5220  -10.2362  -16.1334 C   0  0  0  0  0  0  0  0  0  0  0  0
   23.8671   -9.8424  -15.0078 S   0  0  0  0  0  0  0  0  0  0  0  0
   20.7566   -8.6662  -15.3011 C   0  0  0  0  0  0  0  0  0  0  0  0
   20.2172   -8.0977  -16.3190 O   0  0  0  0  0  0  0  0  0  0  0  0
   20.9014   -7.9056  -14.1388 N   0  0  0  0  0  0  0  0  0  0  0  0
   21.4201   -8.4579  -12.8690 C   0  0  0  0  0  0  0  0  0  0  0  0
   20.3107   -8.0009  -11.9220 C   0  0  0  0  0  0  0  0  0  0  0  0
   20.0785   -6.5845  -12.3978 C   0  0  0  0  0  0  0  0  0  0  0  0
   20.6350   -6.5353  -13.8185 C   0  0  1  0  0  0  0  0  0  0  0  0
   21.8929   -5.7180  -13.7827 C   0  0  0  0  0  0  0  0  0  0  0  0
   21.7454   -4.4826  -13.6057 O   0  0  0  0  0  0  0  0  0  0  0  0
   23.1560   -6.2506  -13.9310 O   0  0  0  0  0  0  0  0  0  0  0  0
  2  1  1  0
  2  3  2  0
  4  2  1  0
  5  4  1  0
  5  6  1  0
  6  7  1  1
  8  6  1  0
  8  9  2  0
 10  8  1  0
 11 14  1  0
 11 10  1  0
 11 12  1  6
 13 12  1  0
 14 16  1  0
 15 14  2  0
 16 20  1  0
 17 16  1  0
 18 19  1  0
 18 17  1  0
 19 20  1  0
 20 21  1  1
 21 23  1  0
 22 21  2  0
M  END
$$$$
