QCP.pdb
     RDKit          3D

 23 23  0  0  1  0  0  0  0  0999 V2000
   26.2059  -15.3879  -14.8248 N   0  0  0  0  0  0  0  0  0  0  0  0
   25.7223  -16.1950  -15.8965 C   0  0  0  0  0  0  0  0  0  0  0  0
   24.7087  -15.9344  -16.5687 O   0  0  0  0  0  0  0  0  0  0  0  0
   26.4972  -17.4292  -16.2169 C   0  0  0  0  0  0  0  0  0  0  0  0
   27.6373  -17.5380  -15.2516 C   0  0  0  0  0  0  0  0  0  0  0  0
   28.1785  -18.9186  -15.0986 C   0  0  2  0  0  0  0  0  0  0  0  0
   28.4810  -19.4086  -16.4498 N   0  0  0  0  0  0  0  0  0  0  0  0
   27.2421  -19.8399  -14.4190 C   0  0  0  0  0  0  0  0  0  0  0  0
   26.4968  -20.5715  -15.0910 O   0  0  0  0  0  0  0  0  0  0  0  0
   27.1772  -19.9055  -12.9931 N   0  0  0  0  0  0  0  0  0  0  0  0
   26.2100  -20.8049  -12.3822 C   0  0  1  0  0  0  0  0  0  0  0  0
   26.4308  -20.6892  -10.8901 C   0  0  0  0  0  0  0  0  0  0  0  0
   25.0571  -21.3314   -9.9246 S   0  0  0  0  0  0  0  0  0  0  0  0
   24.8475  -20.4284  -12.8135 C   0  0  0  0  0  0  0  0  0  0  0  0
   24.6656  -19.1745  -13.0249 O   0  0  0  0  0  0  0  0  0  0  0  0
   23.7591  -21.2807  -13.0120 N   0  0  0  0  0  0  0  0  0  0  0  0
   23.8147  -22.7369  -12.7615 C   0  0  0  0  0  0  0  0  0  0  0  0
   23.2729  -23.2447  -14.0976 C   0  0  0  0  0  0  0  0  0  0  0  0
   22.1204  -22.2942  -14.3315 C   0  0  0  0  0  0  0  0  0  0  0  0
   22.4154  -21.0742  -13.4626 C   0  0  1  0  0  0  0  0  0  0  0  0
   21.4391  -21.0847  -12.3231 C   0  0  0  0  0  0  0  0  0  0  0  0
   21.8238  -21.6519  -11.2698 O   0  0  0  0  0  0  0  0  0  0  0  0
   20.1839  -20.5174  -12.3856 O   0  0  0  0  0  0  0  0  0  0  0  0
  2  1  1  0
  2  3  2  0
  4  2  1  0
  5  4  1  0
  5  6  1  0
  6  7  1  6
  8  6  1  0
  8  9  2  0
 10  8  1  0
 11 14  1  0
 11 10  1  0
 11 12  1  1
 13 12  1  0
 14 16  1  0
 15 14  2  0
 16 20  1  0
 17 16  1  0
 18 19  1  0
 18 17  1  0
 19 20  1  0
 20 21  1  1
 21 23  1  0
 22 21  2  0
M  END
$$$$
