MMI.pdb
     RDKit          3D

 25 24  0  0  1  0  0  0  0  0999 V2000
    5.8086  -20.2902   22.0852 C   0  0  0  0  0  0  0  0  0  0  0  0
    6.0275  -20.0853   20.3047 S   0  0  0  0  0  0  0  0  0  0  0  0
    6.3224  -18.3178   19.9615 C   0  0  0  0  0  0  0  0  0  0  0  0
    7.2857  -17.8151   21.0188 C   0  0  0  0  0  0  0  0  0  0  0  0
    7.4307  -16.3280   20.8392 C   0  0  2  0  0  0  0  0  0  0  0  0
    8.1391  -16.0035   19.6181 N   0  0  0  0  0  0  0  0  0  0  0  0
    8.1824  -15.7044   21.9687 C   0  0  0  0  0  0  0  0  0  0  0  0
    9.4524  -15.6739   22.0031 O   0  0  0  0  0  0  0  0  0  0  0  0
    6.6558  -10.7253   26.3816 C   0  0  0  0  0  0  0  0  0  0  0  0
    6.5199  -12.3682   27.1323 S   0  0  0  0  0  0  0  0  0  0  0  0
    7.8026  -13.4903   26.4516 C   0  0  0  0  0  0  0  0  0  0  0  0
    7.2903  -13.9448   25.1202 C   0  0  0  0  0  0  0  0  0  0  0  0
    8.2499  -14.7307   24.2920 C   0  0  2  0  0  0  0  0  0  0  0  0
    7.5219  -15.1067   23.0751 N   0  0  0  0  0  0  0  0  0  0  0  0
    8.6231  -15.9691   25.0269 C   0  0  0  0  0  0  0  0  0  0  0  0
    7.8474  -16.9138   25.2679 O   0  0  0  0  0  0  0  0  0  0  0  0
   13.2716  -17.9727   23.5832 C   0  0  0  0  0  0  0  0  0  0  0  0
   11.8501  -17.7513   24.0842 C   0  0  0  0  0  0  0  0  0  0  0  0
   11.8145  -17.6914   25.5750 C   0  0  2  0  0  0  0  0  0  0  0  0
   12.4299  -18.8978   26.2308 C   0  0  0  0  0  0  0  0  0  0  0  0
   10.4508  -17.3378   26.1208 C   0  0  2  0  0  0  0  0  0  0  0  0
    9.9549  -16.1269   25.5090 N   0  0  0  0  0  0  0  0  0  0  0  0
   10.3768  -17.3103   27.5911 C   0  0  0  0  0  0  0  0  0  0  0  0
   10.3308  -16.2078   28.2000 O   0  0  0  0  0  0  0  0  0  0  0  0
   10.3522  -18.4414   28.3908 O   0  0  0  0  0  0  0  0  0  0  0  0
  1  2  1  0
  3  2  1  0
  3  4  1  0
  5  6  1  6
  5  4  1  0
  7  5  1  0
  8  7  2  0
 10  9  1  0
 10 11  1  0
 12 11  1  0
 13 12  1  1
 13 14  1  0
 14  7  1  0
 15 13  1  0
 15 16  2  0
 17 18  1  0
 18 19  1  0
 19 20  1  1
 21 19  1  0
 21 22  1  6
 22 15  1  0
 23 21  1  0
 24 23  2  0
 25 23  1  0
M  END
$$$$
