MMI.pdb
     RDKit          3D

 25 24  0  0  1  0  0  0  0  0999 V2000
    5.0675  -20.5294   19.1984 C   0  0  0  0  0  0  0  0  0  0  0  0
    4.9725  -21.5106   20.7111 S   0  0  0  0  0  0  0  0  0  0  0  0
    5.3337  -20.4192   22.1279 C   0  0  0  0  0  0  0  0  0  0  0  0
    6.3630  -19.4096   21.6592 C   0  0  0  0  0  0  0  0  0  0  0  0
    7.0253  -18.8277   22.8788 C   0  0  2  0  0  0  0  0  0  0  0  0
    6.0527  -18.4160   23.8702 N   0  0  0  0  0  0  0  0  0  0  0  0
    7.8517  -17.6304   22.5425 C   0  0  0  0  0  0  0  0  0  0  0  0
    9.0479  -17.7277   22.1248 O   0  0  0  0  0  0  0  0  0  0  0  0
    7.6135  -13.0123   17.6842 C   0  0  0  0  0  0  0  0  0  0  0  0
    7.8543  -12.8799   19.4746 S   0  0  0  0  0  0  0  0  0  0  0  0
    7.1213  -14.3302   20.3274 C   0  0  0  0  0  0  0  0  0  0  0  0
    7.3595  -14.1143   21.7896 C   0  0  0  0  0  0  0  0  0  0  0  0
    8.2096  -15.1372   22.4644 C   0  0  2  0  0  0  0  0  0  0  0  0
    7.3495  -16.3077   22.6696 N   0  0  0  0  0  0  0  0  0  0  0  0
    8.6321  -14.6165   23.7923 C   0  0  0  0  0  0  0  0  0  0  0  0
    8.8540  -13.4175   24.0480 O   0  0  0  0  0  0  0  0  0  0  0  0
    6.9848  -11.8718   27.0431 C   0  0  0  0  0  0  0  0  0  0  0  0
    8.1636  -12.7502   26.6438 C   0  0  0  0  0  0  0  0  0  0  0  0
    7.7734  -14.1907   26.6306 C   0  0  2  0  0  0  0  0  0  0  0  0
    7.0383  -14.6164   27.8726 C   0  0  0  0  0  0  0  0  0  0  0  0
    8.9139  -15.1096   26.2597 C   0  0  2  0  0  0  0  0  0  0  0  0
    8.8088  -15.5213   24.8791 N   0  0  0  0  0  0  0  0  0  0  0  0
    9.1040  -16.2403   27.1833 C   0  0  0  0  0  0  0  0  0  0  0  0
    9.3742  -16.0262   28.3956 O   0  0  0  0  0  0  0  0  0  0  0  0
    9.0056  -17.5722   26.8144 O   0  0  0  0  0  0  0  0  0  0  0  0
  1  2  1  0
  3  2  1  0
  3  4  1  0
  5  6  1  1
  5  4  1  0
  7  5  1  0
  8  7  2  0
 10  9  1  0
 10 11  1  0
 12 11  1  0
 13 12  1  1
 13 14  1  0
 14  7  1  0
 15 13  1  0
 15 16  2  0
 17 18  1  0
 18 19  1  0
 19 20  1  1
 21 19  1  0
 21 22  1  6
 22 15  1  0
 23 21  1  0
 24 23  2  0
 25 23  1  0
M  END
$$$$
