MMI.pdb
     RDKit          3D

 25 24  0  0  1  0  0  0  0  0999 V2000
    7.8644  -11.6672   19.2687 C   0  0  0  0  0  0  0  0  0  0  0  0
    8.4061  -12.9664   18.1380 S   0  0  0  0  0  0  0  0  0  0  0  0
    7.7875  -14.5657   18.7612 C   0  0  0  0  0  0  0  0  0  0  0  0
    7.6177  -14.4219   20.2609 C   0  0  0  0  0  0  0  0  0  0  0  0
    8.5549  -15.3939   20.9253 C   0  0  2  0  0  0  0  0  0  0  0  0
    8.0590  -16.7528   20.8476 N   0  0  0  0  0  0  0  0  0  0  0  0
    8.7515  -15.0742   22.3705 C   0  0  0  0  0  0  0  0  0  0  0  0
    9.5614  -14.1768   22.7624 O   0  0  0  0  0  0  0  0  0  0  0  0
    6.3941  -11.6047   25.4578 C   0  0  0  0  0  0  0  0  0  0  0  0
    6.2679  -13.1719   26.3571 S   0  0  0  0  0  0  0  0  0  0  0  0
    5.7915  -14.5276   25.2156 C   0  0  0  0  0  0  0  0  0  0  0  0
    6.8108  -15.6073   25.4075 C   0  0  0  0  0  0  0  0  0  0  0  0
    8.1490  -15.3485   24.8020 C   0  0  2  0  0  0  0  0  0  0  0  0
    8.0437  -15.7555   23.3966 N   0  0  0  0  0  0  0  0  0  0  0  0
    9.1594  -16.2091   25.4739 C   0  0  0  0  0  0  0  0  0  0  0  0
    9.5534  -17.3104   25.0448 O   0  0  0  0  0  0  0  0  0  0  0  0
   10.8181  -15.5278   30.4873 C   0  0  0  0  0  0  0  0  0  0  0  0
   10.8432  -14.7476   29.1791 C   0  0  0  0  0  0  0  0  0  0  0  0
   11.6659  -15.4542   28.1538 C   0  0  2  0  0  0  0  0  0  0  0  0
   12.5107  -14.5223   27.3277 C   0  0  0  0  0  0  0  0  0  0  0  0
   10.8679  -16.4365   27.3286 C   0  0  2  0  0  0  0  0  0  0  0  0
    9.7443  -15.7808   26.7009 N   0  0  0  0  0  0  0  0  0  0  0  0
   10.4879  -17.6628   28.0494 C   0  0  0  0  0  0  0  0  0  0  0  0
    9.2754  -17.8962   28.3019 O   0  0  0  0  0  0  0  0  0  0  0  0
   11.3894  -18.6185   28.4894 O   0  0  0  0  0  0  0  0  0  0  0  0
  1  2  1  0
  3  2  1  0
  3  4  1  0
  5  6  1  1
  5  4  1  0
  7  5  1  0
  8  7  2  0
 10  9  1  0
 10 11  1  0
 12 11  1  0
 13 12  1  1
 13 14  1  0
 14  7  1  0
 15 13  1  0
 15 16  2  0
 17 18  1  0
 18 19  1  0
 19 20  1  6
 21 19  1  0
 21 22  1  1
 22 15  1  0
 23 21  1  0
 24 23  2  0
 25 23  1  0
M  END
$$$$
