MMI.pdb
     RDKit          3D

 25 24  0  0  1  0  0  0  0  0999 V2000
   11.1405  -20.9044   21.9736 C   0  0  0  0  0  0  0  0  0  0  0  0
   12.3294  -20.2194   20.8002 S   0  0  0  0  0  0  0  0  0  0  0  0
   11.9000  -18.4716   20.5009 C   0  0  0  0  0  0  0  0  0  0  0  0
   10.4586  -18.2884   20.9335 C   0  0  0  0  0  0  0  0  0  0  0  0
   10.0800  -16.8547   20.6772 C   0  0  2  0  0  0  0  0  0  0  0  0
   11.0883  -16.1667   19.8973 N   0  0  0  0  0  0  0  0  0  0  0  0
    9.9045  -16.0922   21.9489 C   0  0  0  0  0  0  0  0  0  0  0  0
   10.8611  -15.4623   22.4994 O   0  0  0  0  0  0  0  0  0  0  0  0
    6.5304  -11.7580   26.5606 C   0  0  0  0  0  0  0  0  0  0  0  0
    7.0658  -12.7535   25.1452 S   0  0  0  0  0  0  0  0  0  0  0  0
    6.6383  -14.5189   25.4069 C   0  0  0  0  0  0  0  0  0  0  0  0
    7.0390  -15.2319   24.1529 C   0  0  0  0  0  0  0  0  0  0  0  0
    8.5057  -15.3093   23.8933 C   0  0  2  0  0  0  0  0  0  0  0  0
    8.6551  -16.0251   22.6216 N   0  0  0  0  0  0  0  0  0  0  0  0
    9.1467  -16.1105   24.9704 C   0  0  0  0  0  0  0  0  0  0  0  0
    9.2504  -17.3521   24.9670 O   0  0  0  0  0  0  0  0  0  0  0  0
   10.3329  -13.0290   29.4591 C   0  0  0  0  0  0  0  0  0  0  0  0
   10.6076  -13.8570   28.2102 C   0  0  0  0  0  0  0  0  0  0  0  0
   10.3156  -15.3002   28.4536 C   0  0  2  0  0  0  0  0  0  0  0  0
   11.1159  -15.8833   29.5867 C   0  0  0  0  0  0  0  0  0  0  0  0
   10.3574  -16.1333   27.1940 C   0  0  2  0  0  0  0  0  0  0  0  0
    9.6944  -15.4495   26.1080 N   0  0  0  0  0  0  0  0  0  0  0  0
    9.8914  -17.5188   27.3700 C   0  0  0  0  0  0  0  0  0  0  0  0
   10.7256  -18.4607   27.4427 O   0  0  0  0  0  0  0  0  0  0  0  0
    8.5589  -17.8859   27.4665 O   0  0  0  0  0  0  0  0  0  0  0  0
  1  2  1  0
  3  2  1  0
  3  4  1  0
  5  6  1  6
  5  4  1  0
  7  5  1  0
  8  7  2  0
 10  9  1  0
 10 11  1  0
 12 11  1  0
 13 12  1  1
 13 14  1  0
 14  7  1  0
 15 13  1  0
 15 16  2  0
 17 18  1  0
 18 19  1  0
 19 20  1  1
 21 19  1  0
 21 22  1  6
 22 15  1  0
 23 21  1  0
 24 23  2  0
 25 23  1  0
M  END
$$$$
