MMI.pdb
     RDKit          3D

 25 24  0  0  1  0  0  0  0  0999 V2000
    8.4835  -12.0065   19.0917 C   0  0  0  0  0  0  0  0  0  0  0  0
    7.2178  -13.2377   18.7148 S   0  0  0  0  0  0  0  0  0  0  0  0
    7.3957  -14.6230   19.8887 C   0  0  0  0  0  0  0  0  0  0  0  0
    8.8815  -14.8374   20.1002 C   0  0  0  0  0  0  0  0  0  0  0  0
    9.0479  -15.8726   21.1797 C   0  0  2  0  0  0  0  0  0  0  0  0
    7.9014  -16.7546   21.2559 N   0  0  0  0  0  0  0  0  0  0  0  0
    9.2185  -15.2477   22.5250 C   0  0  0  0  0  0  0  0  0  0  0  0
   10.3070  -14.6998   22.8851 O   0  0  0  0  0  0  0  0  0  0  0  0
    6.4372  -10.4448   26.0581 C   0  0  0  0  0  0  0  0  0  0  0  0
    5.7602  -12.0641   26.5058 S   0  0  0  0  0  0  0  0  0  0  0  0
    7.0908  -13.3277   26.5348 C   0  0  0  0  0  0  0  0  0  0  0  0
    7.1602  -13.8873   25.1480 C   0  0  0  0  0  0  0  0  0  0  0  0
    8.3781  -14.6889   24.8341 C   0  0  2  0  0  0  0  0  0  0  0  0
    8.1721  -15.2283   23.4856 N   0  0  0  0  0  0  0  0  0  0  0  0
    8.4723  -15.8226   25.7926 C   0  0  0  0  0  0  0  0  0  0  0  0
    8.4215  -15.7114   27.0325 O   0  0  0  0  0  0  0  0  0  0  0  0
    5.8886  -20.1981   24.3658 C   0  0  0  0  0  0  0  0  0  0  0  0
    6.6098  -19.0295   25.0254 C   0  0  0  0  0  0  0  0  0  0  0  0
    7.9290  -19.4600   25.5749 C   0  0  2  0  0  0  0  0  0  0  0  0
    7.8277  -20.6431   26.4991 C   0  0  0  0  0  0  0  0  0  0  0  0
    8.7345  -18.3161   26.1452 C   0  0  2  0  0  0  0  0  0  0  0  0
    8.6338  -17.1498   25.2990 N   0  0  0  0  0  0  0  0  0  0  0  0
   10.1253  -18.6642   26.4802 C   0  0  0  0  0  0  0  0  0  0  0  0
   11.0456  -18.4618   25.6433 O   0  0  0  0  0  0  0  0  0  0  0  0
   10.5204  -19.2172   27.6876 O   0  0  0  0  0  0  0  0  0  0  0  0
  1  2  1  0
  3  2  1  0
  3  4  1  0
  5  6  1  1
  5  4  1  0
  7  5  1  0
  8  7  2  0
 10  9  1  0
 10 11  1  0
 12 11  1  0
 13 12  1  1
 13 14  1  0
 14  7  1  0
 15 13  1  0
 15 16  2  0
 17 18  1  0
 18 19  1  0
 19 20  1  1
 21 19  1  0
 21 22  1  6
 22 15  1  0
 23 21  1  0
 24 23  2  0
 25 23  1  0
M  END
$$$$
