MMI.pdb
     RDKit          3D

 25 24  0  0  1  0  0  0  0  0999 V2000
    8.4522  -18.8833   28.3703 C   0  0  0  0  0  0  0  0  0  0  0  0
    7.0975  -20.0769   28.3628 S   0  0  0  0  0  0  0  0  0  0  0  0
    6.4035  -20.1482   26.6770 C   0  0  0  0  0  0  0  0  0  0  0  0
    7.1955  -19.1723   25.8293 C   0  0  0  0  0  0  0  0  0  0  0  0
    6.6358  -19.2160   24.4331 C   0  0  2  0  0  0  0  0  0  0  0  0
    6.7171  -20.5464   23.8659 N   0  0  0  0  0  0  0  0  0  0  0  0
    7.3680  -18.2951   23.5136 C   0  0  0  0  0  0  0  0  0  0  0  0
    8.4461  -18.6333   22.9321 O   0  0  0  0  0  0  0  0  0  0  0  0
    7.5223  -11.7975   19.1633 C   0  0  0  0  0  0  0  0  0  0  0  0
    6.7459  -13.2525   19.9123 S   0  0  0  0  0  0  0  0  0  0  0  0
    7.8458  -13.9776   21.1900 C   0  0  0  0  0  0  0  0  0  0  0  0
    7.0880  -15.1228   21.7865 C   0  0  0  0  0  0  0  0  0  0  0  0
    7.8195  -15.9160   22.8163 C   0  0  2  0  0  0  0  0  0  0  0  0
    6.9026  -16.9825   23.2332 N   0  0  0  0  0  0  0  0  0  0  0  0
    8.1026  -15.0445   23.9882 C   0  0  0  0  0  0  0  0  0  0  0  0
    7.7456  -13.8554   24.0927 O   0  0  0  0  0  0  0  0  0  0  0  0
    6.5752  -12.1267   26.2799 C   0  0  0  0  0  0  0  0  0  0  0  0
    7.6781  -12.9837   25.6716 C   0  0  0  0  0  0  0  0  0  0  0  0
    8.3341  -13.8260   26.7145 C   0  0  2  0  0  0  0  0  0  0  0  0
    8.8056  -13.0346   27.9043 C   0  0  0  0  0  0  0  0  0  0  0  0
    9.3856  -14.7533   26.1514 C   0  0  2  0  0  0  0  0  0  0  0  0
    8.8337  -15.5679   25.0939 N   0  0  0  0  0  0  0  0  0  0  0  0
   10.1038  -15.5404   27.1674 C   0  0  0  0  0  0  0  0  0  0  0  0
    9.8503  -16.7666   27.3110 O   0  0  0  0  0  0  0  0  0  0  0  0
   11.0738  -15.0233   28.0109 O   0  0  0  0  0  0  0  0  0  0  0  0
  1  2  1  0
  3  2  1  0
  3  4  1  0
  5  6  1  6
  5  4  1  0
  7  5  1  0
  8  7  2  0
 10  9  1  0
 10 11  1  0
 12 11  1  0
 13 12  1  6
 13 14  1  0
 14  7  1  0
 15 13  1  0
 15 16  2  0
 17 18  1  0
 18 19  1  0
 19 20  1  1
 21 19  1  0
 21 22  1  6
 22 15  1  0
 23 21  1  0
 24 23  2  0
 25 23  1  0
M  END
$$$$
