MMI.pdb
     RDKit          3D

 25 24  0  0  1  0  0  0  0  0999 V2000
    7.7653  -19.7642   28.7656 C   0  0  0  0  0  0  0  0  0  0  0  0
    7.1412  -21.1230   27.7537 S   0  0  0  0  0  0  0  0  0  0  0  0
    6.2732  -20.4154   26.3133 C   0  0  0  0  0  0  0  0  0  0  0  0
    7.2339  -19.4510   25.6460 C   0  0  0  0  0  0  0  0  0  0  0  0
    6.5175  -18.8186   24.4834 C   0  0  2  0  0  0  0  0  0  0  0  0
    6.3286  -19.7578   23.3969 N   0  0  0  0  0  0  0  0  0  0  0  0
    7.2716  -17.6516   23.9365 C   0  0  0  0  0  0  0  0  0  0  0  0
    7.9783  -17.7341   22.8835 O   0  0  0  0  0  0  0  0  0  0  0  0
    6.3743  -11.9041   26.3917 C   0  0  0  0  0  0  0  0  0  0  0  0
    5.3392  -12.4114   24.9945 S   0  0  0  0  0  0  0  0  0  0  0  0
    5.9269  -14.0097   24.3105 C   0  0  0  0  0  0  0  0  0  0  0  0
    7.4120  -14.0197   24.4998 C   0  0  0  0  0  0  0  0  0  0  0  0
    8.1059  -15.2798   24.1059 C   0  0  2  0  0  0  0  0  0  0  0  0
    7.2447  -16.3764   24.5617 N   0  0  0  0  0  0  0  0  0  0  0  0
    9.4053  -15.3626   24.8251 C   0  0  0  0  0  0  0  0  0  0  0  0
   10.4059  -14.6661   24.5681 O   0  0  0  0  0  0  0  0  0  0  0  0
    9.4407  -13.9382   29.4358 C   0  0  0  0  0  0  0  0  0  0  0  0
    9.7905  -14.4379   28.0399 C   0  0  0  0  0  0  0  0  0  0  0  0
   10.4360  -15.7822   28.1020 C   0  0  2  0  0  0  0  0  0  0  0  0
   11.6100  -15.8323   29.0419 C   0  0  0  0  0  0  0  0  0  0  0  0
   10.7300  -16.3613   26.7379 C   0  0  2  0  0  0  0  0  0  0  0  0
    9.5607  -16.2941   25.8925 N   0  0  0  0  0  0  0  0  0  0  0  0
   11.3403  -17.7008   26.7687 C   0  0  0  0  0  0  0  0  0  0  0  0
   10.6551  -18.7135   26.4631 O   0  0  0  0  0  0  0  0  0  0  0  0
   12.6576  -17.9485   27.1194 O   0  0  0  0  0  0  0  0  0  0  0  0
  1  2  1  0
  3  2  1  0
  3  4  1  0
  5  6  1  6
  5  4  1  0
  7  5  1  0
  8  7  2  0
 10  9  1  0
 10 11  1  0
 12 11  1  0
 13 12  1  1
 13 14  1  0
 14  7  1  0
 15 13  1  0
 15 16  2  0
 17 18  1  0
 18 19  1  0
 19 20  1  1
 21 19  1  0
 21 22  1  6
 22 15  1  0
 23 21  1  0
 24 23  2  0
 25 23  1  0
M  END
$$$$
