MMI.pdb
     RDKit          3D

 25 24  0  0  1  0  0  0  0  0999 V2000
    1.6315  -18.4841   20.7757 C   0  0  0  0  0  0  0  0  0  0  0  0
    2.6684  -19.9621   20.7916 S   0  0  0  0  0  0  0  0  0  0  0  0
    3.8509  -19.8198   22.1738 C   0  0  0  0  0  0  0  0  0  0  0  0
    4.9577  -18.8900   21.7170 C   0  0  0  0  0  0  0  0  0  0  0  0
    5.8997  -18.6928   22.8740 C   0  0  2  0  0  0  0  0  0  0  0  0
    5.2523  -18.0207   23.9819 N   0  0  0  0  0  0  0  0  0  0  0  0
    7.0865  -17.8727   22.4885 C   0  0  0  0  0  0  0  0  0  0  0  0
    8.1066  -18.3792   21.9249 O   0  0  0  0  0  0  0  0  0  0  0  0
    8.0990  -12.0058   20.0584 C   0  0  0  0  0  0  0  0  0  0  0  0
    7.3852  -13.4414   19.2155 S   0  0  0  0  0  0  0  0  0  0  0  0
    6.9550  -14.7478   20.4305 C   0  0  0  0  0  0  0  0  0  0  0  0
    7.7897  -14.4758   21.6432 C   0  0  0  0  0  0  0  0  0  0  0  0
    8.3193  -15.6794   22.3471 C   0  0  2  0  0  0  0  0  0  0  0  0
    7.1469  -16.4741   22.7295 N   0  0  0  0  0  0  0  0  0  0  0  0
    9.0261  -15.2464   23.5823 C   0  0  0  0  0  0  0  0  0  0  0  0
   10.1197  -14.6500   23.6037 O   0  0  0  0  0  0  0  0  0  0  0  0
    6.4694  -12.2619   26.5858 C   0  0  0  0  0  0  0  0  0  0  0  0
    7.4673  -13.1512   25.8551 C   0  0  0  0  0  0  0  0  0  0  0  0
    8.1359  -14.0909   26.8023 C   0  0  2  0  0  0  0  0  0  0  0  0
    8.8010  -13.3932   27.9578 C   0  0  0  0  0  0  0  0  0  0  0  0
    9.0273  -15.0951   26.1098 C   0  0  2  0  0  0  0  0  0  0  0  0
    8.4453  -15.5143   24.8560 N   0  0  0  0  0  0  0  0  0  0  0  0
    9.4379  -16.2256   26.9589 C   0  0  0  0  0  0  0  0  0  0  0  0
    8.8260  -17.3250   26.8851 O   0  0  0  0  0  0  0  0  0  0  0  0
   10.4830  -16.1780   27.8673 O   0  0  0  0  0  0  0  0  0  0  0  0
  1  2  1  0
  3  2  1  0
  3  4  1  0
  5  6  1  1
  5  4  1  0
  7  5  1  0
  8  7  2  0
 10  9  1  0
 10 11  1  0
 12 11  1  0
 13 12  1  1
 13 14  1  0
 14  7  1  0
 15 13  1  0
 15 16  2  0
 17 18  1  0
 18 19  1  0
 19 20  1  1
 21 19  1  0
 21 22  1  6
 22 15  1  0
 23 21  1  0
 24 23  2  0
 25 23  1  0
M  END
$$$$
