MMI.pdb
     RDKit          3D

 25 24  0  0  1  0  0  0  0  0999 V2000
    8.2208  -22.7105   18.9397 C   0  0  0  0  0  0  0  0  0  0  0  0
    8.6375  -20.9663   19.1503 S   0  0  0  0  0  0  0  0  0  0  0  0
    7.5398  -20.2631   20.4267 C   0  0  0  0  0  0  0  0  0  0  0  0
    7.9372  -18.8106   20.6025 C   0  0  0  0  0  0  0  0  0  0  0  0
    8.0038  -18.5274   22.0791 C   0  0  2  0  0  0  0  0  0  0  0  0
    6.6870  -18.5234   22.6827 N   0  0  0  0  0  0  0  0  0  0  0  0
    8.6262  -17.1997   22.3609 C   0  0  0  0  0  0  0  0  0  0  0  0
    9.7427  -16.8545   21.8618 O   0  0  0  0  0  0  0  0  0  0  0  0
    5.3862  -13.0986   25.8605 C   0  0  0  0  0  0  0  0  0  0  0  0
    6.9040  -12.1141   25.7703 S   0  0  0  0  0  0  0  0  0  0  0  0
    7.9476  -12.6748   24.3687 C   0  0  0  0  0  0  0  0  0  0  0  0
    7.5803  -14.1057   24.1260 C   0  0  0  0  0  0  0  0  0  0  0  0
    8.6339  -14.9441   23.4845 C   0  0  2  0  0  0  0  0  0  0  0  0
    8.0066  -16.2406   23.2060 N   0  0  0  0  0  0  0  0  0  0  0  0
    9.7453  -15.1494   24.4518 C   0  0  0  0  0  0  0  0  0  0  0  0
   10.8501  -14.5761   24.3975 O   0  0  0  0  0  0  0  0  0  0  0  0
    9.6301  -13.4706   29.0203 C   0  0  0  0  0  0  0  0  0  0  0  0
   10.1063  -14.1074   27.7209 C   0  0  0  0  0  0  0  0  0  0  0  0
   10.1647  -15.5934   27.8466 C   0  0  2  0  0  0  0  0  0  0  0  0
   10.9466  -16.0557   29.0462 C   0  0  0  0  0  0  0  0  0  0  0  0
   10.5669  -16.2807   26.5627 C   0  0  2  0  0  0  0  0  0  0  0  0
    9.5765  -16.0607   25.5345 N   0  0  0  0  0  0  0  0  0  0  0  0
   10.9227  -17.7004   26.7229 C   0  0  0  0  0  0  0  0  0  0  0  0
   10.0578  -18.5944   26.5203 O   0  0  0  0  0  0  0  0  0  0  0  0
   12.1797  -18.1513   27.0921 O   0  0  0  0  0  0  0  0  0  0  0  0
  1  2  1  0
  3  2  1  0
  3  4  1  0
  5  6  1  6
  5  4  1  0
  7  5  1  0
  8  7  2  0
 10  9  1  0
 10 11  1  0
 12 11  1  0
 13 12  1  1
 13 14  1  0
 14  7  1  0
 15 13  1  0
 15 16  2  0
 17 18  1  0
 18 19  1  0
 19 20  1  1
 21 19  1  0
 21 22  1  6
 22 15  1  0
 23 21  1  0
 24 23  2  0
 25 23  1  0
M  END
$$$$
