MMI.pdb
     RDKit          3D

 25 24  0  0  1  0  0  0  0  0999 V2000
    9.2182  -12.0296   19.3540 C   0  0  0  0  0  0  0  0  0  0  0  0
    8.2646  -12.7118   17.9810 S   0  0  0  0  0  0  0  0  0  0  0  0
    8.2822  -14.5311   18.1168 C   0  0  0  0  0  0  0  0  0  0  0  0
    7.9622  -14.8716   19.5591 C   0  0  0  0  0  0  0  0  0  0  0  0
    8.2040  -16.3448   19.7485 C   0  0  2  0  0  0  0  0  0  0  0  0
    7.2536  -17.1430   19.0016 N   0  0  0  0  0  0  0  0  0  0  0  0
    8.0906  -16.7449   21.1827 C   0  0  0  0  0  0  0  0  0  0  0  0
    6.9753  -17.0289   21.7213 O   0  0  0  0  0  0  0  0  0  0  0  0
   13.3141  -18.5844   25.0306 C   0  0  0  0  0  0  0  0  0  0  0  0
   11.8133  -19.5568   25.3186 S   0  0  0  0  0  0  0  0  0  0  0  0
   10.3273  -18.4848   25.2162 C   0  0  0  0  0  0  0  0  0  0  0  0
   10.1872  -18.1087   23.7739 C   0  0  0  0  0  0  0  0  0  0  0  0
    9.0924  -17.1457   23.4600 C   0  0  2  0  0  0  0  0  0  0  0  0
    9.2251  -16.8320   22.0331 N   0  0  0  0  0  0  0  0  0  0  0  0
    9.3036  -15.8995   24.2444 C   0  0  0  0  0  0  0  0  0  0  0  0
   10.1557  -15.0295   23.9812 O   0  0  0  0  0  0  0  0  0  0  0  0
    6.4954  -11.4501   26.9879 C   0  0  0  0  0  0  0  0  0  0  0  0
    7.7221  -12.3514   27.0506 C   0  0  0  0  0  0  0  0  0  0  0  0
    7.5099  -13.5952   26.2537 C   0  0  2  0  0  0  0  0  0  0  0  0
    6.2028  -14.2764   26.5563 C   0  0  0  0  0  0  0  0  0  0  0  0
    8.6979  -14.5282   26.2848 C   0  0  2  0  0  0  0  0  0  0  0  0
    8.4944  -15.6431   25.3892 N   0  0  0  0  0  0  0  0  0  0  0  0
    9.1040  -14.9447   27.6374 C   0  0  0  0  0  0  0  0  0  0  0  0
    8.9684  -16.1455   27.9951 O   0  0  0  0  0  0  0  0  0  0  0  0
    9.6446  -14.0912   28.5855 O   0  0  0  0  0  0  0  0  0  0  0  0
  1  2  1  0
  3  2  1  0
  3  4  1  0
  5  6  1  6
  5  4  1  0
  7  5  1  0
  8  7  2  0
 10  9  1  0
 10 11  1  0
 12 11  1  0
 13 12  1  1
 13 14  1  0
 14  7  1  0
 15 13  1  0
 15 16  2  0
 17 18  1  0
 18 19  1  0
 19 20  1  1
 21 19  1  0
 21 22  1  6
 22 15  1  0
 23 21  1  0
 24 23  2  0
 25 23  1  0
M  END
$$$$
