MMI.pdb
     RDKit          3D

 25 24  0  0  1  0  0  0  0  0999 V2000
    8.3617  -11.7224   19.2716 C   0  0  0  0  0  0  0  0  0  0  0  0
    7.2673  -13.0681   18.7702 S   0  0  0  0  0  0  0  0  0  0  0  0
    7.5079  -14.4637   19.9206 C   0  0  0  0  0  0  0  0  0  0  0  0
    8.8433  -15.0950   19.5792 C   0  0  0  0  0  0  0  0  0  0  0  0
    9.1019  -16.1920   20.5765 C   0  0  2  0  0  0  0  0  0  0  0  0
    8.0459  -17.1835   20.5665 N   0  0  0  0  0  0  0  0  0  0  0  0
    9.2017  -15.6625   21.9690 C   0  0  0  0  0  0  0  0  0  0  0  0
   10.2027  -14.9893   22.3684 O   0  0  0  0  0  0  0  0  0  0  0  0
    6.5954  -11.5863   25.8941 C   0  0  0  0  0  0  0  0  0  0  0  0
    5.6072  -13.0941   25.7178 S   0  0  0  0  0  0  0  0  0  0  0  0
    6.6271  -14.5741   26.0888 C   0  0  0  0  0  0  0  0  0  0  0  0
    6.8388  -15.2693   24.7799 C   0  0  0  0  0  0  0  0  0  0  0  0
    8.2377  -15.2625   24.2627 C   0  0  2  0  0  0  0  0  0  0  0  0
    8.1815  -15.8802   22.9333 N   0  0  0  0  0  0  0  0  0  0  0  0
    9.0850  -16.1074   25.1464 C   0  0  0  0  0  0  0  0  0  0  0  0
    9.3163  -17.3180   24.9639 O   0  0  0  0  0  0  0  0  0  0  0  0
   10.8266  -13.9155   30.2393 C   0  0  0  0  0  0  0  0  0  0  0  0
   10.2101  -14.9462   29.3021 C   0  0  0  0  0  0  0  0  0  0  0  0
   11.1677  -15.3225   28.2210 C   0  0  2  0  0  0  0  0  0  0  0  0
   11.8739  -14.1388   27.6172 C   0  0  0  0  0  0  0  0  0  0  0  0
   10.5659  -16.2539   27.1949 C   0  0  2  0  0  0  0  0  0  0  0  0
    9.6954  -15.5302   26.2976 N   0  0  0  0  0  0  0  0  0  0  0  0
    9.9326  -17.4541   27.7659 C   0  0  0  0  0  0  0  0  0  0  0  0
   10.6428  -18.3529   28.2913 O   0  0  0  0  0  0  0  0  0  0  0  0
    8.5664  -17.6848   27.7736 O   0  0  0  0  0  0  0  0  0  0  0  0
  1  2  1  0
  3  2  1  0
  3  4  1  0
  5  6  1  1
  5  4  1  0
  7  5  1  0
  8  7  2  0
 10  9  1  0
 10 11  1  0
 12 11  1  0
 13 12  1  1
 13 14  1  0
 14  7  1  0
 15 13  1  0
 15 16  2  0
 17 18  1  0
 18 19  1  0
 19 20  1  6
 21 19  1  0
 21 22  1  1
 22 15  1  0
 23 21  1  0
 24 23  2  0
 25 23  1  0
M  END
$$$$
