MMI.pdb
     RDKit          3D

 25 24  0  0  1  0  0  0  0  0999 V2000
    5.8778  -19.4096   21.0784 C   0  0  0  0  0  0  0  0  0  0  0  0
    6.4423  -19.0081   19.4110 S   0  0  0  0  0  0  0  0  0  0  0  0
    6.9202  -17.2477   19.3742 C   0  0  0  0  0  0  0  0  0  0  0  0
    7.7894  -16.9983   20.5910 C   0  0  0  0  0  0  0  0  0  0  0  0
    7.9717  -15.5109   20.7292 C   0  0  2  0  0  0  0  0  0  0  0  0
    8.7702  -14.9675   19.6496 N   0  0  0  0  0  0  0  0  0  0  0  0
    8.6518  -15.1526   22.0093 C   0  0  0  0  0  0  0  0  0  0  0  0
    9.9155  -15.1860   22.1382 O   0  0  0  0  0  0  0  0  0  0  0  0
    6.1269  -12.7414   27.5898 C   0  0  0  0  0  0  0  0  0  0  0  0
    6.6309  -11.5536   26.3185 S   0  0  0  0  0  0  0  0  0  0  0  0
    7.3007  -12.4316   24.8528 C   0  0  0  0  0  0  0  0  0  0  0  0
    7.6215  -13.8197   25.3129 C   0  0  0  0  0  0  0  0  0  0  0  0
    8.5840  -14.5771   24.4617 C   0  0  2  0  0  0  0  0  0  0  0  0
    7.9255  -14.7523   23.1626 N   0  0  0  0  0  0  0  0  0  0  0  0
    8.8139  -15.9172   25.0651 C   0  0  0  0  0  0  0  0  0  0  0  0
    7.9761  -16.8390   25.0896 O   0  0  0  0  0  0  0  0  0  0  0  0
   12.5845  -18.8326   23.3873 C   0  0  0  0  0  0  0  0  0  0  0  0
   11.3557  -18.2436   24.0686 C   0  0  0  0  0  0  0  0  0  0  0  0
   11.5722  -18.1169   25.5397 C   0  0  2  0  0  0  0  0  0  0  0  0
   12.0552  -19.3907   26.1789 C   0  0  0  0  0  0  0  0  0  0  0  0
   10.4018  -17.4873   26.2583 C   0  0  2  0  0  0  0  0  0  0  0  0
   10.0701  -16.2099   25.6711 N   0  0  0  0  0  0  0  0  0  0  0  0
   10.5537  -17.4246   27.7215 C   0  0  0  0  0  0  0  0  0  0  0  0
   10.6416  -18.4876   28.3928 O   0  0  0  0  0  0  0  0  0  0  0  0
   10.6106  -16.2467   28.4487 O   0  0  0  0  0  0  0  0  0  0  0  0
  1  2  1  0
  3  2  1  0
  3  4  1  0
  5  6  1  6
  5  4  1  0
  7  5  1  0
  8  7  2  0
 10  9  1  0
 10 11  1  0
 12 11  1  0
 13 12  1  1
 13 14  1  0
 14  7  1  0
 15 13  1  0
 15 16  2  0
 17 18  1  0
 18 19  1  0
 19 20  1  1
 21 19  1  0
 21 22  1  6
 22 15  1  0
 23 21  1  0
 24 23  2  0
 25 23  1  0
M  END
$$$$
