MMI.pdb
     RDKit          3D

 25 24  0  0  1  0  0  0  0  0999 V2000
    2.8321  -17.6074   19.8595 C   0  0  0  0  0  0  0  0  0  0  0  0
    2.6003  -18.5868   21.3585 S   0  0  0  0  0  0  0  0  0  0  0  0
    4.2217  -18.7873   22.1707 C   0  0  0  0  0  0  0  0  0  0  0  0
    5.2574  -18.1680   21.2529 C   0  0  0  0  0  0  0  0  0  0  0  0
    6.6093  -18.3696   21.8824 C   0  0  2  0  0  0  0  0  0  0  0  0
    6.5371  -19.2428   23.0360 N   0  0  0  0  0  0  0  0  0  0  0  0
    7.2062  -17.0791   22.3382 C   0  0  0  0  0  0  0  0  0  0  0  0
    7.8227  -16.2998   21.5460 O   0  0  0  0  0  0  0  0  0  0  0  0
    5.2706  -13.0026   26.1236 C   0  0  0  0  0  0  0  0  0  0  0  0
    6.9582  -12.3533   26.2304 S   0  0  0  0  0  0  0  0  0  0  0  0
    8.1610  -13.5940   25.6125 C   0  0  0  0  0  0  0  0  0  0  0  0
    7.3465  -14.6885   24.9960 C   0  0  0  0  0  0  0  0  0  0  0  0
    8.1175  -15.7356   24.2656 C   0  0  2  0  0  0  0  0  0  0  0  0
    7.1209  -16.6438   23.6877 N   0  0  0  0  0  0  0  0  0  0  0  0
    8.9469  -16.4945   25.2398 C   0  0  0  0  0  0  0  0  0  0  0  0
    8.8187  -17.7085   25.4890 O   0  0  0  0  0  0  0  0  0  0  0  0
   10.7383  -13.5229   29.1605 C   0  0  0  0  0  0  0  0  0  0  0  0
   10.5995  -15.0205   28.9180 C   0  0  0  0  0  0  0  0  0  0  0  0
   11.5046  -15.4678   27.8189 C   0  0  2  0  0  0  0  0  0  0  0  0
   12.1651  -14.3262   27.0944 C   0  0  0  0  0  0  0  0  0  0  0  0
   10.8618  -16.4768   26.8963 C   0  0  2  0  0  0  0  0  0  0  0  0
    9.9741  -15.8220   25.9636 N   0  0  0  0  0  0  0  0  0  0  0  0
   10.2310  -17.6129   27.5885 C   0  0  0  0  0  0  0  0  0  0  0  0
    8.9762  -17.7306   27.5940 O   0  0  0  0  0  0  0  0  0  0  0  0
   10.9316  -18.6019   28.2599 O   0  0  0  0  0  0  0  0  0  0  0  0
  1  2  1  0
  3  2  1  0
  3  4  1  0
  5  6  1  1
  5  4  1  0
  7  5  1  0
  8  7  2  0
 10  9  1  0
 10 11  1  0
 12 11  1  0
 13 12  1  1
 13 14  1  0
 14  7  1  0
 15 13  1  0
 15 16  2  0
 17 18  1  0
 18 19  1  0
 19 20  1  6
 21 19  1  0
 21 22  1  1
 22 15  1  0
 23 21  1  0
 24 23  2  0
 25 23  1  0
M  END
$$$$
