MMI.pdb
     RDKit          3D

 25 24  0  0  1  0  0  0  0  0999 V2000
    8.1895  -19.2372   28.7847 C   0  0  0  0  0  0  0  0  0  0  0  0
    6.5362  -19.9145   28.5246 S   0  0  0  0  0  0  0  0  0  0  0  0
    6.2357  -20.0235   26.7283 C   0  0  0  0  0  0  0  0  0  0  0  0
    7.0565  -18.9296   26.0739 C   0  0  0  0  0  0  0  0  0  0  0  0
    6.7865  -18.9747   24.5941 C   0  0  2  0  0  0  0  0  0  0  0  0
    6.8143  -20.3312   24.0866 N   0  0  0  0  0  0  0  0  0  0  0  0
    7.7961  -18.1905   23.8226 C   0  0  0  0  0  0  0  0  0  0  0  0
    8.8684  -18.7120   23.3833 O   0  0  0  0  0  0  0  0  0  0  0  0
    7.0933  -12.3727   21.1524 C   0  0  0  0  0  0  0  0  0  0  0  0
    6.4034  -13.8443   20.3529 S   0  0  0  0  0  0  0  0  0  0  0  0
    6.9932  -15.3650   21.1941 C   0  0  0  0  0  0  0  0  0  0  0  0
    8.0284  -14.9179   22.1789 C   0  0  0  0  0  0  0  0  0  0  0  0
    8.6970  -16.0038   22.9524 C   0  0  2  0  0  0  0  0  0  0  0  0
    7.6185  -16.8112   23.5330 N   0  0  0  0  0  0  0  0  0  0  0  0
    9.4864  -15.3963   24.0572 C   0  0  0  0  0  0  0  0  0  0  0  0
   10.5353  -14.7415   23.9049 O   0  0  0  0  0  0  0  0  0  0  0  0
    6.6824  -12.7372   27.4078 C   0  0  0  0  0  0  0  0  0  0  0  0
    7.7894  -13.3316   26.5464 C   0  0  0  0  0  0  0  0  0  0  0  0
    8.7180  -14.1600   27.3702 C   0  0  2  0  0  0  0  0  0  0  0  0
    9.3580  -13.3913   28.4944 C   0  0  0  0  0  0  0  0  0  0  0  0
    9.7043  -14.9472   26.5394 C   0  0  2  0  0  0  0  0  0  0  0  0
    9.0468  -15.5514   25.4040 N   0  0  0  0  0  0  0  0  0  0  0  0
   10.5152  -15.9046   27.3099 C   0  0  0  0  0  0  0  0  0  0  0  0
   10.0710  -17.0598   27.5476 O   0  0  0  0  0  0  0  0  0  0  0  0
   11.7758  -15.6286   27.8141 O   0  0  0  0  0  0  0  0  0  0  0  0
  1  2  1  0
  3  2  1  0
  3  4  1  0
  5  6  1  6
  5  4  1  0
  7  5  1  0
  8  7  2  0
 10  9  1  0
 10 11  1  0
 12 11  1  0
 13 12  1  6
 13 14  1  0
 14  7  1  0
 15 13  1  0
 15 16  2  0
 17 18  1  0
 18 19  1  0
 19 20  1  1
 21 19  1  0
 21 22  1  6
 22 15  1  0
 23 21  1  0
 24 23  2  0
 25 23  1  0
M  END
$$$$
