YDV.pdb
     RDKit          3D

 28 28  0  0  1  0  0  0  0  0999 V2000
   31.7395  -16.2843  -19.3198 O   0  0  0  0  0  0  0  0  0  0  0  0
   30.6285  -16.4893  -18.4941 C   0  0  0  0  0  0  0  0  0  0  0  0
   30.6502  -17.5164  -17.5805 C   0  0  0  0  0  0  0  0  0  0  0  0
   29.5627  -17.7460  -16.7454 C   0  0  0  0  0  0  0  0  0  0  0  0
   28.4504  -16.9469  -16.8249 C   0  0  0  0  0  0  0  0  0  0  0  0
   27.2958  -17.1899  -15.9482 C   0  0  0  0  0  0  0  0  0  0  0  0
   26.3222  -18.2243  -16.4695 C   0  0  2  0  0  0  0  0  0  0  0  0
   25.7152  -17.7004  -17.6861 N   0  0  0  0  0  0  0  0  0  0  0  0
   25.3175  -18.5113  -15.4355 C   0  0  0  0  0  0  0  0  0  0  0  0
   24.4111  -17.6811  -15.2060 O   0  0  0  0  0  0  0  0  0  0  0  0
   28.4446  -15.9247  -17.7430 C   0  0  0  0  0  0  0  0  0  0  0  0
   29.5126  -15.6768  -18.5828 C   0  0  0  0  0  0  0  0  0  0  0  0
   25.2861  -19.7106  -14.6363 N   0  0  0  0  0  0  0  0  0  0  0  0
   24.2334  -19.9531  -13.6913 C   0  0  1  0  0  0  0  0  0  0  0  0
   23.0078  -20.5170  -14.3714 C   0  0  0  0  0  0  0  0  0  0  0  0
   21.8999  -20.7644  -13.4614 C   0  0  0  0  0  0  0  0  0  0  0  0
   21.4897  -19.9045  -12.6361 O   0  0  0  0  0  0  0  0  0  0  0  0
   24.6809  -20.8451  -12.5747 C   0  0  0  0  0  0  0  0  0  0  0  0
   24.8939  -22.0640  -12.7662 O   0  0  0  0  0  0  0  0  0  0  0  0
   21.2399  -21.9831  -13.4678 O   0  0  0  0  0  0  0  0  0  0  0  0
   25.6731  -19.2712   -8.5915 C   0  0  0  0  0  0  0  0  0  0  0  0
   26.0121  -20.6542   -9.1154 C   0  0  2  0  0  0  0  0  0  0  0  0
   27.3703  -20.5720   -9.7673 C   0  0  0  0  0  0  0  0  0  0  0  0
   24.9365  -21.1494  -10.0619 C   0  0  2  0  0  0  0  0  0  0  0  0
   24.8792  -20.3383  -11.2614 N   0  0  0  0  0  0  0  0  0  0  0  0
   23.6233  -21.2731   -9.4082 C   0  0  0  0  0  0  0  0  0  0  0  0
   22.6816  -20.5494   -9.8234 O   0  0  0  0  0  0  0  0  0  0  0  0
   23.3508  -22.1316   -8.3671 O   0  0  0  0  0  0  0  0  0  0  0  0
  2  1  1  0
  2 12  2  0
  3  2  1  0
  4  3  2  0
  4  5  1  0
  5 11  2  0
  6  5  1  0
  7  8  1  6
  7  6  1  0
  9  7  1  0
 10  9  2  0
 11 12  1  0
 13  9  1  0
 14 13  1  0
 14 15  1  6
 15 16  1  0
 16 20  1  0
 17 16  2  0
 18 14  1  0
 19 18  2  0
 22 21  1  6
 22 23  1  0
 22 24  1  0
 24 26  1  0
 24 25  1  6
 25 18  1  0
 26 28  1  0
 27 26  2  0
M  END
$$$$
