YDV.pdb
     RDKit          3D

 28 28  0  0  1  0  0  0  0  0999 V2000
   38.5386  -35.8819   -1.4051 O   0  0  0  0  0  0  0  0  0  0  0  0
   37.2440  -35.8388   -1.9344 C   0  0  0  0  0  0  0  0  0  0  0  0
   36.1916  -35.5147   -1.1113 C   0  0  0  0  0  0  0  0  0  0  0  0
   34.8936  -35.4628   -1.6065 C   0  0  0  0  0  0  0  0  0  0  0  0
   34.6474  -35.7366   -2.9281 C   0  0  0  0  0  0  0  0  0  0  0  0
   33.2759  -35.6891   -3.4546 C   0  0  0  0  0  0  0  0  0  0  0  0
   32.6044  -37.0400   -3.5720 C   0  0  2  0  0  0  0  0  0  0  0  0
   33.0630  -37.6665   -4.8050 N   0  0  0  0  0  0  0  0  0  0  0  0
   31.1455  -36.8609   -3.5580 C   0  0  0  0  0  0  0  0  0  0  0  0
   30.5439  -36.5994   -4.6225 O   0  0  0  0  0  0  0  0  0  0  0  0
   35.7100  -36.0587   -3.7374 C   0  0  0  0  0  0  0  0  0  0  0  0
   37.0079  -36.1163   -3.2688 C   0  0  0  0  0  0  0  0  0  0  0  0
   30.3199  -36.9660   -2.3810 N   0  0  0  0  0  0  0  0  0  0  0  0
   28.8896  -36.8749   -2.4592 C   0  0  1  0  0  0  0  0  0  0  0  0
   28.2328  -37.5804   -1.2958 C   0  0  0  0  0  0  0  0  0  0  0  0
   28.4811  -39.0137   -1.2696 C   0  0  0  0  0  0  0  0  0  0  0  0
   28.5781  -39.7087   -2.3166 O   0  0  0  0  0  0  0  0  0  0  0  0
   28.4256  -35.4541   -2.5515 C   0  0  0  0  0  0  0  0  0  0  0  0
   28.9513  -34.5554   -1.8561 O   0  0  0  0  0  0  0  0  0  0  0  0
   28.6225  -39.6835   -0.0645 O   0  0  0  0  0  0  0  0  0  0  0  0
   25.5400  -32.1733   -5.0174 C   0  0  0  0  0  0  0  0  0  0  0  0
   26.0336  -33.5976   -4.8451 C   0  0  2  0  0  0  0  0  0  0  0  0
   24.8239  -34.4994   -4.8405 C   0  0  0  0  0  0  0  0  0  0  0  0
   26.8678  -33.7294   -3.5862 C   0  0  2  0  0  0  0  0  0  0  0  0
   27.3739  -35.0784   -3.4311 N   0  0  0  0  0  0  0  0  0  0  0  0
   26.1564  -33.2585   -2.3865 C   0  0  0  0  0  0  0  0  0  0  0  0
   25.5844  -34.1122   -1.6606 O   0  0  0  0  0  0  0  0  0  0  0  0
   26.0729  -31.9400   -1.9995 O   0  0  0  0  0  0  0  0  0  0  0  0
  2  1  1  0
  2 12  2  0
  3  2  1  0
  4  3  2  0
  4  5  1  0
  5 11  2  0
  6  5  1  0
  7  8  1  6
  7  6  1  0
  9  7  1  0
 10  9  2  0
 11 12  1  0
 13  9  1  0
 14 13  1  0
 14 15  1  1
 15 16  1  0
 16 20  1  0
 17 16  2  0
 18 14  1  0
 19 18  2  0
 22 21  1  1
 22 23  1  0
 22 24  1  0
 24 26  1  0
 24 25  1  1
 25 18  1  0
 26 28  1  0
 27 26  2  0
M  END
$$$$
