YDV.pdb
     RDKit          3D

 28 28  0  0  1  0  0  0  0  0999 V2000
   18.9883  -13.7398  -18.3778 O   0  0  0  0  0  0  0  0  0  0  0  0
   19.7379  -14.7672  -17.7941 C   0  0  0  0  0  0  0  0  0  0  0  0
   20.9921  -14.4893  -17.3041 C   0  0  0  0  0  0  0  0  0  0  0  0
   21.7617  -15.4877  -16.7180 C   0  0  0  0  0  0  0  0  0  0  0  0
   21.2763  -16.7673  -16.6225 C   0  0  0  0  0  0  0  0  0  0  0  0
   22.0892  -17.8275  -16.0092 C   0  0  0  0  0  0  0  0  0  0  0  0
   23.2167  -18.3341  -16.8818 C   0  0  2  0  0  0  0  0  0  0  0  0
   22.6316  -18.9199  -18.0808 N   0  0  0  0  0  0  0  0  0  0  0  0
   24.0141  -19.3116  -16.1273 C   0  0  0  0  0  0  0  0  0  0  0  0
   23.4372  -20.1758  -15.4316 O   0  0  0  0  0  0  0  0  0  0  0  0
   20.0212  -17.0284  -17.1169 C   0  0  0  0  0  0  0  0  0  0  0  0
   19.2379  -16.0536  -17.7029 C   0  0  0  0  0  0  0  0  0  0  0  0
   25.4548  -19.3619  -16.1216 N   0  0  0  0  0  0  0  0  0  0  0  0
   26.1660  -20.3650  -15.3814 C   0  0  1  0  0  0  0  0  0  0  0  0
   27.5475  -20.5876  -15.9509 C   0  0  0  0  0  0  0  0  0  0  0  0
   27.5638  -20.7288  -17.3988 C   0  0  0  0  0  0  0  0  0  0  0  0
   26.9476  -21.6484  -18.0016 O   0  0  0  0  0  0  0  0  0  0  0  0
   26.2380  -20.0351  -13.9224 C   0  0  0  0  0  0  0  0  0  0  0  0
   26.6295  -18.9118  -13.5317 O   0  0  0  0  0  0  0  0  0  0  0  0
   28.2746  -19.8375  -18.1869 O   0  0  0  0  0  0  0  0  0  0  0  0
   24.7631  -20.1877   -9.4019 C   0  0  0  0  0  0  0  0  0  0  0  0
   24.6271  -20.4569  -10.8888 C   0  0  2  0  0  0  0  0  0  0  0  0
   23.6285  -21.5754  -11.0578 C   0  0  0  0  0  0  0  0  0  0  0  0
   25.9754  -20.7772  -11.5032 C   0  0  2  0  0  0  0  0  0  0  0  0
   25.8643  -20.9852  -12.9330 N   0  0  0  0  0  0  0  0  0  0  0  0
   26.6516  -21.8965  -10.8271 C   0  0  0  0  0  0  0  0  0  0  0  0
   26.6700  -23.0153  -11.4023 O   0  0  0  0  0  0  0  0  0  0  0  0
   27.2704  -21.8045   -9.6008 O   0  0  0  0  0  0  0  0  0  0  0  0
  2  1  1  0
  2 12  2  0
  3  2  1  0
  4  3  2  0
  4  5  1  0
  5 11  2  0
  6  5  1  0
  7  8  1  6
  7  6  1  0
  9  7  1  0
 10  9  2  0
 11 12  1  0
 13  9  1  0
 14 13  1  0
 14 15  1  6
 15 16  1  0
 16 20  1  0
 17 16  2  0
 18 14  1  0
 19 18  2  0
 22 21  1  1
 22 23  1  0
 22 24  1  0
 24 26  1  0
 24 25  1  6
 25 18  1  0
 26 28  1  0
 27 26  2  0
M  END
$$$$
