YDV.pdb
     RDKit          3D

 28 28  0  0  1  0  0  0  0  0999 V2000
   39.4914  -10.9517  -10.9620 O   0  0  0  0  0  0  0  0  0  0  0  0
   38.5353  -10.7173  -11.9565 C   0  0  0  0  0  0  0  0  0  0  0  0
   38.0921   -9.4342  -12.1740 C   0  0  0  0  0  0  0  0  0  0  0  0
   37.1433   -9.1681  -13.1546 C   0  0  0  0  0  0  0  0  0  0  0  0
   36.6358  -10.1880  -13.9190 C   0  0  0  0  0  0  0  0  0  0  0  0
   35.6278   -9.9122  -14.9528 C   0  0  0  0  0  0  0  0  0  0  0  0
   35.9601  -10.4778  -16.3163 C   0  0  2  0  0  0  0  0  0  0  0  0
   37.2755   -9.9837  -16.7017 N   0  0  0  0  0  0  0  0  0  0  0  0
   34.9213  -10.0766  -17.2757 C   0  0  0  0  0  0  0  0  0  0  0  0
   35.0357   -8.9971  -17.8964 O   0  0  0  0  0  0  0  0  0  0  0  0
   37.0891  -11.4646  -13.6892 C   0  0  0  0  0  0  0  0  0  0  0  0
   38.0310  -11.7536  -12.7215 C   0  0  0  0  0  0  0  0  0  0  0  0
   33.7410  -10.8489  -17.5737 N   0  0  0  0  0  0  0  0  0  0  0  0
   32.7808  -10.4046  -18.5436 C   0  0  1  0  0  0  0  0  0  0  0  0
   32.0592  -11.5732  -19.1731 C   0  0  0  0  0  0  0  0  0  0  0  0
   31.0645  -11.1795  -20.1591 C   0  0  0  0  0  0  0  0  0  0  0  0
   29.8453  -11.4823  -20.0568 O   0  0  0  0  0  0  0  0  0  0  0  0
   31.8065   -9.4299  -17.9576 C   0  0  0  0  0  0  0  0  0  0  0  0
   31.2865   -9.6298  -16.8364 O   0  0  0  0  0  0  0  0  0  0  0  0
   31.4294  -10.4409  -21.2737 O   0  0  0  0  0  0  0  0  0  0  0  0
   31.1679   -5.5588  -19.8476 C   0  0  0  0  0  0  0  0  0  0  0  0
   30.9429   -5.8656  -18.3789 C   0  0  2  0  0  0  0  0  0  0  0  0
   32.2394   -5.5965  -17.6555 C   0  0  0  0  0  0  0  0  0  0  0  0
   30.4536   -7.2886  -18.1953 C   0  0  2  0  0  0  0  0  0  0  0  0
   31.4401   -8.2459  -18.6540 N   0  0  0  0  0  0  0  0  0  0  0  0
   29.1322   -7.5134  -18.8040 C   0  0  0  0  0  0  0  0  0  0  0  0
   29.0740   -8.1771  -19.8712 O   0  0  0  0  0  0  0  0  0  0  0  0
   27.9467   -7.0457  -18.2835 O   0  0  0  0  0  0  0  0  0  0  0  0
  2  1  1  0
  2 12  2  0
  3  2  1  0
  4  3  2  0
  4  5  1  0
  5 11  2  0
  6  5  1  0
  7  8  1  6
  7  6  1  0
  9  7  1  0
 10  9  2  0
 11 12  1  0
 13  9  1  0
 14 13  1  0
 14 15  1  1
 15 16  1  0
 16 20  1  0
 17 16  2  0
 18 14  1  0
 19 18  2  0
 22 21  1  6
 22 23  1  0
 22 24  1  0
 24 26  1  0
 24 25  1  6
 25 18  1  0
 26 28  1  0
 27 26  2  0
M  END
$$$$
