YDV.pdb
     RDKit          3D

 28 28  0  0  1  0  0  0  0  0999 V2000
   14.1989  -14.1941  -19.9501 O   0  0  0  0  0  0  0  0  0  0  0  0
   15.1990  -13.4254  -19.3443 C   0  0  0  0  0  0  0  0  0  0  0  0
   16.3925  -13.2373  -20.0003 C   0  0  0  0  0  0  0  0  0  0  0  0
   17.4058  -12.4786  -19.4256 C   0  0  0  0  0  0  0  0  0  0  0  0
   17.2254  -11.9073  -18.1914 C   0  0  0  0  0  0  0  0  0  0  0  0
   18.2964  -11.1095  -17.5773 C   0  0  0  0  0  0  0  0  0  0  0  0
   19.6724  -11.7313  -17.6736 C   0  0  2  0  0  0  0  0  0  0  0  0
   19.6649  -12.9664  -16.9006 N   0  0  0  0  0  0  0  0  0  0  0  0
   20.6732  -10.7779  -17.1734 C   0  0  0  0  0  0  0  0  0  0  0  0
   20.8388  -10.6440  -15.9413 O   0  0  0  0  0  0  0  0  0  0  0  0
   16.0269  -12.1048  -17.5491 C   0  0  0  0  0  0  0  0  0  0  0  0
   15.0056  -12.8539  -18.0996 C   0  0  0  0  0  0  0  0  0  0  0  0
   21.5103   -9.9562  -18.0113 N   0  0  0  0  0  0  0  0  0  0  0  0
   22.4686   -9.0469  -17.4501 C   0  0  1  0  0  0  0  0  0  0  0  0
   23.6725   -8.8973  -18.3507 C   0  0  0  0  0  0  0  0  0  0  0  0
   24.6906   -8.0054  -17.8171 C   0  0  0  0  0  0  0  0  0  0  0  0
   24.5950   -7.4609  -16.6844 O   0  0  0  0  0  0  0  0  0  0  0  0
   21.8604   -7.7122  -17.1479 C   0  0  0  0  0  0  0  0  0  0  0  0
   21.4712   -6.9556  -18.0666 O   0  0  0  0  0  0  0  0  0  0  0  0
   25.8289   -7.7139  -18.5520 O   0  0  0  0  0  0  0  0  0  0  0  0
   20.6207   -6.8877  -13.0991 C   0  0  0  0  0  0  0  0  0  0  0  0
   19.9656   -6.3402  -14.3532 C   0  0  2  0  0  0  0  0  0  0  0  0
   18.9314   -7.3440  -14.7999 C   0  0  0  0  0  0  0  0  0  0  0  0
   21.0030   -6.0529  -15.4206 C   0  0  2  0  0  0  0  0  0  0  0  0
   21.7041   -7.2601  -15.8092 N   0  0  0  0  0  0  0  0  0  0  0  0
   21.9245   -4.9716  -15.0347 C   0  0  0  0  0  0  0  0  0  0  0  0
   23.0991   -5.2801  -14.7059 O   0  0  0  0  0  0  0  0  0  0  0  0
   21.5893   -3.6367  -15.0088 O   0  0  0  0  0  0  0  0  0  0  0  0
  2  1  1  0
  2 12  2  0
  3  2  1  0
  4  3  2  0
  4  5  1  0
  5 11  2  0
  6  5  1  0
  7  8  1  1
  7  6  1  0
  9  7  1  0
 10  9  2  0
 11 12  1  0
 13  9  1  0
 14 13  1  0
 14 15  1  6
 15 16  1  0
 16 20  1  0
 17 16  2  0
 18 14  1  0
 19 18  2  0
 22 21  1  1
 22 23  1  0
 22 24  1  0
 24 26  1  0
 24 25  1  1
 25 18  1  0
 26 28  1  0
 27 26  2  0
M  END
$$$$
