YDV.pdb
     RDKit          3D

 28 28  0  0  1  0  0  0  0  0999 V2000
   17.9088  -15.4176  -21.5062 O   0  0  0  0  0  0  0  0  0  0  0  0
   17.9633  -14.3908  -20.5571 C   0  0  0  0  0  0  0  0  0  0  0  0
   17.0749  -14.3972  -19.5079 C   0  0  0  0  0  0  0  0  0  0  0  0
   17.1035  -13.3919  -18.5482 C   0  0  0  0  0  0  0  0  0  0  0  0
   18.0223  -12.3771  -18.6385 C   0  0  0  0  0  0  0  0  0  0  0  0
   18.0520  -11.3086  -17.6294 C   0  0  0  0  0  0  0  0  0  0  0  0
   19.1896  -11.4172  -16.6377 C   0  0  2  0  0  0  0  0  0  0  0  0
   18.9337  -12.5678  -15.7812 N   0  0  0  0  0  0  0  0  0  0  0  0
   19.2830  -10.1696  -15.8660 C   0  0  0  0  0  0  0  0  0  0  0  0
   18.4751   -9.9552  -14.9360 O   0  0  0  0  0  0  0  0  0  0  0  0
   18.9031  -12.3853  -19.6929 C   0  0  0  0  0  0  0  0  0  0  0  0
   18.8945  -13.3730  -20.6582 C   0  0  0  0  0  0  0  0  0  0  0  0
   20.2614   -9.1364  -16.0969 N   0  0  0  0  0  0  0  0  0  0  0  0
   20.2420   -7.9077  -15.3553 C   0  0  1  0  0  0  0  0  0  0  0  0
   21.5905   -7.6215  -14.7369 C   0  0  0  0  0  0  0  0  0  0  0  0
   21.6289   -6.3837  -13.9732 C   0  0  0  0  0  0  0  0  0  0  0  0
   22.1244   -5.3172  -14.4267 O   0  0  0  0  0  0  0  0  0  0  0  0
   19.7864   -6.7557  -16.1966 C   0  0  0  0  0  0  0  0  0  0  0  0
   20.4021   -6.4314  -17.2375 O   0  0  0  0  0  0  0  0  0  0  0  0
   21.1112   -6.3306  -12.6886 O   0  0  0  0  0  0  0  0  0  0  0  0
   15.7294   -5.2394  -15.8485 C   0  0  0  0  0  0  0  0  0  0  0  0
   16.6496   -5.2478  -17.0548 C   0  0  2  0  0  0  0  0  0  0  0  0
   16.5203   -6.5986  -17.7146 C   0  0  0  0  0  0  0  0  0  0  0  0
   18.0743   -4.9287  -16.6469 C   0  0  2  0  0  0  0  0  0  0  0  0
   18.6405   -5.9926  -15.8423 N   0  0  0  0  0  0  0  0  0  0  0  0
   18.1936   -3.6132  -15.9969 C   0  0  0  0  0  0  0  0  0  0  0  0
   18.2874   -3.5756  -14.7428 O   0  0  0  0  0  0  0  0  0  0  0  0
   18.2104   -2.4122  -16.6696 O   0  0  0  0  0  0  0  0  0  0  0  0
  2  1  1  0
  2 12  2  0
  3  2  1  0
  4  3  2  0
  4  5  1  0
  5 11  2  0
  6  5  1  0
  7  8  1  1
  7  6  1  0
  9  7  1  0
 10  9  2  0
 11 12  1  0
 13  9  1  0
 14 13  1  0
 14 15  1  6
 15 16  1  0
 16 20  1  0
 17 16  2  0
 18 14  1  0
 19 18  2  0
 22 21  1  1
 22 23  1  0
 22 24  1  0
 24 26  1  0
 24 25  1  1
 25 18  1  0
 26 28  1  0
 27 26  2  0
M  END
$$$$
