YDV.pdb
     RDKit          3D

 28 28  0  0  1  0  0  0  0  0999 V2000
   13.6284  -16.2453  -14.4938 O   0  0  0  0  0  0  0  0  0  0  0  0
   14.5584  -15.2334  -14.7571 C   0  0  0  0  0  0  0  0  0  0  0  0
   15.8763  -15.5678  -14.9602 C   0  0  0  0  0  0  0  0  0  0  0  0
   16.8246  -14.5861  -15.2244 C   0  0  0  0  0  0  0  0  0  0  0  0
   16.4539  -13.2666  -15.2848 C   0  0  0  0  0  0  0  0  0  0  0  0
   17.4543  -12.2247  -15.5578 C   0  0  0  0  0  0  0  0  0  0  0  0
   17.5901  -11.8563  -17.0190 C   0  0  2  0  0  0  0  0  0  0  0  0
   18.3918  -12.8835  -17.6710 N   0  0  0  0  0  0  0  0  0  0  0  0
   18.2072  -10.5268  -17.1302 C   0  0  0  0  0  0  0  0  0  0  0  0
   19.4529  -10.4233  -17.1604 O   0  0  0  0  0  0  0  0  0  0  0  0
   15.1329  -12.9491  -15.0797 C   0  0  0  0  0  0  0  0  0  0  0  0
   14.1729  -13.9063  -14.8161 C   0  0  0  0  0  0  0  0  0  0  0  0
   17.4732   -9.2887  -17.2116 N   0  0  0  0  0  0  0  0  0  0  0  0
   18.1450   -8.0278  -17.3491 C   0  0  1  0  0  0  0  0  0  0  0  0
   17.2665   -7.0135  -18.0432 C   0  0  0  0  0  0  0  0  0  0  0  0
   17.8890   -5.7064  -18.1866 C   0  0  0  0  0  0  0  0  0  0  0  0
   17.2724   -4.6292  -17.9673 O   0  0  0  0  0  0  0  0  0  0  0  0
   18.6235   -7.5043  -16.0302 C   0  0  0  0  0  0  0  0  0  0  0  0
   17.8461   -7.4028  -15.0539 O   0  0  0  0  0  0  0  0  0  0  0  0
   19.2133   -5.5947  -18.5799 O   0  0  0  0  0  0  0  0  0  0  0  0
   22.4828   -6.7197  -13.0381 C   0  0  0  0  0  0  0  0  0  0  0  0
   21.9576   -7.1069  -14.4077 C   0  0  2  0  0  0  0  0  0  0  0  0
   22.9020   -6.5325  -15.4348 C   0  0  0  0  0  0  0  0  0  0  0  0
   20.5306   -6.6294  -14.5916 C   0  0  2  0  0  0  0  0  0  0  0  0
   19.9751   -7.1056  -15.8424 N   0  0  0  0  0  0  0  0  0  0  0  0
   20.4005   -5.1706  -14.4423 C   0  0  0  0  0  0  0  0  0  0  0  0
   20.2693   -4.4756  -15.4827 O   0  0  0  0  0  0  0  0  0  0  0  0
   20.4117   -4.5086  -13.2354 O   0  0  0  0  0  0  0  0  0  0  0  0
  2  1  1  0
  2 12  2  0
  3  2  1  0
  4  3  2  0
  4  5  1  0
  5 11  2  0
  6  5  1  0
  7  8  1  6
  7  6  1  0
  9  7  1  0
 10  9  2  0
 11 12  1  0
 13  9  1  0
 14 13  1  0
 14 15  1  1
 15 16  1  0
 16 20  1  0
 17 16  2  0
 18 14  1  0
 19 18  2  0
 22 21  1  1
 22 23  1  0
 22 24  1  0
 24 26  1  0
 24 25  1  6
 25 18  1  0
 26 28  1  0
 27 26  2  0
M  END
$$$$
