YDV.pdb
     RDKit          3D

 28 28  0  0  1  0  0  0  0  0999 V2000
   31.8019  -12.4905  -20.1034 O   0  0  0  0  0  0  0  0  0  0  0  0
   30.8514  -11.6377  -19.5311 C   0  0  0  0  0  0  0  0  0  0  0  0
   29.5669  -11.6375  -20.0211 C   0  0  0  0  0  0  0  0  0  0  0  0
   28.5993  -10.8025  -19.4740 C   0  0  0  0  0  0  0  0  0  0  0  0
   28.9173   -9.9651  -18.4349 C   0  0  0  0  0  0  0  0  0  0  0  0
   27.8990   -9.0761  -17.8576 C   0  0  0  0  0  0  0  0  0  0  0  0
   27.4542   -7.9573  -18.7740 C   0  0  2  0  0  0  0  0  0  0  0  0
   28.5674   -7.0299  -18.9277 N   0  0  0  0  0  0  0  0  0  0  0  0
   26.2697   -7.3015  -18.2016 C   0  0  0  0  0  0  0  0  0  0  0  0
   26.4048   -6.4983  -17.2529 O   0  0  0  0  0  0  0  0  0  0  0  0
   30.2054   -9.9775  -17.9568 C   0  0  0  0  0  0  0  0  0  0  0  0
   31.1836  -10.7980  -18.4834 C   0  0  0  0  0  0  0  0  0  0  0  0
   24.9183   -7.5116  -18.6573 N   0  0  0  0  0  0  0  0  0  0  0  0
   23.8035   -6.8793  -18.0111 C   0  0  1  0  0  0  0  0  0  0  0  0
   22.9886   -6.0714  -18.9939 C   0  0  0  0  0  0  0  0  0  0  0  0
   21.8105   -5.4545  -18.4037 C   0  0  0  0  0  0  0  0  0  0  0  0
   21.8050   -4.9681  -17.2409 O   0  0  0  0  0  0  0  0  0  0  0  0
   22.9411   -7.8696  -17.2912 C   0  0  0  0  0  0  0  0  0  0  0  0
   22.4173   -8.8321  -17.8970 O   0  0  0  0  0  0  0  0  0  0  0  0
   20.6230   -5.3780  -19.1143 O   0  0  0  0  0  0  0  0  0  0  0  0
   23.8987  -10.0930  -14.5542 C   0  0  0  0  0  0  0  0  0  0  0  0
   22.7395   -9.2894  -13.9952 C   0  0  2  0  0  0  0  0  0  0  0  0
   21.9392  -10.2072  -13.1043 C   0  0  0  0  0  0  0  0  0  0  0  0
   21.9113   -8.6898  -15.1144 C   0  0  2  0  0  0  0  0  0  0  0  0
   22.6889   -7.7505  -15.8973 N   0  0  0  0  0  0  0  0  0  0  0  0
   20.6500   -8.1043  -14.6310 C   0  0  0  0  0  0  0  0  0  0  0  0
   19.7097   -8.8836  -14.3288 O   0  0  0  0  0  0  0  0  0  0  0  0
   20.4255   -6.7540  -14.4847 O   0  0  0  0  0  0  0  0  0  0  0  0
  2  1  1  0
  2 12  2  0
  3  2  1  0
  4  3  2  0
  4  5  1  0
  5 11  2  0
  6  5  1  0
  7  8  1  1
  7  6  1  0
  9  7  1  0
 10  9  2  0
 11 12  1  0
 13  9  1  0
 14 13  1  0
 14 15  1  6
 15 16  1  0
 16 20  1  0
 17 16  2  0
 18 14  1  0
 19 18  2  0
 22 21  1  6
 22 23  1  0
 22 24  1  0
 24 26  1  0
 24 25  1  1
 25 18  1  0
 26 28  1  0
 27 26  2  0
M  END
$$$$
