YDV.pdb
     RDKit          3D

 28 28  0  0  1  0  0  0  0  0999 V2000
   16.9285  -17.3273  -20.2430 O   0  0  0  0  0  0  0  0  0  0  0  0
   17.2586  -16.2777  -19.3785 C   0  0  0  0  0  0  0  0  0  0  0  0
   17.2837  -14.9910  -19.8622 C   0  0  0  0  0  0  0  0  0  0  0  0
   17.6073  -13.9262  -19.0290 C   0  0  0  0  0  0  0  0  0  0  0  0
   17.9074  -14.1489  -17.7089 C   0  0  0  0  0  0  0  0  0  0  0  0
   18.2561  -13.0268  -16.8258 C   0  0  0  0  0  0  0  0  0  0  0  0
   19.6177  -12.4226  -17.0912 C   0  0  2  0  0  0  0  0  0  0  0  0
   20.6254  -13.4324  -16.7947 N   0  0  0  0  0  0  0  0  0  0  0  0
   19.7863  -11.2203  -16.2626 C   0  0  0  0  0  0  0  0  0  0  0  0
   20.5421  -11.2557  -15.2671 O   0  0  0  0  0  0  0  0  0  0  0  0
   17.8776  -15.4405  -17.2412 C   0  0  0  0  0  0  0  0  0  0  0  0
   17.5589  -16.5142  -18.0492 C   0  0  0  0  0  0  0  0  0  0  0  0
   19.1328   -9.9591  -16.5088 N   0  0  0  0  0  0  0  0  0  0  0  0
   19.4739   -8.7811  -15.7631 C   0  0  1  0  0  0  0  0  0  0  0  0
   20.9676   -8.5545  -15.7526 C   0  0  0  0  0  0  0  0  0  0  0  0
   21.3684   -7.3529  -15.0368 C   0  0  0  0  0  0  0  0  0  0  0  0
   21.7891   -6.3187  -15.6216 O   0  0  0  0  0  0  0  0  0  0  0  0
   18.7550   -7.5706  -16.2734 C   0  0  0  0  0  0  0  0  0  0  0  0
   18.9756   -7.1234  -17.4219 O   0  0  0  0  0  0  0  0  0  0  0  0
   21.3018   -7.3003  -13.6534 O   0  0  0  0  0  0  0  0  0  0  0  0
   15.0918   -6.3574  -14.4623 C   0  0  0  0  0  0  0  0  0  0  0  0
   15.5475   -6.0153  -15.8684 C   0  0  2  0  0  0  0  0  0  0  0  0
   15.1539   -7.1634  -16.7648 C   0  0  0  0  0  0  0  0  0  0  0  0
   17.0366   -5.7326  -15.8976 C   0  0  2  0  0  0  0  0  0  0  0  0
   17.7986   -6.8894  -15.4720 N   0  0  0  0  0  0  0  0  0  0  0  0
   17.3952   -4.5198  -15.1442 C   0  0  0  0  0  0  0  0  0  0  0  0
   16.9685   -3.4123  -15.5617 O   0  0  0  0  0  0  0  0  0  0  0  0
   18.1697   -4.5120  -14.0061 O   0  0  0  0  0  0  0  0  0  0  0  0
  2  1  1  0
  2 12  2  0
  3  2  1  0
  4  3  2  0
  4  5  1  0
  5 11  2  0
  6  5  1  0
  7  8  1  1
  7  6  1  0
  9  7  1  0
 10  9  2  0
 11 12  1  0
 13  9  1  0
 14 13  1  0
 14 15  1  6
 15 16  1  0
 16 20  1  0
 17 16  2  0
 18 14  1  0
 19 18  2  0
 22 21  1  1
 22 23  1  0
 22 24  1  0
 24 26  1  0
 24 25  1  1
 25 18  1  0
 26 28  1  0
 27 26  2  0
M  END
$$$$
