YDV.pdb
     RDKit          3D

 28 28  0  0  1  0  0  0  0  0999 V2000
   20.5813  -12.4504  -19.4047 O   0  0  0  0  0  0  0  0  0  0  0  0
   20.2034  -11.1160  -19.2185 C   0  0  0  0  0  0  0  0  0  0  0  0
   19.9311  -10.3349  -20.3167 C   0  0  0  0  0  0  0  0  0  0  0  0
   19.5527   -9.0058  -20.1654 C   0  0  0  0  0  0  0  0  0  0  0  0
   19.4472   -8.4562  -18.9129 C   0  0  0  0  0  0  0  0  0  0  0  0
   19.0534   -7.0495  -18.7485 C   0  0  0  0  0  0  0  0  0  0  0  0
   17.6174   -6.8490  -18.3160 C   0  0  2  0  0  0  0  0  0  0  0  0
   16.7525   -7.3726  -19.3653 N   0  0  0  0  0  0  0  0  0  0  0  0
   17.3782   -5.4195  -18.0712 C   0  0  0  0  0  0  0  0  0  0  0  0
   17.1520   -4.6559  -19.0351 O   0  0  0  0  0  0  0  0  0  0  0  0
   19.7226   -9.2501  -17.8258 C   0  0  0  0  0  0  0  0  0  0  0  0
   20.0998  -10.5728  -17.9506 C   0  0  0  0  0  0  0  0  0  0  0  0
   17.3808   -4.8012  -16.7689 N   0  0  0  0  0  0  0  0  0  0  0  0
   17.0801   -3.4078  -16.6012 C   0  0  1  0  0  0  0  0  0  0  0  0
   16.2904   -3.1678  -15.3357 C   0  0  0  0  0  0  0  0  0  0  0  0
   14.9592   -3.7542  -15.3610 C   0  0  0  0  0  0  0  0  0  0  0  0
   14.0908   -3.4389  -16.2184 O   0  0  0  0  0  0  0  0  0  0  0  0
   18.3168   -2.5636  -16.6256 C   0  0  0  0  0  0  0  0  0  0  0  0
   19.3715   -2.9450  -16.0690 O   0  0  0  0  0  0  0  0  0  0  0  0
   14.5877   -4.7024  -14.4209 O   0  0  0  0  0  0  0  0  0  0  0  0
   20.8214    1.0585  -18.8821 C   0  0  0  0  0  0  0  0  0  0  0  0
   19.5921    0.1763  -18.7716 C   0  0  2  0  0  0  0  0  0  0  0  0
   18.3923    1.0253  -19.1130 C   0  0  0  0  0  0  0  0  0  0  0  0
   19.4974   -0.4444  -17.3918 C   0  0  2  0  0  0  0  0  0  0  0  0
   18.3347   -1.3023  -17.2811 N   0  0  0  0  0  0  0  0  0  0  0  0
   19.5549    0.5596  -16.3167 C   0  0  0  0  0  0  0  0  0  0  0  0
   18.4709    1.0211  -15.8752 O   0  0  0  0  0  0  0  0  0  0  0  0
   20.7198    1.0321  -15.7557 O   0  0  0  0  0  0  0  0  0  0  0  0
  2  1  1  0
  2 12  2  0
  3  2  1  0
  4  3  2  0
  4  5  1  0
  5 11  2  0
  6  5  1  0
  7  8  1  6
  7  6  1  0
  9  7  1  0
 10  9  2  0
 11 12  1  0
 13  9  1  0
 14 13  1  0
 14 15  1  1
 15 16  1  0
 16 20  1  0
 17 16  2  0
 18 14  1  0
 19 18  2  0
 22 21  1  1
 22 23  1  0
 22 24  1  0
 24 26  1  0
 24 25  1  6
 25 18  1  0
 26 28  1  0
 27 26  2  0
M  END
$$$$
