YDV.pdb
     RDKit          3D

 28 28  0  0  1  0  0  0  0  0999 V2000
   31.2656  -17.3054  -19.3055 O   0  0  0  0  0  0  0  0  0  0  0  0
   30.3793  -17.4823  -18.2373 C   0  0  0  0  0  0  0  0  0  0  0  0
   29.2113  -16.7578  -18.2057 C   0  0  0  0  0  0  0  0  0  0  0  0
   28.3097  -16.9110  -17.1586 C   0  0  0  0  0  0  0  0  0  0  0  0
   28.5773  -17.7903  -16.1401 C   0  0  0  0  0  0  0  0  0  0  0  0
   27.6299  -17.9509  -15.0278 C   0  0  0  0  0  0  0  0  0  0  0  0
   26.8579  -19.2521  -15.0474 C   0  0  2  0  0  0  0  0  0  0  0  0
   26.1574  -19.3424  -16.3218 N   0  0  0  0  0  0  0  0  0  0  0  0
   25.9295  -19.2842  -13.9083 C   0  0  0  0  0  0  0  0  0  0  0  0
   24.9507  -18.5064  -13.8855 O   0  0  0  0  0  0  0  0  0  0  0  0
   29.7488  -18.5068  -16.1866 C   0  0  0  0  0  0  0  0  0  0  0  0
   30.6595  -18.3723  -17.2161 C   0  0  0  0  0  0  0  0  0  0  0  0
   26.0546  -20.1675  -12.7759 N   0  0  0  0  0  0  0  0  0  0  0  0
   25.1064  -20.1427  -11.6987 C   0  0  1  0  0  0  0  0  0  0  0  0
   23.7500  -20.6283  -12.1536 C   0  0  0  0  0  0  0  0  0  0  0  0
   22.7455  -20.6176  -11.1011 C   0  0  0  0  0  0  0  0  0  0  0  0
   22.7631  -19.7913  -10.1495 O   0  0  0  0  0  0  0  0  0  0  0  0
   25.5845  -20.9281  -10.5167 C   0  0  0  0  0  0  0  0  0  0  0  0
   25.7549  -22.1664  -10.5888 O   0  0  0  0  0  0  0  0  0  0  0  0
   21.7089  -21.5375  -11.1055 O   0  0  0  0  0  0  0  0  0  0  0  0
   26.7039  -18.8431   -6.8687 C   0  0  0  0  0  0  0  0  0  0  0  0
   27.2601  -20.1968   -7.2690 C   0  0  2  0  0  0  0  0  0  0  0  0
   28.5319  -19.9536   -8.0435 C   0  0  0  0  0  0  0  0  0  0  0  0
   26.2353  -20.9876   -8.0581 C   0  0  2  0  0  0  0  0  0  0  0  0
   25.8611  -20.2946   -9.2745 N   0  0  0  0  0  0  0  0  0  0  0  0
   25.0656  -21.3625   -7.2466 C   0  0  0  0  0  0  0  0  0  0  0  0
   23.9337  -20.9492   -7.6082 O   0  0  0  0  0  0  0  0  0  0  0  0
   25.1234  -22.1398   -6.1119 O   0  0  0  0  0  0  0  0  0  0  0  0
  2  1  1  0
  2 12  2  0
  3  2  1  0
  4  3  2  0
  4  5  1  0
  5 11  2  0
  6  5  1  0
  7  8  1  6
  7  6  1  0
  9  7  1  0
 10  9  2  0
 11 12  1  0
 13  9  1  0
 14 13  1  0
 14 15  1  6
 15 16  1  0
 16 20  1  0
 17 16  2  0
 18 14  1  0
 19 18  2  0
 22 21  1  6
 22 23  1  0
 22 24  1  0
 24 26  1  0
 24 25  1  6
 25 18  1  0
 26 28  1  0
 27 26  2  0
M  END
$$$$
