CSV.pdb
     RDKit          3D

 20 19  0  0  1  0  0  0  0  0999 V2000
   12.5344  -17.7859   15.8794 N   0  0  0  0  0  0  0  0  0  0  0  0
   11.9531  -18.5048   16.9703 C   0  0  1  0  0  0  0  0  0  0  0  0
   12.7285  -19.7492   17.3371 C   0  0  0  0  0  0  0  0  0  0  0  0
   11.6407  -20.8175   18.3300 S   0  0  0  0  0  0  0  0  0  0  0  0
   11.8242  -17.6405   18.1640 C   0  0  0  0  0  0  0  0  0  0  0  0
   12.6862  -16.7956   18.3998 O   0  0  0  0  0  0  0  0  0  0  0  0
    8.7755  -16.1564   21.6059 O   0  0  0  0  0  0  0  0  0  0  0  0
    9.0739  -16.8883   20.4567 C   0  0  0  0  0  0  0  0  0  0  0  0
   10.5587  -17.0471   20.2599 C   0  0  2  0  0  0  0  0  0  0  0  0
   10.7302  -17.7814   19.0202 N   0  0  0  0  0  0  0  0  0  0  0  0
   11.2615  -17.6403   21.3900 C   0  0  0  0  0  0  0  0  0  0  0  0
   11.2794  -18.8851   21.5645 O   0  0  0  0  0  0  0  0  0  0  0  0
   14.6419  -17.5099   24.8902 C   0  0  0  0  0  0  0  0  0  0  0  0
   13.8862  -16.7787   23.8204 C   0  0  1  0  0  0  0  0  0  0  0  0
   14.8164  -16.5671   22.6519 C   0  0  0  0  0  0  0  0  0  0  0  0
   12.6379  -17.5317   23.4252 C   0  0  2  0  0  0  0  0  0  0  0  0
   11.9606  -16.8764   22.3533 N   0  0  0  0  0  0  0  0  0  0  0  0
   11.7273  -17.4892   24.6224 C   0  0  0  0  0  0  0  0  0  0  0  0
   10.8710  -16.5816   24.7777 O   0  0  0  0  0  0  0  0  0  0  0  0
   11.7931  -18.4584   25.6164 O   0  0  0  0  0  0  0  0  0  0  0  0
  2  3  1  0
  2  1  1  6
  4  3  1  0
  5  2  1  0
  5  6  2  0
  7  8  1  0
  9  8  1  1
  9 10  1  0
 10  5  1  0
 11  9  1  0
 11 17  1  0
 12 11  2  0
 14 13  1  1
 14 15  1  0
 14 16  1  0
 16 17  1  6
 16 18  1  0
 18 19  2  0
 18 20  1  0
M  END
$$$$
