CSV.pdb
     RDKit          3D

 20 19  0  0  1  0  0  0  0  0999 V2000
    8.2334  -15.2084   17.8733 N   0  0  0  0  0  0  0  0  0  0  0  0
    8.4989  -14.4653   19.0659 C   0  0  1  0  0  0  0  0  0  0  0  0
    8.0148  -13.0355   18.9904 C   0  0  0  0  0  0  0  0  0  0  0  0
    9.4716  -11.9459   19.0250 S   0  0  0  0  0  0  0  0  0  0  0  0
    7.8942  -15.1238   20.2446 C   0  0  0  0  0  0  0  0  0  0  0  0
    6.7582  -15.5882   20.1665 O   0  0  0  0  0  0  0  0  0  0  0  0
    9.8474  -17.3140   22.9598 O   0  0  0  0  0  0  0  0  0  0  0  0
    8.4729  -17.1740   22.7687 C   0  0  0  0  0  0  0  0  0  0  0  0
    8.0604  -15.7278   22.6846 C   0  0  2  0  0  0  0  0  0  0  0  0
    8.6079  -15.2186   21.4410 N   0  0  0  0  0  0  0  0  0  0  0  0
    8.4151  -14.9261   23.8484 C   0  0  0  0  0  0  0  0  0  0  0  0
    9.5679  -14.4419   23.9784 O   0  0  0  0  0  0  0  0  0  0  0  0
    7.1906  -12.1678   27.6917 C   0  0  0  0  0  0  0  0  0  0  0  0
    6.7479  -13.0782   26.5848 C   0  0  1  0  0  0  0  0  0  0  0  0
    6.0192  -12.2469   25.5585 C   0  0  0  0  0  0  0  0  0  0  0  0
    7.9210  -13.8194   25.9884 C   0  0  2  0  0  0  0  0  0  0  0  0
    7.5084  -14.6392   24.8953 N   0  0  0  0  0  0  0  0  0  0  0  0
    8.4293  -14.7359   27.0681 C   0  0  0  0  0  0  0  0  0  0  0  0
    8.1055  -15.9499   27.1202 O   0  0  0  0  0  0  0  0  0  0  0  0
    9.2854  -14.2777   28.0625 O   0  0  0  0  0  0  0  0  0  0  0  0
  2  3  1  0
  2  1  1  6
  4  3  1  0
  5  2  1  0
  5  6  2  0
  7  8  1  0
  9  8  1  1
  9 10  1  0
 10  5  1  0
 11  9  1  0
 11 17  1  0
 12 11  2  0
 14 13  1  1
 14 15  1  0
 14 16  1  0
 16 17  1  6
 16 18  1  0
 18 19  2  0
 18 20  1  0
M  END
$$$$
