CSV.pdb
     RDKit          3D

 20 19  0  0  1  0  0  0  0  0999 V2000
    7.6117  -15.0409   18.0423 N   0  0  0  0  0  0  0  0  0  0  0  0
    8.1119  -14.4578   19.2483 C   0  0  1  0  0  0  0  0  0  0  0  0
    7.7833  -12.9878   19.3736 C   0  0  0  0  0  0  0  0  0  0  0  0
    8.7753  -12.0830   18.1458 S   0  0  0  0  0  0  0  0  0  0  0  0
    7.5980  -15.1757   20.4353 C   0  0  0  0  0  0  0  0  0  0  0  0
    6.6298  -15.9253   20.3215 O   0  0  0  0  0  0  0  0  0  0  0  0
    9.3629  -17.5221   22.5637 O   0  0  0  0  0  0  0  0  0  0  0  0
    8.0128  -17.1744   22.6066 C   0  0  0  0  0  0  0  0  0  0  0  0
    7.8178  -15.7076   22.8879 C   0  0  2  0  0  0  0  0  0  0  0  0
    8.2077  -15.0047   21.6798 N   0  0  0  0  0  0  0  0  0  0  0  0
    8.4909  -15.2238   24.0861 C   0  0  0  0  0  0  0  0  0  0  0  0
    9.7015  -14.8858   24.0609 O   0  0  0  0  0  0  0  0  0  0  0  0
    8.0198  -12.4822   28.0114 C   0  0  0  0  0  0  0  0  0  0  0  0
    7.3982  -13.3728   26.9768 C   0  0  1  0  0  0  0  0  0  0  0  0
    6.7286  -12.4972   25.9470 C   0  0  0  0  0  0  0  0  0  0  0  0
    8.4271  -14.2911   26.3609 C   0  0  2  0  0  0  0  0  0  0  0  0
    7.8464  -15.1010   25.3390 N   0  0  0  0  0  0  0  0  0  0  0  0
    8.8766  -15.2135   27.4615 C   0  0  0  0  0  0  0  0  0  0  0  0
    8.4457  -16.3904   27.5637 O   0  0  0  0  0  0  0  0  0  0  0  0
    9.7947  -14.8023   28.4205 O   0  0  0  0  0  0  0  0  0  0  0  0
  2  3  1  0
  2  1  1  6
  4  3  1  0
  5  2  1  0
  5  6  2  0
  7  8  1  0
  9  8  1  6
  9 10  1  0
 10  5  1  0
 11  9  1  0
 11 17  1  0
 12 11  2  0
 14 13  1  1
 14 15  1  0
 14 16  1  0
 16 17  1  6
 16 18  1  0
 18 19  2  0
 18 20  1  0
M  END
$$$$
