CSV.pdb
     RDKit          3D

 20 19  0  0  1  0  0  0  0  0999 V2000
    9.1936  -17.0864   19.5833 N   0  0  0  0  0  0  0  0  0  0  0  0
   10.1042  -16.7596   20.6362 C   0  0  1  0  0  0  0  0  0  0  0  0
   10.9308  -15.5291   20.3410 C   0  0  0  0  0  0  0  0  0  0  0  0
   12.2259  -15.4032   21.6128 S   0  0  0  0  0  0  0  0  0  0  0  0
    9.3865  -16.5700   21.9159 C   0  0  0  0  0  0  0  0  0  0  0  0
    8.3470  -15.9132   21.9393 O   0  0  0  0  0  0  0  0  0  0  0  0
    9.5546  -19.3315   24.9160 O   0  0  0  0  0  0  0  0  0  0  0  0
    8.6103  -18.3306   24.6879 C   0  0  0  0  0  0  0  0  0  0  0  0
    9.2573  -17.0024   24.3943 C   0  0  2  0  0  0  0  0  0  0  0  0
    9.8849  -17.1328   23.0926 N   0  0  0  0  0  0  0  0  0  0  0  0
   10.1620  -16.5246   25.4317 C   0  0  0  0  0  0  0  0  0  0  0  0
   11.4065  -16.6680   25.3266 O   0  0  0  0  0  0  0  0  0  0  0  0
   10.1551  -13.0426   27.2671 C   0  0  0  0  0  0  0  0  0  0  0  0
   10.2181  -14.1712   28.2531 C   0  0  1  0  0  0  0  0  0  0  0  0
    8.8600  -14.3080   28.8952 C   0  0  0  0  0  0  0  0  0  0  0  0
   10.6643  -15.4511   27.5867 C   0  0  2  0  0  0  0  0  0  0  0  0
    9.7169  -15.8778   26.6081 N   0  0  0  0  0  0  0  0  0  0  0  0
   10.6932  -16.4975   28.6676 C   0  0  0  0  0  0  0  0  0  0  0  0
    9.8138  -17.3921   28.7541 O   0  0  0  0  0  0  0  0  0  0  0  0
   11.7004  -16.5213   29.6249 O   0  0  0  0  0  0  0  0  0  0  0  0
  2  3  1  0
  2  1  1  6
  4  3  1  0
  5  2  1  0
  5  6  2  0
  7  8  1  0
  9  8  1  1
  9 10  1  0
 10  5  1  0
 11  9  1  0
 11 17  1  0
 12 11  2  0
 14 13  1  6
 14 15  1  0
 14 16  1  0
 16 17  1  6
 16 18  1  0
 18 19  2  0
 18 20  1  0
M  END
$$$$
