CSV.pdb
     RDKit          3D

 20 19  0  0  1  0  0  0  0  0999 V2000
    5.9343  -19.8621   22.9879 N   0  0  0  0  0  0  0  0  0  0  0  0
    6.0767  -18.4639   23.2514 C   0  0  1  0  0  0  0  0  0  0  0  0
    5.6166  -18.0746   24.6375 C   0  0  0  0  0  0  0  0  0  0  0  0
    6.5945  -19.0247   25.8422 S   0  0  0  0  0  0  0  0  0  0  0  0
    7.4786  -18.0305   23.0628 C   0  0  0  0  0  0  0  0  0  0  0  0
    8.3827  -18.8636   23.0934 O   0  0  0  0  0  0  0  0  0  0  0  0
   10.5385  -14.8401   21.3956 O   0  0  0  0  0  0  0  0  0  0  0  0
    9.2565  -15.3660   21.5551 C   0  0  0  0  0  0  0  0  0  0  0  0
    9.1177  -16.1299   22.8458 C   0  0  2  0  0  0  0  0  0  0  0  0
    7.7762  -16.6828   22.8510 N   0  0  0  0  0  0  0  0  0  0  0  0
    9.4361  -15.3631   24.0431 C   0  0  0  0  0  0  0  0  0  0  0  0
   10.5732  -14.8522   24.2056 O   0  0  0  0  0  0  0  0  0  0  0  0
    7.3626  -12.4397   25.6002 C   0  0  0  0  0  0  0  0  0  0  0  0
    7.7094  -13.4624   26.6412 C   0  0  1  0  0  0  0  0  0  0  0  0
    6.4746  -14.2823   26.9214 C   0  0  0  0  0  0  0  0  0  0  0  0
    8.8721  -14.3179   26.1967 C   0  0  2  0  0  0  0  0  0  0  0  0
    8.5097  -15.1412   25.0885 N   0  0  0  0  0  0  0  0  0  0  0  0
    9.1835  -15.2324   27.3504 C   0  0  0  0  0  0  0  0  0  0  0  0
    9.5991  -14.7965   28.4543 O   0  0  0  0  0  0  0  0  0  0  0  0
    9.0244  -16.6092   27.2459 O   0  0  0  0  0  0  0  0  0  0  0  0
  2  3  1  0
  2  1  1  1
  4  3  1  0
  5  2  1  0
  5  6  2  0
  7  8  1  0
  9  8  1  6
  9 10  1  0
 10  5  1  0
 11  9  1  0
 11 17  1  0
 12 11  2  0
 14 13  1  6
 14 15  1  0
 14 16  1  0
 16 17  1  6
 16 18  1  0
 18 19  2  0
 18 20  1  0
M  END
$$$$
