CSV.pdb
     RDKit          3D

 20 19  0  0  1  0  0  0  0  0999 V2000
    7.9423  -15.2072   18.0489 N   0  0  0  0  0  0  0  0  0  0  0  0
    8.2853  -14.4606   19.2192 C   0  0  1  0  0  0  0  0  0  0  0  0
    7.8821  -13.0065   19.1309 C   0  0  0  0  0  0  0  0  0  0  0  0
    9.0080  -12.1806   17.9645 S   0  0  0  0  0  0  0  0  0  0  0  0
    7.6789  -15.0626   20.4269 C   0  0  0  0  0  0  0  0  0  0  0  0
    6.7546  -15.8651   20.3085 O   0  0  0  0  0  0  0  0  0  0  0  0
    9.2749  -17.1558   22.9572 O   0  0  0  0  0  0  0  0  0  0  0  0
    7.9337  -16.8173   22.7780 C   0  0  0  0  0  0  0  0  0  0  0  0
    7.7013  -15.3370   22.9310 C   0  0  2  0  0  0  0  0  0  0  0  0
    8.1520  -14.7230   21.6960 N   0  0  0  0  0  0  0  0  0  0  0  0
    8.2952  -14.7487   24.1243 C   0  0  0  0  0  0  0  0  0  0  0  0
    9.5265  -14.5028   24.1849 O   0  0  0  0  0  0  0  0  0  0  0  0
    7.1213  -11.5353   25.9501 C   0  0  0  0  0  0  0  0  0  0  0  0
    7.2846  -12.6621   26.9267 C   0  0  1  0  0  0  0  0  0  0  0  0
    5.9121  -13.1827   27.2742 C   0  0  0  0  0  0  0  0  0  0  0  0
    8.1782  -13.7427   26.3656 C   0  0  2  0  0  0  0  0  0  0  0  0
    7.5468  -14.4177   25.2779 N   0  0  0  0  0  0  0  0  0  0  0  0
    8.3625  -14.7482   27.4697 C   0  0  0  0  0  0  0  0  0  0  0  0
    7.8346  -15.8888   27.4288 O   0  0  0  0  0  0  0  0  0  0  0  0
    9.1300  -14.4585   28.5916 O   0  0  0  0  0  0  0  0  0  0  0  0
  2  3  1  0
  2  1  1  6
  4  3  1  0
  5  2  1  0
  5  6  2  0
  7  8  1  0
  9  8  1  6
  9 10  1  0
 10  5  1  0
 11  9  1  0
 11 17  1  0
 12 11  2  0
 14 13  1  6
 14 15  1  0
 14 16  1  0
 16 17  1  6
 16 18  1  0
 18 19  2  0
 18 20  1  0
M  END
$$$$
