CSV.pdb
     RDKit          3D

 20 19  0  0  1  0  0  0  0  0999 V2000
    7.7826  -15.3837   18.2093 N   0  0  0  0  0  0  0  0  0  0  0  0
    8.1934  -14.5913   19.3264 C   0  0  1  0  0  0  0  0  0  0  0  0
    7.7280  -13.1561   19.2351 C   0  0  0  0  0  0  0  0  0  0  0  0
    8.8648  -12.2655   18.1285 S   0  0  0  0  0  0  0  0  0  0  0  0
    7.7147  -15.1797   20.5965 C   0  0  0  0  0  0  0  0  0  0  0  0
    6.5202  -15.4367   20.7363 O   0  0  0  0  0  0  0  0  0  0  0  0
   10.2034  -17.3373   23.0225 O   0  0  0  0  0  0  0  0  0  0  0  0
    8.8086  -17.3486   23.0238 C   0  0  0  0  0  0  0  0  0  0  0  0
    8.2343  -15.9589   22.9351 C   0  0  2  0  0  0  0  0  0  0  0  0
    8.6128  -15.4429   21.6328 N   0  0  0  0  0  0  0  0  0  0  0  0
    8.5982  -15.0794   24.0382 C   0  0  0  0  0  0  0  0  0  0  0  0
    9.6897  -14.4557   24.0404 O   0  0  0  0  0  0  0  0  0  0  0  0
    7.4998  -12.3217   27.8991 C   0  0  0  0  0  0  0  0  0  0  0  0
    7.0379  -13.2628   26.8262 C   0  0  1  0  0  0  0  0  0  0  0  0
    6.2708  -12.4642   25.8018 C   0  0  0  0  0  0  0  0  0  0  0  0
    8.2033  -14.0036   26.2143 C   0  0  2  0  0  0  0  0  0  0  0  0
    7.7686  -14.8665   25.1637 N   0  0  0  0  0  0  0  0  0  0  0  0
    8.7645  -14.8747   27.3054 C   0  0  0  0  0  0  0  0  0  0  0  0
    8.3935  -16.0654   27.4661 O   0  0  0  0  0  0  0  0  0  0  0  0
    9.7246  -14.3980   28.1901 O   0  0  0  0  0  0  0  0  0  0  0  0
  2  3  1  0
  2  1  1  6
  4  3  1  0
  5  2  1  0
  5  6  2  0
  7  8  1  0
  9  8  1  1
  9 10  1  0
 10  5  1  0
 11  9  1  0
 11 17  1  0
 12 11  2  0
 14 13  1  1
 14 15  1  0
 14 16  1  0
 16 17  1  6
 16 18  1  0
 18 19  2  0
 18 20  1  0
M  END
$$$$
