CSV.pdb
     RDKit          3D

 20 19  0  0  1  0  0  0  0  0999 V2000
    8.3349  -15.8158   17.8933 N   0  0  0  0  0  0  0  0  0  0  0  0
    8.4976  -14.8434   18.9290 C   0  0  1  0  0  0  0  0  0  0  0  0
    8.0763  -13.4547   18.5063 C   0  0  0  0  0  0  0  0  0  0  0  0
    8.3115  -12.3395   19.9245 S   0  0  0  0  0  0  0  0  0  0  0  0
    7.7464  -15.2331   20.1426 C   0  0  0  0  0  0  0  0  0  0  0  0
    6.5335  -15.4235   20.0728 O   0  0  0  0  0  0  0  0  0  0  0  0
    9.2692  -17.4843   23.1402 O   0  0  0  0  0  0  0  0  0  0  0  0
    7.9426  -17.1676   22.8479 C   0  0  0  0  0  0  0  0  0  0  0  0
    7.7534  -15.6908   22.6198 C   0  0  2  0  0  0  0  0  0  0  0  0
    8.4092  -15.3844   21.3622 N   0  0  0  0  0  0  0  0  0  0  0  0
    8.1872  -14.8448   23.7239 C   0  0  0  0  0  0  0  0  0  0  0  0
    9.3542  -14.3797   23.7679 O   0  0  0  0  0  0  0  0  0  0  0  0
    7.2844  -12.1088   27.6942 C   0  0  0  0  0  0  0  0  0  0  0  0
    6.7487  -12.9376   26.5646 C   0  0  1  0  0  0  0  0  0  0  0  0
    6.0116  -12.0208   25.6202 C   0  0  0  0  0  0  0  0  0  0  0  0
    7.8571  -13.6956   25.8731 C   0  0  2  0  0  0  0  0  0  0  0  0
    7.3457  -14.4918   24.8045 N   0  0  0  0  0  0  0  0  0  0  0  0
    8.4243  -14.6370   26.9008 C   0  0  0  0  0  0  0  0  0  0  0  0
    7.9770  -15.8016   27.0581 O   0  0  0  0  0  0  0  0  0  0  0  0
    9.4753  -14.2580   27.7275 O   0  0  0  0  0  0  0  0  0  0  0  0
  2  3  1  0
  2  1  1  6
  4  3  1  0
  5  2  1  0
  5  6  2  0
  7  8  1  0
  9  8  1  1
  9 10  1  0
 10  5  1  0
 11  9  1  0
 11 17  1  0
 12 11  2  0
 14 13  1  1
 14 15  1  0
 14 16  1  0
 16 17  1  6
 16 18  1  0
 18 19  2  0
 18 20  1  0
M  END
$$$$
