CSV.pdb
     RDKit          3D

 20 19  0  0  1  0  0  0  0  0999 V2000
    9.2722  -16.7167   16.7526 N   0  0  0  0  0  0  0  0  0  0  0  0
    8.4996  -16.9310   17.9366 C   0  0  1  0  0  0  0  0  0  0  0  0
    8.4550  -18.3820   18.3577 C   0  0  0  0  0  0  0  0  0  0  0  0
    7.5237  -19.3052   17.0966 S   0  0  0  0  0  0  0  0  0  0  0  0
    9.0123  -16.1130   19.0576 C   0  0  0  0  0  0  0  0  0  0  0  0
    9.6557  -15.0919   18.8217 O   0  0  0  0  0  0  0  0  0  0  0  0
    6.9732  -14.6209   21.3329 O   0  0  0  0  0  0  0  0  0  0  0  0
    8.3494  -14.4078   21.4107 C   0  0  0  0  0  0  0  0  0  0  0  0
    9.1128  -15.6998   21.5406 C   0  0  2  0  0  0  0  0  0  0  0  0
    8.7681  -16.4965   20.3779 N   0  0  0  0  0  0  0  0  0  0  0  0
    8.9153  -16.3979   22.8042 C   0  0  0  0  0  0  0  0  0  0  0  0
    8.0020  -17.2510   22.9406 O   0  0  0  0  0  0  0  0  0  0  0  0
   12.2426  -18.9124   24.3247 C   0  0  0  0  0  0  0  0  0  0  0  0
   11.4392  -17.8502   23.6345 C   0  0  1  0  0  0  0  0  0  0  0  0
   10.8210  -18.4589   22.4005 C   0  0  0  0  0  0  0  0  0  0  0  0
   10.4008  -17.2650   24.5621 C   0  0  2  0  0  0  0  0  0  0  0  0
    9.7190  -16.1728   23.9460 N   0  0  0  0  0  0  0  0  0  0  0  0
   11.1562  -16.7134   25.7407 C   0  0  0  0  0  0  0  0  0  0  0  0
   11.8421  -15.6624   25.6613 O   0  0  0  0  0  0  0  0  0  0  0  0
   11.1289  -17.3457   26.9781 O   0  0  0  0  0  0  0  0  0  0  0  0
  2  3  1  0
  2  1  1  6
  4  3  1  0
  5  2  1  0
  5  6  2  0
  7  8  1  0
  9  8  1  1
  9 10  1  0
 10  5  1  0
 11  9  1  0
 11 17  1  0
 12 11  2  0
 14 13  1  1
 14 15  1  0
 14 16  1  0
 16 17  1  6
 16 18  1  0
 18 19  2  0
 18 20  1  0
M  END
$$$$
