CSV.pdb
     RDKit          3D

 20 19  0  0  1  0  0  0  0  0999 V2000
    6.7722  -15.7941   19.4096 N   0  0  0  0  0  0  0  0  0  0  0  0
    7.6340  -15.0517   20.2761 C   0  0  1  0  0  0  0  0  0  0  0  0
    7.6494  -13.5722   19.9672 C   0  0  0  0  0  0  0  0  0  0  0  0
    8.8875  -12.7857   21.0436 S   0  0  0  0  0  0  0  0  0  0  0  0
    7.2578  -15.2505   21.6930 C   0  0  0  0  0  0  0  0  0  0  0  0
    6.0883  -15.0952   22.0399 O   0  0  0  0  0  0  0  0  0  0  0  0
    8.3732  -18.2976   23.7686 O   0  0  0  0  0  0  0  0  0  0  0  0
    7.3833  -17.3451   24.0106 C   0  0  0  0  0  0  0  0  0  0  0  0
    7.9386  -15.9450   24.0168 C   0  0  2  0  0  0  0  0  0  0  0  0
    8.2242  -15.6127   22.6336 N   0  0  0  0  0  0  0  0  0  0  0  0
    9.0724  -15.7449   24.9098 C   0  0  0  0  0  0  0  0  0  0  0  0
   10.2543  -15.8285   24.4897 O   0  0  0  0  0  0  0  0  0  0  0  0
    9.3555  -12.8260   27.5516 C   0  0  0  0  0  0  0  0  0  0  0  0
    9.7623  -14.1409   28.1479 C   0  0  1  0  0  0  0  0  0  0  0  0
    8.6489  -14.6094   29.0514 C   0  0  0  0  0  0  0  0  0  0  0  0
   10.0843  -15.1498   27.0710 C   0  0  2  0  0  0  0  0  0  0  0  0
    8.9305  -15.4482   26.2854 N   0  0  0  0  0  0  0  0  0  0  0  0
   10.4776  -16.4138   27.7862 C   0  0  0  0  0  0  0  0  0  0  0  0
    9.7249  -17.4203   27.8257 O   0  0  0  0  0  0  0  0  0  0  0  0
   11.6993  -16.5254   28.4395 O   0  0  0  0  0  0  0  0  0  0  0  0
  2  3  1  0
  2  1  1  6
  4  3  1  0
  5  2  1  0
  5  6  2  0
  7  8  1  0
  9  8  1  6
  9 10  1  0
 10  5  1  0
 11  9  1  0
 11 17  1  0
 12 11  2  0
 14 13  1  6
 14 15  1  0
 14 16  1  0
 16 17  1  6
 16 18  1  0
 18 19  2  0
 18 20  1  0
M  END
$$$$
