CSV.pdb
     RDKit          3D

 20 19  0  0  1  0  0  0  0  0999 V2000
    8.9226  -17.4292   19.2115 N   0  0  0  0  0  0  0  0  0  0  0  0
    9.2906  -17.5875   20.5841 C   0  0  1  0  0  0  0  0  0  0  0  0
   10.7128  -17.1610   20.8669 C   0  0  0  0  0  0  0  0  0  0  0  0
   11.6873  -17.4125   19.3511 S   0  0  0  0  0  0  0  0  0  0  0  0
    8.3713  -16.8372   21.4678 C   0  0  0  0  0  0  0  0  0  0  0  0
    7.6743  -15.9390   20.9991 O   0  0  0  0  0  0  0  0  0  0  0  0
    7.5780  -18.3006   25.3399 O   0  0  0  0  0  0  0  0  0  0  0  0
    6.7025  -17.5835   24.5246 C   0  0  0  0  0  0  0  0  0  0  0  0
    7.4070  -16.4876   23.7686 C   0  0  2  0  0  0  0  0  0  0  0  0
    8.2938  -17.1457   22.8274 N   0  0  0  0  0  0  0  0  0  0  0  0
    8.0764  -15.5032   24.6087 C   0  0  0  0  0  0  0  0  0  0  0  0
    9.3167  -15.5530   24.8075 O   0  0  0  0  0  0  0  0  0  0  0  0
    7.2290  -11.4735   25.1518 C   0  0  0  0  0  0  0  0  0  0  0  0
    7.3246  -12.3081   26.3945 C   0  0  1  0  0  0  0  0  0  0  0  0
    5.9239  -12.5872   26.8796 C   0  0  0  0  0  0  0  0  0  0  0  0
    8.1020  -13.5775   26.1383 C   0  0  2  0  0  0  0  0  0  0  0  0
    7.3954  -14.4416   25.2487 N   0  0  0  0  0  0  0  0  0  0  0  0
    8.1995  -14.2829   27.4638 C   0  0  0  0  0  0  0  0  0  0  0  0
    7.5528  -15.3328   27.7104 O   0  0  0  0  0  0  0  0  0  0  0  0
    9.0147  -13.8016   28.4814 O   0  0  0  0  0  0  0  0  0  0  0  0
  2  3  1  0
  2  1  1  6
  4  3  1  0
  5  2  1  0
  5  6  2  0
  7  8  1  0
  9  8  1  1
  9 10  1  0
 10  5  1  0
 11  9  1  0
 11 17  1  0
 12 11  2  0
 14 13  1  6
 14 15  1  0
 14 16  1  0
 16 17  1  6
 16 18  1  0
 18 19  2  0
 18 20  1  0
M  END
$$$$
