CSV.pdb
     RDKit          3D

 20 19  0  0  1  0  0  0  0  0999 V2000
   10.3564  -16.8613   19.3528 N   0  0  0  0  0  0  0  0  0  0  0  0
   11.0122  -16.3571   20.5191 C   0  0  1  0  0  0  0  0  0  0  0  0
   11.4230  -14.9086   20.3856 C   0  0  0  0  0  0  0  0  0  0  0  0
   12.7484  -14.8121   19.1429 S   0  0  0  0  0  0  0  0  0  0  0  0
   10.1566  -16.5134   21.7158 C   0  0  0  0  0  0  0  0  0  0  0  0
    8.9832  -16.8571   21.5845 O   0  0  0  0  0  0  0  0  0  0  0  0
   10.8088  -18.7949   24.4604 O   0  0  0  0  0  0  0  0  0  0  0  0
    9.6700  -18.0260   24.2205 C   0  0  0  0  0  0  0  0  0  0  0  0
    9.9746  -16.5509   24.2281 C   0  0  2  0  0  0  0  0  0  0  0  0
   10.6766  -16.2725   22.9891 N   0  0  0  0  0  0  0  0  0  0  0  0
   10.6787  -16.0819   25.4144 C   0  0  0  0  0  0  0  0  0  0  0  0
   11.9282  -16.1804   25.5111 O   0  0  0  0  0  0  0  0  0  0  0  0
    9.9893  -12.7036   27.4360 C   0  0  0  0  0  0  0  0  0  0  0  0
   10.0980  -13.8955   28.3403 C   0  0  1  0  0  0  0  0  0  0  0  0
    8.7096  -14.2583   28.8051 C   0  0  0  0  0  0  0  0  0  0  0  0
   10.7837  -15.0464   27.6427 C   0  0  2  0  0  0  0  0  0  0  0  0
   10.0229  -15.4936   26.5209 N   0  0  0  0  0  0  0  0  0  0  0  0
   10.8212  -16.1754   28.6367 C   0  0  0  0  0  0  0  0  0  0  0  0
   11.5436  -16.1356   29.6652 O   0  0  0  0  0  0  0  0  0  0  0  0
   10.0533  -17.3204   28.4604 O   0  0  0  0  0  0  0  0  0  0  0  0
  2  3  1  0
  2  1  1  6
  4  3  1  0
  5  2  1  0
  5  6  2  0
  7  8  1  0
  9  8  1  1
  9 10  1  0
 10  5  1  0
 11  9  1  0
 11 17  1  0
 12 11  2  0
 14 13  1  6
 14 15  1  0
 14 16  1  0
 16 17  1  6
 16 18  1  0
 18 19  2  0
 18 20  1  0
M  END
$$$$
