QID.pdb
     RDKit          3D

 26 25  0  0  1  0  0  0  0  0999 V2000
   20.0186   -7.8063  -14.4539 N   0  0  0  0  0  0  0  0  0  0  0  0
   20.2449   -9.2115  -14.2100 C   0  0  0  0  0  0  0  0  0  0  0  0
   21.2444   -9.7025  -14.7488 O   0  0  0  0  0  0  0  0  0  0  0  0
   19.2882   -9.8901  -13.3722 C   0  0  0  0  0  0  0  0  0  0  0  0
   18.1420   -9.1440  -12.8130 C   0  0  0  0  0  0  0  0  0  0  0  0
   17.1326   -9.9007  -12.0297 C   0  0  2  0  0  0  0  0  0  0  0  0
   16.4569  -10.8561  -12.8465 N   0  0  0  0  0  0  0  0  0  0  0  0
   16.1055   -8.9191  -11.5513 C   0  0  0  0  0  0  0  0  0  0  0  0
   15.1584   -8.6602  -12.3299 O   0  0  0  0  0  0  0  0  0  0  0  0
   13.3837   -9.1769   -7.0894 C   0  0  0  0  0  0  0  0  0  0  0  0
   13.7623   -8.8568   -8.5218 C   0  0  0  0  0  0  0  0  0  0  0  0
   14.6921   -7.6803   -8.5092 C   0  0  2  0  0  0  0  0  0  0  0  0
   13.9021   -6.4950   -7.9606 C   0  0  0  0  0  0  0  0  0  0  0  0
   15.1719   -7.2952   -9.8750 C   0  0  2  0  0  0  0  0  0  0  0  0
   16.1561   -8.2854  -10.2904 N   0  0  0  0  0  0  0  0  0  0  0  0
   15.7539   -5.9416   -9.9308 C   0  0  0  0  0  0  0  0  0  0  0  0
   16.7770   -5.6922   -9.2331 O   0  0  0  0  0  0  0  0  0  0  0  0
   15.2521   -4.8898  -10.7117 N   0  0  0  0  0  0  0  0  0  0  0  0
   15.8675   -3.5739  -10.7862 C   0  0  1  0  0  0  0  0  0  0  0  0
   16.3330   -3.2236  -12.1489 C   0  0  0  0  0  0  0  0  0  0  0  0
   16.8378   -1.8379  -12.1810 C   0  0  0  0  0  0  0  0  0  0  0  0
   16.8470   -1.1203  -11.1503 O   0  0  0  0  0  0  0  0  0  0  0  0
   14.9852   -2.5287  -10.2368 C   0  0  0  0  0  0  0  0  0  0  0  0
   13.6683   -2.8849   -9.8963 O   0  0  0  0  0  0  0  0  0  0  0  0
   17.3203   -1.2831  -13.3575 O   0  0  0  0  0  0  0  0  0  0  0  0
   15.3519   -1.3533  -10.0625 O   0  0  0  0  0  0  0  0  0  0  0  0
  1  2  1  0
  2  4  1  0
  2  3  2  0
  4  5  1  0
  5  6  1  0
  6  8  1  0
  6  7  1  6
  8  9  2  0
 11 10  1  0
 12 11  1  0
 12 14  1  0
 12 13  1  6
 14 15  1  1
 15  8  1  0
 16 17  2  0
 16 14  1  0
 18 16  1  0
 19 18  1  0
 19 23  1  0
 19 20  1  6
 21 20  1  0
 22 21  2  0
 23 24  1  0
 25 21  1  0
 26 23  2  0
M  END
$$$$
