QID.pdb
     RDKit          3D

 26 25  0  0  1  0  0  0  0  0999 V2000
   18.3011  -11.9408  -20.3351 N   0  0  0  0  0  0  0  0  0  0  0  0
   18.3738  -13.3607  -20.0821 C   0  0  0  0  0  0  0  0  0  0  0  0
   17.6695  -14.0779  -20.8032 O   0  0  0  0  0  0  0  0  0  0  0  0
   19.2511  -13.7900  -19.0221 C   0  0  0  0  0  0  0  0  0  0  0  0
   20.0091  -12.7878  -18.2448 C   0  0  0  0  0  0  0  0  0  0  0  0
   20.9919  -13.2780  -17.2453 C   0  0  2  0  0  0  0  0  0  0  0  0
   20.3971  -14.2259  -16.3597 N   0  0  0  0  0  0  0  0  0  0  0  0
   21.4174  -12.1025  -16.4180 C   0  0  0  0  0  0  0  0  0  0  0  0
   20.7169  -11.8273  -15.4160 O   0  0  0  0  0  0  0  0  0  0  0  0
   26.4865  -11.2250  -15.2315 C   0  0  0  0  0  0  0  0  0  0  0  0
   24.9758  -11.3036  -15.1353 C   0  0  0  0  0  0  0  0  0  0  0  0
   24.3993  -10.1002  -15.8196 C   0  0  2  0  0  0  0  0  0  0  0  0
   24.7614   -8.8874  -14.9665 C   0  0  0  0  0  0  0  0  0  0  0  0
   22.9050  -10.1390  -15.9177 C   0  0  2  0  0  0  0  0  0  0  0  0
   22.5469  -11.3072  -16.7107 N   0  0  0  0  0  0  0  0  0  0  0  0
   22.3258   -8.9205  -16.5126 C   0  0  0  0  0  0  0  0  0  0  0  0
   22.3490   -8.7888  -17.7687 O   0  0  0  0  0  0  0  0  0  0  0  0
   21.7402   -7.8770  -15.7803 N   0  0  0  0  0  0  0  0  0  0  0  0
   20.9700   -6.8002  -16.3830 C   0  0  1  0  0  0  0  0  0  0  0  0
   19.8450   -7.2838  -17.2179 C   0  0  0  0  0  0  0  0  0  0  0  0
   19.1037   -6.1458  -17.7935 C   0  0  0  0  0  0  0  0  0  0  0  0
   18.0956   -5.6637  -17.2202 O   0  0  0  0  0  0  0  0  0  0  0  0
   20.5088   -5.8300  -15.3736 C   0  0  0  0  0  0  0  0  0  0  0  0
   20.7485   -6.1191  -14.0186 O   0  0  0  0  0  0  0  0  0  0  0  0
   19.5005   -5.5709  -18.9922 O   0  0  0  0  0  0  0  0  0  0  0  0
   19.9209   -4.7739  -15.6658 O   0  0  0  0  0  0  0  0  0  0  0  0
  1  2  1  0
  2  4  1  0
  2  3  2  0
  4  5  1  0
  5  6  1  0
  6  8  1  0
  6  7  1  1
  8  9  2  0
 11 10  1  0
 12 11  1  0
 12 14  1  0
 12 13  1  1
 14 15  1  6
 15  8  1  0
 16 17  2  0
 16 14  1  0
 18 16  1  0
 19 18  1  0
 19 23  1  0
 19 20  1  1
 21 20  1  0
 22 21  2  0
 23 24  1  0
 25 21  1  0
 26 23  2  0
M  END
$$$$
