QID.pdb
     RDKit          3D

 26 25  0  0  1  0  0  0  0  0999 V2000
   16.8719   -9.2859  -19.4990 N   0  0  0  0  0  0  0  0  0  0  0  0
   15.8875  -10.2851  -19.1557 C   0  0  0  0  0  0  0  0  0  0  0  0
   15.0522  -10.5479  -20.0296 O   0  0  0  0  0  0  0  0  0  0  0  0
   15.9793  -10.8656  -17.8395 C   0  0  0  0  0  0  0  0  0  0  0  0
   17.0676  -10.4533  -16.9291 C   0  0  0  0  0  0  0  0  0  0  0  0
   18.0614  -11.4783  -16.5209 C   0  0  2  0  0  0  0  0  0  0  0  0
   17.4384  -12.5435  -15.8041 N   0  0  0  0  0  0  0  0  0  0  0  0
   19.0298  -10.8193  -15.5854 C   0  0  0  0  0  0  0  0  0  0  0  0
   18.6893  -10.7298  -14.3827 O   0  0  0  0  0  0  0  0  0  0  0  0
   22.3103  -12.6752  -15.8164 C   0  0  0  0  0  0  0  0  0  0  0  0
   22.5770  -11.7152  -14.6742 C   0  0  0  0  0  0  0  0  0  0  0  0
   22.5363  -10.3179  -15.2170 C   0  0  2  0  0  0  0  0  0  0  0  0
   23.5369   -9.4971  -14.4077 C   0  0  0  0  0  0  0  0  0  0  0  0
   21.1984   -9.6634  -15.0568 C   0  0  2  0  0  0  0  0  0  0  0  0
   20.2812  -10.3045  -15.9891 N   0  0  0  0  0  0  0  0  0  0  0  0
   21.2277   -8.2075  -15.2883 C   0  0  0  0  0  0  0  0  0  0  0  0
   21.4650   -7.7835  -16.4543 O   0  0  0  0  0  0  0  0  0  0  0  0
   21.0087   -7.2385  -14.2978 N   0  0  0  0  0  0  0  0  0  0  0  0
   21.0990   -5.8062  -14.5350 C   0  0  1  0  0  0  0  0  0  0  0  0
   19.8096   -5.1006  -14.3450 C   0  0  0  0  0  0  0  0  0  0  0  0
   19.1158   -4.9376  -15.6365 C   0  0  0  0  0  0  0  0  0  0  0  0
   19.5168   -5.5216  -16.6736 O   0  0  0  0  0  0  0  0  0  0  0  0
   22.1703   -5.1883  -13.7329 C   0  0  0  0  0  0  0  0  0  0  0  0
   22.6413   -3.9213  -14.1200 O   0  0  0  0  0  0  0  0  0  0  0  0
   17.9929   -4.1298  -15.7444 O   0  0  0  0  0  0  0  0  0  0  0  0
   22.6728   -5.7350  -12.7352 O   0  0  0  0  0  0  0  0  0  0  0  0
  1  2  1  0
  2  4  1  0
  2  3  2  0
  4  5  1  0
  5  6  1  0
  6  8  1  0
  6  7  1  1
  8  9  2  0
 11 10  1  0
 12 11  1  0
 12 14  1  0
 12 13  1  1
 14 15  1  6
 15  8  1  0
 16 17  2  0
 16 14  1  0
 18 16  1  0
 19 18  1  0
 19 23  1  0
 19 20  1  1
 21 20  1  0
 22 21  2  0
 23 24  1  0
 25 21  1  0
 26 23  2  0
M  END
$$$$
