QID.pdb
     RDKit          3D

 26 25  0  0  1  0  0  0  0  0999 V2000
   18.4194  -12.7328  -20.3219 N   0  0  0  0  0  0  0  0  0  0  0  0
   19.3196  -12.4835  -21.4232 C   0  0  0  0  0  0  0  0  0  0  0  0
   18.8990  -12.7832  -22.5474 O   0  0  0  0  0  0  0  0  0  0  0  0
   20.6053  -11.9181  -21.0992 C   0  0  0  0  0  0  0  0  0  0  0  0
   20.9304  -11.5888  -19.6960 C   0  0  0  0  0  0  0  0  0  0  0  0
   22.1859  -12.1376  -19.1236 C   0  0  2  0  0  0  0  0  0  0  0  0
   22.0709  -13.5385  -18.8773 N   0  0  0  0  0  0  0  0  0  0  0  0
   22.4069  -11.4699  -17.7998 C   0  0  0  0  0  0  0  0  0  0  0  0
   21.6681  -11.8251  -16.8520 O   0  0  0  0  0  0  0  0  0  0  0  0
   26.7694  -11.7717  -15.3126 C   0  0  0  0  0  0  0  0  0  0  0  0
   25.2954  -11.6097  -15.6265 C   0  0  0  0  0  0  0  0  0  0  0  0
   25.0263  -10.1556  -15.8758 C   0  0  2  0  0  0  0  0  0  0  0  0
   25.2785   -9.4247  -14.5597 C   0  0  0  0  0  0  0  0  0  0  0  0
   23.6072   -9.8789  -16.2679 C   0  0  2  0  0  0  0  0  0  0  0  0
   23.3881  -10.4792  -17.5769 N   0  0  0  0  0  0  0  0  0  0  0  0
   23.2795   -8.4418  -16.3034 C   0  0  0  0  0  0  0  0  0  0  0  0
   23.8369   -7.7139  -17.1724 O   0  0  0  0  0  0  0  0  0  0  0  0
   22.3810   -7.8075  -15.4326 N   0  0  0  0  0  0  0  0  0  0  0  0
   22.0723   -6.3870  -15.4843 C   0  0  1  0  0  0  0  0  0  0  0  0
   20.6721   -6.1080  -15.8818 C   0  0  0  0  0  0  0  0  0  0  0  0
   20.4419   -4.6539  -15.9733 C   0  0  0  0  0  0  0  0  0  0  0  0
   21.2875   -3.8890  -16.4999 O   0  0  0  0  0  0  0  0  0  0  0  0
   22.4151   -5.7093  -14.2209 C   0  0  0  0  0  0  0  0  0  0  0  0
   22.5700   -4.3119  -14.2393 O   0  0  0  0  0  0  0  0  0  0  0  0
   19.2777   -4.0848  -15.4777 O   0  0  0  0  0  0  0  0  0  0  0  0
   22.5722   -6.3153  -13.1464 O   0  0  0  0  0  0  0  0  0  0  0  0
  1  2  1  0
  2  4  1  0
  2  3  2  0
  4  5  1  0
  5  6  1  0
  6  8  1  0
  6  7  1  1
  8  9  2  0
 11 10  1  0
 12 11  1  0
 12 14  1  0
 12 13  1  1
 14 15  1  6
 15  8  1  0
 16 17  2  0
 16 14  1  0
 18 16  1  0
 19 18  1  0
 19 23  1  0
 19 20  1  1
 21 20  1  0
 22 21  2  0
 23 24  1  0
 25 21  1  0
 26 23  2  0
M  END
$$$$
