QID.pdb
     RDKit          3D

 26 25  0  0  1  0  0  0  0  0999 V2000
   17.5406  -12.9319  -17.4678 N   0  0  0  0  0  0  0  0  0  0  0  0
   17.9291  -13.0160  -18.8561 C   0  0  0  0  0  0  0  0  0  0  0  0
   17.1490  -13.6192  -19.6031 O   0  0  0  0  0  0  0  0  0  0  0  0
   19.1771  -12.3949  -19.2227 C   0  0  0  0  0  0  0  0  0  0  0  0
   19.9836  -11.7042  -18.1953 C   0  0  0  0  0  0  0  0  0  0  0  0
   21.1927  -12.3935  -17.6779 C   0  0  2  0  0  0  0  0  0  0  0  0
   20.8487  -13.6096  -17.0150 N   0  0  0  0  0  0  0  0  0  0  0  0
   21.8223  -11.4936  -16.6576 C   0  0  0  0  0  0  0  0  0  0  0  0
   21.2911  -11.4587  -15.5232 O   0  0  0  0  0  0  0  0  0  0  0  0
   26.8799  -11.7871  -15.6911 C   0  0  0  0  0  0  0  0  0  0  0  0
   25.3858  -11.5879  -15.5308 C   0  0  0  0  0  0  0  0  0  0  0  0
   25.0585  -10.1735  -15.9064 C   0  0  2  0  0  0  0  0  0  0  0  0
   25.7118   -9.2733  -14.8611 C   0  0  0  0  0  0  0  0  0  0  0  0
   23.5891   -9.8831  -15.8807 C   0  0  2  0  0  0  0  0  0  0  0  0
   22.9619  -10.6993  -16.9114 N   0  0  0  0  0  0  0  0  0  0  0  0
   23.2702   -8.4592  -16.0920 C   0  0  0  0  0  0  0  0  0  0  0  0
   23.6720   -7.8982  -17.1501 O   0  0  0  0  0  0  0  0  0  0  0  0
   22.5424   -7.6638  -15.1944 N   0  0  0  0  0  0  0  0  0  0  0  0
   22.2246   -6.2640  -15.4298 C   0  0  1  0  0  0  0  0  0  0  0  0
   20.8620   -6.0585  -15.9753 C   0  0  0  0  0  0  0  0  0  0  0  0
   20.6254   -4.6280  -16.2465 C   0  0  0  0  0  0  0  0  0  0  0  0
   21.5755   -3.8102  -16.3234 O   0  0  0  0  0  0  0  0  0  0  0  0
   22.4476   -5.4452  -14.2245 C   0  0  0  0  0  0  0  0  0  0  0  0
   22.4591   -4.0464  -14.3665 O   0  0  0  0  0  0  0  0  0  0  0  0
   19.3389   -4.1408  -16.4258 O   0  0  0  0  0  0  0  0  0  0  0  0
   22.6249   -5.9341  -13.0949 O   0  0  0  0  0  0  0  0  0  0  0  0
  1  2  1  0
  2  4  1  0
  2  3  2  0
  4  5  1  0
  5  6  1  0
  6  8  1  0
  6  7  1  1
  8  9  2  0
 11 10  1  0
 12 11  1  0
 12 14  1  0
 12 13  1  1
 14 15  1  6
 15  8  1  0
 16 17  2  0
 16 14  1  0
 18 16  1  0
 19 18  1  0
 19 23  1  0
 19 20  1  1
 21 20  1  0
 22 21  2  0
 23 24  1  0
 25 21  1  0
 26 23  2  0
M  END
$$$$
