QID.pdb
     RDKit          3D

 26 25  0  0  1  0  0  0  0  0999 V2000
   19.1008   -9.1512  -13.6027 N   0  0  0  0  0  0  0  0  0  0  0  0
   18.7310  -10.1723  -14.5545 C   0  0  0  0  0  0  0  0  0  0  0  0
   19.6625  -10.8255  -15.0403 O   0  0  0  0  0  0  0  0  0  0  0  0
   17.3256  -10.3205  -14.8385 C   0  0  0  0  0  0  0  0  0  0  0  0
   16.3336   -9.5506  -14.0599 C   0  0  0  0  0  0  0  0  0  0  0  0
   15.8097  -10.1531  -12.8079 C   0  0  2  0  0  0  0  0  0  0  0  0
   14.8764  -11.1955  -13.0889 N   0  0  0  0  0  0  0  0  0  0  0  0
   15.0690   -9.0806  -12.0675 C   0  0  0  0  0  0  0  0  0  0  0  0
   13.8739   -8.8863  -12.3906 O   0  0  0  0  0  0  0  0  0  0  0  0
   12.8102   -6.5083   -8.1445 C   0  0  0  0  0  0  0  0  0  0  0  0
   14.3146   -6.3238   -8.1509 C   0  0  0  0  0  0  0  0  0  0  0  0
   14.9213   -7.4470   -8.9378 C   0  0  2  0  0  0  0  0  0  0  0  0
   16.3764   -7.5666   -8.4928 C   0  0  0  0  0  0  0  0  0  0  0  0
   14.9321   -7.1922  -10.4140 C   0  0  2  0  0  0  0  0  0  0  0  0
   15.6445   -8.2951  -11.0449 N   0  0  0  0  0  0  0  0  0  0  0  0
   15.5526   -5.9062  -10.7814 C   0  0  0  0  0  0  0  0  0  0  0  0
   16.7856   -5.7427  -10.5607 O   0  0  0  0  0  0  0  0  0  0  0  0
   14.8693   -4.8303  -11.3676 N   0  0  0  0  0  0  0  0  0  0  0  0
   15.5012   -3.5691  -11.7225 C   0  0  1  0  0  0  0  0  0  0  0  0
   15.8932   -3.4940  -13.1498 C   0  0  0  0  0  0  0  0  0  0  0  0
   16.4687   -2.1711  -13.4577 C   0  0  0  0  0  0  0  0  0  0  0  0
   17.4943   -1.7498  -12.8677 O   0  0  0  0  0  0  0  0  0  0  0  0
   14.6693   -2.4156  -11.3347 C   0  0  0  0  0  0  0  0  0  0  0  0
   15.3122   -1.1924  -11.0752 O   0  0  0  0  0  0  0  0  0  0  0  0
   15.8908   -1.3484  -14.4137 O   0  0  0  0  0  0  0  0  0  0  0  0
   13.4318   -2.4764  -11.2277 O   0  0  0  0  0  0  0  0  0  0  0  0
  1  2  1  0
  2  4  1  0
  2  3  2  0
  4  5  1  0
  5  6  1  0
  6  8  1  0
  6  7  1  6
  8  9  2  0
 11 10  1  0
 12 11  1  0
 12 14  1  0
 12 13  1  1
 14 15  1  6
 15  8  1  0
 16 17  2  0
 16 14  1  0
 18 16  1  0
 19 18  1  0
 19 23  1  0
 19 20  1  6
 21 20  1  0
 22 21  2  0
 23 24  1  0
 25 21  1  0
 26 23  2  0
M  END
$$$$
