QID.pdb
     RDKit          3D

 26 25  0  0  1  0  0  0  0  0999 V2000
   27.5935  -20.0083  -18.2355 N   0  0  0  0  0  0  0  0  0  0  0  0
   28.4445  -18.9267  -17.7980 C   0  0  0  0  0  0  0  0  0  0  0  0
   29.2180  -18.4665  -18.6466 O   0  0  0  0  0  0  0  0  0  0  0  0
   28.3060  -18.5016  -16.4276 C   0  0  0  0  0  0  0  0  0  0  0  0
   27.3141  -19.1585  -15.5514 C   0  0  0  0  0  0  0  0  0  0  0  0
   27.8023  -20.1731  -14.5833 C   0  0  2  0  0  0  0  0  0  0  0  0
   28.4429  -21.2583  -15.2531 N   0  0  0  0  0  0  0  0  0  0  0  0
   26.6054  -20.7321  -13.8747 C   0  0  0  0  0  0  0  0  0  0  0  0
   25.9841  -21.6571  -14.4481 O   0  0  0  0  0  0  0  0  0  0  0  0
   26.4629  -20.8358   -8.4876 C   0  0  0  0  0  0  0  0  0  0  0  0
   26.2841  -21.3051   -9.9177 C   0  0  0  0  0  0  0  0  0  0  0  0
   25.1032  -20.5888  -10.5019 C   0  0  2  0  0  0  0  0  0  0  0  0
   23.8574  -21.1717   -9.8400 C   0  0  0  0  0  0  0  0  0  0  0  0
   24.9576  -20.8011  -11.9777 C   0  0  2  0  0  0  0  0  0  0  0  0
   26.1548  -20.2729  -12.6177 N   0  0  0  0  0  0  0  0  0  0  0  0
   23.7531  -20.1667  -12.5442 C   0  0  0  0  0  0  0  0  0  0  0  0
   23.8695  -19.0458  -13.1148 O   0  0  0  0  0  0  0  0  0  0  0  0
   22.4648  -20.7200  -12.4987 N   0  0  0  0  0  0  0  0  0  0  0  0
   21.4807  -20.5637  -13.5584 C   0  0  1  0  0  0  0  0  0  0  0  0
   22.0016  -20.9281  -14.8971 C   0  0  0  0  0  0  0  0  0  0  0  0
   20.9640  -20.7280  -15.9263 C   0  0  0  0  0  0  0  0  0  0  0  0
   19.9809  -19.9722  -15.7267 O   0  0  0  0  0  0  0  0  0  0  0  0
   20.2336  -21.2884  -13.2540 C   0  0  0  0  0  0  0  0  0  0  0  0
   20.3257  -22.6460  -12.9000 O   0  0  0  0  0  0  0  0  0  0  0  0
   21.0437  -21.3724  -17.1523 O   0  0  0  0  0  0  0  0  0  0  0  0
   19.1109  -20.7552  -13.2964 O   0  0  0  0  0  0  0  0  0  0  0  0
  1  2  1  0
  2  4  1  0
  2  3  2  0
  4  5  1  0
  5  6  1  0
  6  8  1  0
  6  7  1  6
  8  9  2  0
 11 10  1  0
 12 11  1  0
 12 14  1  0
 12 13  1  1
 14 15  1  6
 15  8  1  0
 16 17  2  0
 16 14  1  0
 18 16  1  0
 19 18  1  0
 19 23  1  0
 19 20  1  6
 21 20  1  0
 22 21  2  0
 23 24  1  0
 25 21  1  0
 26 23  2  0
M  END
$$$$
