QID.pdb
     RDKit          3D

 26 25  0  0  1  0  0  0  0  0999 V2000
   26.2379  -23.5460  -15.4972 N   0  0  0  0  0  0  0  0  0  0  0  0
   25.5290  -24.4648  -14.6378 C   0  0  0  0  0  0  0  0  0  0  0  0
   25.9209  -25.6381  -14.6558 O   0  0  0  0  0  0  0  0  0  0  0  0
   24.4455  -23.9230  -13.8566 C   0  0  0  0  0  0  0  0  0  0  0  0
   24.1684  -22.4721  -13.8920 C   0  0  0  0  0  0  0  0  0  0  0  0
   25.1552  -21.5579  -13.2632 C   0  0  2  0  0  0  0  0  0  0  0  0
   25.1136  -21.6548  -11.8400 N   0  0  0  0  0  0  0  0  0  0  0  0
   24.7652  -20.1564  -13.6251 C   0  0  0  0  0  0  0  0  0  0  0  0
   23.8683  -19.6181  -12.9349 O   0  0  0  0  0  0  0  0  0  0  0  0
   26.4901  -15.0102  -14.8859 C   0  0  0  0  0  0  0  0  0  0  0  0
   25.8570  -15.9267  -15.9139 C   0  0  0  0  0  0  0  0  0  0  0  0
   26.1460  -17.3443  -15.5193 C   0  0  2  0  0  0  0  0  0  0  0  0
   26.6249  -18.0669  -16.7756 C   0  0  0  0  0  0  0  0  0  0  0  0
   24.9356  -18.0757  -15.0253 C   0  0  2  0  0  0  0  0  0  0  0  0
   25.3490  -19.4308  -14.6865 N   0  0  0  0  0  0  0  0  0  0  0  0
   23.8317  -18.1074  -16.0022 C   0  0  0  0  0  0  0  0  0  0  0  0
   23.8171  -19.0241  -16.8713 O   0  0  0  0  0  0  0  0  0  0  0  0
   22.7771  -17.1833  -16.0434 N   0  0  0  0  0  0  0  0  0  0  0  0
   21.5727  -17.3668  -16.8381 C   0  0  1  0  0  0  0  0  0  0  0  0
   21.7329  -18.3694  -17.9177 C   0  0  0  0  0  0  0  0  0  0  0  0
   22.1843  -17.7193  -19.1624 C   0  0  0  0  0  0  0  0  0  0  0  0
   22.3959  -16.4824  -19.2156 O   0  0  0  0  0  0  0  0  0  0  0  0
   20.4044  -17.6726  -15.9928 C   0  0  0  0  0  0  0  0  0  0  0  0
   19.1702  -17.9023  -16.6261 O   0  0  0  0  0  0  0  0  0  0  0  0
   22.3899  -18.4591  -20.3179 O   0  0  0  0  0  0  0  0  0  0  0  0
   20.4620  -17.7361  -14.7522 O   0  0  0  0  0  0  0  0  0  0  0  0
  1  2  1  0
  2  4  1  0
  2  3  2  0
  4  5  1  0
  5  6  1  0
  6  8  1  0
  6  7  1  1
  8  9  2  0
 11 10  1  0
 12 11  1  0
 12 14  1  0
 12 13  1  6
 14 15  1  6
 15  8  1  0
 16 17  2  0
 16 14  1  0
 18 16  1  0
 19 18  1  0
 19 23  1  0
 19 20  1  6
 21 20  1  0
 22 21  2  0
 23 24  1  0
 25 21  1  0
 26 23  2  0
M  END
$$$$
