QID.pdb
     RDKit          3D

 26 25  0  0  1  0  0  0  0  0999 V2000
   16.5233   -7.4013  -18.9956 N   0  0  0  0  0  0  0  0  0  0  0  0
   15.6858   -8.5768  -19.0434 C   0  0  0  0  0  0  0  0  0  0  0  0
   14.9065   -8.6502  -20.0014 O   0  0  0  0  0  0  0  0  0  0  0  0
   15.8430   -9.5331  -17.9764 C   0  0  0  0  0  0  0  0  0  0  0  0
   16.9034   -9.3388  -16.9661 C   0  0  0  0  0  0  0  0  0  0  0  0
   17.7710  -10.4971  -16.6338 C   0  0  2  0  0  0  0  0  0  0  0  0
   17.0205  -11.5434  -16.0185 N   0  0  0  0  0  0  0  0  0  0  0  0
   18.7841  -10.0286  -15.6331 C   0  0  0  0  0  0  0  0  0  0  0  0
   18.4784  -10.1308  -14.4221 O   0  0  0  0  0  0  0  0  0  0  0  0
   23.4558  -11.8449  -14.9664 C   0  0  0  0  0  0  0  0  0  0  0  0
   22.0951  -11.1898  -14.8372 C   0  0  0  0  0  0  0  0  0  0  0  0
   22.2502   -9.7262  -15.1248 C   0  0  2  0  0  0  0  0  0  0  0  0
   23.2141   -9.1677  -14.0813 C   0  0  0  0  0  0  0  0  0  0  0  0
   20.9686   -8.9619  -14.9938 C   0  0  2  0  0  0  0  0  0  0  0  0
   20.0401   -9.4879  -15.9853 N   0  0  0  0  0  0  0  0  0  0  0  0
   21.1340   -7.5073  -15.1695 C   0  0  0  0  0  0  0  0  0  0  0  0
   21.6366   -7.0799  -16.2467 O   0  0  0  0  0  0  0  0  0  0  0  0
   20.7705   -6.5432  -14.2175 N   0  0  0  0  0  0  0  0  0  0  0  0
   20.9606   -5.1130  -14.4029 C   0  0  1  0  0  0  0  0  0  0  0  0
   19.7680   -4.3133  -14.0362 C   0  0  0  0  0  0  0  0  0  0  0  0
   18.6912   -4.5100  -15.0251 C   0  0  0  0  0  0  0  0  0  0  0  0
   18.8888   -5.1446  -16.0908 O   0  0  0  0  0  0  0  0  0  0  0  0
   22.1649   -4.6291  -13.7041 C   0  0  0  0  0  0  0  0  0  0  0  0
   22.6705   -3.3644  -14.0534 O   0  0  0  0  0  0  0  0  0  0  0  0
   17.4209   -3.9970  -14.8059 O   0  0  0  0  0  0  0  0  0  0  0  0
   22.7497   -5.2860  -12.8248 O   0  0  0  0  0  0  0  0  0  0  0  0
  1  2  1  0
  2  4  1  0
  2  3  2  0
  4  5  1  0
  5  6  1  0
  6  8  1  0
  6  7  1  1
  8  9  2  0
 11 10  1  0
 12 11  1  0
 12 14  1  0
 12 13  1  1
 14 15  1  6
 15  8  1  0
 16 17  2  0
 16 14  1  0
 18 16  1  0
 19 18  1  0
 19 23  1  0
 19 20  1  1
 21 20  1  0
 22 21  2  0
 23 24  1  0
 25 21  1  0
 26 23  2  0
M  END
$$$$
