QID.pdb
     RDKit          3D

 26 25  0  0  1  0  0  0  0  0999 V2000
   28.3964  -11.2903  -16.2158 N   0  0  0  0  0  0  0  0  0  0  0  0
   27.9455  -12.6221  -15.8867 C   0  0  0  0  0  0  0  0  0  0  0  0
   28.7965  -13.3807  -15.4064 O   0  0  0  0  0  0  0  0  0  0  0  0
   26.5619  -12.9263  -16.1527 C   0  0  0  0  0  0  0  0  0  0  0  0
   25.6632  -11.8714  -16.6653 C   0  0  0  0  0  0  0  0  0  0  0  0
   24.2450  -12.2279  -16.9231 C   0  0  2  0  0  0  0  0  0  0  0  0
   24.1399  -13.2147  -17.9486 N   0  0  0  0  0  0  0  0  0  0  0  0
   23.5537  -10.9942  -17.4205 C   0  0  0  0  0  0  0  0  0  0  0  0
   23.5650  -10.7941  -18.6575 O   0  0  0  0  0  0  0  0  0  0  0  0
   18.9670   -9.3192  -19.2574 C   0  0  0  0  0  0  0  0  0  0  0  0
   19.9980   -8.5884  -18.4204 C   0  0  0  0  0  0  0  0  0  0  0  0
   20.9758   -9.5969  -17.8954 C   0  0  2  0  0  0  0  0  0  0  0  0
   20.2028  -10.5186  -16.9559 C   0  0  0  0  0  0  0  0  0  0  0  0
   22.0831   -8.9816  -17.0958 C   0  0  2  0  0  0  0  0  0  0  0  0
   22.9052  -10.0663  -16.5766 N   0  0  0  0  0  0  0  0  0  0  0  0
   21.6042   -8.1297  -15.9917 C   0  0  0  0  0  0  0  0  0  0  0  0
   21.6807   -8.5690  -14.8097 O   0  0  0  0  0  0  0  0  0  0  0  0
   21.0605   -6.8467  -16.1532 N   0  0  0  0  0  0  0  0  0  0  0  0
   21.0855   -5.8228  -15.1202 C   0  0  1  0  0  0  0  0  0  0  0  0
   22.4454   -5.5575  -14.5941 C   0  0  0  0  0  0  0  0  0  0  0  0
   22.3901   -4.5787  -13.4920 C   0  0  0  0  0  0  0  0  0  0  0  0
   22.5468   -3.3499  -13.6991 O   0  0  0  0  0  0  0  0  0  0  0  0
   20.4340   -4.5796  -15.5705 C   0  0  0  0  0  0  0  0  0  0  0  0
   20.4229   -4.2987  -16.9482 O   0  0  0  0  0  0  0  0  0  0  0  0
   22.1619   -4.9888  -12.1864 O   0  0  0  0  0  0  0  0  0  0  0  0
   19.8971   -3.7735  -14.7905 O   0  0  0  0  0  0  0  0  0  0  0  0
  1  2  1  0
  2  4  1  0
  2  3  2  0
  4  5  1  0
  5  6  1  0
  6  8  1  0
  6  7  1  6
  8  9  2  0
 11 10  1  0
 12 11  1  0
 12 14  1  0
 12 13  1  1
 14 15  1  1
 15  8  1  0
 16 17  2  0
 16 14  1  0
 18 16  1  0
 19 18  1  0
 19 23  1  0
 19 20  1  6
 21 20  1  0
 22 21  2  0
 23 24  1  0
 25 21  1  0
 26 23  2  0
M  END
$$$$
