QID.pdb
     RDKit          3D

 26 25  0  0  1  0  0  0  0  0999 V2000
   27.2606  -27.2440  -16.6017 N   0  0  0  0  0  0  0  0  0  0  0  0
   28.5215  -27.8030  -17.0295 C   0  0  0  0  0  0  0  0  0  0  0  0
   28.4709  -28.9264  -17.5450 O   0  0  0  0  0  0  0  0  0  0  0  0
   29.6984  -27.0002  -16.8103 C   0  0  0  0  0  0  0  0  0  0  0  0
   29.5633  -25.6288  -16.2772 C   0  0  0  0  0  0  0  0  0  0  0  0
   29.5579  -24.5019  -17.2442 C   0  0  2  0  0  0  0  0  0  0  0  0
   30.8826  -24.1757  -17.6630 N   0  0  0  0  0  0  0  0  0  0  0  0
   29.0077  -23.3018  -16.5342 C   0  0  0  0  0  0  0  0  0  0  0  0
   29.8352  -22.5236  -16.0051 O   0  0  0  0  0  0  0  0  0  0  0  0
   28.1478  -18.3035  -17.3201 C   0  0  0  0  0  0  0  0  0  0  0  0
   27.3397  -19.2790  -16.4877 C   0  0  0  0  0  0  0  0  0  0  0  0
   27.7886  -20.6689  -16.8273 C   0  0  2  0  0  0  0  0  0  0  0  0
   27.3770  -20.9281  -18.2741 C   0  0  0  0  0  0  0  0  0  0  0  0
   27.1313  -21.7210  -15.9876 C   0  0  2  0  0  0  0  0  0  0  0  0
   27.6286  -23.0148  -16.4354 N   0  0  0  0  0  0  0  0  0  0  0  0
   25.6587  -21.6883  -16.0552 C   0  0  0  0  0  0  0  0  0  0  0  0
   25.0504  -22.6939  -16.5184 O   0  0  0  0  0  0  0  0  0  0  0  0
   24.8656  -20.6090  -15.6382 N   0  0  0  0  0  0  0  0  0  0  0  0
   23.4762  -20.7387  -15.2274 C   0  0  1  0  0  0  0  0  0  0  0  0
   23.2673  -21.7829  -14.1966 C   0  0  0  0  0  0  0  0  0  0  0  0
   21.9321  -22.3924  -14.3431 C   0  0  0  0  0  0  0  0  0  0  0  0
   21.1076  -21.9675  -15.1900 O   0  0  0  0  0  0  0  0  0  0  0  0
   22.9118  -19.4455  -14.8011 C   0  0  0  0  0  0  0  0  0  0  0  0
   21.5125  -19.3185  -14.7476 O   0  0  0  0  0  0  0  0  0  0  0  0
   21.5451  -23.4594  -13.5451 O   0  0  0  0  0  0  0  0  0  0  0  0
   23.6143  -18.4680  -14.4887 O   0  0  0  0  0  0  0  0  0  0  0  0
  1  2  1  0
  2  4  1  0
  2  3  2  0
  4  5  1  0
  5  6  1  0
  6  8  1  0
  6  7  1  1
  8  9  2  0
 11 10  1  0
 12 11  1  0
 12 14  1  0
 12 13  1  6
 14 15  1  6
 15  8  1  0
 16 17  2  0
 16 14  1  0
 18 16  1  0
 19 18  1  0
 19 23  1  0
 19 20  1  1
 21 20  1  0
 22 21  2  0
 23 24  1  0
 25 21  1  0
 26 23  2  0
M  END
$$$$
