LKE.pdb
     RDKit          3D

 27 26  0  0  1  0  0  0  0  0999 V2000
   25.2592  -15.0224  -18.8739 C   0  0  0  0  0  0  0  0  0  0  0  0
   25.4615  -14.1853  -17.6220 C   0  0  1  0  0  0  0  0  0  0  0  0
   26.8082  -14.6250  -17.0401 C   0  0  0  0  0  0  0  0  0  0  0  0
   25.4712  -12.7484  -17.9946 C   0  0  0  0  0  0  0  0  0  0  0  0
   25.3215  -11.8659  -16.7862 C   0  0  2  0  0  0  0  0  0  0  0  0
   25.0748  -12.7654  -15.6408 N   0  0  0  0  0  0  0  0  0  0  0  0
   24.2053  -10.9056  -16.9099 C   0  0  0  0  0  0  0  0  0  0  0  0
   24.2235  -10.0165  -17.7883 O   0  0  0  0  0  0  0  0  0  0  0  0
   23.1078  -10.9965  -16.0244 N   0  0  0  0  0  0  0  0  0  0  0  0
   21.9851  -10.0917  -16.1294 C   0  0  1  0  0  0  0  0  0  0  0  0
   20.7945  -10.8169  -15.5684 C   0  0  0  0  0  0  0  0  0  0  0  0
   19.5087  -10.0662  -15.6181 C   0  0  0  0  0  0  0  0  0  0  0  0
   18.4457  -10.9513  -14.9637 C   0  0  0  0  0  0  0  0  0  0  0  0
   17.0719  -10.3368  -15.1175 C   0  0  0  0  0  0  0  0  0  0  0  0
   16.1063  -11.2142  -14.4845 N   0  0  0  0  0  0  0  0  0  0  0  0
   22.3127   -8.8394  -15.4180 C   0  0  0  0  0  0  0  0  0  0  0  0
   22.8986   -8.8819  -14.3307 O   0  0  0  0  0  0  0  0  0  0  0  0
   21.9637   -7.5901  -15.9667 N   0  0  0  0  0  0  0  0  0  0  0  0
   22.2669   -6.3073  -15.3402 C   0  0  1  0  0  0  0  0  0  0  0  0
   22.0857   -5.1724  -16.2683 C   0  0  0  0  0  0  0  0  0  0  0  0
   22.2805   -3.8341  -15.6671 C   0  0  0  0  0  0  0  0  0  0  0  0
   22.1041   -2.6837  -16.5585 C   0  0  0  0  0  0  0  0  0  0  0  0
   21.5434   -2.8218  -17.6660 O   0  0  0  0  0  0  0  0  0  0  0  0
   21.4471   -6.1889  -14.1092 C   0  0  0  0  0  0  0  0  0  0  0  0
   20.3043   -6.6816  -14.0572 O   0  0  0  0  0  0  0  0  0  0  0  0
   22.5457   -1.4190  -16.2123 O   0  0  0  0  0  0  0  0  0  0  0  0
   21.9241   -5.5379  -13.0005 O   0  0  0  0  0  0  0  0  0  0  0  0
  2  1  1  6
  3  2  1  0
  4  2  1  0
  4  5  1  0
  5  6  1  1
  7  8  2  0
  7  5  1  0
  9  7  1  0
 10  9  1  0
 10 11  1  1
 12 11  1  0
 13 12  1  0
 14 13  1  0
 15 14  1  0
 16 10  1  0
 17 16  2  0
 18 16  1  0
 19 18  1  0
 19 20  1  6
 20 21  1  0
 21 22  1  0
 22 26  1  0
 23 22  2  0
 24 27  1  0
 24 19  1  0
 25 24  2  0
M  END
$$$$
