LKE.pdb
     RDKit          3D

 27 26  0  0  1  0  0  0  0  0999 V2000
   28.1491  -18.8074   -5.2712 C   0  0  0  0  0  0  0  0  0  0  0  0
   28.1557  -19.9517   -6.2709 C   0  0  1  0  0  0  0  0  0  0  0  0
   28.0662  -21.2334   -5.4372 C   0  0  0  0  0  0  0  0  0  0  0  0
   26.9907  -19.8097   -7.1799 C   0  0  0  0  0  0  0  0  0  0  0  0
   27.0120  -20.8480   -8.2674 C   0  0  2  0  0  0  0  0  0  0  0  0
   28.4345  -21.1414   -8.5363 N   0  0  0  0  0  0  0  0  0  0  0  0
   26.3576  -20.3918   -9.5112 C   0  0  0  0  0  0  0  0  0  0  0  0
   26.7150  -19.3311  -10.0676 O   0  0  0  0  0  0  0  0  0  0  0  0
   25.3175  -21.1651  -10.0744 N   0  0  0  0  0  0  0  0  0  0  0  0
   24.7349  -20.8185  -11.3513 C   0  0  1  0  0  0  0  0  0  0  0  0
   25.2526  -21.8190  -12.3459 C   0  0  0  0  0  0  0  0  0  0  0  0
   26.2138  -21.2821  -13.3495 C   0  0  0  0  0  0  0  0  0  0  0  0
   26.6016  -22.4438  -14.2669 C   0  0  0  0  0  0  0  0  0  0  0  0
   27.4572  -21.9542  -15.4144 C   0  0  0  0  0  0  0  0  0  0  0  0
   27.9420  -23.1082  -16.1466 N   0  0  0  0  0  0  0  0  0  0  0  0
   23.2637  -20.8123  -11.2191 C   0  0  0  0  0  0  0  0  0  0  0  0
   22.7144  -21.5537  -10.3970 O   0  0  0  0  0  0  0  0  0  0  0  0
   22.4747  -19.9669  -12.0231 N   0  0  0  0  0  0  0  0  0  0  0  0
   21.0156  -19.9412  -11.9981 C   0  0  1  0  0  0  0  0  0  0  0  0
   20.4565  -18.9196  -12.9069 C   0  0  0  0  0  0  0  0  0  0  0  0
   18.9785  -18.8819  -12.9736 C   0  0  0  0  0  0  0  0  0  0  0  0
   18.3895  -17.9186  -13.9086 C   0  0  0  0  0  0  0  0  0  0  0  0
   18.4293  -16.6944  -13.6642 O   0  0  0  0  0  0  0  0  0  0  0  0
   20.5242  -21.3106  -12.2894 C   0  0  0  0  0  0  0  0  0  0  0  0
   21.0587  -22.0019  -13.1771 O   0  0  0  0  0  0  0  0  0  0  0  0
   17.7756  -18.3227  -15.0809 O   0  0  0  0  0  0  0  0  0  0  0  0
   19.4742  -21.8496  -11.5914 O   0  0  0  0  0  0  0  0  0  0  0  0
  2  1  1  1
  3  2  1  0
  4  2  1  0
  4  5  1  0
  5  6  1  6
  7  8  2  0
  7  5  1  0
  9  7  1  0
 10  9  1  0
 10 11  1  6
 12 11  1  0
 13 12  1  0
 14 13  1  0
 15 14  1  0
 16 10  1  0
 17 16  2  0
 18 16  1  0
 19 18  1  0
 19 20  1  6
 20 21  1  0
 21 22  1  0
 22 26  1  0
 23 22  2  0
 24 27  1  0
 24 19  1  0
 25 24  2  0
M  END
$$$$
