LKE.pdb
     RDKit          3D

 27 26  0  0  1  0  0  0  0  0999 V2000
   20.0910  -12.0946    5.7106 C   0  0  0  0  0  0  0  0  0  0  0  0
   18.7861  -12.4025    4.9954 C   0  0  1  0  0  0  0  0  0  0  0  0
   19.1508  -12.5699    3.5173 C   0  0  0  0  0  0  0  0  0  0  0  0
   18.2053  -13.6472    5.5584 C   0  0  0  0  0  0  0  0  0  0  0  0
   16.9600  -14.0554    4.8210 C   0  0  2  0  0  0  0  0  0  0  0  0
   15.9368  -13.0373    5.1347 N   0  0  0  0  0  0  0  0  0  0  0  0
   16.4673  -15.3904    5.2192 C   0  0  0  0  0  0  0  0  0  0  0  0
   15.9223  -15.5636    6.3307 O   0  0  0  0  0  0  0  0  0  0  0  0
   16.6154  -16.4801    4.3317 N   0  0  0  0  0  0  0  0  0  0  0  0
   16.2175  -17.8161    4.7146 C   0  0  1  0  0  0  0  0  0  0  0  0
   16.1712  -18.6296    3.4519 C   0  0  0  0  0  0  0  0  0  0  0  0
   15.6735  -20.0248    3.6098 C   0  0  0  0  0  0  0  0  0  0  0  0
   15.5936  -20.6349    2.2088 C   0  0  0  0  0  0  0  0  0  0  0  0
   15.1700  -22.0853    2.2823 C   0  0  0  0  0  0  0  0  0  0  0  0
   15.0021  -22.5806    0.9297 N   0  0  0  0  0  0  0  0  0  0  0  0
   17.1696  -18.3278    5.7215 C   0  0  0  0  0  0  0  0  0  0  0  0
   18.3794  -18.1102    5.5941 O   0  0  0  0  0  0  0  0  0  0  0  0
   16.7129  -19.0649    6.8313 N   0  0  0  0  0  0  0  0  0  0  0  0
   17.5699  -19.5162    7.9230 C   0  0  1  0  0  0  0  0  0  0  0  0
   17.3784  -18.7206    9.1529 C   0  0  0  0  0  0  0  0  0  0  0  0
   18.1753  -19.1661   10.3178 C   0  0  0  0  0  0  0  0  0  0  0  0
   18.0281  -18.3847   11.5494 C   0  0  0  0  0  0  0  0  0  0  0  0
   17.3452  -17.3390   11.5572 O   0  0  0  0  0  0  0  0  0  0  0  0
   17.3344  -20.9670    8.1261 C   0  0  0  0  0  0  0  0  0  0  0  0
   16.2035  -21.4580    7.9480 O   0  0  0  0  0  0  0  0  0  0  0  0
   18.6314  -18.7700   12.7335 O   0  0  0  0  0  0  0  0  0  0  0  0
   18.3510  -21.8023    8.5121 O   0  0  0  0  0  0  0  0  0  0  0  0
  2  1  1  1
  3  2  1  0
  4  2  1  0
  4  5  1  0
  5  6  1  1
  7  8  2  0
  7  5  1  0
  9  7  1  0
 10  9  1  0
 10 11  1  6
 12 11  1  0
 13 12  1  0
 14 13  1  0
 15 14  1  0
 16 10  1  0
 17 16  2  0
 18 16  1  0
 19 18  1  0
 19 20  1  1
 20 21  1  0
 21 22  1  0
 22 26  1  0
 23 22  2  0
 24 27  1  0
 24 19  1  0
 25 24  2  0
M  END
$$$$
