LKE.pdb
     RDKit          3D

 27 26  0  0  1  0  0  0  0  0999 V2000
   29.4219  -19.9932   -5.6173 C   0  0  0  0  0  0  0  0  0  0  0  0
   27.9525  -20.1512   -5.9706 C   0  0  1  0  0  0  0  0  0  0  0  0
   27.1799  -19.3913   -4.8883 C   0  0  0  0  0  0  0  0  0  0  0  0
   27.7120  -19.5765   -7.3180 C   0  0  0  0  0  0  0  0  0  0  0  0
   26.3044  -19.8318   -7.7815 C   0  0  2  0  0  0  0  0  0  0  0  0
   26.0297  -21.2584   -7.5148 N   0  0  0  0  0  0  0  0  0  0  0  0
   26.1128  -19.5519   -9.2197 C   0  0  0  0  0  0  0  0  0  0  0  0
   26.3158  -18.4073   -9.6791 O   0  0  0  0  0  0  0  0  0  0  0  0
   25.6957  -20.5914  -10.0814 N   0  0  0  0  0  0  0  0  0  0  0  0
   25.5008  -20.3585  -11.4948 C   0  0  1  0  0  0  0  0  0  0  0  0
   26.4922  -21.2285  -12.2147 C   0  0  0  0  0  0  0  0  0  0  0  0
   26.5317  -21.0608  -13.6945 C   0  0  0  0  0  0  0  0  0  0  0  0
   27.1955  -22.3130  -14.2714 C   0  0  0  0  0  0  0  0  0  0  0  0
   27.4498  -22.1469  -15.7533 C   0  0  0  0  0  0  0  0  0  0  0  0
   28.2706  -23.2550  -16.2022 N   0  0  0  0  0  0  0  0  0  0  0  0
   24.0929  -20.6464  -11.8366 C   0  0  0  0  0  0  0  0  0  0  0  0
   23.5060  -21.5888  -11.2937 O   0  0  0  0  0  0  0  0  0  0  0  0
   23.4072  -19.8556  -12.7789 N   0  0  0  0  0  0  0  0  0  0  0  0
   21.9877  -19.9966  -13.0878 C   0  0  1  0  0  0  0  0  0  0  0  0
   21.4523  -18.8269  -13.8141 C   0  0  0  0  0  0  0  0  0  0  0  0
   20.0164  -18.9095  -14.1629 C   0  0  0  0  0  0  0  0  0  0  0  0
   19.4657  -17.7942  -14.9387 C   0  0  0  0  0  0  0  0  0  0  0  0
   20.1386  -16.7581  -15.1220 O   0  0  0  0  0  0  0  0  0  0  0  0
   21.7988  -21.2729  -13.8205 C   0  0  0  0  0  0  0  0  0  0  0  0
   22.5952  -21.6159  -14.7148 O   0  0  0  0  0  0  0  0  0  0  0  0
   18.1976  -17.8457  -15.4898 O   0  0  0  0  0  0  0  0  0  0  0  0
   20.7479  -22.1056  -13.5332 O   0  0  0  0  0  0  0  0  0  0  0  0
  2  1  1  1
  3  2  1  0
  4  2  1  0
  4  5  1  0
  5  6  1  6
  7  8  2  0
  7  5  1  0
  9  7  1  0
 10  9  1  0
 10 11  1  6
 12 11  1  0
 13 12  1  0
 14 13  1  0
 15 14  1  0
 16 10  1  0
 17 16  2  0
 18 16  1  0
 19 18  1  0
 19 20  1  6
 20 21  1  0
 21 22  1  0
 22 26  1  0
 23 22  2  0
 24 27  1  0
 24 19  1  0
 25 24  2  0
M  END
$$$$
