LKE.pdb
     RDKit          3D

 27 26  0  0  1  0  0  0  0  0999 V2000
   28.8559  -18.4238   -5.3328 C   0  0  0  0  0  0  0  0  0  0  0  0
   28.2291  -19.6840   -5.9055 C   0  0  1  0  0  0  0  0  0  0  0  0
   27.3112  -20.2287   -4.8072 C   0  0  0  0  0  0  0  0  0  0  0  0
   27.4666  -19.3342   -7.1302 C   0  0  0  0  0  0  0  0  0  0  0  0
   26.7495  -20.5306   -7.6919 C   0  0  2  0  0  0  0  0  0  0  0  0
   27.7732  -21.5777   -7.8855 N   0  0  0  0  0  0  0  0  0  0  0  0
   26.0812  -20.2486   -8.9793 C   0  0  0  0  0  0  0  0  0  0  0  0
   25.2936  -19.2844   -9.0911 O   0  0  0  0  0  0  0  0  0  0  0  0
   26.3376  -21.0796  -10.0932 N   0  0  0  0  0  0  0  0  0  0  0  0
   25.7964  -20.7702  -11.3975 C   0  0  1  0  0  0  0  0  0  0  0  0
   26.5625  -21.5999  -12.3889 C   0  0  0  0  0  0  0  0  0  0  0  0
   26.1163  -21.4755  -13.8048 C   0  0  0  0  0  0  0  0  0  0  0  0
   27.1731  -20.6466  -14.5381 C   0  0  0  0  0  0  0  0  0  0  0  0
   26.8174  -20.5035  -16.0014 C   0  0  0  0  0  0  0  0  0  0  0  0
   27.8514  -19.7184  -16.6475 N   0  0  0  0  0  0  0  0  0  0  0  0
   24.3439  -21.0391  -11.3879 C   0  0  0  0  0  0  0  0  0  0  0  0
   23.8914  -21.9627  -10.7028 O   0  0  0  0  0  0  0  0  0  0  0  0
   23.4633  -20.2512  -12.1543 N   0  0  0  0  0  0  0  0  0  0  0  0
   22.0153  -20.4323  -12.1810 C   0  0  1  0  0  0  0  0  0  0  0  0
   21.3062  -19.2196  -12.6381 C   0  0  0  0  0  0  0  0  0  0  0  0
   19.8316  -19.3362  -12.6846 C   0  0  0  0  0  0  0  0  0  0  0  0
   19.0943  -18.1486  -13.1265 C   0  0  0  0  0  0  0  0  0  0  0  0
   19.4065  -17.0162  -12.7022 O   0  0  0  0  0  0  0  0  0  0  0  0
   21.7142  -21.6281  -13.0061 C   0  0  0  0  0  0  0  0  0  0  0  0
   22.3487  -21.8530  -14.0542 O   0  0  0  0  0  0  0  0  0  0  0  0
   18.0395  -18.2354  -14.0177 O   0  0  0  0  0  0  0  0  0  0  0  0
   20.7347  -22.5143  -12.6378 O   0  0  0  0  0  0  0  0  0  0  0  0
  2  1  1  1
  3  2  1  0
  4  2  1  0
  4  5  1  0
  5  6  1  6
  7  8  2  0
  7  5  1  0
  9  7  1  0
 10  9  1  0
 10 11  1  6
 12 11  1  0
 13 12  1  0
 14 13  1  0
 15 14  1  0
 16 10  1  0
 17 16  2  0
 18 16  1  0
 19 18  1  0
 19 20  1  6
 20 21  1  0
 21 22  1  0
 22 26  1  0
 23 22  2  0
 24 27  1  0
 24 19  1  0
 25 24  2  0
M  END
$$$$
