LKE.pdb
     RDKit          3D

 27 26  0  0  1  0  0  0  0  0999 V2000
   27.2591  -21.0964   -4.1518 C   0  0  0  0  0  0  0  0  0  0  0  0
   27.6890  -20.0709   -5.1875 C   0  0  1  0  0  0  0  0  0  0  0  0
   29.1976  -20.2662   -5.3657 C   0  0  0  0  0  0  0  0  0  0  0  0
   26.9534  -20.3201   -6.4526 C   0  0  0  0  0  0  0  0  0  0  0  0
   27.4331  -19.4166   -7.5548 C   0  0  2  0  0  0  0  0  0  0  0  0
   27.2778  -18.0341   -7.0582 N   0  0  0  0  0  0  0  0  0  0  0  0
   26.6671  -19.5809   -8.8077 C   0  0  0  0  0  0  0  0  0  0  0  0
   25.5074  -19.1259   -8.9103 O   0  0  0  0  0  0  0  0  0  0  0  0
   27.2550  -20.2598   -9.8987 N   0  0  0  0  0  0  0  0  0  0  0  0
   26.6273  -20.2674  -11.2010 C   0  0  1  0  0  0  0  0  0  0  0  0
   27.6818  -20.6909  -12.1843 C   0  0  0  0  0  0  0  0  0  0  0  0
   27.2402  -20.7538  -13.6057 C   0  0  0  0  0  0  0  0  0  0  0  0
   28.4503  -21.1918  -14.4335 C   0  0  0  0  0  0  0  0  0  0  0  0
   28.1390  -21.1199  -15.9121 C   0  0  0  0  0  0  0  0  0  0  0  0
   29.3377  -21.4722  -16.6483 N   0  0  0  0  0  0  0  0  0  0  0  0
   25.4532  -21.1629  -11.1599 C   0  0  0  0  0  0  0  0  0  0  0  0
   25.2022  -21.8055  -10.1346 O   0  0  0  0  0  0  0  0  0  0  0  0
   24.6113  -21.2941  -12.2814 N   0  0  0  0  0  0  0  0  0  0  0  0
   23.1951  -21.6386  -12.2060 C   0  0  1  0  0  0  0  0  0  0  0  0
   22.4360  -20.7080  -11.3457 C   0  0  0  0  0  0  0  0  0  0  0  0
   21.0065  -21.0462  -11.1654 C   0  0  0  0  0  0  0  0  0  0  0  0
   20.0485  -19.9482  -11.3254 C   0  0  0  0  0  0  0  0  0  0  0  0
   20.4354  -18.8203  -11.6968 O   0  0  0  0  0  0  0  0  0  0  0  0
   22.6641  -21.7166  -13.5893 C   0  0  0  0  0  0  0  0  0  0  0  0
   23.0016  -20.8791  -14.4474 O   0  0  0  0  0  0  0  0  0  0  0  0
   18.6982  -20.1168  -11.0748 O   0  0  0  0  0  0  0  0  0  0  0  0
   21.7926  -22.7088  -13.9585 O   0  0  0  0  0  0  0  0  0  0  0  0
  2  1  1  1
  3  2  1  0
  4  2  1  0
  4  5  1  0
  5  6  1  1
  7  8  2  0
  7  5  1  0
  9  7  1  0
 10  9  1  0
 10 11  1  6
 12 11  1  0
 13 12  1  0
 14 13  1  0
 15 14  1  0
 16 10  1  0
 17 16  2  0
 18 16  1  0
 19 18  1  0
 19 20  1  1
 20 21  1  0
 21 22  1  0
 22 26  1  0
 23 22  2  0
 24 27  1  0
 24 19  1  0
 25 24  2  0
M  END
$$$$
