LKE.pdb
     RDKit          3D

 27 26  0  0  1  0  0  0  0  0999 V2000
   17.6854  -13.9086  -15.2047 C   0  0  0  0  0  0  0  0  0  0  0  0
   18.7900  -14.4217  -16.1133 C   0  0  1  0  0  0  0  0  0  0  0  0
   18.1219  -14.7047  -17.4621 C   0  0  0  0  0  0  0  0  0  0  0  0
   19.8428  -13.3821  -16.2334 C   0  0  0  0  0  0  0  0  0  0  0  0
   20.8604  -13.7481  -17.2782 C   0  0  2  0  0  0  0  0  0  0  0  0
   21.6914  -14.8202  -16.6937 N   0  0  0  0  0  0  0  0  0  0  0  0
   21.7211  -12.6112  -17.6659 C   0  0  0  0  0  0  0  0  0  0  0  0
   22.5155  -12.1039  -16.8450 O   0  0  0  0  0  0  0  0  0  0  0  0
   21.6426  -12.0951  -18.9791 N   0  0  0  0  0  0  0  0  0  0  0  0
   22.4327  -10.9537  -19.3827 C   0  0  1  0  0  0  0  0  0  0  0  0
   22.6734  -11.0976  -20.8590 C   0  0  0  0  0  0  0  0  0  0  0  0
   23.8870  -11.8756  -21.2346 C   0  0  0  0  0  0  0  0  0  0  0  0
   23.8744  -12.0208  -22.7578 C   0  0  0  0  0  0  0  0  0  0  0  0
   25.1061  -12.7593  -23.2332 C   0  0  0  0  0  0  0  0  0  0  0  0
   25.0694  -12.8228  -24.6815 N   0  0  0  0  0  0  0  0  0  0  0  0
   21.7121   -9.7188  -19.0114 C   0  0  0  0  0  0  0  0  0  0  0  0
   20.4784   -9.6813  -19.0736 O   0  0  0  0  0  0  0  0  0  0  0  0
   22.4178   -8.5770  -18.5850 N   0  0  0  0  0  0  0  0  0  0  0  0
   21.7823   -7.3472  -18.1226 C   0  0  1  0  0  0  0  0  0  0  0  0
   21.0023   -7.5494  -16.8845 C   0  0  0  0  0  0  0  0  0  0  0  0
   21.7761   -7.4239  -15.6291 C   0  0  0  0  0  0  0  0  0  0  0  0
   21.0120   -7.4891  -14.3796 C   0  0  0  0  0  0  0  0  0  0  0  0
   20.9761   -8.5457  -13.7146 O   0  0  0  0  0  0  0  0  0  0  0  0
   22.8321   -6.3076  -17.9857 C   0  0  0  0  0  0  0  0  0  0  0  0
   22.5249   -5.1060  -17.8703 O   0  0  0  0  0  0  0  0  0  0  0  0
   20.3114   -6.3983  -13.8960 O   0  0  0  0  0  0  0  0  0  0  0  0
   24.1623   -6.6406  -17.9814 O   0  0  0  0  0  0  0  0  0  0  0  0
  2  1  1  1
  3  2  1  0
  4  2  1  0
  4  5  1  0
  5  6  1  1
  7  8  2  0
  7  5  1  0
  9  7  1  0
 10  9  1  0
 10 11  1  6
 12 11  1  0
 13 12  1  0
 14 13  1  0
 15 14  1  0
 16 10  1  0
 17 16  2  0
 18 16  1  0
 19 18  1  0
 19 20  1  1
 20 21  1  0
 21 22  1  0
 22 26  1  0
 23 22  2  0
 24 27  1  0
 24 19  1  0
 25 24  2  0
M  END
$$$$
