LKE.pdb
     RDKit          3D

 27 26  0  0  1  0  0  0  0  0999 V2000
   25.0520  -12.9636  -14.7740 C   0  0  0  0  0  0  0  0  0  0  0  0
   24.0025  -13.3736  -15.7935 C   0  0  1  0  0  0  0  0  0  0  0  0
   23.2636  -14.5640  -15.1748 C   0  0  0  0  0  0  0  0  0  0  0  0
   23.0878  -12.2300  -16.0362 C   0  0  0  0  0  0  0  0  0  0  0  0
   21.9822  -12.6019  -16.9852 C   0  0  2  0  0  0  0  0  0  0  0  0
   22.6214  -12.8507  -18.2934 N   0  0  0  0  0  0  0  0  0  0  0  0
   20.9640  -11.5404  -17.1264 C   0  0  0  0  0  0  0  0  0  0  0  0
   21.2243  -10.4853  -17.7441 O   0  0  0  0  0  0  0  0  0  0  0  0
   19.6841  -11.7235  -16.5560 N   0  0  0  0  0  0  0  0  0  0  0  0
   18.6950  -10.6695  -16.5839 C   0  0  1  0  0  0  0  0  0  0  0  0
   17.3609  -11.3258  -16.3660 C   0  0  0  0  0  0  0  0  0  0  0  0
   16.1854  -10.4117  -16.4102 C   0  0  0  0  0  0  0  0  0  0  0  0
   14.9338  -11.2821  -16.2793 C   0  0  0  0  0  0  0  0  0  0  0  0
   13.6833  -10.4408  -16.4098 C   0  0  0  0  0  0  0  0  0  0  0  0
   13.7215   -9.7625  -17.6910 N   0  0  0  0  0  0  0  0  0  0  0  0
   19.0410   -9.6627  -15.5598 C   0  0  0  0  0  0  0  0  0  0  0  0
   19.4294  -10.0251  -14.4440 O   0  0  0  0  0  0  0  0  0  0  0  0
   18.9331   -8.2869  -15.8411 N   0  0  0  0  0  0  0  0  0  0  0  0
   19.2506   -7.2290  -14.8870 C   0  0  1  0  0  0  0  0  0  0  0  0
   20.5817   -6.6358  -15.1288 C   0  0  0  0  0  0  0  0  0  0  0  0
   20.9360   -5.5078  -14.2387 C   0  0  0  0  0  0  0  0  0  0  0  0
   22.2086   -4.8331  -14.5114 C   0  0  0  0  0  0  0  0  0  0  0  0
   23.1543   -5.4556  -15.0386 O   0  0  0  0  0  0  0  0  0  0  0  0
   18.1535   -6.2306  -14.9220 C   0  0  0  0  0  0  0  0  0  0  0  0
   17.9836   -5.4402  -13.9744 O   0  0  0  0  0  0  0  0  0  0  0  0
   22.4081   -3.4998  -14.1996 O   0  0  0  0  0  0  0  0  0  0  0  0
   17.3022   -6.1511  -15.9940 O   0  0  0  0  0  0  0  0  0  0  0  0
  2  1  1  1
  3  2  1  0
  4  2  1  0
  4  5  1  0
  5  6  1  6
  7  8  2  0
  7  5  1  0
  9  7  1  0
 10  9  1  0
 10 11  1  1
 12 11  1  0
 13 12  1  0
 14 13  1  0
 15 14  1  0
 16 10  1  0
 17 16  2  0
 18 16  1  0
 19 18  1  0
 19 20  1  6
 20 21  1  0
 21 22  1  0
 22 26  1  0
 23 22  2  0
 24 27  1  0
 24 19  1  0
 25 24  2  0
M  END
$$$$
