LKE.pdb
     RDKit          3D

 27 26  0  0  1  0  0  0  0  0999 V2000
   27.8124  -18.8563   -7.0734 C   0  0  0  0  0  0  0  0  0  0  0  0
   27.8675  -19.7900   -8.2710 C   0  0  1  0  0  0  0  0  0  0  0  0
   29.0424  -20.7364   -8.0075 C   0  0  0  0  0  0  0  0  0  0  0  0
   26.5837  -20.5285   -8.3710 C   0  0  0  0  0  0  0  0  0  0  0  0
   26.5332  -21.3782   -9.6106 C   0  0  2  0  0  0  0  0  0  0  0  0
   27.9307  -21.7348   -9.9292 N   0  0  0  0  0  0  0  0  0  0  0  0
   25.9264  -20.6794  -10.7626 C   0  0  0  0  0  0  0  0  0  0  0  0
   24.7872  -20.1729  -10.6732 O   0  0  0  0  0  0  0  0  0  0  0  0
   26.6446  -20.5846  -11.9760 N   0  0  0  0  0  0  0  0  0  0  0  0
   26.0812  -19.9180  -13.1285 C   0  0  1  0  0  0  0  0  0  0  0  0
   27.2213  -19.6495  -14.0699 C   0  0  0  0  0  0  0  0  0  0  0  0
   26.8550  -18.9461  -15.3310 C   0  0  0  0  0  0  0  0  0  0  0  0
   28.1466  -18.7499  -16.1278 C   0  0  0  0  0  0  0  0  0  0  0  0
   27.8881  -17.9208  -17.3665 C   0  0  0  0  0  0  0  0  0  0  0  0
   29.1338  -17.7928  -18.0978 N   0  0  0  0  0  0  0  0  0  0  0  0
   25.0199  -20.7706  -13.7018 C   0  0  0  0  0  0  0  0  0  0  0  0
   25.2019  -21.9871  -13.8207 O   0  0  0  0  0  0  0  0  0  0  0  0
   23.7960  -20.2108  -14.1170 N   0  0  0  0  0  0  0  0  0  0  0  0
   22.6321  -20.9943  -14.5192 C   0  0  1  0  0  0  0  0  0  0  0  0
   21.5303  -20.9066  -13.5391 C   0  0  0  0  0  0  0  0  0  0  0  0
   20.3012  -21.6425  -13.9107 C   0  0  0  0  0  0  0  0  0  0  0  0
   19.0607  -20.8627  -13.9599 C   0  0  0  0  0  0  0  0  0  0  0  0
   18.5751  -20.3800  -12.9154 O   0  0  0  0  0  0  0  0  0  0  0  0
   22.2339  -20.5641  -15.8822 C   0  0  0  0  0  0  0  0  0  0  0  0
   22.3547  -19.3751  -16.2337 O   0  0  0  0  0  0  0  0  0  0  0  0
   18.3899  -20.6348  -15.1485 O   0  0  0  0  0  0  0  0  0  0  0  0
   21.7259  -21.4599  -16.7875 O   0  0  0  0  0  0  0  0  0  0  0  0
  2  1  1  1
  3  2  1  0
  4  2  1  0
  4  5  1  0
  5  6  1  6
  7  8  2  0
  7  5  1  0
  9  7  1  0
 10  9  1  0
 10 11  1  6
 12 11  1  0
 13 12  1  0
 14 13  1  0
 15 14  1  0
 16 10  1  0
 17 16  2  0
 18 16  1  0
 19 18  1  0
 19 20  1  1
 20 21  1  0
 21 22  1  0
 22 26  1  0
 23 22  2  0
 24 27  1  0
 24 19  1  0
 25 24  2  0
M  END
$$$$
