LKE.pdb
     RDKit          3D

 27 26  0  0  1  0  0  0  0  0999 V2000
   29.3756  -19.2224   -5.3013 C   0  0  0  0  0  0  0  0  0  0  0  0
   28.2195  -20.0853   -5.7787 C   0  0  1  0  0  0  0  0  0  0  0  0
   27.2615  -20.1935   -4.5886 C   0  0  0  0  0  0  0  0  0  0  0  0
   27.5720  -19.4298   -6.9425 C   0  0  0  0  0  0  0  0  0  0  0  0
   26.4658  -20.2782   -7.5062 C   0  0  2  0  0  0  0  0  0  0  0  0
   27.0103  -21.6457   -7.6296 N   0  0  0  0  0  0  0  0  0  0  0  0
   25.9990  -19.8108   -8.8280 C   0  0  0  0  0  0  0  0  0  0  0  0
   25.6610  -18.6198   -9.0004 O   0  0  0  0  0  0  0  0  0  0  0  0
   25.9355  -20.7225   -9.9059 N   0  0  0  0  0  0  0  0  0  0  0  0
   25.5150  -20.2967  -11.2219 C   0  0  1  0  0  0  0  0  0  0  0  0
   26.4877  -20.8949  -12.1987 C   0  0  0  0  0  0  0  0  0  0  0  0
   26.2070  -20.6105  -13.6338 C   0  0  0  0  0  0  0  0  0  0  0  0
   27.3270  -21.2611  -14.4486 C   0  0  0  0  0  0  0  0  0  0  0  0
   27.0626  -22.7391  -14.6330 C   0  0  0  0  0  0  0  0  0  0  0  0
   28.0636  -23.2722  -15.5368 N   0  0  0  0  0  0  0  0  0  0  0  0
   24.1158  -20.7189  -11.4361 C   0  0  0  0  0  0  0  0  0  0  0  0
   23.7498  -21.8455  -11.0836 O   0  0  0  0  0  0  0  0  0  0  0  0
   23.1882  -19.8484  -12.0405 N   0  0  0  0  0  0  0  0  0  0  0  0
   21.7774  -20.1652  -12.2391 C   0  0  1  0  0  0  0  0  0  0  0  0
   20.9957  -18.9927  -12.6824 C   0  0  0  0  0  0  0  0  0  0  0  0
   19.5587  -19.2524  -12.9232 C   0  0  0  0  0  0  0  0  0  0  0  0
   18.7533  -18.1124  -13.3713 C   0  0  0  0  0  0  0  0  0  0  0  0
   18.1613  -17.3910  -12.5413 O   0  0  0  0  0  0  0  0  0  0  0  0
   21.6887  -21.3118  -13.1766 C   0  0  0  0  0  0  0  0  0  0  0  0
   20.7821  -22.1583  -13.0609 O   0  0  0  0  0  0  0  0  0  0  0  0
   18.6199  -17.7964  -14.7118 O   0  0  0  0  0  0  0  0  0  0  0  0
   22.5973  -21.4688  -14.1915 O   0  0  0  0  0  0  0  0  0  0  0  0
  2  1  1  1
  3  2  1  0
  4  2  1  0
  4  5  1  0
  5  6  1  6
  7  8  2  0
  7  5  1  0
  9  7  1  0
 10  9  1  0
 10 11  1  6
 12 11  1  0
 13 12  1  0
 14 13  1  0
 15 14  1  0
 16 10  1  0
 17 16  2  0
 18 16  1  0
 19 18  1  0
 19 20  1  6
 20 21  1  0
 21 22  1  0
 22 26  1  0
 23 22  2  0
 24 27  1  0
 24 19  1  0
 25 24  2  0
M  END
$$$$
