LKE.pdb
     RDKit          3D

 27 26  0  0  1  0  0  0  0  0999 V2000
   23.6433  -31.6494   -9.7157 C   0  0  0  0  0  0  0  0  0  0  0  0
   22.4812  -31.3398  -10.6445 C   0  0  1  0  0  0  0  0  0  0  0  0
   21.3880  -32.3542  -10.2961 C   0  0  0  0  0  0  0  0  0  0  0  0
   22.0279  -29.9462  -10.4080 C   0  0  0  0  0  0  0  0  0  0  0  0
   20.8782  -29.5819  -11.3063 C   0  0  2  0  0  0  0  0  0  0  0  0
   21.2858  -29.9530  -12.6767 N   0  0  0  0  0  0  0  0  0  0  0  0
   20.5470  -28.1425  -11.2617 C   0  0  0  0  0  0  0  0  0  0  0  0
   20.1992  -27.6012  -10.1900 O   0  0  0  0  0  0  0  0  0  0  0  0
   20.6255  -27.3735  -12.4446 N   0  0  0  0  0  0  0  0  0  0  0  0
   20.3503  -25.9543  -12.4337 C   0  0  1  0  0  0  0  0  0  0  0  0
   20.8772  -25.4041  -13.7290 C   0  0  0  0  0  0  0  0  0  0  0  0
   20.6708  -23.9427  -13.9323 C   0  0  0  0  0  0  0  0  0  0  0  0
   21.3527  -23.5715  -15.2509 C   0  0  0  0  0  0  0  0  0  0  0  0
   21.2087  -22.0912  -15.5272 C   0  0  0  0  0  0  0  0  0  0  0  0
   21.9914  -21.7687  -16.7047 N   0  0  0  0  0  0  0  0  0  0  0  0
   18.8997  -25.7505  -12.2429 C   0  0  0  0  0  0  0  0  0  0  0  0
   18.0914  -26.3933  -12.9216 O   0  0  0  0  0  0  0  0  0  0  0  0
   18.4239  -24.8275  -11.2916 N   0  0  0  0  0  0  0  0  0  0  0  0
   17.0101  -24.5868  -11.0204 C   0  0  1  0  0  0  0  0  0  0  0  0
   16.7431  -24.3694   -9.5838 C   0  0  0  0  0  0  0  0  0  0  0  0
   15.3268  -24.1090   -9.2422 C   0  0  0  0  0  0  0  0  0  0  0  0
   15.0388  -23.7928   -7.8400 C   0  0  0  0  0  0  0  0  0  0  0  0
   15.9603  -23.7557   -6.9978 O   0  0  0  0  0  0  0  0  0  0  0  0
   16.5615  -23.4583  -11.8729 C   0  0  0  0  0  0  0  0  0  0  0  0
   17.3266  -22.5075  -12.1224 O   0  0  0  0  0  0  0  0  0  0  0  0
   13.7535  -23.5272   -7.4020 O   0  0  0  0  0  0  0  0  0  0  0  0
   15.2990  -23.4328  -12.4073 O   0  0  0  0  0  0  0  0  0  0  0  0
  2  1  1  1
  3  2  1  0
  4  2  1  0
  4  5  1  0
  5  6  1  6
  7  8  2  0
  7  5  1  0
  9  7  1  0
 10  9  1  0
 10 11  1  6
 12 11  1  0
 13 12  1  0
 14 13  1  0
 15 14  1  0
 16 10  1  0
 17 16  2  0
 18 16  1  0
 19 18  1  0
 19 20  1  1
 20 21  1  0
 21 22  1  0
 22 26  1  0
 23 22  2  0
 24 27  1  0
 24 19  1  0
 25 24  2  0
M  END
$$$$
