LKE.pdb
     RDKit          3D

 27 26  0  0  1  0  0  0  0  0999 V2000
   27.8062  -17.8112  -17.5543 C   0  0  0  0  0  0  0  0  0  0  0  0
   28.1703  -18.8829  -16.5405 C   0  0  1  0  0  0  0  0  0  0  0  0
   28.9248  -18.1586  -15.4216 C   0  0  0  0  0  0  0  0  0  0  0  0
   26.9268  -19.5185  -16.0374 C   0  0  0  0  0  0  0  0  0  0  0  0
   27.2244  -20.5576  -14.9919 C   0  0  2  0  0  0  0  0  0  0  0  0
   27.9379  -21.6514  -15.6821 N   0  0  0  0  0  0  0  0  0  0  0  0
   26.0062  -21.0911  -14.3479 C   0  0  0  0  0  0  0  0  0  0  0  0
   25.3322  -21.9864  -14.9015 O   0  0  0  0  0  0  0  0  0  0  0  0
   25.6021  -20.5813  -13.0934 N   0  0  0  0  0  0  0  0  0  0  0  0
   24.3607  -20.9985  -12.4811 C   0  0  1  0  0  0  0  0  0  0  0  0
   24.4521  -20.6279  -11.0277 C   0  0  0  0  0  0  0  0  0  0  0  0
   23.2454  -20.9414  -10.2123 C   0  0  0  0  0  0  0  0  0  0  0  0
   23.5419  -20.4930   -8.7796 C   0  0  0  0  0  0  0  0  0  0  0  0
   22.3550  -20.7609   -7.8808 C   0  0  0  0  0  0  0  0  0  0  0  0
   22.7463  -21.7446   -6.8896 N   0  0  0  0  0  0  0  0  0  0  0  0
   23.2374  -20.3557  -13.1931 C   0  0  0  0  0  0  0  0  0  0  0  0
   23.2496  -19.1361  -13.3925 O   0  0  0  0  0  0  0  0  0  0  0  0
   22.1462  -21.1200  -13.6502 N   0  0  0  0  0  0  0  0  0  0  0  0
   21.0243  -20.5740  -14.4074 C   0  0  1  0  0  0  0  0  0  0  0  0
   20.6955  -21.3923  -15.5924 C   0  0  0  0  0  0  0  0  0  0  0  0
   20.0279  -22.6802  -15.2988 C   0  0  0  0  0  0  0  0  0  0  0  0
   19.6772  -23.5140  -16.4525 C   0  0  0  0  0  0  0  0  0  0  0  0
   18.9076  -23.0806  -17.3355 O   0  0  0  0  0  0  0  0  0  0  0  0
   19.8785  -20.4065  -13.4798 C   0  0  0  0  0  0  0  0  0  0  0  0
   18.9213  -19.6678  -13.7795 O   0  0  0  0  0  0  0  0  0  0  0  0
   20.1781  -24.7948  -16.6052 O   0  0  0  0  0  0  0  0  0  0  0  0
   19.8423  -21.0584  -12.2740 O   0  0  0  0  0  0  0  0  0  0  0  0
  2  1  1  6
  3  2  1  0
  4  2  1  0
  4  5  1  0
  5  6  1  6
  7  8  2  0
  7  5  1  0
  9  7  1  0
 10  9  1  0
 10 11  1  1
 12 11  1  0
 13 12  1  0
 14 13  1  0
 15 14  1  0
 16 10  1  0
 17 16  2  0
 18 16  1  0
 19 18  1  0
 19 20  1  6
 20 21  1  0
 21 22  1  0
 22 26  1  0
 23 22  2  0
 24 27  1  0
 24 19  1  0
 25 24  2  0
M  END
$$$$
