FCI.pdb
     RDKit          3D

 26 26  0  0  1  0  0  0  0  0999 V2000
    6.7748  -18.0584   19.6303 N   0  0  0  0  0  0  0  0  0  0  0  0
    7.3172  -16.9563   20.3566 C   0  0  1  0  0  0  0  0  0  0  0  0
    6.2908  -15.8309   20.2499 C   0  0  0  0  0  0  0  0  0  0  0  0
    6.9833  -14.5739   20.6066 C   0  0  0  0  0  0  0  0  0  0  0  0
    7.6762  -13.8522   19.6660 C   0  0  0  0  0  0  0  0  0  0  0  0
    8.2975  -12.6384   20.0116 C   0  0  0  0  0  0  0  0  0  0  0  0
    8.1925  -12.1943   21.3180 C   0  0  0  0  0  0  0  0  0  0  0  0
    7.5005  -12.9047   22.2816 C   0  0  0  0  0  0  0  0  0  0  0  0
    6.9111  -14.0846   21.8909 C   0  0  0  0  0  0  0  0  0  0  0  0
    7.6556  -17.2374   21.7703 C   0  0  0  0  0  0  0  0  0  0  0  0
    6.7220  -17.7179   22.5177 O   0  0  0  0  0  0  0  0  0  0  0  0
    8.8967  -17.0370   22.3946 N   0  0  0  0  0  0  0  0  0  0  0  0
    9.2017  -17.3142   23.7804 C   0  0  1  0  0  0  0  0  0  0  0  0
   10.2784  -18.3714   23.9356 C   0  0  0  0  0  0  0  0  0  0  0  0
   11.7507  -17.8416   23.0308 S   0  0  0  0  0  0  0  0  0  0  0  0
    9.5894  -16.1459   24.5651 C   0  0  0  0  0  0  0  0  0  0  0  0
   10.3433  -15.2884   24.0477 O   0  0  0  0  0  0  0  0  0  0  0  0
    6.5772  -12.5066   26.5210 C   0  0  0  0  0  0  0  0  0  0  0  0
    7.7903  -13.2475   26.0011 C   0  0  0  0  0  0  0  0  0  0  0  0
    8.6178  -13.8146   27.1217 C   0  0  2  0  0  0  0  0  0  0  0  0
    9.1210  -12.7229   28.0229 C   0  0  0  0  0  0  0  0  0  0  0  0
    9.6296  -14.8303   26.7249 C   0  0  2  0  0  0  0  0  0  0  0  0
    9.1598  -15.9095   25.9057 N   0  0  0  0  0  0  0  0  0  0  0  0
   10.3445  -15.2786   27.9287 C   0  0  0  0  0  0  0  0  0  0  0  0
   11.1182  -14.5196   28.5437 O   0  0  0  0  0  0  0  0  0  0  0  0
   10.1541  -16.5642   28.3851 O   0  0  0  0  0  0  0  0  0  0  0  0
  2  1  1  1
  2 10  1  0
  3  2  1  0
  3  4  1  0
  4  5  2  0
  4  9  1  0
  5  6  1  0
  6  7  2  0
  8  7  1  0
  9  8  2  0
 10 11  2  0
 12 13  1  0
 12 10  1  0
 13 16  1  0
 14 15  1  0
 13 14  1  6
 16 17  2  0
 18 19  1  0
 20 21  1  6
 20 19  1  0
 22 20  1  0
 23 16  1  0
 22 23  1  1
 24 26  1  0
 24 22  1  0
 25 24  2  0
M  END
$$$$
