FCI.pdb
     RDKit          3D

 26 26  0  0  1  0  0  0  0  0999 V2000
    6.4698  -18.1514   19.1982 N   0  0  0  0  0  0  0  0  0  0  0  0
    7.0086  -17.0510   19.9298 C   0  0  1  0  0  0  0  0  0  0  0  0
    6.2163  -15.8214   19.4922 C   0  0  0  0  0  0  0  0  0  0  0  0
    6.9235  -14.6357   20.0222 C   0  0  0  0  0  0  0  0  0  0  0  0
    7.8426  -13.9566   19.2608 C   0  0  0  0  0  0  0  0  0  0  0  0
    8.4789  -12.8076   19.7646 C   0  0  0  0  0  0  0  0  0  0  0  0
    8.1557  -12.3832   21.0414 C   0  0  0  0  0  0  0  0  0  0  0  0
    7.2338  -13.0516   21.8260 C   0  0  0  0  0  0  0  0  0  0  0  0
    6.6402  -14.1685   21.2854 C   0  0  0  0  0  0  0  0  0  0  0  0
    6.9890  -17.2021   21.4025 C   0  0  0  0  0  0  0  0  0  0  0  0
    5.8368  -17.3034   21.9713 O   0  0  0  0  0  0  0  0  0  0  0  0
    8.1001  -17.2488   22.2587 N   0  0  0  0  0  0  0  0  0  0  0  0
    8.0559  -17.4072   23.6952 C   0  0  1  0  0  0  0  0  0  0  0  0
    8.6634  -18.7201   24.1515 C   0  0  0  0  0  0  0  0  0  0  0  0
    8.4918  -18.8495   25.9462 S   0  0  0  0  0  0  0  0  0  0  0  0
    8.6834  -16.3252   24.4477 C   0  0  0  0  0  0  0  0  0  0  0  0
    9.8056  -15.9017   24.0833 O   0  0  0  0  0  0  0  0  0  0  0  0
    5.8636  -12.0921   26.4841 C   0  0  0  0  0  0  0  0  0  0  0  0
    6.9086  -12.9762   25.8379 C   0  0  0  0  0  0  0  0  0  0  0  0
    7.8274  -13.5884   26.8592 C   0  0  2  0  0  0  0  0  0  0  0  0
    8.5007  -12.5259   27.6807 C   0  0  0  0  0  0  0  0  0  0  0  0
    8.7202  -14.6673   26.3574 C   0  0  2  0  0  0  0  0  0  0  0  0
    8.0947  -15.7052   25.5908 N   0  0  0  0  0  0  0  0  0  0  0  0
    9.5245  -15.1731   27.4794 C   0  0  0  0  0  0  0  0  0  0  0  0
   10.4106  -14.4748   28.0086 O   0  0  0  0  0  0  0  0  0  0  0  0
    9.2926  -16.4451   27.9542 O   0  0  0  0  0  0  0  0  0  0  0  0
  2  1  1  6
  2 10  1  0
  3  2  1  0
  3  4  1  0
  4  5  2  0
  4  9  1  0
  5  6  1  0
  6  7  2  0
  8  7  1  0
  9  8  2  0
 10 11  2  0
 12 13  1  0
 12 10  1  0
 13 16  1  0
 14 15  1  0
 13 14  1  6
 16 17  2  0
 18 19  1  0
 20 21  1  6
 20 19  1  0
 22 20  1  0
 23 16  1  0
 22 23  1  1
 24 26  1  0
 24 22  1  0
 25 24  2  0
M  END
$$$$
