FCI.pdb
     RDKit          3D

 26 26  0  0  1  0  0  0  0  0999 V2000
    8.6693  -18.0390   18.0508 N   0  0  0  0  0  0  0  0  0  0  0  0
    8.7164  -16.8548   18.8457 C   0  0  1  0  0  0  0  0  0  0  0  0
    7.8578  -15.8217   18.1199 C   0  0  0  0  0  0  0  0  0  0  0  0
    7.8708  -14.5908   18.9394 C   0  0  0  0  0  0  0  0  0  0  0  0
    8.7664  -13.5801   18.6903 C   0  0  0  0  0  0  0  0  0  0  0  0
    8.7415  -12.3987   19.4536 C   0  0  0  0  0  0  0  0  0  0  0  0
    7.7957  -12.2839   20.4571 C   0  0  0  0  0  0  0  0  0  0  0  0
    6.8847  -13.2889   20.7259 C   0  0  0  0  0  0  0  0  0  0  0  0
    6.9517  -14.4226   19.9498 C   0  0  0  0  0  0  0  0  0  0  0  0
    8.2791  -17.0200   20.2505 C   0  0  0  0  0  0  0  0  0  0  0  0
    7.1863  -17.6714   20.4570 O   0  0  0  0  0  0  0  0  0  0  0  0
    8.9314  -16.5406   21.3970 N   0  0  0  0  0  0  0  0  0  0  0  0
    8.5278  -16.7825   22.7642 C   0  0  1  0  0  0  0  0  0  0  0  0
    8.9621  -18.1478   23.2626 C   0  0  0  0  0  0  0  0  0  0  0  0
   10.7631  -18.2606   23.1595 S   0  0  0  0  0  0  0  0  0  0  0  0
    8.9829  -15.7786   23.7212 C   0  0  0  0  0  0  0  0  0  0  0  0
   10.0607  -15.1761   23.5049 O   0  0  0  0  0  0  0  0  0  0  0  0
    5.7205  -12.4767   27.2302 C   0  0  0  0  0  0  0  0  0  0  0  0
    6.4624  -13.6924   26.7176 C   0  0  0  0  0  0  0  0  0  0  0  0
    7.7971  -13.3227   26.1312 C   0  0  2  0  0  0  0  0  0  0  0  0
    7.6350  -12.3445   25.0025 C   0  0  0  0  0  0  0  0  0  0  0  0
    8.7193  -14.4586   25.8625 C   0  0  2  0  0  0  0  0  0  0  0  0
    8.2704  -15.4300   24.9080 N   0  0  0  0  0  0  0  0  0  0  0  0
    9.1294  -15.0463   27.1462 C   0  0  0  0  0  0  0  0  0  0  0  0
    8.8267  -16.2164   27.4497 O   0  0  0  0  0  0  0  0  0  0  0  0
    9.8633  -14.2869   28.0303 O   0  0  0  0  0  0  0  0  0  0  0  0
  2  1  1  6
  2 10  1  0
  3  2  1  0
  3  4  1  0
  4  5  2  0
  4  9  1  0
  5  6  1  0
  6  7  2  0
  8  7  1  0
  9  8  2  0
 10 11  2  0
 12 13  1  0
 12 10  1  0
 13 16  1  0
 14 15  1  0
 13 14  1  1
 16 17  2  0
 18 19  1  0
 20 21  1  6
 20 19  1  0
 22 20  1  0
 23 16  1  0
 22 23  1  6
 24 26  1  0
 24 22  1  0
 25 24  2  0
M  END
$$$$
