FCI.pdb
     RDKit          3D

 26 26  0  0  1  0  0  0  0  0999 V2000
    9.4829  -14.9504   21.5700 N   0  0  0  0  0  0  0  0  0  0  0  0
    9.1044  -14.4313   22.8442 C   0  0  1  0  0  0  0  0  0  0  0  0
    7.5862  -14.5721   22.9262 C   0  0  0  0  0  0  0  0  0  0  0  0
    7.1482  -13.8647   24.1488 C   0  0  0  0  0  0  0  0  0  0  0  0
    6.6012  -14.5467   25.2077 C   0  0  0  0  0  0  0  0  0  0  0  0
    6.2248  -13.8651   26.3792 C   0  0  0  0  0  0  0  0  0  0  0  0
    6.4191  -12.4962   26.4349 C   0  0  0  0  0  0  0  0  0  0  0  0
    6.9675  -11.7889   25.3808 C   0  0  0  0  0  0  0  0  0  0  0  0
    7.3189  -12.5035   24.2592 C   0  0  0  0  0  0  0  0  0  0  0  0
    9.7630  -15.0694   24.0065 C   0  0  0  0  0  0  0  0  0  0  0  0
   10.0313  -16.3269   23.9174 O   0  0  0  0  0  0  0  0  0  0  0  0
   10.1331  -14.4487   25.2097 N   0  0  0  0  0  0  0  0  0  0  0  0
   10.9320  -15.0430   26.2581 C   0  0  1  0  0  0  0  0  0  0  0  0
   10.9714  -14.1883   27.5106 C   0  0  0  0  0  0  0  0  0  0  0  0
    9.3053  -14.0939   28.2049 S   0  0  0  0  0  0  0  0  0  0  0  0
   10.5323  -16.3947   26.6376 C   0  0  0  0  0  0  0  0  0  0  0  0
    9.3119  -16.6766   26.6888 O   0  0  0  0  0  0  0  0  0  0  0  0
   12.6169  -20.2500   24.2394 C   0  0  0  0  0  0  0  0  0  0  0  0
   11.4317  -19.7085   25.0095 C   0  0  0  0  0  0  0  0  0  0  0  0
   11.6129  -19.8691   26.4939 C   0  0  2  0  0  0  0  0  0  0  0  0
   11.2382  -21.2561   26.9333 C   0  0  0  0  0  0  0  0  0  0  0  0
   11.0698  -18.7666   27.3320 C   0  0  2  0  0  0  0  0  0  0  0  0
   11.4539  -17.4362   26.9595 N   0  0  0  0  0  0  0  0  0  0  0  0
   11.3311  -19.0765   28.7452 C   0  0  0  0  0  0  0  0  0  0  0  0
   12.1267  -18.3966   29.4217 O   0  0  0  0  0  0  0  0  0  0  0  0
   10.6822  -20.1403   29.3321 O   0  0  0  0  0  0  0  0  0  0  0  0
  2  1  1  6
  2 10  1  0
  3  2  1  0
  3  4  1  0
  4  5  2  0
  4  9  1  0
  5  6  1  0
  6  7  2  0
  8  7  1  0
  9  8  2  0
 10 11  2  0
 12 13  1  0
 12 10  1  0
 13 16  1  0
 14 15  1  0
 13 14  1  1
 16 17  2  0
 18 19  1  0
 20 21  1  1
 20 19  1  0
 22 20  1  0
 23 16  1  0
 22 23  1  6
 24 26  1  0
 24 22  1  0
 25 24  2  0
M  END
$$$$
