FCI.pdb
     RDKit          3D

 26 26  0  0  1  0  0  0  0  0999 V2000
    7.9328  -18.2634   20.9715 N   0  0  0  0  0  0  0  0  0  0  0  0
    8.1510  -16.8567   20.8710 C   0  0  1  0  0  0  0  0  0  0  0  0
    7.4878  -16.4161   19.5682 C   0  0  0  0  0  0  0  0  0  0  0  0
    7.6505  -14.9495   19.4705 C   0  0  0  0  0  0  0  0  0  0  0  0
    6.5701  -14.1066   19.5593 C   0  0  0  0  0  0  0  0  0  0  0  0
    6.7450  -12.7120   19.5032 C   0  0  0  0  0  0  0  0  0  0  0  0
    8.0283  -12.2155   19.3563 C   0  0  0  0  0  0  0  0  0  0  0  0
    9.1306  -13.0452   19.2644 C   0  0  0  0  0  0  0  0  0  0  0  0
    8.9043  -14.4007   19.3255 C   0  0  0  0  0  0  0  0  0  0  0  0
    7.6592  -16.0584   22.0168 C   0  0  0  0  0  0  0  0  0  0  0  0
    6.4652  -15.5801   21.9352 O   0  0  0  0  0  0  0  0  0  0  0  0
    8.3578  -15.7616   23.1975 N   0  0  0  0  0  0  0  0  0  0  0  0
    7.8591  -14.9703   24.2999 C   0  0  1  0  0  0  0  0  0  0  0  0
    6.4831  -15.4164   24.7566 C   0  0  0  0  0  0  0  0  0  0  0  0
    5.9653  -14.3814   26.1450 S   0  0  0  0  0  0  0  0  0  0  0  0
    8.7371  -14.9260   25.4653 C   0  0  0  0  0  0  0  0  0  0  0  0
    8.8508  -13.8517   26.1010 O   0  0  0  0  0  0  0  0  0  0  0  0
    9.4618  -13.0446   29.1564 C   0  0  0  0  0  0  0  0  0  0  0  0
    9.5690  -13.8515   27.8802 C   0  0  0  0  0  0  0  0  0  0  0  0
   10.3132  -15.1402   28.0982 C   0  0  2  0  0  0  0  0  0  0  0  0
   11.5033  -14.9284   28.9902 C   0  0  0  0  0  0  0  0  0  0  0  0
   10.5682  -15.9509   26.8773 C   0  0  2  0  0  0  0  0  0  0  0  0
    9.4881  -16.0439   25.9386 N   0  0  0  0  0  0  0  0  0  0  0  0
   11.1040  -17.2584   27.2833 C   0  0  0  0  0  0  0  0  0  0  0  0
   10.4311  -18.3004   27.1637 O   0  0  0  0  0  0  0  0  0  0  0  0
   12.3761  -17.3315   27.8064 O   0  0  0  0  0  0  0  0  0  0  0  0
  2  1  1  1
  2 10  1  0
  3  2  1  0
  3  4  1  0
  4  5  2  0
  4  9  1  0
  5  6  1  0
  6  7  2  0
  8  7  1  0
  9  8  2  0
 10 11  2  0
 12 13  1  0
 12 10  1  0
 13 16  1  0
 14 15  1  0
 13 14  1  1
 16 17  2  0
 18 19  1  0
 20 21  1  6
 20 19  1  0
 22 20  1  0
 23 16  1  0
 22 23  1  1
 24 26  1  0
 24 22  1  0
 25 24  2  0
M  END
$$$$
