FCI.pdb
     RDKit          3D

 26 26  0  0  1  0  0  0  0  0999 V2000
    7.5867  -15.5488   19.4447 N   0  0  0  0  0  0  0  0  0  0  0  0
    7.8905  -15.0614   20.7511 C   0  0  1  0  0  0  0  0  0  0  0  0
    6.5973  -14.4534   21.2889 C   0  0  0  0  0  0  0  0  0  0  0  0
    6.8696  -14.0017   22.6705 C   0  0  0  0  0  0  0  0  0  0  0  0
    7.4476  -12.7810   22.9186 C   0  0  0  0  0  0  0  0  0  0  0  0
    7.6652  -12.3484   24.2394 C   0  0  0  0  0  0  0  0  0  0  0  0
    7.2835  -13.1821   25.2758 C   0  0  0  0  0  0  0  0  0  0  0  0
    6.7004  -14.4153   25.0495 C   0  0  0  0  0  0  0  0  0  0  0  0
    6.5095  -14.7898   23.7397 C   0  0  0  0  0  0  0  0  0  0  0  0
    8.4372  -16.0683   21.6889 C   0  0  0  0  0  0  0  0  0  0  0  0
    7.8801  -17.2305   21.6995 O   0  0  0  0  0  0  0  0  0  0  0  0
    9.5091  -15.8955   22.5783 N   0  0  0  0  0  0  0  0  0  0  0  0
   10.1443  -16.9393   23.3513 C   0  0  1  0  0  0  0  0  0  0  0  0
   11.1560  -17.7261   22.5399 C   0  0  0  0  0  0  0  0  0  0  0  0
   11.8160  -19.0599   23.5657 S   0  0  0  0  0  0  0  0  0  0  0  0
   10.7944  -16.4818   24.5757 C   0  0  0  0  0  0  0  0  0  0  0  0
   11.5739  -15.5016   24.5210 O   0  0  0  0  0  0  0  0  0  0  0  0
    9.9590  -13.3105   29.0283 C   0  0  0  0  0  0  0  0  0  0  0  0
   10.7114  -14.5965   28.7615 C   0  0  0  0  0  0  0  0  0  0  0  0
   10.2232  -15.2772   27.5123 C   0  0  2  0  0  0  0  0  0  0  0  0
    8.7294  -15.4352   27.5361 C   0  0  0  0  0  0  0  0  0  0  0  0
   10.9853  -16.4856   27.0977 C   0  0  2  0  0  0  0  0  0  0  0  0
   10.5984  -17.0858   25.8541 N   0  0  0  0  0  0  0  0  0  0  0  0
   11.0127  -17.4338   28.2209 C   0  0  0  0  0  0  0  0  0  0  0  0
   11.5664  -17.1456   29.2994 O   0  0  0  0  0  0  0  0  0  0  0  0
   10.4133  -18.6656   28.0766 O   0  0  0  0  0  0  0  0  0  0  0  0
  2  1  1  6
  2 10  1  0
  3  2  1  0
  3  4  1  0
  4  5  2  0
  4  9  1  0
  5  6  1  0
  6  7  2  0
  8  7  1  0
  9  8  2  0
 10 11  2  0
 12 13  1  0
 12 10  1  0
 13 16  1  0
 14 15  1  0
 13 14  1  6
 16 17  2  0
 18 19  1  0
 20 21  1  1
 20 19  1  0
 22 20  1  0
 23 16  1  0
 22 23  1  6
 24 26  1  0
 24 22  1  0
 25 24  2  0
M  END
$$$$
