FCI.pdb
     RDKit          3D

 26 26  0  0  1  0  0  0  0  0999 V2000
    7.0513  -17.8716   18.7837 N   0  0  0  0  0  0  0  0  0  0  0  0
    7.5140  -16.7435   19.5252 C   0  0  1  0  0  0  0  0  0  0  0  0
    6.3834  -15.7180   19.4879 C   0  0  0  0  0  0  0  0  0  0  0  0
    6.8866  -14.4904   20.1411 C   0  0  0  0  0  0  0  0  0  0  0  0
    7.6272  -13.5670   19.4450 C   0  0  0  0  0  0  0  0  0  0  0  0
    8.0663  -12.3855   20.0695 C   0  0  0  0  0  0  0  0  0  0  0  0
    7.7339  -12.1806   21.3971 C   0  0  0  0  0  0  0  0  0  0  0  0
    6.9898  -13.0968   22.1175 C   0  0  0  0  0  0  0  0  0  0  0  0
    6.5850  -14.2348   21.4593 C   0  0  0  0  0  0  0  0  0  0  0  0
    7.9285  -17.0303   20.9172 C   0  0  0  0  0  0  0  0  0  0  0  0
    7.0616  -17.5908   21.6889 O   0  0  0  0  0  0  0  0  0  0  0  0
    9.1772  -16.7569   21.4969 N   0  0  0  0  0  0  0  0  0  0  0  0
    9.5701  -17.0766   22.8511 C   0  0  1  0  0  0  0  0  0  0  0  0
   10.9355  -17.7340   22.9176 C   0  0  0  0  0  0  0  0  0  0  0  0
   11.9856  -17.0294   21.6261 S   0  0  0  0  0  0  0  0  0  0  0  0
    9.5609  -15.9442   23.7723 C   0  0  0  0  0  0  0  0  0  0  0  0
    9.7665  -14.7923   23.3226 O   0  0  0  0  0  0  0  0  0  0  0  0
    7.3200  -11.6644   26.3147 C   0  0  0  0  0  0  0  0  0  0  0  0
    8.3006  -12.7296   26.7560 C   0  0  0  0  0  0  0  0  0  0  0  0
    8.2361  -13.9450   25.8723 C   0  0  2  0  0  0  0  0  0  0  0  0
    6.8384  -14.4930   25.8147 C   0  0  0  0  0  0  0  0  0  0  0  0
    9.3079  -14.9541   26.0859 C   0  0  2  0  0  0  0  0  0  0  0  0
    9.3287  -16.0621   25.1758 N   0  0  0  0  0  0  0  0  0  0  0  0
    9.2994  -15.3586   27.4993 C   0  0  0  0  0  0  0  0  0  0  0  0
    9.5173  -14.5367   28.4103 O   0  0  0  0  0  0  0  0  0  0  0  0
    9.0449  -16.6733   27.8216 O   0  0  0  0  0  0  0  0  0  0  0  0
  2  1  1  1
  2 10  1  0
  3  2  1  0
  3  4  1  0
  4  5  2  0
  4  9  1  0
  5  6  1  0
  6  7  2  0
  8  7  1  0
  9  8  2  0
 10 11  2  0
 12 13  1  0
 12 10  1  0
 13 16  1  0
 14 15  1  0
 13 14  1  6
 16 17  2  0
 18 19  1  0
 20 21  1  1
 20 19  1  0
 22 20  1  0
 23 16  1  0
 22 23  1  6
 24 26  1  0
 24 22  1  0
 25 24  2  0
M  END
$$$$
