FCI.pdb
     RDKit          3D

 26 26  0  0  1  0  0  0  0  0999 V2000
    7.6272  -18.4627   19.5544 N   0  0  0  0  0  0  0  0  0  0  0  0
    7.7459  -17.1583   20.1208 C   0  0  1  0  0  0  0  0  0  0  0  0
    6.9117  -16.2340   19.2370 C   0  0  0  0  0  0  0  0  0  0  0  0
    7.1393  -14.8527   19.7136 C   0  0  0  0  0  0  0  0  0  0  0  0
    8.0908  -14.0488   19.1357 C   0  0  0  0  0  0  0  0  0  0  0  0
    8.2696  -12.7242   19.5741 C   0  0  0  0  0  0  0  0  0  0  0  0
    7.4653  -12.2562   20.5983 C   0  0  0  0  0  0  0  0  0  0  0  0
    6.5014  -13.0479   21.1951 C   0  0  0  0  0  0  0  0  0  0  0  0
    6.3672  -14.3349   20.7285 C   0  0  0  0  0  0  0  0  0  0  0  0
    7.3408  -17.0477   21.5406 C   0  0  0  0  0  0  0  0  0  0  0  0
    6.0778  -17.0027   21.7935 O   0  0  0  0  0  0  0  0  0  0  0  0
    8.1906  -16.9866   22.6560 N   0  0  0  0  0  0  0  0  0  0  0  0
    7.7710  -16.8647   24.0342 C   0  0  1  0  0  0  0  0  0  0  0  0
    6.9654  -18.0619   24.5018 C   0  0  0  0  0  0  0  0  0  0  0  0
    8.0389  -19.5160   24.5204 S   0  0  0  0  0  0  0  0  0  0  0  0
    8.8563  -16.6425   24.9849 C   0  0  0  0  0  0  0  0  0  0  0  0
   10.0023  -17.0703   24.7108 O   0  0  0  0  0  0  0  0  0  0  0  0
    8.8709  -11.9892   27.8553 C   0  0  0  0  0  0  0  0  0  0  0  0
    9.2770  -13.1700   26.9999 C   0  0  0  0  0  0  0  0  0  0  0  0
    9.6864  -14.3494   27.8387 C   0  0  2  0  0  0  0  0  0  0  0  0
   10.8668  -14.0089   28.7036 C   0  0  0  0  0  0  0  0  0  0  0  0
    9.7759  -15.6496   27.1216 C   0  0  2  0  0  0  0  0  0  0  0  0
    8.6980  -15.9582   26.2276 N   0  0  0  0  0  0  0  0  0  0  0  0
   10.0439  -16.7113   28.1026 C   0  0  0  0  0  0  0  0  0  0  0  0
    9.1310  -17.4426   28.5323 O   0  0  0  0  0  0  0  0  0  0  0  0
   11.3311  -16.9005   28.5549 O   0  0  0  0  0  0  0  0  0  0  0  0
  2  1  1  6
  2 10  1  0
  3  2  1  0
  3  4  1  0
  4  5  2  0
  4  9  1  0
  5  6  1  0
  6  7  2  0
  8  7  1  0
  9  8  2  0
 10 11  2  0
 12 13  1  0
 12 10  1  0
 13 16  1  0
 14 15  1  0
 13 14  1  1
 16 17  2  0
 18 19  1  0
 20 21  1  6
 20 19  1  0
 22 20  1  0
 23 16  1  0
 22 23  1  1
 24 26  1  0
 24 22  1  0
 25 24  2  0
M  END
$$$$
