FCI.pdb
     RDKit          3D

 26 26  0  0  1  0  0  0  0  0999 V2000
    7.8948  -15.5911   19.7129 N   0  0  0  0  0  0  0  0  0  0  0  0
    7.9936  -15.0730   21.0389 C   0  0  1  0  0  0  0  0  0  0  0  0
    6.6344  -14.4534   21.3551 C   0  0  0  0  0  0  0  0  0  0  0  0
    6.6942  -13.9584   22.7473 C   0  0  0  0  0  0  0  0  0  0  0  0
    6.2416  -14.7232   23.7941 C   0  0  0  0  0  0  0  0  0  0  0  0
    6.3404  -14.2548   25.1168 C   0  0  0  0  0  0  0  0  0  0  0  0
    6.9026  -13.0089   25.3330 C   0  0  0  0  0  0  0  0  0  0  0  0
    7.3644  -12.2215   24.2944 C   0  0  0  0  0  0  0  0  0  0  0  0
    7.2447  -12.7269   23.0207 C   0  0  0  0  0  0  0  0  0  0  0  0
    8.3849  -16.0573   22.0733 C   0  0  0  0  0  0  0  0  0  0  0  0
    7.6943  -17.1429   22.1481 O   0  0  0  0  0  0  0  0  0  0  0  0
    9.4387  -15.9381   22.9928 N   0  0  0  0  0  0  0  0  0  0  0  0
    9.8426  -16.9414   23.9522 C   0  0  1  0  0  0  0  0  0  0  0  0
   10.7274  -18.0084   23.3360 C   0  0  0  0  0  0  0  0  0  0  0  0
   12.0728  -17.2027   22.4372 S   0  0  0  0  0  0  0  0  0  0  0  0
   10.5143  -16.4167   25.1373 C   0  0  0  0  0  0  0  0  0  0  0  0
   11.5509  -15.7267   24.9937 O   0  0  0  0  0  0  0  0  0  0  0  0
    9.4879  -12.5781   28.0733 C   0  0  0  0  0  0  0  0  0  0  0  0
   10.1805  -13.7389   27.3920 C   0  0  0  0  0  0  0  0  0  0  0  0
   10.2411  -14.9499   28.2818 C   0  0  2  0  0  0  0  0  0  0  0  0
   10.8507  -14.6085   29.6119 C   0  0  0  0  0  0  0  0  0  0  0  0
   10.7557  -16.1918   27.6449 C   0  0  2  0  0  0  0  0  0  0  0  0
   10.0619  -16.6398   26.4727 N   0  0  0  0  0  0  0  0  0  0  0  0
   10.8900  -17.2299   28.6773 C   0  0  0  0  0  0  0  0  0  0  0  0
   10.0841  -18.1774   28.7527 O   0  0  0  0  0  0  0  0  0  0  0  0
   11.9286  -17.1524   29.5787 O   0  0  0  0  0  0  0  0  0  0  0  0
  2  1  1  6
  2 10  1  0
  3  2  1  0
  3  4  1  0
  4  5  2  0
  4  9  1  0
  5  6  1  0
  6  7  2  0
  8  7  1  0
  9  8  2  0
 10 11  2  0
 12 13  1  0
 12 10  1  0
 13 16  1  0
 14 15  1  0
 13 14  1  6
 16 17  2  0
 18 19  1  0
 20 21  1  1
 20 19  1  0
 22 20  1  0
 23 16  1  0
 22 23  1  6
 24 26  1  0
 24 22  1  0
 25 24  2  0
M  END
$$$$
