FCI.pdb
     RDKit          3D

 26 26  0  0  1  0  0  0  0  0999 V2000
    8.4896  -17.7495   18.8491 N   0  0  0  0  0  0  0  0  0  0  0  0
    8.5125  -16.7015   19.8174 C   0  0  1  0  0  0  0  0  0  0  0  0
    7.3578  -15.7684   19.4608 C   0  0  0  0  0  0  0  0  0  0  0  0
    7.3565  -14.6757   20.4572 C   0  0  0  0  0  0  0  0  0  0  0  0
    7.8925  -13.4458   20.1645 C   0  0  0  0  0  0  0  0  0  0  0  0
    7.8495  -12.4042   21.1091 C   0  0  0  0  0  0  0  0  0  0  0  0
    7.2562  -12.6517   22.3344 C   0  0  0  0  0  0  0  0  0  0  0  0
    6.7106  -13.8822   22.6509 C   0  0  0  0  0  0  0  0  0  0  0  0
    6.7785  -14.8658   21.6917 C   0  0  0  0  0  0  0  0  0  0  0  0
    8.4252  -17.1435   21.2277 C   0  0  0  0  0  0  0  0  0  0  0  0
    7.6731  -18.1583   21.4840 O   0  0  0  0  0  0  0  0  0  0  0  0
    9.0798  -16.5732   22.3306 N   0  0  0  0  0  0  0  0  0  0  0  0
    9.1216  -17.1227   23.6673 C   0  0  1  0  0  0  0  0  0  0  0  0
    9.7736  -18.4917   23.7099 C   0  0  0  0  0  0  0  0  0  0  0  0
   11.4782  -18.3443   23.1272 S   0  0  0  0  0  0  0  0  0  0  0  0
    9.7764  -16.2718   24.6563 C   0  0  0  0  0  0  0  0  0  0  0  0
   10.8844  -15.7563   24.3774 O   0  0  0  0  0  0  0  0  0  0  0  0
    7.4333  -12.2002   26.9750 C   0  0  0  0  0  0  0  0  0  0  0  0
    8.4401  -13.1577   26.3745 C   0  0  0  0  0  0  0  0  0  0  0  0
    9.1061  -13.9977   27.4295 C   0  0  2  0  0  0  0  0  0  0  0  0
    9.8214  -13.1350   28.4300 C   0  0  0  0  0  0  0  0  0  0  0  0
    9.8777  -15.1670   26.9293 C   0  0  2  0  0  0  0  0  0  0  0  0
    9.2299  -15.9815   25.9427 N   0  0  0  0  0  0  0  0  0  0  0  0
   10.3760  -15.9309   28.0824 C   0  0  0  0  0  0  0  0  0  0  0  0
    9.8291  -16.9909   28.4432 O   0  0  0  0  0  0  0  0  0  0  0  0
   11.4700  -15.4641   28.7770 O   0  0  0  0  0  0  0  0  0  0  0  0
  2  1  1  6
  2 10  1  0
  3  2  1  0
  3  4  1  0
  4  5  2  0
  4  9  1  0
  5  6  1  0
  6  7  2  0
  8  7  1  0
  9  8  2  0
 10 11  2  0
 12 13  1  0
 12 10  1  0
 13 16  1  0
 14 15  1  0
 13 14  1  6
 16 17  2  0
 18 19  1  0
 20 21  1  6
 20 19  1  0
 22 20  1  0
 23 16  1  0
 22 23  1  6
 24 26  1  0
 24 22  1  0
 25 24  2  0
M  END
$$$$
