FCI.pdb
     RDKit          3D

 26 26  0  0  1  0  0  0  0  0999 V2000
    7.1568  -17.5365   19.6094 N   0  0  0  0  0  0  0  0  0  0  0  0
    7.6668  -16.4776   20.4187 C   0  0  1  0  0  0  0  0  0  0  0  0
    6.5409  -15.4529   20.5361 C   0  0  0  0  0  0  0  0  0  0  0  0
    7.1250  -14.2292   21.1264 C   0  0  0  0  0  0  0  0  0  0  0  0
    7.1086  -14.0164   22.4829 C   0  0  0  0  0  0  0  0  0  0  0  0
    7.7023  -12.8660   23.0332 C   0  0  0  0  0  0  0  0  0  0  0  0
    8.2994  -11.9595   22.1750 C   0  0  0  0  0  0  0  0  0  0  0  0
    8.3273  -12.1530   20.8061 C   0  0  0  0  0  0  0  0  0  0  0  0
    7.7331  -13.2943   20.3200 C   0  0  0  0  0  0  0  0  0  0  0  0
    8.1589  -16.8849   21.7543 C   0  0  0  0  0  0  0  0  0  0  0  0
    7.3383  -17.5207   22.5183 O   0  0  0  0  0  0  0  0  0  0  0  0
    9.4366  -16.6534   22.2872 N   0  0  0  0  0  0  0  0  0  0  0  0
    9.9404  -17.1780   23.5367 C   0  0  1  0  0  0  0  0  0  0  0  0
   11.2407  -17.9394   23.3622 C   0  0  0  0  0  0  0  0  0  0  0  0
   12.4417  -16.8633   22.5457 S   0  0  0  0  0  0  0  0  0  0  0  0
   10.1304  -16.1799   24.5849 C   0  0  0  0  0  0  0  0  0  0  0  0
   10.6986  -15.0993   24.3004 O   0  0  0  0  0  0  0  0  0  0  0  0
    6.8550  -13.3297   27.2552 C   0  0  0  0  0  0  0  0  0  0  0  0
    8.0786  -13.9319   26.5986 C   0  0  0  0  0  0  0  0  0  0  0  0
    8.9344  -14.6712   27.5902 C   0  0  2  0  0  0  0  0  0  0  0  0
    9.3103  -13.7830   28.7420 C   0  0  0  0  0  0  0  0  0  0  0  0
   10.0483  -15.4690   27.0108 C   0  0  2  0  0  0  0  0  0  0  0  0
    9.7046  -16.3541   25.9362 N   0  0  0  0  0  0  0  0  0  0  0  0
   10.7721  -16.1319   28.1053 C   0  0  0  0  0  0  0  0  0  0  0  0
   11.4016  -15.4757   28.9573 O   0  0  0  0  0  0  0  0  0  0  0  0
   10.7530  -17.5066   28.1895 O   0  0  0  0  0  0  0  0  0  0  0  0
  2  1  1  1
  2 10  1  0
  3  2  1  0
  3  4  1  0
  4  5  2  0
  4  9  1  0
  5  6  1  0
  6  7  2  0
  8  7  1  0
  9  8  2  0
 10 11  2  0
 12 13  1  0
 12 10  1  0
 13 16  1  0
 14 15  1  0
 13 14  1  6
 16 17  2  0
 18 19  1  0
 20 21  1  1
 20 19  1  0
 22 20  1  0
 23 16  1  0
 22 23  1  6
 24 26  1  0
 24 22  1  0
 25 24  2  0
M  END
$$$$
