GRI.pdb
     RDKit          3D

 24 23  0  0  1  0  0  0  0  0999 V2000
    7.8515  -12.5323   18.3082 N   0  0  0  0  0  0  0  0  0  0  0  0
    8.7636  -13.3590   19.0720 C   0  0  0  0  0  0  0  0  0  0  0  0
    8.0934  -14.0347   20.1945 C   0  0  0  0  0  0  0  0  0  0  0  0
    6.9101  -13.8219   20.4806 O   0  0  0  0  0  0  0  0  0  0  0  0
   10.3124  -18.2072   17.0208 N   0  0  0  0  0  0  0  0  0  0  0  0
    8.9335  -17.9362   17.1503 C   0  0  0  0  0  0  0  0  0  0  0  0
    8.2274  -17.6976   16.0968 N   0  0  0  0  0  0  0  0  0  0  0  0
    8.3132  -17.9221   18.4264 N   0  0  0  0  0  0  0  0  0  0  0  0
    9.1525  -18.0525   19.6299 C   0  0  0  0  0  0  0  0  0  0  0  0
    8.2828  -18.0171   20.8609 C   0  0  0  0  0  0  0  0  0  0  0  0
    8.7519  -17.1581   21.9670 C   0  0  0  0  0  0  0  0  0  0  0  0
    8.2466  -15.7556   22.0270 C   0  0  2  0  0  0  0  0  0  0  0  0
    8.8375  -14.9659   20.9770 N   0  0  0  0  0  0  0  0  0  0  0  0
    8.8107  -15.1828   23.3188 C   0  0  0  0  0  0  0  0  0  0  0  0
   10.0096  -14.8616   23.3346 O   0  0  0  0  0  0  0  0  0  0  0  0
    7.2011  -17.5555   16.1033 C   0  0  0  0  0  0  0  0  0  0  0  0
    5.7405  -11.7977   26.0536 C   0  0  0  0  0  0  0  0  0  0  0  0
    6.9297  -12.4721   25.4096 C   0  0  2  0  0  0  0  0  0  0  0  0
    7.4124  -13.5624   26.3404 C   0  0  0  0  0  0  0  0  0  0  0  0
    8.0170  -12.9134   27.5642 C   0  0  2  0  0  0  0  0  0  0  0  0
    8.4925  -14.4065   25.6947 N   0  0  0  0  0  0  0  0  0  0  0  0
    8.0106  -15.0170   24.4649 C   0  0  0  0  0  0  0  0  0  0  0  0
    8.8744  -15.4560   26.6565 O   0  0  0  0  0  0  0  0  0  0  0  0
    9.8595  -15.2070   27.5870 O   0  0  0  0  0  0  0  0  0  0  0  0
  2  1  1  0
  2  3  1  0
  3  4  2  0
  3 13  1  0
  6  7  2  0
  6  5  1  0
  8  6  1  0
  9  8  1  0
 10  9  1  0
 11 10  1  0
 12 14  1  0
 12 11  1  6
 13 12  1  0
 14 15  2  0
 16 17  1  0
 17 18  1  0
 18 19  1  1
 20 22  1  0
 20 18  1  0
 20 21  1  6
 21 14  1  0
 22 23  1  0
 24 22  2  0
M  END
$$$$
