GRI.pdb
     RDKit          3D

 24 23  0  0  1  0  0  0  0  0999 V2000
    8.6501  -12.4411   18.1070 N   0  0  0  0  0  0  0  0  0  0  0  0
    9.0126  -13.5684   18.9416 C   0  0  0  0  0  0  0  0  0  0  0  0
    8.0124  -13.8281   19.9894 C   0  0  0  0  0  0  0  0  0  0  0  0
    7.0713  -13.0574   20.2082 O   0  0  0  0  0  0  0  0  0  0  0  0
    2.8599  -19.4999   20.7634 N   0  0  0  0  0  0  0  0  0  0  0  0
    2.9105  -19.4421   22.1725 C   0  0  0  0  0  0  0  0  0  0  0  0
    1.8247  -19.5760   22.8570 N   0  0  0  0  0  0  0  0  0  0  0  0
    4.1421  -19.2374   22.8469 N   0  0  0  0  0  0  0  0  0  0  0  0
    5.3321  -18.8643   22.0630 C   0  0  0  0  0  0  0  0  0  0  0  0
    5.6886  -17.4252   22.3362 C   0  0  0  0  0  0  0  0  0  0  0  0
    6.7608  -16.8483   21.5003 C   0  0  0  0  0  0  0  0  0  0  0  0
    7.1390  -15.4237   21.7314 C   0  0  2  0  0  0  0  0  0  0  0  0
    8.1361  -15.0099   20.7775 N   0  0  0  0  0  0  0  0  0  0  0  0
    7.8492  -15.4122   23.0770 C   0  0  0  0  0  0  0  0  0  0  0  0
    8.9725  -15.9361   23.1430 O   0  0  0  0  0  0  0  0  0  0  0  0
    1.7943  -19.6727   23.8882 C   0  0  0  0  0  0  0  0  0  0  0  0
    5.7590  -12.0894   27.1286 C   0  0  0  0  0  0  0  0  0  0  0  0
    6.0419  -13.3885   26.4100 C   0  0  2  0  0  0  0  0  0  0  0  0
    7.5415  -13.5331   26.2738 C   0  0  0  0  0  0  0  0  0  0  0  0
    8.0647  -12.3593   25.4783 C   0  0  1  0  0  0  0  0  0  0  0  0
    7.9120  -14.7935   25.5187 N   0  0  0  0  0  0  0  0  0  0  0  0
    7.2632  -14.8300   24.2167 C   0  0  0  0  0  0  0  0  0  0  0  0
    7.4726  -15.9446   26.3276 O   0  0  0  0  0  0  0  0  0  0  0  0
    8.1333  -16.2524   27.4968 O   0  0  0  0  0  0  0  0  0  0  0  0
  2  1  1  0
  2  3  1  0
  3  4  2  0
  3 13  1  0
  6  7  2  0
  6  5  1  0
  8  6  1  0
  9  8  1  0
 10  9  1  0
 11 10  1  0
 12 14  1  0
 12 11  1  6
 13 12  1  0
 14 15  2  0
 16 17  1  0
 17 18  1  0
 18 19  1  1
 20 22  1  0
 20 18  1  0
 20 21  1  6
 21 14  1  0
 22 23  1  0
 24 22  2  0
M  END
$$$$
