GRI.pdb
     RDKit          3D

 24 23  0  0  1  0  0  0  0  0999 V2000
    4.1508  -19.6176   23.3135 N   0  0  0  0  0  0  0  0  0  0  0  0
    4.7314  -18.2981   23.1703 C   0  0  0  0  0  0  0  0  0  0  0  0
    6.1815  -18.2990   23.4217 C   0  0  0  0  0  0  0  0  0  0  0  0
    6.7502  -19.2329   23.9977 O   0  0  0  0  0  0  0  0  0  0  0  0
    7.7647  -14.5160   17.6578 N   0  0  0  0  0  0  0  0  0  0  0  0
    8.3511  -13.4802   18.4160 C   0  0  0  0  0  0  0  0  0  0  0  0
    8.1120  -12.2496   18.1095 N   0  0  0  0  0  0  0  0  0  0  0  0
    9.2023  -13.7755   19.5123 N   0  0  0  0  0  0  0  0  0  0  0  0
    9.4227  -15.1832   19.8863 C   0  0  0  0  0  0  0  0  0  0  0  0
    8.8244  -15.4466   21.2447 C   0  0  0  0  0  0  0  0  0  0  0  0
    9.0067  -16.8089   21.7853 C   0  0  0  0  0  0  0  0  0  0  0  0
    8.3882  -17.1271   23.1052 C   0  0  2  0  0  0  0  0  0  0  0  0
    6.9537  -17.1829   22.9847 N   0  0  0  0  0  0  0  0  0  0  0  0
    8.6654  -15.9129   23.9793 C   0  0  0  0  0  0  0  0  0  0  0  0
    9.0564  -14.8753   23.4214 O   0  0  0  0  0  0  0  0  0  0  0  0
    8.5735  -11.4374   18.5576 C   0  0  0  0  0  0  0  0  0  0  0  0
    5.8988  -12.6014   26.2129 C   0  0  0  0  0  0  0  0  0  0  0  0
    7.1143  -13.3011   25.6499 C   0  0  2  0  0  0  0  0  0  0  0  0
    7.7738  -14.0725   26.7715 C   0  0  0  0  0  0  0  0  0  0  0  0
    8.3179  -13.0834   27.7766 C   0  0  2  0  0  0  0  0  0  0  0  0
    8.9419  -14.8959   26.2679 N   0  0  0  0  0  0  0  0  0  0  0  0
    8.4881  -15.9515   25.3751 C   0  0  0  0  0  0  0  0  0  0  0  0
    9.6105  -15.4874   27.4407 O   0  0  0  0  0  0  0  0  0  0  0  0
    9.6238  -16.8554   27.6042 O   0  0  0  0  0  0  0  0  0  0  0  0
  2  1  1  0
  2  3  1  0
  3  4  2  0
  3 13  1  0
  6  7  2  0
  6  5  1  0
  8  6  1  0
  9  8  1  0
 10  9  1  0
 11 10  1  0
 12 14  1  0
 12 11  1  6
 13 12  1  0
 14 15  2  0
 16 17  1  0
 17 18  1  0
 18 19  1  1
 20 22  1  0
 20 18  1  0
 20 21  1  6
 21 14  1  0
 22 23  1  0
 24 22  2  0
M  END
$$$$
