GRI.pdb
     RDKit          3D

 24 23  0  0  1  0  0  0  0  0999 V2000
    7.7053  -12.2667   18.5554 N   0  0  0  0  0  0  0  0  0  0  0  0
    8.5960  -13.2780   19.0870 C   0  0  0  0  0  0  0  0  0  0  0  0
    8.0975  -13.8498   20.3481 C   0  0  0  0  0  0  0  0  0  0  0  0
    7.1549  -13.3498   20.9717 O   0  0  0  0  0  0  0  0  0  0  0  0
   11.6767  -20.1842   21.5269 N   0  0  0  0  0  0  0  0  0  0  0  0
   10.6442  -20.2845   22.4837 C   0  0  0  0  0  0  0  0  0  0  0  0
   10.8901  -20.8093   23.6368 N   0  0  0  0  0  0  0  0  0  0  0  0
    9.3369  -19.8156   22.1928 N   0  0  0  0  0  0  0  0  0  0  0  0
    9.0086  -19.4276   20.8102 C   0  0  0  0  0  0  0  0  0  0  0  0
    8.3873  -18.0539   20.8030 C   0  0  0  0  0  0  0  0  0  0  0  0
    8.7331  -17.1752   21.9386 C   0  0  0  0  0  0  0  0  0  0  0  0
    8.1733  -15.7922   21.9495 C   0  0  2  0  0  0  0  0  0  0  0  0
    8.7256  -15.0206   20.8656 N   0  0  0  0  0  0  0  0  0  0  0  0
    8.7228  -15.1489   23.2141 C   0  0  0  0  0  0  0  0  0  0  0  0
    9.9192  -14.8184   23.2225 O   0  0  0  0  0  0  0  0  0  0  0  0
   10.1720  -20.9817   24.3634 C   0  0  0  0  0  0  0  0  0  0  0  0
    5.6271  -11.6758   25.8624 C   0  0  0  0  0  0  0  0  0  0  0  0
    6.8179  -12.3602   25.2318 C   0  0  2  0  0  0  0  0  0  0  0  0
    7.3000  -13.4340   26.1820 C   0  0  0  0  0  0  0  0  0  0  0  0
    7.8928  -12.7636   27.4000 C   0  0  2  0  0  0  0  0  0  0  0  0
    8.3890  -14.2816   25.5562 N   0  0  0  0  0  0  0  0  0  0  0  0
    7.9122  -14.9298   24.3438 C   0  0  0  0  0  0  0  0  0  0  0  0
    8.7853  -15.3010   26.5441 O   0  0  0  0  0  0  0  0  0  0  0  0
    8.3739  -16.6062   26.3845 O   0  0  0  0  0  0  0  0  0  0  0  0
  2  1  1  0
  2  3  1  0
  3  4  2  0
  3 13  1  0
  6  7  2  0
  6  5  1  0
  8  6  1  0
  9  8  1  0
 10  9  1  0
 11 10  1  0
 12 14  1  0
 12 11  1  6
 13 12  1  0
 14 15  2  0
 16 17  1  0
 17 18  1  0
 18 19  1  1
 20 22  1  0
 20 18  1  0
 20 21  1  6
 21 14  1  0
 22 23  1  0
 24 22  2  0
M  END
$$$$
