GRI.pdb
     RDKit          3D

 24 23  0  0  1  0  0  0  0  0999 V2000
    6.2309  -19.6595   23.3516 N   0  0  0  0  0  0  0  0  0  0  0  0
    5.9869  -18.2405   23.5124 C   0  0  0  0  0  0  0  0  0  0  0  0
    7.1771  -17.4334   23.1999 C   0  0  0  0  0  0  0  0  0  0  0  0
    8.3123  -17.9204   23.1603 O   0  0  0  0  0  0  0  0  0  0  0  0
    9.7482  -14.3096   17.9931 N   0  0  0  0  0  0  0  0  0  0  0  0
    8.5272  -14.0280   17.3439 C   0  0  0  0  0  0  0  0  0  0  0  0
    8.3510  -14.4052   16.1224 N   0  0  0  0  0  0  0  0  0  0  0  0
    7.4898  -13.3336   18.0185 N   0  0  0  0  0  0  0  0  0  0  0  0
    7.6710  -12.9819   19.4374 C   0  0  0  0  0  0  0  0  0  0  0  0
    7.7106  -14.2381   20.2701 C   0  0  0  0  0  0  0  0  0  0  0  0
    7.6417  -14.0535   21.7338 C   0  0  0  0  0  0  0  0  0  0  0  0
    8.1106  -15.1715   22.6034 C   0  0  2  0  0  0  0  0  0  0  0  0
    7.0117  -16.0423   22.9344 N   0  0  0  0  0  0  0  0  0  0  0  0
    8.5064  -14.5159   23.9181 C   0  0  0  0  0  0  0  0  0  0  0  0
    8.5696  -13.2767   23.9509 O   0  0  0  0  0  0  0  0  0  0  0  0
    7.5156  -14.1721   15.5556 C   0  0  0  0  0  0  0  0  0  0  0  0
    6.5296  -11.8933   26.5532 C   0  0  0  0  0  0  0  0  0  0  0  0
    7.7146  -12.6459   25.9936 C   0  0  2  0  0  0  0  0  0  0  0  0
    7.9642  -13.8505   26.8738 C   0  0  0  0  0  0  0  0  0  0  0  0
    8.3422  -13.3641   28.2540 C   0  0  2  0  0  0  0  0  0  0  0  0
    9.1167  -14.6874   26.3567 N   0  0  0  0  0  0  0  0  0  0  0  0
    8.7938  -15.2775   25.0664 C   0  0  0  0  0  0  0  0  0  0  0  0
    9.3731  -15.7528   27.3425 O   0  0  0  0  0  0  0  0  0  0  0  0
    9.9869  -15.4472   28.5374 O   0  0  0  0  0  0  0  0  0  0  0  0
  2  1  1  0
  2  3  1  0
  3  4  2  0
  3 13  1  0
  6  7  2  0
  6  5  1  0
  8  6  1  0
  9  8  1  0
 10  9  1  0
 11 10  1  0
 12 14  1  0
 12 11  1  6
 13 12  1  0
 14 15  2  0
 16 17  1  0
 17 18  1  0
 18 19  1  6
 20 22  1  0
 20 18  1  0
 20 21  1  6
 21 14  1  0
 22 23  1  0
 24 22  2  0
M  END
$$$$
