GRI.pdb
     RDKit          3D

 24 23  0  0  1  0  0  0  0  0999 V2000
    7.3634  -13.0125   18.8821 N   0  0  0  0  0  0  0  0  0  0  0  0
    8.1897  -14.0457   19.4725 C   0  0  0  0  0  0  0  0  0  0  0  0
    7.6506  -14.5222   20.7563 C   0  0  0  0  0  0  0  0  0  0  0  0
    6.7397  -13.9330   21.3483 O   0  0  0  0  0  0  0  0  0  0  0  0
    7.2355  -21.1553   25.7653 N   0  0  0  0  0  0  0  0  0  0  0  0
    6.3652  -21.5426   24.7241 C   0  0  0  0  0  0  0  0  0  0  0  0
    5.3948  -22.3564   24.9717 N   0  0  0  0  0  0  0  0  0  0  0  0
    6.5449  -21.0483   23.4062 N   0  0  0  0  0  0  0  0  0  0  0  0
    7.6718  -20.1402   23.1315 C   0  0  0  0  0  0  0  0  0  0  0  0
    7.1742  -18.7183   23.0714 C   0  0  0  0  0  0  0  0  0  0  0  0
    8.1672  -17.6950   22.6866 C   0  0  0  0  0  0  0  0  0  0  0  0
    7.7030  -16.2831   22.5562 C   0  0  2  0  0  0  0  0  0  0  0  0
    8.2001  -15.7041   21.3342 N   0  0  0  0  0  0  0  0  0  0  0  0
    8.4106  -15.5256   23.6700 C   0  0  0  0  0  0  0  0  0  0  0  0
    9.6230  -15.2965   23.5346 O   0  0  0  0  0  0  0  0  0  0  0  0
    4.6884  -22.6505   24.2731 C   0  0  0  0  0  0  0  0  0  0  0  0
    5.9669  -11.4666   26.2661 C   0  0  0  0  0  0  0  0  0  0  0  0
    7.0230  -12.3181   25.6000 C   0  0  2  0  0  0  0  0  0  0  0  0
    7.4293  -13.4060   26.5693 C   0  0  0  0  0  0  0  0  0  0  0  0
    8.1661  -12.7670   27.7239 C   0  0  2  0  0  0  0  0  0  0  0  0
    8.3730  -14.4008   25.9244 N   0  0  0  0  0  0  0  0  0  0  0  0
    7.7249  -15.0931   24.8206 C   0  0  0  0  0  0  0  0  0  0  0  0
    8.7719  -15.3732   26.9577 O   0  0  0  0  0  0  0  0  0  0  0  0
    9.9453  -15.1883   27.6558 O   0  0  0  0  0  0  0  0  0  0  0  0
  2  1  1  0
  2  3  1  0
  3  4  2  0
  3 13  1  0
  6  7  2  0
  6  5  1  0
  8  6  1  0
  9  8  1  0
 10  9  1  0
 11 10  1  0
 12 14  1  0
 12 11  1  6
 13 12  1  0
 14 15  2  0
 16 17  1  0
 17 18  1  0
 18 19  1  1
 20 22  1  0
 20 18  1  0
 20 21  1  6
 21 14  1  0
 22 23  1  0
 24 22  2  0
M  END
$$$$
