GRI.pdb
     RDKit          3D

 24 23  0  0  1  0  0  0  0  0999 V2000
   11.6791  -18.7533   16.4432 N   0  0  0  0  0  0  0  0  0  0  0  0
   10.5323  -18.9094   17.3146 C   0  0  0  0  0  0  0  0  0  0  0  0
   10.5841  -17.9986   18.4694 C   0  0  0  0  0  0  0  0  0  0  0  0
   11.6480  -17.5416   18.9016 O   0  0  0  0  0  0  0  0  0  0  0  0
    6.7979  -13.6792   16.5012 N   0  0  0  0  0  0  0  0  0  0  0  0
    7.5526  -13.0387   17.5071 C   0  0  0  0  0  0  0  0  0  0  0  0
    8.6807  -12.4885   17.2070 N   0  0  0  0  0  0  0  0  0  0  0  0
    7.0861  -12.9932   18.8464 N   0  0  0  0  0  0  0  0  0  0  0  0
    7.7139  -13.8681   19.8515 C   0  0  0  0  0  0  0  0  0  0  0  0
    7.3324  -15.3021   19.5846 C   0  0  0  0  0  0  0  0  0  0  0  0
    7.9073  -16.3111   20.4971 C   0  0  0  0  0  0  0  0  0  0  0  0
    9.3096  -16.7580   20.2526 C   0  0  2  0  0  0  0  0  0  0  0  0
    9.3635  -17.6329   19.1094 N   0  0  0  0  0  0  0  0  0  0  0  0
    9.6614  -17.6387   21.4425 C   0  0  0  0  0  0  0  0  0  0  0  0
    8.9843  -18.6630   21.6245 O   0  0  0  0  0  0  0  0  0  0  0  0
    9.3445  -12.1035   17.9032 C   0  0  0  0  0  0  0  0  0  0  0  0
   14.7308  -19.1115   24.4628 C   0  0  0  0  0  0  0  0  0  0  0  0
   13.2217  -19.0876   24.5387 C   0  0  2  0  0  0  0  0  0  0  0  0
   12.7102  -18.1849   23.4379 C   0  0  0  0  0  0  0  0  0  0  0  0
   13.1221  -16.7654   23.7534 C   0  0  2  0  0  0  0  0  0  0  0  0
   11.1973  -18.2104   23.3563 N   0  0  0  0  0  0  0  0  0  0  0  0
   10.7170  -17.3144   22.3152 C   0  0  0  0  0  0  0  0  0  0  0  0
   10.6718  -17.7819   24.6649 O   0  0  0  0  0  0  0  0  0  0  0  0
   10.1303  -16.5230   24.8069 O   0  0  0  0  0  0  0  0  0  0  0  0
  2  1  1  0
  2  3  1  0
  3  4  2  0
  3 13  1  0
  6  7  2  0
  6  5  1  0
  8  6  1  0
  9  8  1  0
 10  9  1  0
 11 10  1  0
 12 14  1  0
 12 11  1  1
 13 12  1  0
 14 15  2  0
 16 17  1  0
 17 18  1  0
 18 19  1  6
 20 22  1  0
 20 18  1  0
 20 21  1  1
 21 14  1  0
 22 23  1  0
 24 22  2  0
M  END
$$$$
