GRI.pdb
     RDKit          3D

 24 23  0  0  1  0  0  0  0  0999 V2000
    7.6570  -12.5947   18.1749 N   0  0  0  0  0  0  0  0  0  0  0  0
    8.7052  -13.1526   19.0048 C   0  0  0  0  0  0  0  0  0  0  0  0
    8.1684  -13.8383   20.1913 C   0  0  0  0  0  0  0  0  0  0  0  0
    7.1138  -13.4900   20.7333 O   0  0  0  0  0  0  0  0  0  0  0  0
   11.0843  -21.7843   20.5106 N   0  0  0  0  0  0  0  0  0  0  0  0
   10.0865  -21.3987   19.5901 C   0  0  0  0  0  0  0  0  0  0  0  0
    9.7686  -22.1915   18.6228 N   0  0  0  0  0  0  0  0  0  0  0  0
    9.4283  -20.1478   19.7148 N   0  0  0  0  0  0  0  0  0  0  0  0
    9.7768  -19.2668   20.8427 C   0  0  0  0  0  0  0  0  0  0  0  0
    8.9739  -17.9935   20.7585 C   0  0  0  0  0  0  0  0  0  0  0  0
    9.1368  -17.0438   21.8778 C   0  0  0  0  0  0  0  0  0  0  0  0
    8.3938  -15.7516   21.8134 C   0  0  2  0  0  0  0  0  0  0  0  0
    8.8924  -14.9415   20.7315 N   0  0  0  0  0  0  0  0  0  0  0  0
    8.7827  -15.0037   23.0801 C   0  0  0  0  0  0  0  0  0  0  0  0
    9.8816  -14.4268   23.0973 O   0  0  0  0  0  0  0  0  0  0  0  0
    9.0625  -21.9712   17.8972 C   0  0  0  0  0  0  0  0  0  0  0  0
    6.1178  -11.3897   27.0164 C   0  0  0  0  0  0  0  0  0  0  0  0
    7.3211  -12.2809   26.8119 C   0  0  2  0  0  0  0  0  0  0  0  0
    7.0522  -13.1658   25.6149 C   0  0  0  0  0  0  0  0  0  0  0  0
    5.8171  -13.9900   25.8975 C   0  0  2  0  0  0  0  0  0  0  0  0
    8.1944  -14.1307   25.3693 N   0  0  0  0  0  0  0  0  0  0  0  0
    7.9339  -14.9596   24.2020 C   0  0  0  0  0  0  0  0  0  0  0  0
    8.3264  -14.9811   26.5658 O   0  0  0  0  0  0  0  0  0  0  0  0
    8.0157  -16.3213   26.4914 O   0  0  0  0  0  0  0  0  0  0  0  0
  2  1  1  0
  2  3  1  0
  3  4  2  0
  3 13  1  0
  6  7  2  0
  6  5  1  0
  8  6  1  0
  9  8  1  0
 10  9  1  0
 11 10  1  0
 12 14  1  0
 12 11  1  1
 13 12  1  0
 14 15  2  0
 16 17  1  0
 17 18  1  0
 18 19  1  6
 20 22  1  0
 20 18  1  0
 20 21  1  1
 21 14  1  0
 22 23  1  0
 24 22  2  0
M  END
$$$$
