GRI.pdb
     RDKit          3D

 24 23  0  0  1  0  0  0  0  0999 V2000
    5.2671  -20.0901   23.4531 N   0  0  0  0  0  0  0  0  0  0  0  0
    5.1216  -18.6779   23.7416 C   0  0  0  0  0  0  0  0  0  0  0  0
    6.4163  -17.9785   23.7605 C   0  0  0  0  0  0  0  0  0  0  0  0
    7.3599  -18.3567   24.4634 O   0  0  0  0  0  0  0  0  0  0  0  0
    8.2769  -12.5785   19.4255 N   0  0  0  0  0  0  0  0  0  0  0  0
    8.4106  -13.4799   18.3479 C   0  0  0  0  0  0  0  0  0  0  0  0
    9.2720  -13.2403   17.4174 N   0  0  0  0  0  0  0  0  0  0  0  0
    7.6077  -14.6476   18.2745 N   0  0  0  0  0  0  0  0  0  0  0  0
    6.7270  -14.9811   19.4072 C   0  0  0  0  0  0  0  0  0  0  0  0
    7.4677  -15.8582   20.3844 C   0  0  0  0  0  0  0  0  0  0  0  0
    7.8554  -15.2284   21.6628 C   0  0  0  0  0  0  0  0  0  0  0  0
    7.8068  -16.0638   22.8980 C   0  0  2  0  0  0  0  0  0  0  0  0
    6.5846  -16.8254   22.9389 N   0  0  0  0  0  0  0  0  0  0  0  0
    7.6943  -15.0723   24.0467 C   0  0  0  0  0  0  0  0  0  0  0  0
    7.1992  -13.9602   23.8048 O   0  0  0  0  0  0  0  0  0  0  0  0
    9.4573  -13.8731   16.6182 C   0  0  0  0  0  0  0  0  0  0  0  0
    5.9676  -11.8650   26.7186 C   0  0  0  0  0  0  0  0  0  0  0  0
    7.0532  -12.6066   25.9733 C   0  0  2  0  0  0  0  0  0  0  0  0
    7.6999  -13.5811   26.9327 C   0  0  0  0  0  0  0  0  0  0  0  0
    8.3968  -12.7927   28.0177 C   0  0  2  0  0  0  0  0  0  0  0  0
    8.7500  -14.4271   26.2416 N   0  0  0  0  0  0  0  0  0  0  0  0
    8.1331  -15.3930   25.3451 C   0  0  0  0  0  0  0  0  0  0  0  0
    9.5139  -15.1328   27.2861 O   0  0  0  0  0  0  0  0  0  0  0  0
   10.3844  -14.4306   28.0907 O   0  0  0  0  0  0  0  0  0  0  0  0
  2  1  1  0
  2  3  1  0
  3  4  2  0
  3 13  1  0
  6  7  2  0
  6  5  1  0
  8  6  1  0
  9  8  1  0
 10  9  1  0
 11 10  1  0
 12 14  1  0
 12 11  1  6
 13 12  1  0
 14 15  2  0
 16 17  1  0
 17 18  1  0
 18 19  1  1
 20 22  1  0
 20 18  1  0
 20 21  1  6
 21 14  1  0
 22 23  1  0
 24 22  2  0
M  END
$$$$
