GRI.pdb
     RDKit          3D

 24 23  0  0  1  0  0  0  0  0999 V2000
    9.0537  -11.7022   18.9911 N   0  0  0  0  0  0  0  0  0  0  0  0
    9.1346  -13.1185   19.2847 C   0  0  0  0  0  0  0  0  0  0  0  0
    8.2118  -13.5165   20.3598 C   0  0  0  0  0  0  0  0  0  0  0  0
    7.5578  -12.6911   21.0066 O   0  0  0  0  0  0  0  0  0  0  0  0
    2.7033  -19.2954   20.8431 N   0  0  0  0  0  0  0  0  0  0  0  0
    3.0369  -19.3912   22.2110 C   0  0  0  0  0  0  0  0  0  0  0  0
    2.0994  -19.4098   23.0976 N   0  0  0  0  0  0  0  0  0  0  0  0
    4.3923  -19.4666   22.6241 N   0  0  0  0  0  0  0  0  0  0  0  0
    5.4409  -18.9428   21.7319 C   0  0  0  0  0  0  0  0  0  0  0  0
    5.7667  -17.5208   22.1124 C   0  0  0  0  0  0  0  0  0  0  0  0
    6.7656  -16.8322   21.2701 C   0  0  0  0  0  0  0  0  0  0  0  0
    7.0786  -15.4066   21.5791 C   0  0  2  0  0  0  0  0  0  0  0  0
    8.0698  -14.9024   20.6633 N   0  0  0  0  0  0  0  0  0  0  0  0
    7.7691  -15.4340   22.9346 C   0  0  0  0  0  0  0  0  0  0  0  0
    8.9374  -15.8506   22.9807 O   0  0  0  0  0  0  0  0  0  0  0  0
    2.2525  -19.6071   24.1032 C   0  0  0  0  0  0  0  0  0  0  0  0
    5.8561  -11.6160   26.3108 C   0  0  0  0  0  0  0  0  0  0  0  0
    6.7926  -12.4585   25.4760 C   0  0  2  0  0  0  0  0  0  0  0  0
    7.0362  -13.7582   26.2106 C   0  0  0  0  0  0  0  0  0  0  0  0
    7.8728  -13.4659   27.4350 C   0  0  2  0  0  0  0  0  0  0  0  0
    7.8102  -14.7424   25.3572 N   0  0  0  0  0  0  0  0  0  0  0  0
    7.1163  -15.0038   24.1051 C   0  0  0  0  0  0  0  0  0  0  0  0
    7.9417  -15.9934   26.1254 O   0  0  0  0  0  0  0  0  0  0  0  0
    9.0958  -16.2433   26.8352 O   0  0  0  0  0  0  0  0  0  0  0  0
  2  1  1  0
  2  3  1  0
  3  4  2  0
  3 13  1  0
  6  7  2  0
  6  5  1  0
  8  6  1  0
  9  8  1  0
 10  9  1  0
 11 10  1  0
 12 14  1  0
 12 11  1  6
 13 12  1  0
 14 15  2  0
 16 17  1  0
 17 18  1  0
 18 19  1  6
 20 22  1  0
 20 18  1  0
 20 21  1  6
 21 14  1  0
 22 23  1  0
 24 22  2  0
M  END
$$$$
