GRI.pdb
     RDKit          3D

 24 23  0  0  1  0  0  0  0  0999 V2000
    8.0848  -12.7277   18.5585 N   0  0  0  0  0  0  0  0  0  0  0  0
    8.6323  -13.8501   19.2926 C   0  0  0  0  0  0  0  0  0  0  0  0
    7.8483  -14.1605   20.4988 C   0  0  0  0  0  0  0  0  0  0  0  0
    7.0830  -13.3400   21.0170 O   0  0  0  0  0  0  0  0  0  0  0  0
    6.2731  -22.3074   23.5601 N   0  0  0  0  0  0  0  0  0  0  0  0
    6.2175  -20.9165   23.7923 C   0  0  0  0  0  0  0  0  0  0  0  0
    6.6429  -20.4381   24.9128 N   0  0  0  0  0  0  0  0  0  0  0  0
    5.6979  -20.0365   22.8079 N   0  0  0  0  0  0  0  0  0  0  0  0
    6.5531  -19.6504   21.6723 C   0  0  0  0  0  0  0  0  0  0  0  0
    6.4904  -18.1570   21.4751 C   0  0  0  0  0  0  0  0  0  0  0  0
    7.2892  -17.3408   22.4116 C   0  0  0  0  0  0  0  0  0  0  0  0
    7.2457  -15.8572   22.2599 C   0  0  2  0  0  0  0  0  0  0  0  0
    7.9783  -15.4527   21.0872 N   0  0  0  0  0  0  0  0  0  0  0  0
    8.0452  -15.3120   23.4341 C   0  0  0  0  0  0  0  0  0  0  0  0
    9.2749  -15.2106   23.2996 O   0  0  0  0  0  0  0  0  0  0  0  0
    6.6270  -19.4321   25.1602 C   0  0  0  0  0  0  0  0  0  0  0  0
    5.6449  -11.5245   26.4894 C   0  0  0  0  0  0  0  0  0  0  0  0
    6.6658  -12.2843   25.6744 C   0  0  2  0  0  0  0  0  0  0  0  0
    7.2192  -13.3983   26.5352 C   0  0  0  0  0  0  0  0  0  0  0  0
    8.0412  -12.7825   27.6440 C   0  0  2  0  0  0  0  0  0  0  0  0
    8.1358  -14.3092   25.7438 N   0  0  0  0  0  0  0  0  0  0  0  0
    7.4233  -14.9315   24.6381 C   0  0  0  0  0  0  0  0  0  0  0  0
    8.6361  -15.3475   26.6624 O   0  0  0  0  0  0  0  0  0  0  0  0
    8.1507  -16.6338   26.5721 O   0  0  0  0  0  0  0  0  0  0  0  0
  2  1  1  0
  2  3  1  0
  3  4  2  0
  3 13  1  0
  6  7  2  0
  6  5  1  0
  8  6  1  0
  9  8  1  0
 10  9  1  0
 11 10  1  0
 12 14  1  0
 12 11  1  1
 13 12  1  0
 14 15  2  0
 16 17  1  0
 17 18  1  0
 18 19  1  1
 20 22  1  0
 20 18  1  0
 20 21  1  6
 21 14  1  0
 22 23  1  0
 24 22  2  0
M  END
$$$$
