GRI.pdb
     RDKit          3D

 24 23  0  0  1  0  0  0  0  0999 V2000
   13.2569  -17.3595   20.7336 N   0  0  0  0  0  0  0  0  0  0  0  0
   11.9019  -17.6777   21.1355 C   0  0  0  0  0  0  0  0  0  0  0  0
   11.1527  -16.4833   21.5573 C   0  0  0  0  0  0  0  0  0  0  0  0
   11.7133  -15.4182   21.8377 O   0  0  0  0  0  0  0  0  0  0  0  0
    8.0758  -15.4624   16.9140 N   0  0  0  0  0  0  0  0  0  0  0  0
    7.9259  -14.0631   17.0182 C   0  0  0  0  0  0  0  0  0  0  0  0
    7.9872  -13.3329   15.9559 N   0  0  0  0  0  0  0  0  0  0  0  0
    7.7095  -13.4481   18.2785 N   0  0  0  0  0  0  0  0  0  0  0  0
    8.2428  -14.0948   19.4898 C   0  0  0  0  0  0  0  0  0  0  0  0
    7.1332  -14.8201   20.2078 C   0  0  0  0  0  0  0  0  0  0  0  0
    7.5307  -15.6224   21.3823 C   0  0  0  0  0  0  0  0  0  0  0  0
    8.9011  -15.4206   21.9369 C   0  0  2  0  0  0  0  0  0  0  0  0
    9.7316  -16.5609   21.6448 N   0  0  0  0  0  0  0  0  0  0  0  0
    8.7264  -15.4344   23.4483 C   0  0  0  0  0  0  0  0  0  0  0  0
    9.0688  -16.4580   24.0611 O   0  0  0  0  0  0  0  0  0  0  0  0
    7.8016  -12.3137   15.9381 C   0  0  0  0  0  0  0  0  0  0  0  0
    6.4139  -11.7026   27.8660 C   0  0  0  0  0  0  0  0  0  0  0  0
    7.1495  -12.9773   27.5229 C   0  0  2  0  0  0  0  0  0  0  0  0
    7.3537  -13.0131   26.0245 C   0  0  0  0  0  0  0  0  0  0  0  0
    5.9995  -12.9535   25.3558 C   0  0  2  0  0  0  0  0  0  0  0  0
    8.0199  -14.3011   25.5849 N   0  0  0  0  0  0  0  0  0  0  0  0
    8.1957  -14.3298   24.1407 C   0  0  0  0  0  0  0  0  0  0  0  0
    7.1543  -15.4179   26.0045 O   0  0  0  0  0  0  0  0  0  0  0  0
    7.3375  -16.0000   27.2397 O   0  0  0  0  0  0  0  0  0  0  0  0
  2  1  1  0
  2  3  1  0
  3  4  2  0
  3 13  1  0
  6  7  2  0
  6  5  1  0
  8  6  1  0
  9  8  1  0
 10  9  1  0
 11 10  1  0
 12 14  1  0
 12 11  1  6
 13 12  1  0
 14 15  2  0
 16 17  1  0
 17 18  1  0
 18 19  1  6
 20 22  1  0
 20 18  1  0
 20 21  1  1
 21 14  1  0
 22 23  1  0
 24 22  2  0
M  END
$$$$
