GRI.pdb
     RDKit          3D

 24 23  0  0  1  0  0  0  0  0999 V2000
    7.2695  -12.8337   18.7233 N   0  0  0  0  0  0  0  0  0  0  0  0
    8.3483  -13.5362   19.3876 C   0  0  0  0  0  0  0  0  0  0  0  0
    7.9210  -14.1303   20.6644 C   0  0  0  0  0  0  0  0  0  0  0  0
    6.9893  -13.6644   21.3294 O   0  0  0  0  0  0  0  0  0  0  0  0
    6.7766  -21.2290   20.1961 N   0  0  0  0  0  0  0  0  0  0  0  0
    7.8493  -20.8341   19.3686 C   0  0  0  0  0  0  0  0  0  0  0  0
    7.7789  -21.0283   18.0947 N   0  0  0  0  0  0  0  0  0  0  0  0
    9.0065  -20.2261   19.9208 N   0  0  0  0  0  0  0  0  0  0  0  0
    8.9625  -19.7373   21.3097 C   0  0  0  0  0  0  0  0  0  0  0  0
    8.2293  -18.4210   21.3610 C   0  0  0  0  0  0  0  0  0  0  0  0
    8.7811  -17.4017   22.2763 C   0  0  0  0  0  0  0  0  0  0  0  0
    8.1514  -16.0491   22.2795 C   0  0  2  0  0  0  0  0  0  0  0  0
    8.6076  -15.2825   21.1482 N   0  0  0  0  0  0  0  0  0  0  0  0
    8.7298  -15.3421   23.4963 C   0  0  0  0  0  0  0  0  0  0  0  0
    9.9449  -15.0889   23.4953 O   0  0  0  0  0  0  0  0  0  0  0  0
    8.5140  -20.7467   17.4210 C   0  0  0  0  0  0  0  0  0  0  0  0
    5.7414  -11.6384   25.9053 C   0  0  0  0  0  0  0  0  0  0  0  0
    6.9705  -12.3290   25.3610 C   0  0  2  0  0  0  0  0  0  0  0  0
    7.4053  -13.3740   26.3646 C   0  0  0  0  0  0  0  0  0  0  0  0
    8.0461  -12.6714   27.5393 C   0  0  2  0  0  0  0  0  0  0  0  0
    8.4409  -14.3115   25.7774 N   0  0  0  0  0  0  0  0  0  0  0  0
    7.9248  -14.9813   24.5931 C   0  0  0  0  0  0  0  0  0  0  0  0
    8.7763  -15.3096   26.8088 O   0  0  0  0  0  0  0  0  0  0  0  0
    9.7557  -15.0326   27.7374 O   0  0  0  0  0  0  0  0  0  0  0  0
  2  1  1  0
  2  3  1  0
  3  4  2  0
  3 13  1  0
  6  7  2  0
  6  5  1  0
  8  6  1  0
  9  8  1  0
 10  9  1  0
 11 10  1  0
 12 14  1  0
 12 11  1  6
 13 12  1  0
 14 15  2  0
 16 17  1  0
 17 18  1  0
 18 19  1  1
 20 22  1  0
 20 18  1  0
 20 21  1  6
 21 14  1  0
 22 23  1  0
 24 22  2  0
M  END
$$$$
