AVK.pdb
     RDKit          3D

 22 21  0  0  1  0  0  0  0  0999 V2000
    6.2039  -15.8947   21.3630 C   0  0  0  0  0  0  0  0  0  0  0  0
    6.9171  -14.5650   21.3880 C   0  0  2  0  0  0  0  0  0  0  0  0
    7.7849  -14.3623   20.2618 N   0  0  0  0  0  0  0  0  0  0  0  0
    7.7035  -14.3959   22.6441 C   0  0  0  0  0  0  0  0  0  0  0  0
    8.8768  -14.8449   22.7612 O   0  0  0  0  0  0  0  0  0  0  0  0
    5.8481  -13.1847   26.2722 C   0  0  0  0  0  0  0  0  0  0  0  0
    7.1596  -12.5446   25.8636 C   0  0  1  0  0  0  0  0  0  0  0  0
    7.9759  -12.3191   27.1242 C   0  0  0  0  0  0  0  0  0  0  0  0
    7.9001  -13.5447   25.0060 C   0  0  2  0  0  0  0  0  0  0  0  0
    7.1782  -13.7171   23.7882 N   0  0  0  0  0  0  0  0  0  0  0  0
    8.1906  -14.7972   25.7136 C   0  0  0  0  0  0  0  0  0  0  0  0
    7.2599  -15.6300   25.8462 O   0  0  0  0  0  0  0  0  0  0  0  0
    9.4669  -15.1052   26.2499 N   0  0  0  0  0  0  0  0  0  0  0  0
    9.7776  -16.4059   26.8463 C   0  0  1  0  0  0  0  0  0  0  0  0
   10.8085  -17.1343   26.0095 C   0  0  0  0  0  0  0  0  0  0  0  0
   11.2619  -18.4337   26.6230 C   0  0  0  0  0  0  0  0  0  0  0  0
   12.3387  -19.0763   25.7707 C   0  0  0  0  0  0  0  0  0  0  0  0
   12.7868  -20.3655   26.4521 C   0  0  0  0  0  0  0  0  0  0  0  0
   13.7329  -21.0219   25.6041 N   0  0  0  0  0  0  0  0  0  0  0  0
   10.1919  -16.2339   28.2561 C   0  0  0  0  0  0  0  0  0  0  0  0
   10.5720  -15.0963   28.6306 O   0  0  0  0  0  0  0  0  0  0  0  0
   10.1936  -17.2383   29.2070 O   0  0  0  0  0  0  0  0  0  0  0  0
  2  4  1  0
  2  3  1  0
  2  1  1  6
  4  5  2  0
  7  6  1  1
  7  8  1  0
  7  9  1  0
  9 11  1  0
 10  4  1  0
  9 10  1  6
 11 12  2  0
 11 13  1  0
 13 14  1  0
 14 15  1  6
 15 16  1  0
 16 17  1  0
 17 18  1  0
 19 18  1  0
 20 22  1  0
 20 14  1  0
 21 20  2  0
M  END
$$$$
