AVK.pdb
     RDKit          3D

 22 21  0  0  1  0  0  0  0  0999 V2000
    7.6362  -18.6818   17.6006 C   0  0  0  0  0  0  0  0  0  0  0  0
    8.0924  -17.3096   17.1689 C   0  0  2  0  0  0  0  0  0  0  0  0
    9.0344  -17.3368   16.0852 N   0  0  0  0  0  0  0  0  0  0  0  0
    8.6850  -16.5524   18.3091 C   0  0  0  0  0  0  0  0  0  0  0  0
    9.8944  -16.6882   18.6425 O   0  0  0  0  0  0  0  0  0  0  0  0
    8.0395  -13.1674   21.8459 C   0  0  0  0  0  0  0  0  0  0  0  0
    7.4630  -13.8708   20.6337 C   0  0  1  0  0  0  0  0  0  0  0  0
    7.4259  -12.8691   19.4928 C   0  0  0  0  0  0  0  0  0  0  0  0
    8.4261  -14.9711   20.2518 C   0  0  2  0  0  0  0  0  0  0  0  0
    7.9223  -15.6295   19.0915 N   0  0  0  0  0  0  0  0  0  0  0  0
    8.7319  -15.8732   21.3683 C   0  0  0  0  0  0  0  0  0  0  0  0
    7.8424  -16.6799   21.7363 O   0  0  0  0  0  0  0  0  0  0  0  0
    9.9788  -15.8734   22.0441 N   0  0  0  0  0  0  0  0  0  0  0  0
   10.3191  -16.8627   23.0686 C   0  0  1  0  0  0  0  0  0  0  0  0
   11.5806  -17.6062   22.6818 C   0  0  0  0  0  0  0  0  0  0  0  0
   12.0201  -18.6100   23.7159 C   0  0  0  0  0  0  0  0  0  0  0  0
   13.2428  -19.3669   23.2356 C   0  0  0  0  0  0  0  0  0  0  0  0
   13.6718  -20.3354   24.3333 C   0  0  0  0  0  0  0  0  0  0  0  0
   14.6854  -21.1968   23.8082 N   0  0  0  0  0  0  0  0  0  0  0  0
   10.4130  -16.2120   24.3939 C   0  0  0  0  0  0  0  0  0  0  0  0
   10.7586  -15.0049   24.4415 O   0  0  0  0  0  0  0  0  0  0  0  0
   10.1469  -16.8345   25.6001 O   0  0  0  0  0  0  0  0  0  0  0  0
  2  4  1  0
  2  3  1  0
  2  1  1  1
  4  5  2  0
  7  6  1  1
  7  8  1  0
  7  9  1  0
  9 11  1  0
 10  4  1  0
  9 10  1  6
 11 12  2  0
 11 13  1  0
 13 14  1  0
 14 15  1  6
 15 16  1  0
 16 17  1  0
 17 18  1  0
 19 18  1  0
 20 22  1  0
 20 14  1  0
 21 20  2  0
M  END
$$$$
