AVK.pdb
     RDKit          3D

 22 21  0  0  1  0  0  0  0  0999 V2000
    5.6954  -17.6030   23.0081 C   0  0  0  0  0  0  0  0  0  0  0  0
    5.8926  -16.1447   22.6735 C   0  0  2  0  0  0  0  0  0  0  0  0
    6.2242  -15.9160   21.2950 N   0  0  0  0  0  0  0  0  0  0  0  0
    6.9431  -15.5287   23.5347 C   0  0  0  0  0  0  0  0  0  0  0  0
    8.1724  -15.6556   23.2801 O   0  0  0  0  0  0  0  0  0  0  0  0
    8.0222  -12.5631   27.3203 C   0  0  0  0  0  0  0  0  0  0  0  0
    6.9521  -13.1411   26.4163 C   0  0  1  0  0  0  0  0  0  0  0  0
    6.4990  -12.0396   25.4741 C   0  0  0  0  0  0  0  0  0  0  0  0
    7.6021  -14.2227   25.5845 C   0  0  2  0  0  0  0  0  0  0  0  0
    6.6231  -14.7596   24.6973 N   0  0  0  0  0  0  0  0  0  0  0  0
    8.2909  -15.2309   26.3988 C   0  0  0  0  0  0  0  0  0  0  0  0
    7.5900  -16.0121   27.0887 O   0  0  0  0  0  0  0  0  0  0  0  0
    9.7026  -15.3600   26.4399 N   0  0  0  0  0  0  0  0  0  0  0  0
   10.3705  -16.5169   27.0394 C   0  0  1  0  0  0  0  0  0  0  0  0
   11.6225  -16.8623   26.2602 C   0  0  0  0  0  0  0  0  0  0  0  0
   12.3814  -18.0276   26.8403 C   0  0  0  0  0  0  0  0  0  0  0  0
   13.5905  -18.3526   25.9852 C   0  0  0  0  0  0  0  0  0  0  0  0
   14.3310  -19.5237   26.6233 C   0  0  0  0  0  0  0  0  0  0  0  0
   15.5026  -19.7958   25.8497 N   0  0  0  0  0  0  0  0  0  0  0  0
   10.6310  -16.2678   28.4743 C   0  0  0  0  0  0  0  0  0  0  0  0
   10.7124  -15.0770   28.8667 O   0  0  0  0  0  0  0  0  0  0  0  0
   10.7935  -17.2540   29.4304 O   0  0  0  0  0  0  0  0  0  0  0  0
  2  4  1  0
  2  3  1  0
  2  1  1  6
  4  5  2  0
  7  6  1  1
  7  8  1  0
  7  9  1  0
  9 11  1  0
 10  4  1  0
  9 10  1  1
 11 12  2  0
 11 13  1  0
 13 14  1  0
 14 15  1  6
 15 16  1  0
 16 17  1  0
 17 18  1  0
 19 18  1  0
 20 22  1  0
 20 14  1  0
 21 20  2  0
M  END
$$$$
