AVK.pdb
     RDKit          3D

 22 21  0  0  1  0  0  0  0  0999 V2000
    5.3767  -18.7296   23.6918 C   0  0  0  0  0  0  0  0  0  0  0  0
    5.4113  -18.4162   22.2160 C   0  0  2  0  0  0  0  0  0  0  0  0
    5.3315  -19.5836   21.3834 N   0  0  0  0  0  0  0  0  0  0  0  0
    6.6356  -17.6445   21.8548 C   0  0  0  0  0  0  0  0  0  0  0  0
    7.7311  -18.2150   21.5972 O   0  0  0  0  0  0  0  0  0  0  0  0
    6.7732  -13.3465   22.1699 C   0  0  0  0  0  0  0  0  0  0  0  0
    7.3691  -14.0872   20.9897 C   0  0  1  0  0  0  0  0  0  0  0  0
    8.6105  -13.3314   20.5492 C   0  0  0  0  0  0  0  0  0  0  0  0
    7.8069  -15.4459   21.4860 C   0  0  2  0  0  0  0  0  0  0  0  0
    6.6430  -16.2163   21.7786 N   0  0  0  0  0  0  0  0  0  0  0  0
    8.7670  -15.3657   22.5931 C   0  0  0  0  0  0  0  0  0  0  0  0
    8.3160  -15.2257   23.7569 O   0  0  0  0  0  0  0  0  0  0  0  0
   10.1711  -15.4388   22.4069 N   0  0  0  0  0  0  0  0  0  0  0  0
   11.0668  -16.0379   23.3982 C   0  0  1  0  0  0  0  0  0  0  0  0
   10.6987  -17.4887   23.6294 C   0  0  0  0  0  0  0  0  0  0  0  0
   11.4293  -18.1097   24.7917 C   0  0  0  0  0  0  0  0  0  0  0  0
   10.9609  -19.5345   25.0135 C   0  0  0  0  0  0  0  0  0  0  0  0
   11.6760  -20.0911   26.2407 C   0  0  0  0  0  0  0  0  0  0  0  0
   11.2720  -21.4506   26.4239 N   0  0  0  0  0  0  0  0  0  0  0  0
   12.4763  -15.8560   22.9871 C   0  0  0  0  0  0  0  0  0  0  0  0
   12.8825  -16.4666   21.9668 O   0  0  0  0  0  0  0  0  0  0  0  0
   13.3940  -15.0567   23.6444 O   0  0  0  0  0  0  0  0  0  0  0  0
  2  4  1  0
  2  3  1  0
  2  1  1  1
  4  5  2  0
  7  6  1  1
  7  8  1  0
  7  9  1  0
  9 11  1  0
 10  4  1  0
  9 10  1  1
 11 12  2  0
 11 13  1  0
 13 14  1  0
 14 15  1  6
 15 16  1  0
 16 17  1  0
 17 18  1  0
 19 18  1  0
 20 22  1  0
 20 14  1  0
 21 20  2  0
M  END
$$$$
