AVK.pdb
     RDKit          3D

 22 21  0  0  1  0  0  0  0  0999 V2000
    7.7451  -15.0783   20.6152 C   0  0  0  0  0  0  0  0  0  0  0  0
    7.3965  -15.7445   21.9237 C   0  0  2  0  0  0  0  0  0  0  0  0
    5.9830  -15.8950   22.1279 N   0  0  0  0  0  0  0  0  0  0  0  0
    7.9784  -15.0040   23.0803 C   0  0  0  0  0  0  0  0  0  0  0  0
    9.2186  -14.7951   23.1819 O   0  0  0  0  0  0  0  0  0  0  0  0
    7.2978  -12.1561   27.0054 C   0  0  0  0  0  0  0  0  0  0  0  0
    6.6750  -12.8753   25.8258 C   0  0  1  0  0  0  0  0  0  0  0  0
    6.4210  -11.8455   24.7388 C   0  0  0  0  0  0  0  0  0  0  0  0
    7.7005  -13.8551   25.3039 C   0  0  2  0  0  0  0  0  0  0  0  0
    7.1699  -14.4873   24.1409 N   0  0  0  0  0  0  0  0  0  0  0  0
    8.1705  -14.7898   26.3331 C   0  0  0  0  0  0  0  0  0  0  0  0
    7.3299  -15.5607   26.8590 O   0  0  0  0  0  0  0  0  0  0  0  0
    9.5224  -14.8595   26.7561 N   0  0  0  0  0  0  0  0  0  0  0  0
    9.9873  -15.8277   27.7513 C   0  0  1  0  0  0  0  0  0  0  0  0
   11.0821  -16.6961   27.1674 C   0  0  0  0  0  0  0  0  0  0  0  0
   10.6248  -17.5191   25.9910 C   0  0  0  0  0  0  0  0  0  0  0  0
   11.7783  -18.3239   25.4252 C   0  0  0  0  0  0  0  0  0  0  0  0
   11.2907  -19.0523   24.1767 C   0  0  0  0  0  0  0  0  0  0  0  0
   12.4120  -19.6824   23.5517 N   0  0  0  0  0  0  0  0  0  0  0  0
   10.3995  -15.1287   28.9883 C   0  0  0  0  0  0  0  0  0  0  0  0
   10.6350  -13.8961   28.9255 O   0  0  0  0  0  0  0  0  0  0  0  0
   10.5478  -15.7316   30.2243 O   0  0  0  0  0  0  0  0  0  0  0  0
  2  4  1  0
  2  3  1  0
  2  1  1  6
  4  5  2  0
  7  6  1  1
  7  8  1  0
  7  9  1  0
  9 11  1  0
 10  4  1  0
  9 10  1  6
 11 12  2  0
 11 13  1  0
 13 14  1  0
 14 15  1  6
 15 16  1  0
 16 17  1  0
 17 18  1  0
 19 18  1  0
 20 22  1  0
 20 14  1  0
 21 20  2  0
M  END
$$$$
