AVK.pdb
     RDKit          3D

 22 21  0  0  1  0  0  0  0  0999 V2000
    5.2416  -16.7630   21.7111 C   0  0  0  0  0  0  0  0  0  0  0  0
    5.6684  -17.1809   23.0970 C   0  0  2  0  0  0  0  0  0  0  0  0
    4.5687  -17.3527   24.0045 N   0  0  0  0  0  0  0  0  0  0  0  0
    6.6343  -16.2069   23.6828 C   0  0  0  0  0  0  0  0  0  0  0  0
    7.7113  -15.9036   23.0995 O   0  0  0  0  0  0  0  0  0  0  0  0
    7.6826  -12.9501   27.2190 C   0  0  0  0  0  0  0  0  0  0  0  0
    6.6361  -13.8036   26.5313 C   0  0  1  0  0  0  0  0  0  0  0  0
    5.7723  -12.8836   25.6864 C   0  0  0  0  0  0  0  0  0  0  0  0
    7.3642  -14.7417   25.5965 C   0  0  2  0  0  0  0  0  0  0  0  0
    6.4003  -15.5597   24.9366 N   0  0  0  0  0  0  0  0  0  0  0  0
    8.4334  -15.4939   26.2634 C   0  0  0  0  0  0  0  0  0  0  0  0
    8.1134  -16.2803   27.1889 O   0  0  0  0  0  0  0  0  0  0  0  0
    9.8017  -15.3721   25.9105 N   0  0  0  0  0  0  0  0  0  0  0  0
   10.7768  -16.4358   26.1590 C   0  0  1  0  0  0  0  0  0  0  0  0
   11.8703  -16.4006   25.1118 C   0  0  0  0  0  0  0  0  0  0  0  0
   12.8311  -17.5565   25.2162 C   0  0  0  0  0  0  0  0  0  0  0  0
   13.8335  -17.5185   24.0793 C   0  0  0  0  0  0  0  0  0  0  0  0
   14.7507  -18.7309   24.2050 C   0  0  0  0  0  0  0  0  0  0  0  0
   15.6560  -18.7320   23.0980 N   0  0  0  0  0  0  0  0  0  0  0  0
   11.2948  -16.3392   27.5415 C   0  0  0  0  0  0  0  0  0  0  0  0
   11.9338  -17.3156   28.0075 O   0  0  0  0  0  0  0  0  0  0  0  0
   11.1300  -15.2457   28.3722 O   0  0  0  0  0  0  0  0  0  0  0  0
  2  4  1  0
  2  3  1  0
  2  1  1  6
  4  5  2  0
  7  6  1  6
  7  8  1  0
  7  9  1  0
  9 11  1  0
 10  4  1  0
  9 10  1  1
 11 12  2  0
 11 13  1  0
 13 14  1  0
 14 15  1  6
 15 16  1  0
 16 17  1  0
 17 18  1  0
 19 18  1  0
 20 22  1  0
 20 14  1  0
 21 20  2  0
M  END
$$$$
