AVK.pdb
     RDKit          3D

 22 21  0  0  1  0  0  0  0  0999 V2000
    6.9090  -18.7131   17.8418 C   0  0  0  0  0  0  0  0  0  0  0  0
    7.1218  -17.3360   17.2622 C   0  0  2  0  0  0  0  0  0  0  0  0
    7.6648  -17.3548   15.9328 N   0  0  0  0  0  0  0  0  0  0  0  0
    8.0051  -16.5111   18.1362 C   0  0  0  0  0  0  0  0  0  0  0  0
    9.2630  -16.5868   18.0736 O   0  0  0  0  0  0  0  0  0  0  0  0
    8.3337  -13.0844   21.6779 C   0  0  0  0  0  0  0  0  0  0  0  0
    7.4781  -13.7590   20.6246 C   0  0  1  0  0  0  0  0  0  0  0  0
    7.2356  -12.7531   19.5129 C   0  0  0  0  0  0  0  0  0  0  0  0
    8.2879  -14.8978   20.0491 C   0  0  2  0  0  0  0  0  0  0  0  0
    7.4827  -15.5874   19.0952 N   0  0  0  0  0  0  0  0  0  0  0  0
    8.8676  -15.7637   21.0826 C   0  0  0  0  0  0  0  0  0  0  0  0
    8.0881  -16.4812   21.7572 O   0  0  0  0  0  0  0  0  0  0  0  0
   10.2590  -15.8248   21.3502 N   0  0  0  0  0  0  0  0  0  0  0  0
   10.8425  -16.8074   22.2656 C   0  0  1  0  0  0  0  0  0  0  0  0
   11.7761  -17.7343   21.5152 C   0  0  0  0  0  0  0  0  0  0  0  0
   12.4139  -18.7769   22.3964 C   0  0  0  0  0  0  0  0  0  0  0  0
   13.3786  -19.6304   21.5965 C   0  0  0  0  0  0  0  0  0  0  0  0
   14.0230  -20.6415   22.5396 C   0  0  0  0  0  0  0  0  0  0  0  0
   13.9295  -21.9394   21.9463 N   0  0  0  0  0  0  0  0  0  0  0  0
   11.4967  -16.1205   23.4009 C   0  0  0  0  0  0  0  0  0  0  0  0
   11.6505  -16.7568   24.4733 O   0  0  0  0  0  0  0  0  0  0  0  0
   11.9590  -14.8171   23.3752 O   0  0  0  0  0  0  0  0  0  0  0  0
  2  4  1  0
  2  3  1  0
  2  1  1  1
  4  5  2  0
  7  6  1  1
  7  8  1  0
  7  9  1  0
  9 11  1  0
 10  4  1  0
  9 10  1  6
 11 12  2  0
 11 13  1  0
 13 14  1  0
 14 15  1  6
 15 16  1  0
 16 17  1  0
 17 18  1  0
 19 18  1  0
 20 22  1  0
 20 14  1  0
 21 20  2  0
M  END
$$$$
