AVK.pdb
     RDKit          3D

 22 21  0  0  1  0  0  0  0  0999 V2000
    7.0137  -18.3174   17.8159 C   0  0  0  0  0  0  0  0  0  0  0  0
    7.5747  -17.0134   17.3037 C   0  0  2  0  0  0  0  0  0  0  0  0
    8.2961  -17.1489   16.0693 N   0  0  0  0  0  0  0  0  0  0  0  0
    8.4611  -16.3702   18.3164 C   0  0  0  0  0  0  0  0  0  0  0  0
    9.6918  -16.6382   18.3909 O   0  0  0  0  0  0  0  0  0  0  0  0
    7.7621  -12.7316   19.5638 C   0  0  0  0  0  0  0  0  0  0  0  0
    8.0878  -13.5785   20.7776 C   0  0  1  0  0  0  0  0  0  0  0  0
    6.7742  -13.9951   21.4159 C   0  0  0  0  0  0  0  0  0  0  0  0
    8.7779  -14.8283   20.2820 C   0  0  2  0  0  0  0  0  0  0  0  0
    7.9725  -15.4142   19.2614 N   0  0  0  0  0  0  0  0  0  0  0  0
    9.1357  -15.7497   21.3669 C   0  0  0  0  0  0  0  0  0  0  0  0
    8.2392  -16.5026   21.8218 O   0  0  0  0  0  0  0  0  0  0  0  0
   10.4397  -15.8259   21.9193 N   0  0  0  0  0  0  0  0  0  0  0  0
   10.8173  -16.8355   22.9103 C   0  0  1  0  0  0  0  0  0  0  0  0
   11.6604  -17.9153   22.2646 C   0  0  0  0  0  0  0  0  0  0  0  0
   12.0019  -19.0438   23.2028 C   0  0  0  0  0  0  0  0  0  0  0  0
   12.8765  -20.0677   22.5060 C   0  0  0  0  0  0  0  0  0  0  0  0
   13.1187  -21.2277   23.4665 C   0  0  0  0  0  0  0  0  0  0  0  0
   13.9403  -22.1968   22.8100 N   0  0  0  0  0  0  0  0  0  0  0  0
   11.4834  -16.1924   24.0643 C   0  0  0  0  0  0  0  0  0  0  0  0
   12.0908  -15.1092   23.8735 O   0  0  0  0  0  0  0  0  0  0  0  0
   11.4905  -16.6949   25.3529 O   0  0  0  0  0  0  0  0  0  0  0  0
  2  4  1  0
  2  3  1  0
  2  1  1  1
  4  5  2  0
  7  6  1  6
  7  8  1  0
  7  9  1  0
  9 11  1  0
 10  4  1  0
  9 10  1  6
 11 12  2  0
 11 13  1  0
 13 14  1  0
 14 15  1  6
 15 16  1  0
 16 17  1  0
 17 18  1  0
 19 18  1  0
 20 22  1  0
 20 14  1  0
 21 20  2  0
M  END
$$$$
