AVK.pdb
     RDKit          3D

 22 21  0  0  1  0  0  0  0  0999 V2000
    6.8023  -18.6508   17.8220 C   0  0  0  0  0  0  0  0  0  0  0  0
    7.3885  -17.3550   17.3174 C   0  0  2  0  0  0  0  0  0  0  0  0
    8.1934  -17.5142   16.1388 N   0  0  0  0  0  0  0  0  0  0  0  0
    8.1993  -16.6804   18.3721 C   0  0  0  0  0  0  0  0  0  0  0  0
    9.4340  -16.9022   18.5071 O   0  0  0  0  0  0  0  0  0  0  0  0
    8.3939  -13.1174   21.7763 C   0  0  0  0  0  0  0  0  0  0  0  0
    7.5851  -13.8306   20.7116 C   0  0  1  0  0  0  0  0  0  0  0  0
    7.4542  -12.8919   19.5250 C   0  0  0  0  0  0  0  0  0  0  0  0
    8.3880  -15.0307   20.2654 C   0  0  2  0  0  0  0  0  0  0  0  0
    7.6294  -15.7447   19.2915 N   0  0  0  0  0  0  0  0  0  0  0  0
    8.8512  -15.8553   21.3876 C   0  0  0  0  0  0  0  0  0  0  0  0
    7.9876  -16.4479   22.0808 O   0  0  0  0  0  0  0  0  0  0  0  0
   10.2211  -16.0107   21.7203 N   0  0  0  0  0  0  0  0  0  0  0  0
   10.6735  -16.8798   22.8084 C   0  0  1  0  0  0  0  0  0  0  0  0
   11.9953  -17.5260   22.4490 C   0  0  0  0  0  0  0  0  0  0  0  0
   11.9142  -18.4078   21.2300 C   0  0  0  0  0  0  0  0  0  0  0  0
   13.2590  -19.0482   20.9471 C   0  0  0  0  0  0  0  0  0  0  0  0
   13.1312  -19.9013   19.6890 C   0  0  0  0  0  0  0  0  0  0  0  0
   14.4197  -20.4317   19.3673 N   0  0  0  0  0  0  0  0  0  0  0  0
   10.7250  -16.1219   24.0780 C   0  0  0  0  0  0  0  0  0  0  0  0
   10.9342  -14.8841   24.0244 O   0  0  0  0  0  0  0  0  0  0  0  0
   10.5587  -16.6744   25.3350 O   0  0  0  0  0  0  0  0  0  0  0  0
  2  4  1  0
  2  3  1  0
  2  1  1  1
  4  5  2  0
  7  6  1  1
  7  8  1  0
  7  9  1  0
  9 11  1  0
 10  4  1  0
  9 10  1  6
 11 12  2  0
 11 13  1  0
 13 14  1  0
 14 15  1  6
 15 16  1  0
 16 17  1  0
 17 18  1  0
 19 18  1  0
 20 22  1  0
 20 14  1  0
 21 20  2  0
M  END
$$$$
