AVK.pdb
     RDKit          3D

 22 21  0  0  1  0  0  0  0  0999 V2000
    6.4488  -16.3812   21.8885 C   0  0  0  0  0  0  0  0  0  0  0  0
    6.7633  -14.9128   21.7391 C   0  0  2  0  0  0  0  0  0  0  0  0
    7.3760  -14.5861   20.4819 N   0  0  0  0  0  0  0  0  0  0  0  0
    7.6392  -14.4312   22.8462 C   0  0  0  0  0  0  0  0  0  0  0  0
    8.8764  -14.6775   22.8723 O   0  0  0  0  0  0  0  0  0  0  0  0
    5.9489  -12.8182   26.4459 C   0  0  0  0  0  0  0  0  0  0  0  0
    7.1881  -12.2046   25.8259 C   0  0  1  0  0  0  0  0  0  0  0  0
    8.0887  -11.7400   26.9570 C   0  0  0  0  0  0  0  0  0  0  0  0
    7.9103  -13.3040   25.0818 C   0  0  2  0  0  0  0  0  0  0  0  0
    7.1327  -13.6637   23.9417 N   0  0  0  0  0  0  0  0  0  0  0  0
    8.2686  -14.4357   25.9448 C   0  0  0  0  0  0  0  0  0  0  0  0
    7.3541  -15.2194   26.3010 O   0  0  0  0  0  0  0  0  0  0  0  0
    9.5926  -14.6806   26.3903 N   0  0  0  0  0  0  0  0  0  0  0  0
    9.9328  -15.7998   27.2710 C   0  0  1  0  0  0  0  0  0  0  0  0
   11.1365  -16.5445   26.7323 C   0  0  0  0  0  0  0  0  0  0  0  0
   10.9543  -17.0233   25.3153 C   0  0  0  0  0  0  0  0  0  0  0  0
   12.1890  -17.7654   24.8425 C   0  0  0  0  0  0  0  0  0  0  0  0
   12.0159  -18.0949   23.3631 C   0  0  0  0  0  0  0  0  0  0  0  0
   13.2557  -18.6027   22.8630 N   0  0  0  0  0  0  0  0  0  0  0  0
   10.1219  -15.3181   28.6571 C   0  0  0  0  0  0  0  0  0  0  0  0
   10.2243  -14.0806   28.8486 O   0  0  0  0  0  0  0  0  0  0  0  0
   10.1951  -16.1320   29.7730 O   0  0  0  0  0  0  0  0  0  0  0  0
  2  4  1  0
  2  3  1  0
  2  1  1  1
  4  5  2  0
  7  6  1  1
  7  8  1  0
  7  9  1  0
  9 11  1  0
 10  4  1  0
  9 10  1  6
 11 12  2  0
 11 13  1  0
 13 14  1  0
 14 15  1  6
 15 16  1  0
 16 17  1  0
 17 18  1  0
 19 18  1  0
 20 22  1  0
 20 14  1  0
 21 20  2  0
M  END
$$$$
