AVK.pdb
     RDKit          3D

 22 21  0  0  1  0  0  0  0  0999 V2000
    6.1528  -18.0589   23.5049 C   0  0  0  0  0  0  0  0  0  0  0  0
    6.4217  -16.7051   22.8946 C   0  0  2  0  0  0  0  0  0  0  0  0
    6.9967  -16.7763   21.5805 N   0  0  0  0  0  0  0  0  0  0  0  0
    7.3078  -15.8833   23.7689 C   0  0  0  0  0  0  0  0  0  0  0  0
    8.5653  -15.9697   23.7124 O   0  0  0  0  0  0  0  0  0  0  0  0
    7.6943  -12.3370   27.1727 C   0  0  0  0  0  0  0  0  0  0  0  0
    6.8010  -13.0828   26.2019 C   0  0  1  0  0  0  0  0  0  0  0  0
    6.4984  -12.1497   25.0426 C   0  0  0  0  0  0  0  0  0  0  0  0
    7.5978  -14.2479   25.6618 C   0  0  2  0  0  0  0  0  0  0  0  0
    6.7887  -14.9507   24.7210 N   0  0  0  0  0  0  0  0  0  0  0  0
    8.1584  -15.0946   26.7214 C   0  0  0  0  0  0  0  0  0  0  0  0
    7.3599  -15.7212   27.4611 O   0  0  0  0  0  0  0  0  0  0  0  0
    9.5521  -15.2346   26.9443 N   0  0  0  0  0  0  0  0  0  0  0  0
   10.1003  -16.1288   27.9660 C   0  0  1  0  0  0  0  0  0  0  0  0
   11.2842  -16.8945   27.4129 C   0  0  0  0  0  0  0  0  0  0  0  0
   10.9251  -17.7904   26.2559 C   0  0  0  0  0  0  0  0  0  0  0  0
   12.1423  -18.5604   25.7826 C   0  0  0  0  0  0  0  0  0  0  0  0
   11.7282  -19.4415   24.6082 C   0  0  0  0  0  0  0  0  0  0  0  0
   12.9042  -20.0267   24.0429 N   0  0  0  0  0  0  0  0  0  0  0  0
   10.4249  -15.3648   29.1906 C   0  0  0  0  0  0  0  0  0  0  0  0
   10.5221  -14.1150   29.1045 O   0  0  0  0  0  0  0  0  0  0  0  0
   10.6321  -15.9237   30.4387 O   0  0  0  0  0  0  0  0  0  0  0  0
  2  4  1  0
  2  3  1  0
  2  1  1  1
  4  5  2  0
  7  6  1  1
  7  8  1  0
  7  9  1  0
  9 11  1  0
 10  4  1  0
  9 10  1  6
 11 12  2  0
 11 13  1  0
 13 14  1  0
 14 15  1  6
 15 16  1  0
 16 17  1  0
 17 18  1  0
 19 18  1  0
 20 22  1  0
 20 14  1  0
 21 20  2  0
M  END
$$$$
