AVK.pdb
     RDKit          3D

 22 21  0  0  1  0  0  0  0  0999 V2000
    6.5021  -15.9898   21.4185 C   0  0  0  0  0  0  0  0  0  0  0  0
    6.9928  -14.5700   21.5621 C   0  0  2  0  0  0  0  0  0  0  0  0
    7.8472  -14.1507   20.4866 N   0  0  0  0  0  0  0  0  0  0  0  0
    7.7079  -14.3724   22.8560 C   0  0  0  0  0  0  0  0  0  0  0  0
    8.9340  -14.6395   22.9874 O   0  0  0  0  0  0  0  0  0  0  0  0
    7.6259  -12.4027   27.3600 C   0  0  0  0  0  0  0  0  0  0  0  0
    6.8224  -12.7869   26.1339 C   0  0  1  0  0  0  0  0  0  0  0  0
    6.5230  -11.5146   25.3607 C   0  0  0  0  0  0  0  0  0  0  0  0
    7.7075  -13.6555   25.2701 C   0  0  2  0  0  0  0  0  0  0  0  0
    7.0505  -13.8701   24.0227 N   0  0  0  0  0  0  0  0  0  0  0  0
    8.1296  -14.8882   25.9456 C   0  0  0  0  0  0  0  0  0  0  0  0
    7.2430  -15.7156   26.2727 O   0  0  0  0  0  0  0  0  0  0  0  0
    9.4847  -15.1831   26.2426 N   0  0  0  0  0  0  0  0  0  0  0  0
    9.8889  -16.3981   26.9527 C   0  0  1  0  0  0  0  0  0  0  0  0
   11.0619  -17.0504   26.2511 C   0  0  0  0  0  0  0  0  0  0  0  0
   10.7743  -17.4039   24.8150 C   0  0  0  0  0  0  0  0  0  0  0  0
   11.8920  -18.2538   24.2430 C   0  0  0  0  0  0  0  0  0  0  0  0
   11.5196  -18.6422   22.8156 C   0  0  0  0  0  0  0  0  0  0  0  0
   12.5971  -19.3966   22.2545 N   0  0  0  0  0  0  0  0  0  0  0  0
   10.1614  -16.0908   28.3740 C   0  0  0  0  0  0  0  0  0  0  0  0
   10.3403  -17.0492   29.1667 O   0  0  0  0  0  0  0  0  0  0  0  0
   10.2363  -14.8164   28.9063 O   0  0  0  0  0  0  0  0  0  0  0  0
  2  4  1  0
  2  3  1  0
  2  1  1  6
  4  5  2  0
  7  6  1  1
  7  8  1  0
  7  9  1  0
  9 11  1  0
 10  4  1  0
  9 10  1  6
 11 12  2  0
 11 13  1  0
 13 14  1  0
 14 15  1  6
 15 16  1  0
 16 17  1  0
 17 18  1  0
 19 18  1  0
 20 22  1  0
 20 14  1  0
 21 20  2  0
M  END
$$$$
