AVK.pdb
     RDKit          3D

 22 21  0  0  1  0  0  0  0  0999 V2000
    7.2582  -12.0704   26.9911 C   0  0  0  0  0  0  0  0  0  0  0  0
    6.3354  -12.4350   25.8540 C   0  0  2  0  0  0  0  0  0  0  0  0
    5.0170  -12.8057   26.2864 N   0  0  0  0  0  0  0  0  0  0  0  0
    6.9041  -13.5390   25.0278 C   0  0  0  0  0  0  0  0  0  0  0  0
    6.7322  -14.7524   25.3278 O   0  0  0  0  0  0  0  0  0  0  0  0
    8.6525  -14.8381   20.6461 C   0  0  0  0  0  0  0  0  0  0  0  0
    8.4076  -13.7017   21.6183 C   0  0  1  0  0  0  0  0  0  0  0  0
    7.1520  -12.9739   21.1710 C   0  0  0  0  0  0  0  0  0  0  0  0
    8.1281  -14.3181   22.9696 C   0  0  2  0  0  0  0  0  0  0  0  0
    7.6761  -13.2910   23.8496 N   0  0  0  0  0  0  0  0  0  0  0  0
    9.2607  -15.0953   23.4863 C   0  0  0  0  0  0  0  0  0  0  0  0
   10.3236  -14.4825   23.7553 O   0  0  0  0  0  0  0  0  0  0  0  0
    9.2073  -16.4973   23.6935 N   0  0  0  0  0  0  0  0  0  0  0  0
   10.3917  -17.2892   24.0310 C   0  0  1  0  0  0  0  0  0  0  0  0
   10.0273  -18.7545   24.1489 C   0  0  0  0  0  0  0  0  0  0  0  0
   11.2101  -19.6395   24.4458 C   0  0  0  0  0  0  0  0  0  0  0  0
   10.9489  -20.4786   25.6813 C   0  0  0  0  0  0  0  0  0  0  0  0
   12.2319  -21.2227   26.0381 C   0  0  0  0  0  0  0  0  0  0  0  0
   11.9621  -22.0879   27.1444 N   0  0  0  0  0  0  0  0  0  0  0  0
   11.4697  -17.0372   23.0496 C   0  0  0  0  0  0  0  0  0  0  0  0
   12.6276  -16.8113   23.4819 O   0  0  0  0  0  0  0  0  0  0  0  0
   11.3023  -17.0309   21.6766 O   0  0  0  0  0  0  0  0  0  0  0  0
  2  4  1  0
  2  3  1  0
  2  1  1  1
  4  5  2  0
  7  6  1  6
  7  8  1  0
  7  9  1  0
  9 11  1  0
 10  4  1  0
  9 10  1  1
 11 12  2  0
 11 13  1  0
 13 14  1  0
 14 15  1  6
 15 16  1  0
 16 17  1  0
 17 18  1  0
 19 18  1  0
 20 22  1  0
 20 14  1  0
 21 20  2  0
M  END
$$$$
