AVK.pdb
     RDKit          3D

 22 21  0  0  1  0  0  0  0  0999 V2000
    7.0442  -18.7477   17.7254 C   0  0  0  0  0  0  0  0  0  0  0  0
    7.4773  -17.3837   17.2462 C   0  0  2  0  0  0  0  0  0  0  0  0
    8.2440  -17.4229   16.0325 N   0  0  0  0  0  0  0  0  0  0  0  0
    8.2606  -16.6656   18.2929 C   0  0  0  0  0  0  0  0  0  0  0  0
    9.5141  -16.7790   18.3822 O   0  0  0  0  0  0  0  0  0  0  0  0
    8.2388  -13.3399   21.9419 C   0  0  0  0  0  0  0  0  0  0  0  0
    7.4570  -14.0501   20.8551 C   0  0  1  0  0  0  0  0  0  0  0  0
    7.1648  -13.0388   19.7605 C   0  0  0  0  0  0  0  0  0  0  0  0
    8.3597  -15.1134   20.2734 C   0  0  2  0  0  0  0  0  0  0  0  0
    7.6417  -15.8079   19.2556 N   0  0  0  0  0  0  0  0  0  0  0  0
    8.9443  -15.9870   21.2976 C   0  0  0  0  0  0  0  0  0  0  0  0
    8.1921  -16.8179   21.8644 O   0  0  0  0  0  0  0  0  0  0  0  0
   10.3113  -15.9338   21.6719 N   0  0  0  0  0  0  0  0  0  0  0  0
   10.9364  -16.9525   22.5177 C   0  0  1  0  0  0  0  0  0  0  0  0
   12.1757  -17.5050   21.8451 C   0  0  0  0  0  0  0  0  0  0  0  0
   12.8422  -18.6016   22.6348 C   0  0  0  0  0  0  0  0  0  0  0  0
   14.1172  -19.0509   21.9484 C   0  0  0  0  0  0  0  0  0  0  0  0
   14.7668  -20.1360   22.8014 C   0  0  0  0  0  0  0  0  0  0  0  0
   16.0107  -20.5032   22.1989 N   0  0  0  0  0  0  0  0  0  0  0  0
   11.2044  -16.4021   23.8646 C   0  0  0  0  0  0  0  0  0  0  0  0
   11.0593  -17.1590   24.8569 O   0  0  0  0  0  0  0  0  0  0  0  0
   11.6075  -15.1042   24.1216 O   0  0  0  0  0  0  0  0  0  0  0  0
  2  4  1  0
  2  3  1  0
  2  1  1  1
  4  5  2  0
  7  6  1  1
  7  8  1  0
  7  9  1  0
  9 11  1  0
 10  4  1  0
  9 10  1  6
 11 12  2  0
 11 13  1  0
 13 14  1  0
 14 15  1  6
 15 16  1  0
 16 17  1  0
 17 18  1  0
 19 18  1  0
 20 22  1  0
 20 14  1  0
 21 20  2  0
M  END
$$$$
