AVK.pdb
     RDKit          3D

 22 21  0  0  1  0  0  0  0  0999 V2000
    7.4803  -13.8922   20.5353 C   0  0  0  0  0  0  0  0  0  0  0  0
    7.2944  -14.9079   21.6358 C   0  0  2  0  0  0  0  0  0  0  0  0
    5.9163  -15.2012   21.9139 N   0  0  0  0  0  0  0  0  0  0  0  0
    7.9618  -14.4696   22.8957 C   0  0  0  0  0  0  0  0  0  0  0  0
    9.2080  -14.2822   22.9592 O   0  0  0  0  0  0  0  0  0  0  0  0
    7.6113  -12.4317   27.3049 C   0  0  0  0  0  0  0  0  0  0  0  0
    6.8843  -12.9482   26.0796 C   0  0  1  0  0  0  0  0  0  0  0  0
    6.5743  -11.7569   25.1902 C   0  0  0  0  0  0  0  0  0  0  0  0
    7.8438  -13.8457   25.3325 C   0  0  2  0  0  0  0  0  0  0  0  0
    7.2334  -14.2358   24.1041 N   0  0  0  0  0  0  0  0  0  0  0  0
    8.3248  -14.9682   26.1465 C   0  0  0  0  0  0  0  0  0  0  0  0
    7.4716  -15.7342   26.6590 O   0  0  0  0  0  0  0  0  0  0  0  0
    9.7007  -15.2232   26.3774 N   0  0  0  0  0  0  0  0  0  0  0  0
   10.1714  -16.4017   27.1079 C   0  0  1  0  0  0  0  0  0  0  0  0
   11.3365  -17.0395   26.3804 C   0  0  0  0  0  0  0  0  0  0  0  0
   10.9948  -17.4790   24.9802 C   0  0  0  0  0  0  0  0  0  0  0  0
   12.2344  -17.9743   24.2614 C   0  0  0  0  0  0  0  0  0  0  0  0
   11.8314  -18.4243   22.8607 C   0  0  0  0  0  0  0  0  0  0  0  0
   13.0001  -18.8871   22.1788 N   0  0  0  0  0  0  0  0  0  0  0  0
   10.4893  -16.0404   28.5069 C   0  0  0  0  0  0  0  0  0  0  0  0
   10.7247  -14.8349   28.7718 O   0  0  0  0  0  0  0  0  0  0  0  0
   10.5482  -16.9353   29.5599 O   0  0  0  0  0  0  0  0  0  0  0  0
  2  4  1  0
  2  3  1  0
  2  1  1  6
  4  5  2  0
  7  6  1  1
  7  8  1  0
  7  9  1  0
  9 11  1  0
 10  4  1  0
  9 10  1  6
 11 12  2  0
 11 13  1  0
 13 14  1  0
 14 15  1  6
 15 16  1  0
 16 17  1  0
 17 18  1  0
 19 18  1  0
 20 22  1  0
 20 14  1  0
 21 20  2  0
M  END
$$$$
