LFT.pdb
     RDKit          3D

 27 27  0  0  1  0  0  0  0  0999 V2000
    8.2651  -19.2534   18.6169 C   0  0  0  0  0  0  0  0  0  0  0  0
    8.0844  -17.7794   18.9132 C   0  0  1  0  0  0  0  0  0  0  0  0
    6.7202  -17.3245   18.5108 C   0  0  0  0  0  0  0  0  0  0  0  0
    8.4893  -17.4232   20.3045 C   0  0  0  0  0  0  0  0  0  0  0  0
    8.1320  -16.0418   20.7411 C   0  0  2  0  0  0  0  0  0  0  0  0
    8.8454  -15.0400   19.9820 N   0  0  0  0  0  0  0  0  0  0  0  0
    8.4888  -15.9126   22.1780 C   0  0  0  0  0  0  0  0  0  0  0  0
    9.6604  -15.5525   22.5379 O   0  0  0  0  0  0  0  0  0  0  0  0
    7.5629  -16.1779   23.2231 N   0  0  0  0  0  0  0  0  0  0  0  0
    7.9319  -16.1169   24.6112 C   0  0  1  0  0  0  0  0  0  0  0  0
    6.8571  -15.6075   25.5165 C   0  0  0  0  0  0  0  0  0  0  0  0
    6.9885  -14.1566   25.8020 C   0  0  0  0  0  0  0  0  0  0  0  0
    8.0090  -13.6607   26.6068 C   0  0  0  0  0  0  0  0  0  0  0  0
    8.1426  -12.3152   26.8775 C   0  0  0  0  0  0  0  0  0  0  0  0
    7.2108  -11.4564   26.3125 C   0  0  0  0  0  0  0  0  0  0  0  0
    6.1800  -11.9029   25.5070 C   0  0  0  0  0  0  0  0  0  0  0  0
    6.0800  -13.2729   25.2572 C   0  0  0  0  0  0  0  0  0  0  0  0
    8.5198  -17.3982   25.0905 C   0  0  0  0  0  0  0  0  0  0  0  0
    7.8599  -18.4747   25.0420 O   0  0  0  0  0  0  0  0  0  0  0  0
   11.1679  -19.2125   23.6497 C   0  0  0  0  0  0  0  0  0  0  0  0
   11.5813  -19.1191   25.1096 C   0  0  1  0  0  0  0  0  0  0  0  0
   12.6006  -18.1801   25.2147 O   0  0  0  0  0  0  0  0  0  0  0  0
   10.3986  -18.7684   25.9876 C   0  0  2  0  0  0  0  0  0  0  0  0
    9.8350  -17.4792   25.6203 N   0  0  0  0  0  0  0  0  0  0  0  0
   10.7739  -18.8012   27.4188 C   0  0  0  0  0  0  0  0  0  0  0  0
   10.7056  -17.7842   28.1535 O   0  0  0  0  0  0  0  0  0  0  0  0
   11.2159  -19.9825   27.9809 O   0  0  0  0  0  0  0  0  0  0  0  0
  2  4  1  0
  2  1  1  1
  2  3  1  0
  5  4  1  0
  5  6  1  6
  7  5  1  0
  8  7  2  0
  9  7  1  0
 10  9  1  0
 11 12  1  0
 10 11  1  1
 12 13  2  0
 13 14  1  0
 15 14  2  0
 16 15  1  0
 17 16  2  0
 17 12  1  0
 18 10  1  0
 18 19  2  0
 21 20  1  6
 21 22  1  0
 21 23  1  0
 23 24  1  6
 24 18  1  0
 25 23  1  0
 25 27  1  0
 26 25  2  0
M  END
$$$$
