LFT.pdb
     RDKit          3D

 27 27  0  0  1  0  0  0  0  0999 V2000
    8.5835  -21.5692   20.9484 C   0  0  0  0  0  0  0  0  0  0  0  0
    8.4630  -20.1985   20.3161 C   0  0  1  0  0  0  0  0  0  0  0  0
    7.1320  -20.0367   19.6586 C   0  0  0  0  0  0  0  0  0  0  0  0
    8.8476  -19.1023   21.2525 C   0  0  0  0  0  0  0  0  0  0  0  0
    8.5737  -17.7188   20.7650 C   0  0  2  0  0  0  0  0  0  0  0  0
    9.4604  -17.3469   19.6861 N   0  0  0  0  0  0  0  0  0  0  0  0
    8.7735  -16.7871   21.9056 C   0  0  0  0  0  0  0  0  0  0  0  0
    9.9363  -16.3537   22.2085 O   0  0  0  0  0  0  0  0  0  0  0  0
    7.6999  -16.3287   22.7162 N   0  0  0  0  0  0  0  0  0  0  0  0
    7.9026  -15.4498   23.8357 C   0  0  1  0  0  0  0  0  0  0  0  0
    6.7487  -14.5468   24.1316 C   0  0  0  0  0  0  0  0  0  0  0  0
    7.0039  -13.6514   25.2878 C   0  0  0  0  0  0  0  0  0  0  0  0
    7.8186  -12.5294   25.1761 C   0  0  0  0  0  0  0  0  0  0  0  0
    8.0615  -11.6892   26.2422 C   0  0  0  0  0  0  0  0  0  0  0  0
    7.4575  -12.0035   27.4511 C   0  0  0  0  0  0  0  0  0  0  0  0
    6.6407  -13.1073   27.6100 C   0  0  0  0  0  0  0  0  0  0  0  0
    6.4201  -13.9327   26.5057 C   0  0  0  0  0  0  0  0  0  0  0  0
    8.3767  -16.1815   25.0427 C   0  0  0  0  0  0  0  0  0  0  0  0
    7.6585  -17.0644   25.5917 O   0  0  0  0  0  0  0  0  0  0  0  0
   12.5189  -16.3529   25.8081 C   0  0  0  0  0  0  0  0  0  0  0  0
   11.5079  -17.4508   26.0969 C   0  0  1  0  0  0  0  0  0  0  0  0
   12.0684  -18.3281   27.0177 O   0  0  0  0  0  0  0  0  0  0  0  0
   10.2017  -16.8690   26.5948 C   0  0  2  0  0  0  0  0  0  0  0  0
    9.6436  -15.9310   25.6339 N   0  0  0  0  0  0  0  0  0  0  0  0
   10.3757  -16.2369   27.9217 C   0  0  0  0  0  0  0  0  0  0  0  0
   10.1952  -15.0075   28.1078 O   0  0  0  0  0  0  0  0  0  0  0  0
   10.7488  -17.0115   29.0023 O   0  0  0  0  0  0  0  0  0  0  0  0
  2  4  1  0
  2  1  1  1
  2  3  1  0
  5  4  1  0
  5  6  1  6
  7  5  1  0
  8  7  2  0
  9  7  1  0
 10  9  1  0
 11 12  1  0
 10 11  1  1
 12 13  2  0
 13 14  1  0
 15 14  2  0
 16 15  1  0
 17 16  2  0
 17 12  1  0
 18 10  1  0
 18 19  2  0
 21 20  1  1
 21 22  1  0
 21 23  1  0
 23 24  1  6
 24 18  1  0
 25 23  1  0
 25 27  1  0
 26 25  2  0
M  END
$$$$
