LFT.pdb
     RDKit          3D

 27 27  0  0  1  0  0  0  0  0999 V2000
    7.8665  -12.0749   18.9063 C   0  0  0  0  0  0  0  0  0  0  0  0
    7.8307  -13.5118   19.3829 C   0  0  1  0  0  0  0  0  0  0  0  0
    7.0961  -14.3721   18.4081 C   0  0  0  0  0  0  0  0  0  0  0  0
    9.1772  -14.0131   19.7855 C   0  0  0  0  0  0  0  0  0  0  0  0
    9.1895  -15.3464   20.4555 C   0  0  2  0  0  0  0  0  0  0  0  0
    8.0111  -16.1181   20.1320 N   0  0  0  0  0  0  0  0  0  0  0  0
    9.2362  -15.1172   21.9233 C   0  0  0  0  0  0  0  0  0  0  0  0
   10.2363  -14.5407   22.4702 O   0  0  0  0  0  0  0  0  0  0  0  0
    8.1876  -15.5193   22.7942 N   0  0  0  0  0  0  0  0  0  0  0  0
    8.2271  -15.2734   24.2100 C   0  0  1  0  0  0  0  0  0  0  0  0
    6.9138  -14.8844   24.8085 C   0  0  0  0  0  0  0  0  0  0  0  0
    7.0469  -13.8330   25.8481 C   0  0  0  0  0  0  0  0  0  0  0  0
    7.8913  -13.9913   26.9422 C   0  0  0  0  0  0  0  0  0  0  0  0
    8.0248  -13.0213   27.9131 C   0  0  0  0  0  0  0  0  0  0  0  0
    7.2775  -11.8621   27.7621 C   0  0  0  0  0  0  0  0  0  0  0  0
    6.4255  -11.6602   26.6924 C   0  0  0  0  0  0  0  0  0  0  0  0
    6.3190  -12.6670   25.7310 C   0  0  0  0  0  0  0  0  0  0  0  0
    8.8841  -16.3842   24.9526 C   0  0  0  0  0  0  0  0  0  0  0  0
    8.4104  -16.8052   26.0457 O   0  0  0  0  0  0  0  0  0  0  0  0
   10.5624  -19.5576   23.1118 C   0  0  0  0  0  0  0  0  0  0  0  0
   11.4171  -19.0507   24.2621 C   0  0  1  0  0  0  0  0  0  0  0  0
   12.5116  -18.3800   23.7292 O   0  0  0  0  0  0  0  0  0  0  0  0
   10.6104  -18.1664   25.1895 C   0  0  2  0  0  0  0  0  0  0  0  0
   10.0617  -17.0221   24.4795 N   0  0  0  0  0  0  0  0  0  0  0  0
   11.4218  -17.7379   26.3507 C   0  0  0  0  0  0  0  0  0  0  0  0
   11.7342  -16.5363   26.5438 O   0  0  0  0  0  0  0  0  0  0  0  0
   11.8578  -18.6790   27.2623 O   0  0  0  0  0  0  0  0  0  0  0  0
  2  4  1  0
  2  1  1  6
  2  3  1  0
  5  4  1  0
  5  6  1  1
  7  5  1  0
  8  7  2  0
  9  7  1  0
 10  9  1  0
 11 12  1  0
 10 11  1  1
 12 13  2  0
 13 14  1  0
 15 14  2  0
 16 15  1  0
 17 16  2  0
 17 12  1  0
 18 10  1  0
 18 19  2  0
 21 20  1  6
 21 22  1  0
 21 23  1  0
 23 24  1  6
 24 18  1  0
 25 23  1  0
 25 27  1  0
 26 25  2  0
M  END
$$$$
