LFT.pdb
     RDKit          3D

 27 27  0  0  1  0  0  0  0  0999 V2000
    8.0196  -12.1060   19.1729 C   0  0  0  0  0  0  0  0  0  0  0  0
    8.0349  -13.5830   19.5070 C   0  0  1  0  0  0  0  0  0  0  0  0
    8.7640  -14.3535   18.4560 C   0  0  0  0  0  0  0  0  0  0  0  0
    8.4736  -13.8464   20.9087 C   0  0  0  0  0  0  0  0  0  0  0  0
    8.4614  -15.2795   21.3243 C   0  0  2  0  0  0  0  0  0  0  0  0
    7.1955  -15.9110   21.0288 N   0  0  0  0  0  0  0  0  0  0  0  0
    8.7027  -15.3298   22.7899 C   0  0  0  0  0  0  0  0  0  0  0  0
    9.7953  -14.9014   23.2945 O   0  0  0  0  0  0  0  0  0  0  0  0
    7.7478  -15.8495   23.7052 N   0  0  0  0  0  0  0  0  0  0  0  0
    8.0167  -15.9680   25.1124 C   0  0  1  0  0  0  0  0  0  0  0  0
    6.8783  -15.5719   25.9966 C   0  0  0  0  0  0  0  0  0  0  0  0
    6.8207  -14.1079   26.2351 C   0  0  0  0  0  0  0  0  0  0  0  0
    7.8842  -13.4197   26.8101 C   0  0  0  0  0  0  0  0  0  0  0  0
    7.8433  -12.0599   27.0347 C   0  0  0  0  0  0  0  0  0  0  0  0
    6.6880  -11.3875   26.6630 C   0  0  0  0  0  0  0  0  0  0  0  0
    5.6062  -12.0285   26.0889 C   0  0  0  0  0  0  0  0  0  0  0  0
    5.6878  -13.4063   25.8782 C   0  0  0  0  0  0  0  0  0  0  0  0
    8.5732  -17.3033   25.4651 C   0  0  0  0  0  0  0  0  0  0  0  0
    7.8501  -18.3390   25.4297 O   0  0  0  0  0  0  0  0  0  0  0  0
   11.0128  -19.1247   23.6768 C   0  0  0  0  0  0  0  0  0  0  0  0
   11.5390  -19.1674   25.1024 C   0  0  1  0  0  0  0  0  0  0  0  0
   12.6195  -18.2982   25.1943 O   0  0  0  0  0  0  0  0  0  0  0  0
   10.4490  -18.8192   26.0941 C   0  0  2  0  0  0  0  0  0  0  0  0
    9.9272  -17.4832   25.8544 N   0  0  0  0  0  0  0  0  0  0  0  0
   10.9333  -18.9637   27.4851 C   0  0  0  0  0  0  0  0  0  0  0  0
   11.0265  -17.9853   28.2679 O   0  0  0  0  0  0  0  0  0  0  0  0
   11.2990  -20.2101   27.9537 O   0  0  0  0  0  0  0  0  0  0  0  0
  2  4  1  0
  2  1  1  6
  2  3  1  0
  5  4  1  0
  5  6  1  1
  7  5  1  0
  8  7  2  0
  9  7  1  0
 10  9  1  0
 11 12  1  0
 10 11  1  1
 12 13  2  0
 13 14  1  0
 15 14  2  0
 16 15  1  0
 17 16  2  0
 17 12  1  0
 18 10  1  0
 18 19  2  0
 21 20  1  6
 21 22  1  0
 21 23  1  0
 23 24  1  6
 24 18  1  0
 25 23  1  0
 25 27  1  0
 26 25  2  0
M  END
$$$$
