LFT.pdb
     RDKit          3D

 27 27  0  0  1  0  0  0  0  0999 V2000
    8.2808  -12.3124   18.2788 C   0  0  0  0  0  0  0  0  0  0  0  0
    8.0728  -13.7191   18.7996 C   0  0  1  0  0  0  0  0  0  0  0  0
    7.3584  -14.5547   17.7891 C   0  0  0  0  0  0  0  0  0  0  0  0
    9.3258  -14.3157   19.3477 C   0  0  0  0  0  0  0  0  0  0  0  0
    9.1440  -15.5609   20.1497 C   0  0  2  0  0  0  0  0  0  0  0  0
    7.8982  -16.2224   19.8348 N   0  0  0  0  0  0  0  0  0  0  0  0
    9.1462  -15.1806   21.5864 C   0  0  0  0  0  0  0  0  0  0  0  0
   10.1928  -14.7027   22.1415 O   0  0  0  0  0  0  0  0  0  0  0  0
    8.0022  -15.3232   22.4174 N   0  0  0  0  0  0  0  0  0  0  0  0
    8.0003  -14.9235   23.7984 C   0  0  1  0  0  0  0  0  0  0  0  0
    6.8458  -14.0594   24.1919 C   0  0  0  0  0  0  0  0  0  0  0  0
    6.9661  -13.5385   25.5768 C   0  0  0  0  0  0  0  0  0  0  0  0
    7.9155  -12.5801   25.9161 C   0  0  0  0  0  0  0  0  0  0  0  0
    8.0356  -12.0872   27.1983 C   0  0  0  0  0  0  0  0  0  0  0  0
    7.1647  -12.5859   28.1564 C   0  0  0  0  0  0  0  0  0  0  0  0
    6.2058  -13.5384   27.8664 C   0  0  0  0  0  0  0  0  0  0  0  0
    6.1169  -14.0114   26.5558 C   0  0  0  0  0  0  0  0  0  0  0  0
    8.1831  -16.0817   24.7162 C   0  0  0  0  0  0  0  0  0  0  0  0
    7.3100  -16.9916   24.7966 O   0  0  0  0  0  0  0  0  0  0  0  0
    9.9296  -18.6940   24.0829 C   0  0  0  0  0  0  0  0  0  0  0  0
   10.5130  -18.3690   25.4485 C   0  0  1  0  0  0  0  0  0  0  0  0
   11.7585  -17.7812   25.2616 O   0  0  0  0  0  0  0  0  0  0  0  0
    9.5804  -17.4752   26.2386 C   0  0  2  0  0  0  0  0  0  0  0  0
    9.3319  -16.2249   25.5389 N   0  0  0  0  0  0  0  0  0  0  0  0
   10.1078  -17.2319   27.5998 C   0  0  0  0  0  0  0  0  0  0  0  0
   10.4293  -16.0848   27.9994 O   0  0  0  0  0  0  0  0  0  0  0  0
   10.2572  -18.2914   28.4727 O   0  0  0  0  0  0  0  0  0  0  0  0
  2  4  1  0
  2  1  1  6
  2  3  1  0
  5  4  1  0
  5  6  1  6
  7  5  1  0
  8  7  2  0
  9  7  1  0
 10  9  1  0
 11 12  1  0
 10 11  1  1
 12 13  2  0
 13 14  1  0
 15 14  2  0
 16 15  1  0
 17 16  2  0
 17 12  1  0
 18 10  1  0
 18 19  2  0
 21 20  1  6
 21 22  1  0
 21 23  1  0
 23 24  1  6
 24 18  1  0
 25 23  1  0
 25 27  1  0
 26 25  2  0
M  END
$$$$
