LFT.pdb
     RDKit          3D

 27 27  0  0  1  0  0  0  0  0999 V2000
    8.0629  -11.7734   19.3521 C   0  0  0  0  0  0  0  0  0  0  0  0
    7.9153  -13.2637   19.5773 C   0  0  1  0  0  0  0  0  0  0  0  0
    8.2271  -14.0189   18.3274 C   0  0  0  0  0  0  0  0  0  0  0  0
    8.6343  -13.7301   20.7988 C   0  0  0  0  0  0  0  0  0  0  0  0
    8.4236  -15.1632   21.1571 C   0  0  2  0  0  0  0  0  0  0  0  0
    7.0440  -15.5593   20.9878 N   0  0  0  0  0  0  0  0  0  0  0  0
    8.8113  -15.3374   22.5813 C   0  0  0  0  0  0  0  0  0  0  0  0
    9.9545  -14.9571   23.0058 O   0  0  0  0  0  0  0  0  0  0  0  0
    7.9474  -15.9286   23.5425 N   0  0  0  0  0  0  0  0  0  0  0  0
    8.3535  -16.1598   24.9020 C   0  0  1  0  0  0  0  0  0  0  0  0
    7.3090  -15.8431   25.9233 C   0  0  0  0  0  0  0  0  0  0  0  0
    7.1151  -14.3833   26.1107 C   0  0  0  0  0  0  0  0  0  0  0  0
    8.1536  -13.5567   26.5271 C   0  0  0  0  0  0  0  0  0  0  0  0
    7.9863  -12.1993   26.7028 C   0  0  0  0  0  0  0  0  0  0  0  0
    6.7277  -11.6744   26.4470 C   0  0  0  0  0  0  0  0  0  0  0  0
    5.6659  -12.4562   26.0318 C   0  0  0  0  0  0  0  0  0  0  0  0
    5.8770  -13.8263   25.8658 C   0  0  0  0  0  0  0  0  0  0  0  0
    8.9384  -17.5164   25.0881 C   0  0  0  0  0  0  0  0  0  0  0  0
    8.3704  -18.5401   24.6125 O   0  0  0  0  0  0  0  0  0  0  0  0
   10.0193  -19.1063   23.2995 C   0  0  0  0  0  0  0  0  0  0  0  0
   11.2414  -19.2254   24.1957 C   0  0  1  0  0  0  0  0  0  0  0  0
   12.2025  -18.3291   23.7435 O   0  0  0  0  0  0  0  0  0  0  0  0
   10.8781  -18.9792   25.6449 C   0  0  2  0  0  0  0  0  0  0  0  0
   10.1488  -17.7307   25.7995 N   0  0  0  0  0  0  0  0  0  0  0  0
   12.0826  -19.0062   26.5044 C   0  0  0  0  0  0  0  0  0  0  0  0
   12.7542  -20.0527   26.6852 O   0  0  0  0  0  0  0  0  0  0  0  0
   12.4956  -17.8498   27.1360 O   0  0  0  0  0  0  0  0  0  0  0  0
  2  4  1  0
  2  1  1  6
  2  3  1  0
  5  4  1  0
  5  6  1  1
  7  5  1  0
  8  7  2  0
  9  7  1  0
 10  9  1  0
 11 12  1  0
 10 11  1  1
 12 13  2  0
 13 14  1  0
 15 14  2  0
 16 15  1  0
 17 16  2  0
 17 12  1  0
 18 10  1  0
 18 19  2  0
 21 20  1  6
 21 22  1  0
 21 23  1  0
 23 24  1  6
 24 18  1  0
 25 23  1  0
 25 27  1  0
 26 25  2  0
M  END
$$$$
