LFT.pdb
     RDKit          3D

 27 27  0  0  1  0  0  0  0  0999 V2000
    7.1453  -14.0124   18.6568 C   0  0  0  0  0  0  0  0  0  0  0  0
    8.3126  -13.2378   19.2318 C   0  0  1  0  0  0  0  0  0  0  0  0
    8.2071  -11.7897   18.8831 C   0  0  0  0  0  0  0  0  0  0  0  0
    8.5339  -13.5296   20.6783 C   0  0  0  0  0  0  0  0  0  0  0  0
    8.8119  -14.9582   21.0076 C   0  0  2  0  0  0  0  0  0  0  0  0
    7.6068  -15.7559   20.9862 N   0  0  0  0  0  0  0  0  0  0  0  0
    9.4045  -15.0038   22.3698 C   0  0  0  0  0  0  0  0  0  0  0  0
   10.5321  -14.4574   22.6181 O   0  0  0  0  0  0  0  0  0  0  0  0
    8.7628  -15.6479   23.4621 N   0  0  0  0  0  0  0  0  0  0  0  0
    9.3354  -15.6791   24.7805 C   0  0  1  0  0  0  0  0  0  0  0  0
    8.4224  -15.2032   25.8641 C   0  0  0  0  0  0  0  0  0  0  0  0
    9.1099  -15.0640   27.1724 C   0  0  0  0  0  0  0  0  0  0  0  0
    9.3370  -16.1605   27.9978 C   0  0  0  0  0  0  0  0  0  0  0  0
    9.9762  -16.0441   29.2141 C   0  0  0  0  0  0  0  0  0  0  0  0
   10.3928  -14.7769   29.5958 C   0  0  0  0  0  0  0  0  0  0  0  0
   10.1891  -13.6585   28.8095 C   0  0  0  0  0  0  0  0  0  0  0  0
    9.5381  -13.8191   27.5849 C   0  0  0  0  0  0  0  0  0  0  0  0
    9.9495  -16.9991   25.0926 C   0  0  0  0  0  0  0  0  0  0  0  0
    9.2306  -18.0070   25.3460 O   0  0  0  0  0  0  0  0  0  0  0  0
   12.2776  -18.7845   22.8209 C   0  0  0  0  0  0  0  0  0  0  0  0
   12.9188  -18.8390   24.1982 C   0  0  1  0  0  0  0  0  0  0  0  0
   13.9852  -17.9479   24.2179 O   0  0  0  0  0  0  0  0  0  0  0  0
   11.9064  -18.5312   25.2811 C   0  0  2  0  0  0  0  0  0  0  0  0
   11.3559  -17.1947   25.1218 N   0  0  0  0  0  0  0  0  0  0  0  0
   12.4987  -18.7100   26.6256 C   0  0  0  0  0  0  0  0  0  0  0  0
   12.8736  -19.8318   27.0495 O   0  0  0  0  0  0  0  0  0  0  0  0
   12.6514  -17.6161   27.4544 O   0  0  0  0  0  0  0  0  0  0  0  0
  2  4  1  0
  2  1  1  1
  2  3  1  0
  5  4  1  0
  5  6  1  1
  7  5  1  0
  8  7  2  0
  9  7  1  0
 10  9  1  0
 11 12  1  0
 10 11  1  1
 12 13  2  0
 13 14  1  0
 15 14  2  0
 16 15  1  0
 17 16  2  0
 17 12  1  0
 18 10  1  0
 18 19  2  0
 21 20  1  6
 21 22  1  0
 21 23  1  0
 23 24  1  6
 24 18  1  0
 25 23  1  0
 25 27  1  0
 26 25  2  0
M  END
$$$$
