LFT.pdb
     RDKit          3D

 27 27  0  0  1  0  0  0  0  0999 V2000
    8.0230  -12.1556   19.1744 C   0  0  0  0  0  0  0  0  0  0  0  0
    7.7914  -13.5875   19.6093 C   0  0  1  0  0  0  0  0  0  0  0  0
    6.9199  -14.3014   18.6292 C   0  0  0  0  0  0  0  0  0  0  0  0
    9.0603  -14.2891   19.9617 C   0  0  0  0  0  0  0  0  0  0  0  0
    8.8956  -15.5878   20.6780 C   0  0  2  0  0  0  0  0  0  0  0  0
    7.5430  -16.0866   20.5763 N   0  0  0  0  0  0  0  0  0  0  0  0
    9.2277  -15.3629   22.1091 C   0  0  0  0  0  0  0  0  0  0  0  0
   10.3811  -14.9418   22.4612 O   0  0  0  0  0  0  0  0  0  0  0  0
    8.2968  -15.5990   23.1567 N   0  0  0  0  0  0  0  0  0  0  0  0
    8.6303  -15.4001   24.5409 C   0  0  1  0  0  0  0  0  0  0  0  0
    7.5692  -14.7170   25.3421 C   0  0  0  0  0  0  0  0  0  0  0  0
    8.0526  -14.2752   26.6744 C   0  0  0  0  0  0  0  0  0  0  0  0
    8.3781  -12.9469   26.9290 C   0  0  0  0  0  0  0  0  0  0  0  0
    8.8262  -12.5242   28.1626 C   0  0  0  0  0  0  0  0  0  0  0  0
    8.9445  -13.4819   29.1596 C   0  0  0  0  0  0  0  0  0  0  0  0
    8.6332  -14.8128   28.9534 C   0  0  0  0  0  0  0  0  0  0  0  0
    8.1828  -15.1999   27.6899 C   0  0  0  0  0  0  0  0  0  0  0  0
    9.1125  -16.6526   25.1857 C   0  0  0  0  0  0  0  0  0  0  0  0
    8.3562  -17.6585   25.2987 O   0  0  0  0  0  0  0  0  0  0  0  0
   11.6881  -18.8456   24.0932 C   0  0  0  0  0  0  0  0  0  0  0  0
   12.0295  -18.6325   25.5592 C   0  0  1  0  0  0  0  0  0  0  0  0
   13.1579  -17.8242   25.6307 O   0  0  0  0  0  0  0  0  0  0  0  0
   10.8580  -18.0332   26.3081 C   0  0  2  0  0  0  0  0  0  0  0  0
   10.4296  -16.7832   25.7009 N   0  0  0  0  0  0  0  0  0  0  0  0
   11.1834  -17.8495   27.7401 C   0  0  0  0  0  0  0  0  0  0  0  0
   11.2447  -16.7135   28.2736 O   0  0  0  0  0  0  0  0  0  0  0  0
   11.4305  -18.9545   28.5303 O   0  0  0  0  0  0  0  0  0  0  0  0
  2  4  1  0
  2  1  1  6
  2  3  1  0
  5  4  1  0
  5  6  1  1
  7  5  1  0
  8  7  2  0
  9  7  1  0
 10  9  1  0
 11 12  1  0
 10 11  1  1
 12 13  2  0
 13 14  1  0
 15 14  2  0
 16 15  1  0
 17 16  2  0
 17 12  1  0
 18 10  1  0
 18 19  2  0
 21 20  1  6
 21 22  1  0
 21 23  1  0
 23 24  1  6
 24 18  1  0
 25 23  1  0
 25 27  1  0
 26 25  2  0
M  END
$$$$
