LFT.pdb
     RDKit          3D

 27 27  0  0  1  0  0  0  0  0999 V2000
    8.0746  -12.2343   19.1105 C   0  0  0  0  0  0  0  0  0  0  0  0
    8.0234  -13.7470   19.1607 C   0  0  1  0  0  0  0  0  0  0  0  0
    7.2914  -14.2890   17.9775 C   0  0  0  0  0  0  0  0  0  0  0  0
    9.3622  -14.3551   19.4142 C   0  0  0  0  0  0  0  0  0  0  0  0
    9.3530  -15.6066   20.2267 C   0  0  2  0  0  0  0  0  0  0  0  0
    8.1874  -16.4150   19.9499 N   0  0  0  0  0  0  0  0  0  0  0  0
    9.3488  -15.2174   21.6611 C   0  0  0  0  0  0  0  0  0  0  0  0
   10.3709  -14.6733   22.2007 O   0  0  0  0  0  0  0  0  0  0  0  0
    8.2252  -15.4236   22.5065 N   0  0  0  0  0  0  0  0  0  0  0  0
    8.2150  -15.0155   23.8849 C   0  0  1  0  0  0  0  0  0  0  0  0
    7.0720  -14.1283   24.2603 C   0  0  0  0  0  0  0  0  0  0  0  0
    7.1339  -13.6818   25.6746 C   0  0  0  0  0  0  0  0  0  0  0  0
    8.1850  -12.9038   26.1490 C   0  0  0  0  0  0  0  0  0  0  0  0
    8.2525  -12.4814   27.4599 C   0  0  0  0  0  0  0  0  0  0  0  0
    7.2212  -12.8633   28.3059 C   0  0  0  0  0  0  0  0  0  0  0  0
    6.1569  -13.6355   27.8800 C   0  0  0  0  0  0  0  0  0  0  0  0
    6.1260  -14.0425   26.5448 C   0  0  0  0  0  0  0  0  0  0  0  0
    8.3665  -16.1711   24.8116 C   0  0  0  0  0  0  0  0  0  0  0  0
    7.4347  -17.0114   24.9607 O   0  0  0  0  0  0  0  0  0  0  0  0
   10.2528  -18.9683   24.3606 C   0  0  0  0  0  0  0  0  0  0  0  0
   10.6912  -18.5479   25.7541 C   0  0  1  0  0  0  0  0  0  0  0  0
   11.9585  -17.9849   25.6609 O   0  0  0  0  0  0  0  0  0  0  0  0
    9.6932  -17.5914   26.3720 C   0  0  2  0  0  0  0  0  0  0  0  0
    9.5493  -16.3890   25.5670 N   0  0  0  0  0  0  0  0  0  0  0  0
   10.0686  -17.2619   27.7651 C   0  0  0  0  0  0  0  0  0  0  0  0
   10.3800  -16.0970   28.1182 O   0  0  0  0  0  0  0  0  0  0  0  0
   10.0817  -18.2579   28.7215 O   0  0  0  0  0  0  0  0  0  0  0  0
  2  4  1  0
  2  1  1  6
  2  3  1  0
  5  4  1  0
  5  6  1  6
  7  5  1  0
  8  7  2  0
  9  7  1  0
 10  9  1  0
 11 12  1  0
 10 11  1  1
 12 13  2  0
 13 14  1  0
 15 14  2  0
 16 15  1  0
 17 16  2  0
 17 12  1  0
 18 10  1  0
 18 19  2  0
 21 20  1  6
 21 22  1  0
 21 23  1  0
 23 24  1  6
 24 18  1  0
 25 23  1  0
 25 27  1  0
 26 25  2  0
M  END
$$$$
