LFT.pdb
     RDKit          3D

 27 27  0  0  1  0  0  0  0  0999 V2000
    8.0621  -12.0289   19.6098 C   0  0  0  0  0  0  0  0  0  0  0  0
    7.7927  -13.4204   20.1432 C   0  0  1  0  0  0  0  0  0  0  0  0
    6.5456  -13.9821   19.5440 C   0  0  0  0  0  0  0  0  0  0  0  0
    8.9919  -14.3046   20.0622 C   0  0  0  0  0  0  0  0  0  0  0  0
    8.8787  -15.6042   20.7867 C   0  0  2  0  0  0  0  0  0  0  0  0
    7.5195  -16.0954   20.7943 N   0  0  0  0  0  0  0  0  0  0  0  0
    9.3273  -15.3849   22.1865 C   0  0  0  0  0  0  0  0  0  0  0  0
   10.5279  -15.0357   22.4483 O   0  0  0  0  0  0  0  0  0  0  0  0
    8.4617  -15.5480   23.3018 N   0  0  0  0  0  0  0  0  0  0  0  0
    8.9347  -15.4852   24.6579 C   0  0  1  0  0  0  0  0  0  0  0  0
    8.0170  -14.7779   25.6023 C   0  0  0  0  0  0  0  0  0  0  0  0
    8.6376  -14.5324   26.9283 C   0  0  0  0  0  0  0  0  0  0  0  0
    8.7398  -15.5383   27.8837 C   0  0  0  0  0  0  0  0  0  0  0  0
    9.3159  -15.3231   29.1179 C   0  0  0  0  0  0  0  0  0  0  0  0
    9.7988  -14.0494   29.3818 C   0  0  0  0  0  0  0  0  0  0  0  0
    9.7194  -13.0187   28.4641 C   0  0  0  0  0  0  0  0  0  0  0  0
    9.1288  -13.2781   27.2259 C   0  0  0  0  0  0  0  0  0  0  0  0
    9.3555  -16.8200   25.1659 C   0  0  0  0  0  0  0  0  0  0  0  0
    8.5320  -17.7752   25.2440 O   0  0  0  0  0  0  0  0  0  0  0  0
   11.0798  -19.2372   23.6285 C   0  0  0  0  0  0  0  0  0  0  0  0
   11.8751  -19.1245   24.9191 C   0  0  1  0  0  0  0  0  0  0  0  0
   13.0589  -18.4503   24.6439 O   0  0  0  0  0  0  0  0  0  0  0  0
   11.0677  -18.4302   25.9956 C   0  0  2  0  0  0  0  0  0  0  0  0
   10.6861  -17.0887   25.5839 N   0  0  0  0  0  0  0  0  0  0  0  0
   11.8052  -18.4075   27.2785 C   0  0  0  0  0  0  0  0  0  0  0  0
   12.1270  -19.4594   27.8858 O   0  0  0  0  0  0  0  0  0  0  0  0
   12.1593  -17.1968   27.8401 O   0  0  0  0  0  0  0  0  0  0  0  0
  2  4  1  0
  2  1  1  6
  2  3  1  0
  5  4  1  0
  5  6  1  1
  7  5  1  0
  8  7  2  0
  9  7  1  0
 10  9  1  0
 11 12  1  0
 10 11  1  1
 12 13  2  0
 13 14  1  0
 15 14  2  0
 16 15  1  0
 17 16  2  0
 17 12  1  0
 18 10  1  0
 18 19  2  0
 21 20  1  6
 21 22  1  0
 21 23  1  0
 23 24  1  6
 24 18  1  0
 25 23  1  0
 25 27  1  0
 26 25  2  0
M  END
$$$$
