LFT.pdb
     RDKit          3D

 27 27  0  0  1  0  0  0  0  0999 V2000
    8.1183  -12.6203   17.6497 C   0  0  0  0  0  0  0  0  0  0  0  0
    8.2135  -14.0231   18.2121 C   0  0  1  0  0  0  0  0  0  0  0  0
    8.4150  -15.0175   17.1165 C   0  0  0  0  0  0  0  0  0  0  0  0
    9.1801  -14.1194   19.3447 C   0  0  0  0  0  0  0  0  0  0  0  0
    9.1741  -15.4165   20.0825 C   0  0  2  0  0  0  0  0  0  0  0  0
    7.9643  -16.1671   19.8340 N   0  0  0  0  0  0  0  0  0  0  0  0
    9.2725  -15.1141   21.5343 C   0  0  0  0  0  0  0  0  0  0  0  0
   10.3545  -14.6649   22.0435 O   0  0  0  0  0  0  0  0  0  0  0  0
    8.1860  -15.3034   22.4306 N   0  0  0  0  0  0  0  0  0  0  0  0
    8.2420  -14.8871   23.8055 C   0  0  1  0  0  0  0  0  0  0  0  0
    7.0456  -14.1210   24.2704 C   0  0  0  0  0  0  0  0  0  0  0  0
    7.2395  -13.5140   25.6111 C   0  0  0  0  0  0  0  0  0  0  0  0
    8.2485  -12.5876   25.8538 C   0  0  0  0  0  0  0  0  0  0  0  0
    8.4373  -12.0155   27.0941 C   0  0  0  0  0  0  0  0  0  0  0  0
    7.5744  -12.3995   28.1105 C   0  0  0  0  0  0  0  0  0  0  0  0
    6.5580  -13.3161   27.9169 C   0  0  0  0  0  0  0  0  0  0  0  0
    6.4004  -13.8721   26.6459 C   0  0  0  0  0  0  0  0  0  0  0  0
    8.5863  -16.0128   24.7172 C   0  0  0  0  0  0  0  0  0  0  0  0
    7.9336  -17.0944   24.6901 O   0  0  0  0  0  0  0  0  0  0  0  0
   10.7359  -18.3124   24.3832 C   0  0  0  0  0  0  0  0  0  0  0  0
   11.1306  -17.8818   25.7867 C   0  0  1  0  0  0  0  0  0  0  0  0
   12.3053  -17.1439   25.7020 O   0  0  0  0  0  0  0  0  0  0  0  0
   10.0173  -17.0959   26.4468 C   0  0  2  0  0  0  0  0  0  0  0  0
    9.6518  -15.9337   25.6530 N   0  0  0  0  0  0  0  0  0  0  0  0
   10.3892  -16.7078   27.8257 C   0  0  0  0  0  0  0  0  0  0  0  0
   10.4997  -15.5066   28.1776 O   0  0  0  0  0  0  0  0  0  0  0  0
   10.6260  -17.6875   28.7695 O   0  0  0  0  0  0  0  0  0  0  0  0
  2  4  1  0
  2  1  1  6
  2  3  1  0
  5  4  1  0
  5  6  1  1
  7  5  1  0
  8  7  2  0
  9  7  1  0
 10  9  1  0
 11 12  1  0
 10 11  1  1
 12 13  2  0
 13 14  1  0
 15 14  2  0
 16 15  1  0
 17 16  2  0
 17 12  1  0
 18 10  1  0
 18 19  2  0
 21 20  1  6
 21 22  1  0
 21 23  1  0
 23 24  1  6
 24 18  1  0
 25 23  1  0
 25 27  1  0
 26 25  2  0
M  END
$$$$
