LFT.pdb
     RDKit          3D

 27 27  0  0  1  0  0  0  0  0999 V2000
    8.3235  -12.1554   19.5312 C   0  0  0  0  0  0  0  0  0  0  0  0
    8.0893  -13.4719   20.2421 C   0  0  1  0  0  0  0  0  0  0  0  0
    6.6714  -13.9122   20.0822 C   0  0  0  0  0  0  0  0  0  0  0  0
    9.1169  -14.4973   19.8973 C   0  0  0  0  0  0  0  0  0  0  0  0
    9.0793  -15.7423   20.7189 C   0  0  2  0  0  0  0  0  0  0  0  0
    7.7729  -16.3599   20.6941 N   0  0  0  0  0  0  0  0  0  0  0  0
    9.4197  -15.3741   22.1180 C   0  0  0  0  0  0  0  0  0  0  0  0
   10.5640  -14.8892   22.4136 O   0  0  0  0  0  0  0  0  0  0  0  0
    8.5074  -15.5365   23.1955 N   0  0  0  0  0  0  0  0  0  0  0  0
    8.8730  -15.2683   24.5597 C   0  0  1  0  0  0  0  0  0  0  0  0
    8.0254  -14.2409   25.2381 C   0  0  0  0  0  0  0  0  0  0  0  0
    8.4446  -13.9868   26.6394 C   0  0  0  0  0  0  0  0  0  0  0  0
    9.7847  -13.8523   26.9872 C   0  0  0  0  0  0  0  0  0  0  0  0
   10.1863  -13.6143   28.2847 C   0  0  0  0  0  0  0  0  0  0  0  0
    9.1945  -13.5114   29.2495 C   0  0  0  0  0  0  0  0  0  0  0  0
    7.8507  -13.6381   28.9515 C   0  0  0  0  0  0  0  0  0  0  0  0
    7.4859  -13.8787   27.6254 C   0  0  0  0  0  0  0  0  0  0  0  0
    9.0031  -16.5173   25.3599 C   0  0  0  0  0  0  0  0  0  0  0  0
    7.9909  -17.2226   25.6333 O   0  0  0  0  0  0  0  0  0  0  0  0
   10.1474  -19.5105   24.3732 C   0  0  0  0  0  0  0  0  0  0  0  0
   10.9717  -19.3090   25.6346 C   0  0  1  0  0  0  0  0  0  0  0  0
   12.2651  -18.9652   25.2597 O   0  0  0  0  0  0  0  0  0  0  0  0
   10.3464  -18.2604   26.5301 C   0  0  2  0  0  0  0  0  0  0  0  0
   10.2534  -16.9774   25.8520 N   0  0  0  0  0  0  0  0  0  0  0  0
   11.0903  -18.1406   27.8039 C   0  0  0  0  0  0  0  0  0  0  0  0
   11.7352  -17.1063   28.1093 O   0  0  0  0  0  0  0  0  0  0  0  0
   11.0850  -19.1927   28.6982 O   0  0  0  0  0  0  0  0  0  0  0  0
  2  4  1  0
  2  1  1  6
  2  3  1  0
  5  4  1  0
  5  6  1  1
  7  5  1  0
  8  7  2  0
  9  7  1  0
 10  9  1  0
 11 12  1  0
 10 11  1  1
 12 13  2  0
 13 14  1  0
 15 14  2  0
 16 15  1  0
 17 16  2  0
 17 12  1  0
 18 10  1  0
 18 19  2  0
 21 20  1  6
 21 22  1  0
 21 23  1  0
 23 24  1  6
 24 18  1  0
 25 23  1  0
 25 27  1  0
 26 25  2  0
M  END
$$$$
