LFT.pdb
     RDKit          3D

 27 27  0  0  1  0  0  0  0  0999 V2000
    8.3719  -12.0375   19.3696 C   0  0  0  0  0  0  0  0  0  0  0  0
    8.0904  -13.3283   20.1097 C   0  0  1  0  0  0  0  0  0  0  0  0
    6.6755  -13.7576   19.9008 C   0  0  0  0  0  0  0  0  0  0  0  0
    9.1193  -14.3754   19.8425 C   0  0  0  0  0  0  0  0  0  0  0  0
    8.9724  -15.6330   20.6320 C   0  0  2  0  0  0  0  0  0  0  0  0
    7.6756  -16.2396   20.4347 N   0  0  0  0  0  0  0  0  0  0  0  0
    9.1384  -15.2898   22.0686 C   0  0  0  0  0  0  0  0  0  0  0  0
   10.2310  -14.7943   22.5073 O   0  0  0  0  0  0  0  0  0  0  0  0
    8.1079  -15.4891   23.0268 N   0  0  0  0  0  0  0  0  0  0  0  0
    8.2772  -15.1638   24.4168 C   0  0  1  0  0  0  0  0  0  0  0  0
    7.0919  -14.5078   25.0487 C   0  0  0  0  0  0  0  0  0  0  0  0
    7.3928  -13.9534   26.3925 C   0  0  0  0  0  0  0  0  0  0  0  0
    7.4810  -14.7694   27.5156 C   0  0  0  0  0  0  0  0  0  0  0  0
    7.7617  -14.2665   28.7685 C   0  0  0  0  0  0  0  0  0  0  0  0
    7.9567  -12.8970   28.8759 C   0  0  0  0  0  0  0  0  0  0  0  0
    7.8788  -12.0469   27.7887 C   0  0  0  0  0  0  0  0  0  0  0  0
    7.5925  -12.5961   26.5374 C   0  0  0  0  0  0  0  0  0  0  0  0
    8.7733  -16.3246   25.2065 C   0  0  0  0  0  0  0  0  0  0  0  0
    8.0631  -17.3585   25.3589 O   0  0  0  0  0  0  0  0  0  0  0  0
   11.5350  -18.3799   24.3926 C   0  0  0  0  0  0  0  0  0  0  0  0
   11.7758  -18.0740   25.8621 C   0  0  1  0  0  0  0  0  0  0  0  0
   12.8421  -17.1873   25.9536 O   0  0  0  0  0  0  0  0  0  0  0  0
   10.5255  -17.5218   26.5137 C   0  0  2  0  0  0  0  0  0  0  0  0
   10.0532  -16.3330   25.8221 N   0  0  0  0  0  0  0  0  0  0  0  0
   10.7533  -17.2507   27.9507 C   0  0  0  0  0  0  0  0  0  0  0  0
   10.7293  -16.0879   28.4260 O   0  0  0  0  0  0  0  0  0  0  0  0
   11.0018  -18.3013   28.8117 O   0  0  0  0  0  0  0  0  0  0  0  0
  2  4  1  0
  2  1  1  6
  2  3  1  0
  5  4  1  0
  5  6  1  1
  7  5  1  0
  8  7  2  0
  9  7  1  0
 10  9  1  0
 11 12  1  0
 10 11  1  1
 12 13  2  0
 13 14  1  0
 15 14  2  0
 16 15  1  0
 17 16  2  0
 17 12  1  0
 18 10  1  0
 18 19  2  0
 21 20  1  6
 21 22  1  0
 21 23  1  0
 23 24  1  6
 24 18  1  0
 25 23  1  0
 25 27  1  0
 26 25  2  0
M  END
$$$$
