LFT.pdb
     RDKit          3D

 27 27  0  0  1  0  0  0  0  0999 V2000
    7.6075  -11.8854   19.5534 C   0  0  0  0  0  0  0  0  0  0  0  0
    7.5952  -13.3804   19.7942 C   0  0  1  0  0  0  0  0  0  0  0  0
    7.6464  -14.1230   18.4997 C   0  0  0  0  0  0  0  0  0  0  0  0
    8.6026  -13.8030   20.8106 C   0  0  0  0  0  0  0  0  0  0  0  0
    8.5239  -15.2317   21.2339 C   0  0  2  0  0  0  0  0  0  0  0  0
    7.2096  -15.7863   21.0019 N   0  0  0  0  0  0  0  0  0  0  0  0
    8.8312  -15.2930   22.6867 C   0  0  0  0  0  0  0  0  0  0  0  0
    9.9281  -14.8304   23.1498 O   0  0  0  0  0  0  0  0  0  0  0  0
    7.9374  -15.8612   23.6344 N   0  0  0  0  0  0  0  0  0  0  0  0
    8.2783  -16.0030   25.0238 C   0  0  1  0  0  0  0  0  0  0  0  0
    7.1631  -15.6946   25.9702 C   0  0  0  0  0  0  0  0  0  0  0  0
    6.9767  -14.2369   26.1803 C   0  0  0  0  0  0  0  0  0  0  0  0
    5.8047  -13.5892   25.8035 C   0  0  0  0  0  0  0  0  0  0  0  0
    5.6191  -12.2364   25.9952 C   0  0  0  0  0  0  0  0  0  0  0  0
    6.6561  -11.5288   26.5860 C   0  0  0  0  0  0  0  0  0  0  0  0
    7.8385  -12.1289   26.9766 C   0  0  0  0  0  0  0  0  0  0  0  0
    7.9866  -13.5010   26.7649 C   0  0  0  0  0  0  0  0  0  0  0  0
    8.9218  -17.3147   25.3109 C   0  0  0  0  0  0  0  0  0  0  0  0
    8.2876  -18.3971   25.1595 O   0  0  0  0  0  0  0  0  0  0  0  0
   11.6748  -18.9402   23.6739 C   0  0  0  0  0  0  0  0  0  0  0  0
   12.0570  -18.9693   25.1450 C   0  0  1  0  0  0  0  0  0  0  0  0
   13.0515  -18.0216   25.3557 O   0  0  0  0  0  0  0  0  0  0  0  0
   10.8492  -18.7247   26.0247 C   0  0  2  0  0  0  0  0  0  0  0  0
   10.2640  -17.4194   25.7635 N   0  0  0  0  0  0  0  0  0  0  0  0
   11.1962  -18.8799   27.4550 C   0  0  0  0  0  0  0  0  0  0  0  0
   11.1579  -17.9181   28.2627 O   0  0  0  0  0  0  0  0  0  0  0  0
   11.5769  -20.1178   27.9339 O   0  0  0  0  0  0  0  0  0  0  0  0
  2  4  1  0
  2  1  1  6
  2  3  1  0
  5  4  1  0
  5  6  1  1
  7  5  1  0
  8  7  2  0
  9  7  1  0
 10  9  1  0
 11 12  1  0
 10 11  1  1
 12 13  2  0
 13 14  1  0
 15 14  2  0
 16 15  1  0
 17 16  2  0
 17 12  1  0
 18 10  1  0
 18 19  2  0
 21 20  1  6
 21 22  1  0
 21 23  1  0
 23 24  1  1
 24 18  1  0
 25 23  1  0
 25 27  1  0
 26 25  2  0
M  END
$$$$
