LFT.pdb
     RDKit          3D

 27 27  0  0  1  0  0  0  0  0999 V2000
    7.7266  -12.9975   20.6255 C   0  0  0  0  0  0  0  0  0  0  0  0
    7.9098  -13.8494   19.3869 C   0  0  1  0  0  0  0  0  0  0  0  0
    7.9103  -13.0001   18.1586 C   0  0  0  0  0  0  0  0  0  0  0  0
    9.0590  -14.7933   19.5084 C   0  0  0  0  0  0  0  0  0  0  0  0
    8.8427  -15.9500   20.4260 C   0  0  2  0  0  0  0  0  0  0  0  0
    7.5340  -16.5366   20.2473 N   0  0  0  0  0  0  0  0  0  0  0  0
    8.9697  -15.4534   21.8211 C   0  0  0  0  0  0  0  0  0  0  0  0
   10.0359  -14.8752   22.2218 O   0  0  0  0  0  0  0  0  0  0  0  0
    7.9290  -15.5896   22.7793 N   0  0  0  0  0  0  0  0  0  0  0  0
    8.0935  -15.2008   24.1536 C   0  0  1  0  0  0  0  0  0  0  0  0
    6.9822  -14.3624   24.6979 C   0  0  0  0  0  0  0  0  0  0  0  0
    7.2599  -13.8622   26.0677 C   0  0  0  0  0  0  0  0  0  0  0  0
    6.6229  -14.3968   27.1829 C   0  0  0  0  0  0  0  0  0  0  0  0
    6.8740  -13.9420   28.4603 C   0  0  0  0  0  0  0  0  0  0  0  0
    7.7978  -12.9164   28.6009 C   0  0  0  0  0  0  0  0  0  0  0  0
    8.4551  -12.3541   27.5228 C   0  0  0  0  0  0  0  0  0  0  0  0
    8.1726  -12.8433   26.2459 C   0  0  0  0  0  0  0  0  0  0  0  0
    8.4115  -16.3623   25.0293 C   0  0  0  0  0  0  0  0  0  0  0  0
    7.5495  -17.2565   25.2619 O   0  0  0  0  0  0  0  0  0  0  0  0
   10.4068  -19.1376   24.5057 C   0  0  0  0  0  0  0  0  0  0  0  0
   10.9369  -18.6215   25.8337 C   0  0  1  0  0  0  0  0  0  0  0  0
   12.1612  -18.0052   25.6044 O   0  0  0  0  0  0  0  0  0  0  0  0
    9.9453  -17.6811   26.4856 C   0  0  2  0  0  0  0  0  0  0  0  0
    9.6825  -16.5264   25.6416 N   0  0  0  0  0  0  0  0  0  0  0  0
   10.4113  -17.2684   27.8283 C   0  0  0  0  0  0  0  0  0  0  0  0
   10.7366  -16.0835   28.0905 O   0  0  0  0  0  0  0  0  0  0  0  0
   10.4969  -18.2062   28.8383 O   0  0  0  0  0  0  0  0  0  0  0  0
  2  4  1  0
  2  1  1  1
  2  3  1  0
  5  4  1  0
  5  6  1  1
  7  5  1  0
  8  7  2  0
  9  7  1  0
 10  9  1  0
 11 12  1  0
 10 11  1  1
 12 13  2  0
 13 14  1  0
 15 14  2  0
 16 15  1  0
 17 16  2  0
 17 12  1  0
 18 10  1  0
 18 19  2  0
 21 20  1  6
 21 22  1  0
 21 23  1  0
 23 24  1  6
 24 18  1  0
 25 23  1  0
 25 27  1  0
 26 25  2  0
M  END
$$$$
