MEC.pdb
     RDKit          3D

 24 23  0  0  1  0  0  0  0  0999 V2000
    7.4378  -11.7049   24.4285 C   0  0  0  0  0  0  0  0  0  0  0  0
    6.5359  -12.5045   25.7548 S   0  0  0  0  0  0  0  0  0  0  0  0
    6.9869  -14.1899   26.0928 C   0  0  0  0  0  0  0  0  0  0  0  0
    6.0221  -15.2270   25.6183 C   0  0  0  0  0  0  0  0  0  0  0  0
    6.5196  -15.9222   24.4075 C   0  0  2  0  0  0  0  0  0  0  0  0
    5.5755  -16.9338   24.0191 N   0  0  0  0  0  0  0  0  0  0  0  0
    7.8488  -16.6018   24.6762 C   0  0  0  0  0  0  0  0  0  0  0  0
    7.9522  -17.4633   25.5929 O   0  0  0  0  0  0  0  0  0  0  0  0
    8.9602  -16.2632   23.8968 N   0  0  0  0  0  0  0  0  0  0  0  0
   10.2541  -16.9435   24.0509 C   0  0  1  0  0  0  0  0  0  0  0  0
   11.0210  -16.7083   22.7829 C   0  0  0  0  0  0  0  0  0  0  0  0
   12.4083  -17.2238   22.7464 C   0  0  0  0  0  0  0  0  0  0  0  0
   13.0787  -16.9642   21.4578 C   0  0  0  0  0  0  0  0  0  0  0  0
   14.2888  -17.3331   21.2672 O   0  0  0  0  0  0  0  0  0  0  0  0
   10.9540  -16.3532   25.2261 C   0  0  0  0  0  0  0  0  0  0  0  0
   11.1871  -15.1200   25.2634 O   0  0  0  0  0  0  0  0  0  0  0  0
   12.4287  -16.3222   20.4326 O   0  0  0  0  0  0  0  0  0  0  0  0
   11.3765  -17.1438   26.3276 N   0  0  0  0  0  0  0  0  0  0  0  0
   11.7327  -16.5932   27.6333 C   0  0  1  0  0  0  0  0  0  0  0  0
   10.5471  -15.7728   28.1136 C   0  0  0  0  0  0  0  0  0  0  0  0
   10.9026  -15.0442   29.7335 S   0  0  0  0  0  0  0  0  0  0  0  0
   12.0415  -17.6594   28.6030 C   0  0  0  0  0  0  0  0  0  0  0  0
   11.5803  -18.8137   28.4702 O   0  0  0  0  0  0  0  0  0  0  0  0
   12.8563  -17.3955   29.6881 O   0  0  0  0  0  0  0  0  0  0  0  0
  1  2  1  0
  2  3  1  0
  4  5  1  0
  4  3  1  0
  5  7  1  0
  5  6  1  1
  7  8  2  0
  9  7  1  0
  9 10  1  0
 10 15  1  0
 10 11  1  6
 12 13  1  0
 12 11  1  0
 13 14  2  0
 15 16  2  0
 17 13  1  0
 18 15  1  0
 18 19  1  0
 19 22  1  0
 20 21  1  0
 19 20  1  1
 22 24  1  0
 23 22  2  0
M  END
$$$$
