MEC.pdb
     RDKit          3D

 24 23  0  0  1  0  0  0  0  0999 V2000
    6.8081  -12.0885   25.9721 C   0  0  0  0  0  0  0  0  0  0  0  0
    7.0662  -13.7736   26.5250 S   0  0  0  0  0  0  0  0  0  0  0  0
    6.2721  -15.0365   25.5591 C   0  0  0  0  0  0  0  0  0  0  0  0
    6.7705  -15.1919   24.1595 C   0  0  0  0  0  0  0  0  0  0  0  0
    6.9834  -16.6167   23.8109 C   0  0  2  0  0  0  0  0  0  0  0  0
    5.9589  -17.4145   24.4271 N   0  0  0  0  0  0  0  0  0  0  0  0
    8.3261  -17.1075   24.3177 C   0  0  0  0  0  0  0  0  0  0  0  0
    8.3893  -17.8835   25.3112 O   0  0  0  0  0  0  0  0  0  0  0  0
    9.4951  -16.6904   23.6721 N   0  0  0  0  0  0  0  0  0  0  0  0
   10.8161  -17.2234   24.0348 C   0  0  1  0  0  0  0  0  0  0  0  0
   11.8022  -16.6296   23.0723 C   0  0  0  0  0  0  0  0  0  0  0  0
   13.2178  -17.0241   23.2518 C   0  0  0  0  0  0  0  0  0  0  0  0
   13.9488  -17.1196   21.9736 C   0  0  0  0  0  0  0  0  0  0  0  0
   14.5799  -16.1092   21.5071 O   0  0  0  0  0  0  0  0  0  0  0  0
   11.1137  -16.8171   25.4368 C   0  0  0  0  0  0  0  0  0  0  0  0
   11.2179  -15.6005   25.7289 O   0  0  0  0  0  0  0  0  0  0  0  0
   13.9720  -18.2872   21.2511 O   0  0  0  0  0  0  0  0  0  0  0  0
   11.2877  -17.7683   26.4769 N   0  0  0  0  0  0  0  0  0  0  0  0
   11.6769  -17.4182   27.8411 C   0  0  1  0  0  0  0  0  0  0  0  0
   10.5058  -16.6788   28.4666 C   0  0  0  0  0  0  0  0  0  0  0  0
    9.0441  -17.7476   28.5186 S   0  0  0  0  0  0  0  0  0  0  0  0
   12.0053  -18.6168   28.6335 C   0  0  0  0  0  0  0  0  0  0  0  0
   11.8762  -19.7662   28.1592 O   0  0  0  0  0  0  0  0  0  0  0  0
   12.4669  -18.4863   29.9299 O   0  0  0  0  0  0  0  0  0  0  0  0
  1  2  1  0
  2  3  1  0
  4  5  1  0
  4  3  1  0
  5  7  1  0
  5  6  1  1
  7  8  2  0
  9  7  1  0
  9 10  1  0
 10 15  1  0
 10 11  1  6
 12 13  1  0
 12 11  1  0
 13 14  2  0
 15 16  2  0
 17 13  1  0
 18 15  1  0
 18 19  1  0
 19 22  1  0
 20 21  1  0
 19 20  1  1
 22 24  1  0
 23 22  2  0
M  END
$$$$
