MEC.pdb
     RDKit          3D

 24 23  0  0  1  0  0  0  0  0999 V2000
    7.7129  -11.3023   20.8966 C   0  0  0  0  0  0  0  0  0  0  0  0
    7.5348  -12.2903   19.4120 S   0  0  0  0  0  0  0  0  0  0  0  0
    8.0379  -13.9894   19.5467 C   0  0  0  0  0  0  0  0  0  0  0  0
    8.1351  -14.5287   20.9364 C   0  0  0  0  0  0  0  0  0  0  0  0
    8.4833  -15.9693   20.9397 C   0  0  2  0  0  0  0  0  0  0  0  0
    7.4260  -16.7149   20.3135 N   0  0  0  0  0  0  0  0  0  0  0  0
    8.6457  -16.4880   22.3558 C   0  0  0  0  0  0  0  0  0  0  0  0
    7.6419  -16.8853   23.0099 O   0  0  0  0  0  0  0  0  0  0  0  0
    9.9209  -16.5213   22.9302 N   0  0  0  0  0  0  0  0  0  0  0  0
   10.1400  -16.9747   24.3111 C   0  0  1  0  0  0  0  0  0  0  0  0
   11.2499  -17.9834   24.2651 C   0  0  0  0  0  0  0  0  0  0  0  0
   10.9444  -19.2695   23.5984 C   0  0  0  0  0  0  0  0  0  0  0  0
   12.1139  -20.1665   23.5283 C   0  0  0  0  0  0  0  0  0  0  0  0
   13.2687  -19.7085   23.2227 O   0  0  0  0  0  0  0  0  0  0  0  0
   10.5150  -15.7922   25.1360 C   0  0  0  0  0  0  0  0  0  0  0  0
   11.6232  -15.2295   24.9588 O   0  0  0  0  0  0  0  0  0  0  0  0
   11.9980  -21.5104   23.7857 O   0  0  0  0  0  0  0  0  0  0  0  0
    9.6531  -15.2651   26.1341 N   0  0  0  0  0  0  0  0  0  0  0  0
   10.0454  -14.2192   27.0761 C   0  0  1  0  0  0  0  0  0  0  0  0
    8.9275  -13.1899   27.0957 C   0  0  0  0  0  0  0  0  0  0  0  0
    7.3464  -13.9874   27.4770 S   0  0  0  0  0  0  0  0  0  0  0  0
   10.2611  -14.7638   28.4286 C   0  0  0  0  0  0  0  0  0  0  0  0
   10.0378  -15.9658   28.6896 O   0  0  0  0  0  0  0  0  0  0  0  0
   10.7192  -13.9430   29.4421 O   0  0  0  0  0  0  0  0  0  0  0  0
  1  2  1  0
  2  3  1  0
  4  5  1  0
  4  3  1  0
  5  7  1  0
  5  6  1  1
  7  8  2  0
  9  7  1  0
  9 10  1  0
 10 15  1  0
 10 11  1  6
 12 13  1  0
 12 11  1  0
 13 14  2  0
 15 16  2  0
 17 13  1  0
 18 15  1  0
 18 19  1  0
 19 22  1  0
 20 21  1  0
 19 20  1  1
 22 24  1  0
 23 22  2  0
M  END
$$$$
