MEC.pdb
     RDKit          3D

 24 23  0  0  1  0  0  0  0  0999 V2000
    7.7106  -11.0878   26.1319 C   0  0  0  0  0  0  0  0  0  0  0  0
    6.1050  -11.8552   25.9195 S   0  0  0  0  0  0  0  0  0  0  0  0
    6.0955  -13.4047   25.0493 C   0  0  0  0  0  0  0  0  0  0  0  0
    7.2832  -14.2824   25.2748 C   0  0  0  0  0  0  0  0  0  0  0  0
    7.2198  -15.5100   24.4468 C   0  0  2  0  0  0  0  0  0  0  0  0
    6.0866  -16.2968   24.8499 N   0  0  0  0  0  0  0  0  0  0  0  0
    8.4652  -16.3562   24.6296 C   0  0  0  0  0  0  0  0  0  0  0  0
    8.5257  -17.2127   25.5549 O   0  0  0  0  0  0  0  0  0  0  0  0
    9.5476  -16.1772   23.7614 N   0  0  0  0  0  0  0  0  0  0  0  0
   10.7633  -16.9981   23.8549 C   0  0  1  0  0  0  0  0  0  0  0  0
   11.6079  -16.6592   22.6619 C   0  0  0  0  0  0  0  0  0  0  0  0
   12.9155  -17.3463   22.5635 C   0  0  0  0  0  0  0  0  0  0  0  0
   13.5746  -17.1326   21.2607 C   0  0  0  0  0  0  0  0  0  0  0  0
   14.3504  -18.0233   20.7694 O   0  0  0  0  0  0  0  0  0  0  0  0
   11.4592  -16.6571   25.1273 C   0  0  0  0  0  0  0  0  0  0  0  0
   12.1289  -15.5985   25.2120 O   0  0  0  0  0  0  0  0  0  0  0  0
   13.3773  -15.9788   20.5427 O   0  0  0  0  0  0  0  0  0  0  0  0
   11.3946  -17.4970   26.2706 N   0  0  0  0  0  0  0  0  0  0  0  0
   12.0730  -17.2057   27.5316 C   0  0  1  0  0  0  0  0  0  0  0  0
   11.4572  -15.9334   28.0897 C   0  0  0  0  0  0  0  0  0  0  0  0
    9.7180  -16.2112   28.5135 S   0  0  0  0  0  0  0  0  0  0  0  0
   11.9207  -18.3111   28.4947 C   0  0  0  0  0  0  0  0  0  0  0  0
   11.1597  -19.2756   28.2635 O   0  0  0  0  0  0  0  0  0  0  0  0
   12.6259  -18.2976   29.6835 O   0  0  0  0  0  0  0  0  0  0  0  0
  1  2  1  0
  2  3  1  0
  4  5  1  0
  4  3  1  0
  5  7  1  0
  5  6  1  1
  7  8  2  0
  9  7  1  0
  9 10  1  0
 10 15  1  0
 10 11  1  6
 12 13  1  0
 12 11  1  0
 13 14  2  0
 15 16  2  0
 17 13  1  0
 18 15  1  0
 18 19  1  0
 19 22  1  0
 20 21  1  0
 19 20  1  1
 22 24  1  0
 23 22  2  0
M  END
$$$$
