MEC.pdb
     RDKit          3D

 24 23  0  0  1  0  0  0  0  0999 V2000
    7.4307  -10.5563   27.2357 C   0  0  0  0  0  0  0  0  0  0  0  0
    6.2048  -11.7231   27.8252 S   0  0  0  0  0  0  0  0  0  0  0  0
    6.1871  -13.3046   27.0146 C   0  0  0  0  0  0  0  0  0  0  0  0
    7.3048  -13.5542   26.0555 C   0  0  0  0  0  0  0  0  0  0  0  0
    7.1611  -14.8652   25.3791 C   0  0  2  0  0  0  0  0  0  0  0  0
    7.0643  -15.9024   26.3693 N   0  0  0  0  0  0  0  0  0  0  0  0
    8.3650  -15.1634   24.5060 C   0  0  0  0  0  0  0  0  0  0  0  0
    9.3706  -14.4006   24.5220 O   0  0  0  0  0  0  0  0  0  0  0  0
    8.3493  -16.2937   23.6817 N   0  0  0  0  0  0  0  0  0  0  0  0
    9.4043  -16.5476   22.6902 C   0  0  1  0  0  0  0  0  0  0  0  0
   10.0677  -17.8348   23.0834 C   0  0  0  0  0  0  0  0  0  0  0  0
   11.1718  -18.2996   22.2137 C   0  0  0  0  0  0  0  0  0  0  0  0
   11.7578  -19.5748   22.6698 C   0  0  0  0  0  0  0  0  0  0  0  0
   12.7587  -20.0869   22.0593 O   0  0  0  0  0  0  0  0  0  0  0  0
    8.7668  -16.6533   21.3479 C   0  0  0  0  0  0  0  0  0  0  0  0
    7.6096  -17.1278   21.2384 O   0  0  0  0  0  0  0  0  0  0  0  0
   11.2488  -20.2457   23.7544 O   0  0  0  0  0  0  0  0  0  0  0  0
    9.4275  -16.2309   20.1639 N   0  0  0  0  0  0  0  0  0  0  0  0
    8.8289  -15.3379   19.1743 C   0  0  1  0  0  0  0  0  0  0  0  0
    8.2404  -14.1587   19.9310 C   0  0  0  0  0  0  0  0  0  0  0  0
    7.5009  -12.9766   18.7746 S   0  0  0  0  0  0  0  0  0  0  0  0
    9.8269  -14.8694   18.1960 C   0  0  0  0  0  0  0  0  0  0  0  0
   10.9573  -14.4759   18.5569 O   0  0  0  0  0  0  0  0  0  0  0  0
    9.5239  -14.8577   16.8474 O   0  0  0  0  0  0  0  0  0  0  0  0
  1  2  1  0
  2  3  1  0
  4  5  1  0
  4  3  1  0
  5  7  1  0
  5  6  1  1
  7  8  2  0
  9  7  1  0
  9 10  1  0
 10 15  1  0
 10 11  1  1
 12 13  1  0
 12 11  1  0
 13 14  2  0
 15 16  2  0
 17 13  1  0
 18 15  1  0
 18 19  1  0
 19 22  1  0
 20 21  1  0
 19 20  1  1
 22 24  1  0
 23 22  2  0
M  END
$$$$
