MEC.pdb
     RDKit          3D

 24 23  0  0  1  0  0  0  0  0999 V2000
    6.1673  -11.8716   27.1374 C   0  0  0  0  0  0  0  0  0  0  0  0
    6.3680  -11.0214   25.5725 S   0  0  0  0  0  0  0  0  0  0  0  0
    7.0153  -11.9987   24.2368 C   0  0  0  0  0  0  0  0  0  0  0  0
    7.4334  -13.3879   24.5931 C   0  0  0  0  0  0  0  0  0  0  0  0
    7.8794  -14.1465   23.4005 C   0  0  2  0  0  0  0  0  0  0  0  0
    6.7656  -14.3307   22.5110 N   0  0  0  0  0  0  0  0  0  0  0  0
    8.3990  -15.5175   23.7890 C   0  0  0  0  0  0  0  0  0  0  0  0
    7.5969  -16.4366   24.1134 O   0  0  0  0  0  0  0  0  0  0  0  0
    9.7781  -15.7531   23.7844 N   0  0  0  0  0  0  0  0  0  0  0  0
   10.3511  -17.0251   24.2475 C   0  0  1  0  0  0  0  0  0  0  0  0
   11.1032  -17.6092   23.0879 C   0  0  0  0  0  0  0  0  0  0  0  0
   11.8095  -16.6492   22.2097 C   0  0  0  0  0  0  0  0  0  0  0  0
   12.4954  -17.3078   21.0814 C   0  0  0  0  0  0  0  0  0  0  0  0
   12.4115  -18.5739   20.9176 O   0  0  0  0  0  0  0  0  0  0  0  0
   11.2582  -16.7377   25.3937 C   0  0  0  0  0  0  0  0  0  0  0  0
   12.0417  -15.7579   25.3437 O   0  0  0  0  0  0  0  0  0  0  0  0
   13.2401  -16.5866   20.1807 O   0  0  0  0  0  0  0  0  0  0  0  0
   11.2733  -17.5426   26.5636 N   0  0  0  0  0  0  0  0  0  0  0  0
   11.4583  -17.0117   27.9124 C   0  0  1  0  0  0  0  0  0  0  0  0
   10.3475  -16.0033   28.1545 C   0  0  0  0  0  0  0  0  0  0  0  0
   10.9600  -14.6228   29.1547 S   0  0  0  0  0  0  0  0  0  0  0  0
   11.4063  -18.0810   28.9255 C   0  0  0  0  0  0  0  0  0  0  0  0
   10.6678  -19.0792   28.7810 O   0  0  0  0  0  0  0  0  0  0  0  0
   12.1833  -17.9949   30.0655 O   0  0  0  0  0  0  0  0  0  0  0  0
  1  2  1  0
  2  3  1  0
  4  5  1  0
  4  3  1  0
  5  7  1  0
  5  6  1  6
  7  8  2  0
  9  7  1  0
  9 10  1  0
 10 15  1  0
 10 11  1  6
 12 13  1  0
 12 11  1  0
 13 14  2  0
 15 16  2  0
 17 13  1  0
 18 15  1  0
 18 19  1  0
 19 22  1  0
 20 21  1  0
 19 20  1  1
 22 24  1  0
 23 22  2  0
M  END
$$$$
