MEC.pdb
     RDKit          3D

 24 23  0  0  1  0  0  0  0  0999 V2000
    7.0678  -11.2465   25.0546 C   0  0  0  0  0  0  0  0  0  0  0  0
    6.0440  -12.4633   25.8810 S   0  0  0  0  0  0  0  0  0  0  0  0
    6.3687  -14.1605   25.4654 C   0  0  0  0  0  0  0  0  0  0  0  0
    6.4521  -14.4660   24.0055 C   0  0  0  0  0  0  0  0  0  0  0  0
    6.6668  -15.9121   23.7620 C   0  0  2  0  0  0  0  0  0  0  0  0
    5.7029  -16.6685   24.5134 N   0  0  0  0  0  0  0  0  0  0  0  0
    8.0506  -16.3414   24.2109 C   0  0  0  0  0  0  0  0  0  0  0  0
    8.2246  -16.8389   25.3579 O   0  0  0  0  0  0  0  0  0  0  0  0
    9.1334  -16.1796   23.3399 N   0  0  0  0  0  0  0  0  0  0  0  0
   10.4506  -16.7690   23.6192 C   0  0  1  0  0  0  0  0  0  0  0  0
   11.3221  -16.4622   22.4368 C   0  0  0  0  0  0  0  0  0  0  0  0
   12.7320  -16.9051   22.5247 C   0  0  0  0  0  0  0  0  0  0  0  0
   13.2829  -17.3142   21.2184 C   0  0  0  0  0  0  0  0  0  0  0  0
   13.1004  -16.5906   20.1792 O   0  0  0  0  0  0  0  0  0  0  0  0
   10.9849  -16.1476   24.8632 C   0  0  0  0  0  0  0  0  0  0  0  0
   11.1915  -14.9100   24.9078 O   0  0  0  0  0  0  0  0  0  0  0  0
   14.0014  -18.4761   21.0799 O   0  0  0  0  0  0  0  0  0  0  0  0
   11.2758  -16.9129   26.0236 N   0  0  0  0  0  0  0  0  0  0  0  0
   11.5721  -16.3277   27.3293 C   0  0  1  0  0  0  0  0  0  0  0  0
   10.3183  -15.6049   27.7927 C   0  0  0  0  0  0  0  0  0  0  0  0
   10.6243  -14.7638   29.3676 S   0  0  0  0  0  0  0  0  0  0  0  0
   11.9575  -17.3596   28.3087 C   0  0  0  0  0  0  0  0  0  0  0  0
   11.6559  -18.5612   28.1410 O   0  0  0  0  0  0  0  0  0  0  0  0
   12.6672  -17.0098   29.4422 O   0  0  0  0  0  0  0  0  0  0  0  0
  1  2  1  0
  2  3  1  0
  4  5  1  0
  4  3  1  0
  5  7  1  0
  5  6  1  1
  7  8  2  0
  9  7  1  0
  9 10  1  0
 10 15  1  0
 10 11  1  6
 12 13  1  0
 12 11  1  0
 13 14  2  0
 15 16  2  0
 17 13  1  0
 18 15  1  0
 18 19  1  0
 19 22  1  0
 20 21  1  0
 19 20  1  1
 22 24  1  0
 23 22  2  0
M  END
$$$$
