MEC.pdb
     RDKit          3D

 24 23  0  0  1  0  0  0  0  0999 V2000
    7.8693  -10.8234   25.4167 C   0  0  0  0  0  0  0  0  0  0  0  0
    6.5786  -12.0614   25.5314 S   0  0  0  0  0  0  0  0  0  0  0  0
    6.8531  -13.5551   24.6083 C   0  0  0  0  0  0  0  0  0  0  0  0
    7.3832  -13.3734   23.2236 C   0  0  0  0  0  0  0  0  0  0  0  0
    7.5132  -14.6685   22.5146 C   0  0  2  0  0  0  0  0  0  0  0  0
    6.2073  -15.2361   22.3193 N   0  0  0  0  0  0  0  0  0  0  0  0
    8.3348  -15.6535   23.3242 C   0  0  0  0  0  0  0  0  0  0  0  0
    7.7710  -16.4485   24.1263 O   0  0  0  0  0  0  0  0  0  0  0  0
    9.7255  -15.6716   23.1728 N   0  0  0  0  0  0  0  0  0  0  0  0
   10.5606  -16.7151   23.7846 C   0  0  1  0  0  0  0  0  0  0  0  0
   11.7274  -16.9302   22.8660 C   0  0  0  0  0  0  0  0  0  0  0  0
   12.7072  -17.9616   23.2755 C   0  0  0  0  0  0  0  0  0  0  0  0
   13.7928  -18.1384   22.2918 C   0  0  0  0  0  0  0  0  0  0  0  0
   13.7310  -19.0665   21.4134 O   0  0  0  0  0  0  0  0  0  0  0  0
   11.0046  -16.2322   25.1221 C   0  0  0  0  0  0  0  0  0  0  0  0
   11.3260  -15.0288   25.2799 O   0  0  0  0  0  0  0  0  0  0  0  0
   14.8945  -17.3187   22.2908 O   0  0  0  0  0  0  0  0  0  0  0  0
   11.0805  -17.0943   26.2481 N   0  0  0  0  0  0  0  0  0  0  0  0
   11.1261  -16.6229   27.6304 C   0  0  1  0  0  0  0  0  0  0  0  0
    9.7984  -15.9412   27.9166 C   0  0  0  0  0  0  0  0  0  0  0  0
    9.9384  -14.8837   29.3807 S   0  0  0  0  0  0  0  0  0  0  0  0
   11.3423  -17.7348   28.5734 C   0  0  0  0  0  0  0  0  0  0  0  0
   10.9355  -18.8899   28.3221 O   0  0  0  0  0  0  0  0  0  0  0  0
   12.0066  -17.5144   29.7654 O   0  0  0  0  0  0  0  0  0  0  0  0
  1  2  1  0
  2  3  1  0
  4  5  1  0
  4  3  1  0
  5  7  1  0
  5  6  1  1
  7  8  2  0
  9  7  1  0
  9 10  1  0
 10 15  1  0
 10 11  1  6
 12 13  1  0
 12 11  1  0
 13 14  2  0
 15 16  2  0
 17 13  1  0
 18 15  1  0
 18 19  1  0
 19 22  1  0
 20 21  1  0
 19 20  1  1
 22 24  1  0
 23 22  2  0
M  END
$$$$
