MEC.pdb
     RDKit          3D

 24 23  0  0  1  0  0  0  0  0999 V2000
    8.5629  -11.6651   21.2032 C   0  0  0  0  0  0  0  0  0  0  0  0
    8.2330  -13.3090   20.5703 S   0  0  0  0  0  0  0  0  0  0  0  0
    6.9790  -14.2322   21.4268 C   0  0  0  0  0  0  0  0  0  0  0  0
    6.7150  -15.6066   20.9044 C   0  0  0  0  0  0  0  0  0  0  0  0
    7.9728  -16.3633   20.6989 C   0  0  2  0  0  0  0  0  0  0  0  0
    7.6740  -17.6178   20.0644 N   0  0  0  0  0  0  0  0  0  0  0  0
    8.6538  -16.6590   22.0216 C   0  0  0  0  0  0  0  0  0  0  0  0
    7.9824  -17.0708   23.0080 O   0  0  0  0  0  0  0  0  0  0  0  0
   10.0352  -16.4701   22.1372 N   0  0  0  0  0  0  0  0  0  0  0  0
   10.7474  -16.6957   23.4031 C   0  0  1  0  0  0  0  0  0  0  0  0
   12.2118  -16.7247   23.0771 C   0  0  0  0  0  0  0  0  0  0  0  0
   13.1424  -16.7659   24.2277 C   0  0  0  0  0  0  0  0  0  0  0  0
   14.5583  -16.8034   23.8139 C   0  0  0  0  0  0  0  0  0  0  0  0
   15.1973  -15.7201   23.5794 O   0  0  0  0  0  0  0  0  0  0  0  0
   10.4194  -15.5753   24.3285 C   0  0  0  0  0  0  0  0  0  0  0  0
   10.6277  -14.3885   23.9758 O   0  0  0  0  0  0  0  0  0  0  0  0
   15.2271  -17.9938   23.6679 O   0  0  0  0  0  0  0  0  0  0  0  0
    9.8700  -15.7993   25.6188 N   0  0  0  0  0  0  0  0  0  0  0  0
    9.7063  -14.7523   26.6248 C   0  0  1  0  0  0  0  0  0  0  0  0
    8.2340  -14.3763   26.6465 C   0  0  0  0  0  0  0  0  0  0  0  0
    7.9971  -12.8176   27.5385 S   0  0  0  0  0  0  0  0  0  0  0  0
   10.1350  -15.2123   27.9578 C   0  0  0  0  0  0  0  0  0  0  0  0
   10.3837  -16.4168   28.1819 O   0  0  0  0  0  0  0  0  0  0  0  0
   10.2700  -14.3072   28.9939 O   0  0  0  0  0  0  0  0  0  0  0  0
  1  2  1  0
  2  3  1  0
  4  5  1  0
  4  3  1  0
  5  7  1  0
  5  6  1  1
  7  8  2  0
  9  7  1  0
  9 10  1  0
 10 15  1  0
 10 11  1  6
 12 13  1  0
 12 11  1  0
 13 14  2  0
 15 16  2  0
 17 13  1  0
 18 15  1  0
 18 19  1  0
 19 22  1  0
 20 21  1  0
 19 20  1  1
 22 24  1  0
 23 22  2  0
M  END
$$$$
