MEC.pdb
     RDKit          3D

 24 23  0  0  1  0  0  0  0  0999 V2000
    7.4321  -11.6237   18.6378 C   0  0  0  0  0  0  0  0  0  0  0  0
    7.8920  -12.7896   19.9188 S   0  0  0  0  0  0  0  0  0  0  0  0
    6.7560  -14.1287   20.1924 C   0  0  0  0  0  0  0  0  0  0  0  0
    7.0599  -15.0084   21.3608 C   0  0  0  0  0  0  0  0  0  0  0  0
    8.4564  -14.8349   21.8260 C   0  0  2  0  0  0  0  0  0  0  0  0
    9.3503  -15.4547   20.8865 N   0  0  0  0  0  0  0  0  0  0  0  0
    8.6675  -15.4933   23.1761 C   0  0  0  0  0  0  0  0  0  0  0  0
    7.8632  -15.2778   24.1248 O   0  0  0  0  0  0  0  0  0  0  0  0
    9.7641  -16.3424   23.3593 N   0  0  0  0  0  0  0  0  0  0  0  0
   10.0358  -16.9943   24.6484 C   0  0  1  0  0  0  0  0  0  0  0  0
   11.1097  -18.0128   24.4011 C   0  0  0  0  0  0  0  0  0  0  0  0
   10.7874  -19.0896   23.4377 C   0  0  0  0  0  0  0  0  0  0  0  0
   11.9093  -20.0263   23.2343 C   0  0  0  0  0  0  0  0  0  0  0  0
   12.8467  -19.7504   22.4086 O   0  0  0  0  0  0  0  0  0  0  0  0
   10.4878  -15.9518   25.6118 C   0  0  0  0  0  0  0  0  0  0  0  0
   11.5657  -15.3392   25.4136 O   0  0  0  0  0  0  0  0  0  0  0  0
   11.9792  -21.2143   23.9195 O   0  0  0  0  0  0  0  0  0  0  0  0
    9.7344  -15.6159   26.7678 N   0  0  0  0  0  0  0  0  0  0  0  0
   10.2170  -14.7259   27.8214 C   0  0  1  0  0  0  0  0  0  0  0  0
    9.1165  -13.7139   28.0937 C   0  0  0  0  0  0  0  0  0  0  0  0
    8.4615  -13.0640   26.5349 S   0  0  0  0  0  0  0  0  0  0  0  0
   10.5407  -15.4709   29.0514 C   0  0  0  0  0  0  0  0  0  0  0  0
   10.3178  -16.6972   29.1474 O   0  0  0  0  0  0  0  0  0  0  0  0
   11.1026  -14.8162   30.1314 O   0  0  0  0  0  0  0  0  0  0  0  0
  1  2  1  0
  2  3  1  0
  4  5  1  0
  4  3  1  0
  5  7  1  0
  5  6  1  6
  7  8  2  0
  9  7  1  0
  9 10  1  0
 10 15  1  0
 10 11  1  6
 12 13  1  0
 12 11  1  0
 13 14  2  0
 15 16  2  0
 17 13  1  0
 18 15  1  0
 18 19  1  0
 19 22  1  0
 20 21  1  0
 19 20  1  1
 22 24  1  0
 23 22  2  0
M  END
$$$$
