MEC.pdb
     RDKit          3D

 24 23  0  0  1  0  0  0  0  0999 V2000
    9.0318  -11.6039   19.9406 C   0  0  0  0  0  0  0  0  0  0  0  0
    9.0965  -12.9067   18.7116 S   0  0  0  0  0  0  0  0  0  0  0  0
    7.5271  -13.5456   18.1759 C   0  0  0  0  0  0  0  0  0  0  0  0
    7.5833  -14.6079   17.1272 C   0  0  0  0  0  0  0  0  0  0  0  0
    8.6743  -15.5764   17.3892 C   0  0  2  0  0  0  0  0  0  0  0  0
    8.6849  -16.5716   16.3524 N   0  0  0  0  0  0  0  0  0  0  0  0
    8.4683  -16.2845   18.7147 C   0  0  0  0  0  0  0  0  0  0  0  0
    7.3136  -16.6471   19.0728 O   0  0  0  0  0  0  0  0  0  0  0  0
    9.5727  -16.5315   19.5373 N   0  0  0  0  0  0  0  0  0  0  0  0
    9.4510  -17.2737   20.8001 C   0  0  1  0  0  0  0  0  0  0  0  0
   10.3004  -18.5031   20.6638 C   0  0  0  0  0  0  0  0  0  0  0  0
   10.2823  -19.4465   21.8045 C   0  0  0  0  0  0  0  0  0  0  0  0
   11.0545  -20.6756   21.5394 C   0  0  0  0  0  0  0  0  0  0  0  0
   10.6361  -21.5376   20.6918 O   0  0  0  0  0  0  0  0  0  0  0  0
    9.9360  -16.3985   21.9038 C   0  0  0  0  0  0  0  0  0  0  0  0
   11.0299  -15.7929   21.7900 O   0  0  0  0  0  0  0  0  0  0  0  0
   12.2363  -20.9296   22.1911 O   0  0  0  0  0  0  0  0  0  0  0  0
    9.1969  -16.2175   23.1029 N   0  0  0  0  0  0  0  0  0  0  0  0
    9.7167  -15.5266   24.2809 C   0  0  1  0  0  0  0  0  0  0  0  0
    8.5519  -14.7878   24.9188 C   0  0  0  0  0  0  0  0  0  0  0  0
    7.0031  -15.2164   24.0829 S   0  0  0  0  0  0  0  0  0  0  0  0
   10.3098  -16.4720   25.2436 C   0  0  0  0  0  0  0  0  0  0  0  0
   10.2315  -17.7081   25.0746 O   0  0  0  0  0  0  0  0  0  0  0  0
   10.9701  -15.9999   26.3625 O   0  0  0  0  0  0  0  0  0  0  0  0
  1  2  1  0
  2  3  1  0
  4  5  1  0
  4  3  1  0
  5  7  1  0
  5  6  1  6
  7  8  2  0
  9  7  1  0
  9 10  1  0
 10 15  1  0
 10 11  1  6
 12 13  1  0
 12 11  1  0
 13 14  2  0
 15 16  2  0
 17 13  1  0
 18 15  1  0
 18 19  1  0
 19 22  1  0
 20 21  1  0
 19 20  1  1
 22 24  1  0
 23 22  2  0
M  END
$$$$
