MEC.pdb
     RDKit          3D

 24 23  0  0  1  0  0  0  0  0999 V2000
    8.2189  -11.6683   20.5672 C   0  0  0  0  0  0  0  0  0  0  0  0
    7.8201  -13.1185   19.5926 S   0  0  0  0  0  0  0  0  0  0  0  0
    6.6604  -14.2492   20.3240 C   0  0  0  0  0  0  0  0  0  0  0  0
    7.1467  -14.9885   21.5276 C   0  0  0  0  0  0  0  0  0  0  0  0
    7.9496  -16.1761   21.1512 C   0  0  2  0  0  0  0  0  0  0  0  0
    7.0757  -17.1997   20.6470 N   0  0  0  0  0  0  0  0  0  0  0  0
    8.6858  -16.7396   22.3517 C   0  0  0  0  0  0  0  0  0  0  0  0
    8.0627  -17.3905   23.2357 O   0  0  0  0  0  0  0  0  0  0  0  0
   10.0640  -16.5300   22.4694 N   0  0  0  0  0  0  0  0  0  0  0  0
   10.8288  -17.0186   23.6256 C   0  0  1  0  0  0  0  0  0  0  0  0
   12.2276  -17.2709   23.1446 C   0  0  0  0  0  0  0  0  0  0  0  0
   13.2025  -17.7251   24.1619 C   0  0  0  0  0  0  0  0  0  0  0  0
   14.5419  -17.9749   23.5956 C   0  0  0  0  0  0  0  0  0  0  0  0
   15.1939  -19.0308   23.9064 O   0  0  0  0  0  0  0  0  0  0  0  0
   10.7991  -15.9683   24.6816 C   0  0  0  0  0  0  0  0  0  0  0  0
   11.0703  -14.7776   24.3903 O   0  0  0  0  0  0  0  0  0  0  0  0
   15.1250  -17.0869   22.7253 O   0  0  0  0  0  0  0  0  0  0  0  0
   10.4699  -16.2647   26.0310 N   0  0  0  0  0  0  0  0  0  0  0  0
   10.4080  -15.2611   27.0912 C   0  0  1  0  0  0  0  0  0  0  0  0
    9.0602  -14.5687   26.9763 C   0  0  0  0  0  0  0  0  0  0  0  0
    8.8541  -13.3692   28.3179 S   0  0  0  0  0  0  0  0  0  0  0  0
   10.5549  -15.8735   28.4238 C   0  0  0  0  0  0  0  0  0  0  0  0
   10.3726  -17.0975   28.6014 O   0  0  0  0  0  0  0  0  0  0  0  0
   10.9008  -15.0936   29.5114 O   0  0  0  0  0  0  0  0  0  0  0  0
  1  2  1  0
  2  3  1  0
  4  5  1  0
  4  3  1  0
  5  7  1  0
  5  6  1  1
  7  8  2  0
  9  7  1  0
  9 10  1  0
 10 15  1  0
 10 11  1  6
 12 13  1  0
 12 11  1  0
 13 14  2  0
 15 16  2  0
 17 13  1  0
 18 15  1  0
 18 19  1  0
 19 22  1  0
 20 21  1  0
 19 20  1  1
 22 24  1  0
 23 22  2  0
M  END
$$$$
