MEC.pdb
     RDKit          3D

 24 23  0  0  1  0  0  0  0  0999 V2000
    7.4749  -11.5292   27.0500 C   0  0  0  0  0  0  0  0  0  0  0  0
    6.0487  -11.7872   25.9959 S   0  0  0  0  0  0  0  0  0  0  0  0
    5.9323  -13.3850   25.2267 C   0  0  0  0  0  0  0  0  0  0  0  0
    7.1511  -14.2430   25.3264 C   0  0  0  0  0  0  0  0  0  0  0  0
    6.9789  -15.5224   24.5981 C   0  0  2  0  0  0  0  0  0  0  0  0
    5.8804  -16.2509   25.1710 N   0  0  0  0  0  0  0  0  0  0  0  0
    8.2212  -16.3854   24.7105 C   0  0  0  0  0  0  0  0  0  0  0  0
    8.2777  -17.3167   25.5607 O   0  0  0  0  0  0  0  0  0  0  0  0
    9.3052  -16.1381   23.8613 N   0  0  0  0  0  0  0  0  0  0  0  0
   10.5326  -16.9453   23.9120 C   0  0  1  0  0  0  0  0  0  0  0  0
   11.2314  -16.7544   22.5979 C   0  0  0  0  0  0  0  0  0  0  0  0
   12.5102  -17.4787   22.4202 C   0  0  0  0  0  0  0  0  0  0  0  0
   13.0878  -17.2929   21.0752 C   0  0  0  0  0  0  0  0  0  0  0  0
   13.8353  -16.2863   20.8207 O   0  0  0  0  0  0  0  0  0  0  0  0
   11.3656  -16.4561   25.0460 C   0  0  0  0  0  0  0  0  0  0  0  0
   11.9665  -15.3575   24.9550 O   0  0  0  0  0  0  0  0  0  0  0  0
   12.8408  -18.1878   20.0633 O   0  0  0  0  0  0  0  0  0  0  0  0
   11.5107  -17.1963   26.2493 N   0  0  0  0  0  0  0  0  0  0  0  0
   11.6097  -16.5841   27.5724 C   0  0  1  0  0  0  0  0  0  0  0  0
   10.3653  -15.7341   27.7685 C   0  0  0  0  0  0  0  0  0  0  0  0
   10.5918  -14.6021   29.1645 S   0  0  0  0  0  0  0  0  0  0  0  0
   11.7038  -17.6030   28.6333 C   0  0  0  0  0  0  0  0  0  0  0  0
   11.0372  -18.6593   28.5822 O   0  0  0  0  0  0  0  0  0  0  0  0
   12.5412  -17.4033   29.7148 O   0  0  0  0  0  0  0  0  0  0  0  0
  1  2  1  0
  2  3  1  0
  4  5  1  0
  4  3  1  0
  5  7  1  0
  5  6  1  1
  7  8  2  0
  9  7  1  0
  9 10  1  0
 10 15  1  0
 10 11  1  6
 12 13  1  0
 12 11  1  0
 13 14  2  0
 15 16  2  0
 17 13  1  0
 18 15  1  0
 18 19  1  0
 19 22  1  0
 20 21  1  0
 19 20  1  1
 22 24  1  0
 23 22  2  0
M  END
$$$$
