TMI.pdb
     RDKit          3D

 24 23  0  0  1  0  0  0  0  0999 V2000
    9.3509  -18.9246   22.1263 C   0  0  0  0  0  0  0  0  0  0  0  0
    9.8488  -18.2190   20.8999 C   0  0  1  0  0  0  0  0  0  0  0  0
    9.7286  -19.0993   19.8108 O   0  0  0  0  0  0  0  0  0  0  0  0
    9.0272  -16.9672   20.6438 C   0  0  2  0  0  0  0  0  0  0  0  0
    9.4210  -16.4304   19.3744 N   0  0  0  0  0  0  0  0  0  0  0  0
    9.3169  -16.0008   21.7320 C   0  0  0  0  0  0  0  0  0  0  0  0
   10.3577  -15.3195   21.8085 O   0  0  0  0  0  0  0  0  0  0  0  0
    5.7252  -11.1094   25.1642 C   0  0  0  0  0  0  0  0  0  0  0  0
    5.8296  -12.6979   26.0155 S   0  0  0  0  0  0  0  0  0  0  0  0
    7.3921  -13.5328   25.6309 C   0  0  0  0  0  0  0  0  0  0  0  0
    7.2224  -14.2713   24.3064 C   0  0  0  0  0  0  0  0  0  0  0  0
    8.5168  -14.8764   23.8464 C   0  0  2  0  0  0  0  0  0  0  0  0
    8.3608  -15.8223   22.7668 N   0  0  0  0  0  0  0  0  0  0  0  0
    9.2143  -15.5702   24.9597 C   0  0  0  0  0  0  0  0  0  0  0  0
    8.8057  -16.6624   25.4314 O   0  0  0  0  0  0  0  0  0  0  0  0
   11.0007  -14.1450   30.3870 C   0  0  0  0  0  0  0  0  0  0  0  0
   11.2771  -15.0523   29.2405 C   0  0  0  0  0  0  0  0  0  0  0  0
   10.7365  -14.5769   27.9268 C   0  0  2  0  0  0  0  0  0  0  0  0
    9.2579  -14.2968   28.0918 C   0  0  0  0  0  0  0  0  0  0  0  0
   10.9464  -15.5294   26.7969 C   0  0  2  0  0  0  0  0  0  0  0  0
   10.3954  -15.0246   25.5548 N   0  0  0  0  0  0  0  0  0  0  0  0
   10.2672  -16.8098   27.1279 C   0  0  0  0  0  0  0  0  0  0  0  0
    8.9923  -17.0586   26.6482 O   0  0  0  0  0  0  0  0  0  0  0  0
   10.8004  -17.7060   27.8398 O   0  0  0  0  0  0  0  0  0  0  0  0
  2  1  1  1
  2  4  1  0
  3  2  1  0
  4  5  1  6
  6 13  1  0
  6  4  1  0
  7  6  2  0
  8  9  1  0
  9 10  1  0
 11 10  1  0
 12 11  1  1
 12 13  1  0
 14 15  2  0
 14 12  1  0
 16 17  1  0
 17 18  1  0
 18 20  1  0
 18 19  1  1
 20 21  1  6
 20 22  1  0
 21 14  1  0
 22 23  1  0
 24 22  2  0
M  END
$$$$
