TMI.pdb
     RDKit          3D

 24 23  0  0  1  0  0  0  0  0999 V2000
    8.9562  -18.7820   21.6372 C   0  0  0  0  0  0  0  0  0  0  0  0
    9.7132  -17.9544   20.6412 C   0  0  1  0  0  0  0  0  0  0  0  0
    9.5740  -18.5558   19.3784 O   0  0  0  0  0  0  0  0  0  0  0  0
    9.1586  -16.5407   20.6027 C   0  0  2  0  0  0  0  0  0  0  0  0
    9.7213  -15.8744   19.4652 N   0  0  0  0  0  0  0  0  0  0  0  0
    9.5596  -15.8591   21.8584 C   0  0  0  0  0  0  0  0  0  0  0  0
   10.6895  -15.3756   22.0659 O   0  0  0  0  0  0  0  0  0  0  0  0
    6.5220  -12.0010   26.5872 C   0  0  0  0  0  0  0  0  0  0  0  0
    5.9711  -12.2523   24.8866 S   0  0  0  0  0  0  0  0  0  0  0  0
    7.2260  -13.1429   23.9283 C   0  0  0  0  0  0  0  0  0  0  0  0
    7.6399  -14.3792   24.7211 C   0  0  0  0  0  0  0  0  0  0  0  0
    8.8647  -15.0208   24.1364 C   0  0  2  0  0  0  0  0  0  0  0  0
    8.6113  -15.7366   22.9083 N   0  0  0  0  0  0  0  0  0  0  0  0
    9.4864  -15.9706   25.0947 C   0  0  0  0  0  0  0  0  0  0  0  0
    8.9831  -17.0953   25.3479 O   0  0  0  0  0  0  0  0  0  0  0  0
    9.8565  -13.0906   29.0875 C   0  0  0  0  0  0  0  0  0  0  0  0
   10.5062  -13.8936   28.0164 C   0  0  0  0  0  0  0  0  0  0  0  0
   10.3728  -15.3762   28.1830 C   0  0  2  0  0  0  0  0  0  0  0  0
   10.9687  -15.7623   29.5201 C   0  0  0  0  0  0  0  0  0  0  0  0
   11.0124  -16.1751   27.0963 C   0  0  2  0  0  0  0  0  0  0  0  0
   10.6991  -15.6491   25.7825 N   0  0  0  0  0  0  0  0  0  0  0  0
   10.5070  -17.5710   27.1781 C   0  0  0  0  0  0  0  0  0  0  0  0
   11.3927  -18.6142   27.3885 O   0  0  0  0  0  0  0  0  0  0  0  0
    9.2848  -17.8666   27.0635 O   0  0  0  0  0  0  0  0  0  0  0  0
  2  1  1  1
  2  4  1  0
  3  2  1  0
  4  5  1  6
  6 13  1  0
  6  4  1  0
  7  6  2  0
  8  9  1  0
  9 10  1  0
 11 10  1  0
 12 11  1  1
 12 13  1  0
 14 15  2  0
 14 12  1  0
 16 17  1  0
 17 18  1  0
 18 20  1  0
 18 19  1  1
 20 21  1  6
 20 22  1  0
 21 14  1  0
 22 23  1  0
 24 22  2  0
M  END
$$$$
