TMI.pdb
     RDKit          3D

 24 23  0  0  1  0  0  0  0  0999 V2000
   12.4373  -16.5887   19.5985 C   0  0  0  0  0  0  0  0  0  0  0  0
   11.1312  -17.3202   19.6925 C   0  0  1  0  0  0  0  0  0  0  0  0
   11.1335  -18.3430   18.7284 O   0  0  0  0  0  0  0  0  0  0  0  0
   10.9625  -17.9188   21.0784 C   0  0  2  0  0  0  0  0  0  0  0  0
    9.8075  -18.7675   21.0574 N   0  0  0  0  0  0  0  0  0  0  0  0
   10.7727  -16.8024   22.0374 C   0  0  0  0  0  0  0  0  0  0  0  0
   11.5933  -15.8813   22.2153 O   0  0  0  0  0  0  0  0  0  0  0  0
    5.3021  -13.6832   25.0582 C   0  0  0  0  0  0  0  0  0  0  0  0
    5.4294  -14.7051   23.5756 S   0  0  0  0  0  0  0  0  0  0  0  0
    7.1608  -14.9003   23.0751 C   0  0  0  0  0  0  0  0  0  0  0  0
    7.9041  -15.6093   24.2035 C   0  0  0  0  0  0  0  0  0  0  0  0
    9.3555  -15.7982   23.8699 C   0  0  2  0  0  0  0  0  0  0  0  0
    9.5858  -16.7577   22.8159 N   0  0  0  0  0  0  0  0  0  0  0  0
   10.1301  -16.2370   25.0594 C   0  0  0  0  0  0  0  0  0  0  0  0
   10.9873  -17.1559   25.0013 O   0  0  0  0  0  0  0  0  0  0  0  0
    9.8239  -12.7071   29.2282 C   0  0  0  0  0  0  0  0  0  0  0  0
   10.6116  -13.6030   28.3390 C   0  0  0  0  0  0  0  0  0  0  0  0
   10.4766  -15.0623   28.6491 C   0  0  2  0  0  0  0  0  0  0  0  0
   11.4118  -15.3966   29.7916 C   0  0  0  0  0  0  0  0  0  0  0  0
   10.7529  -15.9630   27.4913 C   0  0  2  0  0  0  0  0  0  0  0  0
    9.9368  -15.6301   26.3405 N   0  0  0  0  0  0  0  0  0  0  0  0
   10.4469  -17.3600   27.8978 C   0  0  0  0  0  0  0  0  0  0  0  0
    9.1820  -17.8801   27.6818 O   0  0  0  0  0  0  0  0  0  0  0  0
   11.2967  -18.1183   28.4429 O   0  0  0  0  0  0  0  0  0  0  0  0
  2  1  1  1
  2  4  1  0
  3  2  1  0
  4  5  1  6
  6 13  1  0
  6  4  1  0
  7  6  2  0
  8  9  1  0
  9 10  1  0
 11 10  1  0
 12 11  1  1
 12 13  1  0
 14 15  2  0
 14 12  1  0
 16 17  1  0
 17 18  1  0
 18 20  1  0
 18 19  1  1
 20 21  1  6
 20 22  1  0
 21 14  1  0
 22 23  1  0
 24 22  2  0
M  END
$$$$
