TMI.pdb
     RDKit          3D

 24 23  0  0  1  0  0  0  0  0999 V2000
    9.7945  -18.6136   19.6872 C   0  0  0  0  0  0  0  0  0  0  0  0
    9.7671  -17.8235   20.9619 C   0  0  1  0  0  0  0  0  0  0  0  0
   10.9669  -18.0671   21.6523 O   0  0  0  0  0  0  0  0  0  0  0  0
    9.6391  -16.3405   20.6585 C   0  0  2  0  0  0  0  0  0  0  0  0
   10.7976  -15.9381   19.9166 N   0  0  0  0  0  0  0  0  0  0  0  0
    9.5686  -15.6150   21.9510 C   0  0  0  0  0  0  0  0  0  0  0  0
   10.5205  -14.9922   22.4604 O   0  0  0  0  0  0  0  0  0  0  0  0
    5.5612  -11.6391   25.5837 C   0  0  0  0  0  0  0  0  0  0  0  0
    7.0470  -12.6168   25.8928 S   0  0  0  0  0  0  0  0  0  0  0  0
    6.6693  -14.3895   25.8603 C   0  0  0  0  0  0  0  0  0  0  0  0
    6.7697  -14.8700   24.4155 C   0  0  0  0  0  0  0  0  0  0  0  0
    8.1995  -15.0537   23.9969 C   0  0  2  0  0  0  0  0  0  0  0  0
    8.3468  -15.6151   22.6748 N   0  0  0  0  0  0  0  0  0  0  0  0
    8.9315  -15.9314   24.9461 C   0  0  0  0  0  0  0  0  0  0  0  0
    9.2538  -17.1124   24.6569 O   0  0  0  0  0  0  0  0  0  0  0  0
   10.3383  -13.3338   29.5811 C   0  0  0  0  0  0  0  0  0  0  0  0
   10.7276  -14.1270   28.3839 C   0  0  0  0  0  0  0  0  0  0  0  0
   10.3515  -15.5756   28.4485 C   0  0  2  0  0  0  0  0  0  0  0  0
   11.4058  -16.3076   29.2513 C   0  0  0  0  0  0  0  0  0  0  0  0
   10.1904  -16.2270   27.1152 C   0  0  2  0  0  0  0  0  0  0  0  0
    9.3088  -15.4716   26.2474 N   0  0  0  0  0  0  0  0  0  0  0  0
    9.6064  -17.5790   27.3190 C   0  0  0  0  0  0  0  0  0  0  0  0
    8.2342  -17.7539   27.2591 O   0  0  0  0  0  0  0  0  0  0  0  0
   10.3086  -18.6027   27.5496 O   0  0  0  0  0  0  0  0  0  0  0  0
  2  1  1  6
  2  4  1  0
  3  2  1  0
  4  5  1  1
  6 13  1  0
  6  4  1  0
  7  6  2  0
  8  9  1  0
  9 10  1  0
 11 10  1  0
 12 11  1  1
 12 13  1  0
 14 15  2  0
 14 12  1  0
 16 17  1  0
 17 18  1  0
 18 20  1  0
 18 19  1  1
 20 21  1  6
 20 22  1  0
 21 14  1  0
 22 23  1  0
 24 22  2  0
M  END
$$$$
