TMI.pdb
     RDKit          3D

 24 23  0  0  1  0  0  0  0  0999 V2000
    6.7945  -20.8389   24.4288 C   0  0  0  0  0  0  0  0  0  0  0  0
    7.4305  -19.4816   24.3746 C   0  0  1  0  0  0  0  0  0  0  0  0
    8.8145  -19.6403   24.5616 O   0  0  0  0  0  0  0  0  0  0  0  0
    7.1638  -18.8295   23.0287 C   0  0  2  0  0  0  0  0  0  0  0  0
    7.7154  -19.6736   22.0100 N   0  0  0  0  0  0  0  0  0  0  0  0
    7.8291  -17.5031   23.0248 C   0  0  0  0  0  0  0  0  0  0  0  0
    8.8628  -17.2370   22.3812 O   0  0  0  0  0  0  0  0  0  0  0  0
    5.5034  -12.2743   26.6319 C   0  0  0  0  0  0  0  0  0  0  0  0
    6.4895  -11.5668   25.2956 S   0  0  0  0  0  0  0  0  0  0  0  0
    7.6924  -12.7729   24.6753 C   0  0  0  0  0  0  0  0  0  0  0  0
    6.9966  -14.1269   24.5708 C   0  0  0  0  0  0  0  0  0  0  0  0
    7.9021  -15.1638   23.9721 C   0  0  2  0  0  0  0  0  0  0  0  0
    7.2706  -16.4504   23.7973 N   0  0  0  0  0  0  0  0  0  0  0  0
    9.1170  -15.3644   24.8034 C   0  0  0  0  0  0  0  0  0  0  0  0
   10.1489  -14.6582   24.6663 O   0  0  0  0  0  0  0  0  0  0  0  0
   10.1562  -13.2417   28.7801 C   0  0  0  0  0  0  0  0  0  0  0  0
   10.3487  -14.1490   27.6165 C   0  0  0  0  0  0  0  0  0  0  0  0
   10.1222  -15.5994   27.9147 C   0  0  2  0  0  0  0  0  0  0  0  0
   11.0797  -16.0172   29.0103 C   0  0  0  0  0  0  0  0  0  0  0  0
   10.2818  -16.4999   26.7350 C   0  0  2  0  0  0  0  0  0  0  0  0
    9.1727  -16.3802   25.8094 N   0  0  0  0  0  0  0  0  0  0  0  0
   10.3423  -17.9043   27.2192 C   0  0  0  0  0  0  0  0  0  0  0  0
   11.5239  -18.4042   27.7399 O   0  0  0  0  0  0  0  0  0  0  0  0
    9.3522  -18.6869   27.1814 O   0  0  0  0  0  0  0  0  0  0  0  0
  2  1  1  6
  2  4  1  0
  3  2  1  0
  4  5  1  6
  6 13  1  0
  6  4  1  0
  7  6  2  0
  8  9  1  0
  9 10  1  0
 11 10  1  0
 12 11  1  1
 12 13  1  0
 14 15  2  0
 14 12  1  0
 16 17  1  0
 17 18  1  0
 18 20  1  0
 18 19  1  1
 20 21  1  6
 20 22  1  0
 21 14  1  0
 22 23  1  0
 24 22  2  0
M  END
$$$$
