TMI.pdb
     RDKit          3D

 24 23  0  0  1  0  0  0  0  0999 V2000
    9.1383  -16.7624   20.3998 C   0  0  0  0  0  0  0  0  0  0  0  0
    9.1420  -15.4342   19.7028 C   0  0  1  0  0  0  0  0  0  0  0  0
    8.9993  -15.6648   18.3236 O   0  0  0  0  0  0  0  0  0  0  0  0
    7.9937  -14.5748   20.2030 C   0  0  2  0  0  0  0  0  0  0  0  0
    7.8173  -13.4906   19.2822 N   0  0  0  0  0  0  0  0  0  0  0  0
    8.3585  -14.0638   21.5476 C   0  0  0  0  0  0  0  0  0  0  0  0
    9.0380  -13.0387   21.7495 O   0  0  0  0  0  0  0  0  0  0  0  0
    5.6837  -12.4235   27.2039 C   0  0  0  0  0  0  0  0  0  0  0  0
    6.1954  -11.5210   25.7266 S   0  0  0  0  0  0  0  0  0  0  0  0
    6.3011  -12.6320   24.2980 C   0  0  0  0  0  0  0  0  0  0  0  0
    6.8660  -13.9667   24.7752 C   0  0  0  0  0  0  0  0  0  0  0  0
    8.1326  -14.3169   24.0496 C   0  0  2  0  0  0  0  0  0  0  0  0
    7.9162  -14.7718   22.6965 N   0  0  0  0  0  0  0  0  0  0  0  0
    8.8914  -15.3736   24.7671 C   0  0  0  0  0  0  0  0  0  0  0  0
    8.9978  -16.5448   24.3207 O   0  0  0  0  0  0  0  0  0  0  0  0
   10.7577  -13.6382   29.5682 C   0  0  0  0  0  0  0  0  0  0  0  0
   11.0552  -14.2882   28.2632 C   0  0  0  0  0  0  0  0  0  0  0  0
   10.5658  -15.6990   28.1453 C   0  0  2  0  0  0  0  0  0  0  0  0
   11.6066  -16.6178   28.7490 C   0  0  0  0  0  0  0  0  0  0  0  0
   10.2641  -16.1283   26.7478 C   0  0  2  0  0  0  0  0  0  0  0  0
    9.5439  -15.1078   26.0123 N   0  0  0  0  0  0  0  0  0  0  0  0
    9.4222  -17.3525   26.8026 C   0  0  0  0  0  0  0  0  0  0  0  0
   10.0020  -18.5971   26.6243 O   0  0  0  0  0  0  0  0  0  0  0  0
    8.1766  -17.3207   27.0076 O   0  0  0  0  0  0  0  0  0  0  0  0
  2  1  1  1
  2  4  1  0
  3  2  1  0
  4  5  1  6
  6 13  1  0
  6  4  1  0
  7  6  2  0
  8  9  1  0
  9 10  1  0
 11 10  1  0
 12 11  1  1
 12 13  1  0
 14 15  2  0
 14 12  1  0
 16 17  1  0
 17 18  1  0
 18 20  1  0
 18 19  1  6
 20 21  1  1
 20 22  1  0
 21 14  1  0
 22 23  1  0
 24 22  2  0
M  END
$$$$
