TMI.pdb
     RDKit          3D

 24 23  0  0  1  0  0  0  0  0999 V2000
    9.3093  -17.0210   18.1938 C   0  0  0  0  0  0  0  0  0  0  0  0
    9.2731  -16.1330   19.4021 C   0  0  1  0  0  0  0  0  0  0  0  0
    7.9598  -15.6554   19.5535 O   0  0  0  0  0  0  0  0  0  0  0  0
    9.6840  -16.9122   20.6396 C   0  0  2  0  0  0  0  0  0  0  0  0
    8.6786  -17.9014   20.8949 N   0  0  0  0  0  0  0  0  0  0  0  0
    9.7753  -15.9563   21.7710 C   0  0  0  0  0  0  0  0  0  0  0  0
   10.5956  -15.0203   21.8360 O   0  0  0  0  0  0  0  0  0  0  0  0
    6.2170  -12.4448   26.3644 C   0  0  0  0  0  0  0  0  0  0  0  0
    5.5633  -13.1646   24.8434 S   0  0  0  0  0  0  0  0  0  0  0  0
    6.9010  -13.8452   23.8266 C   0  0  0  0  0  0  0  0  0  0  0  0
    7.5859  -14.9525   24.6223 C   0  0  0  0  0  0  0  0  0  0  0  0
    8.9363  -15.2806   24.0545 C   0  0  2  0  0  0  0  0  0  0  0  0
    8.8798  -16.0960   22.8643 N   0  0  0  0  0  0  0  0  0  0  0  0
    9.7827  -15.9887   25.0493 C   0  0  0  0  0  0  0  0  0  0  0  0
   10.4250  -17.0318   24.7635 O   0  0  0  0  0  0  0  0  0  0  0  0
   10.6568  -13.1257   29.5950 C   0  0  0  0  0  0  0  0  0  0  0  0
   11.1482  -14.0322   28.5222 C   0  0  0  0  0  0  0  0  0  0  0  0
   10.7415  -15.4648   28.6839 C   0  0  2  0  0  0  0  0  0  0  0  0
   11.7217  -16.1368   29.6216 C   0  0  0  0  0  0  0  0  0  0  0  0
   10.6641  -16.2282   27.4035 C   0  0  2  0  0  0  0  0  0  0  0  0
    9.9093  -15.5140   26.3930 N   0  0  0  0  0  0  0  0  0  0  0  0
    9.9873  -17.5251   27.6686 C   0  0  0  0  0  0  0  0  0  0  0  0
   10.7376  -18.6821   27.7932 O   0  0  0  0  0  0  0  0  0  0  0  0
    8.7352  -17.6342   27.7896 O   0  0  0  0  0  0  0  0  0  0  0  0
  2  1  1  6
  2  4  1  0
  3  2  1  0
  4  5  1  1
  6 13  1  0
  6  4  1  0
  7  6  2  0
  8  9  1  0
  9 10  1  0
 11 10  1  0
 12 11  1  1
 12 13  1  0
 14 15  2  0
 14 12  1  0
 16 17  1  0
 17 18  1  0
 18 20  1  0
 18 19  1  1
 20 21  1  6
 20 22  1  0
 21 14  1  0
 22 23  1  0
 24 22  2  0
M  END
$$$$
