TMI.pdb
     RDKit          3D

 24 23  0  0  1  0  0  0  0  0999 V2000
    8.9769  -18.2812   21.7420 C   0  0  0  0  0  0  0  0  0  0  0  0
    9.5909  -17.3777   20.7142 C   0  0  1  0  0  0  0  0  0  0  0  0
    9.5185  -18.0224   19.4673 O   0  0  0  0  0  0  0  0  0  0  0  0
    8.8388  -16.0591   20.6569 C   0  0  2  0  0  0  0  0  0  0  0  0
    9.3389  -15.3113   19.5410 N   0  0  0  0  0  0  0  0  0  0  0  0
    9.0918  -15.3342   21.9269 C   0  0  0  0  0  0  0  0  0  0  0  0
   10.1531  -14.7394   22.1974 O   0  0  0  0  0  0  0  0  0  0  0  0
    5.2290  -11.0757   25.7896 C   0  0  0  0  0  0  0  0  0  0  0  0
    5.4417  -12.7071   26.5327 S   0  0  0  0  0  0  0  0  0  0  0  0
    7.0358  -13.4279   26.0577 C   0  0  0  0  0  0  0  0  0  0  0  0
    6.8796  -14.0570   24.6763 C   0  0  0  0  0  0  0  0  0  0  0  0
    8.1890  -14.5800   24.1609 C   0  0  2  0  0  0  0  0  0  0  0  0
    8.0729  -15.3013   22.9155 N   0  0  0  0  0  0  0  0  0  0  0  0
    8.8365  -15.4817   25.1483 C   0  0  0  0  0  0  0  0  0  0  0  0
    8.8324  -16.7330   25.0190 O   0  0  0  0  0  0  0  0  0  0  0  0
   13.2091  -16.3199   28.3690 C   0  0  0  0  0  0  0  0  0  0  0  0
   12.0154  -15.7316   29.0346 C   0  0  0  0  0  0  0  0  0  0  0  0
   11.1222  -14.9434   28.1264 C   0  0  2  0  0  0  0  0  0  0  0  0
   10.1094  -14.2049   28.9754 C   0  0  0  0  0  0  0  0  0  0  0  0
   10.4161  -15.7634   27.0982 C   0  0  2  0  0  0  0  0  0  0  0  0
    9.5022  -14.9658   26.3049 N   0  0  0  0  0  0  0  0  0  0  0  0
    9.6368  -16.8215   27.7935 C   0  0  0  0  0  0  0  0  0  0  0  0
    8.2842  -16.6407   28.0277 O   0  0  0  0  0  0  0  0  0  0  0  0
   10.1515  -17.9032   28.1928 O   0  0  0  0  0  0  0  0  0  0  0  0
  2  1  1  1
  2  4  1  0
  3  2  1  0
  4  5  1  6
  6 13  1  0
  6  4  1  0
  7  6  2  0
  8  9  1  0
  9 10  1  0
 11 10  1  0
 12 11  1  1
 12 13  1  0
 14 15  2  0
 14 12  1  0
 16 17  1  0
 17 18  1  0
 18 20  1  0
 18 19  1  1
 20 21  1  1
 20 22  1  0
 21 14  1  0
 22 23  1  0
 24 22  2  0
M  END
$$$$
