TMI.pdb
     RDKit          3D

 24 23  0  0  1  0  0  0  0  0999 V2000
    9.2314  -17.1912   18.0921 C   0  0  0  0  0  0  0  0  0  0  0  0
    9.5799  -16.3929   19.3132 C   0  0  1  0  0  0  0  0  0  0  0  0
    8.8096  -15.2173   19.3005 O   0  0  0  0  0  0  0  0  0  0  0  0
    9.2780  -17.1933   20.5684 C   0  0  2  0  0  0  0  0  0  0  0  0
    7.8720  -17.4715   20.5895 N   0  0  0  0  0  0  0  0  0  0  0  0
    9.6647  -16.3682   21.7396 C   0  0  0  0  0  0  0  0  0  0  0  0
   10.8323  -16.0161   21.9967 O   0  0  0  0  0  0  0  0  0  0  0  0
    5.2051  -13.3164   26.0760 C   0  0  0  0  0  0  0  0  0  0  0  0
    6.6457  -12.2952   25.7008 S   0  0  0  0  0  0  0  0  0  0  0  0
    8.0933  -13.3284   25.3497 C   0  0  0  0  0  0  0  0  0  0  0  0
    7.7306  -14.2850   24.2176 C   0  0  0  0  0  0  0  0  0  0  0  0
    8.9137  -15.1058   23.7932 C   0  0  2  0  0  0  0  0  0  0  0  0
    8.6560  -15.9385   22.6422 N   0  0  0  0  0  0  0  0  0  0  0  0
    9.3826  -15.9865   24.8940 C   0  0  0  0  0  0  0  0  0  0  0  0
    9.2424  -17.2362   24.8604 O   0  0  0  0  0  0  0  0  0  0  0  0
   10.5679  -14.0406   30.1529 C   0  0  0  0  0  0  0  0  0  0  0  0
   10.0893  -14.8807   29.0219 C   0  0  0  0  0  0  0  0  0  0  0  0
   11.1795  -15.4987   28.2014 C   0  0  2  0  0  0  0  0  0  0  0  0
   12.1038  -14.3974   27.7276 C   0  0  0  0  0  0  0  0  0  0  0  0
   10.6937  -16.2876   27.0311 C   0  0  2  0  0  0  0  0  0  0  0  0
   10.0221  -15.4510   26.0564 N   0  0  0  0  0  0  0  0  0  0  0  0
    9.7300  -17.3093   27.5191 C   0  0  0  0  0  0  0  0  0  0  0  0
   10.1820  -18.3801   28.2715 O   0  0  0  0  0  0  0  0  0  0  0  0
    8.4914  -17.2545   27.2801 O   0  0  0  0  0  0  0  0  0  0  0  0
  2  1  1  6
  2  4  1  0
  3  2  1  0
  4  5  1  1
  6 13  1  0
  6  4  1  0
  7  6  2  0
  8  9  1  0
  9 10  1  0
 11 10  1  0
 12 11  1  1
 12 13  1  0
 14 15  2  0
 14 12  1  0
 16 17  1  0
 17 18  1  0
 18 20  1  0
 18 19  1  6
 20 21  1  6
 20 22  1  0
 21 14  1  0
 22 23  1  0
 24 22  2  0
M  END
$$$$
