TMI.pdb
     RDKit          3D

 24 23  0  0  1  0  0  0  0  0999 V2000
   11.1175  -18.0627   18.3441 C   0  0  0  0  0  0  0  0  0  0  0  0
   10.6164  -17.1127   19.3911 C   0  0  1  0  0  0  0  0  0  0  0  0
    9.2418  -16.9126   19.1768 O   0  0  0  0  0  0  0  0  0  0  0  0
   10.8431  -17.6910   20.7774 C   0  0  2  0  0  0  0  0  0  0  0  0
   10.0117  -18.8504   20.9156 N   0  0  0  0  0  0  0  0  0  0  0  0
   10.4647  -16.6557   21.7709 C   0  0  0  0  0  0  0  0  0  0  0  0
   11.0644  -15.5735   21.9216 O   0  0  0  0  0  0  0  0  0  0  0  0
    4.5836  -13.7885   24.9882 C   0  0  0  0  0  0  0  0  0  0  0  0
    5.3732  -15.3211   25.5235 S   0  0  0  0  0  0  0  0  0  0  0  0
    7.1652  -15.2483   25.2592 C   0  0  0  0  0  0  0  0  0  0  0  0
    7.4914  -16.0401   23.9963 C   0  0  0  0  0  0  0  0  0  0  0  0
    8.9611  -16.0066   23.6925 C   0  0  2  0  0  0  0  0  0  0  0  0
    9.3491  -16.8894   22.6179 N   0  0  0  0  0  0  0  0  0  0  0  0
    9.7677  -16.3656   24.8875 C   0  0  0  0  0  0  0  0  0  0  0  0
   10.4415  -17.4260   24.9494 O   0  0  0  0  0  0  0  0  0  0  0  0
   10.2321  -12.3369   28.6822 C   0  0  0  0  0  0  0  0  0  0  0  0
   10.7708  -13.4195   27.8152 C   0  0  0  0  0  0  0  0  0  0  0  0
   10.4515  -14.8067   28.2816 C   0  0  2  0  0  0  0  0  0  0  0  0
   11.3629  -15.1420   29.4429 C   0  0  0  0  0  0  0  0  0  0  0  0
   10.5764  -15.8529   27.2242 C   0  0  2  0  0  0  0  0  0  0  0  0
    9.8174  -15.5146   26.0366 N   0  0  0  0  0  0  0  0  0  0  0  0
   10.0559  -17.1355   27.7668 C   0  0  0  0  0  0  0  0  0  0  0  0
   10.9336  -18.0704   28.2891 O   0  0  0  0  0  0  0  0  0  0  0  0
    8.8277  -17.4281   27.7785 O   0  0  0  0  0  0  0  0  0  0  0  0
  2  1  1  6
  2  4  1  0
  3  2  1  0
  4  5  1  1
  6 13  1  0
  6  4  1  0
  7  6  2  0
  8  9  1  0
  9 10  1  0
 11 10  1  0
 12 11  1  1
 12 13  1  0
 14 15  2  0
 14 12  1  0
 16 17  1  0
 17 18  1  0
 18 20  1  0
 18 19  1  1
 20 21  1  6
 20 22  1  0
 21 14  1  0
 22 23  1  0
 24 22  2  0
M  END
$$$$
