TMI.pdb
     RDKit          3D

 24 23  0  0  1  0  0  0  0  0999 V2000
    9.1602  -18.2477   21.3387 C   0  0  0  0  0  0  0  0  0  0  0  0
    9.6146  -17.1369   20.4390 C   0  0  1  0  0  0  0  0  0  0  0  0
    9.5189  -17.5847   19.1102 O   0  0  0  0  0  0  0  0  0  0  0  0
    8.7390  -15.9109   20.6340 C   0  0  2  0  0  0  0  0  0  0  0  0
    9.0088  -14.9983   19.5622 N   0  0  0  0  0  0  0  0  0  0  0  0
    9.0920  -15.3014   21.9402 C   0  0  0  0  0  0  0  0  0  0  0  0
   10.1628  -14.7074   22.1723 O   0  0  0  0  0  0  0  0  0  0  0  0
    6.4854  -11.6970   26.9361 C   0  0  0  0  0  0  0  0  0  0  0  0
    5.4480  -12.4438   25.6614 S   0  0  0  0  0  0  0  0  0  0  0  0
    6.4636  -13.2665   24.4053 C   0  0  0  0  0  0  0  0  0  0  0  0
    7.1537  -14.4599   25.0596 C   0  0  0  0  0  0  0  0  0  0  0  0
    8.4076  -14.8380   24.3259 C   0  0  2  0  0  0  0  0  0  0  0  0
    8.1652  -15.3871   23.0128 N   0  0  0  0  0  0  0  0  0  0  0  0
    9.2031  -15.8312   25.0928 C   0  0  0  0  0  0  0  0  0  0  0  0
    9.7573  -16.8172   24.5423 O   0  0  0  0  0  0  0  0  0  0  0  0
   10.9058  -13.3184   29.6405 C   0  0  0  0  0  0  0  0  0  0  0  0
   11.0032  -14.0719   28.3611 C   0  0  0  0  0  0  0  0  0  0  0  0
   10.7871  -15.5485   28.4910 C   0  0  2  0  0  0  0  0  0  0  0  0
   11.9978  -16.1505   29.1719 C   0  0  0  0  0  0  0  0  0  0  0  0
   10.5373  -16.2476   27.1960 C   0  0  2  0  0  0  0  0  0  0  0  0
    9.3789  -15.7133   26.5078 N   0  0  0  0  0  0  0  0  0  0  0  0
   10.2960  -17.6875   27.4770 C   0  0  0  0  0  0  0  0  0  0  0  0
    9.0022  -18.1494   27.6493 O   0  0  0  0  0  0  0  0  0  0  0  0
   11.2278  -18.5346   27.5698 O   0  0  0  0  0  0  0  0  0  0  0  0
  2  1  1  1
  2  4  1  0
  3  2  1  0
  4  5  1  6
  6 13  1  0
  6  4  1  0
  7  6  2  0
  8  9  1  0
  9 10  1  0
 11 10  1  0
 12 11  1  1
 12 13  1  0
 14 15  2  0
 14 12  1  0
 16 17  1  0
 17 18  1  0
 18 20  1  0
 18 19  1  6
 20 21  1  1
 20 22  1  0
 21 14  1  0
 22 23  1  0
 24 22  2  0
M  END
$$$$
