TMI.pdb
     RDKit          3D

 24 23  0  0  1  0  0  0  0  0999 V2000
    8.2171  -19.5853   20.4059 C   0  0  0  0  0  0  0  0  0  0  0  0
    8.7322  -18.4976   21.3012 C   0  0  1  0  0  0  0  0  0  0  0  0
   10.1189  -18.6733   21.4480 O   0  0  0  0  0  0  0  0  0  0  0  0
    8.4470  -17.1358   20.6915 C   0  0  2  0  0  0  0  0  0  0  0  0
    9.1400  -17.0566   19.4393 N   0  0  0  0  0  0  0  0  0  0  0  0
    8.9465  -16.1017   21.6312 C   0  0  0  0  0  0  0  0  0  0  0  0
   10.0582  -15.5459   21.5386 O   0  0  0  0  0  0  0  0  0  0  0  0
    4.9280  -12.7771   25.6526 C   0  0  0  0  0  0  0  0  0  0  0  0
    6.4873  -11.8760   25.7776 S   0  0  0  0  0  0  0  0  0  0  0  0
    7.8832  -12.9388   25.3212 C   0  0  0  0  0  0  0  0  0  0  0  0
    7.3937  -13.9469   24.2856 C   0  0  0  0  0  0  0  0  0  0  0  0
    8.5301  -14.7505   23.7230 C   0  0  2  0  0  0  0  0  0  0  0  0
    8.1222  -15.7014   22.7161 N   0  0  0  0  0  0  0  0  0  0  0  0
    9.2429  -15.4985   24.7906 C   0  0  0  0  0  0  0  0  0  0  0  0
    9.2701  -16.7556   24.8264 O   0  0  0  0  0  0  0  0  0  0  0  0
   11.4243  -14.5800   30.5258 C   0  0  0  0  0  0  0  0  0  0  0  0
   11.4923  -15.3470   29.2526 C   0  0  0  0  0  0  0  0  0  0  0  0
   10.9116  -14.6380   28.0677 C   0  0  2  0  0  0  0  0  0  0  0  0
    9.6373  -13.9458   28.5023 C   0  0  0  0  0  0  0  0  0  0  0  0
   10.6309  -15.5245   26.9000 C   0  0  2  0  0  0  0  0  0  0  0  0
    9.9393  -14.8189   25.8394 N   0  0  0  0  0  0  0  0  0  0  0  0
    9.7712  -16.6479   27.3575 C   0  0  0  0  0  0  0  0  0  0  0  0
    8.4240  -16.6599   27.0382 O   0  0  0  0  0  0  0  0  0  0  0  0
   10.2111  -17.6163   28.0380 O   0  0  0  0  0  0  0  0  0  0  0  0
  2  1  1  6
  2  4  1  0
  3  2  1  0
  4  5  1  6
  6 13  1  0
  6  4  1  0
  7  6  2  0
  8  9  1  0
  9 10  1  0
 11 10  1  0
 12 11  1  1
 12 13  1  0
 14 15  2  0
 14 12  1  0
 16 17  1  0
 17 18  1  0
 18 20  1  0
 18 19  1  1
 20 21  1  6
 20 22  1  0
 21 14  1  0
 22 23  1  0
 24 22  2  0
M  END
$$$$
