DCM.pdb
     RDKit          3D

 23 22  0  0  1  0  0  0  0  0999 V2000
    8.9845  -18.7867   20.5758 N   0  0  0  0  0  0  0  0  0  0  0  0
   10.2386  -18.0898   20.5144 C   0  0  1  0  0  0  0  0  0  0  0  0
   10.7140  -17.9980   19.0846 C   0  0  0  0  0  0  0  0  0  0  0  0
   10.0927  -18.9812   18.1888 C   0  0  0  0  0  0  0  0  0  0  0  0
    9.9468  -20.1861   18.4389 O   0  0  0  0  0  0  0  0  0  0  0  0
   10.0683  -16.6932   20.9861 C   0  0  0  0  0  0  0  0  0  0  0  0
   11.0291  -15.9056   20.8169 O   0  0  0  0  0  0  0  0  0  0  0  0
    9.6271  -18.5262   16.9544 O   0  0  0  0  0  0  0  0  0  0  0  0
    8.8863  -16.2554   21.5984 N   0  0  0  0  0  0  0  0  0  0  0  0
    8.6970  -14.8847   22.0799 C   0  0  1  0  0  0  0  0  0  0  0  0
    7.2225  -14.5912   22.2268 C   0  0  0  0  0  0  0  0  0  0  0  0
    6.3167  -15.4503   20.9312 S   0  0  0  0  0  0  0  0  0  0  0  0
    9.2804  -14.8560   23.4553 C   0  0  0  0  0  0  0  0  0  0  0  0
    8.7980  -14.0144   24.2540 O   0  0  0  0  0  0  0  0  0  0  0  0
   10.3713  -12.8239   28.9644 C   0  0  0  0  0  0  0  0  0  0  0  0
    9.6976  -14.4818   28.9395 S   0  0  0  0  0  0  0  0  0  0  0  0
   10.5654  -15.5500   27.7243 C   0  0  0  0  0  0  0  0  0  0  0  0
    9.8953  -15.4669   26.3766 C   0  0  0  0  0  0  0  0  0  0  0  0
   10.8743  -15.6761   25.2533 C   0  0  2  0  0  0  0  0  0  0  0  0
   10.2977  -15.6664   23.9372 N   0  0  0  0  0  0  0  0  0  0  0  0
   11.5478  -16.9751   25.4028 C   0  0  0  0  0  0  0  0  0  0  0  0
   12.4026  -17.1423   26.4881 O   0  0  0  0  0  0  0  0  0  0  0  0
   11.3866  -17.9259   24.6043 O   0  0  0  0  0  0  0  0  0  0  0  0
  2  1  1  6
  2  3  1  0
  3  4  1  0
  4  5  2  0
  4  8  1  0
  6  9  1  0
  6  2  1  0
  7  6  2  0
 10 13  1  0
 10  9  1  0
 10 11  1  1
 11 12  1  0
 13 20  1  0
 14 13  2  0
 16 15  1  0
 17 16  1  0
 18 17  1  0
 19 18  1  1
 19 21  1  0
 20 19  1  0
 21 22  1  0
 23 21  2  0
M  END
$$$$
