DCM.pdb
     RDKit          3D

 23 22  0  0  1  0  0  0  0  0999 V2000
    9.8316  -18.8466   19.3663 N   0  0  0  0  0  0  0  0  0  0  0  0
    9.1811  -17.5906   19.1179 C   0  0  1  0  0  0  0  0  0  0  0  0
    8.3383  -17.6787   17.8685 C   0  0  0  0  0  0  0  0  0  0  0  0
    9.1121  -17.9391   16.6484 C   0  0  0  0  0  0  0  0  0  0  0  0
   10.1343  -18.6367   16.5839 O   0  0  0  0  0  0  0  0  0  0  0  0
    8.2480  -17.2728   20.2270 C   0  0  0  0  0  0  0  0  0  0  0  0
    7.4053  -16.3654   20.0302 O   0  0  0  0  0  0  0  0  0  0  0  0
    8.6635  -17.3556   15.4627 O   0  0  0  0  0  0  0  0  0  0  0  0
    8.2931  -17.9509   21.4524 N   0  0  0  0  0  0  0  0  0  0  0  0
    7.3767  -17.6625   22.5587 C   0  0  1  0  0  0  0  0  0  0  0  0
    7.0583  -18.9356   23.3068 C   0  0  0  0  0  0  0  0  0  0  0  0
    6.1611  -18.5284   24.8121 S   0  0  0  0  0  0  0  0  0  0  0  0
    8.1425  -16.7905   23.5000 C   0  0  0  0  0  0  0  0  0  0  0  0
    9.3553  -17.0727   23.6685 O   0  0  0  0  0  0  0  0  0  0  0  0
    5.4831  -12.0491   27.3337 C   0  0  0  0  0  0  0  0  0  0  0  0
    7.2249  -11.6902   27.5356 S   0  0  0  0  0  0  0  0  0  0  0  0
    8.2788  -13.0007   26.7989 C   0  0  0  0  0  0  0  0  0  0  0  0
    7.4972  -13.7984   25.7864 C   0  0  0  0  0  0  0  0  0  0  0  0
    8.3342  -14.8829   25.1645 C   0  0  2  0  0  0  0  0  0  0  0  0
    7.6487  -15.7013   24.2027 N   0  0  0  0  0  0  0  0  0  0  0  0
    8.8367  -15.7948   26.2035 C   0  0  0  0  0  0  0  0  0  0  0  0
   10.1385  -15.6070   26.6580 O   0  0  0  0  0  0  0  0  0  0  0  0
    8.1508  -16.7219   26.6909 O   0  0  0  0  0  0  0  0  0  0  0  0
  2  1  1  1
  2  3  1  0
  3  4  1  0
  4  5  2  0
  4  8  1  0
  6  9  1  0
  6  2  1  0
  7  6  2  0
 10 13  1  0
 10  9  1  0
 10 11  1  1
 11 12  1  0
 13 20  1  0
 14 13  2  0
 16 15  1  0
 17 16  1  0
 18 17  1  0
 19 18  1  1
 19 21  1  0
 20 19  1  0
 21 22  1  0
 23 21  2  0
M  END
$$$$
