DCM.pdb
     RDKit          3D

 23 22  0  0  1  0  0  0  0  0999 V2000
   10.9061  -18.8798   19.8024 N   0  0  0  0  0  0  0  0  0  0  0  0
   11.7155  -17.7651   20.2080 C   0  0  1  0  0  0  0  0  0  0  0  0
   12.2828  -17.0652   18.9967 C   0  0  0  0  0  0  0  0  0  0  0  0
   13.3545  -17.8129   18.3278 C   0  0  0  0  0  0  0  0  0  0  0  0
   13.4373  -18.0080   17.1067 O   0  0  0  0  0  0  0  0  0  0  0  0
   10.8818  -16.7616   20.9151 C   0  0  0  0  0  0  0  0  0  0  0  0
   11.3886  -15.6338   21.1232 O   0  0  0  0  0  0  0  0  0  0  0  0
   14.3643  -18.3490   19.1281 O   0  0  0  0  0  0  0  0  0  0  0  0
    9.5773  -17.0470   21.3400 N   0  0  0  0  0  0  0  0  0  0  0  0
    8.7195  -16.0606   22.0019 C   0  0  1  0  0  0  0  0  0  0  0  0
    7.2706  -16.4639   21.8613 C   0  0  0  0  0  0  0  0  0  0  0  0
    6.7429  -16.1910   20.1631 S   0  0  0  0  0  0  0  0  0  0  0  0
    9.0514  -16.1485   23.4562 C   0  0  0  0  0  0  0  0  0  0  0  0
    9.3327  -17.2894   23.9014 O   0  0  0  0  0  0  0  0  0  0  0  0
    7.2534  -10.2247   26.6417 C   0  0  0  0  0  0  0  0  0  0  0  0
    6.7215  -11.9197   26.8589 S   0  0  0  0  0  0  0  0  0  0  0  0
    7.2278  -12.9774   25.4462 C   0  0  0  0  0  0  0  0  0  0  0  0
    7.2084  -14.4315   25.8431 C   0  0  0  0  0  0  0  0  0  0  0  0
    8.5650  -15.0665   25.7008 C   0  0  2  0  0  0  0  0  0  0  0  0
    9.0822  -15.0974   24.3606 N   0  0  0  0  0  0  0  0  0  0  0  0
    8.5226  -16.4624   26.1625 C   0  0  0  0  0  0  0  0  0  0  0  0
    9.0342  -16.7445   27.4255 O   0  0  0  0  0  0  0  0  0  0  0  0
    8.0511  -17.3969   25.4754 O   0  0  0  0  0  0  0  0  0  0  0  0
  2  1  1  6
  2  3  1  0
  3  4  1  0
  4  5  2  0
  4  8  1  0
  6  9  1  0
  6  2  1  0
  7  6  2  0
 10 13  1  0
 10  9  1  0
 10 11  1  1
 11 12  1  0
 13 20  1  0
 14 13  2  0
 16 15  1  0
 17 16  1  0
 18 17  1  0
 19 18  1  6
 19 21  1  0
 20 19  1  0
 21 22  1  0
 23 21  2  0
M  END
$$$$
