DCM.pdb
     RDKit          3D

 23 22  0  0  1  0  0  0  0  0999 V2000
   11.9198  -16.9716   18.1794 N   0  0  0  0  0  0  0  0  0  0  0  0
   12.0560  -17.6326   19.4470 C   0  0  1  0  0  0  0  0  0  0  0  0
   13.5134  -17.7345   19.8273 C   0  0  0  0  0  0  0  0  0  0  0  0
   14.2780  -18.6750   18.9991 C   0  0  0  0  0  0  0  0  0  0  0  0
   13.9474  -19.8433   18.7512 O   0  0  0  0  0  0  0  0  0  0  0  0
   11.4039  -16.8307   20.5116 C   0  0  0  0  0  0  0  0  0  0  0  0
   11.8843  -15.6990   20.7580 O   0  0  0  0  0  0  0  0  0  0  0  0
   15.4749  -18.2205   18.4437 O   0  0  0  0  0  0  0  0  0  0  0  0
   10.2936  -17.3046   21.2232 N   0  0  0  0  0  0  0  0  0  0  0  0
    9.5090  -16.4640   22.1312 C   0  0  1  0  0  0  0  0  0  0  0  0
    8.0695  -16.9216   22.1394 C   0  0  0  0  0  0  0  0  0  0  0  0
    7.1226  -15.8750   23.2551 S   0  0  0  0  0  0  0  0  0  0  0  0
   10.0526  -16.7293   23.4976 C   0  0  0  0  0  0  0  0  0  0  0  0
   10.7244  -17.7813   23.6417 O   0  0  0  0  0  0  0  0  0  0  0  0
    9.6133  -12.5590   28.6185 C   0  0  0  0  0  0  0  0  0  0  0  0
   10.6303  -13.8338   29.3559 S   0  0  0  0  0  0  0  0  0  0  0  0
   10.8006  -15.2909   28.2521 C   0  0  0  0  0  0  0  0  0  0  0  0
   10.2364  -14.9871   26.8876 C   0  0  0  0  0  0  0  0  0  0  0  0
   10.4091  -16.1449   25.9424 C   0  0  2  0  0  0  0  0  0  0  0  0
    9.8914  -15.9297   24.6194 N   0  0  0  0  0  0  0  0  0  0  0  0
    9.7243  -17.3357   26.4684 C   0  0  0  0  0  0  0  0  0  0  0  0
   10.4355  -18.1670   27.3284 O   0  0  0  0  0  0  0  0  0  0  0  0
    8.5422  -17.6297   26.1787 O   0  0  0  0  0  0  0  0  0  0  0  0
  2  1  1  6
  2  3  1  0
  3  4  1  0
  4  5  2  0
  4  8  1  0
  6  9  1  0
  6  2  1  0
  7  6  2  0
 10 13  1  0
 10  9  1  0
 10 11  1  1
 11 12  1  0
 13 20  1  0
 14 13  2  0
 16 15  1  0
 17 16  1  0
 18 17  1  0
 19 18  1  1
 19 21  1  0
 20 19  1  0
 21 22  1  0
 23 21  2  0
M  END
$$$$
