DCM.pdb
     RDKit          3D

 23 22  0  0  1  0  0  0  0  0999 V2000
   10.8343  -19.2357   20.2089 N   0  0  0  0  0  0  0  0  0  0  0  0
    9.8566  -18.8373   21.1824 C   0  0  1  0  0  0  0  0  0  0  0  0
   10.1796  -19.4475   22.5249 C   0  0  0  0  0  0  0  0  0  0  0  0
   10.5636  -20.8627   22.4559 C   0  0  0  0  0  0  0  0  0  0  0  0
   11.6693  -21.3212   22.7767 O   0  0  0  0  0  0  0  0  0  0  0  0
    9.8991  -17.3664   21.3736 C   0  0  0  0  0  0  0  0  0  0  0  0
   11.0282  -16.8262   21.4472 O   0  0  0  0  0  0  0  0  0  0  0  0
    9.6089  -21.7688   21.9921 O   0  0  0  0  0  0  0  0  0  0  0  0
    8.7323  -16.5963   21.4697 N   0  0  0  0  0  0  0  0  0  0  0  0
    8.7431  -15.1316   21.5048 C   0  0  1  0  0  0  0  0  0  0  0  0
    7.4235  -14.5963   21.0005 C   0  0  0  0  0  0  0  0  0  0  0  0
    6.0816  -15.5407   21.7382 S   0  0  0  0  0  0  0  0  0  0  0  0
    8.8327  -14.7633   22.9502 C   0  0  0  0  0  0  0  0  0  0  0  0
    9.0368  -13.5511   23.2106 O   0  0  0  0  0  0  0  0  0  0  0  0
    7.4760  -11.5648   25.9934 C   0  0  0  0  0  0  0  0  0  0  0  0
    6.5749  -12.4868   27.2349 S   0  0  0  0  0  0  0  0  0  0  0  0
    6.8004  -14.2977   27.0336 C   0  0  0  0  0  0  0  0  0  0  0  0
    7.0493  -14.6401   25.5869 C   0  0  0  0  0  0  0  0  0  0  0  0
    8.3883  -15.2980   25.3920 C   0  0  2  0  0  0  0  0  0  0  0  0
    8.7106  -15.6248   24.0303 N   0  0  0  0  0  0  0  0  0  0  0  0
    8.4491  -16.5584   26.1478 C   0  0  0  0  0  0  0  0  0  0  0  0
    8.3667  -17.7492   25.4324 O   0  0  0  0  0  0  0  0  0  0  0  0
    8.5704  -16.6049   27.3930 O   0  0  0  0  0  0  0  0  0  0  0  0
  2  1  1  6
  2  3  1  0
  3  4  1  0
  4  5  2  0
  4  8  1  0
  6  9  1  0
  6  2  1  0
  7  6  2  0
 10 13  1  0
 10  9  1  0
 10 11  1  1
 11 12  1  0
 13 20  1  0
 14 13  2  0
 16 15  1  0
 17 16  1  0
 18 17  1  0
 19 18  1  6
 19 21  1  0
 20 19  1  0
 21 22  1  0
 23 21  2  0
M  END
$$$$
