DCM.pdb
     RDKit          3D

 23 22  0  0  1  0  0  0  0  0999 V2000
   10.2251  -19.4757   19.4864 N   0  0  0  0  0  0  0  0  0  0  0  0
    9.8299  -18.0964   19.4260 C   0  0  1  0  0  0  0  0  0  0  0  0
    9.2124  -17.7898   18.0830 C   0  0  0  0  0  0  0  0  0  0  0  0
   10.0126  -18.2534   16.9428 C   0  0  0  0  0  0  0  0  0  0  0  0
    9.6515  -19.0976   16.1106 O   0  0  0  0  0  0  0  0  0  0  0  0
    8.7797  -17.8233   20.4382 C   0  0  0  0  0  0  0  0  0  0  0  0
    7.7879  -17.1485   20.0733 O   0  0  0  0  0  0  0  0  0  0  0  0
   11.2837  -17.7009   16.7791 O   0  0  0  0  0  0  0  0  0  0  0  0
    8.8770  -18.2940   21.7545 N   0  0  0  0  0  0  0  0  0  0  0  0
    7.8899  -17.9785   22.7902 C   0  0  1  0  0  0  0  0  0  0  0  0
    7.6088  -19.2072   23.6228 C   0  0  0  0  0  0  0  0  0  0  0  0
    6.5558  -18.7537   25.0093 S   0  0  0  0  0  0  0  0  0  0  0  0
    8.5540  -16.9899   23.6927 C   0  0  0  0  0  0  0  0  0  0  0  0
    9.7800  -17.1602   23.9092 O   0  0  0  0  0  0  0  0  0  0  0  0
    5.5908  -11.6661   26.3824 C   0  0  0  0  0  0  0  0  0  0  0  0
    7.3129  -11.2914   26.6941 S   0  0  0  0  0  0  0  0  0  0  0  0
    8.3939  -12.7385   26.3651 C   0  0  0  0  0  0  0  0  0  0  0  0
    7.6747  -13.7497   25.5093 C   0  0  0  0  0  0  0  0  0  0  0  0
    8.5703  -14.8981   25.1315 C   0  0  2  0  0  0  0  0  0  0  0  0
    7.9529  -15.9039   24.3118 N   0  0  0  0  0  0  0  0  0  0  0  0
    9.0521  -15.5845   26.3399 C   0  0  0  0  0  0  0  0  0  0  0  0
    8.3255  -16.6794   26.7981 O   0  0  0  0  0  0  0  0  0  0  0  0
   10.0762  -15.2297   26.9666 O   0  0  0  0  0  0  0  0  0  0  0  0
  2  1  1  6
  2  3  1  0
  3  4  1  0
  4  5  2  0
  4  8  1  0
  6  9  1  0
  6  2  1  0
  7  6  2  0
 10 13  1  0
 10  9  1  0
 10 11  1  1
 11 12  1  0
 13 20  1  0
 14 13  2  0
 16 15  1  0
 17 16  1  0
 18 17  1  0
 19 18  1  1
 19 21  1  0
 20 19  1  0
 21 22  1  0
 23 21  2  0
M  END
$$$$
