DCM.pdb
     RDKit          3D

 23 22  0  0  1  0  0  0  0  0999 V2000
   11.6798  -18.7814   19.8993 N   0  0  0  0  0  0  0  0  0  0  0  0
   12.4024  -17.6202   20.3374 C   0  0  1  0  0  0  0  0  0  0  0  0
   13.2074  -17.0464   19.1965 C   0  0  0  0  0  0  0  0  0  0  0  0
   14.2677  -17.9384   18.7116 C   0  0  0  0  0  0  0  0  0  0  0  0
   15.0739  -18.5484   19.4284 O   0  0  0  0  0  0  0  0  0  0  0  0
   11.4538  -16.5573   20.7524 C   0  0  0  0  0  0  0  0  0  0  0  0
   11.8069  -15.3672   20.5754 O   0  0  0  0  0  0  0  0  0  0  0  0
   14.3805  -18.1168   17.3321 O   0  0  0  0  0  0  0  0  0  0  0  0
   10.2080  -16.8547   21.3210 N   0  0  0  0  0  0  0  0  0  0  0  0
    9.2538  -15.8237   21.7374 C   0  0  1  0  0  0  0  0  0  0  0  0
    7.8838  -16.1389   21.1847 C   0  0  0  0  0  0  0  0  0  0  0  0
    6.6803  -15.0164   21.9117 S   0  0  0  0  0  0  0  0  0  0  0  0
    9.1557  -15.9414   23.2238 C   0  0  0  0  0  0  0  0  0  0  0  0
    8.7187  -17.0298   23.6746 O   0  0  0  0  0  0  0  0  0  0  0  0
    6.0414  -10.5960   25.9139 C   0  0  0  0  0  0  0  0  0  0  0  0
    7.1433  -11.7470   26.7289 S   0  0  0  0  0  0  0  0  0  0  0  0
    6.7435  -13.4878   26.3040 C   0  0  0  0  0  0  0  0  0  0  0  0
    7.4473  -13.8954   25.0349 C   0  0  0  0  0  0  0  0  0  0  0  0
    8.7673  -14.5596   25.3180 C   0  0  2  0  0  0  0  0  0  0  0  0
    9.5009  -14.9712   24.1530 N   0  0  0  0  0  0  0  0  0  0  0  0
    8.5628  -15.7692   26.1296 C   0  0  0  0  0  0  0  0  0  0  0  0
    7.9862  -16.8753   25.5127 O   0  0  0  0  0  0  0  0  0  0  0  0
    8.8818  -15.8450   27.3379 O   0  0  0  0  0  0  0  0  0  0  0  0
  2  1  1  6
  2  3  1  0
  3  4  1  0
  4  5  2  0
  4  8  1  0
  6  9  1  0
  6  2  1  0
  7  6  2  0
 10 13  1  0
 10  9  1  0
 10 11  1  6
 11 12  1  0
 13 20  1  0
 14 13  2  0
 16 15  1  0
 17 16  1  0
 18 17  1  0
 19 18  1  6
 19 21  1  0
 20 19  1  0
 21 22  1  0
 23 21  2  0
M  END
$$$$
