DCM.pdb
     RDKit          3D

 23 22  0  0  1  0  0  0  0  0999 V2000
   11.4267  -17.0355   18.2635 N   0  0  0  0  0  0  0  0  0  0  0  0
   11.6267  -17.7525   19.4916 C   0  0  1  0  0  0  0  0  0  0  0  0
   13.0708  -17.6574   19.9211 C   0  0  0  0  0  0  0  0  0  0  0  0
   14.0065  -18.3226   19.0062 C   0  0  0  0  0  0  0  0  0  0  0  0
   15.0401  -17.8166   18.5463 O   0  0  0  0  0  0  0  0  0  0  0  0
   10.8284  -17.1330   20.5783 C   0  0  0  0  0  0  0  0  0  0  0  0
   10.7307  -15.8829   20.5820 O   0  0  0  0  0  0  0  0  0  0  0  0
   13.7121  -19.6311   18.6206 O   0  0  0  0  0  0  0  0  0  0  0  0
   10.2015  -17.9005   21.5690 N   0  0  0  0  0  0  0  0  0  0  0  0
    9.2379  -17.3421   22.5210 C   0  0  1  0  0  0  0  0  0  0  0  0
    8.0409  -18.2565   22.6358 C   0  0  0  0  0  0  0  0  0  0  0  0
    6.9693  -17.6650   23.9544 S   0  0  0  0  0  0  0  0  0  0  0  0
    9.9239  -17.3627   23.8484 C   0  0  0  0  0  0  0  0  0  0  0  0
   10.6402  -18.3648   24.0964 O   0  0  0  0  0  0  0  0  0  0  0  0
    9.4752  -12.5934   28.6309 C   0  0  0  0  0  0  0  0  0  0  0  0
   10.8647  -13.5996   29.1409 S   0  0  0  0  0  0  0  0  0  0  0  0
   10.8664  -15.2323   28.3011 C   0  0  0  0  0  0  0  0  0  0  0  0
   10.3814  -15.0946   26.8805 C   0  0  0  0  0  0  0  0  0  0  0  0
   10.4303  -16.4062   26.1450 C   0  0  2  0  0  0  0  0  0  0  0  0
    9.8503  -16.3861   24.8306 N   0  0  0  0  0  0  0  0  0  0  0  0
    9.7081  -17.4398   26.9025 C   0  0  0  0  0  0  0  0  0  0  0  0
   10.4347  -18.2095   27.8060 O   0  0  0  0  0  0  0  0  0  0  0  0
    8.4816  -17.6540   26.7706 O   0  0  0  0  0  0  0  0  0  0  0  0
  2  1  1  6
  2  3  1  0
  3  4  1  0
  4  5  2  0
  4  8  1  0
  6  9  1  0
  6  2  1  0
  7  6  2  0
 10 13  1  0
 10  9  1  0
 10 11  1  1
 11 12  1  0
 13 20  1  0
 14 13  2  0
 16 15  1  0
 17 16  1  0
 18 17  1  0
 19 18  1  1
 19 21  1  0
 20 19  1  0
 21 22  1  0
 23 21  2  0
M  END
$$$$
