DCM.pdb
     RDKit          3D

 23 22  0  0  1  0  0  0  0  0999 V2000
    9.7878  -19.5259   18.1908 N   0  0  0  0  0  0  0  0  0  0  0  0
   10.1834  -18.4103   19.0040 C   0  0  1  0  0  0  0  0  0  0  0  0
   10.4474  -17.2022   18.1381 C   0  0  0  0  0  0  0  0  0  0  0  0
   11.6743  -17.3028   17.3383 C   0  0  0  0  0  0  0  0  0  0  0  0
   11.7640  -17.0462   16.1292 O   0  0  0  0  0  0  0  0  0  0  0  0
    9.0791  -18.0316   19.9200 C   0  0  0  0  0  0  0  0  0  0  0  0
    8.0414  -17.5512   19.4055 O   0  0  0  0  0  0  0  0  0  0  0  0
   12.8363  -17.7207   17.9884 O   0  0  0  0  0  0  0  0  0  0  0  0
    9.1758  -18.1981   21.3080 N   0  0  0  0  0  0  0  0  0  0  0  0
    8.0445  -17.9969   22.2170 C   0  0  1  0  0  0  0  0  0  0  0  0
    7.5801  -19.3275   22.7609 C   0  0  0  0  0  0  0  0  0  0  0  0
    8.9900  -20.2114   23.4447 S   0  0  0  0  0  0  0  0  0  0  0  0
    8.5894  -17.2254   23.3749 C   0  0  0  0  0  0  0  0  0  0  0  0
    9.8310  -17.2870   23.5581 O   0  0  0  0  0  0  0  0  0  0  0  0
    6.8510  -10.5182   26.0021 C   0  0  0  0  0  0  0  0  0  0  0  0
    6.4204  -12.2274   26.3127 S   0  0  0  0  0  0  0  0  0  0  0  0
    7.7258  -13.3755   25.7220 C   0  0  0  0  0  0  0  0  0  0  0  0
    7.3616  -14.8010   26.0499 C   0  0  0  0  0  0  0  0  0  0  0  0
    8.3328  -15.7779   25.4448 C   0  0  2  0  0  0  0  0  0  0  0  0
    7.8622  -16.4478   24.2640 N   0  0  0  0  0  0  0  0  0  0  0  0
    8.6644  -16.8313   26.4164 C   0  0  0  0  0  0  0  0  0  0  0  0
    9.6633  -16.5645   27.3479 O   0  0  0  0  0  0  0  0  0  0  0  0
    8.0926  -17.9449   26.4409 O   0  0  0  0  0  0  0  0  0  0  0  0
  2  1  1  6
  2  3  1  0
  3  4  1  0
  4  5  2  0
  4  8  1  0
  6  9  1  0
  6  2  1  0
  7  6  2  0
 10 13  1  0
 10  9  1  0
 10 11  1  1
 11 12  1  0
 13 20  1  0
 14 13  2  0
 16 15  1  0
 17 16  1  0
 18 17  1  0
 19 18  1  1
 19 21  1  0
 20 19  1  0
 21 22  1  0
 23 21  2  0
M  END
$$$$
