DCM.pdb
     RDKit          3D

 23 22  0  0  1  0  0  0  0  0999 V2000
   10.1437  -18.5565   20.1261 N   0  0  0  0  0  0  0  0  0  0  0  0
   11.1174  -17.5145   20.2947 C   0  0  1  0  0  0  0  0  0  0  0  0
   11.8199  -17.2415   18.9867 C   0  0  0  0  0  0  0  0  0  0  0  0
   12.6993  -18.3317   18.5472 C   0  0  0  0  0  0  0  0  0  0  0  0
   12.3383  -19.3286   17.9057 O   0  0  0  0  0  0  0  0  0  0  0  0
   10.4458  -16.2479   20.6778 C   0  0  0  0  0  0  0  0  0  0  0  0
   11.0276  -15.1756   20.3881 O   0  0  0  0  0  0  0  0  0  0  0  0
   14.0526  -18.2421   18.8764 O   0  0  0  0  0  0  0  0  0  0  0  0
    9.2096  -16.2332   21.3376 N   0  0  0  0  0  0  0  0  0  0  0  0
    8.5242  -14.9964   21.7215 C   0  0  1  0  0  0  0  0  0  0  0  0
    7.2482  -14.8487   20.9266 C   0  0  0  0  0  0  0  0  0  0  0  0
    6.2152  -16.2976   21.1918 S   0  0  0  0  0  0  0  0  0  0  0  0
    8.1228  -15.1838   23.1486 C   0  0  0  0  0  0  0  0  0  0  0  0
    6.8927  -15.3006   23.3766 O   0  0  0  0  0  0  0  0  0  0  0  0
    5.8641  -11.4086   27.6160 C   0  0  0  0  0  0  0  0  0  0  0  0
    7.3219  -12.1010   26.8422 S   0  0  0  0  0  0  0  0  0  0  0  0
    6.8863  -13.2685   25.4939 C   0  0  0  0  0  0  0  0  0  0  0  0
    7.2104  -14.6842   25.8975 C   0  0  0  0  0  0  0  0  0  0  0  0
    8.6506  -15.0254   25.6269 C   0  0  2  0  0  0  0  0  0  0  0  0
    8.9721  -15.2439   24.2436 N   0  0  0  0  0  0  0  0  0  0  0  0
    9.0228  -16.2569   26.3400 C   0  0  0  0  0  0  0  0  0  0  0  0
    9.0579  -16.2167   27.7305 O   0  0  0  0  0  0  0  0  0  0  0  0
    9.3061  -17.3274   25.7558 O   0  0  0  0  0  0  0  0  0  0  0  0
  2  1  1  6
  2  3  1  0
  3  4  1  0
  4  5  2  0
  4  8  1  0
  6  9  1  0
  6  2  1  0
  7  6  2  0
 10 13  1  0
 10  9  1  0
 10 11  1  6
 11 12  1  0
 13 20  1  0
 14 13  2  0
 16 15  1  0
 17 16  1  0
 18 17  1  0
 19 18  1  6
 19 21  1  0
 20 19  1  0
 21 22  1  0
 23 21  2  0
M  END
$$$$
