DCM.pdb
     RDKit          3D

 23 22  0  0  1  0  0  0  0  0999 V2000
   11.7632  -19.7049   20.7966 N   0  0  0  0  0  0  0  0  0  0  0  0
   11.2235  -18.5352   20.1621 C   0  0  1  0  0  0  0  0  0  0  0  0
   10.3270  -18.9321   19.0141 C   0  0  0  0  0  0  0  0  0  0  0  0
   10.0527  -17.8408   18.0713 C   0  0  0  0  0  0  0  0  0  0  0  0
   10.4872  -16.6842   18.1684 O   0  0  0  0  0  0  0  0  0  0  0  0
   10.3691  -17.7868   21.1169 C   0  0  0  0  0  0  0  0  0  0  0  0
   10.3092  -16.5414   20.9843 O   0  0  0  0  0  0  0  0  0  0  0  0
    9.2370  -18.1245   16.9750 O   0  0  0  0  0  0  0  0  0  0  0  0
    9.6503  -18.4313   22.1326 N   0  0  0  0  0  0  0  0  0  0  0  0
    8.8512  -17.7099   23.1264 C   0  0  1  0  0  0  0  0  0  0  0  0
    7.7096  -18.5802   23.5970 C   0  0  0  0  0  0  0  0  0  0  0  0
    6.7531  -17.6851   24.8301 S   0  0  0  0  0  0  0  0  0  0  0  0
    9.7526  -17.5103   24.3013 C   0  0  0  0  0  0  0  0  0  0  0  0
   10.5882  -18.4203   24.5308 O   0  0  0  0  0  0  0  0  0  0  0  0
    8.8368  -12.8593   28.8728 C   0  0  0  0  0  0  0  0  0  0  0  0
   10.3185  -13.6112   29.5380 S   0  0  0  0  0  0  0  0  0  0  0  0
   10.8945  -15.0122   28.5005 C   0  0  0  0  0  0  0  0  0  0  0  0
   10.0447  -15.1345   27.2615 C   0  0  0  0  0  0  0  0  0  0  0  0
   10.5135  -16.2539   26.3721 C   0  0  2  0  0  0  0  0  0  0  0  0
    9.7600  -16.4212   25.1602 N   0  0  0  0  0  0  0  0  0  0  0  0
   10.4389  -17.5363   27.0887 C   0  0  0  0  0  0  0  0  0  0  0  0
   11.6227  -18.0707   27.5884 O   0  0  0  0  0  0  0  0  0  0  0  0
    9.3681  -18.1603   27.2660 O   0  0  0  0  0  0  0  0  0  0  0  0
  2  1  1  1
  2  3  1  0
  3  4  1  0
  4  5  2  0
  4  8  1  0
  6  9  1  0
  6  2  1  0
  7  6  2  0
 10 13  1  0
 10  9  1  0
 10 11  1  1
 11 12  1  0
 13 20  1  0
 14 13  2  0
 16 15  1  0
 17 16  1  0
 18 17  1  0
 19 18  1  1
 19 21  1  0
 20 19  1  0
 21 22  1  0
 23 21  2  0
M  END
$$$$
