DCM.pdb
     RDKit          3D

 23 22  0  0  1  0  0  0  0  0999 V2000
   11.2119  -18.5651   19.3906 N   0  0  0  0  0  0  0  0  0  0  0  0
   10.3044  -17.5285   18.9854 C   0  0  1  0  0  0  0  0  0  0  0  0
    9.6250  -17.9074   17.6917 C   0  0  0  0  0  0  0  0  0  0  0  0
   10.4780  -17.7537   16.5069 C   0  0  0  0  0  0  0  0  0  0  0  0
   11.6528  -17.3590   16.5165 O   0  0  0  0  0  0  0  0  0  0  0  0
    9.2249  -17.3751   19.9921 C   0  0  0  0  0  0  0  0  0  0  0  0
    8.1670  -16.8126   19.6228 O   0  0  0  0  0  0  0  0  0  0  0  0
    9.9252  -18.0772   15.2670 O   0  0  0  0  0  0  0  0  0  0  0  0
    9.3661  -17.8358   21.3080 N   0  0  0  0  0  0  0  0  0  0  0  0
    8.3204  -17.6851   22.3231 C   0  0  1  0  0  0  0  0  0  0  0  0
    8.2123  -18.9508   23.1405 C   0  0  0  0  0  0  0  0  0  0  0  0
    9.8480  -19.4185   23.7256 S   0  0  0  0  0  0  0  0  0  0  0  0
    8.8064  -16.6163   23.2474 C   0  0  0  0  0  0  0  0  0  0  0  0
   10.0426  -16.3911   23.2471 O   0  0  0  0  0  0  0  0  0  0  0  0
    5.9461  -10.9750   25.7814 C   0  0  0  0  0  0  0  0  0  0  0  0
    6.5868  -11.8768   27.1884 S   0  0  0  0  0  0  0  0  0  0  0  0
    7.8834  -13.0784   26.6925 C   0  0  0  0  0  0  0  0  0  0  0  0
    7.3809  -13.9686   25.5847 C   0  0  0  0  0  0  0  0  0  0  0  0
    8.4669  -14.8637   25.0527 C   0  0  2  0  0  0  0  0  0  0  0  0
    8.0294  -15.8483   24.1019 N   0  0  0  0  0  0  0  0  0  0  0  0
    9.1005  -15.6030   26.1552 C   0  0  0  0  0  0  0  0  0  0  0  0
    8.5472  -16.8270   26.5188 O   0  0  0  0  0  0  0  0  0  0  0  0
   10.1049  -15.1827   26.7734 O   0  0  0  0  0  0  0  0  0  0  0  0
  2  1  1  1
  2  3  1  0
  3  4  1  0
  4  5  2  0
  4  8  1  0
  6  9  1  0
  6  2  1  0
  7  6  2  0
 10 13  1  0
 10  9  1  0
 10 11  1  1
 11 12  1  0
 13 20  1  0
 14 13  2  0
 16 15  1  0
 17 16  1  0
 18 17  1  0
 19 18  1  1
 19 21  1  0
 20 19  1  0
 21 22  1  0
 23 21  2  0
M  END
$$$$
