IIL.pdb
     RDKit          3D

 25 24  0  0  1  0  0  0  0  0999 V2000
    6.5802  -18.4084   19.5139 C   0  0  0  0  0  0  0  0  0  0  0  0
    6.8425  -16.9202   19.6487 C   0  0  0  0  0  0  0  0  0  0  0  0
    7.4768  -16.6782   20.9767 C   0  0  2  0  0  0  0  0  0  0  0  0
    6.5732  -17.2809   22.0388 C   0  0  0  0  0  0  0  0  0  0  0  0
    7.6948  -15.2464   21.3274 C   0  0  2  0  0  0  0  0  0  0  0  0
    8.4348  -14.6044   20.2675 N   0  0  0  0  0  0  0  0  0  0  0  0
    8.3396  -15.0191   22.6344 C   0  0  0  0  0  0  0  0  0  0  0  0
    9.5646  -15.2040   22.8085 O   0  0  0  0  0  0  0  0  0  0  0  0
    6.1572  -11.1826   26.0198 C   0  0  0  0  0  0  0  0  0  0  0  0
    7.0820  -12.1179   25.2852 C   0  0  0  0  0  0  0  0  0  0  0  0
    7.2834  -13.4527   25.8680 C   0  0  2  0  0  0  0  0  0  0  0  0
    7.9025  -13.2703   27.2653 C   0  0  0  0  0  0  0  0  0  0  0  0
    7.9904  -14.4918   25.0856 C   0  0  2  0  0  0  0  0  0  0  0  0
    7.5487  -14.5785   23.7268 N   0  0  0  0  0  0  0  0  0  0  0  0
    8.0449  -15.8103   25.7694 C   0  0  0  0  0  0  0  0  0  0  0  0
    7.1572  -16.6963   25.6346 O   0  0  0  0  0  0  0  0  0  0  0  0
   11.4556  -19.4407   23.6587 C   0  0  0  0  0  0  0  0  0  0  0  0
   10.9849  -19.1268   25.0528 C   0  0  1  0  0  0  0  0  0  0  0  0
   12.0567  -19.4309   26.0863 C   0  0  0  0  0  0  0  0  0  0  0  0
   10.3356  -17.8200   25.2471 C   0  0  0  0  0  0  0  0  0  0  0  0
    9.7738  -17.4613   26.5649 C   0  0  2  0  0  0  0  0  0  0  0  0
    9.1143  -16.1745   26.6359 N   0  0  0  0  0  0  0  0  0  0  0  0
   10.7549  -17.5026   27.6798 C   0  0  0  0  0  0  0  0  0  0  0  0
   10.6839  -18.3528   28.6026 O   0  0  0  0  0  0  0  0  0  0  0  0
   11.8109  -16.6102   27.7781 O   0  0  0  0  0  0  0  0  0  0  0  0
  2  1  1  0
  3  5  1  0
  3  2  1  0
  3  4  1  1
  5  6  1  6
  7  5  1  0
  7  8  2  0
 10  9  1  0
 11 10  1  0
 11 13  1  0
 11 12  1  1
 13 14  1  6
 14  7  1  0
 15 13  1  0
 16 15  2  0
 18 17  1  6
 18 20  1  0
 19 18  1  0
 21 20  1  6
 21 22  1  0
 21 23  1  0
 22 15  1  0
 23 25  1  0
 24 23  2  0
M  END
$$$$
