IIL.pdb
     RDKit          3D

 25 24  0  0  1  0  0  0  0  0999 V2000
    7.0728  -12.5053   18.0335 C   0  0  0  0  0  0  0  0  0  0  0  0
    7.4619  -13.8203   18.6823 C   0  0  0  0  0  0  0  0  0  0  0  0
    7.8743  -13.5411   20.0882 C   0  0  2  0  0  0  0  0  0  0  0  0
    9.1257  -12.6810   20.0422 C   0  0  0  0  0  0  0  0  0  0  0  0
    8.1817  -14.7436   20.9129 C   0  0  2  0  0  0  0  0  0  0  0  0
    7.0118  -15.5861   20.9801 N   0  0  0  0  0  0  0  0  0  0  0  0
    8.7019  -14.4537   22.2624 C   0  0  0  0  0  0  0  0  0  0  0  0
    9.8273  -13.9373   22.4405 O   0  0  0  0  0  0  0  0  0  0  0  0
    5.3278  -12.2735   25.9359 C   0  0  0  0  0  0  0  0  0  0  0  0
    6.5355  -12.7190   25.1535 C   0  0  0  0  0  0  0  0  0  0  0  0
    7.1793  -13.9722   25.5743 C   0  0  2  0  0  0  0  0  0  0  0  0
    7.5891  -13.8213   27.0501 C   0  0  0  0  0  0  0  0  0  0  0  0
    8.2739  -14.5413   24.7559 C   0  0  2  0  0  0  0  0  0  0  0  0
    7.9039  -14.7698   23.3922 N   0  0  0  0  0  0  0  0  0  0  0  0
    8.9355  -15.7126   25.3878 C   0  0  0  0  0  0  0  0  0  0  0  0
    8.9634  -16.8584   24.8609 O   0  0  0  0  0  0  0  0  0  0  0  0
   11.1453  -15.1534   30.6600 C   0  0  0  0  0  0  0  0  0  0  0  0
   10.7537  -15.1874   29.2077 C   0  0  1  0  0  0  0  0  0  0  0  0
   11.1947  -13.9281   28.4803 C   0  0  0  0  0  0  0  0  0  0  0  0
   11.0598  -16.4267   28.4747 C   0  0  0  0  0  0  0  0  0  0  0  0
   10.4086  -16.6996   27.1776 C   0  0  2  0  0  0  0  0  0  0  0  0
    9.5935  -15.6271   26.6474 N   0  0  0  0  0  0  0  0  0  0  0  0
    9.5690  -17.9251   27.1606 C   0  0  0  0  0  0  0  0  0  0  0  0
    8.3171  -17.8801   27.2623 O   0  0  0  0  0  0  0  0  0  0  0  0
   10.1063  -19.1963   27.0320 O   0  0  0  0  0  0  0  0  0  0  0  0
  2  1  1  0
  3  5  1  0
  3  2  1  0
  3  4  1  6
  5  6  1  1
  7  5  1  0
  7  8  2  0
 10  9  1  0
 11 10  1  0
 11 13  1  0
 11 12  1  1
 13 14  1  6
 14  7  1  0
 15 13  1  0
 16 15  2  0
 18 17  1  1
 18 20  1  0
 19 18  1  0
 21 20  1  1
 21 22  1  0
 21 23  1  0
 22 15  1  0
 23 25  1  0
 24 23  2  0
M  END
$$$$
