IIL.pdb
     RDKit          3D

 25 24  0  0  1  0  0  0  0  0999 V2000
    8.8084  -20.0215   20.0387 C   0  0  0  0  0  0  0  0  0  0  0  0
    8.0203  -18.7253   20.0493 C   0  0  0  0  0  0  0  0  0  0  0  0
    8.6333  -17.8165   21.0606 C   0  0  2  0  0  0  0  0  0  0  0  0
    8.7214  -18.5760   22.3734 C   0  0  0  0  0  0  0  0  0  0  0  0
    7.8862  -16.5531   21.3180 C   0  0  2  0  0  0  0  0  0  0  0  0
    7.6838  -15.8574   20.0698 N   0  0  0  0  0  0  0  0  0  0  0  0
    8.4978  -15.6649   22.3244 C   0  0  0  0  0  0  0  0  0  0  0  0
    9.4460  -14.8994   22.0419 O   0  0  0  0  0  0  0  0  0  0  0  0
    5.4775  -12.4951   25.2089 C   0  0  0  0  0  0  0  0  0  0  0  0
    6.6600  -13.1512   24.5451 C   0  0  0  0  0  0  0  0  0  0  0  0
    7.4850  -14.0398   25.3767 C   0  0  2  0  0  0  0  0  0  0  0  0
    8.0788  -13.2000   26.5217 C   0  0  0  0  0  0  0  0  0  0  0  0
    8.5086  -14.8967   24.7365 C   0  0  2  0  0  0  0  0  0  0  0  0
    7.9974  -15.6785   23.6520 N   0  0  0  0  0  0  0  0  0  0  0  0
    9.3044  -15.6915   25.7080 C   0  0  0  0  0  0  0  0  0  0  0  0
    8.7845  -16.4572   26.5651 O   0  0  0  0  0  0  0  0  0  0  0  0
    9.5776  -15.2733   29.7475 C   0  0  0  0  0  0  0  0  0  0  0  0
   10.3015  -14.8439   28.5005 C   0  0  1  0  0  0  0  0  0  0  0  0
   10.5747  -13.3490   28.4996 C   0  0  0  0  0  0  0  0  0  0  0  0
   11.4657  -15.6539   28.1060 C   0  0  0  0  0  0  0  0  0  0  0  0
   11.5037  -16.2976   26.7775 C   0  0  2  0  0  0  0  0  0  0  0  0
   10.7270  -15.6471   25.7433 N   0  0  0  0  0  0  0  0  0  0  0  0
   11.1026  -17.7281   26.7793 C   0  0  0  0  0  0  0  0  0  0  0  0
   11.4093  -18.5079   27.7160 O   0  0  0  0  0  0  0  0  0  0  0  0
   10.3661  -18.2981   25.7527 O   0  0  0  0  0  0  0  0  0  0  0  0
  2  1  1  0
  3  5  1  0
  3  2  1  0
  3  4  1  1
  5  6  1  6
  7  5  1  0
  7  8  2  0
 10  9  1  0
 11 10  1  0
 11 13  1  0
 11 12  1  1
 13 14  1  6
 14  7  1  0
 15 13  1  0
 16 15  2  0
 18 17  1  1
 18 20  1  0
 19 18  1  0
 21 20  1  1
 21 22  1  0
 21 23  1  0
 22 15  1  0
 23 25  1  0
 24 23  2  0
M  END
$$$$
