IIL.pdb
     RDKit          3D

 25 24  0  0  1  0  0  0  0  0999 V2000
    6.9697  -16.4752   18.0583 C   0  0  0  0  0  0  0  0  0  0  0  0
    6.9245  -15.0889   18.6727 C   0  0  0  0  0  0  0  0  0  0  0  0
    7.5691  -15.1543   20.0161 C   0  0  2  0  0  0  0  0  0  0  0  0
    6.8669  -16.2391   20.8149 C   0  0  0  0  0  0  0  0  0  0  0  0
    7.5110  -13.8963   20.8128 C   0  0  2  0  0  0  0  0  0  0  0  0
    8.0358  -12.8083   20.0229 N   0  0  0  0  0  0  0  0  0  0  0  0
    8.1764  -13.9634   22.1275 C   0  0  0  0  0  0  0  0  0  0  0  0
    9.4218  -14.0070   22.2368 O   0  0  0  0  0  0  0  0  0  0  0  0
    5.7033  -11.4826   26.4624 C   0  0  0  0  0  0  0  0  0  0  0  0
    6.7306  -12.0524   25.5194 C   0  0  0  0  0  0  0  0  0  0  0  0
    7.0486  -13.4809   25.6615 C   0  0  2  0  0  0  0  0  0  0  0  0
    7.6055  -13.7029   27.0791 C   0  0  0  0  0  0  0  0  0  0  0  0
    7.8790  -14.1498   24.6345 C   0  0  2  0  0  0  0  0  0  0  0  0
    7.3821  -13.9795   23.3030 N   0  0  0  0  0  0  0  0  0  0  0  0
    8.2002  -15.5630   24.9639 C   0  0  0  0  0  0  0  0  0  0  0  0
    7.3886  -16.5139   24.7953 O   0  0  0  0  0  0  0  0  0  0  0  0
   12.1421  -19.5621   23.3074 C   0  0  0  0  0  0  0  0  0  0  0  0
   11.2544  -19.1811   24.4608 C   0  0  1  0  0  0  0  0  0  0  0  0
   11.8257  -19.6564   25.7865 C   0  0  0  0  0  0  0  0  0  0  0  0
   10.7805  -17.7878   24.4914 C   0  0  0  0  0  0  0  0  0  0  0  0
    9.8848  -17.3342   25.5744 C   0  0  2  0  0  0  0  0  0  0  0  0
    9.4607  -15.9520   25.4995 N   0  0  0  0  0  0  0  0  0  0  0  0
   10.4247  -17.5436   26.9425 C   0  0  0  0  0  0  0  0  0  0  0  0
   10.2875  -18.6315   27.5569 O   0  0  0  0  0  0  0  0  0  0  0  0
   11.1135  -16.5582   27.6321 O   0  0  0  0  0  0  0  0  0  0  0  0
  2  1  1  0
  3  5  1  0
  3  2  1  0
  3  4  1  1
  5  6  1  6
  7  5  1  0
  7  8  2  0
 10  9  1  0
 11 10  1  0
 11 13  1  0
 11 12  1  1
 13 14  1  6
 14  7  1  0
 15 13  1  0
 16 15  2  0
 18 17  1  6
 18 20  1  0
 19 18  1  0
 21 20  1  6
 21 22  1  0
 21 23  1  0
 22 15  1  0
 23 25  1  0
 24 23  2  0
M  END
$$$$
