IIL.pdb
     RDKit          3D

 25 24  0  0  1  0  0  0  0  0999 V2000
    5.6697  -21.1294   26.0437 C   0  0  0  0  0  0  0  0  0  0  0  0
    5.4228  -20.6138   24.6384 C   0  0  0  0  0  0  0  0  0  0  0  0
    6.4436  -19.5679   24.3408 C   0  0  2  0  0  0  0  0  0  0  0  0
    6.3632  -18.5169   25.4348 C   0  0  0  0  0  0  0  0  0  0  0  0
    6.2811  -18.8728   23.0327 C   0  0  2  0  0  0  0  0  0  0  0  0
    6.1144  -19.8558   21.9891 N   0  0  0  0  0  0  0  0  0  0  0  0
    7.3589  -17.9234   22.6967 C   0  0  0  0  0  0  0  0  0  0  0  0
    8.4865  -18.3103   22.3176 O   0  0  0  0  0  0  0  0  0  0  0  0
    6.2174  -13.3354   19.9438 C   0  0  0  0  0  0  0  0  0  0  0  0
    6.8933  -14.5316   20.5616 C   0  0  0  0  0  0  0  0  0  0  0  0
    7.5488  -14.3310   21.8623 C   0  0  2  0  0  0  0  0  0  0  0  0
    8.6116  -13.2308   21.6918 C   0  0  0  0  0  0  0  0  0  0  0  0
    8.0813  -15.4992   22.5995 C   0  0  2  0  0  0  0  0  0  0  0  0
    7.1109  -16.5308   22.8066 N   0  0  0  0  0  0  0  0  0  0  0  0
    8.8180  -15.1307   23.8366 C   0  0  0  0  0  0  0  0  0  0  0  0
    8.4579  -14.1958   24.6031 O   0  0  0  0  0  0  0  0  0  0  0  0
    8.8378  -14.3246   28.6874 C   0  0  0  0  0  0  0  0  0  0  0  0
    9.3415  -14.2652   27.2710 C   0  0  1  0  0  0  0  0  0  0  0  0
   10.2621  -13.0756   27.0546 C   0  0  0  0  0  0  0  0  0  0  0  0
    9.8624  -15.5212   26.7069 C   0  0  0  0  0  0  0  0  0  0  0  0
   10.6893  -15.4964   25.4835 C   0  0  2  0  0  0  0  0  0  0  0  0
    9.9966  -15.8127   24.2522 N   0  0  0  0  0  0  0  0  0  0  0  0
   11.8886  -16.3715   25.5380 C   0  0  0  0  0  0  0  0  0  0  0  0
   11.9121  -17.5086   25.0032 O   0  0  0  0  0  0  0  0  0  0  0  0
   13.0583  -15.9956   26.1795 O   0  0  0  0  0  0  0  0  0  0  0  0
  2  1  1  0
  3  5  1  0
  3  2  1  0
  3  4  1  1
  5  6  1  6
  7  5  1  0
  7  8  2  0
 10  9  1  0
 11 10  1  0
 11 13  1  0
 11 12  1  6
 13 14  1  1
 14  7  1  0
 15 13  1  0
 16 15  2  0
 18 17  1  1
 18 20  1  0
 19 18  1  0
 21 20  1  1
 21 22  1  0
 21 23  1  0
 22 15  1  0
 23 25  1  0
 24 23  2  0
M  END
$$$$
