IIL.pdb
     RDKit          3D

 25 24  0  0  1  0  0  0  0  0999 V2000
    5.8292  -10.3363   26.8485 C   0  0  0  0  0  0  0  0  0  0  0  0
    5.2146  -11.6164   26.3146 C   0  0  0  0  0  0  0  0  0  0  0  0
    6.3213  -12.5556   25.9712 C   0  0  2  0  0  0  0  0  0  0  0  0
    7.2310  -11.8558   24.9759 C   0  0  0  0  0  0  0  0  0  0  0  0
    5.8950  -13.8479   25.3638 C   0  0  2  0  0  0  0  0  0  0  0  0
    5.0225  -14.5401   26.2817 N   0  0  0  0  0  0  0  0  0  0  0  0
    6.9997  -14.7212   24.9249 C   0  0  0  0  0  0  0  0  0  0  0  0
    7.4257  -15.6573   25.6372 O   0  0  0  0  0  0  0  0  0  0  0  0
    7.9962  -13.5932   19.7397 C   0  0  0  0  0  0  0  0  0  0  0  0
    7.8119  -14.6914   20.7542 C   0  0  0  0  0  0  0  0  0  0  0  0
    8.9308  -14.9466   21.6734 C   0  0  2  0  0  0  0  0  0  0  0  0
    9.8555  -15.9865   21.0158 C   0  0  0  0  0  0  0  0  0  0  0  0
    8.6517  -15.2775   23.0892 C   0  0  2  0  0  0  0  0  0  0  0  0
    7.5979  -14.4939   23.6586 N   0  0  0  0  0  0  0  0  0  0  0  0
    9.8720  -15.3224   23.9363 C   0  0  0  0  0  0  0  0  0  0  0  0
   10.7391  -14.4063   23.9489 O   0  0  0  0  0  0  0  0  0  0  0  0
    9.7188  -15.5006   29.1842 C   0  0  0  0  0  0  0  0  0  0  0  0
   10.1020  -15.3523   27.7369 C   0  0  1  0  0  0  0  0  0  0  0  0
   10.6405  -13.9624   27.4409 C   0  0  0  0  0  0  0  0  0  0  0  0
   10.9180  -16.4334   27.1604 C   0  0  0  0  0  0  0  0  0  0  0  0
   11.2720  -16.4096   25.7268 C   0  0  2  0  0  0  0  0  0  0  0  0
   10.1555  -16.4141   24.8053 N   0  0  0  0  0  0  0  0  0  0  0  0
   12.1820  -17.5049   25.3033 C   0  0  0  0  0  0  0  0  0  0  0  0
   11.8193  -18.4055   24.5052 O   0  0  0  0  0  0  0  0  0  0  0  0
   13.4875  -17.6081   25.7574 O   0  0  0  0  0  0  0  0  0  0  0  0
  2  1  1  0
  3  5  1  0
  3  2  1  0
  3  4  1  6
  5  6  1  1
  7  5  1  0
  7  8  2  0
 10  9  1  0
 11 10  1  0
 11 13  1  0
 11 12  1  6
 13 14  1  1
 14  7  1  0
 15 13  1  0
 16 15  2  0
 18 17  1  1
 18 20  1  0
 19 18  1  0
 21 20  1  1
 21 22  1  0
 21 23  1  0
 22 15  1  0
 23 25  1  0
 24 23  2  0
M  END
$$$$
