IIL.pdb
     RDKit          3D

 25 24  0  0  1  0  0  0  0  0999 V2000
    7.6880  -11.7500   18.7665 C   0  0  0  0  0  0  0  0  0  0  0  0
    8.3597  -13.0948   18.5615 C   0  0  0  0  0  0  0  0  0  0  0  0
    8.0386  -13.9586   19.7342 C   0  0  2  0  0  0  0  0  0  0  0  0
    8.5644  -13.2646   20.9791 C   0  0  0  0  0  0  0  0  0  0  0  0
    8.6259  -15.3277   19.6971 C   0  0  2  0  0  0  0  0  0  0  0  0
    8.1558  -16.0151   18.5184 N   0  0  0  0  0  0  0  0  0  0  0  0
    8.3918  -16.1360   20.9085 C   0  0  0  0  0  0  0  0  0  0  0  0
    7.2884  -16.6788   21.1384 O   0  0  0  0  0  0  0  0  0  0  0  0
   10.7895  -20.4798   22.2179 C   0  0  0  0  0  0  0  0  0  0  0  0
    9.9248  -19.2492   22.1316 C   0  0  0  0  0  0  0  0  0  0  0  0
   10.1083  -18.2291   23.1744 C   0  0  2  0  0  0  0  0  0  0  0  0
    9.9533  -18.9176   24.5423 C   0  0  0  0  0  0  0  0  0  0  0  0
    9.3378  -16.9669   23.1047 C   0  0  2  0  0  0  0  0  0  0  0  0
    9.4478  -16.3033   21.8412 N   0  0  0  0  0  0  0  0  0  0  0  0
    9.5752  -16.0658   24.2626 C   0  0  0  0  0  0  0  0  0  0  0  0
   10.6947  -15.5406   24.5118 O   0  0  0  0  0  0  0  0  0  0  0  0
    5.9300  -12.3334   26.0960 C   0  0  0  0  0  0  0  0  0  0  0  0
    7.2571  -12.9779   25.8008 C   0  0  1  0  0  0  0  0  0  0  0  0
    8.3180  -11.9436   25.4630 C   0  0  0  0  0  0  0  0  0  0  0  0
    7.7164  -14.0002   26.7553 C   0  0  0  0  0  0  0  0  0  0  0  0
    8.7923  -14.9377   26.3750 C   0  0  2  0  0  0  0  0  0  0  0  0
    8.5459  -15.7253   25.1855 N   0  0  0  0  0  0  0  0  0  0  0  0
    9.1810  -15.8899   27.4470 C   0  0  0  0  0  0  0  0  0  0  0  0
    8.6985  -17.0481   27.5207 O   0  0  0  0  0  0  0  0  0  0  0  0
   10.0983  -15.5677   28.4349 O   0  0  0  0  0  0  0  0  0  0  0  0
  2  1  1  0
  3  5  1  0
  3  2  1  0
  3  4  1  1
  5  6  1  6
  7  5  1  0
  7  8  2  0
 10  9  1  0
 11 10  1  0
 11 13  1  0
 11 12  1  1
 13 14  1  6
 14  7  1  0
 15 13  1  0
 16 15  2  0
 18 17  1  1
 18 20  1  0
 19 18  1  0
 21 20  1  1
 21 22  1  0
 21 23  1  0
 22 15  1  0
 23 25  1  0
 24 23  2  0
M  END
$$$$
