IIL.pdb
     RDKit          3D

 25 24  0  0  1  0  0  0  0  0999 V2000
    6.1127  -21.6042   23.6136 C   0  0  0  0  0  0  0  0  0  0  0  0
    5.5509  -20.3045   23.0687 C   0  0  0  0  0  0  0  0  0  0  0  0
    6.5329  -19.2183   23.3521 C   0  0  2  0  0  0  0  0  0  0  0  0
    6.7873  -19.2025   24.8498 C   0  0  0  0  0  0  0  0  0  0  0  0
    6.1019  -17.8492   22.9518 C   0  0  2  0  0  0  0  0  0  0  0  0
    5.7600  -17.8490   21.5496 N   0  0  0  0  0  0  0  0  0  0  0  0
    7.0697  -16.7794   23.2595 C   0  0  0  0  0  0  0  0  0  0  0  0
    8.0206  -16.5076   22.4935 O   0  0  0  0  0  0  0  0  0  0  0  0
    5.3292  -12.1750   25.5261 C   0  0  0  0  0  0  0  0  0  0  0  0
    6.1628  -13.1820   24.7774 C   0  0  0  0  0  0  0  0  0  0  0  0
    7.2149  -13.8745   25.5358 C   0  0  2  0  0  0  0  0  0  0  0  0
    8.2546  -12.8254   25.9688 C   0  0  0  0  0  0  0  0  0  0  0  0
    7.8565  -15.0788   24.9615 C   0  0  2  0  0  0  0  0  0  0  0  0
    6.9193  -16.0368   24.4590 N   0  0  0  0  0  0  0  0  0  0  0  0
    8.8882  -15.6774   25.8482 C   0  0  0  0  0  0  0  0  0  0  0  0
    8.6149  -16.4752   26.7864 O   0  0  0  0  0  0  0  0  0  0  0  0
    9.9520  -15.0183   30.1044 C   0  0  0  0  0  0  0  0  0  0  0  0
   10.3511  -14.8453   28.6642 C   0  0  1  0  0  0  0  0  0  0  0  0
   11.1437  -13.5658   28.4537 C   0  0  0  0  0  0  0  0  0  0  0  0
   10.9438  -16.0189   28.0022 C   0  0  0  0  0  0  0  0  0  0  0  0
   11.2859  -15.9649   26.5666 C   0  0  2  0  0  0  0  0  0  0  0  0
   10.2754  -15.3920   25.7026 N   0  0  0  0  0  0  0  0  0  0  0  0
   11.6607  -17.2762   25.9774 C   0  0  0  0  0  0  0  0  0  0  0  0
   11.0700  -17.7533   24.9759 O   0  0  0  0  0  0  0  0  0  0  0  0
   12.6830  -18.0596   26.4895 O   0  0  0  0  0  0  0  0  0  0  0  0
  2  1  1  0
  3  5  1  0
  3  2  1  0
  3  4  1  1
  5  6  1  6
  7  5  1  0
  7  8  2  0
 10  9  1  0
 11 10  1  0
 11 13  1  0
 11 12  1  6
 13 14  1  1
 14  7  1  0
 15 13  1  0
 16 15  2  0
 18 17  1  1
 18 20  1  0
 19 18  1  0
 21 20  1  1
 21 22  1  0
 21 23  1  0
 22 15  1  0
 23 25  1  0
 24 23  2  0
M  END
$$$$
