IIL.pdb
     RDKit          3D

 25 24  0  0  1  0  0  0  0  0999 V2000
    7.1278  -16.2755   17.8389 C   0  0  0  0  0  0  0  0  0  0  0  0
    7.0104  -14.8947   18.4563 C   0  0  0  0  0  0  0  0  0  0  0  0
    7.6940  -14.9182   19.7817 C   0  0  2  0  0  0  0  0  0  0  0  0
    7.1168  -16.0743   20.5806 C   0  0  0  0  0  0  0  0  0  0  0  0
    7.5411  -13.6820   20.5996 C   0  0  2  0  0  0  0  0  0  0  0  0
    8.0102  -12.5480   19.8400 N   0  0  0  0  0  0  0  0  0  0  0  0
    8.1849  -13.7321   21.9258 C   0  0  0  0  0  0  0  0  0  0  0  0
    9.4287  -13.7127   22.0582 O   0  0  0  0  0  0  0  0  0  0  0  0
    5.3971  -11.5584   26.2099 C   0  0  0  0  0  0  0  0  0  0  0  0
    6.5278  -12.0083   25.3219 C   0  0  0  0  0  0  0  0  0  0  0  0
    6.9637  -13.4065   25.4517 C   0  0  2  0  0  0  0  0  0  0  0  0
    7.5332  -13.5950   26.8691 C   0  0  0  0  0  0  0  0  0  0  0  0
    7.8499  -13.9936   24.4213 C   0  0  2  0  0  0  0  0  0  0  0  0
    7.3711  -13.8050   23.0857 N   0  0  0  0  0  0  0  0  0  0  0  0
    8.2419  -15.3978   24.7106 C   0  0  0  0  0  0  0  0  0  0  0  0
    7.4616  -16.3779   24.5626 O   0  0  0  0  0  0  0  0  0  0  0  0
   12.8999  -19.0380   23.4788 C   0  0  0  0  0  0  0  0  0  0  0  0
   11.8033  -18.7575   24.4700 C   0  0  1  0  0  0  0  0  0  0  0  0
   12.2121  -19.1474   25.8808 C   0  0  0  0  0  0  0  0  0  0  0  0
   11.1682  -17.4320   24.3878 C   0  0  0  0  0  0  0  0  0  0  0  0
   10.0089  -17.1123   25.2450 C   0  0  2  0  0  0  0  0  0  0  0  0
    9.5403  -15.7440   25.1809 N   0  0  0  0  0  0  0  0  0  0  0  0
   10.2048  -17.4316   26.6827 C   0  0  0  0  0  0  0  0  0  0  0  0
   10.2993  -18.6138   27.0988 O   0  0  0  0  0  0  0  0  0  0  0  0
   10.2964  -16.4522   27.6591 O   0  0  0  0  0  0  0  0  0  0  0  0
  2  1  1  0
  3  5  1  0
  3  2  1  0
  3  4  1  1
  5  6  1  6
  7  5  1  0
  7  8  2  0
 10  9  1  0
 11 10  1  0
 11 13  1  0
 11 12  1  1
 13 14  1  6
 14  7  1  0
 15 13  1  0
 16 15  2  0
 18 17  1  6
 18 20  1  0
 19 18  1  0
 21 20  1  6
 21 22  1  0
 21 23  1  0
 22 15  1  0
 23 25  1  0
 24 23  2  0
M  END
$$$$
