IIL.pdb
     RDKit          3D

 25 24  0  0  1  0  0  0  0  0999 V2000
    7.3175  -12.2013   18.4726 C   0  0  0  0  0  0  0  0  0  0  0  0
    7.1791  -13.5686   19.1152 C   0  0  0  0  0  0  0  0  0  0  0  0
    7.8393  -13.5233   20.4518 C   0  0  2  0  0  0  0  0  0  0  0  0
    9.3183  -13.2566   20.2295 C   0  0  0  0  0  0  0  0  0  0  0  0
    7.7208  -14.7673   21.2636 C   0  0  2  0  0  0  0  0  0  0  0  0
    6.3261  -15.1077   21.4116 N   0  0  0  0  0  0  0  0  0  0  0  0
    8.3947  -14.7188   22.5749 C   0  0  0  0  0  0  0  0  0  0  0  0
    9.6405  -14.7615   22.6801 O   0  0  0  0  0  0  0  0  0  0  0  0
    5.9801  -11.4606   26.2535 C   0  0  0  0  0  0  0  0  0  0  0  0
    6.9749  -12.2502   25.4435 C   0  0  0  0  0  0  0  0  0  0  0  0
    7.3259  -13.5898   25.9377 C   0  0  2  0  0  0  0  0  0  0  0  0
    7.9496  -13.4299   27.3357 C   0  0  0  0  0  0  0  0  0  0  0  0
    8.1222  -14.4983   25.0819 C   0  0  2  0  0  0  0  0  0  0  0  0
    7.6082  -14.6215   23.7517 N   0  0  0  0  0  0  0  0  0  0  0  0
    8.4126  -15.8080   25.7216 C   0  0  0  0  0  0  0  0  0  0  0  0
    7.5273  -16.6770   25.9507 O   0  0  0  0  0  0  0  0  0  0  0  0
   12.5527  -19.8340   24.2026 C   0  0  0  0  0  0  0  0  0  0  0  0
   11.6748  -19.3908   25.3412 C   0  0  1  0  0  0  0  0  0  0  0  0
   12.3157  -19.6831   26.6878 C   0  0  0  0  0  0  0  0  0  0  0  0
   11.1069  -18.0362   25.2428 C   0  0  0  0  0  0  0  0  0  0  0  0
   10.1393  -17.5639   26.2535 C   0  0  2  0  0  0  0  0  0  0  0  0
    9.7249  -16.1826   26.1273 N   0  0  0  0  0  0  0  0  0  0  0  0
   10.5822  -17.7522   27.6591 C   0  0  0  0  0  0  0  0  0  0  0  0
   11.2727  -16.8936   28.2639 O   0  0  0  0  0  0  0  0  0  0  0  0
   10.2656  -18.8824   28.3964 O   0  0  0  0  0  0  0  0  0  0  0  0
  2  1  1  0
  3  5  1  0
  3  2  1  0
  3  4  1  6
  5  6  1  1
  7  5  1  0
  7  8  2  0
 10  9  1  0
 11 10  1  0
 11 13  1  0
 11 12  1  1
 13 14  1  6
 14  7  1  0
 15 13  1  0
 16 15  2  0
 18 17  1  6
 18 20  1  0
 19 18  1  0
 21 20  1  6
 21 22  1  0
 21 23  1  0
 22 15  1  0
 23 25  1  0
 24 23  2  0
M  END
$$$$
