IIL.pdb
     RDKit          3D

 25 24  0  0  1  0  0  0  0  0999 V2000
   11.7329  -21.5160   21.6486 C   0  0  0  0  0  0  0  0  0  0  0  0
   11.1533  -20.6314   20.5609 C   0  0  0  0  0  0  0  0  0  0  0  0
   11.1078  -19.2320   21.0746 C   0  0  2  0  0  0  0  0  0  0  0  0
   10.3261  -19.2414   22.3773 C   0  0  0  0  0  0  0  0  0  0  0  0
   10.4635  -18.2407   20.1674 C   0  0  2  0  0  0  0  0  0  0  0  0
   11.1531  -18.2377   18.8996 N   0  0  0  0  0  0  0  0  0  0  0  0
   10.3591  -16.8750   20.7150 C   0  0  0  0  0  0  0  0  0  0  0  0
   11.3680  -16.1612   20.9086 O   0  0  0  0  0  0  0  0  0  0  0  0
    7.2739  -13.0708   18.6778 C   0  0  0  0  0  0  0  0  0  0  0  0
    8.2850  -13.8602   19.4678 C   0  0  0  0  0  0  0  0  0  0  0  0
    7.9218  -14.2213   20.8460 C   0  0  2  0  0  0  0  0  0  0  0  0
    7.5647  -12.9256   21.5961 C   0  0  0  0  0  0  0  0  0  0  0  0
    8.8289  -15.0822   21.6383 C   0  0  2  0  0  0  0  0  0  0  0  0
    9.0778  -16.3547   21.0322 N   0  0  0  0  0  0  0  0  0  0  0  0
    8.4472  -15.1803   23.0714 C   0  0  0  0  0  0  0  0  0  0  0  0
    7.3831  -15.7300   23.4674 O   0  0  0  0  0  0  0  0  0  0  0  0
    5.6141  -12.5173   26.2646 C   0  0  0  0  0  0  0  0  0  0  0  0
    7.0987  -12.2803   26.2066 C   0  0  1  0  0  0  0  0  0  0  0  0
    7.7580  -12.5331   27.5522 C   0  0  0  0  0  0  0  0  0  0  0  0
    7.8168  -12.8920   25.0765 C   0  0  0  0  0  0  0  0  0  0  0  0
    8.7115  -14.0446   25.3048 C   0  0  2  0  0  0  0  0  0  0  0  0
    9.2628  -14.6558   24.1138 N   0  0  0  0  0  0  0  0  0  0  0  0
    8.1068  -15.1386   26.1077 C   0  0  0  0  0  0  0  0  0  0  0  0
    6.9573  -15.5874   25.8688 O   0  0  0  0  0  0  0  0  0  0  0  0
    8.7658  -15.7367   27.1703 O   0  0  0  0  0  0  0  0  0  0  0  0
  2  1  1  0
  3  5  1  0
  3  2  1  0
  3  4  1  1
  5  6  1  6
  7  5  1  0
  7  8  2  0
 10  9  1  0
 11 10  1  0
 11 13  1  0
 11 12  1  1
 13 14  1  6
 14  7  1  0
 15 13  1  0
 16 15  2  0
 18 17  1  1
 18 20  1  0
 19 18  1  0
 21 20  1  6
 21 22  1  0
 21 23  1  0
 22 15  1  0
 23 25  1  0
 24 23  2  0
M  END
$$$$
