LLV.pdb
     RDKit          3D

 24 23  0  0  1  0  0  0  0  0999 V2000
   11.0100  -24.2393    0.1099 C   0  0  0  0  0  0  0  0  0  0  0  0
   11.9764  -23.3251   -0.6176 C   0  0  1  0  0  0  0  0  0  0  0  0
   11.2558  -22.0153   -0.8551 C   0  0  0  0  0  0  0  0  0  0  0  0
   13.1927  -23.1468    0.2375 C   0  0  0  0  0  0  0  0  0  0  0  0
   14.2177  -22.2322   -0.3975 C   0  0  2  0  0  0  0  0  0  0  0  0
   14.7487  -22.9247   -1.5569 N   0  0  0  0  0  0  0  0  0  0  0  0
   15.3228  -21.9043    0.5062 C   0  0  0  0  0  0  0  0  0  0  0  0
   16.2563  -22.7451    0.7435 O   0  0  0  0  0  0  0  0  0  0  0  0
   18.2657  -16.9564    2.6603 C   0  0  0  0  0  0  0  0  0  0  0  0
   17.9264  -18.4411    2.9374 C   0  0  2  0  0  0  0  0  0  0  0  0
   19.2203  -19.1459    3.1101 C   0  0  0  0  0  0  0  0  0  0  0  0
   17.0065  -18.9543    1.8759 C   0  0  0  0  0  0  0  0  0  0  0  0
   16.4467  -20.3072    2.1313 C   0  0  2  0  0  0  0  0  0  0  0  0
   15.4560  -20.6585    1.1828 N   0  0  0  0  0  0  0  0  0  0  0  0
   15.9966  -20.4819    3.5407 C   0  0  0  0  0  0  0  0  0  0  0  0
   14.8854  -19.9889    3.8429 O   0  0  0  0  0  0  0  0  0  0  0  0
   15.9599  -22.8561    7.8470 C   0  0  0  0  0  0  0  0  0  0  0  0
   16.4385  -22.6869    6.4213 C   0  0  1  0  0  0  0  0  0  0  0  0
   15.6202  -23.6186    5.5553 C   0  0  0  0  0  0  0  0  0  0  0  0
   16.2405  -21.2791    5.9077 C   0  0  2  0  0  0  0  0  0  0  0  0
   16.7367  -21.1579    4.5346 N   0  0  0  0  0  0  0  0  0  0  0  0
   16.9168  -20.3047    6.7652 C   0  0  0  0  0  0  0  0  0  0  0  0
   16.2069  -19.6305    7.7383 O   0  0  0  0  0  0  0  0  0  0  0  0
   18.1400  -20.0741    6.6253 O   0  0  0  0  0  0  0  0  0  0  0  0
  2  3  1  1
  2  1  1  0
  4  2  1  0
  5  4  1  0
  5  6  1  6
  7  8  2  0
  7  5  1  0
 10  9  1  6
 10 12  1  0
 10 11  1  0
 13 12  1  1
 13 14  1  0
 14  7  1  0
 15 13  1  0
 15 16  2  0
 18 17  1  1
 19 18  1  0
 20 18  1  0
 20 21  1  6
 21 15  1  0
 22 20  1  0
 23 22  1  0
 24 22  2  0
M  END
$$$$
