LLV.pdb
     RDKit          3D

 24 23  0  0  1  0  0  0  0  0999 V2000
   24.1705  -15.9537  -18.9615 C   0  0  0  0  0  0  0  0  0  0  0  0
   25.3174  -16.8537  -18.5451 C   0  0  1  0  0  0  0  0  0  0  0  0
   26.2465  -16.0215  -17.6876 C   0  0  0  0  0  0  0  0  0  0  0  0
   24.7543  -18.0185  -17.7913 C   0  0  0  0  0  0  0  0  0  0  0  0
   25.8215  -18.8084  -17.0648 C   0  0  2  0  0  0  0  0  0  0  0  0
   26.5843  -19.5228  -18.0715 N   0  0  0  0  0  0  0  0  0  0  0  0
   25.2646  -19.7760  -16.1167 C   0  0  0  0  0  0  0  0  0  0  0  0
   24.5839  -20.7810  -16.5186 O   0  0  0  0  0  0  0  0  0  0  0  0
   27.3538  -22.2394  -13.2676 C   0  0  0  0  0  0  0  0  0  0  0  0
   27.1467  -20.8287  -12.6650 C   0  0  2  0  0  0  0  0  0  0  0  0
   28.0054  -20.7540  -11.4575 C   0  0  0  0  0  0  0  0  0  0  0  0
   25.6855  -20.5693  -12.4800 C   0  0  0  0  0  0  0  0  0  0  0  0
   24.8853  -20.5673  -13.7324 C   0  0  2  0  0  0  0  0  0  0  0  0
   25.4244  -19.6903  -14.7044 N   0  0  0  0  0  0  0  0  0  0  0  0
   23.4339  -20.3434  -13.4819 C   0  0  0  0  0  0  0  0  0  0  0  0
   23.1119  -19.2428  -12.9779 O   0  0  0  0  0  0  0  0  0  0  0  0
   18.7295  -20.8055  -14.5501 C   0  0  0  0  0  0  0  0  0  0  0  0
   20.2016  -21.0701  -14.7814 C   0  0  1  0  0  0  0  0  0  0  0  0
   20.7118  -20.0007  -15.7214 C   0  0  0  0  0  0  0  0  0  0  0  0
   21.0104  -20.9944  -13.5066 C   0  0  2  0  0  0  0  0  0  0  0  0
   22.4215  -21.2826  -13.7746 N   0  0  0  0  0  0  0  0  0  0  0  0
   20.4982  -21.9263  -12.5008 C   0  0  0  0  0  0  0  0  0  0  0  0
   19.6016  -21.4890  -11.5467 O   0  0  0  0  0  0  0  0  0  0  0  0
   20.8666  -23.1235  -12.4958 O   0  0  0  0  0  0  0  0  0  0  0  0
  2  3  1  1
  2  1  1  0
  4  2  1  0
  5  4  1  0
  5  6  1  6
  7  8  2  0
  7  5  1  0
 10  9  1  1
 10 12  1  0
 10 11  1  0
 13 12  1  1
 13 14  1  0
 14  7  1  0
 15 13  1  0
 15 16  2  0
 18 17  1  1
 19 18  1  0
 20 18  1  0
 20 21  1  6
 21 15  1  0
 22 20  1  0
 23 22  1  0
 24 22  2  0
M  END
$$$$
