LLV.pdb
     RDKit          3D

 24 23  0  0  1  0  0  0  0  0999 V2000
   19.9858  -17.2290  -15.1617 C   0  0  0  0  0  0  0  0  0  0  0  0
   20.8756  -18.0434  -16.0804 C   0  0  1  0  0  0  0  0  0  0  0  0
   21.7011  -17.0618  -16.8842 C   0  0  0  0  0  0  0  0  0  0  0  0
   21.7328  -18.9366  -15.2381 C   0  0  0  0  0  0  0  0  0  0  0  0
   22.8698  -19.5553  -16.0223 C   0  0  2  0  0  0  0  0  0  0  0  0
   22.2955  -20.5861  -16.8668 N   0  0  0  0  0  0  0  0  0  0  0  0
   23.8892  -20.1606  -15.1620 C   0  0  0  0  0  0  0  0  0  0  0  0
   23.6275  -21.1875  -14.4465 O   0  0  0  0  0  0  0  0  0  0  0  0
   27.8286  -21.9635  -16.1101 C   0  0  0  0  0  0  0  0  0  0  0  0
   27.8837  -20.4166  -16.1275 C   0  0  2  0  0  0  0  0  0  0  0  0
   29.1816  -20.0462  -16.7431 C   0  0  0  0  0  0  0  0  0  0  0  0
   27.6028  -19.8870  -14.7574 C   0  0  0  0  0  0  0  0  0  0  0  0
   26.2511  -20.2042  -14.2271 C   0  0  2  0  0  0  0  0  0  0  0  0
   25.2235  -19.6773  -15.0463 N   0  0  0  0  0  0  0  0  0  0  0  0
   26.1011  -19.8381  -12.7908 C   0  0  0  0  0  0  0  0  0  0  0  0
   26.0498  -18.6155  -12.5229 O   0  0  0  0  0  0  0  0  0  0  0  0
   24.7207  -20.6238   -8.1639 C   0  0  0  0  0  0  0  0  0  0  0  0
   24.8497  -21.0674   -9.6051 C   0  0  1  0  0  0  0  0  0  0  0  0
   23.5440  -20.7448  -10.2969 C   0  0  0  0  0  0  0  0  0  0  0  0
   25.9562  -20.3426  -10.3368 C   0  0  2  0  0  0  0  0  0  0  0  0
   26.0152  -20.7723  -11.7361 N   0  0  0  0  0  0  0  0  0  0  0  0
   27.2514  -20.5714   -9.6946 C   0  0  0  0  0  0  0  0  0  0  0  0
   27.5735  -19.9022   -8.5311 O   0  0  0  0  0  0  0  0  0  0  0  0
   28.0760  -21.3724  -10.1919 O   0  0  0  0  0  0  0  0  0  0  0  0
  2  3  1  1
  2  1  1  0
  4  2  1  0
  5  4  1  0
  5  6  1  6
  7  8  2  0
  7  5  1  0
 10  9  1  1
 10 12  1  0
 10 11  1  0
 13 12  1  6
 13 14  1  0
 14  7  1  0
 15 13  1  0
 15 16  2  0
 18 17  1  1
 19 18  1  0
 20 18  1  0
 20 21  1  6
 21 15  1  0
 22 20  1  0
 23 22  1  0
 24 22  2  0
M  END
$$$$
