LLV.pdb
     RDKit          3D

 24 23  0  0  1  0  0  0  0  0999 V2000
   16.8732   -8.4680  -21.2790 C   0  0  0  0  0  0  0  0  0  0  0  0
   17.4382   -9.6927  -20.5863 C   0  0  1  0  0  0  0  0  0  0  0  0
   18.5096  -10.2609  -21.4921 C   0  0  0  0  0  0  0  0  0  0  0  0
   17.9925   -9.2720  -19.2604 C   0  0  0  0  0  0  0  0  0  0  0  0
   18.6735  -10.4095  -18.5305 C   0  0  2  0  0  0  0  0  0  0  0  0
   17.6310  -11.3113  -18.0768 N   0  0  0  0  0  0  0  0  0  0  0  0
   19.4470   -9.9577  -17.3715 C   0  0  0  0  0  0  0  0  0  0  0  0
   18.8704   -9.6161  -16.2826 O   0  0  0  0  0  0  0  0  0  0  0  0
   25.0411  -10.6650  -14.9332 C   0  0  0  0  0  0  0  0  0  0  0  0
   23.6965   -9.8990  -14.8921 C   0  0  2  0  0  0  0  0  0  0  0  0
   23.0367  -10.2702  -13.6163 C   0  0  0  0  0  0  0  0  0  0  0  0
   22.9338  -10.1520  -16.1534 C   0  0  0  0  0  0  0  0  0  0  0  0
   21.6713   -9.3796  -16.2888 C   0  0  2  0  0  0  0  0  0  0  0  0
   20.8673   -9.8601  -17.3504 N   0  0  0  0  0  0  0  0  0  0  0  0
   21.9055   -7.9096  -16.3501 C   0  0  0  0  0  0  0  0  0  0  0  0
   22.5387   -7.4804  -17.3422 O   0  0  0  0  0  0  0  0  0  0  0  0
   20.2138   -5.0051  -17.2699 C   0  0  0  0  0  0  0  0  0  0  0  0
   20.6477   -4.7336  -15.8457 C   0  0  1  0  0  0  0  0  0  0  0  0
   19.4867   -5.0874  -14.9432 C   0  0  0  0  0  0  0  0  0  0  0  0
   21.8331   -5.5753  -15.4315 C   0  0  2  0  0  0  0  0  0  0  0  0
   21.4631   -6.9917  -15.3733 N   0  0  0  0  0  0  0  0  0  0  0  0
   22.3559   -5.1475  -14.1331 C   0  0  0  0  0  0  0  0  0  0  0  0
   23.1560   -4.0260  -14.0460 O   0  0  0  0  0  0  0  0  0  0  0  0
   22.0841   -5.7914  -13.0937 O   0  0  0  0  0  0  0  0  0  0  0  0
  2  3  1  6
  2  1  1  0
  4  2  1  0
  5  4  1  0
  5  6  1  1
  7  8  2  0
  7  5  1  0
 10  9  1  6
 10 12  1  0
 10 11  1  0
 13 12  1  6
 13 14  1  0
 14  7  1  0
 15 13  1  0
 15 16  2  0
 18 17  1  6
 19 18  1  0
 20 18  1  0
 20 21  1  1
 21 15  1  0
 22 20  1  0
 23 22  1  0
 24 22  2  0
M  END
$$$$
