LLV.pdb
     RDKit          3D

 24 23  0  0  1  0  0  0  0  0999 V2000
   27.7917  -17.7654  -18.2572 C   0  0  0  0  0  0  0  0  0  0  0  0
   28.4998  -18.7690  -17.3683 C   0  0  1  0  0  0  0  0  0  0  0  0
   29.4659  -17.9908  -16.5011 C   0  0  0  0  0  0  0  0  0  0  0  0
   27.4696  -19.4867  -16.5522 C   0  0  0  0  0  0  0  0  0  0  0  0
   28.0845  -20.4600  -15.5698 C   0  0  2  0  0  0  0  0  0  0  0  0
   28.5911  -21.5813  -16.3392 N   0  0  0  0  0  0  0  0  0  0  0  0
   27.1208  -20.9574  -14.5852 C   0  0  0  0  0  0  0  0  0  0  0  0
   26.2682  -21.8602  -14.8902 O   0  0  0  0  0  0  0  0  0  0  0  0
   25.7305  -19.7880   -8.5886 C   0  0  0  0  0  0  0  0  0  0  0  0
   25.3074  -20.4768   -9.9088 C   0  0  2  0  0  0  0  0  0  0  0  0
   24.9370  -21.8702   -9.5593 C   0  0  0  0  0  0  0  0  0  0  0  0
   26.3765  -20.2929  -10.9382 C   0  0  0  0  0  0  0  0  0  0  0  0
   26.0299  -20.7843  -12.2973 C   0  0  2  0  0  0  0  0  0  0  0  0
   27.0463  -20.4967  -13.2400 N   0  0  0  0  0  0  0  0  0  0  0  0
   24.6786  -20.3380  -12.7381 C   0  0  0  0  0  0  0  0  0  0  0  0
   24.5145  -19.1059  -12.8931 O   0  0  0  0  0  0  0  0  0  0  0  0
   20.5787  -20.8228  -15.2695 C   0  0  0  0  0  0  0  0  0  0  0  0
   21.9360  -21.2831  -14.7831 C   0  0  1  0  0  0  0  0  0  0  0  0
   22.9625  -20.8049  -15.7857 C   0  0  0  0  0  0  0  0  0  0  0  0
   22.2953  -20.7015  -13.4349 C   0  0  2  0  0  0  0  0  0  0  0  0
   23.5947  -21.2077  -12.9860 N   0  0  0  0  0  0  0  0  0  0  0  0
   21.2718  -21.0133  -12.4362 C   0  0  0  0  0  0  0  0  0  0  0  0
   20.3740  -20.0423  -12.0404 O   0  0  0  0  0  0  0  0  0  0  0  0
   21.2008  -22.1583  -11.9332 O   0  0  0  0  0  0  0  0  0  0  0  0
  2  3  1  1
  2  1  1  0
  4  2  1  0
  5  4  1  0
  5  6  1  6
  7  8  2  0
  7  5  1  0
 10  9  1  1
 10 12  1  0
 10 11  1  0
 13 12  1  1
 13 14  1  0
 14  7  1  0
 15 13  1  0
 15 16  2  0
 18 17  1  6
 19 18  1  0
 20 18  1  0
 20 21  1  1
 21 15  1  0
 22 20  1  0
 23 22  1  0
 24 22  2  0
M  END
$$$$
