LLV.pdb
     RDKit          3D

 24 23  0  0  1  0  0  0  0  0999 V2000
   21.3115  -20.8926  -16.9076 C   0  0  0  0  0  0  0  0  0  0  0  0
   20.9561  -20.0908  -15.6707 C   0  0  1  0  0  0  0  0  0  0  0  0
   19.4897  -19.7319  -15.7800 C   0  0  0  0  0  0  0  0  0  0  0  0
   21.2370  -20.9330  -14.4649 C   0  0  0  0  0  0  0  0  0  0  0  0
   20.7599  -20.2857  -13.1828 C   0  0  2  0  0  0  0  0  0  0  0  0
   21.5458  -19.0806  -12.9940 N   0  0  0  0  0  0  0  0  0  0  0  0
   20.9298  -21.1506  -12.0130 C   0  0  0  0  0  0  0  0  0  0  0  0
   20.5871  -22.3821  -12.0441 O   0  0  0  0  0  0  0  0  0  0  0  0
   24.6621  -22.0206   -9.7268 C   0  0  0  0  0  0  0  0  0  0  0  0
   24.0543  -20.6616   -9.3026 C   0  0  2  0  0  0  0  0  0  0  0  0
   25.0677  -19.9920   -8.4510 C   0  0  0  0  0  0  0  0  0  0  0  0
   22.6996  -20.8794   -8.7076 C   0  0  0  0  0  0  0  0  0  0  0  0
   21.7067  -21.5043   -9.6201 C   0  0  2  0  0  0  0  0  0  0  0  0
   21.4750  -20.7145  -10.7720 N   0  0  0  0  0  0  0  0  0  0  0  0
   20.4534  -21.8970   -8.9170 C   0  0  0  0  0  0  0  0  0  0  0  0
   19.5861  -21.0051   -8.7701 O   0  0  0  0  0  0  0  0  0  0  0  0
   16.9119  -25.0403   -7.8934 C   0  0  0  0  0  0  0  0  0  0  0  0
   18.2396  -24.6613   -8.5130 C   0  0  1  0  0  0  0  0  0  0  0  0
   17.9655  -24.2085   -9.9298 C   0  0  0  0  0  0  0  0  0  0  0  0
   18.9151  -23.5232   -7.7826 C   0  0  2  0  0  0  0  0  0  0  0  0
   20.1932  -23.1912   -8.4171 N   0  0  0  0  0  0  0  0  0  0  0  0
   19.1345  -23.8566   -6.3744 C   0  0  0  0  0  0  0  0  0  0  0  0
   18.0935  -23.7656   -5.4725 O   0  0  0  0  0  0  0  0  0  0  0  0
   20.2632  -24.2256   -5.9757 O   0  0  0  0  0  0  0  0  0  0  0  0
  2  3  1  6
  2  1  1  0
  4  2  1  0
  5  4  1  0
  5  6  1  1
  7  8  2  0
  7  5  1  0
 10  9  1  1
 10 12  1  0
 10 11  1  0
 13 12  1  1
 13 14  1  0
 14  7  1  0
 15 13  1  0
 15 16  2  0
 18 17  1  1
 19 18  1  0
 20 18  1  0
 20 21  1  6
 21 15  1  0
 22 20  1  0
 23 22  1  0
 24 22  2  0
M  END
$$$$
