LLV.pdb
     RDKit          3D

 24 23  0  0  1  0  0  0  0  0999 V2000
   28.9429  -17.8459  -16.8253 C   0  0  0  0  0  0  0  0  0  0  0  0
   27.8998  -17.5105  -15.7773 C   0  0  1  0  0  0  0  0  0  0  0  0
   27.1084  -16.3308  -16.2996 C   0  0  0  0  0  0  0  0  0  0  0  0
   27.0353  -18.7152  -15.5687 C   0  0  0  0  0  0  0  0  0  0  0  0
   27.5914  -19.6518  -14.5179 C   0  0  2  0  0  0  0  0  0  0  0  0
   28.5046  -20.5562  -15.1915 N   0  0  0  0  0  0  0  0  0  0  0  0
   26.5511  -20.4382  -13.8510 C   0  0  0  0  0  0  0  0  0  0  0  0
   26.1436  -21.5474  -14.3394 O   0  0  0  0  0  0  0  0  0  0  0  0
   26.5004  -22.1116   -9.8910 C   0  0  0  0  0  0  0  0  0  0  0  0
   26.0915  -20.6198   -9.8314 C   0  0  2  0  0  0  0  0  0  0  0  0
   26.1480  -20.2222   -8.4033 C   0  0  0  0  0  0  0  0  0  0  0  0
   24.7904  -20.4252  -10.5426 C   0  0  0  0  0  0  0  0  0  0  0  0
   24.8270  -20.6980  -12.0032 C   0  0  2  0  0  0  0  0  0  0  0  0
   25.9172  -20.0530  -12.6356 N   0  0  0  0  0  0  0  0  0  0  0  0
   23.5210  -20.4275  -12.6671 C   0  0  0  0  0  0  0  0  0  0  0  0
   23.2500  -19.2291  -12.9111 O   0  0  0  0  0  0  0  0  0  0  0  0
   22.2866  -21.4386  -15.9738 C   0  0  0  0  0  0  0  0  0  0  0  0
   21.1907  -21.8112  -14.9988 C   0  0  1  0  0  0  0  0  0  0  0  0
   21.3079  -23.2952  -14.7312 C   0  0  0  0  0  0  0  0  0  0  0  0
   21.3209  -21.0879  -13.6779 C   0  0  2  0  0  0  0  0  0  0  0  0
   22.5906  -21.4253  -13.0294 N   0  0  0  0  0  0  0  0  0  0  0  0
   20.2081  -21.4151  -12.7853 C   0  0  0  0  0  0  0  0  0  0  0  0
   18.9644  -20.8550  -12.9976 O   0  0  0  0  0  0  0  0  0  0  0  0
   20.3722  -22.2024  -11.8250 O   0  0  0  0  0  0  0  0  0  0  0  0
  2  3  1  6
  2  1  1  0
  4  2  1  0
  5  4  1  0
  5  6  1  6
  7  8  2  0
  7  5  1  0
 10  9  1  1
 10 12  1  0
 10 11  1  0
 13 12  1  1
 13 14  1  0
 14  7  1  0
 15 13  1  0
 15 16  2  0
 18 17  1  6
 19 18  1  0
 20 18  1  0
 20 21  1  1
 21 15  1  0
 22 20  1  0
 23 22  1  0
 24 22  2  0
M  END
$$$$
