LLV.pdb
     RDKit          3D

 24 23  0  0  1  0  0  0  0  0999 V2000
   29.9197  -22.4845  -16.3358 C   0  0  0  0  0  0  0  0  0  0  0  0
   28.9135  -21.3569  -16.2128 C   0  0  1  0  0  0  0  0  0  0  0  0
   28.4148  -21.0521  -17.6090 C   0  0  0  0  0  0  0  0  0  0  0  0
   27.8071  -21.8074  -15.3100 C   0  0  0  0  0  0  0  0  0  0  0  0
   26.7003  -20.7817  -15.1944 C   0  0  2  0  0  0  0  0  0  0  0  0
   27.2783  -19.5951  -14.5914 N   0  0  0  0  0  0  0  0  0  0  0  0
   25.5854  -21.2410  -14.3628 C   0  0  0  0  0  0  0  0  0  0  0  0
   24.9393  -22.3062  -14.6504 O   0  0  0  0  0  0  0  0  0  0  0  0
   25.7345  -22.2202  -10.1488 C   0  0  0  0  0  0  0  0  0  0  0  0
   25.5538  -20.6938  -10.3325 C   0  0  2  0  0  0  0  0  0  0  0  0
   25.8117  -20.0747   -9.0093 C   0  0  0  0  0  0  0  0  0  0  0  0
   24.2293  -20.4163  -10.9690 C   0  0  0  0  0  0  0  0  0  0  0  0
   24.0689  -20.9559  -12.3445 C   0  0  2  0  0  0  0  0  0  0  0  0
   25.1321  -20.5656  -13.1941 N   0  0  0  0  0  0  0  0  0  0  0  0
   22.7245  -20.6669  -12.9177 C   0  0  0  0  0  0  0  0  0  0  0  0
   22.5356  -19.5090  -13.3567 O   0  0  0  0  0  0  0  0  0  0  0  0
   20.0739  -23.7010  -14.3099 C   0  0  0  0  0  0  0  0  0  0  0  0
   20.1602  -22.2708  -14.7972 C   0  0  1  0  0  0  0  0  0  0  0  0
   18.8282  -21.9250  -15.4247 C   0  0  0  0  0  0  0  0  0  0  0  0
   20.4146  -21.2912  -13.6743 C   0  0  2  0  0  0  0  0  0  0  0  0
   21.6727  -21.6054  -12.9927 N   0  0  0  0  0  0  0  0  0  0  0  0
   19.3145  -21.2982  -12.7089 C   0  0  0  0  0  0  0  0  0  0  0  0
   18.2079  -20.4996  -12.9167 O   0  0  0  0  0  0  0  0  0  0  0  0
   19.3660  -22.0249  -11.6900 O   0  0  0  0  0  0  0  0  0  0  0  0
  2  3  1  6
  2  1  1  0
  4  2  1  0
  5  4  1  0
  5  6  1  1
  7  8  2  0
  7  5  1  0
 10  9  1  1
 10 12  1  0
 10 11  1  0
 13 12  1  1
 13 14  1  0
 14  7  1  0
 15 13  1  0
 15 16  2  0
 18 17  1  1
 19 18  1  0
 20 18  1  0
 20 21  1  1
 21 15  1  0
 22 20  1  0
 23 22  1  0
 24 22  2  0
M  END
$$$$
