LLV.pdb
     RDKit          3D

 24 23  0  0  1  0  0  0  0  0999 V2000
   16.7000  -11.8741  -21.1955 C   0  0  0  0  0  0  0  0  0  0  0  0
   17.6571  -12.5752  -20.2514 C   0  0  1  0  0  0  0  0  0  0  0  0
   18.8594  -12.9959  -21.0691 C   0  0  0  0  0  0  0  0  0  0  0  0
   18.0298  -11.6193  -19.1606 C   0  0  0  0  0  0  0  0  0  0  0  0
   19.0477  -12.2012  -18.2038 C   0  0  2  0  0  0  0  0  0  0  0  0
   18.3879  -13.2682  -17.4744 N   0  0  0  0  0  0  0  0  0  0  0  0
   19.5549  -11.2156  -17.2463 C   0  0  0  0  0  0  0  0  0  0  0  0
   18.8218  -10.7788  -16.2941 O   0  0  0  0  0  0  0  0  0  0  0  0
   22.5403  -10.8435  -13.8988 C   0  0  0  0  0  0  0  0  0  0  0  0
   23.1390  -11.0418  -15.3125 C   0  0  2  0  0  0  0  0  0  0  0  0
   24.5692  -11.3867  -15.1219 C   0  0  0  0  0  0  0  0  0  0  0  0
   22.8320   -9.8495  -16.1615 C   0  0  0  0  0  0  0  0  0  0  0  0
   21.3902   -9.6453  -16.4586 C   0  0  2  0  0  0  0  0  0  0  0  0
   20.8694  -10.6697  -17.2856 N   0  0  0  0  0  0  0  0  0  0  0  0
   21.1011   -8.2761  -16.9694 C   0  0  0  0  0  0  0  0  0  0  0  0
   21.4853   -8.0154  -18.1328 O   0  0  0  0  0  0  0  0  0  0  0  0
   18.3818   -4.2785  -17.3544 C   0  0  0  0  0  0  0  0  0  0  0  0
   18.6927   -5.6791  -16.8724 C   0  0  1  0  0  0  0  0  0  0  0  0
   18.0935   -6.6449  -17.8703 C   0  0  0  0  0  0  0  0  0  0  0  0
   20.1782   -5.9487  -16.7971 C   0  0  2  0  0  0  0  0  0  0  0  0
   20.4321   -7.2760  -16.2312 N   0  0  0  0  0  0  0  0  0  0  0  0
   20.8590   -4.9312  -15.9951 C   0  0  0  0  0  0  0  0  0  0  0  0
   21.2546   -3.7435  -16.5768 O   0  0  0  0  0  0  0  0  0  0  0  0
   21.0883   -5.1269  -14.7793 O   0  0  0  0  0  0  0  0  0  0  0  0
  2  3  1  6
  2  1  1  0
  4  2  1  0
  5  4  1  0
  5  6  1  1
  7  8  2  0
  7  5  1  0
 10  9  1  1
 10 12  1  0
 10 11  1  0
 13 12  1  6
 13 14  1  0
 14  7  1  0
 15 13  1  0
 15 16  2  0
 18 17  1  6
 19 18  1  0
 20 18  1  0
 20 21  1  1
 21 15  1  0
 22 20  1  0
 23 22  1  0
 24 22  2  0
M  END
$$$$
