LLV.pdb
     RDKit          3D

 24 23  0  0  1  0  0  0  0  0999 V2000
   29.2291  -18.6006   -4.7420 C   0  0  0  0  0  0  0  0  0  0  0  0
   28.2442  -19.6355   -5.2500 C   0  0  1  0  0  0  0  0  0  0  0  0
   27.4049  -20.0683   -4.0671 C   0  0  0  0  0  0  0  0  0  0  0  0
   27.4127  -19.0083   -6.3258 C   0  0  0  0  0  0  0  0  0  0  0  0
   26.4611  -19.9930   -6.9701 C   0  0  2  0  0  0  0  0  0  0  0  0
   26.9322  -21.3242   -6.6356 N   0  0  0  0  0  0  0  0  0  0  0  0
   26.4090  -19.8610   -8.4280 C   0  0  0  0  0  0  0  0  0  0  0  0
   26.0303  -18.7724   -8.9815 O   0  0  0  0  0  0  0  0  0  0  0  0
   29.2663  -19.5871  -11.7086 C   0  0  0  0  0  0  0  0  0  0  0  0
   29.1622  -21.0107  -11.1094 C   0  0  2  0  0  0  0  0  0  0  0  0
   30.3336  -21.7687  -11.6134 C   0  0  0  0  0  0  0  0  0  0  0  0
   27.8083  -21.5790  -11.3934 C   0  0  0  0  0  0  0  0  0  0  0  0
   26.6785  -20.8608  -10.7480 C   0  0  2  0  0  0  0  0  0  0  0  0
   26.7638  -20.8994   -9.3353 N   0  0  0  0  0  0  0  0  0  0  0  0
   25.3526  -21.2990  -11.2671 C   0  0  0  0  0  0  0  0  0  0  0  0
   25.0422  -22.4982  -11.0802 O   0  0  0  0  0  0  0  0  0  0  0  0
   22.0098  -20.2880  -10.2734 C   0  0  0  0  0  0  0  0  0  0  0  0
   22.0202  -20.1699  -11.7822 C   0  0  1  0  0  0  0  0  0  0  0  0
   22.2161  -18.7089  -12.1208 C   0  0  0  0  0  0  0  0  0  0  0  0
   23.1489  -20.9506  -12.4159 C   0  0  2  0  0  0  0  0  0  0  0  0
   24.4447  -20.4563  -11.9440 N   0  0  0  0  0  0  0  0  0  0  0  0
   23.0913  -20.8696  -13.8762 C   0  0  0  0  0  0  0  0  0  0  0  0
   22.0571  -21.4747  -14.5615 O   0  0  0  0  0  0  0  0  0  0  0  0
   23.9753  -20.2538  -14.5152 O   0  0  0  0  0  0  0  0  0  0  0  0
  2  3  1  1
  2  1  1  0
  4  2  1  0
  5  4  1  0
  5  6  1  6
  7  8  2  0
  7  5  1  0
 10  9  1  6
 10 12  1  0
 10 11  1  0
 13 12  1  6
 13 14  1  0
 14  7  1  0
 15 13  1  0
 15 16  2  0
 18 17  1  1
 19 18  1  0
 20 18  1  0
 20 21  1  1
 21 15  1  0
 22 20  1  0
 23 22  1  0
 24 22  2  0
M  END
$$$$
