LLV.pdb
     RDKit          3D

 24 23  0  0  1  0  0  0  0  0999 V2000
   21.0955  -18.3159  -14.7105 C   0  0  0  0  0  0  0  0  0  0  0  0
   22.1739  -19.2659  -15.1940 C   0  0  1  0  0  0  0  0  0  0  0  0
   23.1769  -18.4408  -15.9713 C   0  0  0  0  0  0  0  0  0  0  0  0
   22.7954  -19.9222  -14.0002 C   0  0  0  0  0  0  0  0  0  0  0  0
   23.9528  -20.8235  -14.3722 C   0  0  2  0  0  0  0  0  0  0  0  0
   23.3878  -22.0274  -14.9527 N   0  0  0  0  0  0  0  0  0  0  0  0
   24.7765  -21.1945  -13.2191 C   0  0  0  0  0  0  0  0  0  0  0  0
   24.3199  -21.9508  -12.2948 O   0  0  0  0  0  0  0  0  0  0  0  0
   30.7676  -20.7638  -11.5309 C   0  0  0  0  0  0  0  0  0  0  0  0
   29.3413  -21.2273  -11.1475 C   0  0  2  0  0  0  0  0  0  0  0  0
   29.4567  -22.6436  -10.7215 C   0  0  0  0  0  0  0  0  0  0  0  0
   28.3959  -20.9265  -12.2666 C   0  0  0  0  0  0  0  0  0  0  0  0
   26.9555  -21.0491  -11.9211 C   0  0  2  0  0  0  0  0  0  0  0  0
   26.1191  -20.7614  -13.0266 N   0  0  0  0  0  0  0  0  0  0  0  0
   26.5947  -20.2798  -10.6975 C   0  0  0  0  0  0  0  0  0  0  0  0
   26.4551  -19.0420  -10.8303 O   0  0  0  0  0  0  0  0  0  0  0  0
   23.7189  -20.8834   -8.2375 C   0  0  0  0  0  0  0  0  0  0  0  0
   24.9863  -20.6744   -7.4372 C   0  0  1  0  0  0  0  0  0  0  0  0
   25.4699  -22.0362   -6.9909 C   0  0  0  0  0  0  0  0  0  0  0  0
   26.0863  -20.0335   -8.2523 C   0  0  2  0  0  0  0  0  0  0  0  0
   26.4050  -20.8552   -9.4225 N   0  0  0  0  0  0  0  0  0  0  0  0
   27.2915  -19.8330   -7.4464 C   0  0  0  0  0  0  0  0  0  0  0  0
   28.3827  -20.6609   -7.6175 O   0  0  0  0  0  0  0  0  0  0  0  0
   27.3444  -18.9130   -6.5979 O   0  0  0  0  0  0  0  0  0  0  0  0
  2  3  1  1
  2  1  1  0
  4  2  1  0
  5  4  1  0
  5  6  1  1
  7  8  2  0
  7  5  1  0
 10  9  1  6
 10 12  1  0
 10 11  1  0
 13 12  1  6
 13 14  1  0
 14  7  1  0
 15 13  1  0
 15 16  2  0
 18 17  1  6
 19 18  1  0
 20 18  1  0
 20 21  1  6
 21 15  1  0
 22 20  1  0
 23 22  1  0
 24 22  2  0
M  END
$$$$
