LLV.pdb
     RDKit          3D

 24 23  0  0  1  0  0  0  0  0999 V2000
   20.8891  -18.2141  -14.9130 C   0  0  0  0  0  0  0  0  0  0  0  0
   20.3739  -19.0573  -13.7630 C   0  0  1  0  0  0  0  0  0  0  0  0
   18.8746  -19.1742  -13.9346 C   0  0  0  0  0  0  0  0  0  0  0  0
   21.0485  -20.3931  -13.8173 C   0  0  0  0  0  0  0  0  0  0  0  0
   22.3925  -20.3915  -13.1215 C   0  0  2  0  0  0  0  0  0  0  0  0
   23.3397  -21.0252  -14.0198 N   0  0  0  0  0  0  0  0  0  0  0  0
   22.3764  -21.1260  -11.8543 C   0  0  0  0  0  0  0  0  0  0  0  0
   22.2021  -22.3923  -11.8248 O   0  0  0  0  0  0  0  0  0  0  0  0
   25.3203  -22.1231   -8.5127 C   0  0  0  0  0  0  0  0  0  0  0  0
   24.9121  -20.6345   -8.6309 C   0  0  2  0  0  0  0  0  0  0  0  0
   25.8471  -19.8696   -7.7699 C   0  0  0  0  0  0  0  0  0  0  0  0
   23.4507  -20.4890   -8.3485 C   0  0  0  0  0  0  0  0  0  0  0  0
   22.5534  -21.1668   -9.3203 C   0  0  2  0  0  0  0  0  0  0  0  0
   22.5480  -20.5176  -10.5784 N   0  0  0  0  0  0  0  0  0  0  0  0
   21.1868  -21.3943   -8.7725 C   0  0  0  0  0  0  0  0  0  0  0  0
   20.4110  -20.4108   -8.7656 O   0  0  0  0  0  0  0  0  0  0  0  0
   18.4589  -23.1033  -10.1373 C   0  0  0  0  0  0  0  0  0  0  0  0
   18.5736  -23.6921   -8.7478 C   0  0  1  0  0  0  0  0  0  0  0  0
   19.3207  -25.0014   -8.8710 C   0  0  0  0  0  0  0  0  0  0  0  0
   19.3479  -22.8008   -7.8038 C   0  0  2  0  0  0  0  0  0  0  0  0
   20.7260  -22.6308   -8.2709 N   0  0  0  0  0  0  0  0  0  0  0  0
   19.3503  -23.3467   -6.4458 C   0  0  0  0  0  0  0  0  0  0  0  0
   20.5189  -23.8406   -5.9018 O   0  0  0  0  0  0  0  0  0  0  0  0
   18.2976  -23.3711   -5.7674 O   0  0  0  0  0  0  0  0  0  0  0  0
  2  3  1  6
  2  1  1  0
  4  2  1  0
  5  4  1  0
  5  6  1  6
  7  8  2  0
  7  5  1  0
 10  9  1  1
 10 12  1  0
 10 11  1  0
 13 12  1  1
 13 14  1  0
 14  7  1  0
 15 13  1  0
 15 16  2  0
 18 17  1  6
 19 18  1  0
 20 18  1  0
 20 21  1  6
 21 15  1  0
 22 20  1  0
 23 22  1  0
 24 22  2  0
M  END
$$$$
