LLV.pdb
     RDKit          3D

 24 23  0  0  1  0  0  0  0  0999 V2000
   28.9702  -18.1865  -16.6386 C   0  0  0  0  0  0  0  0  0  0  0  0
   27.7991  -17.6146  -15.8638 C   0  0  1  0  0  0  0  0  0  0  0  0
   26.8987  -16.9236  -16.8652 C   0  0  0  0  0  0  0  0  0  0  0  0
   27.0994  -18.7398  -15.1662 C   0  0  0  0  0  0  0  0  0  0  0  0
   25.8028  -18.3029  -14.5195 C   0  0  2  0  0  0  0  0  0  0  0  0
   26.1427  -17.3419  -13.4867 N   0  0  0  0  0  0  0  0  0  0  0  0
   25.0699  -19.4149  -13.9096 C   0  0  0  0  0  0  0  0  0  0  0  0
   24.6695  -20.4074  -14.6093 O   0  0  0  0  0  0  0  0  0  0  0  0
   26.5476  -21.8470  -10.7977 C   0  0  0  0  0  0  0  0  0  0  0  0
   25.8601  -20.6041  -10.1820 C   0  0  2  0  0  0  0  0  0  0  0  0
   26.2869  -20.5441   -8.7626 C   0  0  0  0  0  0  0  0  0  0  0  0
   24.3899  -20.6568  -10.4507 C   0  0  0  0  0  0  0  0  0  0  0  0
   24.0077  -20.5129  -11.8797 C   0  0  2  0  0  0  0  0  0  0  0  0
   24.7456  -19.4915  -12.5253 N   0  0  0  0  0  0  0  0  0  0  0  0
   22.5357  -20.3794  -12.0661 C   0  0  0  0  0  0  0  0  0  0  0  0
   22.0427  -19.2450  -11.8679 O   0  0  0  0  0  0  0  0  0  0  0  0
   20.5886  -20.9155  -15.1602 C   0  0  0  0  0  0  0  0  0  0  0  0
   19.8711  -21.6849  -14.0722 C   0  0  1  0  0  0  0  0  0  0  0  0
   20.2731  -23.1370  -14.2040 C   0  0  0  0  0  0  0  0  0  0  0  0
   20.2536  -21.2195  -12.6859 C   0  0  2  0  0  0  0  0  0  0  0  0
   21.6822  -21.4377  -12.4458 N   0  0  0  0  0  0  0  0  0  0  0  0
   19.4692  -21.9115  -11.6620 C   0  0  0  0  0  0  0  0  0  0  0  0
   18.1426  -21.5829  -11.4685 O   0  0  0  0  0  0  0  0  0  0  0  0
   19.9913  -22.8039  -10.9549 O   0  0  0  0  0  0  0  0  0  0  0  0
  2  3  1  6
  2  1  1  0
  4  2  1  0
  5  4  1  0
  5  6  1  1
  7  8  2  0
  7  5  1  0
 10  9  1  1
 10 12  1  0
 10 11  1  0
 13 12  1  1
 13 14  1  0
 14  7  1  0
 15 13  1  0
 15 16  2  0
 18 17  1  6
 19 18  1  0
 20 18  1  0
 20 21  1  1
 21 15  1  0
 22 20  1  0
 23 22  1  0
 24 22  2  0
M  END
$$$$
