LLV.pdb
     RDKit          3D

 24 23  0  0  1  0  0  0  0  0999 V2000
   20.8275  -17.9393  -15.3769 C   0  0  0  0  0  0  0  0  0  0  0  0
   21.8738  -18.9055  -15.8973 C   0  0  1  0  0  0  0  0  0  0  0  0
   22.8357  -18.1034  -16.7472 C   0  0  0  0  0  0  0  0  0  0  0  0
   22.5575  -19.5379  -14.7248 C   0  0  0  0  0  0  0  0  0  0  0  0
   23.7307  -20.4012  -15.1354 C   0  0  2  0  0  0  0  0  0  0  0  0
   23.1911  -21.5481  -15.8419 N   0  0  0  0  0  0  0  0  0  0  0  0
   24.5146  -20.8745  -13.9921 C   0  0  0  0  0  0  0  0  0  0  0  0
   24.0098  -21.6676  -13.1255 O   0  0  0  0  0  0  0  0  0  0  0  0
   28.8742  -20.7472  -10.6518 C   0  0  0  0  0  0  0  0  0  0  0  0
   29.0717  -21.4403  -12.0218 C   0  0  2  0  0  0  0  0  0  0  0  0
   30.5228  -21.3766  -12.3232 C   0  0  0  0  0  0  0  0  0  0  0  0
   28.1393  -20.8435  -13.0273 C   0  0  0  0  0  0  0  0  0  0  0  0
   26.6961  -20.9626  -12.6928 C   0  0  2  0  0  0  0  0  0  0  0  0
   25.8684  -20.5072  -13.7473 N   0  0  0  0  0  0  0  0  0  0  0  0
   26.3622  -20.3467  -11.3781 C   0  0  0  0  0  0  0  0  0  0  0  0
   26.3069  -19.0959  -11.3392 O   0  0  0  0  0  0  0  0  0  0  0  0
   24.3320  -20.6269   -6.8676 C   0  0  0  0  0  0  0  0  0  0  0  0
   24.6994  -21.2342   -8.2043 C   0  0  1  0  0  0  0  0  0  0  0  0
   23.4401  -21.2842   -9.0405 C   0  0  0  0  0  0  0  0  0  0  0  0
   25.7230  -20.4108   -8.9521 C   0  0  2  0  0  0  0  0  0  0  0  0
   26.1098  -21.0783  -10.1975 N   0  0  0  0  0  0  0  0  0  0  0  0
   26.9103  -20.1718   -8.1303 C   0  0  0  0  0  0  0  0  0  0  0  0
   26.9545  -19.0856   -7.2796 O   0  0  0  0  0  0  0  0  0  0  0  0
   27.8928  -20.9463   -8.1904 O   0  0  0  0  0  0  0  0  0  0  0  0
  2  3  1  1
  2  1  1  0
  4  2  1  0
  5  4  1  0
  5  6  1  1
  7  8  2  0
  7  5  1  0
 10  9  1  1
 10 12  1  0
 10 11  1  0
 13 12  1  6
 13 14  1  0
 14  7  1  0
 15 13  1  0
 15 16  2  0
 18 17  1  1
 19 18  1  0
 20 18  1  0
 20 21  1  6
 21 15  1  0
 22 20  1  0
 23 22  1  0
 24 22  2  0
M  END
$$$$
