NEW.pdb
     RDKit          3D

 32 33  0  0  1  0  0  0  0  0999 V2000
    7.4940  -22.6054   19.9939 N   0  0  0  0  0  0  0  0  0  0  0  0
    8.2240  -22.5540   21.1980 C   0  0  0  0  0  0  0  0  0  0  0  0
    7.9546  -23.3320   22.1307 O   0  0  0  0  0  0  0  0  0  0  0  0
    9.3147  -21.5706   21.3568 C   0  0  0  0  0  0  0  0  0  0  0  0
    9.0206  -20.6113   22.5089 C   0  0  2  0  0  0  0  0  0  0  0  0
    7.6799  -20.0602   22.3691 N   0  0  0  0  0  0  0  0  0  0  0  0
   10.0493  -19.5743   22.5669 C   0  0  0  0  0  0  0  0  0  0  0  0
   11.2853  -19.7865   22.6696 O   0  0  0  0  0  0  0  0  0  0  0  0
    9.6766  -18.2034   22.5050 N   0  0  0  0  0  0  0  0  0  0  0  0
   10.6300  -17.1045   22.4964 C   0  0  1  0  0  0  0  0  0  0  0  0
   10.3379  -16.0867   21.4636 C   0  0  0  0  0  0  0  0  0  0  0  0
   10.1730  -16.7202   20.1105 C   0  0  0  0  0  0  0  0  0  0  0  0
   11.4776  -16.6993   19.3587 C   0  0  0  0  0  0  0  0  0  0  0  0
   12.4121  -16.0052   19.7842 O   0  0  0  0  0  0  0  0  0  0  0  0
   10.8860  -16.6056   23.8670 C   0  0  0  0  0  0  0  0  0  0  0  0
   11.7299  -15.7136   24.1500 O   0  0  0  0  0  0  0  0  0  0  0  0
   11.6177  -17.4442   18.2189 O   0  0  0  0  0  0  0  0  0  0  0  0
   10.1462  -17.1437   24.9804 N   0  0  0  0  0  0  0  0  0  0  0  0
   10.4787  -16.7312   26.3197 C   0  0  1  0  0  0  0  0  0  0  0  0
   10.0860  -15.2858   26.5672 C   0  0  0  0  0  0  0  0  0  0  0  0
    8.6388  -15.1011   26.2992 C   0  0  0  0  0  0  0  0  0  0  0  0
    7.6494  -16.0020   25.9984 C   0  0  0  0  0  0  0  0  0  0  0  0
    6.4671  -15.3727   25.8298 N   0  0  0  0  0  0  0  0  0  0  0  0
    6.6542  -14.0629   26.0140 C   0  0  0  0  0  0  0  0  0  0  0  0
    5.8040  -12.9820   25.9631 C   0  0  0  0  0  0  0  0  0  0  0  0
    6.2631  -11.7138   26.1989 C   0  0  0  0  0  0  0  0  0  0  0  0
    7.5868  -11.4966   26.4911 C   0  0  0  0  0  0  0  0  0  0  0  0
    8.4346  -12.5747   26.5412 C   0  0  0  0  0  0  0  0  0  0  0  0
    7.9983  -13.8631   26.3082 C   0  0  0  0  0  0  0  0  0  0  0  0
    9.7451  -17.5989   27.2740 C   0  0  0  0  0  0  0  0  0  0  0  0
    9.9356  -17.4326   28.6379 O   0  0  0  0  0  0  0  0  0  0  0  0
    8.9408  -18.4953   26.8429 O   0  0  0  0  0  0  0  0  0  0  0  0
  2  1  1  0
  3  2  2  0
  4  2  1  0
  4  5  1  0
  5  6  1  6
  7  5  1  0
  7  8  2  0
  9  7  1  0
 10  9  1  0
 10 11  1  6
 12 11  1  0
 12 13  1  0
 13 14  2  0
 15 18  1  0
 15 10  1  0
 16 15  2  0
 17 13  1  0
 19 18  1  0
 19 30  1  0
 20 21  1  0
 19 20  1  6
 21 29  1  0
 21 22  2  0
 22 23  1  0
 24 23  1  0
 24 25  2  0
 26 25  1  0
 27 26  2  0
 28 27  1  0
 28 29  2  0
 29 24  1  0
 30 31  1  0
 32 30  2  0
M  END
$$$$
