NEW.pdb
     RDKit          3D

 32 33  0  0  1  0  0  0  0  0999 V2000
    7.5816  -18.5017   17.9139 N   0  0  0  0  0  0  0  0  0  0  0  0
    6.4854  -18.1371   18.7207 C   0  0  0  0  0  0  0  0  0  0  0  0
    5.3217  -18.3065   18.3145 O   0  0  0  0  0  0  0  0  0  0  0  0
    6.7166  -17.5488   20.0557 C   0  0  0  0  0  0  0  0  0  0  0  0
    8.2079  -17.3284   20.3037 C   0  0  2  0  0  0  0  0  0  0  0  0
    8.9658  -17.6481   19.1020 N   0  0  0  0  0  0  0  0  0  0  0  0
    8.6394  -18.1084   21.4623 C   0  0  0  0  0  0  0  0  0  0  0  0
    8.4769  -19.3484   21.6006 O   0  0  0  0  0  0  0  0  0  0  0  0
    9.2997  -17.4630   22.5438 N   0  0  0  0  0  0  0  0  0  0  0  0
   10.7314  -17.5512   22.7871 C   0  0  1  0  0  0  0  0  0  0  0  0
   11.5468  -17.0487   21.6600 C   0  0  0  0  0  0  0  0  0  0  0  0
   13.0098  -17.3018   21.8951 C   0  0  0  0  0  0  0  0  0  0  0  0
   13.8290  -16.7301   20.7683 C   0  0  0  0  0  0  0  0  0  0  0  0
   13.7771  -17.2617   19.6499 O   0  0  0  0  0  0  0  0  0  0  0  0
   11.0785  -17.0462   24.1352 C   0  0  0  0  0  0  0  0  0  0  0  0
   12.2237  -17.1382   24.6529 O   0  0  0  0  0  0  0  0  0  0  0  0
   14.6184  -15.6340   20.9895 O   0  0  0  0  0  0  0  0  0  0  0  0
   10.0759  -16.3996   24.9435 N   0  0  0  0  0  0  0  0  0  0  0  0
   10.4095  -15.9650   26.2755 C   0  0  1  0  0  0  0  0  0  0  0  0
    9.8354  -14.5908   26.5694 C   0  0  0  0  0  0  0  0  0  0  0  0
    8.4247  -14.5236   26.1157 C   0  0  0  0  0  0  0  0  0  0  0  0
    7.5798  -15.4899   25.6327 C   0  0  0  0  0  0  0  0  0  0  0  0
    6.3723  -14.9633   25.3381 N   0  0  0  0  0  0  0  0  0  0  0  0
    6.3999  -13.6573   25.6180 C   0  0  0  0  0  0  0  0  0  0  0  0
    5.4587  -12.6592   25.5103 C   0  0  0  0  0  0  0  0  0  0  0  0
    5.7520  -11.3728   25.8763 C   0  0  0  0  0  0  0  0  0  0  0  0
    6.9970  -11.0540   26.3591 C   0  0  0  0  0  0  0  0  0  0  0  0
    7.9357  -12.0495   26.4658 C   0  0  0  0  0  0  0  0  0  0  0  0
    7.6666  -13.3540   26.1047 C   0  0  0  0  0  0  0  0  0  0  0  0
    9.8449  -16.9388   27.2423 C   0  0  0  0  0  0  0  0  0  0  0  0
   10.1333  -16.8100   28.5930 O   0  0  0  0  0  0  0  0  0  0  0  0
    9.0958  -17.8919   26.8341 O   0  0  0  0  0  0  0  0  0  0  0  0
  2  1  1  0
  3  2  2  0
  4  2  1  0
  4  5  1  0
  5  6  1  6
  7  5  1  0
  7  8  2  0
  9  7  1  0
 10  9  1  0
 10 11  1  6
 12 11  1  0
 12 13  1  0
 13 14  2  0
 15 18  1  0
 15 10  1  0
 16 15  2  0
 17 13  1  0
 19 18  1  0
 19 30  1  0
 20 21  1  0
 19 20  1  1
 21 29  1  0
 21 22  2  0
 22 23  1  0
 24 23  1  0
 24 25  2  0
 26 25  1  0
 27 26  2  0
 28 27  1  0
 28 29  2  0
 29 24  1  0
 30 31  1  0
 32 30  2  0
M  END
$$$$
