NEW.pdb
     RDKit          3D

 32 33  0  0  1  0  0  0  0  0999 V2000
    8.3839  -12.7234   17.3699 N   0  0  0  0  0  0  0  0  0  0  0  0
    7.4993  -13.8202   17.3688 C   0  0  0  0  0  0  0  0  0  0  0  0
    6.6889  -13.9737   16.4375 O   0  0  0  0  0  0  0  0  0  0  0  0
    7.5312  -14.7935   18.4795 C   0  0  0  0  0  0  0  0  0  0  0  0
    8.4921  -14.3380   19.5764 C   0  0  2  0  0  0  0  0  0  0  0  0
    9.7218  -13.8313   18.9833 N   0  0  0  0  0  0  0  0  0  0  0  0
    8.7321  -15.4342   20.5133 C   0  0  0  0  0  0  0  0  0  0  0  0
    7.8369  -16.0668   21.1311 O   0  0  0  0  0  0  0  0  0  0  0  0
   10.0629  -15.8576   20.7811 N   0  0  0  0  0  0  0  0  0  0  0  0
   10.4009  -16.9347   21.6988 C   0  0  1  0  0  0  0  0  0  0  0  0
   11.3420  -17.9192   21.1217 C   0  0  0  0  0  0  0  0  0  0  0  0
   10.7767  -18.5432   19.8766 C   0  0  0  0  0  0  0  0  0  0  0  0
   11.7679  -19.5034   19.2742 C   0  0  0  0  0  0  0  0  0  0  0  0
   11.9881  -20.5834   19.8410 O   0  0  0  0  0  0  0  0  0  0  0  0
   10.7305  -16.4100   23.0438 C   0  0  0  0  0  0  0  0  0  0  0  0
   11.5433  -15.4714   23.2584 O   0  0  0  0  0  0  0  0  0  0  0  0
   12.4122  -19.1756   18.1118 O   0  0  0  0  0  0  0  0  0  0  0  0
   10.1057  -16.9768   24.2121 N   0  0  0  0  0  0  0  0  0  0  0  0
   10.3979  -16.4270   25.5109 C   0  0  1  0  0  0  0  0  0  0  0  0
    9.9341  -14.9856   25.6188 C   0  0  0  0  0  0  0  0  0  0  0  0
    8.4557  -14.9360   25.7287 C   0  0  0  0  0  0  0  0  0  0  0  0
    7.4999  -15.9044   25.5565 C   0  0  0  0  0  0  0  0  0  0  0  0
    6.2654  -15.3966   25.7572 N   0  0  0  0  0  0  0  0  0  0  0  0
    6.3843  -14.1013   26.0613 C   0  0  0  0  0  0  0  0  0  0  0  0
    5.4624  -13.1228   26.3555 C   0  0  0  0  0  0  0  0  0  0  0  0
    5.8602  -11.8437   26.6392 C   0  0  0  0  0  0  0  0  0  0  0  0
    7.1925  -11.5126   26.6344 C   0  0  0  0  0  0  0  0  0  0  0  0
    8.1115  -12.4885   26.3404 C   0  0  0  0  0  0  0  0  0  0  0  0
    7.7383  -13.7853   26.0514 C   0  0  0  0  0  0  0  0  0  0  0  0
    9.6912  -17.2373   26.5336 C   0  0  0  0  0  0  0  0  0  0  0  0
    9.8876  -16.9656   27.8796 O   0  0  0  0  0  0  0  0  0  0  0  0
    8.9046  -18.1811   26.1775 O   0  0  0  0  0  0  0  0  0  0  0  0
  2  1  1  0
  3  2  2  0
  4  2  1  0
  4  5  1  0
  5  6  1  6
  7  5  1  0
  7  8  2  0
  9  7  1  0
 10  9  1  0
 10 11  1  6
 12 11  1  0
 12 13  1  0
 13 14  2  0
 15 18  1  0
 15 10  1  0
 16 15  2  0
 17 13  1  0
 19 18  1  0
 19 30  1  0
 20 21  1  0
 19 20  1  6
 21 29  1  0
 21 22  2  0
 22 23  1  0
 24 23  1  0
 24 25  2  0
 26 25  1  0
 27 26  2  0
 28 27  1  0
 28 29  2  0
 29 24  1  0
 30 31  1  0
 32 30  2  0
M  END
$$$$
