NEW.pdb
     RDKit          3D

 32 33  0  0  1  0  0  0  0  0999 V2000
    9.3335  -18.0348   19.0057 N   0  0  0  0  0  0  0  0  0  0  0  0
    8.2309  -18.7817   19.4659 C   0  0  0  0  0  0  0  0  0  0  0  0
    7.8753  -19.8125   18.8669 O   0  0  0  0  0  0  0  0  0  0  0  0
    7.4903  -18.3394   20.6650 C   0  0  0  0  0  0  0  0  0  0  0  0
    8.0604  -17.0292   21.2057 C   0  0  2  0  0  0  0  0  0  0  0  0
    8.5422  -16.2040   20.1067 N   0  0  0  0  0  0  0  0  0  0  0  0
    9.1008  -17.3102   22.1933 C   0  0  0  0  0  0  0  0  0  0  0  0
    9.0918  -18.2773   22.9982 O   0  0  0  0  0  0  0  0  0  0  0  0
   10.2326  -16.4550   22.2919 N   0  0  0  0  0  0  0  0  0  0  0  0
   11.2769  -16.6058   23.2934 C   0  0  1  0  0  0  0  0  0  0  0  0
   12.5972  -16.1187   22.8377 C   0  0  0  0  0  0  0  0  0  0  0  0
   13.1513  -16.9949   21.7492 C   0  0  0  0  0  0  0  0  0  0  0  0
   14.0636  -18.0417   22.3315 C   0  0  0  0  0  0  0  0  0  0  0  0
   15.2239  -17.7326   22.6388 O   0  0  0  0  0  0  0  0  0  0  0  0
   10.8184  -16.1377   24.6214 C   0  0  0  0  0  0  0  0  0  0  0  0
   10.9917  -14.9689   25.0591 O   0  0  0  0  0  0  0  0  0  0  0  0
   13.6043  -19.3180   22.5153 O   0  0  0  0  0  0  0  0  0  0  0  0
   10.1239  -17.0405   25.5041 N   0  0  0  0  0  0  0  0  0  0  0  0
    9.8077  -16.6198   26.8448 C   0  0  1  0  0  0  0  0  0  0  0  0
    8.3104  -16.6427   27.0935 C   0  0  0  0  0  0  0  0  0  0  0  0
    7.6223  -15.7553   26.1243 C   0  0  0  0  0  0  0  0  0  0  0  0
    6.9375  -16.0317   24.9686 C   0  0  0  0  0  0  0  0  0  0  0  0
    6.4783  -14.8951   24.4033 N   0  0  0  0  0  0  0  0  0  0  0  0
    6.8477  -13.8629   25.1667 C   0  0  0  0  0  0  0  0  0  0  0  0
    6.6496  -12.5052   25.0609 C   0  0  0  0  0  0  0  0  0  0  0  0
    7.1455  -11.6459   26.0046 C   0  0  0  0  0  0  0  0  0  0  0  0
    7.8534  -12.1260   27.0785 C   0  0  0  0  0  0  0  0  0  0  0  0
    8.0512  -13.4800   27.1835 C   0  0  0  0  0  0  0  0  0  0  0  0
    7.5622  -14.3681   26.2472 C   0  0  0  0  0  0  0  0  0  0  0  0
   10.4673  -17.5481   27.7961 C   0  0  0  0  0  0  0  0  0  0  0  0
   11.1547  -18.6515   27.3123 O   0  0  0  0  0  0  0  0  0  0  0  0
   10.4037  -17.3331   29.0554 O   0  0  0  0  0  0  0  0  0  0  0  0
  2  1  1  0
  3  2  2  0
  4  2  1  0
  4  5  1  0
  5  6  1  6
  7  5  1  0
  7  8  2  0
  9  7  1  0
 10  9  1  0
 10 11  1  6
 12 11  1  0
 12 13  1  0
 13 14  2  0
 15 18  1  0
 15 10  1  0
 16 15  2  0
 17 13  1  0
 19 18  1  0
 19 30  1  0
 20 21  1  0
 19 20  1  6
 21 29  1  0
 21 22  2  0
 22 23  1  0
 24 23  1  0
 24 25  2  0
 26 25  1  0
 27 26  2  0
 28 27  1  0
 28 29  2  0
 29 24  1  0
 30 31  1  0
 32 30  2  0
M  END
$$$$
