NEW.pdb
     RDKit          3D

 32 33  0  0  1  0  0  0  0  0999 V2000
    8.8120  -14.7757   16.3501 N   0  0  0  0  0  0  0  0  0  0  0  0
    8.2131  -13.8638   17.2418 C   0  0  0  0  0  0  0  0  0  0  0  0
    7.8332  -12.7492   16.8406 O   0  0  0  0  0  0  0  0  0  0  0  0
    8.0359  -14.2303   18.6617 C   0  0  0  0  0  0  0  0  0  0  0  0
    8.6417  -15.6027   18.9505 C   0  0  2  0  0  0  0  0  0  0  0  0
    8.2182  -16.5581   17.9361 N   0  0  0  0  0  0  0  0  0  0  0  0
    8.2867  -16.0278   20.3033 C   0  0  0  0  0  0  0  0  0  0  0  0
    7.1731  -16.5055   20.6426 O   0  0  0  0  0  0  0  0  0  0  0  0
    9.2387  -15.9144   21.3535 N   0  0  0  0  0  0  0  0  0  0  0  0
   10.2551  -16.9160   21.6369 C   0  0  1  0  0  0  0  0  0  0  0  0
   11.0344  -17.3103   20.4431 C   0  0  0  0  0  0  0  0  0  0  0  0
   12.0020  -18.4137   20.7684 C   0  0  0  0  0  0  0  0  0  0  0  0
   12.8238  -18.7653   19.5566 C   0  0  0  0  0  0  0  0  0  0  0  0
   12.9170  -19.9516   19.2100 O   0  0  0  0  0  0  0  0  0  0  0  0
   11.0293  -16.5665   22.8499 C   0  0  0  0  0  0  0  0  0  0  0  0
   11.8613  -17.3332   23.4046 O   0  0  0  0  0  0  0  0  0  0  0  0
   13.4560  -17.7758   18.8532 O   0  0  0  0  0  0  0  0  0  0  0  0
   10.8547  -15.2777   23.4705 N   0  0  0  0  0  0  0  0  0  0  0  0
    9.7665  -15.0749   24.3921 C   0  0  1  0  0  0  0  0  0  0  0  0
    8.4408  -14.9475   23.6637 C   0  0  0  0  0  0  0  0  0  0  0  0
    7.3596  -14.6362   24.6303 C   0  0  0  0  0  0  0  0  0  0  0  0
    6.3034  -15.3852   25.0826 C   0  0  0  0  0  0  0  0  0  0  0  0
    5.5644  -14.6819   25.9666 N   0  0  0  0  0  0  0  0  0  0  0  0
    6.1134  -13.4726   26.1105 C   0  0  0  0  0  0  0  0  0  0  0  0
    5.7748  -12.3780   26.8729 C   0  0  0  0  0  0  0  0  0  0  0  0
    6.5264  -11.2342   26.8349 C   0  0  0  0  0  0  0  0  0  0  0  0
    7.6367  -11.1581   26.0309 C   0  0  0  0  0  0  0  0  0  0  0  0
    7.9738  -12.2496   25.2703 C   0  0  0  0  0  0  0  0  0  0  0  0
    7.2344  -13.4147   25.2899 C   0  0  0  0  0  0  0  0  0  0  0  0
    9.7024  -16.2416   25.3068 C   0  0  0  0  0  0  0  0  0  0  0  0
   10.4190  -17.3901   25.0045 O   0  0  0  0  0  0  0  0  0  0  0  0
    8.9911  -16.1898   26.3687 O   0  0  0  0  0  0  0  0  0  0  0  0
  2  1  1  0
  3  2  2  0
  4  2  1  0
  4  5  1  0
  5  6  1  6
  7  5  1  0
  7  8  2  0
  9  7  1  0
 10  9  1  0
 10 11  1  6
 12 11  1  0
 12 13  1  0
 13 14  2  0
 15 18  1  0
 15 10  1  0
 16 15  2  0
 17 13  1  0
 19 18  1  0
 19 30  1  0
 20 21  1  0
 19 20  1  6
 21 29  1  0
 21 22  2  0
 22 23  1  0
 24 23  1  0
 24 25  2  0
 26 25  1  0
 27 26  2  0
 28 27  1  0
 28 29  2  0
 29 24  1  0
 30 31  1  0
 32 30  2  0
M  END
$$$$
