NEW.pdb
     RDKit          3D

 32 33  0  0  1  0  0  0  0  0999 V2000
    8.2458  -14.3373   14.1902 N   0  0  0  0  0  0  0  0  0  0  0  0
    7.6704  -15.5377   14.6522 C   0  0  0  0  0  0  0  0  0  0  0  0
    6.6612  -16.0064   14.0958 O   0  0  0  0  0  0  0  0  0  0  0  0
    8.2661  -16.2446   15.8043 C   0  0  0  0  0  0  0  0  0  0  0  0
    9.4575  -15.4688   16.3635 C   0  0  2  0  0  0  0  0  0  0  0  0
   10.4661  -15.2895   15.3284 N   0  0  0  0  0  0  0  0  0  0  0  0
    9.9829  -16.1494   17.5457 C   0  0  0  0  0  0  0  0  0  0  0  0
    9.2821  -16.6626   18.4560 O   0  0  0  0  0  0  0  0  0  0  0  0
   11.3882  -16.2687   17.7277 N   0  0  0  0  0  0  0  0  0  0  0  0
   12.0036  -17.0058   18.8206 C   0  0  1  0  0  0  0  0  0  0  0  0
   13.2827  -17.6466   18.4448 C   0  0  0  0  0  0  0  0  0  0  0  0
   13.0740  -18.6905   17.3836 C   0  0  0  0  0  0  0  0  0  0  0  0
   14.3861  -19.3267   17.0079 C   0  0  0  0  0  0  0  0  0  0  0  0
   15.1574  -19.7008   17.9031 O   0  0  0  0  0  0  0  0  0  0  0  0
   12.0001  -16.2130   20.0714 C   0  0  0  0  0  0  0  0  0  0  0  0
   12.6053  -15.1175   20.2174 O   0  0  0  0  0  0  0  0  0  0  0  0
   14.7119  -19.4852   15.6880 O   0  0  0  0  0  0  0  0  0  0  0  0
   11.2708  -16.6838   21.2216 N   0  0  0  0  0  0  0  0  0  0  0  0
   11.4533  -16.0327   22.4934 C   0  0  1  0  0  0  0  0  0  0  0  0
   10.8541  -14.6379   22.4921 C   0  0  0  0  0  0  0  0  0  0  0  0
    9.4472  -14.6914   22.0253 C   0  0  0  0  0  0  0  0  0  0  0  0
    8.3874  -15.4649   22.4247 C   0  0  0  0  0  0  0  0  0  0  0  0
    7.2838  -15.1689   21.7059 N   0  0  0  0  0  0  0  0  0  0  0  0
    7.5929  -14.2076   20.8313 C   0  0  0  0  0  0  0  0  0  0  0  0
    6.8592  -13.5451   19.8738 C   0  0  0  0  0  0  0  0  0  0  0  0
    7.4321  -12.5772   19.0931 C   0  0  0  0  0  0  0  0  0  0  0  0
    8.7557  -12.2490   19.2518 C   0  0  0  0  0  0  0  0  0  0  0  0
    9.4873  -12.9102   20.2063 C   0  0  0  0  0  0  0  0  0  0  0  0
    8.9349  -13.8893   21.0069 C   0  0  0  0  0  0  0  0  0  0  0  0
   10.7799  -16.8443   23.5373 C   0  0  0  0  0  0  0  0  0  0  0  0
   10.0251  -17.9477   23.1673 O   0  0  0  0  0  0  0  0  0  0  0  0
   10.8942  -16.5296   24.7718 O   0  0  0  0  0  0  0  0  0  0  0  0
  2  1  1  0
  3  2  2  0
  4  2  1  0
  4  5  1  0
  5  6  1  6
  7  5  1  0
  7  8  2  0
  9  7  1  0
 10  9  1  0
 10 11  1  6
 12 11  1  0
 12 13  1  0
 13 14  2  0
 15 18  1  0
 15 10  1  0
 16 15  2  0
 17 13  1  0
 19 18  1  0
 19 30  1  0
 20 21  1  0
 19 20  1  6
 21 29  1  0
 21 22  2  0
 22 23  1  0
 24 23  1  0
 24 25  2  0
 26 25  1  0
 27 26  2  0
 28 27  1  0
 28 29  2  0
 29 24  1  0
 30 31  1  0
 32 30  2  0
M  END
$$$$
