NEW.pdb
     RDKit          3D

 32 33  0  0  1  0  0  0  0  0999 V2000
    7.5313  -17.0480   18.6487 N   0  0  0  0  0  0  0  0  0  0  0  0
    6.6410  -16.3006   19.4451 C   0  0  0  0  0  0  0  0  0  0  0  0
    5.4144  -16.3654   19.2475 O   0  0  0  0  0  0  0  0  0  0  0  0
    7.1646  -15.4331   20.5199 C   0  0  0  0  0  0  0  0  0  0  0  0
    8.6916  -15.3925   20.4926 C   0  0  2  0  0  0  0  0  0  0  0  0
    9.1780  -15.8016   19.1823 N   0  0  0  0  0  0  0  0  0  0  0  0
    9.2299  -16.2174   21.5727 C   0  0  0  0  0  0  0  0  0  0  0  0
    8.5585  -17.0156   22.2766 O   0  0  0  0  0  0  0  0  0  0  0  0
   10.6140  -16.1505   21.8919 N   0  0  0  0  0  0  0  0  0  0  0  0
   11.2440  -16.9455   22.9347 C   0  0  1  0  0  0  0  0  0  0  0  0
   12.6004  -17.4121   22.5736 C   0  0  0  0  0  0  0  0  0  0  0  0
   12.5579  -18.3337   21.3869 C   0  0  0  0  0  0  0  0  0  0  0  0
   13.9534  -18.7047   20.9602 C   0  0  0  0  0  0  0  0  0  0  0  0
   14.2065  -19.8830   20.6709 O   0  0  0  0  0  0  0  0  0  0  0  0
   11.0930  -16.3062   24.2619 C   0  0  0  0  0  0  0  0  0  0  0  0
   11.5120  -15.1517   24.5438 O   0  0  0  0  0  0  0  0  0  0  0  0
   14.9237  -17.7414   20.8959 O   0  0  0  0  0  0  0  0  0  0  0  0
   10.4300  -17.0101   25.3303 N   0  0  0  0  0  0  0  0  0  0  0  0
   10.6832  -16.6291   26.6961 C   0  0  1  0  0  0  0  0  0  0  0  0
   10.1822  -15.2247   26.9809 C   0  0  0  0  0  0  0  0  0  0  0  0
    8.7586  -15.1041   26.5820 C   0  0  0  0  0  0  0  0  0  0  0  0
    7.8527  -16.0421   26.1569 C   0  0  0  0  0  0  0  0  0  0  0  0
    6.6587  -15.4682   25.8976 N   0  0  0  0  0  0  0  0  0  0  0  0
    6.7555  -14.1588   26.1439 C   0  0  0  0  0  0  0  0  0  0  0  0
    5.8557  -13.1218   26.0491 C   0  0  0  0  0  0  0  0  0  0  0  0
    6.2204  -11.8420   26.3714 C   0  0  0  0  0  0  0  0  0  0  0  0
    7.4969  -11.5689   26.7964 C   0  0  0  0  0  0  0  0  0  0  0  0
    8.3941  -12.6031   26.8903 C   0  0  0  0  0  0  0  0  0  0  0  0
    8.0531  -13.9020   26.5723 C   0  0  0  0  0  0  0  0  0  0  0  0
    9.9768  -17.5817   27.5879 C   0  0  0  0  0  0  0  0  0  0  0  0
   10.0648  -17.4271   28.9636 O   0  0  0  0  0  0  0  0  0  0  0  0
    9.2898  -18.5402   27.0924 O   0  0  0  0  0  0  0  0  0  0  0  0
  2  1  1  0
  3  2  2  0
  4  2  1  0
  4  5  1  0
  5  6  1  6
  7  5  1  0
  7  8  2  0
  9  7  1  0
 10  9  1  0
 10 11  1  6
 12 11  1  0
 12 13  1  0
 13 14  2  0
 15 18  1  0
 15 10  1  0
 16 15  2  0
 17 13  1  0
 19 18  1  0
 19 30  1  0
 20 21  1  0
 19 20  1  6
 21 29  1  0
 21 22  2  0
 22 23  1  0
 24 23  1  0
 24 25  2  0
 26 25  1  0
 27 26  2  0
 28 27  1  0
 28 29  2  0
 29 24  1  0
 30 31  1  0
 32 30  2  0
M  END
$$$$
