NEW.pdb
     RDKit          3D

 32 33  0  0  1  0  0  0  0  0999 V2000
    8.2984  -12.6915   17.2188 N   0  0  0  0  0  0  0  0  0  0  0  0
    7.5514  -13.8759   17.0617 C   0  0  0  0  0  0  0  0  0  0  0  0
    6.9056  -14.0784   16.0179 O   0  0  0  0  0  0  0  0  0  0  0  0
    7.5321  -14.8834   18.1417 C   0  0  0  0  0  0  0  0  0  0  0  0
    8.3188  -14.3954   19.3570 C   0  0  2  0  0  0  0  0  0  0  0  0
    9.4697  -13.6145   18.9252 N   0  0  0  0  0  0  0  0  0  0  0  0
    8.6959  -15.5329   20.1942 C   0  0  0  0  0  0  0  0  0  0  0  0
    7.8895  -16.3454   20.7164 O   0  0  0  0  0  0  0  0  0  0  0  0
   10.0681  -15.7852   20.4691 N   0  0  0  0  0  0  0  0  0  0  0  0
   10.5372  -16.8591   21.3312 C   0  0  1  0  0  0  0  0  0  0  0  0
   11.2644  -17.9192   20.5996 C   0  0  0  0  0  0  0  0  0  0  0  0
   11.5823  -19.0789   21.5015 C   0  0  0  0  0  0  0  0  0  0  0  0
   12.3411  -20.1382   20.7467 C   0  0  0  0  0  0  0  0  0  0  0  0
   13.3594  -19.8214   20.1151 O   0  0  0  0  0  0  0  0  0  0  0  0
   11.1902  -16.3240   22.5478 C   0  0  0  0  0  0  0  0  0  0  0  0
   12.1247  -16.9034   23.1634 O   0  0  0  0  0  0  0  0  0  0  0  0
   11.9010  -21.4341   20.7661 O   0  0  0  0  0  0  0  0  0  0  0  0
   10.7646  -15.0626   23.0994 N   0  0  0  0  0  0  0  0  0  0  0  0
    9.7923  -15.0441   24.1619 C   0  0  1  0  0  0  0  0  0  0  0  0
    8.3823  -14.8957   23.6194 C   0  0  0  0  0  0  0  0  0  0  0  0
    7.4323  -14.6634   24.7347 C   0  0  0  0  0  0  0  0  0  0  0  0
    6.5460  -15.5018   25.3612 C   0  0  0  0  0  0  0  0  0  0  0  0
    5.8764  -14.8469   26.3334 N   0  0  0  0  0  0  0  0  0  0  0  0
    6.3040  -13.5817   26.3641 C   0  0  0  0  0  0  0  0  0  0  0  0
    5.9660  -12.5005   27.1455 C   0  0  0  0  0  0  0  0  0  0  0  0
    6.5723  -11.2859   26.9666 C   0  0  0  0  0  0  0  0  0  0  0  0
    7.5327  -11.1240   25.9990 C   0  0  0  0  0  0  0  0  0  0  0  0
    7.8692  -12.2023   25.2196 C   0  0  0  0  0  0  0  0  0  0  0  0
    7.2744  -13.4374   25.3788 C   0  0  0  0  0  0  0  0  0  0  0  0
    9.8882  -16.3230   24.9083 C   0  0  0  0  0  0  0  0  0  0  0  0
   10.1664  -16.3048   26.2671 O   0  0  0  0  0  0  0  0  0  0  0  0
    9.7150  -17.4368   24.3036 O   0  0  0  0  0  0  0  0  0  0  0  0
  2  1  1  0
  3  2  2  0
  4  2  1  0
  4  5  1  0
  5  6  1  6
  7  5  1  0
  7  8  2  0
  9  7  1  0
 10  9  1  0
 10 11  1  6
 12 11  1  0
 12 13  1  0
 13 14  2  0
 15 18  1  0
 15 10  1  0
 16 15  2  0
 17 13  1  0
 19 18  1  0
 19 30  1  0
 20 21  1  0
 19 20  1  6
 21 29  1  0
 21 22  2  0
 22 23  1  0
 24 23  1  0
 24 25  2  0
 26 25  1  0
 27 26  2  0
 28 27  1  0
 28 29  2  0
 29 24  1  0
 30 31  1  0
 32 30  2  0
M  END
$$$$
