NEW.pdb
     RDKit          3D

 32 33  0  0  1  0  0  0  0  0999 V2000
    7.6338  -12.0416   18.1910 N   0  0  0  0  0  0  0  0  0  0  0  0
    7.6410  -13.4500   18.1486 C   0  0  0  0  0  0  0  0  0  0  0  0
    7.7315  -14.0460   17.0603 O   0  0  0  0  0  0  0  0  0  0  0  0
    7.5391  -14.2253   19.4017 C   0  0  0  0  0  0  0  0  0  0  0  0
    8.9131  -14.4057   20.0448 C   0  0  2  0  0  0  0  0  0  0  0  0
    9.8522  -14.9457   19.0715 N   0  0  0  0  0  0  0  0  0  0  0  0
    8.7975  -15.2441   21.2367 C   0  0  0  0  0  0  0  0  0  0  0  0
    7.9449  -15.0904   22.1493 O   0  0  0  0  0  0  0  0  0  0  0  0
    9.6936  -16.3318   21.4265 N   0  0  0  0  0  0  0  0  0  0  0  0
    9.6377  -17.2383   22.5630 C   0  0  1  0  0  0  0  0  0  0  0  0
   10.2153  -18.5696   22.2765 C   0  0  0  0  0  0  0  0  0  0  0  0
   11.2991  -18.4776   21.2390 C   0  0  0  0  0  0  0  0  0  0  0  0
   12.0199  -19.7938   21.1150 C   0  0  0  0  0  0  0  0  0  0  0  0
   11.6340  -20.6204   20.2760 O   0  0  0  0  0  0  0  0  0  0  0  0
   10.0913  -16.5707   23.8046 C   0  0  0  0  0  0  0  0  0  0  0  0
   11.0852  -15.7990   23.8715 O   0  0  0  0  0  0  0  0  0  0  0  0
   13.0895  -20.0626   21.9258 O   0  0  0  0  0  0  0  0  0  0  0  0
    9.3813  -16.7860   25.0400 N   0  0  0  0  0  0  0  0  0  0  0  0
    9.9351  -16.2888   26.2731 C   0  0  1  0  0  0  0  0  0  0  0  0
    8.8434  -15.8614   27.2375 C   0  0  0  0  0  0  0  0  0  0  0  0
    7.7218  -15.2415   26.4905 C   0  0  0  0  0  0  0  0  0  0  0  0
    6.6402  -15.7945   25.8538 C   0  0  0  0  0  0  0  0  0  0  0  0
    5.8719  -14.8336   25.2980 N   0  0  0  0  0  0  0  0  0  0  0  0
    6.4266  -13.6460   25.5553 C   0  0  0  0  0  0  0  0  0  0  0  0
    6.0672  -12.3576   25.2313 C   0  0  0  0  0  0  0  0  0  0  0  0
    6.8300  -11.2928   25.6300 C   0  0  0  0  0  0  0  0  0  0  0  0
    7.9733  -11.4924   26.3634 C   0  0  0  0  0  0  0  0  0  0  0  0
    8.3318  -12.7773   26.6859 C   0  0  0  0  0  0  0  0  0  0  0  0
    7.5813  -13.8683   26.2973 C   0  0  0  0  0  0  0  0  0  0  0  0
   10.7332  -17.3715   26.8997 C   0  0  0  0  0  0  0  0  0  0  0  0
   11.5123  -17.0928   28.0129 O   0  0  0  0  0  0  0  0  0  0  0  0
   10.7036  -18.5558   26.4172 O   0  0  0  0  0  0  0  0  0  0  0  0
  2  1  1  0
  3  2  2  0
  4  2  1  0
  4  5  1  0
  5  6  1  6
  7  5  1  0
  7  8  2  0
  9  7  1  0
 10  9  1  0
 10 11  1  6
 12 11  1  0
 12 13  1  0
 13 14  2  0
 15 18  1  0
 15 10  1  0
 16 15  2  0
 17 13  1  0
 19 18  1  0
 19 30  1  0
 20 21  1  0
 19 20  1  1
 21 29  1  0
 21 22  2  0
 22 23  1  0
 24 23  1  0
 24 25  2  0
 26 25  1  0
 27 26  2  0
 28 27  1  0
 28 29  2  0
 29 24  1  0
 30 31  1  0
 32 30  2  0
M  END
$$$$
