NEW.pdb
     RDKit          3D

 32 33  0  0  1  0  0  0  0  0999 V2000
    8.6278  -14.0402   16.5685 N   0  0  0  0  0  0  0  0  0  0  0  0
    8.3303  -13.2969   17.7280 C   0  0  0  0  0  0  0  0  0  0  0  0
    7.9349  -12.1209   17.6370 O   0  0  0  0  0  0  0  0  0  0  0  0
    8.4898  -13.9148   19.0602 C   0  0  0  0  0  0  0  0  0  0  0  0
    8.9802  -15.3565   18.9376 C   0  0  2  0  0  0  0  0  0  0  0  0
    8.1253  -16.0977   18.0208 N   0  0  0  0  0  0  0  0  0  0  0  0
    9.0486  -15.9723   20.2616 C   0  0  0  0  0  0  0  0  0  0  0  0
    8.4384  -15.5618   21.2826 O   0  0  0  0  0  0  0  0  0  0  0  0
    9.8522  -17.1278   20.4641 N   0  0  0  0  0  0  0  0  0  0  0  0
    9.9504  -17.8339   21.7323 C   0  0  1  0  0  0  0  0  0  0  0  0
   10.5549  -19.1781   21.6064 C   0  0  0  0  0  0  0  0  0  0  0  0
   10.5864  -19.8840   22.9331 C   0  0  0  0  0  0  0  0  0  0  0  0
   11.2237  -21.2408   22.7906 C   0  0  0  0  0  0  0  0  0  0  0  0
   10.5204  -22.2117   22.4763 O   0  0  0  0  0  0  0  0  0  0  0  0
   10.4957  -16.9571   22.7938 C   0  0  0  0  0  0  0  0  0  0  0  0
   11.5215  -16.2376   22.6607 O   0  0  0  0  0  0  0  0  0  0  0  0
   12.5672  -21.3873   23.0081 O   0  0  0  0  0  0  0  0  0  0  0  0
    9.8446  -16.8883   24.0775 N   0  0  0  0  0  0  0  0  0  0  0  0
   10.4193  -16.0809   25.1227 C   0  0  1  0  0  0  0  0  0  0  0  0
    9.8758  -14.6639   25.0896 C   0  0  0  0  0  0  0  0  0  0  0  0
    8.4225  -14.6717   25.3864 C   0  0  0  0  0  0  0  0  0  0  0  0
    7.5104  -15.6950   25.4283 C   0  0  0  0  0  0  0  0  0  0  0  0
    6.2834  -15.2273   25.7416 N   0  0  0  0  0  0  0  0  0  0  0  0
    6.3644  -13.9045   25.9094 C   0  0  0  0  0  0  0  0  0  0  0  0
    5.4316  -12.9453   26.2318 C   0  0  0  0  0  0  0  0  0  0  0  0
    5.7871  -11.6279   26.3446 C   0  0  0  0  0  0  0  0  0  0  0  0
    7.0869  -11.2381   26.1363 C   0  0  0  0  0  0  0  0  0  0  0  0
    8.0167  -12.1947   25.8143 C   0  0  0  0  0  0  0  0  0  0  0  0
    7.6858  -13.5292   25.6946 C   0  0  0  0  0  0  0  0  0  0  0  0
   10.0809  -16.6953   26.4303 C   0  0  0  0  0  0  0  0  0  0  0  0
    9.4374  -17.9236   26.4648 O   0  0  0  0  0  0  0  0  0  0  0  0
   10.3806  -16.0969   27.5205 O   0  0  0  0  0  0  0  0  0  0  0  0
  2  1  1  0
  3  2  2  0
  4  2  1  0
  4  5  1  0
  5  6  1  6
  7  5  1  0
  7  8  2  0
  9  7  1  0
 10  9  1  0
 10 11  1  6
 12 11  1  0
 12 13  1  0
 13 14  2  0
 15 18  1  0
 15 10  1  0
 16 15  2  0
 17 13  1  0
 19 18  1  0
 19 30  1  0
 20 21  1  0
 19 20  1  1
 21 29  1  0
 21 22  2  0
 22 23  1  0
 24 23  1  0
 24 25  2  0
 26 25  1  0
 27 26  2  0
 28 27  1  0
 28 29  2  0
 29 24  1  0
 30 31  1  0
 32 30  2  0
M  END
$$$$
