NEW.pdb
     RDKit          3D

 32 33  0  0  1  0  0  0  0  0999 V2000
    9.2094  -13.8231   17.5636 N   0  0  0  0  0  0  0  0  0  0  0  0
    7.9334  -13.8922   18.1572 C   0  0  0  0  0  0  0  0  0  0  0  0
    6.9857  -13.2360   17.6894 O   0  0  0  0  0  0  0  0  0  0  0  0
    7.7176  -14.7465   19.3428 C   0  0  0  0  0  0  0  0  0  0  0  0
    9.0145  -15.4380   19.7600 C   0  0  2  0  0  0  0  0  0  0  0  0
    9.1190  -16.7365   19.1089 N   0  0  0  0  0  0  0  0  0  0  0  0
    9.0791  -15.5352   21.2172 C   0  0  0  0  0  0  0  0  0  0  0  0
    9.0631  -14.5571   22.0087 O   0  0  0  0  0  0  0  0  0  0  0  0
    9.1667  -16.8114   21.8382 N   0  0  0  0  0  0  0  0  0  0  0  0
   10.2552  -17.2115   22.7167 C   0  0  1  0  0  0  0  0  0  0  0  0
   11.5857  -17.1172   22.0775 C   0  0  0  0  0  0  0  0  0  0  0  0
   11.8824  -18.3440   21.2612 C   0  0  0  0  0  0  0  0  0  0  0  0
   13.3527  -18.4214   20.9454 C   0  0  0  0  0  0  0  0  0  0  0  0
   13.7127  -18.6139   19.7751 O   0  0  0  0  0  0  0  0  0  0  0  0
   10.1169  -16.5964   24.0567 C   0  0  0  0  0  0  0  0  0  0  0  0
   10.3457  -15.3826   24.3059 O   0  0  0  0  0  0  0  0  0  0  0  0
   14.2723  -18.2784   21.9491 O   0  0  0  0  0  0  0  0  0  0  0  0
    9.6952  -17.3973   25.1779 N   0  0  0  0  0  0  0  0  0  0  0  0
    9.5604  -16.7871   26.4757 C   0  0  1  0  0  0  0  0  0  0  0  0
    8.1041  -16.6907   26.8933 C   0  0  0  0  0  0  0  0  0  0  0  0
    7.3996  -15.6956   26.0484 C   0  0  0  0  0  0  0  0  0  0  0  0
    6.7147  -15.8303   24.8678 C   0  0  0  0  0  0  0  0  0  0  0  0
    6.2370  -14.6371   24.4552 N   0  0  0  0  0  0  0  0  0  0  0  0
    6.5941  -13.7070   25.3452 C   0  0  0  0  0  0  0  0  0  0  0  0
    6.3759  -12.3501   25.4163 C   0  0  0  0  0  0  0  0  0  0  0  0
    6.8627  -11.6129   26.4624 C   0  0  0  0  0  0  0  0  0  0  0  0
    7.5814  -12.2173   27.4639 C   0  0  0  0  0  0  0  0  0  0  0  0
    7.7993  -13.5704   27.3924 C   0  0  0  0  0  0  0  0  0  0  0  0
    7.3199  -14.3371   26.3499 C   0  0  0  0  0  0  0  0  0  0  0  0
   10.2899  -17.6195   27.4640 C   0  0  0  0  0  0  0  0  0  0  0  0
   10.4115  -17.1800   28.7739 O   0  0  0  0  0  0  0  0  0  0  0  0
   10.8038  -18.7366   27.1115 O   0  0  0  0  0  0  0  0  0  0  0  0
  2  1  1  0
  3  2  2  0
  4  2  1  0
  4  5  1  0
  5  6  1  6
  7  5  1  0
  7  8  2  0
  9  7  1  0
 10  9  1  0
 10 11  1  6
 12 11  1  0
 12 13  1  0
 13 14  2  0
 15 18  1  0
 15 10  1  0
 16 15  2  0
 17 13  1  0
 19 18  1  0
 19 30  1  0
 20 21  1  0
 19 20  1  1
 21 29  1  0
 21 22  2  0
 22 23  1  0
 24 23  1  0
 24 25  2  0
 26 25  1  0
 27 26  2  0
 28 27  1  0
 28 29  2  0
 29 24  1  0
 30 31  1  0
 32 30  2  0
M  END
$$$$
