NEW.pdb
     RDKit          3D

 32 33  0  0  1  0  0  0  0  0999 V2000
    6.7265  -12.4694   18.1159 N   0  0  0  0  0  0  0  0  0  0  0  0
    7.8615  -13.2110   18.4998 C   0  0  0  0  0  0  0  0  0  0  0  0
    8.8637  -13.2532   17.7640 O   0  0  0  0  0  0  0  0  0  0  0  0
    7.8630  -13.9447   19.7818 C   0  0  0  0  0  0  0  0  0  0  0  0
    9.1819  -14.6893   19.9825 C   0  0  2  0  0  0  0  0  0  0  0  0
    9.4750  -15.5080   18.8143 N   0  0  0  0  0  0  0  0  0  0  0  0
    9.1277  -15.4721   21.2159 C   0  0  0  0  0  0  0  0  0  0  0  0
    8.3310  -15.2674   22.1681 O   0  0  0  0  0  0  0  0  0  0  0  0
   10.0229  -16.5610   21.4029 N   0  0  0  0  0  0  0  0  0  0  0  0
    9.9670  -17.4697   22.5377 C   0  0  1  0  0  0  0  0  0  0  0  0
   10.6654  -18.7507   22.2943 C   0  0  0  0  0  0  0  0  0  0  0  0
   11.2406  -18.7986   20.9065 C   0  0  0  0  0  0  0  0  0  0  0  0
   12.5159  -19.5992   20.8942 C   0  0  0  0  0  0  0  0  0  0  0  0
   13.4061  -19.3101   20.0818 O   0  0  0  0  0  0  0  0  0  0  0  0
   10.2864  -16.7689   23.8025 C   0  0  0  0  0  0  0  0  0  0  0  0
   11.1522  -15.8596   23.9094 O   0  0  0  0  0  0  0  0  0  0  0  0
   12.6785  -20.6329   21.7767 O   0  0  0  0  0  0  0  0  0  0  0  0
    9.5874  -17.1137   25.0146 N   0  0  0  0  0  0  0  0  0  0  0  0
    9.8757  -16.3956   26.2294 C   0  0  1  0  0  0  0  0  0  0  0  0
    8.6218  -16.1852   27.0587 C   0  0  0  0  0  0  0  0  0  0  0  0
    7.5832  -15.5085   26.2440 C   0  0  0  0  0  0  0  0  0  0  0  0
    6.5658  -16.0096   25.4728 C   0  0  0  0  0  0  0  0  0  0  0  0
    5.8623  -15.0082   24.9030 N   0  0  0  0  0  0  0  0  0  0  0  0
    6.3969  -13.8447   25.2836 C   0  0  0  0  0  0  0  0  0  0  0  0
    6.0796  -12.5352   25.0035 C   0  0  0  0  0  0  0  0  0  0  0  0
    6.8067  -11.5052   25.5377 C   0  0  0  0  0  0  0  0  0  0  0  0
    7.8710  -11.7618   26.3661 C   0  0  0  0  0  0  0  0  0  0  0  0
    8.1875  -13.0678   26.6448 C   0  0  0  0  0  0  0  0  0  0  0  0
    7.4715  -14.1247   26.1204 C   0  0  0  0  0  0  0  0  0  0  0  0
   10.8496  -17.1861   27.0222 C   0  0  0  0  0  0  0  0  0  0  0  0
   11.3367  -16.6755   28.2164 O   0  0  0  0  0  0  0  0  0  0  0  0
   11.2383  -18.3323   26.6083 O   0  0  0  0  0  0  0  0  0  0  0  0
  2  1  1  0
  3  2  2  0
  4  2  1  0
  4  5  1  0
  5  6  1  6
  7  5  1  0
  7  8  2  0
  9  7  1  0
 10  9  1  0
 10 11  1  6
 12 11  1  0
 12 13  1  0
 13 14  2  0
 15 18  1  0
 15 10  1  0
 16 15  2  0
 17 13  1  0
 19 18  1  0
 19 30  1  0
 20 21  1  0
 19 20  1  1
 21 29  1  0
 21 22  2  0
 22 23  1  0
 24 23  1  0
 24 25  2  0
 26 25  1  0
 27 26  2  0
 28 27  1  0
 28 29  2  0
 29 24  1  0
 30 31  1  0
 32 30  2  0
M  END
$$$$
