NEW.pdb
     RDKit          3D

 32 33  0  0  1  0  0  0  0  0999 V2000
    8.5176  -13.9138   16.5971 N   0  0  0  0  0  0  0  0  0  0  0  0
    7.5973  -14.4692   17.5082 C   0  0  0  0  0  0  0  0  0  0  0  0
    7.1947  -15.6372   17.3622 O   0  0  0  0  0  0  0  0  0  0  0  0
    7.1051  -13.6615   18.6428 C   0  0  0  0  0  0  0  0  0  0  0  0
    8.1936  -13.4863   19.7004 C   0  0  2  0  0  0  0  0  0  0  0  0
    9.4155  -12.9918   19.0813 N   0  0  0  0  0  0  0  0  0  0  0  0
    8.3977  -14.7444   20.4163 C   0  0  0  0  0  0  0  0  0  0  0  0
    7.4797  -15.4763   20.8688 O   0  0  0  0  0  0  0  0  0  0  0  0
    9.7173  -15.2230   20.6441 N   0  0  0  0  0  0  0  0  0  0  0  0
   10.0229  -16.4231   21.4075 C   0  0  1  0  0  0  0  0  0  0  0  0
   10.9149  -17.3598   20.6898 C   0  0  0  0  0  0  0  0  0  0  0  0
   10.2084  -17.9951   19.5251 C   0  0  0  0  0  0  0  0  0  0  0  0
   11.1241  -18.9588   18.8180 C   0  0  0  0  0  0  0  0  0  0  0  0
   12.2347  -19.2107   19.3072 O   0  0  0  0  0  0  0  0  0  0  0  0
   10.3920  -16.0920   22.8029 C   0  0  0  0  0  0  0  0  0  0  0  0
   11.2119  -15.1906   23.1239 O   0  0  0  0  0  0  0  0  0  0  0  0
   10.7224  -19.5447   17.6479 O   0  0  0  0  0  0  0  0  0  0  0  0
    9.8004  -16.8192   23.8973 N   0  0  0  0  0  0  0  0  0  0  0  0
   10.2238  -16.5413   25.2457 C   0  0  1  0  0  0  0  0  0  0  0  0
    9.9438  -15.0990   25.6276 C   0  0  0  0  0  0  0  0  0  0  0  0
    8.4827  -14.8875   25.7715 C   0  0  0  0  0  0  0  0  0  0  0  0
    7.4175  -15.7163   25.5278 C   0  0  0  0  0  0  0  0  0  0  0  0
    6.2536  -15.0893   25.8005 N   0  0  0  0  0  0  0  0  0  0  0  0
    6.5278  -13.8521   26.2233 C   0  0  0  0  0  0  0  0  0  0  0  0
    5.7310  -12.8053   26.6274 C   0  0  0  0  0  0  0  0  0  0  0  0
    6.2799  -11.6148   27.0226 C   0  0  0  0  0  0  0  0  0  0  0  0
    7.6420  -11.4430   27.0223 C   0  0  0  0  0  0  0  0  0  0  0  0
    8.4363  -12.4869   26.6188 C   0  0  0  0  0  0  0  0  0  0  0  0
    7.9095  -13.6972   26.2160 C   0  0  0  0  0  0  0  0  0  0  0  0
    9.4783  -17.4356   26.1656 C   0  0  0  0  0  0  0  0  0  0  0  0
    9.7953  -17.4487   27.5159 O   0  0  0  0  0  0  0  0  0  0  0  0
    8.5479  -18.1904   25.7175 O   0  0  0  0  0  0  0  0  0  0  0  0
  2  1  1  0
  3  2  2  0
  4  2  1  0
  4  5  1  0
  5  6  1  6
  7  5  1  0
  7  8  2  0
  9  7  1  0
 10  9  1  0
 10 11  1  6
 12 11  1  0
 12 13  1  0
 13 14  2  0
 15 18  1  0
 15 10  1  0
 16 15  2  0
 17 13  1  0
 19 18  1  0
 19 30  1  0
 20 21  1  0
 19 20  1  1
 21 29  1  0
 21 22  2  0
 22 23  1  0
 24 23  1  0
 24 25  2  0
 26 25  1  0
 27 26  2  0
 28 27  1  0
 28 29  2  0
 29 24  1  0
 30 31  1  0
 32 30  2  0
M  END
$$$$
