NEW.pdb
     RDKit          3D

 32 33  0  0  1  0  0  0  0  0999 V2000
    9.0575  -12.7644   16.9454 N   0  0  0  0  0  0  0  0  0  0  0  0
    7.8150  -13.2596   17.3887 C   0  0  0  0  0  0  0  0  0  0  0  0
    6.7609  -12.9017   16.8332 O   0  0  0  0  0  0  0  0  0  0  0  0
    7.7611  -14.2077   18.5201 C   0  0  0  0  0  0  0  0  0  0  0  0
    9.1381  -14.3704   19.1614 C   0  0  2  0  0  0  0  0  0  0  0  0
   10.0825  -14.8994   18.1871 N   0  0  0  0  0  0  0  0  0  0  0  0
    9.0347  -15.2094   20.3541 C   0  0  0  0  0  0  0  0  0  0  0  0
    8.2964  -14.9706   21.3445 O   0  0  0  0  0  0  0  0  0  0  0  0
    9.8070  -16.3994   20.4514 N   0  0  0  0  0  0  0  0  0  0  0  0
    9.8531  -17.2401   21.6378 C   0  0  1  0  0  0  0  0  0  0  0  0
   10.4309  -18.5778   21.3829 C   0  0  0  0  0  0  0  0  0  0  0  0
   11.3579  -18.5507   20.2000 C   0  0  0  0  0  0  0  0  0  0  0  0
   11.7693  -19.9494   19.8235 C   0  0  0  0  0  0  0  0  0  0  0  0
   10.9775  -20.6664   19.1949 O   0  0  0  0  0  0  0  0  0  0  0  0
   10.3873  -16.4967   22.8018 C   0  0  0  0  0  0  0  0  0  0  0  0
   11.4157  -15.7695   22.7665 O   0  0  0  0  0  0  0  0  0  0  0  0
   13.0079  -20.4125   20.1771 O   0  0  0  0  0  0  0  0  0  0  0  0
    9.7213  -16.5782   24.0771 N   0  0  0  0  0  0  0  0  0  0  0  0
   10.4059  -16.1374   25.2651 C   0  0  1  0  0  0  0  0  0  0  0  0
    9.9680  -14.7416   25.6705 C   0  0  0  0  0  0  0  0  0  0  0  0
    8.4910  -14.6908   25.7973 C   0  0  0  0  0  0  0  0  0  0  0  0
    7.5413  -15.6790   25.7455 C   0  0  0  0  0  0  0  0  0  0  0  0
    6.3054  -15.1612   25.9092 N   0  0  0  0  0  0  0  0  0  0  0  0
    6.4174  -13.8398   26.0696 C   0  0  0  0  0  0  0  0  0  0  0  0
    5.4915  -12.8417   26.2706 C   0  0  0  0  0  0  0  0  0  0  0  0
    5.8821  -11.5367   26.4082 C   0  0  0  0  0  0  0  0  0  0  0  0
    7.2113  -11.1986   26.3470 C   0  0  0  0  0  0  0  0  0  0  0  0
    8.1344  -12.1940   26.1460 C   0  0  0  0  0  0  0  0  0  0  0  0
    7.7683  -13.5171   26.0047 C   0  0  0  0  0  0  0  0  0  0  0  0
   10.0889  -17.0797   26.3667 C   0  0  0  0  0  0  0  0  0  0  0  0
    9.2838  -18.1811   26.1165 O   0  0  0  0  0  0  0  0  0  0  0  0
   10.5552  -16.8789   27.5408 O   0  0  0  0  0  0  0  0  0  0  0  0
  2  1  1  0
  3  2  2  0
  4  2  1  0
  4  5  1  0
  5  6  1  6
  7  5  1  0
  7  8  2  0
  9  7  1  0
 10  9  1  0
 10 11  1  6
 12 11  1  0
 12 13  1  0
 13 14  2  0
 15 18  1  0
 15 10  1  0
 16 15  2  0
 17 13  1  0
 19 18  1  0
 19 30  1  0
 20 21  1  0
 19 20  1  1
 21 29  1  0
 21 22  2  0
 22 23  1  0
 24 23  1  0
 24 25  2  0
 26 25  1  0
 27 26  2  0
 28 27  1  0
 28 29  2  0
 29 24  1  0
 30 31  1  0
 32 30  2  0
M  END
$$$$
