NEW.pdb
     RDKit          3D

 32 33  0  0  1  0  0  0  0  0999 V2000
    9.4850  -13.5698   18.2264 N   0  0  0  0  0  0  0  0  0  0  0  0
    8.0909  -13.7255   18.0933 C   0  0  0  0  0  0  0  0  0  0  0  0
    7.5729  -13.8157   16.9658 O   0  0  0  0  0  0  0  0  0  0  0  0
    7.2374  -13.7805   19.2976 C   0  0  0  0  0  0  0  0  0  0  0  0
    8.0848  -13.7496   20.5684 C   0  0  2  0  0  0  0  0  0  0  0  0
    9.2804  -12.9470   20.3511 N   0  0  0  0  0  0  0  0  0  0  0  0
    8.3951  -15.1138   20.9919 C   0  0  0  0  0  0  0  0  0  0  0  0
    7.5426  -15.9976   21.2663 O   0  0  0  0  0  0  0  0  0  0  0  0
    9.7506  -15.5246   21.1183 N   0  0  0  0  0  0  0  0  0  0  0  0
   10.1650  -16.7646   21.7565 C   0  0  1  0  0  0  0  0  0  0  0  0
   10.9415  -17.6502   20.8616 C   0  0  0  0  0  0  0  0  0  0  0  0
   11.1950  -16.9914   19.5346 C   0  0  0  0  0  0  0  0  0  0  0  0
   11.9230  -17.9327   18.6119 C   0  0  0  0  0  0  0  0  0  0  0  0
   12.9321  -18.5245   19.0214 O   0  0  0  0  0  0  0  0  0  0  0  0
   10.7352  -16.5123   23.0996 C   0  0  0  0  0  0  0  0  0  0  0  0
   11.9693  -16.4329   23.3417 O   0  0  0  0  0  0  0  0  0  0  0  0
   11.4648  -18.1249   17.3364 O   0  0  0  0  0  0  0  0  0  0  0  0
    9.8622  -16.3386   24.2328 N   0  0  0  0  0  0  0  0  0  0  0  0
   10.4268  -16.2214   25.5527 C   0  0  1  0  0  0  0  0  0  0  0  0
    9.9599  -14.9531   26.2438 C   0  0  0  0  0  0  0  0  0  0  0  0
    8.4911  -14.8072   26.0965 C   0  0  0  0  0  0  0  0  0  0  0  0
    7.4993  -15.7388   25.9251 C   0  0  0  0  0  0  0  0  0  0  0  0
    6.2932  -15.1395   25.8332 N   0  0  0  0  0  0  0  0  0  0  0  0
    6.4668  -13.8194   25.9407 C   0  0  0  0  0  0  0  0  0  0  0  0
    5.5917  -12.7575   25.9162 C   0  0  0  0  0  0  0  0  0  0  0  0
    6.0416  -11.4715   26.0530 C   0  0  0  0  0  0  0  0  0  0  0  0
    7.3807  -11.2172   26.2172 C   0  0  0  0  0  0  0  0  0  0  0  0
    8.2532  -12.2763   26.2411 C   0  0  0  0  0  0  0  0  0  0  0  0
    7.8267  -13.5819   26.1060 C   0  0  0  0  0  0  0  0  0  0  0  0
    9.9940  -17.3929   26.3541 C   0  0  0  0  0  0  0  0  0  0  0  0
   10.5371  -17.6006   27.6135 O   0  0  0  0  0  0  0  0  0  0  0  0
    9.1247  -18.2072   25.8878 O   0  0  0  0  0  0  0  0  0  0  0  0
  2  1  1  0
  3  2  2  0
  4  2  1  0
  4  5  1  0
  5  6  1  6
  7  5  1  0
  7  8  2  0
  9  7  1  0
 10  9  1  0
 10 11  1  6
 12 11  1  0
 12 13  1  0
 13 14  2  0
 15 18  1  0
 15 10  1  0
 16 15  2  0
 17 13  1  0
 19 18  1  0
 19 30  1  0
 20 21  1  0
 19 20  1  1
 21 29  1  0
 21 22  2  0
 22 23  1  0
 24 23  1  0
 24 25  2  0
 26 25  1  0
 27 26  2  0
 28 27  1  0
 28 29  2  0
 29 24  1  0
 30 31  1  0
 32 30  2  0
M  END
$$$$
