INH.pdb
     RDKit          3D

 27 27  0  0  1  0  0  0  0  0999 V2000
    6.7580  -12.8726   20.0852 C   0  0  0  0  0  0  0  0  0  0  0  0
    7.5012  -13.2777   18.8599 C   0  0  0  0  0  0  0  0  0  0  0  0
    8.8881  -13.7729   19.1586 C   0  0  2  0  0  0  0  0  0  0  0  0
    9.6610  -12.7199   19.9431 C   0  0  0  0  0  0  0  0  0  0  0  0
    9.6430  -14.1862   17.9302 C   0  0  2  0  0  0  0  0  0  0  0  0
    8.7612  -15.1860   17.2690 N   0  0  0  0  0  0  0  0  0  0  0  0
   10.9081  -14.9009   18.1833 C   0  0  0  0  0  0  0  0  0  0  0  0
   10.9377  -16.1747   18.3590 O   0  0  0  0  0  0  0  0  0  0  0  0
   16.1213  -16.0948   16.7605 N   0  0  0  0  0  0  0  0  0  0  0  0
   15.7517  -14.9123   17.5313 C   0  0  0  0  0  0  0  0  0  0  0  0
   16.6820  -14.3598   18.1575 O   0  0  0  0  0  0  0  0  0  0  0  0
   14.3905  -14.4477   17.5404 C   0  0  0  0  0  0  0  0  0  0  0  0
   13.4305  -15.1055   18.4695 C   0  0  2  0  0  0  0  0  0  0  0  0
   12.1735  -14.2923   18.2555 N   0  0  0  0  0  0  0  0  0  0  0  0
   13.7563  -15.0366   19.9003 C   0  0  0  0  0  0  0  0  0  0  0  0
   13.8824  -13.8611   20.3996 O   0  0  0  0  0  0  0  0  0  0  0  0
   13.9463  -16.0863   20.8139 N   0  0  0  0  0  0  0  0  0  0  0  0
   14.2922  -15.8745   22.2247 C   0  0  1  0  0  0  0  0  0  0  0  0
   13.5828  -16.8529   23.1025 C   0  0  0  0  0  0  0  0  0  0  0  0
   12.1365  -16.5721   23.1855 C   0  0  0  0  0  0  0  0  0  0  0  0
   11.5026  -15.4686   22.6192 C   0  0  0  0  0  0  0  0  0  0  0  0
   10.1774  -15.5422   22.9329 N   0  0  0  0  0  0  0  0  0  0  0  0
    9.9794  -16.6400   23.6636 C   0  0  0  0  0  0  0  0  0  0  0  0
   11.1523  -17.2601   23.8171 N   0  0  0  0  0  0  0  0  0  0  0  0
   15.7285  -15.9120   22.4492 C   0  0  0  0  0  0  0  0  0  0  0  0
   16.4808  -16.2211   21.4596 O   0  0  0  0  0  0  0  0  0  0  0  0
   16.3513  -15.6409   23.6351 O   0  0  0  0  0  0  0  0  0  0  0  0
  2  1  1  0
  2  3  1  0
  3  4  1  6
  5  3  1  0
  5  6  1  6
  7  5  1  0
  8  7  2  0
 10 11  2  0
 10  9  1  0
 12 10  1  0
 13 12  1  6
 13 14  1  0
 14  7  1  0
 15 16  2  0
 15 13  1  0
 17 15  1  0
 18 25  1  0
 18 17  1  0
 18 19  1  1
 20 21  2  0
 20 19  1  0
 22 21  1  0
 23 24  2  0
 23 22  1  0
 24 20  1  0
 25 27  1  0
 26 25  2  0
M  END
$$$$
