INH.pdb
     RDKit          3D

 27 27  0  0  1  0  0  0  0  0999 V2000
    7.7759  -11.9512   19.9474 C   0  0  0  0  0  0  0  0  0  0  0  0
    8.1020  -12.6096   18.6520 C   0  0  0  0  0  0  0  0  0  0  0  0
    8.7509  -13.9532   18.8303 C   0  0  2  0  0  0  0  0  0  0  0  0
   10.0225  -13.8133   19.6580 C   0  0  0  0  0  0  0  0  0  0  0  0
    9.0316  -14.6485   17.5313 C   0  0  2  0  0  0  0  0  0  0  0  0
    7.7297  -14.6330   16.8109 N   0  0  0  0  0  0  0  0  0  0  0  0
    9.3863  -16.0754   17.6486 C   0  0  0  0  0  0  0  0  0  0  0  0
    8.5115  -16.9620   17.9690 O   0  0  0  0  0  0  0  0  0  0  0  0
   12.8821  -16.7187   16.0368 N   0  0  0  0  0  0  0  0  0  0  0  0
   12.2625  -17.9664   15.6028 C   0  0  0  0  0  0  0  0  0  0  0  0
   12.6324  -18.3976   14.4892 O   0  0  0  0  0  0  0  0  0  0  0  0
   11.2923  -18.6238   16.4366 C   0  0  0  0  0  0  0  0  0  0  0  0
   11.0047  -18.0378   17.7750 C   0  0  2  0  0  0  0  0  0  0  0  0
   10.6706  -16.6041   17.4289 N   0  0  0  0  0  0  0  0  0  0  0  0
   12.1227  -18.0075   18.7276 C   0  0  0  0  0  0  0  0  0  0  0  0
   13.2765  -18.3213   18.2614 O   0  0  0  0  0  0  0  0  0  0  0  0
   12.1113  -17.6743   20.0919 N   0  0  0  0  0  0  0  0  0  0  0  0
   13.2768  -17.1293   20.7985 C   0  0  1  0  0  0  0  0  0  0  0  0
   13.6312  -15.7738   20.2808 C   0  0  0  0  0  0  0  0  0  0  0  0
   14.9155  -15.2934   20.8260 C   0  0  0  0  0  0  0  0  0  0  0  0
   15.2366  -15.2326   22.1800 C   0  0  0  0  0  0  0  0  0  0  0  0
   16.4922  -14.7113   22.2881 N   0  0  0  0  0  0  0  0  0  0  0  0
   16.9465  -14.4533   21.0612 C   0  0  0  0  0  0  0  0  0  0  0  0
   16.0035  -14.8011   20.1818 N   0  0  0  0  0  0  0  0  0  0  0  0
   13.0840  -17.1077   22.2398 C   0  0  0  0  0  0  0  0  0  0  0  0
   11.9079  -16.8593   22.6824 O   0  0  0  0  0  0  0  0  0  0  0  0
   14.0577  -17.3341   23.1718 O   0  0  0  0  0  0  0  0  0  0  0  0
  2  1  1  0
  2  3  1  0
  3  4  1  6
  5  3  1  0
  5  6  1  6
  7  5  1  0
  8  7  2  0
 10 11  2  0
 10  9  1  0
 12 10  1  0
 13 12  1  6
 13 14  1  0
 14  7  1  0
 15 16  2  0
 15 13  1  0
 17 15  1  0
 18 25  1  0
 18 17  1  0
 18 19  1  6
 20 21  2  0
 20 19  1  0
 22 21  1  0
 23 24  2  0
 23 22  1  0
 24 20  1  0
 25 27  1  0
 26 25  2  0
M  END
$$$$
