INH.pdb
     RDKit          3D

 27 27  0  0  1  0  0  0  0  0999 V2000
    7.7112  -11.8031   18.5484 C   0  0  0  0  0  0  0  0  0  0  0  0
    8.1086  -13.2113   18.2708 C   0  0  0  0  0  0  0  0  0  0  0  0
    8.5072  -13.9580   19.5123 C   0  0  2  0  0  0  0  0  0  0  0  0
    9.6392  -13.2252   20.2217 C   0  0  0  0  0  0  0  0  0  0  0  0
    8.8784  -15.3867   19.2464 C   0  0  2  0  0  0  0  0  0  0  0  0
    7.6745  -15.9700   18.5947 N   0  0  0  0  0  0  0  0  0  0  0  0
    9.0985  -16.2110   20.4495 C   0  0  0  0  0  0  0  0  0  0  0  0
    8.1359  -16.8541   21.0099 O   0  0  0  0  0  0  0  0  0  0  0  0
   11.2839  -20.3867   21.0027 N   0  0  0  0  0  0  0  0  0  0  0  0
   11.6966  -19.0077   20.7640 C   0  0  0  0  0  0  0  0  0  0  0  0
   11.9800  -18.7229   19.5802 O   0  0  0  0  0  0  0  0  0  0  0  0
   11.7585  -18.0695   21.8525 C   0  0  0  0  0  0  0  0  0  0  0  0
   10.5096  -17.3544   22.2350 C   0  0  2  0  0  0  0  0  0  0  0  0
   10.3383  -16.3804   21.0910 N   0  0  0  0  0  0  0  0  0  0  0  0
   10.5622  -16.5672   23.4742 C   0  0  0  0  0  0  0  0  0  0  0  0
   10.9442  -17.1906   24.5289 O   0  0  0  0  0  0  0  0  0  0  0  0
   10.2561  -15.2108   23.6720 N   0  0  0  0  0  0  0  0  0  0  0  0
    9.4775  -14.7183   24.8148 C   0  0  1  0  0  0  0  0  0  0  0  0
    8.0548  -14.4767   24.4290 C   0  0  0  0  0  0  0  0  0  0  0  0
    7.2784  -13.8775   25.5315 C   0  0  0  0  0  0  0  0  0  0  0  0
    7.8269  -13.3059   26.6772 C   0  0  0  0  0  0  0  0  0  0  0  0
    6.7979  -12.8900   27.4697 N   0  0  0  0  0  0  0  0  0  0  0  0
    5.6507  -13.1838   26.8566 C   0  0  0  0  0  0  0  0  0  0  0  0
    5.9351  -13.7762   25.6939 N   0  0  0  0  0  0  0  0  0  0  0  0
    9.5672  -15.6060   25.9632 C   0  0  0  0  0  0  0  0  0  0  0  0
    9.3522  -16.8543   25.7728 O   0  0  0  0  0  0  0  0  0  0  0  0
    9.8662  -15.2203   27.2398 O   0  0  0  0  0  0  0  0  0  0  0  0
  2  1  1  0
  2  3  1  0
  3  4  1  6
  5  3  1  0
  5  6  1  1
  7  5  1  0
  8  7  2  0
 10 11  2  0
 10  9  1  0
 12 10  1  0
 13 12  1  6
 13 14  1  0
 14  7  1  0
 15 16  2  0
 15 13  1  0
 17 15  1  0
 18 25  1  0
 18 17  1  0
 18 19  1  6
 20 21  2  0
 20 19  1  0
 22 21  1  0
 23 24  2  0
 23 22  1  0
 24 20  1  0
 25 27  1  0
 26 25  2  0
M  END
$$$$
