INH.pdb
     RDKit          3D

 27 27  0  0  1  0  0  0  0  0999 V2000
    6.0404  -11.5420   25.7177 C   0  0  0  0  0  0  0  0  0  0  0  0
    6.2249  -12.6784   26.6624 C   0  0  0  0  0  0  0  0  0  0  0  0
    7.2226  -13.6880   26.1691 C   0  0  2  0  0  0  0  0  0  0  0  0
    8.5413  -13.0003   25.8379 C   0  0  0  0  0  0  0  0  0  0  0  0
    6.7255  -14.4840   24.9991 C   0  0  2  0  0  0  0  0  0  0  0  0
    5.5521  -15.2311   25.5276 N   0  0  0  0  0  0  0  0  0  0  0  0
    7.6510  -15.5229   24.5098 C   0  0  0  0  0  0  0  0  0  0  0  0
    7.7484  -16.6656   25.0921 O   0  0  0  0  0  0  0  0  0  0  0  0
    8.3001  -17.4743   20.3026 N   0  0  0  0  0  0  0  0  0  0  0  0
    8.8699  -16.1755   20.6452 C   0  0  0  0  0  0  0  0  0  0  0  0
    8.4132  -15.1984   20.0130 O   0  0  0  0  0  0  0  0  0  0  0  0
    9.8907  -16.0734   21.6533 C   0  0  0  0  0  0  0  0  0  0  0  0
    9.5326  -16.4315   23.0537 C   0  0  2  0  0  0  0  0  0  0  0  0
    8.4950  -15.3852   23.3937 N   0  0  0  0  0  0  0  0  0  0  0  0
   10.6065  -16.3210   24.0501 C   0  0  0  0  0  0  0  0  0  0  0  0
   11.1861  -15.1794   24.1381 O   0  0  0  0  0  0  0  0  0  0  0  0
   11.0924  -17.2964   24.9361 N   0  0  0  0  0  0  0  0  0  0  0  0
   11.4190  -17.0191   26.3401 C   0  0  1  0  0  0  0  0  0  0  0  0
   10.4172  -16.0944   26.9503 C   0  0  0  0  0  0  0  0  0  0  0  0
   10.7464  -15.7715   28.3521 C   0  0  0  0  0  0  0  0  0  0  0  0
   11.8249  -16.2955   29.0611 C   0  0  0  0  0  0  0  0  0  0  0  0
   11.7807  -15.7852   30.3251 N   0  0  0  0  0  0  0  0  0  0  0  0
   10.7245  -14.9761   30.4144 C   0  0  0  0  0  0  0  0  0  0  0  0
   10.1018  -14.9655   29.2329 N   0  0  0  0  0  0  0  0  0  0  0  0
   11.5551  -18.2373   27.1228 C   0  0  0  0  0  0  0  0  0  0  0  0
   11.0287  -19.3087   26.6584 O   0  0  0  0  0  0  0  0  0  0  0  0
   12.2044  -18.3394   28.3211 O   0  0  0  0  0  0  0  0  0  0  0  0
  2  1  1  0
  2  3  1  0
  3  4  1  6
  5  3  1  0
  5  6  1  1
  7  5  1  0
  8  7  2  0
 10 11  2  0
 10  9  1  0
 12 10  1  0
 13 12  1  6
 13 14  1  0
 14  7  1  0
 15 16  2  0
 15 13  1  0
 17 15  1  0
 18 25  1  0
 18 17  1  0
 18 19  1  1
 20 21  2  0
 20 19  1  0
 22 21  1  0
 23 24  2  0
 23 22  1  0
 24 20  1  0
 25 27  1  0
 26 25  2  0
M  END
$$$$
