INH.pdb
     RDKit          3D

 27 27  0  0  1  0  0  0  0  0999 V2000
    7.3471  -12.6329   18.8157 C   0  0  0  0  0  0  0  0  0  0  0  0
    8.6854  -13.0689   19.3024 C   0  0  0  0  0  0  0  0  0  0  0  0
    8.5996  -14.0662   20.4231 C   0  0  2  0  0  0  0  0  0  0  0  0
    7.7174  -13.5221   21.5399 C   0  0  0  0  0  0  0  0  0  0  0  0
    9.9423  -14.4741   20.9524 C   0  0  2  0  0  0  0  0  0  0  0  0
   10.7039  -14.9022   19.7478 N   0  0  0  0  0  0  0  0  0  0  0  0
    9.9345  -15.6533   21.8384 C   0  0  0  0  0  0  0  0  0  0  0  0
    9.1587  -15.7206   22.8620 O   0  0  0  0  0  0  0  0  0  0  0  0
    9.5290  -19.7441   20.3503 N   0  0  0  0  0  0  0  0  0  0  0  0
   10.9226  -19.3645   20.5567 C   0  0  0  0  0  0  0  0  0  0  0  0
   11.6416  -19.3607   19.5340 O   0  0  0  0  0  0  0  0  0  0  0  0
   11.3952  -19.0237   21.8717 C   0  0  0  0  0  0  0  0  0  0  0  0
   10.6726  -17.9608   22.6238 C   0  0  2  0  0  0  0  0  0  0  0  0
   10.7417  -16.7917   21.6670 N   0  0  0  0  0  0  0  0  0  0  0  0
   11.2827  -17.5266   23.8878 C   0  0  0  0  0  0  0  0  0  0  0  0
   12.1337  -16.5691   23.8099 O   0  0  0  0  0  0  0  0  0  0  0  0
   11.0611  -18.0113   25.1872 N   0  0  0  0  0  0  0  0  0  0  0  0
   11.0709  -17.1552   26.3796 C   0  0  1  0  0  0  0  0  0  0  0  0
   10.1268  -16.0084   26.2231 C   0  0  0  0  0  0  0  0  0  0  0  0
   10.0971  -15.1505   27.4233 C   0  0  0  0  0  0  0  0  0  0  0  0
   10.7872  -15.4060   28.6060 C   0  0  0  0  0  0  0  0  0  0  0  0
   10.4886  -14.4088   29.4871 N   0  0  0  0  0  0  0  0  0  0  0  0
    9.6488  -13.5608   28.8924 C   0  0  0  0  0  0  0  0  0  0  0  0
    9.4117  -14.0025   27.6545 N   0  0  0  0  0  0  0  0  0  0  0  0
   10.7920  -17.9036   27.5949 C   0  0  0  0  0  0  0  0  0  0  0  0
   11.1929  -17.4100   28.7068 O   0  0  0  0  0  0  0  0  0  0  0  0
   10.1308  -19.0982   27.6542 O   0  0  0  0  0  0  0  0  0  0  0  0
  2  1  1  0
  2  3  1  0
  3  4  1  1
  5  3  1  0
  5  6  1  6
  7  5  1  0
  8  7  2  0
 10 11  2  0
 10  9  1  0
 12 10  1  0
 13 12  1  6
 13 14  1  0
 14  7  1  0
 15 16  2  0
 15 13  1  0
 17 15  1  0
 18 25  1  0
 18 17  1  0
 18 19  1  6
 20 21  2  0
 20 19  1  0
 22 21  1  0
 23 24  2  0
 23 22  1  0
 24 20  1  0
 25 27  1  0
 26 25  2  0
M  END
$$$$
