INH.pdb
     RDKit          3D

 27 27  0  0  1  0  0  0  0  0999 V2000
    7.2658  -12.2868   22.0201 C   0  0  0  0  0  0  0  0  0  0  0  0
    7.3039  -13.7116   21.5882 C   0  0  0  0  0  0  0  0  0  0  0  0
    8.3125  -13.9630   20.5031 C   0  0  2  0  0  0  0  0  0  0  0  0
    8.0731  -13.0119   19.3370 C   0  0  0  0  0  0  0  0  0  0  0  0
    8.3321  -15.3881   20.0361 C   0  0  2  0  0  0  0  0  0  0  0  0
    6.9629  -15.6251   19.5036 N   0  0  0  0  0  0  0  0  0  0  0  0
    8.5073  -16.3938   21.1007 C   0  0  0  0  0  0  0  0  0  0  0  0
    7.9503  -17.5510   21.0313 O   0  0  0  0  0  0  0  0  0  0  0  0
   10.2822  -18.4552   19.8848 N   0  0  0  0  0  0  0  0  0  0  0  0
    9.6100  -18.7241   21.1515 C   0  0  0  0  0  0  0  0  0  0  0  0
    8.5020  -19.2970   21.0673 O   0  0  0  0  0  0  0  0  0  0  0  0
   10.2213  -18.3369   22.3945 C   0  0  0  0  0  0  0  0  0  0  0  0
    9.5168  -17.3347   23.2411 C   0  0  2  0  0  0  0  0  0  0  0  0
    9.2753  -16.2066   22.2635 N   0  0  0  0  0  0  0  0  0  0  0  0
   10.2802  -16.7803   24.3672 C   0  0  0  0  0  0  0  0  0  0  0  0
   11.4896  -17.1911   24.4923 O   0  0  0  0  0  0  0  0  0  0  0  0
    9.8732  -15.8484   25.3360 N   0  0  0  0  0  0  0  0  0  0  0  0
    9.5807  -16.2087   26.7286 C   0  0  1  0  0  0  0  0  0  0  0  0
    8.1262  -16.0488   27.0287 C   0  0  0  0  0  0  0  0  0  0  0  0
    7.6430  -14.6915   26.7095 C   0  0  0  0  0  0  0  0  0  0  0  0
    8.4459  -13.6375   26.2797 C   0  0  0  0  0  0  0  0  0  0  0  0
    7.6471  -12.5443   26.1162 N   0  0  0  0  0  0  0  0  0  0  0  0
    6.3968  -12.8878   26.4275 C   0  0  0  0  0  0  0  0  0  0  0  0
    6.3906  -14.1749   26.7838 N   0  0  0  0  0  0  0  0  0  0  0  0
   10.0410  -17.5485   27.0570 C   0  0  0  0  0  0  0  0  0  0  0  0
   10.8447  -17.6794   28.0458 O   0  0  0  0  0  0  0  0  0  0  0  0
    9.6850  -18.6913   26.3973 O   0  0  0  0  0  0  0  0  0  0  0  0
  2  1  1  0
  2  3  1  0
  3  4  1  6
  5  3  1  0
  5  6  1  1
  7  5  1  0
  8  7  2  0
 10 11  2  0
 10  9  1  0
 12 10  1  0
 13 12  1  6
 13 14  1  0
 14  7  1  0
 15 16  2  0
 15 13  1  0
 17 15  1  0
 18 25  1  0
 18 17  1  0
 18 19  1  6
 20 21  2  0
 20 19  1  0
 22 21  1  0
 23 24  2  0
 23 22  1  0
 24 20  1  0
 25 27  1  0
 26 25  2  0
M  END
$$$$
