INH.pdb
     RDKit          3D

 27 27  0  0  1  0  0  0  0  0999 V2000
    7.8251  -12.2749   19.7143 C   0  0  0  0  0  0  0  0  0  0  0  0
    6.9554  -13.4542   19.9807 C   0  0  0  0  0  0  0  0  0  0  0  0
    7.5611  -14.4116   20.9679 C   0  0  2  0  0  0  0  0  0  0  0  0
    8.1206  -13.6470   22.1611 C   0  0  0  0  0  0  0  0  0  0  0  0
    8.6080  -15.2983   20.3618 C   0  0  2  0  0  0  0  0  0  0  0  0
    7.8730  -16.1066   19.3515 N   0  0  0  0  0  0  0  0  0  0  0  0
    9.2019  -16.2858   21.2824 C   0  0  0  0  0  0  0  0  0  0  0  0
    8.5322  -17.2991   21.7055 O   0  0  0  0  0  0  0  0  0  0  0  0
   12.3170  -19.3329   21.2041 N   0  0  0  0  0  0  0  0  0  0  0  0
   13.1103  -18.2099   21.6924 C   0  0  0  0  0  0  0  0  0  0  0  0
   14.3108  -18.2008   21.3434 O   0  0  0  0  0  0  0  0  0  0  0  0
   12.5071  -17.2002   22.5203 C   0  0  0  0  0  0  0  0  0  0  0  0
   11.0374  -17.2669   22.7503 C   0  0  2  0  0  0  0  0  0  0  0  0
   10.5165  -16.2320   21.7783 N   0  0  0  0  0  0  0  0  0  0  0  0
   10.5687  -16.8833   24.0887 C   0  0  0  0  0  0  0  0  0  0  0  0
   10.1258  -15.6854   24.2152 O   0  0  0  0  0  0  0  0  0  0  0  0
   10.5294  -17.6512   25.2640 N   0  0  0  0  0  0  0  0  0  0  0  0
    9.6747  -17.3251   26.4120 C   0  0  1  0  0  0  0  0  0  0  0  0
    8.2411  -17.2329   26.0030 C   0  0  0  0  0  0  0  0  0  0  0  0
    7.8198  -15.8364   25.7797 C   0  0  0  0  0  0  0  0  0  0  0  0
    8.6465  -14.7223   25.9042 C   0  0  0  0  0  0  0  0  0  0  0  0
    7.8944  -13.6138   25.6481 N   0  0  0  0  0  0  0  0  0  0  0  0
    6.6494  -14.0055   25.3743 C   0  0  0  0  0  0  0  0  0  0  0  0
    6.6010  -15.3379   25.4524 N   0  0  0  0  0  0  0  0  0  0  0  0
    9.8489  -18.2628   27.5098 C   0  0  0  0  0  0  0  0  0  0  0  0
   10.5139  -19.3337   27.2821 O   0  0  0  0  0  0  0  0  0  0  0  0
    9.3620  -18.0978   28.7761 O   0  0  0  0  0  0  0  0  0  0  0  0
  2  1  1  0
  2  3  1  0
  3  4  1  1
  5  3  1  0
  5  6  1  6
  7  5  1  0
  8  7  2  0
 10 11  2  0
 10  9  1  0
 12 10  1  0
 13 12  1  1
 13 14  1  0
 14  7  1  0
 15 16  2  0
 15 13  1  0
 17 15  1  0
 18 25  1  0
 18 17  1  0
 18 19  1  6
 20 21  2  0
 20 19  1  0
 22 21  1  0
 23 24  2  0
 23 22  1  0
 24 20  1  0
 25 27  1  0
 26 25  2  0
M  END
$$$$
