INH.pdb
     RDKit          3D

 27 27  0  0  1  0  0  0  0  0999 V2000
    5.8057  -12.8963   27.2965 C   0  0  0  0  0  0  0  0  0  0  0  0
    5.6440  -13.8943   26.2030 C   0  0  0  0  0  0  0  0  0  0  0  0
    6.9462  -14.5204   25.7904 C   0  0  2  0  0  0  0  0  0  0  0  0
    7.9571  -13.4372   25.4352 C   0  0  0  0  0  0  0  0  0  0  0  0
    6.7973  -15.5028   24.6669 C   0  0  2  0  0  0  0  0  0  0  0  0
    5.7930  -16.4839   25.1597 N   0  0  0  0  0  0  0  0  0  0  0  0
    8.0003  -16.3034   24.3714 C   0  0  0  0  0  0  0  0  0  0  0  0
    8.1070  -17.5254   24.7581 O   0  0  0  0  0  0  0  0  0  0  0  0
   11.9058  -17.1452   20.1750 N   0  0  0  0  0  0  0  0  0  0  0  0
   12.0445  -16.5589   21.5038 C   0  0  0  0  0  0  0  0  0  0  0  0
   13.1910  -16.6040   22.0003 O   0  0  0  0  0  0  0  0  0  0  0  0
   10.9064  -15.9765   22.1629 C   0  0  0  0  0  0  0  0  0  0  0  0
   10.2204  -16.7752   23.2161 C   0  0  2  0  0  0  0  0  0  0  0  0
    9.1197  -15.8377   23.6593 N   0  0  0  0  0  0  0  0  0  0  0  0
   11.0165  -17.1066   24.4054 C   0  0  0  0  0  0  0  0  0  0  0  0
   11.9212  -18.0040   24.2530 O   0  0  0  0  0  0  0  0  0  0  0  0
   10.9327  -16.5712   25.7011 N   0  0  0  0  0  0  0  0  0  0  0  0
   11.6634  -17.1209   26.8495 C   0  0  1  0  0  0  0  0  0  0  0  0
   11.1587  -16.5437   28.1313 C   0  0  0  0  0  0  0  0  0  0  0  0
   11.0572  -15.0728   28.0719 C   0  0  0  0  0  0  0  0  0  0  0  0
    9.9051  -14.3392   28.3454 C   0  0  0  0  0  0  0  0  0  0  0  0
   10.1959  -13.0201   28.1571 N   0  0  0  0  0  0  0  0  0  0  0  0
   11.4716  -12.9210   27.7817 C   0  0  0  0  0  0  0  0  0  0  0  0
   11.9913  -14.1501   27.7295 N   0  0  0  0  0  0  0  0  0  0  0  0
   11.6282  -18.5745   26.8775 C   0  0  0  0  0  0  0  0  0  0  0  0
   12.5783  -19.1844   27.4825 O   0  0  0  0  0  0  0  0  0  0  0  0
   10.6586  -19.3535   26.3111 O   0  0  0  0  0  0  0  0  0  0  0  0
  2  1  1  0
  2  3  1  0
  3  4  1  6
  5  3  1  0
  5  6  1  1
  7  5  1  0
  8  7  2  0
 10 11  2  0
 10  9  1  0
 12 10  1  0
 13 12  1  6
 13 14  1  0
 14  7  1  0
 15 16  2  0
 15 13  1  0
 17 15  1  0
 18 25  1  0
 18 17  1  0
 18 19  1  1
 20 21  2  0
 20 19  1  0
 22 21  1  0
 23 24  2  0
 23 22  1  0
 24 20  1  0
 25 27  1  0
 26 25  2  0
M  END
$$$$
