INH.pdb
     RDKit          3D

 27 27  0  0  1  0  0  0  0  0999 V2000
    7.0578  -12.9051   18.3241 C   0  0  0  0  0  0  0  0  0  0  0  0
    8.0425  -13.8309   18.9496 C   0  0  0  0  0  0  0  0  0  0  0  0
    8.9917  -13.1282   19.8788 C   0  0  2  0  0  0  0  0  0  0  0  0
    9.7586  -12.0494   19.1241 C   0  0  0  0  0  0  0  0  0  0  0  0
    9.9327  -14.0642   20.5775 C   0  0  2  0  0  0  0  0  0  0  0  0
   10.5737  -14.8374   19.4796 N   0  0  0  0  0  0  0  0  0  0  0  0
    9.2876  -15.0781   21.4326 C   0  0  0  0  0  0  0  0  0  0  0  0
    8.2636  -14.7942   22.1572 O   0  0  0  0  0  0  0  0  0  0  0  0
    9.5290  -19.1460   19.3931 N   0  0  0  0  0  0  0  0  0  0  0  0
    8.6820  -18.9192   20.5593 C   0  0  0  0  0  0  0  0  0  0  0  0
    7.4500  -18.9403   20.3480 O   0  0  0  0  0  0  0  0  0  0  0  0
    9.2713  -18.6903   21.8513 C   0  0  0  0  0  0  0  0  0  0  0  0
    9.0367  -17.3738   22.5065 C   0  0  2  0  0  0  0  0  0  0  0  0
    9.7035  -16.4166   21.5441 N   0  0  0  0  0  0  0  0  0  0  0  0
    9.6637  -17.1784   23.8207 C   0  0  0  0  0  0  0  0  0  0  0  0
    9.6919  -18.2010   24.5956 O   0  0  0  0  0  0  0  0  0  0  0  0
   10.2498  -16.0196   24.3557 N   0  0  0  0  0  0  0  0  0  0  0  0
    9.6219  -15.2104   25.4072 C   0  0  1  0  0  0  0  0  0  0  0  0
    8.2441  -14.7920   25.0099 C   0  0  0  0  0  0  0  0  0  0  0  0
    7.6561  -13.8429   25.9747 C   0  0  0  0  0  0  0  0  0  0  0  0
    8.3166  -13.3166   27.0824 C   0  0  0  0  0  0  0  0  0  0  0  0
    7.4420  -12.5051   27.7431 N   0  0  0  0  0  0  0  0  0  0  0  0
    6.2814  -12.5159   27.0864 C   0  0  0  0  0  0  0  0  0  0  0  0
    6.4062  -13.3172   26.0252 N   0  0  0  0  0  0  0  0  0  0  0  0
    9.6146  -15.8908   26.6925 C   0  0  0  0  0  0  0  0  0  0  0  0
    9.2464  -17.1174   26.7179 O   0  0  0  0  0  0  0  0  0  0  0  0
    9.9723  -15.3302   27.8865 O   0  0  0  0  0  0  0  0  0  0  0  0
  2  1  1  0
  2  3  1  0
  3  4  1  6
  5  3  1  0
  5  6  1  6
  7  5  1  0
  8  7  2  0
 10 11  2  0
 10  9  1  0
 12 10  1  0
 13 12  1  6
 13 14  1  0
 14  7  1  0
 15 16  2  0
 15 13  1  0
 17 15  1  0
 18 25  1  0
 18 17  1  0
 18 19  1  6
 20 21  2  0
 20 19  1  0
 22 21  1  0
 23 24  2  0
 23 22  1  0
 24 20  1  0
 25 27  1  0
 26 25  2  0
M  END
$$$$
