INH.pdb
     RDKit          3D

 27 27  0  0  1  0  0  0  0  0999 V2000
    6.2351  -11.5549   26.4970 C   0  0  0  0  0  0  0  0  0  0  0  0
    5.7534  -12.7252   25.7119 C   0  0  0  0  0  0  0  0  0  0  0  0
    6.8464  -13.7105   25.4077 C   0  0  2  0  0  0  0  0  0  0  0  0
    8.0017  -13.0083   24.7049 C   0  0  0  0  0  0  0  0  0  0  0  0
    6.3717  -14.8888   24.6103 C   0  0  2  0  0  0  0  0  0  0  0  0
    5.2553  -15.4573   25.4131 N   0  0  0  0  0  0  0  0  0  0  0  0
    7.3456  -15.9886   24.4777 C   0  0  0  0  0  0  0  0  0  0  0  0
    7.0520  -17.1924   24.8227 O   0  0  0  0  0  0  0  0  0  0  0  0
    9.1704  -19.9424   21.9161 N   0  0  0  0  0  0  0  0  0  0  0  0
    9.3707  -18.5451   21.5471 C   0  0  0  0  0  0  0  0  0  0  0  0
   10.0797  -18.3466   20.5367 O   0  0  0  0  0  0  0  0  0  0  0  0
    8.7707  -17.4952   22.3258 C   0  0  0  0  0  0  0  0  0  0  0  0
    9.4720  -17.0492   23.5615 C   0  0  2  0  0  0  0  0  0  0  0  0
    8.6517  -15.8484   23.9765 N   0  0  0  0  0  0  0  0  0  0  0  0
   10.8590  -16.5940   23.3960 C   0  0  0  0  0  0  0  0  0  0  0  0
   11.5519  -17.1944   22.4980 O   0  0  0  0  0  0  0  0  0  0  0  0
   11.5429  -15.5786   24.0843 N   0  0  0  0  0  0  0  0  0  0  0  0
   11.7409  -15.5828   25.5388 C   0  0  1  0  0  0  0  0  0  0  0  0
   10.4486  -15.3649   26.2556 C   0  0  0  0  0  0  0  0  0  0  0  0
   10.6330  -15.3013   27.7183 C   0  0  0  0  0  0  0  0  0  0  0  0
   11.8557  -15.4155   28.3757 C   0  0  0  0  0  0  0  0  0  0  0  0
   11.6178  -15.3353   29.7162 N   0  0  0  0  0  0  0  0  0  0  0  0
   10.3066  -15.1780   29.9011 C   0  0  0  0  0  0  0  0  0  0  0  0
    9.7128  -15.1572   28.7050 N   0  0  0  0  0  0  0  0  0  0  0  0
   12.3997  -16.7946   25.9995 C   0  0  0  0  0  0  0  0  0  0  0  0
   11.7533  -17.8971   25.9125 O   0  0  0  0  0  0  0  0  0  0  0  0
   13.6618  -16.8601   26.5198 O   0  0  0  0  0  0  0  0  0  0  0  0
  2  1  1  0
  2  3  1  0
  3  4  1  6
  5  3  1  0
  5  6  1  1
  7  5  1  0
  8  7  2  0
 10 11  2  0
 10  9  1  0
 12 10  1  0
 13 12  1  6
 13 14  1  0
 14  7  1  0
 15 16  2  0
 15 13  1  0
 17 15  1  0
 18 25  1  0
 18 17  1  0
 18 19  1  1
 20 21  2  0
 20 19  1  0
 22 21  1  0
 23 24  2  0
 23 22  1  0
 24 20  1  0
 25 27  1  0
 26 25  2  0
M  END
$$$$
