INH.pdb
     RDKit          3D

 27 27  0  0  1  0  0  0  0  0999 V2000
    7.7558  -12.6602   21.7367 C   0  0  0  0  0  0  0  0  0  0  0  0
    7.7615  -14.0217   21.1333 C   0  0  0  0  0  0  0  0  0  0  0  0
    8.3033  -14.0338   19.7318 C   0  0  2  0  0  0  0  0  0  0  0  0
    7.4364  -13.1647   18.8292 C   0  0  0  0  0  0  0  0  0  0  0  0
    8.4457  -15.4162   19.1675 C   0  0  2  0  0  0  0  0  0  0  0  0
    7.0604  -15.9594   19.1571 N   0  0  0  0  0  0  0  0  0  0  0  0
    9.2184  -16.3564   20.0007 C   0  0  0  0  0  0  0  0  0  0  0  0
    8.6374  -17.2231   20.7526 O   0  0  0  0  0  0  0  0  0  0  0  0
   13.8994  -19.7099   20.6358 N   0  0  0  0  0  0  0  0  0  0  0  0
   13.6578  -18.3139   20.9845 C   0  0  0  0  0  0  0  0  0  0  0  0
   14.3843  -17.8464   21.8882 O   0  0  0  0  0  0  0  0  0  0  0  0
   12.6376  -17.5617   20.3047 C   0  0  0  0  0  0  0  0  0  0  0  0
   11.3382  -17.3521   21.0013 C   0  0  2  0  0  0  0  0  0  0  0  0
   10.6222  -16.4087   20.0610 N   0  0  0  0  0  0  0  0  0  0  0  0
   11.4004  -16.6957   22.3141 C   0  0  0  0  0  0  0  0  0  0  0  0
   11.2555  -15.4206   22.3206 O   0  0  0  0  0  0  0  0  0  0  0  0
   11.5923  -17.2715   23.5807 N   0  0  0  0  0  0  0  0  0  0  0  0
   10.6868  -17.0468   24.7140 C   0  0  1  0  0  0  0  0  0  0  0  0
    9.2593  -17.1663   24.2906 C   0  0  0  0  0  0  0  0  0  0  0  0
    8.5284  -15.8943   24.4494 C   0  0  0  0  0  0  0  0  0  0  0  0
    9.0833  -14.7069   24.9211 C   0  0  0  0  0  0  0  0  0  0  0  0
    8.0948  -13.7678   24.9519 N   0  0  0  0  0  0  0  0  0  0  0  0
    6.9662  -14.3321   24.5206 C   0  0  0  0  0  0  0  0  0  0  0  0
    7.2225  -15.6075   24.2184 N   0  0  0  0  0  0  0  0  0  0  0  0
   10.9788  -17.9287   25.8329 C   0  0  0  0  0  0  0  0  0  0  0  0
   11.5321  -19.0554   25.5781 O   0  0  0  0  0  0  0  0  0  0  0  0
   10.7136  -17.6557   27.1456 O   0  0  0  0  0  0  0  0  0  0  0  0
  2  1  1  0
  2  3  1  0
  3  4  1  6
  5  3  1  0
  5  6  1  1
  7  5  1  0
  8  7  2  0
 10 11  2  0
 10  9  1  0
 12 10  1  0
 13 12  1  6
 13 14  1  0
 14  7  1  0
 15 16  2  0
 15 13  1  0
 17 15  1  0
 18 25  1  0
 18 17  1  0
 18 19  1  6
 20 21  2  0
 20 19  1  0
 22 21  1  0
 23 24  2  0
 23 22  1  0
 24 20  1  0
 25 27  1  0
 26 25  2  0
M  END
$$$$
