INH.pdb
     RDKit          3D

 27 27  0  0  1  0  0  0  0  0999 V2000
    7.3505  -12.1807   19.5463 C   0  0  0  0  0  0  0  0  0  0  0  0
    8.4997  -13.0917   19.2865 C   0  0  0  0  0  0  0  0  0  0  0  0
    8.4869  -14.3090   20.1674 C   0  0  2  0  0  0  0  0  0  0  0  0
    8.4453  -13.8930   21.6326 C   0  0  0  0  0  0  0  0  0  0  0  0
    9.6364  -15.2365   19.9068 C   0  0  2  0  0  0  0  0  0  0  0  0
    9.4928  -15.6158   18.4751 N   0  0  0  0  0  0  0  0  0  0  0  0
    9.5922  -16.5119   20.6462 C   0  0  0  0  0  0  0  0  0  0  0  0
    9.3329  -17.6240   20.0544 O   0  0  0  0  0  0  0  0  0  0  0  0
   11.6979  -19.9991   20.8356 N   0  0  0  0  0  0  0  0  0  0  0  0
   12.1265  -18.6069   20.7534 C   0  0  0  0  0  0  0  0  0  0  0  0
   12.6898  -18.2742   19.6881 O   0  0  0  0  0  0  0  0  0  0  0  0
   11.8946  -17.7095   21.8533 C   0  0  0  0  0  0  0  0  0  0  0  0
   10.6026  -17.8165   22.5861 C   0  0  2  0  0  0  0  0  0  0  0  0
    9.8223  -16.6482   22.0266 N   0  0  0  0  0  0  0  0  0  0  0  0
   10.6632  -17.6427   24.0436 C   0  0  0  0  0  0  0  0  0  0  0  0
   11.3963  -18.4773   24.6865 O   0  0  0  0  0  0  0  0  0  0  0  0
   10.0306  -16.6781   24.8447 N   0  0  0  0  0  0  0  0  0  0  0  0
    9.3926  -16.9897   26.1295 C   0  0  1  0  0  0  0  0  0  0  0  0
    7.9042  -16.9742   26.0059 C   0  0  0  0  0  0  0  0  0  0  0  0
    7.4216  -15.7711   25.3007 C   0  0  0  0  0  0  0  0  0  0  0  0
    6.6938  -15.7784   24.1131 C   0  0  0  0  0  0  0  0  0  0  0  0
    6.4574  -14.4823   23.7606 N   0  0  0  0  0  0  0  0  0  0  0  0
    7.0091  -13.6899   24.6803 C   0  0  0  0  0  0  0  0  0  0  0  0
    7.5883  -14.4594   25.6055 N   0  0  0  0  0  0  0  0  0  0  0  0
    9.8610  -18.2501   26.6834 C   0  0  0  0  0  0  0  0  0  0  0  0
   10.2609  -18.2570   27.9003 O   0  0  0  0  0  0  0  0  0  0  0  0
    9.9097  -19.4398   26.0124 O   0  0  0  0  0  0  0  0  0  0  0  0
  2  1  1  0
  2  3  1  0
  3  4  1  1
  5  3  1  0
  5  6  1  6
  7  5  1  0
  8  7  2  0
 10 11  2  0
 10  9  1  0
 12 10  1  0
 13 12  1  6
 13 14  1  0
 14  7  1  0
 15 16  2  0
 15 13  1  0
 17 15  1  0
 18 25  1  0
 18 17  1  0
 18 19  1  6
 20 21  2  0
 20 19  1  0
 22 21  1  0
 23 24  2  0
 23 22  1  0
 24 20  1  0
 25 27  1  0
 26 25  2  0
M  END
$$$$
