KRC.pdb
     RDKit          3D

 27 26  0  0  1  0  0  0  0  0999 V2000
   26.4398  -24.6014  -15.3055 N   0  0  0  0  0  0  0  0  0  0  0  0
   25.5788  -24.6216  -16.4639 C   0  0  1  0  0  0  0  0  0  0  0  0
   26.1764  -25.5193  -17.4870 C   0  0  0  0  0  0  0  0  0  0  0  0
   26.9985  -26.5891  -16.8431 C   0  0  0  0  0  0  0  0  0  0  0  0
   27.6163  -27.5162  -17.8523 C   0  0  0  0  0  0  0  0  0  0  0  0
   28.2961  -28.6780  -17.1449 C   0  0  0  0  0  0  0  0  0  0  0  0
   28.7292  -29.6212  -18.1579 N   0  0  0  0  0  0  0  0  0  0  0  0
   24.1813  -24.9861  -16.1134 C   0  0  0  0  0  0  0  0  0  0  0  0
   23.3028  -24.9253  -17.0194 O   0  0  0  0  0  0  0  0  0  0  0  0
   20.4202  -29.6633   -9.2257 N   0  0  0  0  0  0  0  0  0  0  0  0
   19.4362  -29.2505  -10.1697 C   0  0  0  0  0  0  0  0  0  0  0  0
   18.2036  -29.5665  -10.0274 N   0  0  0  0  0  0  0  0  0  0  0  0
   19.8079  -28.4712  -11.3016 N   0  0  0  0  0  0  0  0  0  0  0  0
   21.1613  -28.0587  -11.5953 C   0  0  0  0  0  0  0  0  0  0  0  0
   21.1054  -27.2664  -12.8878 C   0  0  0  0  0  0  0  0  0  0  0  0
   22.4021  -26.7001  -13.2976 C   0  0  0  0  0  0  0  0  0  0  0  0
   22.3951  -25.9119  -14.5738 C   0  0  2  0  0  0  0  0  0  0  0  0
   23.7483  -25.4000  -14.8353 N   0  0  0  0  0  0  0  0  0  0  0  0
   21.5235  -24.7231  -14.5680 C   0  0  0  0  0  0  0  0  0  0  0  0
   21.8124  -23.7454  -13.8245 O   0  0  0  0  0  0  0  0  0  0  0  0
   17.5042  -29.2600  -10.7148 N   0  0  0  0  0  0  0  0  0  0  0  0
   20.3538  -24.5689  -15.3480 C   0  0  2  0  0  0  0  0  0  0  0  0
   19.5145  -23.3612  -15.1881 C   0  0  0  0  0  0  0  0  0  0  0  0
   19.6631  -22.4907  -16.4426 S   0  0  0  0  0  0  0  0  0  0  0  0
   18.8833  -20.8774  -16.2209 C   0  0  0  0  0  0  0  0  0  0  0  0
   18.1237  -23.7386  -14.9262 O   0  0  0  0  0  0  0  0  0  0  0  0
   17.4118  -23.0320  -14.1625 O   0  0  0  0  0  0  0  0  0  0  0  0
  2  1  1  1
  2  3  1  0
  2  8  1  0
  4  5  1  0
  4  3  1  0
  5  6  1  0
  7  6  1  0
  8 18  1  0
  8  9  2  0
 10 11  1  0
 11 12  2  0
 13 14  1  0
 13 11  1  0
 14 15  1  0
 15 16  1  0
 17 16  1  1
 18 17  1  0
 19 17  1  0
 19 21  1  0
 20 19  2  0
 22 23  1  6
 22 21  1  0
 22 25  1  0
 24 23  1  0
 25 27  1  0
 26 25  2  0
M  END
$$$$
