KRC.pdb
     RDKit          3D

 27 26  0  0  1  0  0  0  0  0999 V2000
   28.3489  -23.6816  -17.0473 N   0  0  0  0  0  0  0  0  0  0  0  0
   27.8205  -22.3413  -17.1369 C   0  0  1  0  0  0  0  0  0  0  0  0
   27.6357  -21.9961  -18.5709 C   0  0  0  0  0  0  0  0  0  0  0  0
   28.8641  -21.3504  -19.1266 C   0  0  0  0  0  0  0  0  0  0  0  0
   29.9304  -22.3543  -19.4655 C   0  0  0  0  0  0  0  0  0  0  0  0
   31.1137  -21.6572  -20.1186 C   0  0  0  0  0  0  0  0  0  0  0  0
   32.1851  -22.6266  -20.2437 N   0  0  0  0  0  0  0  0  0  0  0  0
   26.5814  -22.1759  -16.3332 C   0  0  0  0  0  0  0  0  0  0  0  0
   25.5867  -22.9034  -16.6120 O   0  0  0  0  0  0  0  0  0  0  0  0
   26.2506  -19.7550   -8.0881 N   0  0  0  0  0  0  0  0  0  0  0  0
   25.2997  -20.5694   -8.7680 C   0  0  0  0  0  0  0  0  0  0  0  0
   24.0420  -20.4262   -8.5750 N   0  0  0  0  0  0  0  0  0  0  0  0
   25.7334  -21.5690   -9.6842 N   0  0  0  0  0  0  0  0  0  0  0  0
   26.3136  -21.2891  -10.9778 C   0  0  0  0  0  0  0  0  0  0  0  0
   25.1634  -21.2063  -11.9634 C   0  0  0  0  0  0  0  0  0  0  0  0
   25.4806  -20.4536  -13.1893 C   0  0  0  0  0  0  0  0  0  0  0  0
   25.1853  -21.1571  -14.4808 C   0  0  2  0  0  0  0  0  0  0  0  0
   26.4214  -21.2612  -15.2702 N   0  0  0  0  0  0  0  0  0  0  0  0
   24.2196  -20.4712  -15.3583 C   0  0  0  0  0  0  0  0  0  0  0  0
   24.6252  -19.5695  -16.1423 O   0  0  0  0  0  0  0  0  0  0  0  0
   23.3705  -21.0635   -9.0206 N   0  0  0  0  0  0  0  0  0  0  0  0
   22.8322  -20.7410  -15.4079 C   0  0  2  0  0  0  0  0  0  0  0  0
   21.9360  -19.8564  -16.1844 C   0  0  0  0  0  0  0  0  0  0  0  0
   21.7144  -20.4766  -17.5701 S   0  0  0  0  0  0  0  0  0  0  0  0
   20.0833  -20.0618  -18.2241 C   0  0  0  0  0  0  0  0  0  0  0  0
   20.6828  -19.6372  -15.4588 O   0  0  0  0  0  0  0  0  0  0  0  0
   20.4446  -20.2828  -14.4025 O   0  0  0  0  0  0  0  0  0  0  0  0
  2  1  1  6
  2  3  1  0
  2  8  1  0
  4  5  1  0
  4  3  1  0
  5  6  1  0
  7  6  1  0
  8 18  1  0
  8  9  2  0
 10 11  1  0
 11 12  2  0
 13 14  1  0
 13 11  1  0
 14 15  1  0
 15 16  1  0
 17 16  1  1
 18 17  1  0
 19 17  1  0
 19 21  1  0
 20 19  2  0
 22 23  1  6
 22 21  1  0
 22 25  1  0
 24 23  1  0
 25 27  1  0
 26 25  2  0
M  END
$$$$
