KRC.pdb
     RDKit          3D

 27 26  0  0  1  0  0  0  0  0999 V2000
   19.3296  -25.6623   -8.9458 N   0  0  0  0  0  0  0  0  0  0  0  0
   19.5638  -26.0824  -10.3068 C   0  0  1  0  0  0  0  0  0  0  0  0
   18.5555  -27.1130  -10.6683 C   0  0  0  0  0  0  0  0  0  0  0  0
   18.9682  -28.4608  -10.1701 C   0  0  0  0  0  0  0  0  0  0  0  0
   20.0865  -29.0498  -10.9837 C   0  0  0  0  0  0  0  0  0  0  0  0
   20.4647  -30.4173  -10.4365 C   0  0  0  0  0  0  0  0  0  0  0  0
   21.3899  -31.0282  -11.3714 N   0  0  0  0  0  0  0  0  0  0  0  0
   19.5861  -24.9331  -11.2488 C   0  0  0  0  0  0  0  0  0  0  0  0
   18.8765  -23.9237  -10.9768 O   0  0  0  0  0  0  0  0  0  0  0  0
   26.1335  -23.8150  -16.2917 N   0  0  0  0  0  0  0  0  0  0  0  0
   25.2891  -24.7470  -15.6222 C   0  0  0  0  0  0  0  0  0  0  0  0
   25.5249  -26.0049  -15.6599 N   0  0  0  0  0  0  0  0  0  0  0  0
   24.1548  -24.2934  -14.8913 N   0  0  0  0  0  0  0  0  0  0  0  0
   23.8038  -22.9026  -14.7160 C   0  0  0  0  0  0  0  0  0  0  0  0
   22.5871  -22.8702  -13.8105 C   0  0  0  0  0  0  0  0  0  0  0  0
   21.4914  -23.7507  -14.2512 C   0  0  0  0  0  0  0  0  0  0  0  0
   20.2674  -23.7520  -13.3840 C   0  0  2  0  0  0  0  0  0  0  0  0
   20.3442  -24.8749  -12.4381 N   0  0  0  0  0  0  0  0  0  0  0  0
   18.9936  -23.9351  -14.1030 C   0  0  0  0  0  0  0  0  0  0  0  0
   18.7045  -25.0695  -14.5742 O   0  0  0  0  0  0  0  0  0  0  0  0
   24.9241  -26.6633  -15.1488 N   0  0  0  0  0  0  0  0  0  0  0  0
   18.0293  -22.9234  -14.3190 C   0  0  2  0  0  0  0  0  0  0  0  0
   16.8238  -23.2134  -15.1261 C   0  0  0  0  0  0  0  0  0  0  0  0
   15.7069  -22.2502  -14.7035 S   0  0  0  0  0  0  0  0  0  0  0  0
   14.1828  -22.5672  -15.6183 C   0  0  0  0  0  0  0  0  0  0  0  0
   17.1337  -23.1241  -16.5548 O   0  0  0  0  0  0  0  0  0  0  0  0
   16.4818  -23.8126  -17.3856 O   0  0  0  0  0  0  0  0  0  0  0  0
  2  1  1  1
  2  3  1  0
  2  8  1  0
  4  5  1  0
  4  3  1  0
  5  6  1  0
  7  6  1  0
  8 18  1  0
  8  9  2  0
 10 11  1  0
 11 12  2  0
 13 14  1  0
 13 11  1  0
 14 15  1  0
 15 16  1  0
 17 16  1  6
 18 17  1  0
 19 17  1  0
 19 21  1  0
 20 19  2  0
 22 23  1  6
 22 21  1  0
 22 25  1  0
 24 23  1  0
 25 27  1  0
 26 25  2  0
M  END
$$$$
