KRC.pdb
     RDKit          3D

 27 26  0  0  1  0  0  0  0  0999 V2000
   25.3571  -21.5067  -10.2679 N   0  0  0  0  0  0  0  0  0  0  0  0
   24.6968  -21.2187  -11.5187 C   0  0  1  0  0  0  0  0  0  0  0  0
   23.9405  -19.9468  -11.3773 C   0  0  0  0  0  0  0  0  0  0  0  0
   22.5247  -20.2099  -10.9761 C   0  0  0  0  0  0  0  0  0  0  0  0
   21.6972  -20.7292  -12.1186 C   0  0  0  0  0  0  0  0  0  0  0  0
   20.2237  -20.7159  -11.7430 C   0  0  0  0  0  0  0  0  0  0  0  0
   19.4772  -21.2653  -12.8584 N   0  0  0  0  0  0  0  0  0  0  0  0
   25.6474  -21.2077  -12.6611 C   0  0  0  0  0  0  0  0  0  0  0  0
   26.7684  -20.6475  -12.5002 O   0  0  0  0  0  0  0  0  0  0  0  0
   27.0357  -26.3571  -15.9758 N   0  0  0  0  0  0  0  0  0  0  0  0
   28.1716  -26.0285  -16.7704 C   0  0  0  0  0  0  0  0  0  0  0  0
   29.2735  -26.6701  -16.6537 N   0  0  0  0  0  0  0  0  0  0  0  0
   28.1035  -24.9690  -17.7188 N   0  0  0  0  0  0  0  0  0  0  0  0
   26.9271  -24.1636  -17.9547 C   0  0  0  0  0  0  0  0  0  0  0  0
   27.0798  -22.9107  -17.1130 C   0  0  0  0  0  0  0  0  0  0  0  0
   26.2536  -22.9063  -15.8935 C   0  0  0  0  0  0  0  0  0  0  0  0
   26.3328  -21.6637  -15.0570 C   0  0  2  0  0  0  0  0  0  0  0  0
   25.3983  -21.7786  -13.9278 N   0  0  0  0  0  0  0  0  0  0  0  0
   25.9539  -20.4194  -15.7508 C   0  0  0  0  0  0  0  0  0  0  0  0
   24.7356  -20.1012  -15.8332 O   0  0  0  0  0  0  0  0  0  0  0  0
   30.0897  -26.4117  -17.2216 N   0  0  0  0  0  0  0  0  0  0  0  0
   26.8604  -19.5151  -16.3514 C   0  0  2  0  0  0  0  0  0  0  0  0
   26.3489  -18.3659  -17.1300 C   0  0  0  0  0  0  0  0  0  0  0  0
   27.4989  -17.3760  -17.3566 S   0  0  0  0  0  0  0  0  0  0  0  0
   28.1435  -16.7460  -15.7921 C   0  0  0  0  0  0  0  0  0  0  0  0
   25.7477  -18.8270  -18.3835 O   0  0  0  0  0  0  0  0  0  0  0  0
   26.1479  -19.8958  -18.9190 O   0  0  0  0  0  0  0  0  0  0  0  0
  2  1  1  1
  2  3  1  0
  2  8  1  0
  4  5  1  0
  4  3  1  0
  5  6  1  0
  7  6  1  0
  8 18  1  0
  8  9  2  0
 10 11  1  0
 11 12  2  0
 13 14  1  0
 13 11  1  0
 14 15  1  0
 15 16  1  0
 17 16  1  6
 18 17  1  0
 19 17  1  0
 19 21  1  0
 20 19  2  0
 22 23  1  1
 22 21  1  0
 22 25  1  0
 24 23  1  0
 25 27  1  0
 26 25  2  0
M  END
$$$$
