KRC.pdb
     RDKit          3D

 27 26  0  0  1  0  0  0  0  0999 V2000
   28.7119  -20.2023  -17.6167 N   0  0  0  0  0  0  0  0  0  0  0  0
   28.0348  -21.4758  -17.6732 C   0  0  1  0  0  0  0  0  0  0  0  0
   29.0435  -22.5426  -17.9054 C   0  0  0  0  0  0  0  0  0  0  0  0
   30.0219  -22.1317  -18.9584 C   0  0  0  0  0  0  0  0  0  0  0  0
   29.5759  -22.5331  -20.3366 C   0  0  0  0  0  0  0  0  0  0  0  0
   30.6055  -22.0940  -21.3660 C   0  0  0  0  0  0  0  0  0  0  0  0
   30.1623  -22.5644  -22.6643 N   0  0  0  0  0  0  0  0  0  0  0  0
   27.1987  -21.7164  -16.4683 C   0  0  0  0  0  0  0  0  0  0  0  0
   26.5607  -22.8043  -16.3913 O   0  0  0  0  0  0  0  0  0  0  0  0
   26.1208  -19.7454   -9.3221 N   0  0  0  0  0  0  0  0  0  0  0  0
   25.0041  -20.6192   -9.1833 C   0  0  0  0  0  0  0  0  0  0  0  0
   24.6627  -21.0865   -8.0411 N   0  0  0  0  0  0  0  0  0  0  0  0
   24.2386  -20.9944  -10.3234 N   0  0  0  0  0  0  0  0  0  0  0  0
   24.6399  -20.7465  -11.6893 C   0  0  0  0  0  0  0  0  0  0  0  0
   26.1460  -20.9207  -11.7402 C   0  0  0  0  0  0  0  0  0  0  0  0
   26.7550  -20.4841  -13.0085 C   0  0  0  0  0  0  0  0  0  0  0  0
   26.1541  -21.0651  -14.2541 C   0  0  2  0  0  0  0  0  0  0  0  0
   27.0562  -20.8185  -15.3886 N   0  0  0  0  0  0  0  0  0  0  0  0
   24.8596  -20.4831  -14.6524 C   0  0  0  0  0  0  0  0  0  0  0  0
   24.7905  -19.2535  -14.9275 O   0  0  0  0  0  0  0  0  0  0  0  0
   23.8981  -21.7685   -7.9644 N   0  0  0  0  0  0  0  0  0  0  0  0
   23.6454  -21.1999  -14.7622 C   0  0  2  0  0  0  0  0  0  0  0  0
   22.3978  -20.4878  -15.1157 C   0  0  0  0  0  0  0  0  0  0  0  0
   21.9112  -20.9974  -16.4785 S   0  0  0  0  0  0  0  0  0  0  0  0
   20.3566  -20.2139  -16.9578 C   0  0  0  0  0  0  0  0  0  0  0  0
   21.3969  -20.6594  -14.0603 O   0  0  0  0  0  0  0  0  0  0  0  0
   21.4350  -21.6749  -13.3142 O   0  0  0  0  0  0  0  0  0  0  0  0
  2  1  1  1
  2  3  1  0
  2  8  1  0
  4  5  1  0
  4  3  1  0
  5  6  1  0
  7  6  1  0
  8 18  1  0
  8  9  2  0
 10 11  1  0
 11 12  2  0
 13 14  1  0
 13 11  1  0
 14 15  1  0
 15 16  1  0
 17 16  1  1
 18 17  1  0
 19 17  1  0
 19 21  1  0
 20 19  2  0
 22 23  1  6
 22 21  1  0
 22 25  1  0
 24 23  1  0
 25 27  1  0
 26 25  2  0
M  END
$$$$
