KRC.pdb
     RDKit          3D

 27 26  0  0  1  0  0  0  0  0999 V2000
   23.1738  -16.1190  -17.0381 N   0  0  0  0  0  0  0  0  0  0  0  0
   21.9249  -16.7066  -17.4604 C   0  0  1  0  0  0  0  0  0  0  0  0
   21.8459  -16.6450  -18.9436 C   0  0  0  0  0  0  0  0  0  0  0  0
   22.9052  -15.7471  -19.4973 C   0  0  0  0  0  0  0  0  0  0  0  0
   24.0641  -16.5180  -20.0651 C   0  0  0  0  0  0  0  0  0  0  0  0
   25.0453  -15.5671  -20.7327 C   0  0  0  0  0  0  0  0  0  0  0  0
   26.2120  -16.3356  -21.1218 N   0  0  0  0  0  0  0  0  0  0  0  0
   21.7459  -18.0809  -16.9238 C   0  0  0  0  0  0  0  0  0  0  0  0
   21.4905  -19.0121  -17.7388 O   0  0  0  0  0  0  0  0  0  0  0  0
   24.1199  -24.3319  -14.0896 N   0  0  0  0  0  0  0  0  0  0  0  0
   25.1012  -23.3075  -14.2207 C   0  0  0  0  0  0  0  0  0  0  0  0
   26.1069  -23.4452  -15.0011 N   0  0  0  0  0  0  0  0  0  0  0  0
   24.9822  -22.0985  -13.4785 N   0  0  0  0  0  0  0  0  0  0  0  0
   23.8810  -21.7929  -12.5939 C   0  0  0  0  0  0  0  0  0  0  0  0
   22.6915  -21.4626  -13.4757 C   0  0  0  0  0  0  0  0  0  0  0  0
   22.8073  -20.1715  -14.1753 C   0  0  0  0  0  0  0  0  0  0  0  0
   21.6639  -19.8147  -15.0784 C   0  0  2  0  0  0  0  0  0  0  0  0
   21.8386  -18.4370  -15.5611 N   0  0  0  0  0  0  0  0  0  0  0  0
   20.3348  -19.8385  -14.4413 C   0  0  0  0  0  0  0  0  0  0  0  0
   20.0580  -18.9878  -13.5514 O   0  0  0  0  0  0  0  0  0  0  0  0
   26.8135  -22.7031  -15.0766 N   0  0  0  0  0  0  0  0  0  0  0  0
   19.3030  -20.7561  -14.7473 C   0  0  1  0  0  0  0  0  0  0  0  0
   17.9743  -20.6104  -14.1132 C   0  0  0  0  0  0  0  0  0  0  0  0
   16.8993  -20.6770  -15.2057 S   0  0  0  0  0  0  0  0  0  0  0  0
   16.4209  -19.0266  -15.7604 C   0  0  0  0  0  0  0  0  0  0  0  0
   17.7893  -21.6301  -13.0783 O   0  0  0  0  0  0  0  0  0  0  0  0
   18.5624  -22.6246  -13.0276 O   0  0  0  0  0  0  0  0  0  0  0  0
  2  1  1  6
  2  3  1  0
  2  8  1  0
  4  5  1  0
  4  3  1  0
  5  6  1  0
  7  6  1  0
  8 18  1  0
  8  9  2  0
 10 11  1  0
 11 12  2  0
 13 14  1  0
 13 11  1  0
 14 15  1  0
 15 16  1  0
 17 16  1  1
 18 17  1  0
 19 17  1  0
 19 21  1  0
 20 19  2  0
 22 23  1  1
 22 21  1  0
 22 25  1  0
 24 23  1  0
 25 27  1  0
 26 25  2  0
M  END
$$$$
