KRC.pdb
     RDKit          3D

 27 26  0  0  1  0  0  0  0  0999 V2000
   27.2414  -21.7489  -18.8288 N   0  0  0  0  0  0  0  0  0  0  0  0
   26.4556  -20.8217  -18.0501 C   0  0  1  0  0  0  0  0  0  0  0  0
   25.3921  -20.2513  -18.9180 C   0  0  0  0  0  0  0  0  0  0  0  0
   25.9242  -19.1235  -19.7425 C   0  0  0  0  0  0  0  0  0  0  0  0
   25.3658  -17.7947  -19.3161 C   0  0  0  0  0  0  0  0  0  0  0  0
   25.9576  -16.6830  -20.1685 C   0  0  0  0  0  0  0  0  0  0  0  0
   25.3889  -15.4278  -19.7167 N   0  0  0  0  0  0  0  0  0  0  0  0
   25.9241  -21.4457  -16.8104 C   0  0  0  0  0  0  0  0  0  0  0  0
   25.5786  -22.6602  -16.8535 O   0  0  0  0  0  0  0  0  0  0  0  0
   28.2473  -22.6344   -9.8689 N   0  0  0  0  0  0  0  0  0  0  0  0
   28.5605  -21.4945  -10.6640 C   0  0  0  0  0  0  0  0  0  0  0  0
   29.7554  -21.2719  -11.0666 N   0  0  0  0  0  0  0  0  0  0  0  0
   27.5409  -20.5708  -11.0298 N   0  0  0  0  0  0  0  0  0  0  0  0
   26.1500  -20.7080  -10.6625 C   0  0  0  0  0  0  0  0  0  0  0  0
   25.4440  -21.3319  -11.8515 C   0  0  0  0  0  0  0  0  0  0  0  0
   25.9142  -20.8316  -13.1548 C   0  0  0  0  0  0  0  0  0  0  0  0
   25.2776  -21.4563  -14.3609 C   0  0  2  0  0  0  0  0  0  0  0  0
   25.7710  -20.7852  -15.5724 N   0  0  0  0  0  0  0  0  0  0  0  0
   23.8093  -21.3401  -14.4221 C   0  0  0  0  0  0  0  0  0  0  0  0
   23.2844  -20.2119  -14.6321 O   0  0  0  0  0  0  0  0  0  0  0  0
   29.9643  -20.4536  -11.6517 N   0  0  0  0  0  0  0  0  0  0  0  0
   22.9017  -22.4132  -14.2650 C   0  0  2  0  0  0  0  0  0  0  0  0
   21.4489  -22.1791  -14.4181 C   0  0  0  0  0  0  0  0  0  0  0  0
   20.7408  -23.5365  -14.5158 S   0  0  0  0  0  0  0  0  0  0  0  0
   20.9876  -24.5171  -13.0199 C   0  0  0  0  0  0  0  0  0  0  0  0
   20.9458  -21.3597  -13.3133 O   0  0  0  0  0  0  0  0  0  0  0  0
   21.6524  -21.1872  -12.2836 O   0  0  0  0  0  0  0  0  0  0  0  0
  2  1  1  6
  2  3  1  0
  2  8  1  0
  4  5  1  0
  4  3  1  0
  5  6  1  0
  7  6  1  0
  8 18  1  0
  8  9  2  0
 10 11  1  0
 11 12  2  0
 13 14  1  0
 13 11  1  0
 14 15  1  0
 15 16  1  0
 17 16  1  1
 18 17  1  0
 19 17  1  0
 19 21  1  0
 20 19  2  0
 22 23  1  6
 22 21  1  0
 22 25  1  0
 24 23  1  0
 25 27  1  0
 26 25  2  0
M  END
$$$$
