KRC.pdb
     RDKit          3D

 27 26  0  0  1  0  0  0  0  0999 V2000
   24.3549  -10.2539  -21.0089 N   0  0  0  0  0  0  0  0  0  0  0  0
   23.2758   -9.5715  -21.6820 C   0  0  1  0  0  0  0  0  0  0  0  0
   22.4877  -10.5688  -22.4528 C   0  0  0  0  0  0  0  0  0  0  0  0
   23.3766  -11.3827  -23.3373 C   0  0  0  0  0  0  0  0  0  0  0  0
   22.6179  -12.4438  -24.0843 C   0  0  0  0  0  0  0  0  0  0  0  0
   23.5786  -13.2943  -24.9005 C   0  0  0  0  0  0  0  0  0  0  0  0
   24.3001  -12.4112  -25.7966 N   0  0  0  0  0  0  0  0  0  0  0  0
   22.4464   -8.7752  -20.7403 C   0  0  0  0  0  0  0  0  0  0  0  0
   21.4524   -8.1476  -21.2034 O   0  0  0  0  0  0  0  0  0  0  0  0
   22.3157   -9.9618  -12.2117 N   0  0  0  0  0  0  0  0  0  0  0  0
   21.3705   -9.1347  -12.8842 C   0  0  0  0  0  0  0  0  0  0  0  0
   20.5223   -8.4292  -12.2343 N   0  0  0  0  0  0  0  0  0  0  0  0
   21.3499   -9.0762  -14.3064 N   0  0  0  0  0  0  0  0  0  0  0  0
   22.1103   -9.9533  -15.1671 C   0  0  0  0  0  0  0  0  0  0  0  0
   21.7105   -9.6207  -16.5922 C   0  0  0  0  0  0  0  0  0  0  0  0
   22.1196   -8.2745  -17.0284 C   0  0  0  0  0  0  0  0  0  0  0  0
   21.7884   -7.9206  -18.4480 C   0  0  2  0  0  0  0  0  0  0  0  0
   22.6803   -8.6603  -19.3531 N   0  0  0  0  0  0  0  0  0  0  0  0
   21.9718   -6.5000  -18.7959 C   0  0  0  0  0  0  0  0  0  0  0  0
   23.1138   -6.0878  -19.1400 O   0  0  0  0  0  0  0  0  0  0  0  0
   19.8244   -7.8635  -12.7326 N   0  0  0  0  0  0  0  0  0  0  0  0
   20.9508   -5.5215  -18.7828 C   0  0  2  0  0  0  0  0  0  0  0  0
   21.2758   -4.1120  -19.0934 C   0  0  0  0  0  0  0  0  0  0  0  0
   20.3943   -3.6511  -20.2615 S   0  0  0  0  0  0  0  0  0  0  0  0
   20.5527   -1.8750  -20.5452 C   0  0  0  0  0  0  0  0  0  0  0  0
   21.1125   -3.2770  -17.9012 O   0  0  0  0  0  0  0  0  0  0  0  0
   20.3887   -3.6733  -16.9482 O   0  0  0  0  0  0  0  0  0  0  0  0
  2  1  1  1
  2  3  1  0
  2  8  1  0
  4  5  1  0
  4  3  1  0
  5  6  1  0
  7  6  1  0
  8 18  1  0
  8  9  2  0
 10 11  1  0
 11 12  2  0
 13 14  1  0
 13 11  1  0
 14 15  1  0
 15 16  1  0
 17 16  1  1
 18 17  1  0
 19 17  1  0
 19 21  1  0
 20 19  2  0
 22 23  1  6
 22 21  1  0
 22 25  1  0
 24 23  1  0
 25 27  1  0
 26 25  2  0
M  END
$$$$
