KRC.pdb
     RDKit          3D

 27 26  0  0  1  0  0  0  0  0999 V2000
   19.7477  -19.1413  -14.9829 N   0  0  0  0  0  0  0  0  0  0  0  0
   20.8074  -19.8783  -15.6289 C   0  0  1  0  0  0  0  0  0  0  0  0
   20.6689  -19.7219  -17.1006 C   0  0  0  0  0  0  0  0  0  0  0  0
   20.2152  -18.3410  -17.4500 C   0  0  0  0  0  0  0  0  0  0  0  0
   20.1031  -18.1382  -18.9353 C   0  0  0  0  0  0  0  0  0  0  0  0
   19.7578  -16.6886  -19.2386 C   0  0  0  0  0  0  0  0  0  0  0  0
   19.5520  -16.5722  -20.6695 N   0  0  0  0  0  0  0  0  0  0  0  0
   22.1485  -19.4836  -15.1245 C   0  0  0  0  0  0  0  0  0  0  0  0
   22.3133  -18.2935  -14.7334 O   0  0  0  0  0  0  0  0  0  0  0  0
   26.5356  -20.9949   -8.4082 N   0  0  0  0  0  0  0  0  0  0  0  0
   25.2465  -21.0908   -9.0071 C   0  0  0  0  0  0  0  0  0  0  0  0
   24.1786  -20.9871   -8.3083 N   0  0  0  0  0  0  0  0  0  0  0  0
   25.1189  -21.3067  -10.4084 N   0  0  0  0  0  0  0  0  0  0  0  0
   26.2326  -21.5378  -11.2999 C   0  0  0  0  0  0  0  0  0  0  0  0
   26.0353  -20.6205  -12.4919 C   0  0  0  0  0  0  0  0  0  0  0  0
   24.7650  -20.8349  -13.2064 C   0  0  0  0  0  0  0  0  0  0  0  0
   24.5292  -19.9520  -14.3959 C   0  0  2  0  0  0  0  0  0  0  0  0
   23.2683  -20.3393  -15.0452 N   0  0  0  0  0  0  0  0  0  0  0  0
   25.5541  -20.0408  -15.4517 C   0  0  0  0  0  0  0  0  0  0  0  0
   25.5214  -21.0017  -16.2690 O   0  0  0  0  0  0  0  0  0  0  0  0
   23.2556  -21.0803   -8.7499 N   0  0  0  0  0  0  0  0  0  0  0  0
   26.6062  -19.1154  -15.6432 C   0  0  2  0  0  0  0  0  0  0  0  0
   27.5616  -19.3046  -16.7568 C   0  0  0  0  0  0  0  0  0  0  0  0
   28.4935  -18.0873  -16.8162 S   0  0  0  0  0  0  0  0  0  0  0  0
   29.5566  -18.1422  -18.2747 C   0  0  0  0  0  0  0  0  0  0  0  0
   28.2908  -20.5644  -16.5939 O   0  0  0  0  0  0  0  0  0  0  0  0
   28.5300  -21.0096  -15.4389 O   0  0  0  0  0  0  0  0  0  0  0  0
  2  1  1  1
  2  3  1  0
  2  8  1  0
  4  5  1  0
  4  3  1  0
  5  6  1  0
  7  6  1  0
  8 18  1  0
  8  9  2  0
 10 11  1  0
 11 12  2  0
 13 14  1  0
 13 11  1  0
 14 15  1  0
 15 16  1  0
 17 16  1  1
 18 17  1  0
 19 17  1  0
 19 21  1  0
 20 19  2  0
 22 23  1  1
 22 21  1  0
 22 25  1  0
 24 23  1  0
 25 27  1  0
 26 25  2  0
M  END
$$$$
