KRC.pdb
     RDKit          3D

 27 26  0  0  1  0  0  0  0  0999 V2000
   19.5607  -19.2750  -16.4125 N   0  0  0  0  0  0  0  0  0  0  0  0
   20.0253  -19.1021  -15.0569 C   0  0  1  0  0  0  0  0  0  0  0  0
   19.3334  -20.0882  -14.1859 C   0  0  0  0  0  0  0  0  0  0  0  0
   17.9249  -20.3034  -14.6381 C   0  0  0  0  0  0  0  0  0  0  0  0
   16.9658  -20.3990  -13.4846 C   0  0  0  0  0  0  0  0  0  0  0  0
   15.5666  -20.7069  -13.9945 C   0  0  0  0  0  0  0  0  0  0  0  0
   14.6873  -20.8025  -12.8452 N   0  0  0  0  0  0  0  0  0  0  0  0
   21.5065  -19.1783  -14.9614 C   0  0  0  0  0  0  0  0  0  0  0  0
   22.0415  -19.0130  -13.8288 O   0  0  0  0  0  0  0  0  0  0  0  0
   28.0104  -23.7859  -16.1615 N   0  0  0  0  0  0  0  0  0  0  0  0
   28.5519  -22.7849  -17.0185 C   0  0  0  0  0  0  0  0  0  0  0  0
   29.8166  -22.6380  -17.1540 N   0  0  0  0  0  0  0  0  0  0  0  0
   27.6888  -21.9191  -17.7480 N   0  0  0  0  0  0  0  0  0  0  0  0
   26.2458  -21.9783  -17.6971 C   0  0  0  0  0  0  0  0  0  0  0  0
   25.7920  -20.8224  -16.8258 C   0  0  0  0  0  0  0  0  0  0  0  0
   24.3285  -20.6787  -16.7392 C   0  0  0  0  0  0  0  0  0  0  0  0
   23.8340  -19.5433  -15.8928 C   0  0  2  0  0  0  0  0  0  0  0  0
   22.3766  -19.4233  -16.0454 N   0  0  0  0  0  0  0  0  0  0  0  0
   24.3732  -18.2185  -16.2493 C   0  0  0  0  0  0  0  0  0  0  0  0
   23.8986  -17.6023  -17.2430 O   0  0  0  0  0  0  0  0  0  0  0  0
   30.1932  -21.9164  -17.7810 N   0  0  0  0  0  0  0  0  0  0  0  0
   25.4072  -17.5481  -15.5553 C   0  0  2  0  0  0  0  0  0  0  0  0
   25.9164  -16.2542  -16.0606 C   0  0  0  0  0  0  0  0  0  0  0  0
   26.5826  -15.5025  -14.9010 S   0  0  0  0  0  0  0  0  0  0  0  0
   27.3869  -13.9901  -15.4722 C   0  0  0  0  0  0  0  0  0  0  0  0
   26.8260  -16.4702  -17.1881 O   0  0  0  0  0  0  0  0  0  0  0  0
   27.6077  -17.4592  -17.1871 O   0  0  0  0  0  0  0  0  0  0  0  0
  2  1  1  6
  2  3  1  0
  2  8  1  0
  4  5  1  0
  4  3  1  0
  5  6  1  0
  7  6  1  0
  8 18  1  0
  8  9  2  0
 10 11  1  0
 11 12  2  0
 13 14  1  0
 13 11  1  0
 14 15  1  0
 15 16  1  0
 17 16  1  6
 18 17  1  0
 19 17  1  0
 19 21  1  0
 20 19  2  0
 22 23  1  1
 22 21  1  0
 22 25  1  0
 24 23  1  0
 25 27  1  0
 26 25  2  0
M  END
$$$$
