TWS.pdb
     RDKit          3D

 28 29  0  0  1  0  0  0  0  0999 V2000
   12.5834  -20.6612    1.8179 C   0  0  0  0  0  0  0  0  0  0  0  0
   13.8992  -20.6553    2.5985 C   0  0  1  0  0  0  0  0  0  0  0  0
   14.0896  -21.8815    3.2286 O   0  0  0  0  0  0  0  0  0  0  0  0
   15.0561  -20.3551    1.6296 C   0  0  2  0  0  0  0  0  0  0  0  0
   14.9547  -21.2646    0.5711 N   0  0  0  0  0  0  0  0  0  0  0  0
   16.3432  -20.3682    2.3725 C   0  0  0  0  0  0  0  0  0  0  0  0
   17.1925  -21.1766    1.9477 O   0  0  0  0  0  0  0  0  0  0  0  0
   16.6057  -19.5422    3.4679 N   0  0  0  0  0  0  0  0  0  0  0  0
   17.7868  -19.3775    4.2521 C   0  0  1  0  0  0  0  0  0  0  0  0
   18.1030  -17.9791    4.7186 C   0  0  0  0  0  0  0  0  0  0  0  0
   18.2167  -16.9778    3.6539 C   0  0  0  0  0  0  0  0  0  0  0  0
   17.3380  -16.0173    3.1778 C   0  0  0  0  0  0  0  0  0  0  0  0
   17.8807  -15.3450    2.1516 N   0  0  0  0  0  0  0  0  0  0  0  0
   19.1245  -15.8596    1.9406 C   0  0  0  0  0  0  0  0  0  0  0  0
   20.0900  -15.5288    1.0085 C   0  0  0  0  0  0  0  0  0  0  0  0
   21.2961  -16.1908    0.9681 C   0  0  0  0  0  0  0  0  0  0  0  0
   21.5537  -17.2160    1.8841 C   0  0  0  0  0  0  0  0  0  0  0  0
   20.5649  -17.5204    2.8026 C   0  0  0  0  0  0  0  0  0  0  0  0
   19.3546  -16.8617    2.8491 C   0  0  0  0  0  0  0  0  0  0  0  0
   17.8917  -20.4073    5.2744 C   0  0  0  0  0  0  0  0  0  0  0  0
   16.9627  -20.4310    6.1656 O   0  0  0  0  0  0  0  0  0  0  0  0
   20.4764  -23.6473    5.3193 O   0  0  0  0  0  0  0  0  0  0  0  0
   19.2666  -23.7325    6.0443 C   0  0  0  0  0  0  0  0  0  0  0  0
   18.8648  -22.3461    6.4463 C   0  0  2  0  0  0  0  0  0  0  0  0
   18.9306  -21.3813    5.3720 N   0  0  0  0  0  0  0  0  0  0  0  0
   19.7158  -21.8654    7.6047 C   0  0  0  0  0  0  0  0  0  0  0  0
   20.4567  -20.7127    7.5793 O   0  0  0  0  0  0  0  0  0  0  0  0
   19.7480  -22.5743    8.6670 O   0  0  0  0  0  0  0  0  0  0  0  0
  2  4  1  0
  2  1  1  6
  3  2  1  0
  4  5  1  6
  4  6  1  0
  6  7  2  0
  8  6  1  0
  8  9  1  0
  9 10  1  1
 10 11  1  0
 11 12  2  0
 12 13  1  0
 14 13  1  0
 15 14  2  0
 16 15  1  0
 17 18  1  0
 17 16  2  0
 18 19  2  0
 19 11  1  0
 19 14  1  0
 20  9  1  0
 20 21  2  0
 22 23  1  0
 24 23  1  6
 24 25  1  0
 24 26  1  0
 25 20  1  0
 26 27  1  0
 28 26  2  0
M  END
$$$$
