TWS.pdb
     RDKit          3D

 28 29  0  0  1  0  0  0  0  0999 V2000
   28.8729  -24.5179  -16.7962 C   0  0  0  0  0  0  0  0  0  0  0  0
   29.0784  -23.0543  -17.1919 C   0  0  1  0  0  0  0  0  0  0  0  0
   29.7134  -22.9753  -18.4277 O   0  0  0  0  0  0  0  0  0  0  0  0
   27.7114  -22.3496  -17.2357 C   0  0  2  0  0  0  0  0  0  0  0  0
   27.9161  -21.0860  -17.8005 N   0  0  0  0  0  0  0  0  0  0  0  0
   27.1023  -22.3610  -15.8800 C   0  0  0  0  0  0  0  0  0  0  0  0
   26.8356  -23.4923  -15.4280 O   0  0  0  0  0  0  0  0  0  0  0  0
   26.8412  -21.2017  -15.1460 N   0  0  0  0  0  0  0  0  0  0  0  0
   26.2567  -21.0243  -13.8562 C   0  0  1  0  0  0  0  0  0  0  0  0
   26.9065  -20.0100  -12.9494 C   0  0  0  0  0  0  0  0  0  0  0  0
   26.5297  -20.1059  -11.5360 C   0  0  0  0  0  0  0  0  0  0  0  0
   25.3481  -19.8342  -10.8642 C   0  0  0  0  0  0  0  0  0  0  0  0
   25.4926  -20.0428   -9.5470 N   0  0  0  0  0  0  0  0  0  0  0  0
   26.7750  -20.4532   -9.3385 C   0  0  0  0  0  0  0  0  0  0  0  0
   27.4339  -20.7921   -8.1717 C   0  0  0  0  0  0  0  0  0  0  0  0
   28.7539  -21.1818   -8.1877 C   0  0  0  0  0  0  0  0  0  0  0  0
   29.4442  -21.2378   -9.4030 C   0  0  0  0  0  0  0  0  0  0  0  0
   28.7534  -20.8917  -10.5507 C   0  0  0  0  0  0  0  0  0  0  0  0
   27.4314  -20.5006  -10.5424 C   0  0  0  0  0  0  0  0  0  0  0  0
   24.8067  -20.9381  -13.9389 C   0  0  0  0  0  0  0  0  0  0  0  0
   24.3265  -20.1790  -14.8614 O   0  0  0  0  0  0  0  0  0  0  0  0
   21.8976  -22.2352  -11.2144 O   0  0  0  0  0  0  0  0  0  0  0  0
   21.6053  -22.4247  -12.5837 C   0  0  0  0  0  0  0  0  0  0  0  0
   22.4712  -21.4957  -13.3787 C   0  0  2  0  0  0  0  0  0  0  0  0
   23.8821  -21.6161  -13.0886 N   0  0  0  0  0  0  0  0  0  0  0  0
   22.0367  -20.0590  -13.1671 C   0  0  0  0  0  0  0  0  0  0  0  0
   20.7843  -19.5897  -13.4660 O   0  0  0  0  0  0  0  0  0  0  0  0
   22.8853  -19.2351  -12.6842 O   0  0  0  0  0  0  0  0  0  0  0  0
  2  4  1  0
  2  1  1  6
  3  2  1  0
  4  5  1  1
  4  6  1  0
  6  7  2  0
  8  6  1  0
  8  9  1  0
  9 10  1  6
 10 11  1  0
 11 12  2  0
 12 13  1  0
 14 13  1  0
 15 14  2  0
 16 15  1  0
 17 18  1  0
 17 16  2  0
 18 19  2  0
 19 11  1  0
 19 14  1  0
 20  9  1  0
 20 21  2  0
 22 23  1  0
 24 23  1  1
 24 25  1  0
 24 26  1  0
 25 20  1  0
 26 27  1  0
 28 26  2  0
M  END
$$$$
