TWS.pdb
     RDKit          3D

 28 29  0  0  1  0  0  0  0  0999 V2000
   28.1236  -35.6043  -14.8272 C   0  0  0  0  0  0  0  0  0  0  0  0
   28.5369  -34.5656  -15.8718 C   0  0  1  0  0  0  0  0  0  0  0  0
   27.8058  -34.7443  -17.0425 O   0  0  0  0  0  0  0  0  0  0  0  0
   28.3086  -33.1570  -15.2964 C   0  0  2  0  0  0  0  0  0  0  0  0
   26.9417  -33.0402  -15.0207 N   0  0  0  0  0  0  0  0  0  0  0  0
   28.8696  -32.1428  -16.2267 C   0  0  0  0  0  0  0  0  0  0  0  0
   28.0409  -31.3375  -16.6957 O   0  0  0  0  0  0  0  0  0  0  0  0
   30.2235  -32.0757  -16.5633 N   0  0  0  0  0  0  0  0  0  0  0  0
   30.9445  -31.1292  -17.3515 C   0  0  1  0  0  0  0  0  0  0  0  0
   32.4488  -31.1749  -17.2605 C   0  0  0  0  0  0  0  0  0  0  0  0
   33.1481  -30.0871  -17.9511 C   0  0  0  0  0  0  0  0  0  0  0  0
   33.0529  -28.7076  -17.8565 C   0  0  0  0  0  0  0  0  0  0  0  0
   33.8834  -28.1140  -18.7268 N   0  0  0  0  0  0  0  0  0  0  0  0
   34.5337  -29.1003  -19.4058 C   0  0  0  0  0  0  0  0  0  0  0  0
   35.4836  -29.0289  -20.4072 C   0  0  0  0  0  0  0  0  0  0  0  0
   36.0147  -30.1691  -20.9664 C   0  0  0  0  0  0  0  0  0  0  0  0
   35.5892  -31.4233  -20.5164 C   0  0  0  0  0  0  0  0  0  0  0  0
   34.6372  -31.4569  -19.5130 C   0  0  0  0  0  0  0  0  0  0  0  0
   34.1009  -30.3192  -18.9482 C   0  0  0  0  0  0  0  0  0  0  0  0
   30.4105  -31.0486  -18.7025 C   0  0  0  0  0  0  0  0  0  0  0  0
   30.0863  -32.1624  -19.2611 O   0  0  0  0  0  0  0  0  0  0  0  0
   27.6592  -30.5299  -21.9916 O   0  0  0  0  0  0  0  0  0  0  0  0
   28.1780  -30.4953  -20.6777 C   0  0  0  0  0  0  0  0  0  0  0  0
   29.5696  -29.9435  -20.7398 C   0  0  2  0  0  0  0  0  0  0  0  0
   30.2215  -29.8493  -19.4532 N   0  0  0  0  0  0  0  0  0  0  0  0
   29.5673  -28.5799  -21.4017 C   0  0  0  0  0  0  0  0  0  0  0  0
   29.3936  -28.3862  -22.7472 O   0  0  0  0  0  0  0  0  0  0  0  0
   29.7387  -27.5499  -20.6657 O   0  0  0  0  0  0  0  0  0  0  0  0
  2  4  1  0
  2  1  1  1
  3  2  1  0
  4  5  1  6
  4  6  1  0
  6  7  2  0
  8  6  1  0
  8  9  1  0
  9 10  1  6
 10 11  1  0
 11 12  2  0
 12 13  1  0
 14 13  1  0
 15 14  2  0
 16 15  1  0
 17 18  1  0
 17 16  2  0
 18 19  2  0
 19 11  1  0
 19 14  1  0
 20  9  1  0
 20 21  2  0
 22 23  1  0
 24 23  1  1
 24 25  1  0
 24 26  1  0
 25 20  1  0
 26 27  1  0
 28 26  2  0
M  END
$$$$
