TWS.pdb
     RDKit          3D

 28 29  0  0  1  0  0  0  0  0999 V2000
   29.0911  -21.9634  -18.7787 C   0  0  0  0  0  0  0  0  0  0  0  0
   27.9528  -21.9037  -17.7582 C   0  0  1  0  0  0  0  0  0  0  0  0
   26.7991  -22.4707  -18.2915 O   0  0  0  0  0  0  0  0  0  0  0  0
   28.3844  -22.6454  -16.4811 C   0  0  2  0  0  0  0  0  0  0  0  0
   28.5959  -23.9833  -16.8322 N   0  0  0  0  0  0  0  0  0  0  0  0
   27.3850  -22.4090  -15.4068 C   0  0  0  0  0  0  0  0  0  0  0  0
   26.6346  -23.3737  -15.1589 O   0  0  0  0  0  0  0  0  0  0  0  0
   27.2776  -21.2031  -14.7101 N   0  0  0  0  0  0  0  0  0  0  0  0
   26.4075  -20.8115  -13.6489 C   0  0  1  0  0  0  0  0  0  0  0  0
   26.9149  -19.7435  -12.7133 C   0  0  0  0  0  0  0  0  0  0  0  0
   26.9606  -20.1250  -11.2985 C   0  0  0  0  0  0  0  0  0  0  0  0
   26.0108  -20.0859  -10.2898 C   0  0  0  0  0  0  0  0  0  0  0  0
   26.5325  -20.5135   -9.1303 N   0  0  0  0  0  0  0  0  0  0  0  0
   27.8350  -20.8373   -9.3652 C   0  0  0  0  0  0  0  0  0  0  0  0
   28.8111  -21.3191   -8.5134 C   0  0  0  0  0  0  0  0  0  0  0  0
   30.0849  -21.5788   -8.9659 C   0  0  0  0  0  0  0  0  0  0  0  0
   30.4013  -21.3534  -10.3096 C   0  0  0  0  0  0  0  0  0  0  0  0
   29.3998  -20.8709  -11.1332 C   0  0  0  0  0  0  0  0  0  0  0  0
   28.1219  -20.6085  -10.6872 C   0  0  0  0  0  0  0  0  0  0  0  0
   25.0458  -20.6191  -14.1239 C   0  0  0  0  0  0  0  0  0  0  0  0
   24.8993  -19.8823  -15.1696 O   0  0  0  0  0  0  0  0  0  0  0  0
   20.7148  -21.6964  -15.3280 O   0  0  0  0  0  0  0  0  0  0  0  0
   21.9769  -22.0835  -14.8242 C   0  0  0  0  0  0  0  0  0  0  0  0
   22.5959  -20.8954  -14.1533 C   0  0  2  0  0  0  0  0  0  0  0  0
   23.8708  -21.1713  -13.5306 N   0  0  0  0  0  0  0  0  0  0  0  0
   21.6477  -20.3194  -13.1205 C   0  0  0  0  0  0  0  0  0  0  0  0
   20.3767  -19.8939  -13.4063 O   0  0  0  0  0  0  0  0  0  0  0  0
   22.0545  -20.2220  -11.9134 O   0  0  0  0  0  0  0  0  0  0  0  0
  2  4  1  0
  2  1  1  6
  3  2  1  0
  4  5  1  6
  4  6  1  0
  6  7  2  0
  8  6  1  0
  8  9  1  0
  9 10  1  6
 10 11  1  0
 11 12  2  0
 12 13  1  0
 14 13  1  0
 15 14  2  0
 16 15  1  0
 17 18  1  0
 17 16  2  0
 18 19  2  0
 19 11  1  0
 19 14  1  0
 20  9  1  0
 20 21  2  0
 22 23  1  0
 24 23  1  1
 24 25  1  0
 24 26  1  0
 25 20  1  0
 26 27  1  0
 28 26  2  0
M  END
$$$$
