TWS.pdb
     RDKit          3D

 28 29  0  0  1  0  0  0  0  0999 V2000
   14.7295  -19.9658    5.4169 C   0  0  0  0  0  0  0  0  0  0  0  0
   15.5418  -20.2888    4.1613 C   0  0  1  0  0  0  0  0  0  0  0  0
   14.7282  -20.8859    3.2030 O   0  0  0  0  0  0  0  0  0  0  0  0
   16.1618  -18.9901    3.6170 C   0  0  2  0  0  0  0  0  0  0  0  0
   16.5952  -19.2543    2.3131 N   0  0  0  0  0  0  0  0  0  0  0  0
   17.2036  -18.5035    4.5587 C   0  0  0  0  0  0  0  0  0  0  0  0
   18.3310  -19.0162    4.4133 O   0  0  0  0  0  0  0  0  0  0  0  0
   16.9609  -17.5406    5.5410 N   0  0  0  0  0  0  0  0  0  0  0  0
   17.8483  -16.8864    6.4474 C   0  0  1  0  0  0  0  0  0  0  0  0
   17.3994  -15.5558    6.9962 C   0  0  0  0  0  0  0  0  0  0  0  0
   17.7796  -14.3901    6.1926 C   0  0  0  0  0  0  0  0  0  0  0  0
   17.2058  -13.7962    5.0794 C   0  0  0  0  0  0  0  0  0  0  0  0
   17.9421  -12.7543    4.6651 N   0  0  0  0  0  0  0  0  0  0  0  0
   19.0118  -12.6535    5.5030 C   0  0  0  0  0  0  0  0  0  0  0  0
   20.0670  -11.7609    5.5133 C   0  0  0  0  0  0  0  0  0  0  0  0
   21.0592  -11.8433    6.4638 C   0  0  0  0  0  0  0  0  0  0  0  0
   21.0025  -12.8453    7.4380 C   0  0  0  0  0  0  0  0  0  0  0  0
   19.9323  -13.7211    7.3974 C   0  0  0  0  0  0  0  0  0  0  0  0
   18.9349  -13.6447    6.4486 C   0  0  0  0  0  0  0  0  0  0  0  0
   18.3754  -17.8150    7.4357 C   0  0  0  0  0  0  0  0  0  0  0  0
   17.5190  -18.5688    8.0323 O   0  0  0  0  0  0  0  0  0  0  0  0
   21.5370  -20.6961    9.4580 O   0  0  0  0  0  0  0  0  0  0  0  0
   21.3555  -19.7061    8.4662 C   0  0  0  0  0  0  0  0  0  0  0  0
   20.0986  -18.9542    8.7818 C   0  0  2  0  0  0  0  0  0  0  0  0
   19.7492  -17.9555    7.7971 N   0  0  0  0  0  0  0  0  0  0  0  0
   20.2039  -18.2991   10.1447 C   0  0  0  0  0  0  0  0  0  0  0  0
   20.0514  -16.9539   10.3575 O   0  0  0  0  0  0  0  0  0  0  0  0
   20.4508  -19.0409   11.1551 O   0  0  0  0  0  0  0  0  0  0  0  0
  2  4  1  0
  2  1  1  1
  3  2  1  0
  4  5  1  6
  4  6  1  0
  6  7  2  0
  8  6  1  0
  8  9  1  0
  9 10  1  1
 10 11  1  0
 11 12  2  0
 12 13  1  0
 14 13  1  0
 15 14  2  0
 16 15  1  0
 17 18  1  0
 17 16  2  0
 18 19  2  0
 19 11  1  0
 19 14  1  0
 20  9  1  0
 20 21  2  0
 22 23  1  0
 24 23  1  6
 24 25  1  0
 24 26  1  0
 25 20  1  0
 26 27  1  0
 28 26  2  0
M  END
$$$$
