TWS.pdb
     RDKit          3D

 28 29  0  0  1  0  0  0  0  0999 V2000
   28.8699  -21.1751  -16.5893 C   0  0  0  0  0  0  0  0  0  0  0  0
   27.6335  -20.3014  -16.3682 C   0  0  1  0  0  0  0  0  0  0  0  0
   26.4774  -21.0276  -16.6380 O   0  0  0  0  0  0  0  0  0  0  0  0
   27.6314  -19.7933  -14.9159 C   0  0  2  0  0  0  0  0  0  0  0  0
   27.6117  -20.9189  -14.0848 N   0  0  0  0  0  0  0  0  0  0  0  0
   26.5151  -18.8305  -14.7274 C   0  0  0  0  0  0  0  0  0  0  0  0
   25.6556  -19.1723  -13.8910 O   0  0  0  0  0  0  0  0  0  0  0  0
   26.4167  -17.6234  -15.4233 N   0  0  0  0  0  0  0  0  0  0  0  0
   25.4136  -16.6086  -15.3965 C   0  0  1  0  0  0  0  0  0  0  0  0
   25.7621  -15.2916  -16.0426 C   0  0  0  0  0  0  0  0  0  0  0  0
   24.7027  -14.2790  -16.0039 C   0  0  0  0  0  0  0  0  0  0  0  0
   24.2481  -13.4414  -14.9975 C   0  0  0  0  0  0  0  0  0  0  0  0
   23.2178  -12.6981  -15.4282 N   0  0  0  0  0  0  0  0  0  0  0  0
   22.9826  -13.0420  -16.7255 C   0  0  0  0  0  0  0  0  0  0  0  0
   22.0370  -12.5814  -17.6222 C   0  0  0  0  0  0  0  0  0  0  0  0
   21.9719  -13.0771  -18.9046 C   0  0  0  0  0  0  0  0  0  0  0  0
   22.8762  -14.0635  -19.3118 C   0  0  0  0  0  0  0  0  0  0  0  0
   23.8088  -14.5009  -18.3882 C   0  0  0  0  0  0  0  0  0  0  0  0
   23.8801  -14.0090  -17.1022 C   0  0  0  0  0  0  0  0  0  0  0  0
   24.1086  -17.1441  -15.7527 C   0  0  0  0  0  0  0  0  0  0  0  0
   24.0830  -18.0176  -16.6983 O   0  0  0  0  0  0  0  0  0  0  0  0
   19.7941  -18.7624  -14.8221 O   0  0  0  0  0  0  0  0  0  0  0  0
   20.9511  -18.1113  -14.3383 C   0  0  0  0  0  0  0  0  0  0  0  0
   21.6863  -17.5346  -15.5096 C   0  0  2  0  0  0  0  0  0  0  0  0
   22.8667  -16.7824  -15.1490 N   0  0  0  0  0  0  0  0  0  0  0  0
   20.7636  -16.6562  -16.3309 C   0  0  0  0  0  0  0  0  0  0  0  0
   19.9566  -17.1265  -17.3338 O   0  0  0  0  0  0  0  0  0  0  0  0
   20.7356  -15.4044  -16.0773 O   0  0  0  0  0  0  0  0  0  0  0  0
  2  4  1  0
  2  1  1  1
  3  2  1  0
  4  5  1  1
  4  6  1  0
  6  7  2  0
  8  6  1  0
  8  9  1  0
  9 10  1  6
 10 11  1  0
 11 12  2  0
 12 13  1  0
 14 13  1  0
 15 14  2  0
 16 15  1  0
 17 18  1  0
 17 16  2  0
 18 19  2  0
 19 11  1  0
 19 14  1  0
 20  9  1  0
 20 21  2  0
 22 23  1  0
 24 23  1  1
 24 25  1  0
 24 26  1  0
 25 20  1  0
 26 27  1  0
 28 26  2  0
M  END
$$$$
