TWS.pdb
     RDKit          3D

 28 29  0  0  1  0  0  0  0  0999 V2000
   24.0265  -20.8269  -20.3925 C   0  0  0  0  0  0  0  0  0  0  0  0
   23.7336  -21.2963  -18.9660 C   0  0  1  0  0  0  0  0  0  0  0  0
   24.9172  -21.6452  -18.3224 O   0  0  0  0  0  0  0  0  0  0  0  0
   23.0113  -20.1705  -18.2057 C   0  0  2  0  0  0  0  0  0  0  0  0
   23.8961  -19.0891  -18.1309 N   0  0  0  0  0  0  0  0  0  0  0  0
   22.5123  -20.6891  -16.9053 C   0  0  0  0  0  0  0  0  0  0  0  0
   22.4680  -21.9318  -16.8119 O   0  0  0  0  0  0  0  0  0  0  0  0
   22.1189  -19.8633  -15.8497 N   0  0  0  0  0  0  0  0  0  0  0  0
   21.5516  -20.1783  -14.5785 C   0  0  1  0  0  0  0  0  0  0  0  0
   21.9557  -19.3037  -13.4187 C   0  0  0  0  0  0  0  0  0  0  0  0
   23.0428  -19.8320  -12.5891 C   0  0  0  0  0  0  0  0  0  0  0  0
   24.3638  -20.1443  -12.8692 C   0  0  0  0  0  0  0  0  0  0  0  0
   24.9753  -20.6382  -11.7822 N   0  0  0  0  0  0  0  0  0  0  0  0
   24.0591  -20.6576  -10.7738 C   0  0  0  0  0  0  0  0  0  0  0  0
   24.1732  -21.0746   -9.4610 C   0  0  0  0  0  0  0  0  0  0  0  0
   23.1024  -21.0101   -8.5986 C   0  0  0  0  0  0  0  0  0  0  0  0
   21.8762  -20.5144   -9.0538 C   0  0  0  0  0  0  0  0  0  0  0  0
   21.7983  -20.1061  -10.3734 C   0  0  0  0  0  0  0  0  0  0  0  0
   22.8665  -20.1677  -11.2430 C   0  0  0  0  0  0  0  0  0  0  0  0
   20.1245  -20.4403  -14.6855 C   0  0  0  0  0  0  0  0  0  0  0  0
   19.4192  -19.5498  -15.2918 O   0  0  0  0  0  0  0  0  0  0  0  0
   17.9193  -23.7018  -13.1569 O   0  0  0  0  0  0  0  0  0  0  0  0
   17.5066  -23.1016  -14.3676 C   0  0  0  0  0  0  0  0  0  0  0  0
   18.0227  -21.6952  -14.3910 C   0  0  2  0  0  0  0  0  0  0  0  0
   19.4481  -21.5895  -14.1762 N   0  0  0  0  0  0  0  0  0  0  0  0
   17.2968  -20.8499  -13.3633 C   0  0  0  0  0  0  0  0  0  0  0  0
   15.9323  -20.7485  -13.2864 O   0  0  0  0  0  0  0  0  0  0  0  0
   17.9946  -20.1913  -12.5198 O   0  0  0  0  0  0  0  0  0  0  0  0
  2  4  1  0
  2  1  1  6
  3  2  1  0
  4  5  1  1
  4  6  1  0
  6  7  2  0
  8  6  1  0
  8  9  1  0
  9 10  1  1
 10 11  1  0
 11 12  2  0
 12 13  1  0
 14 13  1  0
 15 14  2  0
 16 15  1  0
 17 18  1  0
 17 16  2  0
 18 19  2  0
 19 11  1  0
 19 14  1  0
 20  9  1  0
 20 21  2  0
 22 23  1  0
 24 23  1  1
 24 25  1  0
 24 26  1  0
 25 20  1  0
 26 27  1  0
 28 26  2  0
M  END
$$$$
