TWS.pdb
     RDKit          3D

 28 29  0  0  1  0  0  0  0  0999 V2000
   19.4982  -11.2246  -20.3617 C   0  0  0  0  0  0  0  0  0  0  0  0
   19.5789  -12.6370  -19.7789 C   0  0  1  0  0  0  0  0  0  0  0  0
   19.8087  -13.5626  -20.7924 O   0  0  0  0  0  0  0  0  0  0  0  0
   20.7054  -12.6842  -18.7320 C   0  0  2  0  0  0  0  0  0  0  0  0
   20.9205  -14.0306  -18.4175 N   0  0  0  0  0  0  0  0  0  0  0  0
   20.3590  -11.8004  -17.5885 C   0  0  0  0  0  0  0  0  0  0  0  0
   19.2408  -12.0085  -17.0771 O   0  0  0  0  0  0  0  0  0  0  0  0
   21.2095  -10.8044  -17.1030 N   0  0  0  0  0  0  0  0  0  0  0  0
   21.0404   -9.8681  -16.0392 C   0  0  1  0  0  0  0  0  0  0  0  0
   22.2957   -9.3490  -15.3850 C   0  0  0  0  0  0  0  0  0  0  0  0
   22.0847   -8.3286  -14.3539 C   0  0  0  0  0  0  0  0  0  0  0  0
   21.5861   -8.3955  -13.0623 C   0  0  0  0  0  0  0  0  0  0  0  0
   21.5496   -7.1762  -12.5042 N   0  0  0  0  0  0  0  0  0  0  0  0
   22.0235   -6.2924  -13.4265 C   0  0  0  0  0  0  0  0  0  0  0  0
   22.1884   -4.9218  -13.3590 C   0  0  0  0  0  0  0  0  0  0  0  0
   22.6885   -4.2120  -14.4271 C   0  0  0  0  0  0  0  0  0  0  0  0
   23.0375   -4.8851  -15.6026 C   0  0  0  0  0  0  0  0  0  0  0  0
   22.8591   -6.2567  -15.6348 C   0  0  0  0  0  0  0  0  0  0  0  0
   22.3589   -6.9741  -14.5690 C   0  0  0  0  0  0  0  0  0  0  0  0
   20.0566   -8.8517  -16.3795 C   0  0  0  0  0  0  0  0  0  0  0  0
   20.1712   -8.3045  -17.5393 O   0  0  0  0  0  0  0  0  0  0  0  0
   16.4116   -8.9339  -16.6283 O   0  0  0  0  0  0  0  0  0  0  0  0
   16.6447   -7.7348  -15.9182 C   0  0  0  0  0  0  0  0  0  0  0  0
   18.0977   -7.3921  -16.0453 C   0  0  2  0  0  0  0  0  0  0  0  0
   18.9878   -8.4132  -15.5410 N   0  0  0  0  0  0  0  0  0  0  0  0
   18.3932   -6.0798  -15.3467 C   0  0  0  0  0  0  0  0  0  0  0  0
   17.7045   -4.9188  -15.5828 O   0  0  0  0  0  0  0  0  0  0  0  0
   19.3396   -6.0507  -14.4890 O   0  0  0  0  0  0  0  0  0  0  0  0
  2  4  1  0
  2  1  1  6
  3  2  1  0
  4  5  1  1
  4  6  1  0
  6  7  2  0
  8  6  1  0
  8  9  1  0
  9 10  1  6
 10 11  1  0
 11 12  2  0
 12 13  1  0
 14 13  1  0
 15 14  2  0
 16 15  1  0
 17 18  1  0
 17 16  2  0
 18 19  2  0
 19 11  1  0
 19 14  1  0
 20  9  1  0
 20 21  2  0
 22 23  1  0
 24 23  1  1
 24 25  1  0
 24 26  1  0
 25 20  1  0
 26 27  1  0
 28 26  2  0
M  END
$$$$
