TWS.pdb
     RDKit          3D

 28 29  0  0  1  0  0  0  0  0999 V2000
   27.7186  -22.5561  -18.3384 C   0  0  0  0  0  0  0  0  0  0  0  0
   26.7072  -22.4474  -17.1955 C   0  0  1  0  0  0  0  0  0  0  0  0
   25.5063  -23.0501  -17.5577 O   0  0  0  0  0  0  0  0  0  0  0  0
   27.2951  -23.1150  -15.9401 C   0  0  2  0  0  0  0  0  0  0  0  0
   27.5004  -24.4644  -16.2479 N   0  0  0  0  0  0  0  0  0  0  0  0
   26.4142  -22.8444  -14.7741 C   0  0  0  0  0  0  0  0  0  0  0  0
   25.8895  -23.8524  -14.2607 O   0  0  0  0  0  0  0  0  0  0  0  0
   26.1788  -21.5628  -14.2710 N   0  0  0  0  0  0  0  0  0  0  0  0
   25.4337  -21.1276  -13.1342 C   0  0  1  0  0  0  0  0  0  0  0  0
   26.0694  -20.0681  -12.2701 C   0  0  0  0  0  0  0  0  0  0  0  0
   27.2009  -20.5236  -11.4569 C   0  0  0  0  0  0  0  0  0  0  0  0
   28.4620  -20.9921  -11.7909 C   0  0  0  0  0  0  0  0  0  0  0  0
   29.1508  -21.3264  -10.6895 N   0  0  0  0  0  0  0  0  0  0  0  0
   28.3465  -21.0823   -9.6170 C   0  0  0  0  0  0  0  0  0  0  0  0
   28.5707  -21.2580   -8.2645 C   0  0  0  0  0  0  0  0  0  0  0  0
   27.6031  -20.9457   -7.3367 C   0  0  0  0  0  0  0  0  0  0  0  0
   26.3708  -20.4413   -7.7652 C   0  0  0  0  0  0  0  0  0  0  0  0
   26.1812  -20.2786   -9.1260 C   0  0  0  0  0  0  0  0  0  0  0  0
   27.1457  -20.5891  -10.0610 C   0  0  0  0  0  0  0  0  0  0  0  0
   24.0388  -20.8914  -13.4738 C   0  0  0  0  0  0  0  0  0  0  0  0
   23.8134  -20.1140  -14.4751 O   0  0  0  0  0  0  0  0  0  0  0  0
   20.4568  -22.2016  -11.5202 O   0  0  0  0  0  0  0  0  0  0  0  0
   20.5371  -22.1045  -12.9276 C   0  0  0  0  0  0  0  0  0  0  0  0
   21.5903  -21.0941  -13.2663 C   0  0  2  0  0  0  0  0  0  0  0  0
   22.9112  -21.4421  -12.7935 N   0  0  0  0  0  0  0  0  0  0  0  0
   21.2071  -19.7311  -12.7251 C   0  0  0  0  0  0  0  0  0  0  0  0
   20.0657  -19.0623  -13.0831 O   0  0  0  0  0  0  0  0  0  0  0  0
   21.9922  -19.1698  -11.8880 O   0  0  0  0  0  0  0  0  0  0  0  0
  2  4  1  0
  2  1  1  6
  3  2  1  0
  4  5  1  6
  4  6  1  0
  6  7  2  0
  8  6  1  0
  8  9  1  0
  9 10  1  6
 10 11  1  0
 11 12  2  0
 12 13  1  0
 14 13  1  0
 15 14  2  0
 16 15  1  0
 17 18  1  0
 17 16  2  0
 18 19  2  0
 19 11  1  0
 19 14  1  0
 20  9  1  0
 20 21  2  0
 22 23  1  0
 24 23  1  1
 24 25  1  0
 24 26  1  0
 25 20  1  0
 26 27  1  0
 28 26  2  0
M  END
$$$$
