TWS.pdb
     RDKit          3D

 28 29  0  0  1  0  0  0  0  0999 V2000
   21.9130  -25.0775  -20.5691 C   0  0  0  0  0  0  0  0  0  0  0  0
   23.1880  -25.5157  -21.2926 C   0  0  1  0  0  0  0  0  0  0  0  0
   23.3411  -24.7967  -22.4742 O   0  0  0  0  0  0  0  0  0  0  0  0
   24.3934  -25.2973  -20.3617 C   0  0  2  0  0  0  0  0  0  0  0  0
   25.5425  -25.6220  -21.0911 N   0  0  0  0  0  0  0  0  0  0  0  0
   24.1919  -26.0571  -19.1003 C   0  0  0  0  0  0  0  0  0  0  0  0
   24.4650  -27.2722  -19.1638 O   0  0  0  0  0  0  0  0  0  0  0  0
   23.7335  -25.4729  -17.9172 N   0  0  0  0  0  0  0  0  0  0  0  0
   23.5623  -26.0202  -16.6103 C   0  0  1  0  0  0  0  0  0  0  0  0
   24.6354  -25.7094  -15.5977 C   0  0  0  0  0  0  0  0  0  0  0  0
   25.9356  -26.3357  -15.8556 C   0  0  0  0  0  0  0  0  0  0  0  0
   26.3721  -27.6487  -15.7735 C   0  0  0  0  0  0  0  0  0  0  0  0
   27.6757  -27.7350  -16.0777 N   0  0  0  0  0  0  0  0  0  0  0  0
   28.1113  -26.4756  -16.3618 C   0  0  0  0  0  0  0  0  0  0  0  0
   29.3630  -26.0161  -16.7257 C   0  0  0  0  0  0  0  0  0  0  0  0
   29.5880  -24.6796  -16.9658 C   0  0  0  0  0  0  0  0  0  0  0  0
   28.5350  -23.7674  -16.8411 C   0  0  0  0  0  0  0  0  0  0  0  0
   27.2959  -24.2624  -16.4753 C   0  0  0  0  0  0  0  0  0  0  0  0
   27.0632  -25.5997  -16.2333 C   0  0  0  0  0  0  0  0  0  0  0  0
   22.1980  -25.8441  -16.1368 C   0  0  0  0  0  0  0  0  0  0  0  0
   21.7452  -24.6389  -16.1197 O   0  0  0  0  0  0  0  0  0  0  0  0
   17.8708  -27.2132  -14.5140 O   0  0  0  0  0  0  0  0  0  0  0  0
   19.1572  -27.6953  -14.8444 C   0  0  0  0  0  0  0  0  0  0  0  0
   20.0125  -26.5237  -15.2197 C   0  0  2  0  0  0  0  0  0  0  0  0
   21.3300  -26.8860  -15.6911 N   0  0  0  0  0  0  0  0  0  0  0  0
   20.1437  -25.5701  -14.0489 C   0  0  0  0  0  0  0  0  0  0  0  0
   21.1951  -25.5825  -13.1699 O   0  0  0  0  0  0  0  0  0  0  0  0
   19.2217  -24.7046  -13.8672 O   0  0  0  0  0  0  0  0  0  0  0  0
  2  4  1  0
  2  1  1  1
  3  2  1  0
  4  5  1  6
  4  6  1  0
  6  7  2  0
  8  6  1  0
  8  9  1  0
  9 10  1  1
 10 11  1  0
 11 12  2  0
 12 13  1  0
 14 13  1  0
 15 14  2  0
 16 15  1  0
 17 18  1  0
 17 16  2  0
 18 19  2  0
 19 11  1  0
 19 14  1  0
 20  9  1  0
 20 21  2  0
 22 23  1  0
 24 23  1  1
 24 25  1  0
 24 26  1  0
 25 20  1  0
 26 27  1  0
 28 26  2  0
M  END
$$$$
