TWS.pdb
     RDKit          3D

 28 29  0  0  1  0  0  0  0  0999 V2000
   13.3085  -21.4426    2.6239 C   0  0  0  0  0  0  0  0  0  0  0  0
   14.5416  -21.1242    3.4718 C   0  0  1  0  0  0  0  0  0  0  0  0
   15.3526  -22.2497    3.5820 O   0  0  0  0  0  0  0  0  0  0  0  0
   15.3102  -19.9602    2.8223 C   0  0  2  0  0  0  0  0  0  0  0  0
   15.7196  -20.3916    1.5558 N   0  0  0  0  0  0  0  0  0  0  0  0
   16.3942  -19.5099    3.7339 C   0  0  0  0  0  0  0  0  0  0  0  0
   17.5168  -20.0032    3.5071 O   0  0  0  0  0  0  0  0  0  0  0  0
   16.1938  -18.5992    4.7738 N   0  0  0  0  0  0  0  0  0  0  0  0
   17.1198  -17.9858    5.6700 C   0  0  1  0  0  0  0  0  0  0  0  0
   17.2437  -16.4849    5.5968 C   0  0  0  0  0  0  0  0  0  0  0  0
   17.7101  -15.9603    4.3098 C   0  0  0  0  0  0  0  0  0  0  0  0
   17.8454  -16.5412    3.0586 C   0  0  0  0  0  0  0  0  0  0  0  0
   18.3532  -15.6633    2.1805 N   0  0  0  0  0  0  0  0  0  0  0  0
   18.5594  -14.4935    2.8480 C   0  0  0  0  0  0  0  0  0  0  0  0
   19.0664  -13.2843    2.4108 C   0  0  0  0  0  0  0  0  0  0  0  0
   19.1953  -12.2153    3.2683 C   0  0  0  0  0  0  0  0  0  0  0  0
   18.8076  -12.3502    4.6055 C   0  0  0  0  0  0  0  0  0  0  0  0
   18.3046  -13.5746    5.0082 C   0  0  0  0  0  0  0  0  0  0  0  0
   18.1725  -14.6496    4.1551 C   0  0  0  0  0  0  0  0  0  0  0  0
   16.9958  -18.5296    7.0138 C   0  0  0  0  0  0  0  0  0  0  0  0
   15.8290  -18.9496    7.3599 O   0  0  0  0  0  0  0  0  0  0  0  0
   18.4378  -20.5789   11.0529 O   0  0  0  0  0  0  0  0  0  0  0  0
   18.9082  -19.9083    9.9016 C   0  0  0  0  0  0  0  0  0  0  0  0
   17.7475  -19.2100    9.2613 C   0  0  2  0  0  0  0  0  0  0  0  0
   18.0494  -18.6317    7.9714 N   0  0  0  0  0  0  0  0  0  0  0  0
   17.2084  -18.1318   10.1802 C   0  0  0  0  0  0  0  0  0  0  0  0
   16.6118  -18.3875   11.3872 O   0  0  0  0  0  0  0  0  0  0  0  0
   17.3132  -16.9135    9.8103 O   0  0  0  0  0  0  0  0  0  0  0  0
  2  4  1  0
  2  1  1  6
  3  2  1  0
  4  5  1  6
  4  6  1  0
  6  7  2  0
  8  6  1  0
  8  9  1  0
  9 10  1  1
 10 11  1  0
 11 12  2  0
 12 13  1  0
 14 13  1  0
 15 14  2  0
 16 15  1  0
 17 18  1  0
 17 16  2  0
 18 19  2  0
 19 11  1  0
 19 14  1  0
 20  9  1  0
 20 21  2  0
 22 23  1  0
 24 23  1  1
 24 25  1  0
 24 26  1  0
 25 20  1  0
 26 27  1  0
 28 26  2  0
M  END
$$$$
