LRY.pdb
     RDKit          3D

 32 32  0  0  1  0  0  0  0  0999 V2000
   27.3147  -18.8094   -6.2632 C   0  0  0  0  0  0  0  0  0  0  0  0
   27.8422  -20.1424   -6.7898 C   0  0  2  0  0  0  0  0  0  0  0  0
   29.2553  -20.2678   -6.2761 C   0  0  0  0  0  0  0  0  0  0  0  0
   27.7415  -20.1962   -8.2961 C   0  0  0  0  0  0  0  0  0  0  0  0
   26.2947  -20.0966   -8.6723 C   0  0  2  0  0  0  0  0  0  0  0  0
   25.4929  -21.0167   -7.8956 N   0  0  0  0  0  0  0  0  0  0  0  0
   26.0361  -20.2865  -10.0980 C   0  0  0  0  0  0  0  0  0  0  0  0
   26.5206  -19.4826  -10.9294 O   0  0  0  0  0  0  0  0  0  0  0  0
   25.5494  -25.4987  -16.1077 N   0  0  0  0  0  0  0  0  0  0  0  0
   25.4803  -24.2539  -16.7988 C   0  0  0  0  0  0  0  0  0  0  0  0
   25.0578  -24.2235  -18.0053 N   0  0  0  0  0  0  0  0  0  0  0  0
   25.8804  -23.0681  -16.1400 N   0  0  0  0  0  0  0  0  0  0  0  0
   26.0265  -22.9962  -14.6919 C   0  0  0  0  0  0  0  0  0  0  0  0
   24.6970  -23.0541  -14.0087 C   0  0  0  0  0  0  0  0  0  0  0  0
   24.7244  -22.8794  -12.5253 C   0  0  0  0  0  0  0  0  0  0  0  0
   24.9265  -21.5066  -12.0146 C   0  0  2  0  0  0  0  0  0  0  0  0
   25.2467  -21.3552  -10.6338 N   0  0  0  0  0  0  0  0  0  0  0  0
   23.6022  -20.7901  -12.1951 C   0  0  0  0  0  0  0  0  0  0  0  0
   22.7066  -20.8187  -11.3187 O   0  0  0  0  0  0  0  0  0  0  0  0
   25.0226  -23.3939  -18.6244 O   0  0  0  0  0  0  0  0  0  0  0  0
   17.5404  -15.1122  -15.0881 C   0  0  0  0  0  0  0  0  0  0  0  0
   18.6743  -15.7918  -14.6997 C   0  0  0  0  0  0  0  0  0  0  0  0
   19.0124  -16.0152  -13.3817 C   0  0  0  0  0  0  0  0  0  0  0  0
   20.1684  -16.7064  -13.0791 C   0  0  0  0  0  0  0  0  0  0  0  0
   21.0282  -17.1998  -14.0499 C   0  0  0  0  0  0  0  0  0  0  0  0
   22.2699  -17.9365  -13.7183 C   0  0  1  0  0  0  0  0  0  0  0  0
   22.0329  -19.4197  -13.5617 N   0  0  0  0  0  0  0  0  0  0  0  0
   23.3379  -20.0561  -13.3809 C   0  0  0  0  0  0  0  0  0  0  0  0
   21.3605  -20.0303  -14.7200 O   0  0  0  0  0  0  0  0  0  0  0  0
   20.1154  -20.1815  -14.7972 C   0  0  0  0  0  0  0  0  0  0  0  0
   20.6842  -16.9733  -15.3587 C   0  0  0  0  0  0  0  0  0  0  0  0
   19.5375  -16.2872  -15.6840 O   0  0  0  0  0  0  0  0  0  0  0  0
  2  1  1  6
  2  3  1  0
  4  5  1  0
  4  2  1  0
  5  6  1  1
  7  8  2  0
  7  5  1  0
  9 10  1  0
 10 12  1  0
 10 11  2  0
 12 13  1  0
 13 14  1  0
 14 15  1  0
 16 15  1  1
 16 18  1  0
 16 17  1  0
 17  7  1  0
 18 27  1  0
 19 18  2  0
 21 20  1  0
 22 21  2  0
 23 22  1  0
 24 30  1  0
 24 23  2  0
 25 24  1  0
 26 25  1  1
 27 26  1  0
 28 26  1  0
 29 28  2  0
 30 31  2  0
 31 21  1  0
 32 28  1  0
M  END
$$$$
