LRY.pdb
     RDKit          3D

 32 32  0  0  1  0  0  0  0  0999 V2000
   26.7362  -22.2113  -10.2400 C   0  0  0  0  0  0  0  0  0  0  0  0
   26.2163  -20.7989   -9.9809 C   0  0  2  0  0  0  0  0  0  0  0  0
   25.7534  -20.7782   -8.5450 C   0  0  0  0  0  0  0  0  0  0  0  0
   25.1309  -20.4424  -10.9692 C   0  0  0  0  0  0  0  0  0  0  0  0
   25.7274  -20.4529  -12.3435 C   0  0  2  0  0  0  0  0  0  0  0  0
   26.9085  -19.6195  -12.4021 N   0  0  0  0  0  0  0  0  0  0  0  0
   24.7928  -20.0730  -13.4008 C   0  0  0  0  0  0  0  0  0  0  0  0
   24.3356  -18.9060  -13.4354 O   0  0  0  0  0  0  0  0  0  0  0  0
   22.0115  -19.3336  -20.4076 N   0  0  0  0  0  0  0  0  0  0  0  0
   23.2008  -20.0551  -20.7192 C   0  0  0  0  0  0  0  0  0  0  0  0
   24.0203  -19.5816  -21.5790 N   0  0  0  0  0  0  0  0  0  0  0  0
   23.4585  -21.2861  -20.0724 N   0  0  0  0  0  0  0  0  0  0  0  0
   22.5757  -21.8228  -19.0447 C   0  0  0  0  0  0  0  0  0  0  0  0
   22.5710  -20.9552  -17.8261 C   0  0  0  0  0  0  0  0  0  0  0  0
   23.4899  -21.3791  -16.7273 C   0  0  0  0  0  0  0  0  0  0  0  0
   23.4426  -20.5970  -15.4733 C   0  0  2  0  0  0  0  0  0  0  0  0
   24.3461  -20.9609  -14.4325 N   0  0  0  0  0  0  0  0  0  0  0  0
   22.0593  -20.8158  -14.8916 C   0  0  0  0  0  0  0  0  0  0  0  0
   21.7588  -21.8601  -14.2672 O   0  0  0  0  0  0  0  0  0  0  0  0
   24.9052  -20.0193  -21.8920 O   0  0  0  0  0  0  0  0  0  0  0  0
   19.2387  -14.7964  -18.0798 C   0  0  0  0  0  0  0  0  0  0  0  0
   19.2903  -15.7269  -17.0649 C   0  0  0  0  0  0  0  0  0  0  0  0
   20.3830  -15.8922  -16.2402 C   0  0  0  0  0  0  0  0  0  0  0  0
   20.3518  -16.8494  -15.2461 C   0  0  0  0  0  0  0  0  0  0  0  0
   19.2571  -17.6729  -15.0260 C   0  0  0  0  0  0  0  0  0  0  0  0
   19.2321  -18.7017  -13.9604 C   0  0  1  0  0  0  0  0  0  0  0  0
   19.7336  -20.0415  -14.4442 N   0  0  0  0  0  0  0  0  0  0  0  0
   21.0520  -19.8271  -15.0415 C   0  0  0  0  0  0  0  0  0  0  0  0
   18.8536  -20.6699  -15.4429 O   0  0  0  0  0  0  0  0  0  0  0  0
   17.6784  -21.0393  -15.1952 C   0  0  0  0  0  0  0  0  0  0  0  0
   18.1741  -17.5018  -15.8509 C   0  0  0  0  0  0  0  0  0  0  0  0
   18.1824  -16.5545  -16.8480 O   0  0  0  0  0  0  0  0  0  0  0  0
  2  1  1  6
  2  3  1  0
  4  5  1  0
  4  2  1  0
  5  6  1  1
  7  8  2  0
  7  5  1  0
  9 10  1  0
 10 12  1  0
 10 11  2  0
 12 13  1  0
 13 14  1  0
 14 15  1  0
 16 15  1  6
 16 18  1  0
 16 17  1  0
 17  7  1  0
 18 27  1  0
 19 18  2  0
 21 20  1  0
 22 21  2  0
 23 22  1  0
 24 30  1  0
 24 23  2  0
 25 24  1  0
 26 25  1  1
 27 26  1  0
 28 26  1  0
 29 28  2  0
 30 31  2  0
 31 21  1  0
 32 28  1  0
M  END
$$$$
