LRY.pdb
     RDKit          3D

 32 32  0  0  1  0  0  0  0  0999 V2000
   11.6247   -6.0561   -8.4254 C   0  0  0  0  0  0  0  0  0  0  0  0
   12.2454   -7.0339   -7.4299 C   0  0  2  0  0  0  0  0  0  0  0  0
   12.6535   -6.2120   -6.2322 C   0  0  0  0  0  0  0  0  0  0  0  0
   13.3925   -7.7833   -8.0658 C   0  0  0  0  0  0  0  0  0  0  0  0
   12.8622   -8.5353   -9.2482 C   0  0  2  0  0  0  0  0  0  0  0  0
   12.2637   -9.7874   -8.8398 N   0  0  0  0  0  0  0  0  0  0  0  0
   13.8528   -8.7714  -10.2963 C   0  0  0  0  0  0  0  0  0  0  0  0
   14.7356   -9.6463  -10.1305 O   0  0  0  0  0  0  0  0  0  0  0  0
   14.0032  -11.6270  -16.3445 N   0  0  0  0  0  0  0  0  0  0  0  0
   12.6273  -11.3445  -16.5873 C   0  0  0  0  0  0  0  0  0  0  0  0
   11.8500  -12.2801  -16.9819 N   0  0  0  0  0  0  0  0  0  0  0  0
   12.1398  -10.0319  -16.3883 N   0  0  0  0  0  0  0  0  0  0  0  0
   12.9988   -8.9452  -15.9359 C   0  0  0  0  0  0  0  0  0  0  0  0
   13.5224   -9.2045  -14.5588 C   0  0  0  0  0  0  0  0  0  0  0  0
   14.3698   -8.1218  -13.9748 C   0  0  0  0  0  0  0  0  0  0  0  0
   14.8296   -8.3067  -12.5817 C   0  0  2  0  0  0  0  0  0  0  0  0
   13.8922   -8.0566  -11.5373 N   0  0  0  0  0  0  0  0  0  0  0  0
   15.9408   -7.2974  -12.3668 C   0  0  0  0  0  0  0  0  0  0  0  0
   15.8974   -6.4476  -11.4466 O   0  0  0  0  0  0  0  0  0  0  0  0
   10.8313  -12.2033  -17.1520 O   0  0  0  0  0  0  0  0  0  0  0  0
   23.7466   -5.4978   -9.5596 C   0  0  0  0  0  0  0  0  0  0  0  0
   22.5671   -5.9858  -10.0785 C   0  0  0  0  0  0  0  0  0  0  0  0
   22.5007   -6.7606  -11.2172 C   0  0  0  0  0  0  0  0  0  0  0  0
   21.2762   -7.2092  -11.6697 C   0  0  0  0  0  0  0  0  0  0  0  0
   20.0815   -6.9167  -11.0274 C   0  0  0  0  0  0  0  0  0  0  0  0
   18.7700   -7.3972  -11.5211 C   0  0  1  0  0  0  0  0  0  0  0  0
   18.3174   -6.6595  -12.7588 N   0  0  0  0  0  0  0  0  0  0  0  0
   17.0781   -7.2888  -13.2161 C   0  0  0  0  0  0  0  0  0  0  0  0
   19.3017   -6.6931  -13.8528 O   0  0  0  0  0  0  0  0  0  0  0  0
   19.3946   -7.6419  -14.6714 C   0  0  0  0  0  0  0  0  0  0  0  0
   20.1565   -6.1454   -9.8952 C   0  0  0  0  0  0  0  0  0  0  0  0
   21.3654   -5.6873   -9.4257 O   0  0  0  0  0  0  0  0  0  0  0  0
  2  1  1  6
  2  3  1  0
  4  5  1  0
  4  2  1  0
  5  6  1  1
  7  8  2  0
  7  5  1  0
  9 10  1  0
 10 12  1  0
 10 11  2  0
 12 13  1  0
 13 14  1  0
 14 15  1  0
 16 15  1  6
 16 18  1  0
 16 17  1  0
 17  7  1  0
 18 27  1  0
 19 18  2  0
 21 20  1  0
 22 21  2  0
 23 22  1  0
 24 30  1  0
 24 23  2  0
 25 24  1  0
 26 25  1  1
 27 26  1  0
 28 26  1  0
 29 28  2  0
 30 31  2  0
 31 21  1  0
 32 28  1  0
M  END
$$$$
