LRY.pdb
     RDKit          3D

 32 32  0  0  1  0  0  0  0  0999 V2000
   29.6603  -16.2438  -19.6684 C   0  0  0  0  0  0  0  0  0  0  0  0
   28.8548  -16.6829  -20.8895 C   0  0  2  0  0  0  0  0  0  0  0  0
   27.9017  -15.5533  -21.1926 C   0  0  0  0  0  0  0  0  0  0  0  0
   28.1640  -17.9999  -20.6249 C   0  0  0  0  0  0  0  0  0  0  0  0
   29.2111  -19.0205  -20.2985 C   0  0  2  0  0  0  0  0  0  0  0  0
   30.0436  -19.2950  -21.4494 N   0  0  0  0  0  0  0  0  0  0  0  0
   28.6774  -20.2684  -19.7568 C   0  0  0  0  0  0  0  0  0  0  0  0
   27.6813  -20.8044  -20.2980 O   0  0  0  0  0  0  0  0  0  0  0  0
   33.1512  -26.7526  -16.4482 N   0  0  0  0  0  0  0  0  0  0  0  0
   33.5457  -25.5736  -17.1456 C   0  0  0  0  0  0  0  0  0  0  0  0
   34.5996  -25.5903  -17.8696 N   0  0  0  0  0  0  0  0  0  0  0  0
   32.7652  -24.4001  -17.0273 N   0  0  0  0  0  0  0  0  0  0  0  0
   31.3806  -24.4312  -16.5742 C   0  0  0  0  0  0  0  0  0  0  0  0
   30.4661  -23.8079  -17.5806 C   0  0  0  0  0  0  0  0  0  0  0  0
   29.4635  -22.8448  -17.0340 C   0  0  0  0  0  0  0  0  0  0  0  0
   28.6443  -22.1000  -18.0140 C   0  0  2  0  0  0  0  0  0  0  0  0
   29.2234  -20.9465  -18.6190 N   0  0  0  0  0  0  0  0  0  0  0  0
   27.4391  -21.5846  -17.2513 C   0  0  0  0  0  0  0  0  0  0  0  0
   27.5547  -20.8247  -16.2614 O   0  0  0  0  0  0  0  0  0  0  0  0
   34.9648  -24.8091  -18.4431 O   0  0  0  0  0  0  0  0  0  0  0  0
   19.1663  -19.3996  -15.2224 C   0  0  0  0  0  0  0  0  0  0  0  0
   20.3999  -19.6414  -15.7865 C   0  0  0  0  0  0  0  0  0  0  0  0
   21.4943  -18.8236  -15.6003 C   0  0  0  0  0  0  0  0  0  0  0  0
   22.6954  -19.1394  -16.2029 C   0  0  0  0  0  0  0  0  0  0  0  0
   22.8659  -20.2594  -17.0040 C   0  0  0  0  0  0  0  0  0  0  0  0
   24.1564  -20.5898  -17.6520 C   0  0  1  0  0  0  0  0  0  0  0  0
   24.9840  -21.5473  -16.8279 N   0  0  0  0  0  0  0  0  0  0  0  0
   26.1268  -21.9553  -17.6453 C   0  0  0  0  0  0  0  0  0  0  0  0
   24.2440  -22.7487  -16.4084 O   0  0  0  0  0  0  0  0  0  0  0  0
   24.2010  -23.8066  -17.0851 C   0  0  0  0  0  0  0  0  0  0  0  0
   21.7720  -21.0678  -17.1840 C   0  0  0  0  0  0  0  0  0  0  0  0
   20.5653  -20.7732  -16.5935 O   0  0  0  0  0  0  0  0  0  0  0  0
  2  1  1  1
  2  3  1  0
  4  5  1  0
  4  2  1  0
  5  6  1  6
  7  8  2  0
  7  5  1  0
  9 10  1  0
 10 12  1  0
 10 11  2  0
 12 13  1  0
 13 14  1  0
 14 15  1  0
 16 15  1  1
 16 18  1  0
 16 17  1  0
 17  7  1  0
 18 27  1  0
 19 18  2  0
 21 20  1  0
 22 21  2  0
 23 22  1  0
 24 30  1  0
 24 23  2  0
 25 24  1  0
 26 25  1  1
 27 26  1  0
 28 26  1  0
 29 28  2  0
 30 31  2  0
 31 21  1  0
 32 28  1  0
M  END
$$$$
