LRY.pdb
     RDKit          3D

 32 32  0  0  1  0  0  0  0  0999 V2000
   28.6038  -16.1005  -15.5628 C   0  0  0  0  0  0  0  0  0  0  0  0
   27.2638  -16.6107  -16.0887 C   0  0  2  0  0  0  0  0  0  0  0  0
   26.6157  -15.4430  -16.7909 C   0  0  0  0  0  0  0  0  0  0  0  0
   26.4304  -17.1743  -14.9619 C   0  0  0  0  0  0  0  0  0  0  0  0
   27.1957  -18.2967  -14.3299 C   0  0  2  0  0  0  0  0  0  0  0  0
   27.8097  -19.1360  -15.3357 N   0  0  0  0  0  0  0  0  0  0  0  0
   26.4051  -19.1125  -13.4107 C   0  0  0  0  0  0  0  0  0  0  0  0
   25.5900  -18.5600  -12.6344 O   0  0  0  0  0  0  0  0  0  0  0  0
   23.3649  -25.4784  -15.8930 N   0  0  0  0  0  0  0  0  0  0  0  0
   22.9853  -25.5313  -14.5201 C   0  0  0  0  0  0  0  0  0  0  0  0
   22.7617  -26.6635  -13.9694 N   0  0  0  0  0  0  0  0  0  0  0  0
   22.8609  -24.3296  -13.7848 N   0  0  0  0  0  0  0  0  0  0  0  0
   23.4261  -23.0708  -14.2534 C   0  0  0  0  0  0  0  0  0  0  0  0
   24.9208  -23.0934  -14.1992 C   0  0  0  0  0  0  0  0  0  0  0  0
   25.5243  -22.7813  -12.8688 C   0  0  0  0  0  0  0  0  0  0  0  0
   25.6557  -21.3530  -12.5097 C   0  0  2  0  0  0  0  0  0  0  0  0
   26.4938  -20.5400  -13.3274 N   0  0  0  0  0  0  0  0  0  0  0  0
   26.2929  -21.3209  -11.1340 C   0  0  0  0  0  0  0  0  0  0  0  0
   27.5134  -21.5481  -10.9617 O   0  0  0  0  0  0  0  0  0  0  0  0
   22.5220  -26.8277  -12.9753 O   0  0  0  0  0  0  0  0  0  0  0  0
   29.4532  -19.5175   -3.4264 C   0  0  0  0  0  0  0  0  0  0  0  0
   28.8779  -19.5961   -4.6760 C   0  0  0  0  0  0  0  0  0  0  0  0
   27.9380  -18.6992   -5.1378 C   0  0  0  0  0  0  0  0  0  0  0  0
   27.4113  -18.8509   -6.4047 C   0  0  0  0  0  0  0  0  0  0  0  0
   27.7838  -19.8795   -7.2582 C   0  0  0  0  0  0  0  0  0  0  0  0
   27.2109  -20.0396   -8.6149 C   0  0  1  0  0  0  0  0  0  0  0  0
   26.1238  -21.0868   -8.6591 N   0  0  0  0  0  0  0  0  0  0  0  0
   25.5108  -21.0275   -9.9863 C   0  0  0  0  0  0  0  0  0  0  0  0
   25.0788  -20.8886   -7.6414 O   0  0  0  0  0  0  0  0  0  0  0  0
   23.9933  -20.2983   -7.8698 C   0  0  0  0  0  0  0  0  0  0  0  0
   28.7196  -20.7674   -6.7909 C   0  0  0  0  0  0  0  0  0  0  0  0
   29.2583  -20.6361   -5.5323 O   0  0  0  0  0  0  0  0  0  0  0  0
  2  1  1  1
  2  3  1  0
  4  5  1  0
  4  2  1  0
  5  6  1  6
  7  8  2  0
  7  5  1  0
  9 10  1  0
 10 12  1  0
 10 11  2  0
 12 13  1  0
 13 14  1  0
 14 15  1  0
 16 15  1  6
 16 18  1  0
 16 17  1  0
 17  7  1  0
 18 27  1  0
 19 18  2  0
 21 20  1  0
 22 21  2  0
 23 22  1  0
 24 30  1  0
 24 23  2  0
 25 24  1  0
 26 25  1  6
 27 26  1  0
 28 26  1  0
 29 28  2  0
 30 31  2  0
 31 21  1  0
 32 28  1  0
M  END
$$$$
