LRY.pdb
     RDKit          3D

 32 32  0  0  1  0  0  0  0  0999 V2000
   26.8347  -27.4857  -24.1851 C   0  0  0  0  0  0  0  0  0  0  0  0
   27.4246  -28.8944  -24.1757 C   0  0  2  0  0  0  0  0  0  0  0  0
   27.0861  -29.5008  -25.5152 C   0  0  0  0  0  0  0  0  0  0  0  0
   26.8924  -29.6856  -23.0041 C   0  0  0  0  0  0  0  0  0  0  0  0
   27.2924  -28.9817  -21.7435 C   0  0  2  0  0  0  0  0  0  0  0  0
   28.7198  -29.0764  -21.5279 N   0  0  0  0  0  0  0  0  0  0  0  0
   26.5746  -29.4364  -20.5545 C   0  0  0  0  0  0  0  0  0  0  0  0
   25.7486  -30.3750  -20.6492 O   0  0  0  0  0  0  0  0  0  0  0  0
   29.9604  -31.2266  -18.6361 N   0  0  0  0  0  0  0  0  0  0  0  0
   30.4347  -31.7212  -17.3862 C   0  0  0  0  0  0  0  0  0  0  0  0
   31.5642  -32.3183  -17.3303 N   0  0  0  0  0  0  0  0  0  0  0  0
   29.6489  -31.5449  -16.2236 N   0  0  0  0  0  0  0  0  0  0  0  0
   28.2612  -31.1044  -16.2842 C   0  0  0  0  0  0  0  0  0  0  0  0
   28.1680  -29.6478  -16.6119 C   0  0  0  0  0  0  0  0  0  0  0  0
   26.7842  -29.1093  -16.7756 C   0  0  0  0  0  0  0  0  0  0  0  0
   26.1144  -29.3613  -18.0694 C   0  0  2  0  0  0  0  0  0  0  0  0
   26.7492  -28.8734  -19.2489 N   0  0  0  0  0  0  0  0  0  0  0  0
   24.7853  -28.6339  -18.0051 C   0  0  0  0  0  0  0  0  0  0  0  0
   24.6558  -27.4508  -18.3981 O   0  0  0  0  0  0  0  0  0  0  0  0
   31.9616  -32.8077  -16.5087 O   0  0  0  0  0  0  0  0  0  0  0  0
   16.8723  -25.9947  -19.6156 C   0  0  0  0  0  0  0  0  0  0  0  0
   18.1453  -26.4864  -19.4253 C   0  0  0  0  0  0  0  0  0  0  0  0
   19.1537  -25.7697  -18.8164 C   0  0  0  0  0  0  0  0  0  0  0  0
   20.4026  -26.3382  -18.6653 C   0  0  0  0  0  0  0  0  0  0  0  0
   20.7059  -27.6196  -19.1023 C   0  0  0  0  0  0  0  0  0  0  0  0
   22.0498  -28.2219  -18.9416 C   0  0  1  0  0  0  0  0  0  0  0  0
   22.3440  -28.5945  -17.5079 N   0  0  0  0  0  0  0  0  0  0  0  0
   23.6339  -29.2848  -17.4898 C   0  0  0  0  0  0  0  0  0  0  0  0
   21.3245  -29.4721  -16.9104 O   0  0  0  0  0  0  0  0  0  0  0  0
   21.2265  -30.6973  -17.1719 C   0  0  0  0  0  0  0  0  0  0  0  0
   19.6968  -28.3258  -19.7070 C   0  0  0  0  0  0  0  0  0  0  0  0
   18.4448  -27.7800  -19.8684 O   0  0  0  0  0  0  0  0  0  0  0  0
  2  1  1  6
  2  3  1  0
  4  5  1  0
  4  2  1  0
  5  6  1  1
  7  8  2  0
  7  5  1  0
  9 10  1  0
 10 12  1  0
 10 11  2  0
 12 13  1  0
 13 14  1  0
 14 15  1  0
 16 15  1  1
 16 18  1  0
 16 17  1  0
 17  7  1  0
 18 27  1  0
 19 18  2  0
 21 20  1  0
 22 21  2  0
 23 22  1  0
 24 30  1  0
 24 23  2  0
 25 24  1  0
 26 25  1  1
 27 26  1  0
 28 26  1  0
 29 28  2  0
 30 31  2  0
 31 21  1  0
 32 28  1  0
M  END
$$$$
