LRY.pdb
     RDKit          3D

 32 32  0  0  1  0  0  0  0  0999 V2000
   29.7929  -25.2480  -16.5135 C   0  0  0  0  0  0  0  0  0  0  0  0
   29.2677  -24.2964  -17.5865 C   0  0  2  0  0  0  0  0  0  0  0  0
   30.4838  -23.7151  -18.2645 C   0  0  0  0  0  0  0  0  0  0  0  0
   28.3623  -23.2534  -16.9747 C   0  0  0  0  0  0  0  0  0  0  0  0
   27.1589  -23.9485  -16.4148 C   0  0  2  0  0  0  0  0  0  0  0  0
   26.8647  -25.1543  -17.1579 N   0  0  0  0  0  0  0  0  0  0  0  0
   25.9680  -23.1053  -16.3354 C   0  0  0  0  0  0  0  0  0  0  0  0
   26.0279  -22.0001  -15.7462 O   0  0  0  0  0  0  0  0  0  0  0  0
   23.2946  -19.1796  -19.9069 N   0  0  0  0  0  0  0  0  0  0  0  0
   22.0456  -18.5818  -19.5683 C   0  0  0  0  0  0  0  0  0  0  0  0
   21.6823  -17.5034  -20.1517 N   0  0  0  0  0  0  0  0  0  0  0  0
   21.2243  -19.1901  -18.5908 N   0  0  0  0  0  0  0  0  0  0  0  0
   21.7590  -20.0956  -17.5820 C   0  0  0  0  0  0  0  0  0  0  0  0
   21.5749  -21.5248  -17.9833 C   0  0  0  0  0  0  0  0  0  0  0  0
   22.8264  -22.3342  -18.0847 C   0  0  0  0  0  0  0  0  0  0  0  0
   23.5300  -22.6437  -16.8217 C   0  0  2  0  0  0  0  0  0  0  0  0
   24.6981  -23.4572  -16.8976 N   0  0  0  0  0  0  0  0  0  0  0  0
   22.5507  -23.4347  -15.9762 C   0  0  0  0  0  0  0  0  0  0  0  0
   22.6666  -24.6711  -15.8072 O   0  0  0  0  0  0  0  0  0  0  0  0
   20.8084  -16.9750  -19.9797 O   0  0  0  0  0  0  0  0  0  0  0  0
   18.3283  -26.4890   -9.2244 C   0  0  0  0  0  0  0  0  0  0  0  0
   19.0628  -25.8050  -10.1684 C   0  0  0  0  0  0  0  0  0  0  0  0
   19.1491  -24.4296  -10.2139 C   0  0  0  0  0  0  0  0  0  0  0  0
   19.9082  -23.8233  -11.1946 C   0  0  0  0  0  0  0  0  0  0  0  0
   20.6046  -24.5377  -12.1589 C   0  0  0  0  0  0  0  0  0  0  0  0
   21.4135  -23.8806  -13.2118 C   0  0  1  0  0  0  0  0  0  0  0  0
   20.5958  -23.5396  -14.4348 N   0  0  0  0  0  0  0  0  0  0  0  0
   21.4590  -22.7846  -15.3434 C   0  0  0  0  0  0  0  0  0  0  0  0
   19.4002  -22.7354  -14.1337 O   0  0  0  0  0  0  0  0  0  0  0  0
   19.3916  -21.4789  -14.1400 C   0  0  0  0  0  0  0  0  0  0  0  0
   20.5134  -25.9057  -12.1063 C   0  0  0  0  0  0  0  0  0  0  0  0
   19.7632  -26.5316  -11.1383 O   0  0  0  0  0  0  0  0  0  0  0  0
  2  1  1  1
  2  3  1  0
  4  5  1  0
  4  2  1  0
  5  6  1  6
  7  8  2  0
  7  5  1  0
  9 10  1  0
 10 12  1  0
 10 11  2  0
 12 13  1  0
 13 14  1  0
 14 15  1  0
 16 15  1  6
 16 18  1  0
 16 17  1  0
 17  7  1  0
 18 27  1  0
 19 18  2  0
 21 20  1  0
 22 21  2  0
 23 22  1  0
 24 30  1  0
 24 23  2  0
 25 24  1  0
 26 25  1  6
 27 26  1  0
 28 26  1  0
 29 28  2  0
 30 31  2  0
 31 21  1  0
 32 28  1  0
M  END
$$$$
