LRY.pdb
     RDKit          3D

 32 32  0  0  1  0  0  0  0  0999 V2000
   28.5539  -19.2379  -12.9611 C   0  0  0  0  0  0  0  0  0  0  0  0
   28.2307  -18.5447  -14.2831 C   0  0  2  0  0  0  0  0  0  0  0  0
   28.3249  -17.0629  -14.0147 C   0  0  0  0  0  0  0  0  0  0  0  0
   26.8775  -18.9798  -14.7944 C   0  0  0  0  0  0  0  0  0  0  0  0
   26.9094  -20.4637  -14.9986 C   0  0  2  0  0  0  0  0  0  0  0  0
   27.7951  -20.8182  -16.0860 N   0  0  0  0  0  0  0  0  0  0  0  0
   25.5935  -21.0639  -15.2078 C   0  0  0  0  0  0  0  0  0  0  0  0
   24.9805  -20.8571  -16.2819 O   0  0  0  0  0  0  0  0  0  0  0  0
   20.1010  -26.9969  -14.2488 N   0  0  0  0  0  0  0  0  0  0  0  0
   21.3394  -27.3324  -14.8699 C   0  0  0  0  0  0  0  0  0  0  0  0
   21.6093  -28.5570  -15.1206 N   0  0  0  0  0  0  0  0  0  0  0  0
   22.2537  -26.3054  -15.2007 N   0  0  0  0  0  0  0  0  0  0  0  0
   21.8516  -24.9077  -15.2911 C   0  0  0  0  0  0  0  0  0  0  0  0
   21.9211  -24.2355  -13.9565 C   0  0  0  0  0  0  0  0  0  0  0  0
   23.2286  -23.5949  -13.6226 C   0  0  0  0  0  0  0  0  0  0  0  0
   23.5999  -22.3871  -14.3904 C   0  0  2  0  0  0  0  0  0  0  0  0
   24.9308  -21.8965  -14.2486 N   0  0  0  0  0  0  0  0  0  0  0  0
   22.7097  -21.2713  -13.8781 C   0  0  0  0  0  0  0  0  0  0  0  0
   22.4487  -21.1361  -12.6598 O   0  0  0  0  0  0  0  0  0  0  0  0
   22.4508  -28.9146  -15.6070 O   0  0  0  0  0  0  0  0  0  0  0  0
   23.6369  -16.1649  -18.8885 C   0  0  0  0  0  0  0  0  0  0  0  0
   22.8031  -17.0056  -18.1838 C   0  0  0  0  0  0  0  0  0  0  0  0
   22.1691  -16.6424  -17.0145 C   0  0  0  0  0  0  0  0  0  0  0  0
   21.3490  -17.5471  -16.3707 C   0  0  0  0  0  0  0  0  0  0  0  0
   21.1225  -18.8308  -16.8461 C   0  0  0  0  0  0  0  0  0  0  0  0
   20.2451  -19.7987  -16.1477 C   0  0  2  0  0  0  0  0  0  0  0  0
   20.7012  -20.0706  -14.7339 N   0  0  0  0  0  0  0  0  0  0  0  0
   22.1394  -20.3353  -14.7800 C   0  0  0  0  0  0  0  0  0  0  0  0
   20.0240  -21.2198  -14.1115 O   0  0  0  0  0  0  0  0  0  0  0  0
   20.6274  -22.2508  -13.7216 C   0  0  0  0  0  0  0  0  0  0  0  0
   21.7570  -19.1841  -18.0102 C   0  0  0  0  0  0  0  0  0  0  0  0
   22.5786  -18.2993  -18.6689 O   0  0  0  0  0  0  0  0  0  0  0  0
  2  1  1  1
  2  3  1  0
  4  5  1  0
  4  2  1  0
  5  6  1  6
  7  8  2  0
  7  5  1  0
  9 10  1  0
 10 12  1  0
 10 11  2  0
 12 13  1  0
 13 14  1  0
 14 15  1  0
 16 15  1  1
 16 18  1  0
 16 17  1  0
 17  7  1  0
 18 27  1  0
 19 18  2  0
 21 20  1  0
 22 21  2  0
 23 22  1  0
 24 30  1  0
 24 23  2  0
 25 24  1  0
 26 25  1  1
 27 26  1  0
 28 26  1  0
 29 28  2  0
 30 31  2  0
 31 21  1  0
 32 28  1  0
M  END
$$$$
