WWC.pdb
     RDKit          3D

 35 38  0  0  1  0  0  0  0  0999 V2000
   10.2274  -19.0946   21.0896 N   0  0  0  0  0  0  0  0  0  0  0  0
    9.7455  -17.8186   21.5007 C   0  0  1  0  0  0  0  0  0  0  0  0
    8.2808  -17.5798   21.2937 C   0  0  0  0  0  0  0  0  0  0  0  0
    7.9634  -16.3769   20.5027 C   0  0  0  0  0  0  0  0  0  0  0  0
    7.6378  -16.3687   19.1515 C   0  0  0  0  0  0  0  0  0  0  0  0
    7.4045  -15.1145   18.7979 N   0  0  0  0  0  0  0  0  0  0  0  0
    7.5560  -14.2778   19.8405 C   0  0  0  0  0  0  0  0  0  0  0  0
    7.4208  -12.9059   19.9368 C   0  0  0  0  0  0  0  0  0  0  0  0
    7.6523  -12.3282   21.1642 C   0  0  0  0  0  0  0  0  0  0  0  0
    8.0098  -13.0939   22.2705 C   0  0  0  0  0  0  0  0  0  0  0  0
    8.1336  -14.4510   22.1345 C   0  0  0  0  0  0  0  0  0  0  0  0
    7.9111  -15.0649   20.9298 C   0  0  0  0  0  0  0  0  0  0  0  0
    9.9994  -17.6055   22.9673 C   0  0  0  0  0  0  0  0  0  0  0  0
   10.4771  -18.5309   23.6651 O   0  0  0  0  0  0  0  0  0  0  0  0
    9.7012  -16.3724   23.5526 N   0  0  0  0  0  0  0  0  0  0  0  0
   10.2453  -16.0637   24.8850 C   0  0  1  0  0  0  0  0  0  0  0  0
    9.8588  -14.6419   25.1363 C   0  0  0  0  0  0  0  0  0  0  0  0
    8.4572  -14.5031   25.5462 C   0  0  0  0  0  0  0  0  0  0  0  0
    7.5054  -15.5134   25.5922 C   0  0  0  0  0  0  0  0  0  0  0  0
    6.3377  -14.9835   25.9833 N   0  0  0  0  0  0  0  0  0  0  0  0
    6.4941  -13.6566   26.1964 C   0  0  0  0  0  0  0  0  0  0  0  0
    5.6216  -12.6751   26.6167 C   0  0  0  0  0  0  0  0  0  0  0  0
    6.0290  -11.3687   26.7815 C   0  0  0  0  0  0  0  0  0  0  0  0
    7.3380  -11.0198   26.5237 C   0  0  0  0  0  0  0  0  0  0  0  0
    8.1896  -12.0117   26.1059 C   0  0  0  0  0  0  0  0  0  0  0  0
    7.8209  -13.3339   25.9273 C   0  0  0  0  0  0  0  0  0  0  0  0
    9.7733  -17.0437   25.8596 C   0  0  0  0  0  0  0  0  0  0  0  0
    9.0311  -16.6698   26.8076 O   0  0  0  0  0  0  0  0  0  0  0  0
   10.1234  -18.3997   25.7723 N   0  0  0  0  0  0  0  0  0  0  0  0
   10.0028  -19.2915   26.9001 C   0  0  1  0  0  0  0  0  0  0  0  0
    9.8787  -20.7381   26.4632 C   0  0  0  0  0  0  0  0  0  0  0  0
    8.5262  -20.8045   25.2250 S   0  0  0  0  0  0  0  0  0  0  0  0
   11.1619  -19.1927   27.8152 C   0  0  0  0  0  0  0  0  0  0  0  0
   12.2599  -18.3927   27.5636 O   0  0  0  0  0  0  0  0  0  0  0  0
   11.1436  -19.8715   28.8725 O   0  0  0  0  0  0  0  0  0  0  0  0
  2  1  1  1
  3  2  1  0
  4  5  2  0
  4  3  1  0
  6  5  1  0
  7 12  2  0
  7  6  1  0
  8  7  1  0
  9 10  1  0
  9  8  2  0
 10 11  2  0
 11 12  1  0
 12  4  1  0
 13  2  1  0
 14 13  2  0
 15 13  1  0
 16 27  1  0
 16 15  1  0
 16 17  1  1
 18 17  1  0
 19 18  2  0
 20 19  1  0
 21 20  1  0
 21 26  2  0
 22 21  1  0
 23 22  2  0
 23 24  1  0
 24 25  2  0
 25 26  1  0
 26 18  1  0
 27 29  1  0
 28 27  2  0
 29 30  1  0
 30 33  1  0
 30 31  1  6
 31 32  1  0
 33 35  2  0
 33 34  1  0
M  END
$$$$
