WWC.pdb
     RDKit          3D

 35 38  0  0  1  0  0  0  0  0999 V2000
    7.1645  -20.9234   20.6930 N   0  0  0  0  0  0  0  0  0  0  0  0
    6.8611  -19.8643   21.5960 C   0  0  1  0  0  0  0  0  0  0  0  0
    6.3793  -20.2841   22.9514 C   0  0  0  0  0  0  0  0  0  0  0  0
    4.9809  -20.7495   22.9858 C   0  0  0  0  0  0  0  0  0  0  0  0
    4.5320  -21.8928   23.6364 C   0  0  0  0  0  0  0  0  0  0  0  0
    3.2227  -21.9735   23.4584 N   0  0  0  0  0  0  0  0  0  0  0  0
    2.7665  -20.9440   22.7220 C   0  0  0  0  0  0  0  0  0  0  0  0
    1.4932  -20.6244   22.2905 C   0  0  0  0  0  0  0  0  0  0  0  0
    1.3454  -19.4854   21.5324 C   0  0  0  0  0  0  0  0  0  0  0  0
    2.4357  -18.6822   21.2099 C   0  0  0  0  0  0  0  0  0  0  0  0
    3.6819  -19.0328   21.6566 C   0  0  0  0  0  0  0  0  0  0  0  0
    3.8714  -20.1587   22.4144 C   0  0  0  0  0  0  0  0  0  0  0  0
    8.0739  -19.0074   21.8318 C   0  0  0  0  0  0  0  0  0  0  0  0
    9.1656  -19.2972   21.2880 O   0  0  0  0  0  0  0  0  0  0  0  0
    7.9825  -17.8858   22.6598 N   0  0  0  0  0  0  0  0  0  0  0  0
    9.1091  -16.9397   22.7083 C   0  0  1  0  0  0  0  0  0  0  0  0
    8.5104  -15.6554   23.1837 C   0  0  0  0  0  0  0  0  0  0  0  0
    7.6711  -15.0142   22.1657 C   0  0  0  0  0  0  0  0  0  0  0  0
    6.2979  -15.1582   22.0158 C   0  0  0  0  0  0  0  0  0  0  0  0
    5.9063  -14.4417   20.9525 N   0  0  0  0  0  0  0  0  0  0  0  0
    6.9800  -13.8312   20.4005 C   0  0  0  0  0  0  0  0  0  0  0  0
    7.1124  -12.9842   19.3205 C   0  0  0  0  0  0  0  0  0  0  0  0
    8.3356  -12.4637   18.9564 C   0  0  0  0  0  0  0  0  0  0  0  0
    9.4634  -12.7887   19.6804 C   0  0  0  0  0  0  0  0  0  0  0  0
    9.3095  -13.6336   20.7510 C   0  0  0  0  0  0  0  0  0  0  0  0
    8.1008  -14.1782   21.1491 C   0  0  0  0  0  0  0  0  0  0  0  0
   10.1912  -17.4885   23.5213 C   0  0  0  0  0  0  0  0  0  0  0  0
    9.9151  -18.1898   24.5319 O   0  0  0  0  0  0  0  0  0  0  0  0
   11.5395  -17.2574   23.2094 N   0  0  0  0  0  0  0  0  0  0  0  0
   12.6104  -17.8445   23.9778 C   0  0  1  0  0  0  0  0  0  0  0  0
   13.9161  -17.8549   23.2072 C   0  0  0  0  0  0  0  0  0  0  0  0
   13.5401  -18.5083   21.5343 S   0  0  0  0  0  0  0  0  0  0  0  0
   12.8418  -17.1260   25.2510 C   0  0  0  0  0  0  0  0  0  0  0  0
   13.7617  -17.5367   26.1963 O   0  0  0  0  0  0  0  0  0  0  0  0
   12.1663  -16.0916   25.4805 O   0  0  0  0  0  0  0  0  0  0  0  0
  2  1  1  6
  3  2  1  0
  4  5  2  0
  4  3  1  0
  6  5  1  0
  7 12  2  0
  7  6  1  0
  8  7  1  0
  9 10  1  0
  9  8  2  0
 10 11  2  0
 11 12  1  0
 12  4  1  0
 13  2  1  0
 14 13  2  0
 15 13  1  0
 16 27  1  0
 16 15  1  0
 16 17  1  1
 18 17  1  0
 19 18  2  0
 20 19  1  0
 21 20  1  0
 21 26  2  0
 22 21  1  0
 23 22  2  0
 23 24  1  0
 24 25  2  0
 25 26  1  0
 26 18  1  0
 27 29  1  0
 28 27  2  0
 29 30  1  0
 30 33  1  0
 30 31  1  6
 31 32  1  0
 33 35  2  0
 33 34  1  0
M  END
$$$$
