WWC.pdb
     RDKit          3D

 35 38  0  0  1  0  0  0  0  0999 V2000
   11.9951  -17.1972   19.9631 N   0  0  0  0  0  0  0  0  0  0  0  0
   10.7412  -16.5802   20.2397 C   0  0  1  0  0  0  0  0  0  0  0  0
    9.5390  -17.2665   19.6660 C   0  0  0  0  0  0  0  0  0  0  0  0
    8.3717  -16.3886   19.4657 C   0  0  0  0  0  0  0  0  0  0  0  0
    7.1114  -16.8106   19.0590 C   0  0  0  0  0  0  0  0  0  0  0  0
    6.3249  -15.7471   19.0054 N   0  0  0  0  0  0  0  0  0  0  0  0
    6.9899  -14.6309   19.3550 C   0  0  0  0  0  0  0  0  0  0  0  0
    6.5811  -13.3136   19.4387 C   0  0  0  0  0  0  0  0  0  0  0  0
    7.5150  -12.3810   19.8286 C   0  0  0  0  0  0  0  0  0  0  0  0
    8.8242  -12.7470   20.1285 C   0  0  0  0  0  0  0  0  0  0  0  0
    9.1906  -14.0632   20.0337 C   0  0  0  0  0  0  0  0  0  0  0  0
    8.2907  -15.0226   19.6497 C   0  0  0  0  0  0  0  0  0  0  0  0
   10.5075  -16.5004   21.7228 C   0  0  0  0  0  0  0  0  0  0  0  0
   11.3480  -16.9796   22.5199 O   0  0  0  0  0  0  0  0  0  0  0  0
    9.3497  -15.8905   22.2124 N   0  0  0  0  0  0  0  0  0  0  0  0
    9.1633  -15.7760   23.6680 C   0  0  1  0  0  0  0  0  0  0  0  0
    7.7581  -15.2956   23.8373 C   0  0  0  0  0  0  0  0  0  0  0  0
    7.4345  -14.9813   25.2332 C   0  0  0  0  0  0  0  0  0  0  0  0
    7.0576  -15.8850   26.2181 C   0  0  0  0  0  0  0  0  0  0  0  0
    6.8142  -15.2079   27.3493 N   0  0  0  0  0  0  0  0  0  0  0  0
    7.0206  -13.8878   27.1373 C   0  0  0  0  0  0  0  0  0  0  0  0
    6.9261  -12.7891   27.9653 C   0  0  0  0  0  0  0  0  0  0  0  0
    7.2123  -11.5184   27.5147 C   0  0  0  0  0  0  0  0  0  0  0  0
    7.6039  -11.3254   26.2065 C   0  0  0  0  0  0  0  0  0  0  0  0
    7.6908  -12.4321   25.3994 C   0  0  0  0  0  0  0  0  0  0  0  0
    7.4119  -13.7237   25.8119 C   0  0  0  0  0  0  0  0  0  0  0  0
    9.4968  -17.0406   24.3181 C   0  0  0  0  0  0  0  0  0  0  0  0
    9.2656  -18.1265   23.7208 O   0  0  0  0  0  0  0  0  0  0  0  0
   10.0716  -17.0844   25.5973 N   0  0  0  0  0  0  0  0  0  0  0  0
   10.5051  -18.3237   26.1956 C   0  0  1  0  0  0  0  0  0  0  0  0
   11.6757  -18.9309   25.4473 C   0  0  0  0  0  0  0  0  0  0  0  0
   13.2013  -18.2460   26.2024 S   0  0  0  0  0  0  0  0  0  0  0  0
   10.9122  -18.1486   27.6078 C   0  0  0  0  0  0  0  0  0  0  0  0
   11.3792  -19.1830   28.3955 O   0  0  0  0  0  0  0  0  0  0  0  0
   10.8276  -17.0009   28.1124 O   0  0  0  0  0  0  0  0  0  0  0  0
  2  1  1  1
  3  2  1  0
  4  5  2  0
  4  3  1  0
  6  5  1  0
  7 12  2  0
  7  6  1  0
  8  7  1  0
  9 10  1  0
  9  8  2  0
 10 11  2  0
 11 12  1  0
 12  4  1  0
 13  2  1  0
 14 13  2  0
 15 13  1  0
 16 27  1  0
 16 15  1  0
 16 17  1  6
 18 17  1  0
 19 18  2  0
 20 19  1  0
 21 20  1  0
 21 26  2  0
 22 21  1  0
 23 22  2  0
 23 24  1  0
 24 25  2  0
 25 26  1  0
 26 18  1  0
 27 29  1  0
 28 27  2  0
 29 30  1  0
 30 33  1  0
 30 31  1  6
 31 32  1  0
 33 35  2  0
 33 34  1  0
M  END
$$$$
