WWC.pdb
     RDKit          3D

 35 38  0  0  1  0  0  0  0  0999 V2000
    7.3418  -19.5965   27.4299 N   0  0  0  0  0  0  0  0  0  0  0  0
    8.0342  -18.5092   26.8234 C   0  0  1  0  0  0  0  0  0  0  0  0
    9.5232  -18.5126   26.9911 C   0  0  0  0  0  0  0  0  0  0  0  0
   10.0220  -17.6064   28.0415 C   0  0  0  0  0  0  0  0  0  0  0  0
   10.3402  -17.9833   29.3410 C   0  0  0  0  0  0  0  0  0  0  0  0
   10.7655  -16.9067   29.9832 N   0  0  0  0  0  0  0  0  0  0  0  0
   10.7504  -15.8245   29.1838 C   0  0  0  0  0  0  0  0  0  0  0  0
   11.0989  -14.5087   29.4226 C   0  0  0  0  0  0  0  0  0  0  0  0
   10.9649  -13.6163   28.3836 C   0  0  0  0  0  0  0  0  0  0  0  0
   10.4959  -14.0201   27.1365 C   0  0  0  0  0  0  0  0  0  0  0  0
   10.1609  -15.3333   26.9395 C   0  0  0  0  0  0  0  0  0  0  0  0
   10.2804  -16.2533   27.9480 C   0  0  0  0  0  0  0  0  0  0  0  0
    7.7817  -18.4831   25.3414 C   0  0  0  0  0  0  0  0  0  0  0  0
    7.8624  -19.5384   24.6697 O   0  0  0  0  0  0  0  0  0  0  0  0
    7.4568  -17.2785   24.7126 N   0  0  0  0  0  0  0  0  0  0  0  0
    7.4188  -17.2276   23.2420 C   0  0  1  0  0  0  0  0  0  0  0  0
    6.3737  -16.2085   22.9210 C   0  0  0  0  0  0  0  0  0  0  0  0
    6.8469  -14.8344   23.1202 C   0  0  0  0  0  0  0  0  0  0  0  0
    7.5683  -14.0687   22.2134 C   0  0  0  0  0  0  0  0  0  0  0  0
    7.8420  -12.8834   22.7768 N   0  0  0  0  0  0  0  0  0  0  0  0
    7.3216  -12.8472   24.0251 C   0  0  0  0  0  0  0  0  0  0  0  0
    7.3104  -11.8698   24.9977 C   0  0  0  0  0  0  0  0  0  0  0  0
    6.6847  -12.0646   26.2103 C   0  0  0  0  0  0  0  0  0  0  0  0
    6.0503  -13.2608   26.4715 C   0  0  0  0  0  0  0  0  0  0  0  0
    6.0740  -14.2202   25.4903 C   0  0  0  0  0  0  0  0  0  0  0  0
    6.6909  -14.0652   24.2609 C   0  0  0  0  0  0  0  0  0  0  0  0
    8.7560  -16.9708   22.7136 C   0  0  0  0  0  0  0  0  0  0  0  0
    8.8852  -16.5001   21.5512 O   0  0  0  0  0  0  0  0  0  0  0  0
    9.9105  -17.2339   23.4663 N   0  0  0  0  0  0  0  0  0  0  0  0
   11.2326  -16.9822   22.9461 C   0  0  1  0  0  0  0  0  0  0  0  0
   11.5781  -15.5061   22.9769 C   0  0  0  0  0  0  0  0  0  0  0  0
   11.0965  -14.8141   21.3472 S   0  0  0  0  0  0  0  0  0  0  0  0
   12.2770  -17.7075   23.7035 C   0  0  0  0  0  0  0  0  0  0  0  0
   13.6264  -17.5986   23.4277 O   0  0  0  0  0  0  0  0  0  0  0  0
   11.9153  -18.4591   24.6433 O   0  0  0  0  0  0  0  0  0  0  0  0
  2  1  1  6
  3  2  1  0
  4  5  2  0
  4  3  1  0
  6  5  1  0
  7 12  2  0
  7  6  1  0
  8  7  1  0
  9 10  1  0
  9  8  2  0
 10 11  2  0
 11 12  1  0
 12  4  1  0
 13  2  1  0
 14 13  2  0
 15 13  1  0
 16 27  1  0
 16 15  1  0
 16 17  1  1
 18 17  1  0
 19 18  2  0
 20 19  1  0
 21 20  1  0
 21 26  2  0
 22 21  1  0
 23 22  2  0
 23 24  1  0
 24 25  2  0
 25 26  1  0
 26 18  1  0
 27 29  1  0
 28 27  2  0
 29 30  1  0
 30 33  1  0
 30 31  1  1
 31 32  1  0
 33 35  2  0
 33 34  1  0
M  END
$$$$
