WWC.pdb
     RDKit          3D

 35 38  0  0  1  0  0  0  0  0999 V2000
    8.6762  -17.8095   22.5818 N   0  0  0  0  0  0  0  0  0  0  0  0
    8.8202  -16.3923   22.5832 C   0  0  1  0  0  0  0  0  0  0  0  0
    7.5659  -15.6116   22.3334 C   0  0  0  0  0  0  0  0  0  0  0  0
    7.3441  -15.2463   20.9225 C   0  0  0  0  0  0  0  0  0  0  0  0
    6.5967  -15.9833   20.0113 C   0  0  0  0  0  0  0  0  0  0  0  0
    6.6125  -15.3368   18.8563 N   0  0  0  0  0  0  0  0  0  0  0  0
    7.3316  -14.2028   18.9421 C   0  0  0  0  0  0  0  0  0  0  0  0
    7.6201  -13.2318   18.0021 C   0  0  0  0  0  0  0  0  0  0  0  0
    8.4023  -12.1722   18.4012 C   0  0  0  0  0  0  0  0  0  0  0  0
    8.8870  -12.0782   19.7028 C   0  0  0  0  0  0  0  0  0  0  0  0
    8.5788  -13.0610   20.6054 C   0  0  0  0  0  0  0  0  0  0  0  0
    7.8025  -14.1321   20.2481 C   0  0  0  0  0  0  0  0  0  0  0  0
    9.3505  -15.9166   23.9073 C   0  0  0  0  0  0  0  0  0  0  0  0
    9.7770  -14.7443   24.0309 O   0  0  0  0  0  0  0  0  0  0  0  0
    9.3677  -16.7848   25.0019 N   0  0  0  0  0  0  0  0  0  0  0  0
    9.9926  -16.3389   26.2578 C   0  0  1  0  0  0  0  0  0  0  0  0
    8.8646  -16.2434   27.2338 C   0  0  0  0  0  0  0  0  0  0  0  0
    7.7483  -15.4377   26.7274 C   0  0  0  0  0  0  0  0  0  0  0  0
    6.5572  -15.9161   26.1971 C   0  0  0  0  0  0  0  0  0  0  0  0
    5.8089  -14.8714   25.8150 N   0  0  0  0  0  0  0  0  0  0  0  0
    6.4720  -13.7220   26.0791 C   0  0  0  0  0  0  0  0  0  0  0  0
    6.1399  -12.3962   25.8961 C   0  0  0  0  0  0  0  0  0  0  0  0
    6.9921  -11.3798   26.2710 C   0  0  0  0  0  0  0  0  0  0  0  0
    8.2097  -11.6806   26.8442 C   0  0  0  0  0  0  0  0  0  0  0  0
    8.5207  -13.0063   27.0166 C   0  0  0  0  0  0  0  0  0  0  0  0
    7.6946  -14.0561   26.6537 C   0  0  0  0  0  0  0  0  0  0  0  0
   11.0869  -17.2356   26.6204 C   0  0  0  0  0  0  0  0  0  0  0  0
   11.7701  -16.9969   27.6527 O   0  0  0  0  0  0  0  0  0  0  0  0
   11.4037  -18.3638   25.8487 N   0  0  0  0  0  0  0  0  0  0  0  0
   12.4429  -19.2857   26.2384 C   0  0  1  0  0  0  0  0  0  0  0  0
   11.9127  -20.6974   26.3970 C   0  0  0  0  0  0  0  0  0  0  0  0
   10.5280  -20.6125   27.5979 S   0  0  0  0  0  0  0  0  0  0  0  0
   13.5497  -19.3254   25.2565 C   0  0  0  0  0  0  0  0  0  0  0  0
   14.6295  -20.1803   25.3662 O   0  0  0  0  0  0  0  0  0  0  0  0
   13.5021  -18.5414   24.2757 O   0  0  0  0  0  0  0  0  0  0  0  0
  2  1  1  1
  3  2  1  0
  4  5  2  0
  4  3  1  0
  6  5  1  0
  7 12  2  0
  7  6  1  0
  8  7  1  0
  9 10  1  0
  9  8  2  0
 10 11  2  0
 11 12  1  0
 12  4  1  0
 13  2  1  0
 14 13  2  0
 15 13  1  0
 16 27  1  0
 16 15  1  0
 16 17  1  1
 18 17  1  0
 19 18  2  0
 20 19  1  0
 21 20  1  0
 21 26  2  0
 22 21  1  0
 23 22  2  0
 23 24  1  0
 24 25  2  0
 25 26  1  0
 26 18  1  0
 27 29  1  0
 28 27  2  0
 29 30  1  0
 30 33  1  0
 30 31  1  6
 31 32  1  0
 33 35  2  0
 33 34  1  0
M  END
$$$$
