WWC.pdb
     RDKit          3D

 35 38  0  0  1  0  0  0  0  0999 V2000
    8.7092  -17.4986   21.8760 N   0  0  0  0  0  0  0  0  0  0  0  0
    8.9556  -16.1700   22.3272 C   0  0  1  0  0  0  0  0  0  0  0  0
    7.7523  -15.2819   22.4202 C   0  0  0  0  0  0  0  0  0  0  0  0
    7.3129  -14.7114   21.1338 C   0  0  0  0  0  0  0  0  0  0  0  0
    6.1778  -15.0982   20.4310 C   0  0  0  0  0  0  0  0  0  0  0  0
    6.1052  -14.3561   19.3372 N   0  0  0  0  0  0  0  0  0  0  0  0
    7.1321  -13.4896   19.2668 C   0  0  0  0  0  0  0  0  0  0  0  0
    7.4616  -12.5402   18.3183 C   0  0  0  0  0  0  0  0  0  0  0  0
    8.6009  -11.7979   18.5300 C   0  0  0  0  0  0  0  0  0  0  0  0
    9.3950  -11.9932   19.6567 C   0  0  0  0  0  0  0  0  0  0  0  0
    9.0346  -12.9441   20.5740 C   0  0  0  0  0  0  0  0  0  0  0  0
    7.9074  -13.7037   20.4005 C   0  0  0  0  0  0  0  0  0  0  0  0
    9.5707  -16.1836   23.6991 C   0  0  0  0  0  0  0  0  0  0  0  0
   10.4325  -15.3287   24.0118 O   0  0  0  0  0  0  0  0  0  0  0  0
    9.1800  -17.1526   24.6267 N   0  0  0  0  0  0  0  0  0  0  0  0
    9.7947  -17.1504   25.9642 C   0  0  1  0  0  0  0  0  0  0  0  0
    8.6419  -17.1313   26.9153 C   0  0  0  0  0  0  0  0  0  0  0  0
    7.7190  -16.0202   26.6595 C   0  0  0  0  0  0  0  0  0  0  0  0
    6.4512  -16.1107   26.0995 C   0  0  0  0  0  0  0  0  0  0  0  0
    5.9392  -14.8758   25.9983 N   0  0  0  0  0  0  0  0  0  0  0  0
    6.8314  -13.9778   26.4756 C   0  0  0  0  0  0  0  0  0  0  0  0
    6.7865  -12.6061   26.6089 C   0  0  0  0  0  0  0  0  0  0  0  0
    7.8359  -11.8986   27.1547 C   0  0  0  0  0  0  0  0  0  0  0  0
    8.9649  -12.5651   27.5823 C   0  0  0  0  0  0  0  0  0  0  0  0
    8.9893  -13.9299   27.4398 C   0  0  0  0  0  0  0  0  0  0  0  0
    7.9583  -14.6773   26.8970 C   0  0  0  0  0  0  0  0  0  0  0  0
   10.7207  -18.2725   26.0932 C   0  0  0  0  0  0  0  0  0  0  0  0
   10.3965  -19.4017   25.6355 O   0  0  0  0  0  0  0  0  0  0  0  0
   11.9701  -18.1312   26.7157 N   0  0  0  0  0  0  0  0  0  0  0  0
   12.8228  -19.2651   26.9783 C   0  0  1  0  0  0  0  0  0  0  0  0
   14.2894  -18.9162   26.8158 C   0  0  0  0  0  0  0  0  0  0  0  0
   15.2454  -20.4122   27.2792 S   0  0  0  0  0  0  0  0  0  0  0  0
   12.6335  -19.8001   28.3453 C   0  0  0  0  0  0  0  0  0  0  0  0
   13.1726  -20.9987   28.7712 O   0  0  0  0  0  0  0  0  0  0  0  0
   11.9477  -19.1285   29.1563 O   0  0  0  0  0  0  0  0  0  0  0  0
  2  1  1  1
  3  2  1  0
  4  5  2  0
  4  3  1  0
  6  5  1  0
  7 12  2  0
  7  6  1  0
  8  7  1  0
  9 10  1  0
  9  8  2  0
 10 11  2  0
 11 12  1  0
 12  4  1  0
 13  2  1  0
 14 13  2  0
 15 13  1  0
 16 27  1  0
 16 15  1  0
 16 17  1  1
 18 17  1  0
 19 18  2  0
 20 19  1  0
 21 20  1  0
 21 26  2  0
 22 21  1  0
 23 22  2  0
 23 24  1  0
 24 25  2  0
 25 26  1  0
 26 18  1  0
 27 29  1  0
 28 27  2  0
 29 30  1  0
 30 33  1  0
 30 31  1  1
 31 32  1  0
 33 35  2  0
 33 34  1  0
M  END
$$$$
