WWC.pdb
     RDKit          3D

 35 38  0  0  1  0  0  0  0  0999 V2000
   11.1775  -15.7521   21.5958 N   0  0  0  0  0  0  0  0  0  0  0  0
    9.8898  -15.8161   22.2017 C   0  0  1  0  0  0  0  0  0  0  0  0
    8.8677  -16.6324   21.4706 C   0  0  0  0  0  0  0  0  0  0  0  0
    8.0836  -15.8803   20.4743 C   0  0  0  0  0  0  0  0  0  0  0  0
    7.0831  -16.4153   19.6713 C   0  0  0  0  0  0  0  0  0  0  0  0
    6.6007  -15.4386   18.9191 N   0  0  0  0  0  0  0  0  0  0  0  0
    7.2242  -14.2738   19.1736 C   0  0  0  0  0  0  0  0  0  0  0  0
    7.0570  -13.0125   18.6346 C   0  0  0  0  0  0  0  0  0  0  0  0
    7.8668  -12.0056   19.1080 C   0  0  0  0  0  0  0  0  0  0  0  0
    8.8206  -12.2447   20.0935 C   0  0  0  0  0  0  0  0  0  0  0  0
    8.9557  -13.5088   20.6027 C   0  0  0  0  0  0  0  0  0  0  0  0
    8.1684  -14.5387   20.1587 C   0  0  0  0  0  0  0  0  0  0  0  0
    9.9840  -16.4050   23.5819 C   0  0  0  0  0  0  0  0  0  0  0  0
   11.1049  -16.6109   24.1039 O   0  0  0  0  0  0  0  0  0  0  0  0
    8.8183  -16.7234   24.2830 N   0  0  0  0  0  0  0  0  0  0  0  0
    8.9136  -17.0588   25.7131 C   0  0  1  0  0  0  0  0  0  0  0  0
    7.5368  -16.8372   26.2509 C   0  0  0  0  0  0  0  0  0  0  0  0
    7.0891  -15.4487   26.0980 C   0  0  0  0  0  0  0  0  0  0  0  0
    6.0725  -14.9945   25.2677 C   0  0  0  0  0  0  0  0  0  0  0  0
    5.9892  -13.6615   25.3834 N   0  0  0  0  0  0  0  0  0  0  0  0
    6.9191  -13.2269   26.2647 C   0  0  0  0  0  0  0  0  0  0  0  0
    7.2318  -11.9707   26.7399 C   0  0  0  0  0  0  0  0  0  0  0  0
    8.2302  -11.7783   27.6703 C   0  0  0  0  0  0  0  0  0  0  0  0
    8.9425  -12.8587   28.1470 C   0  0  0  0  0  0  0  0  0  0  0  0
    8.6158  -14.0997   27.6604 C   0  0  0  0  0  0  0  0  0  0  0  0
    7.6219  -14.3359   26.7263 C   0  0  0  0  0  0  0  0  0  0  0  0
    9.4638  -18.4016   25.8785 C   0  0  0  0  0  0  0  0  0  0  0  0
    8.9811  -19.3574   25.2129 O   0  0  0  0  0  0  0  0  0  0  0  0
   10.5218  -18.6625   26.7624 N   0  0  0  0  0  0  0  0  0  0  0  0
   11.4992  -19.6904   26.4980 C   0  0  1  0  0  0  0  0  0  0  0  0
   12.2605  -19.4263   25.2136 C   0  0  0  0  0  0  0  0  0  0  0  0
   13.4882  -20.7784   25.0366 S   0  0  0  0  0  0  0  0  0  0  0  0
   12.4874  -19.8147   27.5928 C   0  0  0  0  0  0  0  0  0  0  0  0
   13.4641  -20.7914   27.6246 O   0  0  0  0  0  0  0  0  0  0  0  0
   12.4328  -18.9895   28.5388 O   0  0  0  0  0  0  0  0  0  0  0  0
  2  1  1  6
  3  2  1  0
  4  5  2  0
  4  3  1  0
  6  5  1  0
  7 12  2  0
  7  6  1  0
  8  7  1  0
  9 10  1  0
  9  8  2  0
 10 11  2  0
 11 12  1  0
 12  4  1  0
 13  2  1  0
 14 13  2  0
 15 13  1  0
 16 27  1  0
 16 15  1  0
 16 17  1  6
 18 17  1  0
 19 18  2  0
 20 19  1  0
 21 20  1  0
 21 26  2  0
 22 21  1  0
 23 22  2  0
 23 24  1  0
 24 25  2  0
 25 26  1  0
 26 18  1  0
 27 29  1  0
 28 27  2  0
 29 30  1  0
 30 33  1  0
 30 31  1  6
 31 32  1  0
 33 35  2  0
 33 34  1  0
M  END
$$$$
