WWC.pdb
     RDKit          3D

 35 38  0  0  1  0  0  0  0  0999 V2000
    8.5998  -16.8607   21.7335 N   0  0  0  0  0  0  0  0  0  0  0  0
    9.3231  -15.7420   22.2382 C   0  0  1  0  0  0  0  0  0  0  0  0
    8.6737  -14.4060   22.0412 C   0  0  0  0  0  0  0  0  0  0  0  0
    8.1166  -14.1900   20.6935 C   0  0  0  0  0  0  0  0  0  0  0  0
    6.7791  -14.3379   20.3456 C   0  0  0  0  0  0  0  0  0  0  0  0
    6.6594  -14.0458   19.0600 N   0  0  0  0  0  0  0  0  0  0  0  0
    7.8467  -13.7087   18.5241 C   0  0  0  0  0  0  0  0  0  0  0  0
    8.1959  -13.3392   17.2392 C   0  0  0  0  0  0  0  0  0  0  0  0
    9.5203  -13.0547   16.9966 C   0  0  0  0  0  0  0  0  0  0  0  0
   10.4762  -13.1352   18.0056 C   0  0  0  0  0  0  0  0  0  0  0  0
   10.0902  -13.5051   19.2664 C   0  0  0  0  0  0  0  0  0  0  0  0
    8.7814  -13.7960   19.5493 C   0  0  0  0  0  0  0  0  0  0  0  0
    9.5476  -15.8822   23.7182 C   0  0  0  0  0  0  0  0  0  0  0  0
   10.2046  -15.0150   24.3409 O   0  0  0  0  0  0  0  0  0  0  0  0
    9.0223  -16.9828   24.4000 N   0  0  0  0  0  0  0  0  0  0  0  0
    9.3058  -17.1355   25.8363 C   0  0  1  0  0  0  0  0  0  0  0  0
    7.9634  -17.1359   26.4936 C   0  0  0  0  0  0  0  0  0  0  0  0
    7.2239  -15.8899   26.2649 C   0  0  0  0  0  0  0  0  0  0  0  0
    5.9976  -15.7617   25.6255 C   0  0  0  0  0  0  0  0  0  0  0  0
    5.6705  -14.4622   25.5842 N   0  0  0  0  0  0  0  0  0  0  0  0
    6.6439  -13.7337   26.1777 C   0  0  0  0  0  0  0  0  0  0  0  0
    6.7811  -12.3810   26.4075 C   0  0  0  0  0  0  0  0  0  0  0  0
    7.8785  -11.8676   27.0645 C   0  0  0  0  0  0  0  0  0  0  0  0
    8.8716  -12.7151   27.5089 C   0  0  0  0  0  0  0  0  0  0  0  0
    8.7157  -14.0574   27.2692 C   0  0  0  0  0  0  0  0  0  0  0  0
    7.6308  -14.6130   26.6132 C   0  0  0  0  0  0  0  0  0  0  0  0
   10.1362  -18.3157   26.0616 C   0  0  0  0  0  0  0  0  0  0  0  0
    9.5985  -19.3905   26.4426 O   0  0  0  0  0  0  0  0  0  0  0  0
   11.5252  -18.2897   25.8652 N   0  0  0  0  0  0  0  0  0  0  0  0
   12.3537  -19.4405   26.1317 C   0  0  1  0  0  0  0  0  0  0  0  0
   13.7953  -19.2023   25.7267 C   0  0  0  0  0  0  0  0  0  0  0  0
   14.7224  -20.7309   26.1401 S   0  0  0  0  0  0  0  0  0  0  0  0
   12.3418  -19.8163   27.5633 C   0  0  0  0  0  0  0  0  0  0  0  0
   12.5948  -21.0982   28.0122 O   0  0  0  0  0  0  0  0  0  0  0  0
   12.0886  -18.9229   28.4098 O   0  0  0  0  0  0  0  0  0  0  0  0
  2  1  1  1
  3  2  1  0
  4  5  2  0
  4  3  1  0
  6  5  1  0
  7 12  2  0
  7  6  1  0
  8  7  1  0
  9 10  1  0
  9  8  2  0
 10 11  2  0
 11 12  1  0
 12  4  1  0
 13  2  1  0
 14 13  2  0
 15 13  1  0
 16 27  1  0
 16 15  1  0
 16 17  1  1
 18 17  1  0
 19 18  2  0
 20 19  1  0
 21 20  1  0
 21 26  2  0
 22 21  1  0
 23 22  2  0
 23 24  1  0
 24 25  2  0
 25 26  1  0
 26 18  1  0
 27 29  1  0
 28 27  2  0
 29 30  1  0
 30 33  1  0
 30 31  1  1
 31 32  1  0
 33 35  2  0
 33 34  1  0
M  END
$$$$
