WWC.pdb
     RDKit          3D

 35 38  0  0  1  0  0  0  0  0999 V2000
   11.2618  -16.6073   19.4464 N   0  0  0  0  0  0  0  0  0  0  0  0
   11.1011  -17.3328   20.6618 C   0  0  1  0  0  0  0  0  0  0  0  0
   12.3280  -18.0257   21.1718 C   0  0  0  0  0  0  0  0  0  0  0  0
   12.6181  -19.3148   20.5183 C   0  0  0  0  0  0  0  0  0  0  0  0
   13.6214  -19.5309   19.5810 C   0  0  0  0  0  0  0  0  0  0  0  0
   13.5853  -20.8081   19.2347 N   0  0  0  0  0  0  0  0  0  0  0  0
   12.6099  -21.4634   19.8900 C   0  0  0  0  0  0  0  0  0  0  0  0
   12.2079  -22.7847   19.8439 C   0  0  0  0  0  0  0  0  0  0  0  0
   11.1531  -23.1573   20.6454 C   0  0  0  0  0  0  0  0  0  0  0  0
   10.5119  -22.2401   21.4735 C   0  0  0  0  0  0  0  0  0  0  0  0
   10.9400  -20.9394   21.4909 C   0  0  0  0  0  0  0  0  0  0  0  0
   11.9871  -20.5282   20.7084 C   0  0  0  0  0  0  0  0  0  0  0  0
   10.6488  -16.4188   21.7667 C   0  0  0  0  0  0  0  0  0  0  0  0
   11.1515  -15.2766   21.8851 O   0  0  0  0  0  0  0  0  0  0  0  0
    9.6659  -16.8454   22.6634 N   0  0  0  0  0  0  0  0  0  0  0  0
    9.2564  -15.9471   23.7552 C   0  0  1  0  0  0  0  0  0  0  0  0
    7.7643  -15.9067   23.6784 C   0  0  0  0  0  0  0  0  0  0  0  0
    7.1658  -15.1168   24.7599 C   0  0  0  0  0  0  0  0  0  0  0  0
    6.4206  -15.6049   25.8255 C   0  0  0  0  0  0  0  0  0  0  0  0
    6.0213  -14.5697   26.5780 N   0  0  0  0  0  0  0  0  0  0  0  0
    6.4822  -13.4173   26.0396 C   0  0  0  0  0  0  0  0  0  0  0  0
    6.3667  -12.0997   26.4294 C   0  0  0  0  0  0  0  0  0  0  0  0
    6.9540  -11.0800   25.7118 C   0  0  0  0  0  0  0  0  0  0  0  0
    7.6777  -11.3691   24.5741 C   0  0  0  0  0  0  0  0  0  0  0  0
    7.7796  -12.6866   24.2034 C   0  0  0  0  0  0  0  0  0  0  0  0
    7.2052  -13.7393   24.8949 C   0  0  0  0  0  0  0  0  0  0  0  0
    9.8265  -16.4022   25.0205 C   0  0  0  0  0  0  0  0  0  0  0  0
   10.2042  -17.5993   25.1372 O   0  0  0  0  0  0  0  0  0  0  0  0
    9.9681  -15.5407   26.1190 N   0  0  0  0  0  0  0  0  0  0  0  0
   10.6455  -15.9499   27.3254 C   0  0  1  0  0  0  0  0  0  0  0  0
   10.3586  -15.0088   28.4790 C   0  0  0  0  0  0  0  0  0  0  0  0
   10.0562  -13.3523   27.7502 S   0  0  0  0  0  0  0  0  0  0  0  0
   10.2575  -17.3146   27.7470 C   0  0  0  0  0  0  0  0  0  0  0  0
   11.1669  -18.3387   27.9291 O   0  0  0  0  0  0  0  0  0  0  0  0
    9.0398  -17.5504   27.9485 O   0  0  0  0  0  0  0  0  0  0  0  0
  2  1  1  6
  3  2  1  0
  4  5  2  0
  4  3  1  0
  6  5  1  0
  7 12  2  0
  7  6  1  0
  8  7  1  0
  9 10  1  0
  9  8  2  0
 10 11  2  0
 11 12  1  0
 12  4  1  0
 13  2  1  0
 14 13  2  0
 15 13  1  0
 16 27  1  0
 16 15  1  0
 16 17  1  1
 18 17  1  0
 19 18  2  0
 20 19  1  0
 21 20  1  0
 21 26  2  0
 22 21  1  0
 23 22  2  0
 23 24  1  0
 24 25  2  0
 25 26  1  0
 26 18  1  0
 27 29  1  0
 28 27  2  0
 29 30  1  0
 30 33  1  0
 30 31  1  1
 31 32  1  0
 33 35  2  0
 33 34  1  0
M  END
$$$$
