WWC.pdb
     RDKit          3D

 35 38  0  0  1  0  0  0  0  0999 V2000
    7.4481  -16.1748   19.9626 N   0  0  0  0  0  0  0  0  0  0  0  0
    8.1348  -17.0999   20.8004 C   0  0  1  0  0  0  0  0  0  0  0  0
    9.1440  -17.9709   20.1161 C   0  0  0  0  0  0  0  0  0  0  0  0
    8.5837  -18.8578   19.0803 C   0  0  0  0  0  0  0  0  0  0  0  0
    8.5504  -18.5798   17.7189 C   0  0  0  0  0  0  0  0  0  0  0  0
    7.9892  -19.6111   17.1076 N   0  0  0  0  0  0  0  0  0  0  0  0
    7.6429  -20.5693   17.9864 C   0  0  0  0  0  0  0  0  0  0  0  0
    7.0364  -21.7977   17.8051 C   0  0  0  0  0  0  0  0  0  0  0  0
    6.8044  -22.5641   18.9244 C   0  0  0  0  0  0  0  0  0  0  0  0
    7.1656  -22.1219   20.1940 C   0  0  0  0  0  0  0  0  0  0  0  0
    7.7648  -20.8982   20.3321 C   0  0  0  0  0  0  0  0  0  0  0  0
    8.0139  -20.1050   19.2430 C   0  0  0  0  0  0  0  0  0  0  0  0
    8.8784  -16.3760   21.8883 C   0  0  0  0  0  0  0  0  0  0  0  0
    9.3969  -15.2576   21.6607 O   0  0  0  0  0  0  0  0  0  0  0  0
    8.9915  -16.9528   23.1558 N   0  0  0  0  0  0  0  0  0  0  0  0
    9.7633  -16.2508   24.1942 C   0  0  1  0  0  0  0  0  0  0  0  0
    8.9624  -16.4178   25.4450 C   0  0  0  0  0  0  0  0  0  0  0  0
    7.7450  -15.5994   25.4479 C   0  0  0  0  0  0  0  0  0  0  0  0
    6.4724  -16.0093   25.0718 C   0  0  0  0  0  0  0  0  0  0  0  0
    5.6374  -14.9661   25.1804 N   0  0  0  0  0  0  0  0  0  0  0  0
    6.3227  -13.8843   25.6171 C   0  0  0  0  0  0  0  0  0  0  0  0
    5.9336  -12.5927   25.9031 C   0  0  0  0  0  0  0  0  0  0  0  0
    6.8308  -11.6533   26.3636 C   0  0  0  0  0  0  0  0  0  0  0  0
    8.1531  -11.9987   26.5478 C   0  0  0  0  0  0  0  0  0  0  0  0
    8.5193  -13.2890   26.2566 C   0  0  0  0  0  0  0  0  0  0  0  0
    7.6509  -14.2616   25.7918 C   0  0  0  0  0  0  0  0  0  0  0  0
   11.1326  -16.7574   24.2309 C   0  0  0  0  0  0  0  0  0  0  0  0
   11.3347  -18.0017   24.2500 O   0  0  0  0  0  0  0  0  0  0  0  0
   12.2391  -15.8947   24.2454 N   0  0  0  0  0  0  0  0  0  0  0  0
   13.5919  -16.3897   24.1629 C   0  0  1  0  0  0  0  0  0  0  0  0
   14.4600  -15.5115   23.2830 C   0  0  0  0  0  0  0  0  0  0  0  0
   13.6831  -15.4924   21.6208 S   0  0  0  0  0  0  0  0  0  0  0  0
   14.2360  -16.4758   25.4927 C   0  0  0  0  0  0  0  0  0  0  0  0
   15.5036  -16.9891   25.6888 O   0  0  0  0  0  0  0  0  0  0  0  0
   13.5955  -16.0607   26.4909 O   0  0  0  0  0  0  0  0  0  0  0  0
  2  1  1  6
  3  2  1  0
  4  5  2  0
  4  3  1  0
  6  5  1  0
  7 12  2  0
  7  6  1  0
  8  7  1  0
  9 10  1  0
  9  8  2  0
 10 11  2  0
 11 12  1  0
 12  4  1  0
 13  2  1  0
 14 13  2  0
 15 13  1  0
 16 27  1  0
 16 15  1  0
 16 17  1  1
 18 17  1  0
 19 18  2  0
 20 19  1  0
 21 20  1  0
 21 26  2  0
 22 21  1  0
 23 22  2  0
 23 24  1  0
 24 25  2  0
 25 26  1  0
 26 18  1  0
 27 29  1  0
 28 27  2  0
 29 30  1  0
 30 33  1  0
 30 31  1  6
 31 32  1  0
 33 35  2  0
 33 34  1  0
M  END
$$$$
