WWC.pdb
     RDKit          3D

 35 38  0  0  1  0  0  0  0  0999 V2000
    7.1171  -19.1554   19.8716 N   0  0  0  0  0  0  0  0  0  0  0  0
    8.1551  -19.3237   20.8326 C   0  0  1  0  0  0  0  0  0  0  0  0
    9.2849  -20.2169   20.4189 C   0  0  0  0  0  0  0  0  0  0  0  0
    8.9312  -21.6447   20.3220 C   0  0  0  0  0  0  0  0  0  0  0  0
    9.8227  -22.6747   20.0457 C   0  0  0  0  0  0  0  0  0  0  0  0
    9.1449  -23.8117   20.0554 N   0  0  0  0  0  0  0  0  0  0  0  0
    7.8434  -23.6011   20.3239 C   0  0  0  0  0  0  0  0  0  0  0  0
    6.7801  -24.4774   20.4299 C   0  0  0  0  0  0  0  0  0  0  0  0
    5.5432  -23.9456   20.7147 C   0  0  0  0  0  0  0  0  0  0  0  0
    5.3654  -22.5760   20.8902 C   0  0  0  0  0  0  0  0  0  0  0  0
    6.4443  -21.7402   20.7771 C   0  0  0  0  0  0  0  0  0  0  0  0
    7.6927  -22.2299   20.4952 C   0  0  0  0  0  0  0  0  0  0  0  0
    8.7760  -17.9983   21.1769 C   0  0  0  0  0  0  0  0  0  0  0  0
    9.8995  -17.6896   20.7143 O   0  0  0  0  0  0  0  0  0  0  0  0
    8.0981  -17.1097   22.0152 N   0  0  0  0  0  0  0  0  0  0  0  0
    8.8669  -16.0896   22.7466 C   0  0  1  0  0  0  0  0  0  0  0  0
    7.9479  -14.9150   22.8449 C   0  0  0  0  0  0  0  0  0  0  0  0
    7.4005  -14.7394   24.1944 C   0  0  0  0  0  0  0  0  0  0  0  0
    6.6544  -15.6662   24.9110 C   0  0  0  0  0  0  0  0  0  0  0  0
    6.3103  -15.1212   26.0866 N   0  0  0  0  0  0  0  0  0  0  0  0
    6.8085  -13.8657   26.1640 C   0  0  0  0  0  0  0  0  0  0  0  0
    6.7534  -12.9049   27.1515 C   0  0  0  0  0  0  0  0  0  0  0  0
    7.3693  -11.6808   27.0034 C   0  0  0  0  0  0  0  0  0  0  0  0
    8.0612  -11.3957   25.8450 C   0  0  0  0  0  0  0  0  0  0  0  0
    8.1030  -12.3655   24.8748 C   0  0  0  0  0  0  0  0  0  0  0  0
    7.4982  -13.6059   24.9835 C   0  0  0  0  0  0  0  0  0  0  0  0
    9.3534  -16.6373   24.0101 C   0  0  0  0  0  0  0  0  0  0  0  0
    8.9120  -17.7455   24.4180 O   0  0  0  0  0  0  0  0  0  0  0  0
   10.3047  -15.9625   24.7900 N   0  0  0  0  0  0  0  0  0  0  0  0
   11.7137  -16.2592   24.6981 C   0  0  1  0  0  0  0  0  0  0  0  0
   12.2480  -16.0261   23.2984 C   0  0  0  0  0  0  0  0  0  0  0  0
   13.9820  -16.6261   23.2854 S   0  0  0  0  0  0  0  0  0  0  0  0
   12.5180  -15.4396   25.6320 C   0  0  0  0  0  0  0  0  0  0  0  0
   13.6795  -15.8909   26.2286 O   0  0  0  0  0  0  0  0  0  0  0  0
   12.1219  -14.2760   25.8934 O   0  0  0  0  0  0  0  0  0  0  0  0
  2  1  1  6
  3  2  1  0
  4  5  2  0
  4  3  1  0
  6  5  1  0
  7 12  2  0
  7  6  1  0
  8  7  1  0
  9 10  1  0
  9  8  2  0
 10 11  2  0
 11 12  1  0
 12  4  1  0
 13  2  1  0
 14 13  2  0
 15 13  1  0
 16 27  1  0
 16 15  1  0
 16 17  1  1
 18 17  1  0
 19 18  2  0
 20 19  1  0
 21 20  1  0
 21 26  2  0
 22 21  1  0
 23 22  2  0
 23 24  1  0
 24 25  2  0
 25 26  1  0
 26 18  1  0
 27 29  1  0
 28 27  2  0
 29 30  1  0
 30 33  1  0
 30 31  1  6
 31 32  1  0
 33 35  2  0
 33 34  1  0
M  END
$$$$
