WWC.pdb
     RDKit          3D

 35 38  0  0  1  0  0  0  0  0999 V2000
    9.0088  -18.3851   22.1126 N   0  0  0  0  0  0  0  0  0  0  0  0
    8.9851  -16.9649   22.0046 C   0  0  1  0  0  0  0  0  0  0  0  0
    7.6549  -16.3609   21.6713 C   0  0  0  0  0  0  0  0  0  0  0  0
    7.6629  -15.4788   20.4901 C   0  0  0  0  0  0  0  0  0  0  0  0
    7.2842  -15.8540   19.2065 C   0  0  0  0  0  0  0  0  0  0  0  0
    7.4102  -14.7963   18.4206 N   0  0  0  0  0  0  0  0  0  0  0  0
    7.8540  -13.7282   19.1081 C   0  0  0  0  0  0  0  0  0  0  0  0
    8.1315  -12.4354   18.7065 C   0  0  0  0  0  0  0  0  0  0  0  0
    8.5855  -11.5557   19.6624 C   0  0  0  0  0  0  0  0  0  0  0  0
    8.7602  -11.9496   20.9862 C   0  0  0  0  0  0  0  0  0  0  0  0
    8.4739  -13.2399   21.3448 C   0  0  0  0  0  0  0  0  0  0  0  0
    8.0192  -14.1465   20.4234 C   0  0  0  0  0  0  0  0  0  0  0  0
    9.4195  -16.3296   23.2963 C   0  0  0  0  0  0  0  0  0  0  0  0
    9.9547  -15.1961   23.2923 O   0  0  0  0  0  0  0  0  0  0  0  0
    9.2258  -17.0059   24.5034 N   0  0  0  0  0  0  0  0  0  0  0  0
    9.6918  -16.3842   25.7536 C   0  0  1  0  0  0  0  0  0  0  0  0
    8.5354  -16.5008   26.6933 C   0  0  0  0  0  0  0  0  0  0  0  0
    7.4179  -15.6260   26.3227 C   0  0  0  0  0  0  0  0  0  0  0  0
    6.1876  -16.0255   25.8168 C   0  0  0  0  0  0  0  0  0  0  0  0
    5.4508  -14.9328   25.5713 N   0  0  0  0  0  0  0  0  0  0  0  0
    6.1592  -13.8284   25.9012 C   0  0  0  0  0  0  0  0  0  0  0  0
    5.8562  -12.4840   25.8564 C   0  0  0  0  0  0  0  0  0  0  0  0
    6.7552  -11.5266   26.2744 C   0  0  0  0  0  0  0  0  0  0  0  0
    7.9918  -11.9073   26.7516 C   0  0  0  0  0  0  0  0  0  0  0  0
    8.2733  -13.2502   26.7870 C   0  0  0  0  0  0  0  0  0  0  0  0
    7.3999  -14.2425   26.3765 C   0  0  0  0  0  0  0  0  0  0  0  0
   10.9418  -17.0031   26.1867 C   0  0  0  0  0  0  0  0  0  0  0  0
   11.9009  -17.1012   25.3744 O   0  0  0  0  0  0  0  0  0  0  0  0
   11.1092  -17.4956   27.4898 N   0  0  0  0  0  0  0  0  0  0  0  0
   12.4047  -17.8731   28.0007 C   0  0  1  0  0  0  0  0  0  0  0  0
   13.0963  -16.7147   28.6927 C   0  0  0  0  0  0  0  0  0  0  0  0
   11.8409  -15.9081   29.7604 S   0  0  0  0  0  0  0  0  0  0  0  0
   12.3188  -18.9914   28.9665 C   0  0  0  0  0  0  0  0  0  0  0  0
   13.4239  -19.5494   29.5798 O   0  0  0  0  0  0  0  0  0  0  0  0
   11.1830  -19.4541   29.2400 O   0  0  0  0  0  0  0  0  0  0  0  0
  2  1  1  1
  3  2  1  0
  4  5  2  0
  4  3  1  0
  6  5  1  0
  7 12  2  0
  7  6  1  0
  8  7  1  0
  9 10  1  0
  9  8  2  0
 10 11  2  0
 11 12  1  0
 12  4  1  0
 13  2  1  0
 14 13  2  0
 15 13  1  0
 16 27  1  0
 16 15  1  0
 16 17  1  1
 18 17  1  0
 19 18  2  0
 20 19  1  0
 21 20  1  0
 21 26  2  0
 22 21  1  0
 23 22  2  0
 23 24  1  0
 24 25  2  0
 25 26  1  0
 26 18  1  0
 27 29  1  0
 28 27  2  0
 29 30  1  0
 30 33  1  0
 30 31  1  1
 31 32  1  0
 33 35  2  0
 33 34  1  0
M  END
$$$$
