WWC.pdb
     RDKit          3D

 35 38  0  0  1  0  0  0  0  0999 V2000
   11.4936  -16.7602   21.0946 N   0  0  0  0  0  0  0  0  0  0  0  0
   10.3432  -16.3089   21.8032 C   0  0  1  0  0  0  0  0  0  0  0  0
    9.0627  -17.0177   21.4818 C   0  0  0  0  0  0  0  0  0  0  0  0
    7.9733  -16.1351   21.0262 C   0  0  0  0  0  0  0  0  0  0  0  0
    6.6827  -16.5482   20.7172 C   0  0  0  0  0  0  0  0  0  0  0  0
    5.9881  -15.4786   20.3625 N   0  0  0  0  0  0  0  0  0  0  0  0
    6.7437  -14.3666   20.4167 C   0  0  0  0  0  0  0  0  0  0  0  0
    6.4464  -13.0468   20.1353 C   0  0  0  0  0  0  0  0  0  0  0  0
    7.4545  -12.1218   20.2838 C   0  0  0  0  0  0  0  0  0  0  0  0
    8.7281  -12.4977   20.7018 C   0  0  0  0  0  0  0  0  0  0  0  0
    8.9831  -13.8160   20.9711 C   0  0  0  0  0  0  0  0  0  0  0  0
    8.0067  -14.7679   20.8362 C   0  0  0  0  0  0  0  0  0  0  0  0
   10.5428  -16.4606   23.2857 C   0  0  0  0  0  0  0  0  0  0  0  0
   11.6898  -16.3578   23.7810 O   0  0  0  0  0  0  0  0  0  0  0  0
    9.4460  -16.7173   24.1123 N   0  0  0  0  0  0  0  0  0  0  0  0
    9.6050  -16.5914   25.5702 C   0  0  1  0  0  0  0  0  0  0  0  0
    8.2110  -16.5989   26.1094 C   0  0  0  0  0  0  0  0  0  0  0  0
    7.4738  -15.3738   25.7818 C   0  0  0  0  0  0  0  0  0  0  0  0
    6.3574  -15.2750   24.9616 C   0  0  0  0  0  0  0  0  0  0  0  0
    5.9966  -13.9862   24.8835 N   0  0  0  0  0  0  0  0  0  0  0  0
    6.8413  -13.2361   25.6280 C   0  0  0  0  0  0  0  0  0  0  0  0
    6.8953  -11.8835   25.8903 C   0  0  0  0  0  0  0  0  0  0  0  0
    7.8600  -11.3455   26.7147 C   0  0  0  0  0  0  0  0  0  0  0  0
    8.8007  -12.1675   27.2987 C   0  0  0  0  0  0  0  0  0  0  0  0
    8.7294  -13.5103   27.0239 C   0  0  0  0  0  0  0  0  0  0  0  0
    7.7783  -14.0901   26.2021 C   0  0  0  0  0  0  0  0  0  0  0  0
   10.4970  -17.6343   26.0701 C   0  0  0  0  0  0  0  0  0  0  0  0
   10.5073  -18.7641   25.5107 O   0  0  0  0  0  0  0  0  0  0  0  0
   11.3499  -17.4154   27.1625 N   0  0  0  0  0  0  0  0  0  0  0  0
   12.1006  -18.4877   27.7695 C   0  0  1  0  0  0  0  0  0  0  0  0
   13.3261  -17.9740   28.4996 C   0  0  0  0  0  0  0  0  0  0  0  0
   14.0642  -16.6674   27.4439 S   0  0  0  0  0  0  0  0  0  0  0  0
   11.2878  -19.2593   28.7363 C   0  0  0  0  0  0  0  0  0  0  0  0
   11.7895  -20.3109   29.4788 O   0  0  0  0  0  0  0  0  0  0  0  0
   10.0819  -18.9397   28.8870 O   0  0  0  0  0  0  0  0  0  0  0  0
  2  1  1  6
  3  2  1  0
  4  5  2  0
  4  3  1  0
  6  5  1  0
  7 12  2  0
  7  6  1  0
  8  7  1  0
  9 10  1  0
  9  8  2  0
 10 11  2  0
 11 12  1  0
 12  4  1  0
 13  2  1  0
 14 13  2  0
 15 13  1  0
 16 27  1  0
 16 15  1  0
 16 17  1  1
 18 17  1  0
 19 18  2  0
 20 19  1  0
 21 20  1  0
 21 26  2  0
 22 21  1  0
 23 22  2  0
 23 24  1  0
 24 25  2  0
 25 26  1  0
 26 18  1  0
 27 29  1  0
 28 27  2  0
 29 30  1  0
 30 33  1  0
 30 31  1  1
 31 32  1  0
 33 35  2  0
 33 34  1  0
M  END
$$$$
