WWC.pdb
     RDKit          3D

 35 38  0  0  1  0  0  0  0  0999 V2000
    6.3963  -21.9327   22.6021 N   0  0  0  0  0  0  0  0  0  0  0  0
    5.9728  -21.0207   23.6112 C   0  0  1  0  0  0  0  0  0  0  0  0
    6.0054  -21.5441   25.0150 C   0  0  0  0  0  0  0  0  0  0  0  0
    5.0629  -22.6468   25.2781 C   0  0  0  0  0  0  0  0  0  0  0  0
    5.3779  -23.8319   25.9324 C   0  0  0  0  0  0  0  0  0  0  0  0
    4.2784  -24.5667   25.9931 N   0  0  0  0  0  0  0  0  0  0  0  0
    3.2394  -23.9380   25.4138 C   0  0  0  0  0  0  0  0  0  0  0  0
    1.9224  -24.3197   25.2424 C   0  0  0  0  0  0  0  0  0  0  0  0
    1.0852  -23.4425   24.5917 C   0  0  0  0  0  0  0  0  0  0  0  0
    1.5441  -22.2150   24.1219 C   0  0  0  0  0  0  0  0  0  0  0  0
    2.8566  -21.8731   24.3115 C   0  0  0  0  0  0  0  0  0  0  0  0
    3.7224  -22.7180   24.9550 C   0  0  0  0  0  0  0  0  0  0  0  0
    6.8350  -19.7889   23.6056 C   0  0  0  0  0  0  0  0  0  0  0  0
    7.9237  -19.7846   22.9842 O   0  0  0  0  0  0  0  0  0  0  0  0
    6.4205  -18.6469   24.2956 N   0  0  0  0  0  0  0  0  0  0  0  0
    7.2664  -17.4429   24.2578 C   0  0  1  0  0  0  0  0  0  0  0  0
    6.3651  -16.3284   24.6814 C   0  0  0  0  0  0  0  0  0  0  0  0
    6.9947  -15.0108   24.5421 C   0  0  0  0  0  0  0  0  0  0  0  0
    7.8347  -14.6004   23.5151 C   0  0  0  0  0  0  0  0  0  0  0  0
    8.2309  -13.3438   23.7629 N   0  0  0  0  0  0  0  0  0  0  0  0
    7.6759  -12.9166   24.9204 C   0  0  0  0  0  0  0  0  0  0  0  0
    7.7500  -11.7180   25.5981 C   0  0  0  0  0  0  0  0  0  0  0  0
    7.0638  -11.5101   26.7752 C   0  0  0  0  0  0  0  0  0  0  0  0
    6.2800  -12.5160   27.3002 C   0  0  0  0  0  0  0  0  0  0  0  0
    6.2208  -13.7010   26.6103 C   0  0  0  0  0  0  0  0  0  0  0  0
    6.8941  -13.9505   25.4269 C   0  0  0  0  0  0  0  0  0  0  0  0
    8.4662  -17.6465   25.0654 C   0  0  0  0  0  0  0  0  0  0  0  0
    8.3545  -18.0587   26.2516 O   0  0  0  0  0  0  0  0  0  0  0  0
    9.7498  -17.3955   24.5573 N   0  0  0  0  0  0  0  0  0  0  0  0
   10.9368  -17.6012   25.3513 C   0  0  1  0  0  0  0  0  0  0  0  0
   12.1981  -17.2909   24.5690 C   0  0  0  0  0  0  0  0  0  0  0  0
   11.9889  -15.6071   23.8708 S   0  0  0  0  0  0  0  0  0  0  0  0
   10.9432  -16.7637   26.5716 C   0  0  0  0  0  0  0  0  0  0  0  0
    9.9660  -15.8289   26.8541 O   0  0  0  0  0  0  0  0  0  0  0  0
   11.8858  -16.9125   27.3892 O   0  0  0  0  0  0  0  0  0  0  0  0
  2  1  1  6
  3  2  1  0
  4  5  2  0
  4  3  1  0
  6  5  1  0
  7 12  2  0
  7  6  1  0
  8  7  1  0
  9 10  1  0
  9  8  2  0
 10 11  2  0
 11 12  1  0
 12  4  1  0
 13  2  1  0
 14 13  2  0
 15 13  1  0
 16 27  1  0
 16 15  1  0
 16 17  1  1
 18 17  1  0
 19 18  2  0
 20 19  1  0
 21 20  1  0
 21 26  2  0
 22 21  1  0
 23 22  2  0
 23 24  1  0
 24 25  2  0
 25 26  1  0
 26 18  1  0
 27 29  1  0
 28 27  2  0
 29 30  1  0
 30 33  1  0
 30 31  1  6
 31 32  1  0
 33 35  2  0
 33 34  1  0
M  END
$$$$
