WWC.pdb
     RDKit          3D

 35 38  0  0  1  0  0  0  0  0999 V2000
    8.7212  -18.6371   22.1824 N   0  0  0  0  0  0  0  0  0  0  0  0
    8.6492  -17.2143   22.1806 C   0  0  1  0  0  0  0  0  0  0  0  0
    7.3848  -16.6284   21.6299 C   0  0  0  0  0  0  0  0  0  0  0  0
    7.5888  -15.5415   20.6551 C   0  0  0  0  0  0  0  0  0  0  0  0
    7.6679  -15.7047   19.2770 C   0  0  0  0  0  0  0  0  0  0  0  0
    7.8387  -14.5087   18.7358 N   0  0  0  0  0  0  0  0  0  0  0  0
    7.8787  -13.5486   19.6776 C   0  0  0  0  0  0  0  0  0  0  0  0
    8.0413  -12.1799   19.5790 C   0  0  0  0  0  0  0  0  0  0  0  0
    8.0441  -11.4536   20.7480 C   0  0  0  0  0  0  0  0  0  0  0  0
    7.8894  -12.0711   21.9860 C   0  0  0  0  0  0  0  0  0  0  0  0
    7.7307  -13.4302   22.0419 C   0  0  0  0  0  0  0  0  0  0  0  0
    7.7216  -14.1894   20.9011 C   0  0  0  0  0  0  0  0  0  0  0  0
    8.7833  -16.6770   23.5785 C   0  0  0  0  0  0  0  0  0  0  0  0
    7.8424  -16.0326   24.0988 O   0  0  0  0  0  0  0  0  0  0  0  0
    9.9606  -16.8969   24.2980 N   0  0  0  0  0  0  0  0  0  0  0  0
    9.9329  -16.7840   25.7654 C   0  0  1  0  0  0  0  0  0  0  0  0
    8.5116  -17.0508   26.1431 C   0  0  0  0  0  0  0  0  0  0  0  0
    7.6366  -15.9006   25.8917 C   0  0  0  0  0  0  0  0  0  0  0  0
    6.3500  -15.9390   25.3698 C   0  0  0  0  0  0  0  0  0  0  0  0
    5.8957  -14.6826   25.2590 N   0  0  0  0  0  0  0  0  0  0  0  0
    6.8441  -13.8208   25.6929 C   0  0  0  0  0  0  0  0  0  0  0  0
    6.8697  -12.4463   25.8004 C   0  0  0  0  0  0  0  0  0  0  0  0
    7.9678  -11.7813   26.3021 C   0  0  0  0  0  0  0  0  0  0  0  0
    9.0752  -12.4945   26.7106 C   0  0  0  0  0  0  0  0  0  0  0  0
    9.0291  -13.8612   26.5944 C   0  0  0  0  0  0  0  0  0  0  0  0
    7.9477  -14.5669   26.0958 C   0  0  0  0  0  0  0  0  0  0  0  0
   10.9354  -17.6668   26.3560 C   0  0  0  0  0  0  0  0  0  0  0  0
   11.0006  -17.7822   27.6097 O   0  0  0  0  0  0  0  0  0  0  0  0
   11.8352  -18.3964   25.5644 N   0  0  0  0  0  0  0  0  0  0  0  0
   12.8222  -19.2740   26.1453 C   0  0  1  0  0  0  0  0  0  0  0  0
   13.8962  -19.6539   25.1447 C   0  0  0  0  0  0  0  0  0  0  0  0
   13.0503  -19.9447   23.5426 S   0  0  0  0  0  0  0  0  0  0  0  0
   13.4902  -18.6637   27.3167 C   0  0  0  0  0  0  0  0  0  0  0  0
   14.4623  -19.3095   28.0561 O   0  0  0  0  0  0  0  0  0  0  0  0
   13.1541  -17.5005   27.6529 O   0  0  0  0  0  0  0  0  0  0  0  0
  2  1  1  1
  3  2  1  0
  4  5  2  0
  4  3  1  0
  6  5  1  0
  7 12  2  0
  7  6  1  0
  8  7  1  0
  9 10  1  0
  9  8  2  0
 10 11  2  0
 11 12  1  0
 12  4  1  0
 13  2  1  0
 14 13  2  0
 15 13  1  0
 16 27  1  0
 16 15  1  0
 16 17  1  1
 18 17  1  0
 19 18  2  0
 20 19  1  0
 21 20  1  0
 21 26  2  0
 22 21  1  0
 23 22  2  0
 23 24  1  0
 24 25  2  0
 25 26  1  0
 26 18  1  0
 27 29  1  0
 28 27  2  0
 29 30  1  0
 30 33  1  0
 30 31  1  6
 31 32  1  0
 33 35  2  0
 33 34  1  0
M  END
$$$$
