WWC.pdb
     RDKit          3D

 35 38  0  0  1  0  0  0  0  0999 V2000
    6.5385  -18.9312   26.3609 N   0  0  0  0  0  0  0  0  0  0  0  0
    7.4787  -17.8671   26.2472 C   0  0  1  0  0  0  0  0  0  0  0  0
    8.8622  -18.1673   26.7383 C   0  0  0  0  0  0  0  0  0  0  0  0
    9.3316  -17.2837   27.8209 C   0  0  0  0  0  0  0  0  0  0  0  0
    9.7351  -17.7057   29.0823 C   0  0  0  0  0  0  0  0  0  0  0  0
   10.1000  -16.6356   29.7709 N   0  0  0  0  0  0  0  0  0  0  0  0
    9.9634  -15.5150   29.0389 C   0  0  0  0  0  0  0  0  0  0  0  0
   10.2150  -14.1905   29.3423 C   0  0  0  0  0  0  0  0  0  0  0  0
    9.9648  -13.2550   28.3645 C   0  0  0  0  0  0  0  0  0  0  0  0
    9.4762  -13.6251   27.1145 C   0  0  0  0  0  0  0  0  0  0  0  0
    9.2396  -14.9483   26.8524 C   0  0  0  0  0  0  0  0  0  0  0  0
    9.4762  -15.9107   27.7986 C   0  0  0  0  0  0  0  0  0  0  0  0
    7.6283  -17.4455   24.8117 C   0  0  0  0  0  0  0  0  0  0  0  0
    7.6249  -18.3047   23.8990 O   0  0  0  0  0  0  0  0  0  0  0  0
    7.7717  -16.0921   24.4959 N   0  0  0  0  0  0  0  0  0  0  0  0
    8.1433  -15.7142   23.1226 C   0  0  1  0  0  0  0  0  0  0  0  0
    7.8482  -14.2517   23.0348 C   0  0  0  0  0  0  0  0  0  0  0  0
    8.1751  -13.6890   21.7202 C   0  0  0  0  0  0  0  0  0  0  0  0
    9.2588  -12.8756   21.4153 C   0  0  0  0  0  0  0  0  0  0  0  0
    9.1911  -12.5410   20.1188 N   0  0  0  0  0  0  0  0  0  0  0  0
    8.0968  -13.1105   19.5633 C   0  0  0  0  0  0  0  0  0  0  0  0
    7.5915  -13.0925   18.2804 C   0  0  0  0  0  0  0  0  0  0  0  0
    6.4462  -13.7821   17.9455 C   0  0  0  0  0  0  0  0  0  0  0  0
    5.7784  -14.5123   18.9060 C   0  0  0  0  0  0  0  0  0  0  0  0
    6.2978  -14.5162   20.1764 C   0  0  0  0  0  0  0  0  0  0  0  0
    7.4436  -13.8375   20.5540 C   0  0  0  0  0  0  0  0  0  0  0  0
    9.5210  -16.1134   22.8473 C   0  0  0  0  0  0  0  0  0  0  0  0
   10.3958  -15.9887   23.7465 O   0  0  0  0  0  0  0  0  0  0  0  0
    9.9038  -16.6359   21.6026 N   0  0  0  0  0  0  0  0  0  0  0  0
   11.2858  -16.8917   21.2765 C   0  0  1  0  0  0  0  0  0  0  0  0
   11.6347  -18.3605   21.4164 C   0  0  0  0  0  0  0  0  0  0  0  0
   10.1003  -19.3058   21.0719 S   0  0  0  0  0  0  0  0  0  0  0  0
   11.6185  -16.4768   19.8952 C   0  0  0  0  0  0  0  0  0  0  0  0
   12.9030  -16.4961   19.3869 O   0  0  0  0  0  0  0  0  0  0  0  0
   10.6841  -16.0882   19.1503 O   0  0  0  0  0  0  0  0  0  0  0  0
  2  1  1  6
  3  2  1  0
  4  5  2  0
  4  3  1  0
  6  5  1  0
  7 12  2  0
  7  6  1  0
  8  7  1  0
  9 10  1  0
  9  8  2  0
 10 11  2  0
 11 12  1  0
 12  4  1  0
 13  2  1  0
 14 13  2  0
 15 13  1  0
 16 27  1  0
 16 15  1  0
 16 17  1  1
 18 17  1  0
 19 18  2  0
 20 19  1  0
 21 20  1  0
 21 26  2  0
 22 21  1  0
 23 22  2  0
 23 24  1  0
 24 25  2  0
 25 26  1  0
 26 18  1  0
 27 29  1  0
 28 27  2  0
 29 30  1  0
 30 33  1  0
 30 31  1  6
 31 32  1  0
 33 35  2  0
 33 34  1  0
M  END
$$$$
