WWC.pdb
     RDKit          3D

 35 38  0  0  1  0  0  0  0  0999 V2000
    7.9627  -19.9210   27.4310 N   0  0  0  0  0  0  0  0  0  0  0  0
    8.2548  -18.5800   27.0491 C   0  0  1  0  0  0  0  0  0  0  0  0
    9.6243  -18.0868   27.4050 C   0  0  0  0  0  0  0  0  0  0  0  0
    9.6384  -16.9049   28.2858 C   0  0  0  0  0  0  0  0  0  0  0  0
    9.7764  -16.9368   29.6685 C   0  0  0  0  0  0  0  0  0  0  0  0
    9.7582  -15.6880   30.1073 N   0  0  0  0  0  0  0  0  0  0  0  0
    9.6153  -14.8167   29.0921 C   0  0  0  0  0  0  0  0  0  0  0  0
    9.5421  -13.4368   29.0773 C   0  0  0  0  0  0  0  0  0  0  0  0
    9.3865  -12.8208   27.8565 C   0  0  0  0  0  0  0  0  0  0  0  0
    9.3054  -13.5569   26.6777 C   0  0  0  0  0  0  0  0  0  0  0  0
    9.3822  -14.9231   26.7341 C   0  0  0  0  0  0  0  0  0  0  0  0
    9.5376  -15.5747   27.9295 C   0  0  0  0  0  0  0  0  0  0  0  0
    8.1262  -18.4150   25.5601 C   0  0  0  0  0  0  0  0  0  0  0  0
    8.5333  -19.3153   24.7888 O   0  0  0  0  0  0  0  0  0  0  0  0
    7.5516  -17.2542   25.0363 N   0  0  0  0  0  0  0  0  0  0  0  0
    7.7058  -16.9653   23.6012 C   0  0  1  0  0  0  0  0  0  0  0  0
    6.6963  -15.9011   23.3142 C   0  0  0  0  0  0  0  0  0  0  0  0
    6.7592  -15.4240   21.9285 C   0  0  0  0  0  0  0  0  0  0  0  0
    6.4234  -16.1450   20.7899 C   0  0  0  0  0  0  0  0  0  0  0  0
    6.6486  -15.3762   19.7150 N   0  0  0  0  0  0  0  0  0  0  0  0
    7.1210  -14.1725   20.1131 C   0  0  0  0  0  0  0  0  0  0  0  0
    7.4860  -13.0415   19.4138 C   0  0  0  0  0  0  0  0  0  0  0  0
    7.9287  -11.9059   20.0574 C   0  0  0  0  0  0  0  0  0  0  0  0
    8.0139  -11.8853   21.4336 C   0  0  0  0  0  0  0  0  0  0  0  0
    7.6464  -13.0216   22.1100 C   0  0  0  0  0  0  0  0  0  0  0  0
    7.1979  -14.1818   21.5026 C   0  0  0  0  0  0  0  0  0  0  0  0
    9.0966  -16.6347   23.3021 C   0  0  0  0  0  0  0  0  0  0  0  0
    9.6520  -15.6781   23.9071 O   0  0  0  0  0  0  0  0  0  0  0  0
    9.8396  -17.3549   22.3545 N   0  0  0  0  0  0  0  0  0  0  0  0
   11.1459  -16.9214   21.9215 C   0  0  1  0  0  0  0  0  0  0  0  0
   12.2203  -17.9307   22.2763 C   0  0  0  0  0  0  0  0  0  0  0  0
   11.4946  -19.5946   22.0092 S   0  0  0  0  0  0  0  0  0  0  0  0
   11.2019  -16.6953   20.4599 C   0  0  0  0  0  0  0  0  0  0  0  0
   12.3081  -16.1756   19.8155 O   0  0  0  0  0  0  0  0  0  0  0  0
   10.1918  -16.9915   19.7738 O   0  0  0  0  0  0  0  0  0  0  0  0
  2  1  1  6
  3  2  1  0
  4  5  2  0
  4  3  1  0
  6  5  1  0
  7 12  2  0
  7  6  1  0
  8  7  1  0
  9 10  1  0
  9  8  2  0
 10 11  2  0
 11 12  1  0
 12  4  1  0
 13  2  1  0
 14 13  2  0
 15 13  1  0
 16 27  1  0
 16 15  1  0
 16 17  1  1
 18 17  1  0
 19 18  2  0
 20 19  1  0
 21 20  1  0
 21 26  2  0
 22 21  1  0
 23 22  2  0
 23 24  1  0
 24 25  2  0
 25 26  1  0
 26 18  1  0
 27 29  1  0
 28 27  2  0
 29 30  1  0
 30 33  1  0
 30 31  1  6
 31 32  1  0
 33 35  2  0
 33 34  1  0
M  END
$$$$
