TLD.pdb
     RDKit          3D

 24 23  0  0  1  0  0  0  0  0999 V2000
   20.9074   -9.0567  -19.8047 C   0  0  0  0  0  0  0  0  0  0  0  0
   20.3854  -10.4121  -19.4543 C   0  0  1  0  0  0  0  0  0  0  0  0
   19.7890  -11.0981  -20.4876 O   0  0  0  0  0  0  0  0  0  0  0  0
   21.4172  -11.2611  -18.7082 C   0  0  2  0  0  0  0  0  0  0  0  0
   20.9008  -12.5669  -18.4462 N   0  0  0  0  0  0  0  0  0  0  0  0
   21.9024  -10.6108  -17.4868 C   0  0  0  0  0  0  0  0  0  0  0  0
   21.1719  -10.6207  -16.4726 O   0  0  0  0  0  0  0  0  0  0  0  0
   25.5701  -11.0629  -14.7445 C   0  0  0  0  0  0  0  0  0  0  0  0
   25.7782  -10.4648  -16.1160 C   0  0  2  0  0  0  0  0  0  0  0  0
   27.2842  -10.2751  -16.2762 C   0  0  0  0  0  0  0  0  0  0  0  0
   25.1297   -9.1415  -16.3047 C   0  0  0  0  0  0  0  0  0  0  0  0
   23.6315   -9.1953  -16.2881 C   0  0  2  0  0  0  0  0  0  0  0  0
   23.1519   -9.9847  -17.4301 N   0  0  0  0  0  0  0  0  0  0  0  0
   23.0291   -7.8387  -16.4129 C   0  0  0  0  0  0  0  0  0  0  0  0
   23.0783   -7.2297  -17.5065 O   0  0  0  0  0  0  0  0  0  0  0  0
   22.3946   -7.2044  -15.3273 N   0  0  0  0  0  0  0  0  0  0  0  0
   21.7350   -5.9255  -15.5415 C   0  0  1  0  0  0  0  0  0  0  0  0
   20.2377   -6.0826  -15.5126 C   0  0  0  0  0  0  0  0  0  0  0  0
   19.5880   -4.7666  -15.6517 C   0  0  0  0  0  0  0  0  0  0  0  0
   20.1989   -3.9464  -16.4335 O   0  0  0  0  0  0  0  0  0  0  0  0
   22.2077   -5.0655  -14.4207 C   0  0  0  0  0  0  0  0  0  0  0  0
   21.8311   -3.7488  -14.3073 O   0  0  0  0  0  0  0  0  0  0  0  0
   18.4398   -4.3361  -15.0536 O   0  0  0  0  0  0  0  0  0  0  0  0
   22.9771   -5.4971  -13.5162 O   0  0  0  0  0  0  0  0  0  0  0  0
  2  4  1  0
  2  1  1  6
  3  2  1  0
  4  5  1  1
  6  4  1  0
  6  7  2  0
  9  8  1  1
  9 11  1  0
  9 10  1  0
 12 11  1  6
 12 13  1  0
 13  6  1  0
 14 12  1  0
 15 14  2  0
 16 14  1  0
 17 16  1  0
 17 21  1  0
 17 18  1  1
 19 20  2  0
 19 18  1  0
 21 22  1  0
 23 19  1  0
 24 21  2  0
M  END
$$$$
