TLD.pdb
     RDKit          3D

 24 23  0  0  1  0  0  0  0  0999 V2000
   39.0826   -5.3203  -11.2874 C   0  0  0  0  0  0  0  0  0  0  0  0
   39.5720   -6.3017  -10.2726 C   0  0  1  0  0  0  0  0  0  0  0  0
   40.8164   -6.0352   -9.7488 O   0  0  0  0  0  0  0  0  0  0  0  0
   38.5311   -6.5895   -9.1883 C   0  0  2  0  0  0  0  0  0  0  0  0
   38.1599   -5.3862   -8.5139 N   0  0  0  0  0  0  0  0  0  0  0  0
   38.9692   -7.6281   -8.2504 C   0  0  0  0  0  0  0  0  0  0  0  0
   39.1635   -7.3132   -7.0565 O   0  0  0  0  0  0  0  0  0  0  0  0
   37.2914  -11.7936   -6.5073 C   0  0  0  0  0  0  0  0  0  0  0  0
   37.5822  -11.5625   -7.9715 C   0  0  2  0  0  0  0  0  0  0  0  0
   37.1368  -12.8270   -8.7012 C   0  0  0  0  0  0  0  0  0  0  0  0
   39.0196  -11.3428   -8.2765 C   0  0  0  0  0  0  0  0  0  0  0  0
   39.5563  -10.0443   -7.7535 C   0  0  2  0  0  0  0  0  0  0  0  0
   39.1735   -8.9510   -8.6563 N   0  0  0  0  0  0  0  0  0  0  0  0
   41.0442  -10.0505   -7.6833 C   0  0  0  0  0  0  0  0  0  0  0  0
   41.7208   -9.8418   -8.7167 O   0  0  0  0  0  0  0  0  0  0  0  0
   41.7306  -10.2860   -6.4763 N   0  0  0  0  0  0  0  0  0  0  0  0
   43.1845  -10.2378   -6.4675 C   0  0  1  0  0  0  0  0  0  0  0  0
   43.7063  -10.0387   -5.0690 C   0  0  0  0  0  0  0  0  0  0  0  0
   45.1771   -9.9417   -5.0866 C   0  0  0  0  0  0  0  0  0  0  0  0
   45.6745   -9.5282   -6.1997 O   0  0  0  0  0  0  0  0  0  0  0  0
   43.6084  -11.5558   -7.0175 C   0  0  0  0  0  0  0  0  0  0  0  0
   44.5597  -11.6588   -8.0038 O   0  0  0  0  0  0  0  0  0  0  0  0
   46.0445  -10.2382   -4.0762 O   0  0  0  0  0  0  0  0  0  0  0  0
   43.1194  -12.6469   -6.6093 O   0  0  0  0  0  0  0  0  0  0  0  0
  2  4  1  0
  2  1  1  1
  3  2  1  0
  4  5  1  1
  6  4  1  0
  6  7  2  0
  9  8  1  1
  9 11  1  0
  9 10  1  0
 12 11  1  6
 12 13  1  0
 13  6  1  0
 14 12  1  0
 15 14  2  0
 16 14  1  0
 17 16  1  0
 17 21  1  0
 17 18  1  1
 19 20  2  0
 19 18  1  0
 21 22  1  0
 23 19  1  0
 24 21  2  0
M  END
$$$$
