TLD.pdb
     RDKit          3D

 24 23  0  0  1  0  0  0  0  0999 V2000
   16.3702  -10.4815  -17.4478 C   0  0  0  0  0  0  0  0  0  0  0  0
   17.3797  -10.1643  -16.3929 C   0  0  1  0  0  0  0  0  0  0  0  0
   18.2059  -11.2058  -16.0371 O   0  0  0  0  0  0  0  0  0  0  0  0
   18.1552   -8.8796  -16.6932 C   0  0  2  0  0  0  0  0  0  0  0  0
   18.9710   -9.0431  -17.8543 N   0  0  0  0  0  0  0  0  0  0  0  0
   18.9324   -8.4104  -15.5416 C   0  0  0  0  0  0  0  0  0  0  0  0
   18.3325   -8.1723  -14.4713 O   0  0  0  0  0  0  0  0  0  0  0  0
   21.8852  -10.2938  -12.9366 C   0  0  0  0  0  0  0  0  0  0  0  0
   22.3747   -9.8905  -14.3076 C   0  0  2  0  0  0  0  0  0  0  0  0
   23.7780  -10.4740  -14.4499 C   0  0  0  0  0  0  0  0  0  0  0  0
   22.4697   -8.4216  -14.5092 C   0  0  0  0  0  0  0  0  0  0  0  0
   21.1424   -7.7244  -14.5045 C   0  0  2  0  0  0  0  0  0  0  0  0
   20.3169   -8.2240  -15.6118 N   0  0  0  0  0  0  0  0  0  0  0  0
   21.2901   -6.2551  -14.6998 C   0  0  0  0  0  0  0  0  0  0  0  0
   21.9468   -5.5768  -13.8765 O   0  0  0  0  0  0  0  0  0  0  0  0
   20.7086   -5.5886  -15.7958 N   0  0  0  0  0  0  0  0  0  0  0  0
   20.8788   -4.1493  -15.9208 C   0  0  1  0  0  0  0  0  0  0  0  0
   21.7151   -3.8106  -17.1263 C   0  0  0  0  0  0  0  0  0  0  0  0
   21.7755   -2.3487  -17.3059 C   0  0  0  0  0  0  0  0  0  0  0  0
   20.9788   -1.8849  -18.2044 O   0  0  0  0  0  0  0  0  0  0  0  0
   19.4944   -3.6168  -16.0593 C   0  0  0  0  0  0  0  0  0  0  0  0
   19.2344   -2.2676  -16.0819 O   0  0  0  0  0  0  0  0  0  0  0  0
   22.5671   -1.4588  -16.6404 O   0  0  0  0  0  0  0  0  0  0  0  0
   18.4873   -4.3727  -16.1635 O   0  0  0  0  0  0  0  0  0  0  0  0
  2  4  1  0
  2  1  1  6
  3  2  1  0
  4  5  1  6
  6  4  1  0
  6  7  2  0
  9  8  1  1
  9 11  1  0
  9 10  1  0
 12 11  1  6
 12 13  1  0
 13  6  1  0
 14 12  1  0
 15 14  2  0
 16 14  1  0
 17 16  1  0
 17 21  1  0
 17 18  1  6
 19 20  2  0
 19 18  1  0
 21 22  1  0
 23 19  1  0
 24 21  2  0
M  END
$$$$
