TLD.pdb
     RDKit          3D

 24 23  0  0  1  0  0  0  0  0999 V2000
   20.4311   -8.4585  -19.8248 C   0  0  0  0  0  0  0  0  0  0  0  0
   19.6397   -9.6524  -19.3994 C   0  0  1  0  0  0  0  0  0  0  0  0
   18.9880  -10.3177  -20.4126 O   0  0  0  0  0  0  0  0  0  0  0  0
   20.4429  -10.5969  -18.5023 C   0  0  2  0  0  0  0  0  0  0  0  0
   19.6780  -11.7600  -18.1824 N   0  0  0  0  0  0  0  0  0  0  0  0
   20.9530   -9.9310  -17.2995 C   0  0  0  0  0  0  0  0  0  0  0  0
   20.1488   -9.6469  -16.3859 O   0  0  0  0  0  0  0  0  0  0  0  0
   24.1144  -10.6520  -13.9150 C   0  0  0  0  0  0  0  0  0  0  0  0
   24.5770  -10.4511  -15.3389 C   0  0  2  0  0  0  0  0  0  0  0  0
   26.0891  -10.6588  -15.3310 C   0  0  0  0  0  0  0  0  0  0  0  0
   24.3065   -9.0934  -15.8781 C   0  0  0  0  0  0  0  0  0  0  0  0
   22.8483   -8.7940  -16.0565 C   0  0  2  0  0  0  0  0  0  0  0  0
   22.3061   -9.6087  -17.1516 N   0  0  0  0  0  0  0  0  0  0  0  0
   22.6181   -7.3678  -16.4195 C   0  0  0  0  0  0  0  0  0  0  0  0
   22.8326   -6.9770  -17.5902 O   0  0  0  0  0  0  0  0  0  0  0  0
   22.1596   -6.4258  -15.4783 N   0  0  0  0  0  0  0  0  0  0  0  0
   21.9194   -5.0563  -15.9064 C   0  0  1  0  0  0  0  0  0  0  0  0
   20.4753   -4.8577  -16.2838 C   0  0  0  0  0  0  0  0  0  0  0  0
   20.2473   -3.4608  -16.6958 C   0  0  0  0  0  0  0  0  0  0  0  0
   19.6099   -2.7449  -15.8364 O   0  0  0  0  0  0  0  0  0  0  0  0
   22.2871   -4.2231  -14.7275 C   0  0  0  0  0  0  0  0  0  0  0  0
   22.2955   -2.8500  -14.7832 O   0  0  0  0  0  0  0  0  0  0  0  0
   20.6277   -2.8625  -17.8614 O   0  0  0  0  0  0  0  0  0  0  0  0
   22.6098   -4.7302  -13.6162 O   0  0  0  0  0  0  0  0  0  0  0  0
  2  4  1  0
  2  1  1  6
  3  2  1  0
  4  5  1  1
  6  4  1  0
  6  7  2  0
  9  8  1  1
  9 11  1  0
  9 10  1  0
 12 11  1  6
 12 13  1  0
 13  6  1  0
 14 12  1  0
 15 14  2  0
 16 14  1  0
 17 16  1  0
 17 21  1  0
 17 18  1  1
 19 20  2  0
 19 18  1  0
 21 22  1  0
 23 19  1  0
 24 21  2  0
M  END
$$$$
