TLD.pdb
     RDKit          3D

 24 23  0  0  1  0  0  0  0  0999 V2000
   19.1438  -11.3121  -20.9204 C   0  0  0  0  0  0  0  0  0  0  0  0
   19.7060  -10.6544  -19.7023 C   0  0  1  0  0  0  0  0  0  0  0  0
   18.9357   -9.6459  -19.1697 O   0  0  0  0  0  0  0  0  0  0  0  0
   20.1550  -11.6666  -18.6459 C   0  0  2  0  0  0  0  0  0  0  0  0
   19.0521  -12.4627  -18.2098 N   0  0  0  0  0  0  0  0  0  0  0  0
   20.8500  -11.0333  -17.5206 C   0  0  0  0  0  0  0  0  0  0  0  0
   20.2036  -10.7879  -16.4794 O   0  0  0  0  0  0  0  0  0  0  0  0
   26.7542   -9.8659  -15.8683 C   0  0  0  0  0  0  0  0  0  0  0  0
   25.2724   -9.7106  -15.6198 C   0  0  2  0  0  0  0  0  0  0  0  0
   24.9963  -10.3527  -14.2628 C   0  0  0  0  0  0  0  0  0  0  0  0
   24.4149  -10.3874  -16.6268 C   0  0  0  0  0  0  0  0  0  0  0  0
   22.9564  -10.0681  -16.4904 C   0  0  2  0  0  0  0  0  0  0  0  0
   22.2069  -10.6999  -17.5841 N   0  0  0  0  0  0  0  0  0  0  0  0
   22.7018   -8.6030  -16.5775 C   0  0  0  0  0  0  0  0  0  0  0  0
   22.7264   -8.0281  -17.6901 O   0  0  0  0  0  0  0  0  0  0  0  0
   22.4290   -7.8266  -15.4345 N   0  0  0  0  0  0  0  0  0  0  0  0
   22.1592   -6.4058  -15.5915 C   0  0  1  0  0  0  0  0  0  0  0  0
   20.7929   -6.1814  -16.1833 C   0  0  0  0  0  0  0  0  0  0  0  0
   20.5036   -4.7377  -16.2559 C   0  0  0  0  0  0  0  0  0  0  0  0
   19.5823   -4.3338  -15.4525 O   0  0  0  0  0  0  0  0  0  0  0  0
   22.2458   -5.8511  -14.2117 C   0  0  0  0  0  0  0  0  0  0  0  0
   22.4841   -6.6522  -13.1209 O   0  0  0  0  0  0  0  0  0  0  0  0
   21.0912   -3.8091  -17.0645 O   0  0  0  0  0  0  0  0  0  0  0  0
   22.1058   -4.6191  -13.9689 O   0  0  0  0  0  0  0  0  0  0  0  0
  2  4  1  0
  2  1  1  6
  3  2  1  0
  4  5  1  1
  6  4  1  0
  6  7  2  0
  9  8  1  6
  9 11  1  0
  9 10  1  0
 12 11  1  6
 12 13  1  0
 13  6  1  0
 14 12  1  0
 15 14  2  0
 16 14  1  0
 17 16  1  0
 17 21  1  0
 17 18  1  1
 19 20  2  0
 19 18  1  0
 21 22  1  0
 23 19  1  0
 24 21  2  0
M  END
$$$$
