TLD.pdb
     RDKit          3D

 24 23  0  0  1  0  0  0  0  0999 V2000
   19.8163  -10.8541  -18.6510 C   0  0  0  0  0  0  0  0  0  0  0  0
   19.6886  -12.1983  -18.0112 C   0  0  1  0  0  0  0  0  0  0  0  0
   19.0197  -13.1430  -18.7555 O   0  0  0  0  0  0  0  0  0  0  0  0
   21.0228  -12.7177  -17.4708 C   0  0  2  0  0  0  0  0  0  0  0  0
   20.8632  -14.0164  -16.8978 N   0  0  0  0  0  0  0  0  0  0  0  0
   21.6524  -11.7814  -16.5341 C   0  0  0  0  0  0  0  0  0  0  0  0
   21.2005  -11.7030  -15.3714 O   0  0  0  0  0  0  0  0  0  0  0  0
   25.6650  -10.9228  -14.4189 C   0  0  0  0  0  0  0  0  0  0  0  0
   25.5932  -10.8018  -15.9228 C   0  0  2  0  0  0  0  0  0  0  0  0
   27.0169  -10.5253  -16.3985 C   0  0  0  0  0  0  0  0  0  0  0  0
   24.7294   -9.6915  -16.4009 C   0  0  0  0  0  0  0  0  0  0  0  0
   23.2746   -9.8829  -16.0934 C   0  0  2  0  0  0  0  0  0  0  0  0
   22.7368  -10.9807  -16.9075 N   0  0  0  0  0  0  0  0  0  0  0  0
   22.4771   -8.6677  -16.4195 C   0  0  0  0  0  0  0  0  0  0  0  0
   22.2970   -8.3390  -17.6147 O   0  0  0  0  0  0  0  0  0  0  0  0
   21.9077   -7.8607  -15.4155 N   0  0  0  0  0  0  0  0  0  0  0  0
   21.0360   -6.7615  -15.8003 C   0  0  1  0  0  0  0  0  0  0  0  0
   19.5881   -7.1536  -15.6687 C   0  0  0  0  0  0  0  0  0  0  0  0
   18.7861   -6.4852  -16.7094 C   0  0  0  0  0  0  0  0  0  0  0  0
   18.9681   -6.9380  -17.9007 O   0  0  0  0  0  0  0  0  0  0  0  0
   21.3826   -5.6590  -14.8603 C   0  0  0  0  0  0  0  0  0  0  0  0
   20.9026   -4.3825  -15.0299 O   0  0  0  0  0  0  0  0  0  0  0  0
   17.8969   -5.4630  -16.5489 O   0  0  0  0  0  0  0  0  0  0  0  0
   22.1333   -5.8356  -13.8595 O   0  0  0  0  0  0  0  0  0  0  0  0
  2  4  1  0
  2  1  1  6
  3  2  1  0
  4  5  1  1
  6  4  1  0
  6  7  2  0
  9  8  1  1
  9 11  1  0
  9 10  1  0
 12 11  1  6
 12 13  1  0
 13  6  1  0
 14 12  1  0
 15 14  2  0
 16 14  1  0
 17 16  1  0
 17 21  1  0
 17 18  1  1
 19 20  2  0
 19 18  1  0
 21 22  1  0
 23 19  1  0
 24 21  2  0
M  END
$$$$
