TLD.pdb
     RDKit          3D

 24 23  0  0  1  0  0  0  0  0999 V2000
   21.8134   -7.5227  -20.7867 C   0  0  0  0  0  0  0  0  0  0  0  0
   20.8907   -8.6519  -21.1123 C   0  0  1  0  0  0  0  0  0  0  0  0
   20.5148   -8.7424  -22.4330 O   0  0  0  0  0  0  0  0  0  0  0  0
   21.3819   -9.9885  -20.5517 C   0  0  2  0  0  0  0  0  0  0  0  0
   20.4835  -11.0424  -20.9015 N   0  0  0  0  0  0  0  0  0  0  0  0
   21.6259   -9.9362  -19.1067 C   0  0  0  0  0  0  0  0  0  0  0  0
   20.6435   -9.9066  -18.3344 O   0  0  0  0  0  0  0  0  0  0  0  0
   26.4941  -10.2382  -15.1883 C   0  0  0  0  0  0  0  0  0  0  0  0
   25.0593   -9.8583  -15.4692 C   0  0  2  0  0  0  0  0  0  0  0  0
   24.2026  -10.6854  -14.5143 C   0  0  0  0  0  0  0  0  0  0  0  0
   24.6138  -10.1560  -16.8549 C   0  0  0  0  0  0  0  0  0  0  0  0
   23.2332   -9.6605  -17.1650 C   0  0  2  0  0  0  0  0  0  0  0  0
   22.9201   -9.9183  -18.5766 N   0  0  0  0  0  0  0  0  0  0  0  0
   23.1141   -8.1907  -16.9539 C   0  0  0  0  0  0  0  0  0  0  0  0
   23.6875   -7.3973  -17.7355 O   0  0  0  0  0  0  0  0  0  0  0  0
   22.3669   -7.6507  -15.8892 N   0  0  0  0  0  0  0  0  0  0  0  0
   22.2806   -6.2056  -15.7461 C   0  0  1  0  0  0  0  0  0  0  0  0
   20.9492   -5.6969  -16.2319 C   0  0  0  0  0  0  0  0  0  0  0  0
   21.1421   -4.7831  -17.3724 C   0  0  0  0  0  0  0  0  0  0  0  0
   22.3715   -4.5106  -17.6399 O   0  0  0  0  0  0  0  0  0  0  0  0
   22.4501   -5.9608  -14.2864 C   0  0  0  0  0  0  0  0  0  0  0  0
   22.3565   -6.9755  -13.3645 O   0  0  0  0  0  0  0  0  0  0  0  0
   20.1815   -4.2085  -18.1524 O   0  0  0  0  0  0  0  0  0  0  0  0
   22.6886   -4.8121  -13.8174 O   0  0  0  0  0  0  0  0  0  0  0  0
  2  4  1  0
  2  1  1  6
  3  2  1  0
  4  5  1  1
  6  4  1  0
  6  7  2  0
  9  8  1  6
  9 11  1  0
  9 10  1  0
 12 11  1  6
 12 13  1  0
 13  6  1  0
 14 12  1  0
 15 14  2  0
 16 14  1  0
 17 16  1  0
 17 21  1  0
 17 18  1  1
 19 20  2  0
 19 18  1  0
 21 22  1  0
 23 19  1  0
 24 21  2  0
M  END
$$$$
