TLD.pdb
     RDKit          3D

 24 23  0  0  1  0  0  0  0  0999 V2000
   27.2559  -22.3665  -16.4926 C   0  0  0  0  0  0  0  0  0  0  0  0
   27.6726  -21.2458  -15.5965 C   0  0  1  0  0  0  0  0  0  0  0  0
   28.7688  -20.5300  -16.0205 O   0  0  0  0  0  0  0  0  0  0  0  0
   26.5004  -20.3427  -15.2061 C   0  0  2  0  0  0  0  0  0  0  0  0
   26.9720  -19.1406  -14.5955 N   0  0  0  0  0  0  0  0  0  0  0  0
   25.5157  -21.0318  -14.3660 C   0  0  0  0  0  0  0  0  0  0  0  0
   24.9928  -22.0826  -14.7957 O   0  0  0  0  0  0  0  0  0  0  0  0
   27.1857  -21.2785  -11.0306 C   0  0  0  0  0  0  0  0  0  0  0  0
   25.9339  -20.5407  -10.6176 C   0  0  2  0  0  0  0  0  0  0  0  0
   26.0597  -20.2906   -9.1172 C   0  0  0  0  0  0  0  0  0  0  0  0
   24.6784  -21.3007  -10.8491 C   0  0  0  0  0  0  0  0  0  0  0  0
   24.1384  -21.1651  -12.2411 C   0  0  2  0  0  0  0  0  0  0  0  0
   25.1503  -20.5453  -13.1064 N   0  0  0  0  0  0  0  0  0  0  0  0
   22.9342  -20.2892  -12.2829 C   0  0  0  0  0  0  0  0  0  0  0  0
   23.0581  -19.0482  -12.1667 O   0  0  0  0  0  0  0  0  0  0  0  0
   21.6384  -20.8145  -12.4517 N   0  0  0  0  0  0  0  0  0  0  0  0
   20.6721  -20.0735  -13.2477 C   0  0  1  0  0  0  0  0  0  0  0  0
   21.1813  -19.8614  -14.6488 C   0  0  0  0  0  0  0  0  0  0  0  0
   20.1537  -19.1890  -15.4643 C   0  0  0  0  0  0  0  0  0  0  0  0
   19.5654  -18.2037  -14.8809 O   0  0  0  0  0  0  0  0  0  0  0  0
   19.4488  -20.9236  -13.2425 C   0  0  0  0  0  0  0  0  0  0  0  0
   19.4656  -22.2227  -13.6901 O   0  0  0  0  0  0  0  0  0  0  0  0
   19.7683  -19.4935  -16.7371 O   0  0  0  0  0  0  0  0  0  0  0  0
   18.3332  -20.4993  -12.8280 O   0  0  0  0  0  0  0  0  0  0  0  0
  2  4  1  0
  2  1  1  6
  3  2  1  0
  4  5  1  1
  6  4  1  0
  6  7  2  0
  9  8  1  1
  9 11  1  0
  9 10  1  0
 12 11  1  1
 12 13  1  0
 13  6  1  0
 14 12  1  0
 15 14  2  0
 16 14  1  0
 17 16  1  0
 17 21  1  0
 17 18  1  6
 19 20  2  0
 19 18  1  0
 21 22  1  0
 23 19  1  0
 24 21  2  0
M  END
$$$$
