TLD.pdb
     RDKit          3D

 24 23  0  0  1  0  0  0  0  0999 V2000
   18.9528  -33.8087  -10.8391 C   0  0  0  0  0  0  0  0  0  0  0  0
   20.2753  -34.4330  -11.1452 C   0  0  1  0  0  0  0  0  0  0  0  0
   20.7390  -34.2310  -12.4251 O   0  0  0  0  0  0  0  0  0  0  0  0
   21.3314  -34.1151  -10.0842 C   0  0  2  0  0  0  0  0  0  0  0  0
   21.5209  -32.7040   -9.9686 N   0  0  0  0  0  0  0  0  0  0  0  0
   22.5961  -34.8181  -10.3220 C   0  0  0  0  0  0  0  0  0  0  0  0
   22.5906  -36.0677  -10.3490 O   0  0  0  0  0  0  0  0  0  0  0  0
   25.5735  -35.6713  -13.7237 C   0  0  0  0  0  0  0  0  0  0  0  0
   25.3293  -34.2598  -13.2444 C   0  0  2  0  0  0  0  0  0  0  0  0
   26.1014  -33.3462  -14.1926 C   0  0  0  0  0  0  0  0  0  0  0  0
   25.8122  -33.9965  -11.8643 C   0  0  0  0  0  0  0  0  0  0  0  0
   25.0839  -34.7759  -10.8107 C   0  0  2  0  0  0  0  0  0  0  0  0
   23.7980  -34.1298  -10.5173 N   0  0  0  0  0  0  0  0  0  0  0  0
   25.8483  -34.8248   -9.5332 C   0  0  0  0  0  0  0  0  0  0  0  0
   26.9809  -35.3590   -9.5010 O   0  0  0  0  0  0  0  0  0  0  0  0
   25.3355  -34.2824   -8.3388 N   0  0  0  0  0  0  0  0  0  0  0  0
   26.1092  -34.4105   -7.1135 C   0  0  1  0  0  0  0  0  0  0  0  0
   26.0564  -33.1380   -6.3102 C   0  0  0  0  0  0  0  0  0  0  0  0
   26.7221  -33.3327   -5.0094 C   0  0  0  0  0  0  0  0  0  0  0  0
   27.4200  -34.4107   -4.9197 O   0  0  0  0  0  0  0  0  0  0  0  0
   25.4685  -35.5374   -6.3795 C   0  0  0  0  0  0  0  0  0  0  0  0
   26.1621  -36.2989   -5.4698 O   0  0  0  0  0  0  0  0  0  0  0  0
   26.6763  -32.5146   -3.9185 O   0  0  0  0  0  0  0  0  0  0  0  0
   24.2574  -35.8538   -6.5515 O   0  0  0  0  0  0  0  0  0  0  0  0
  2  4  1  0
  2  1  1  1
  3  2  1  0
  4  5  1  6
  6  4  1  0
  6  7  2  0
  9  8  1  6
  9 11  1  0
  9 10  1  0
 12 11  1  6
 12 13  1  0
 13  6  1  0
 14 12  1  0
 15 14  2  0
 16 14  1  0
 17 16  1  0
 17 21  1  0
 17 18  1  1
 19 20  2  0
 19 18  1  0
 21 22  1  0
 23 19  1  0
 24 21  2  0
M  END
$$$$
