TLD.pdb
     RDKit          3D

 24 23  0  0  1  0  0  0  0  0999 V2000
   23.5524   -7.5649  -20.8460 C   0  0  0  0  0  0  0  0  0  0  0  0
   22.6107   -8.7217  -20.9326 C   0  0  1  0  0  0  0  0  0  0  0  0
   22.2934   -9.1278  -22.2087 O   0  0  0  0  0  0  0  0  0  0  0  0
   23.0335   -9.8881  -20.0366 C   0  0  2  0  0  0  0  0  0  0  0  0
   22.1825  -11.0166  -20.2432 N   0  0  0  0  0  0  0  0  0  0  0  0
   23.1067   -9.5115  -18.6213 C   0  0  0  0  0  0  0  0  0  0  0  0
   22.0456   -9.4437  -17.9641 O   0  0  0  0  0  0  0  0  0  0  0  0
   25.2650  -11.4010  -15.1163 C   0  0  0  0  0  0  0  0  0  0  0  0
   26.1178  -10.6114  -16.0813 C   0  0  2  0  0  0  0  0  0  0  0  0
   27.5631  -10.7992  -15.6279 C   0  0  0  0  0  0  0  0  0  0  0  0
   25.8294   -9.1539  -16.0921 C   0  0  0  0  0  0  0  0  0  0  0  0
   24.4576   -8.8135  -16.5920 C   0  0  2  0  0  0  0  0  0  0  0  0
   24.3248   -9.2284  -17.9946 N   0  0  0  0  0  0  0  0  0  0  0  0
   24.2015   -7.3468  -16.5456 C   0  0  0  0  0  0  0  0  0  0  0  0
   24.6591   -6.6025  -17.4432 O   0  0  0  0  0  0  0  0  0  0  0  0
   23.4502   -6.7557  -15.5114 N   0  0  0  0  0  0  0  0  0  0  0  0
   23.0374   -5.3667  -15.6408 C   0  0  1  0  0  0  0  0  0  0  0  0
   22.1795   -5.1737  -16.8632 C   0  0  0  0  0  0  0  0  0  0  0  0
   21.6570   -3.7958  -16.9023 C   0  0  0  0  0  0  0  0  0  0  0  0
   22.4787   -2.8981  -16.4825 O   0  0  0  0  0  0  0  0  0  0  0  0
   22.2709   -5.0838  -14.3952 C   0  0  0  0  0  0  0  0  0  0  0  0
   21.9497   -3.8028  -14.0156 O   0  0  0  0  0  0  0  0  0  0  0  0
   20.4268   -3.3821  -17.3226 O   0  0  0  0  0  0  0  0  0  0  0  0
   21.8753   -6.0018  -13.6224 O   0  0  0  0  0  0  0  0  0  0  0  0
  2  4  1  0
  2  1  1  6
  3  2  1  0
  4  5  1  1
  6  4  1  0
  6  7  2  0
  9  8  1  1
  9 11  1  0
  9 10  1  0
 12 11  1  6
 12 13  1  0
 13  6  1  0
 14 12  1  0
 15 14  2  0
 16 14  1  0
 17 16  1  0
 17 21  1  0
 17 18  1  6
 19 20  2  0
 19 18  1  0
 21 22  1  0
 23 19  1  0
 24 21  2  0
M  END
$$$$
