TLD.pdb
     RDKit          3D

 24 23  0  0  1  0  0  0  0  0999 V2000
   28.1284  -17.4719  -15.7271 C   0  0  0  0  0  0  0  0  0  0  0  0
   27.0079  -18.3769  -15.3296 C   0  0  1  0  0  0  0  0  0  0  0  0
   26.0332  -18.5604  -16.2837 O   0  0  0  0  0  0  0  0  0  0  0  0
   27.5051  -19.6989  -14.7406 C   0  0  2  0  0  0  0  0  0  0  0  0
   28.1768  -20.4730  -15.7355 N   0  0  0  0  0  0  0  0  0  0  0  0
   26.4358  -20.4601  -14.0866 C   0  0  0  0  0  0  0  0  0  0  0  0
   26.0685  -21.5387  -14.6002 O   0  0  0  0  0  0  0  0  0  0  0  0
   26.1517  -22.1515   -9.9128 C   0  0  0  0  0  0  0  0  0  0  0  0
   25.9094  -20.6637  -10.0114 C   0  0  2  0  0  0  0  0  0  0  0  0
   25.7237  -20.1646   -8.5809 C   0  0  0  0  0  0  0  0  0  0  0  0
   24.6937  -20.2976  -10.7830 C   0  0  0  0  0  0  0  0  0  0  0  0
   24.7398  -20.7229  -12.2200 C   0  0  2  0  0  0  0  0  0  0  0  0
   25.8222  -20.0116  -12.9123 N   0  0  0  0  0  0  0  0  0  0  0  0
   23.4750  -20.3924  -12.9341 C   0  0  0  0  0  0  0  0  0  0  0  0
   23.1177  -19.1979  -13.0549 O   0  0  0  0  0  0  0  0  0  0  0  0
   22.6516  -21.3914  -13.4887 N   0  0  0  0  0  0  0  0  0  0  0  0
   21.4561  -20.9989  -14.2189 C   0  0  1  0  0  0  0  0  0  0  0  0
   21.2291  -21.9026  -15.4018 C   0  0  0  0  0  0  0  0  0  0  0  0
   19.9895  -21.5190  -16.1013 C   0  0  0  0  0  0  0  0  0  0  0  0
   19.0618  -22.4112  -16.0776 O   0  0  0  0  0  0  0  0  0  0  0  0
   20.3513  -21.1225  -13.2273 C   0  0  0  0  0  0  0  0  0  0  0  0
   20.5600  -21.6303  -11.9675 O   0  0  0  0  0  0  0  0  0  0  0  0
   19.7287  -20.3508  -16.7560 O   0  0  0  0  0  0  0  0  0  0  0  0
   19.1668  -20.7687  -13.4882 O   0  0  0  0  0  0  0  0  0  0  0  0
  2  4  1  0
  2  1  1  6
  3  2  1  0
  4  5  1  6
  6  4  1  0
  6  7  2  0
  9  8  1  1
  9 11  1  0
  9 10  1  0
 12 11  1  1
 12 13  1  0
 13  6  1  0
 14 12  1  0
 15 14  2  0
 16 14  1  0
 17 16  1  0
 17 21  1  0
 17 18  1  6
 19 20  2  0
 19 18  1  0
 21 22  1  0
 23 19  1  0
 24 21  2  0
M  END
$$$$
