QLQ.pdb
     RDKit          3D

 27 26  0  0  1  0  0  0  0  0999 V2000
   30.2653  -21.1449  -18.7495 N   0  0  0  0  0  0  0  0  0  0  0  0
   29.2979  -20.4571  -19.5620 C   0  0  0  0  0  0  0  0  0  0  0  0
   29.7072  -19.6748  -20.4560 O   0  0  0  0  0  0  0  0  0  0  0  0
   27.8881  -20.7212  -19.2776 C   0  0  0  0  0  0  0  0  0  0  0  0
   27.6280  -21.3063  -17.9337 C   0  0  0  0  0  0  0  0  0  0  0  0
   27.2679  -20.2742  -16.9348 C   0  0  2  0  0  0  0  0  0  0  0  0
   28.3373  -19.3506  -16.6855 N   0  0  0  0  0  0  0  0  0  0  0  0
   26.9012  -20.8827  -15.6052 C   0  0  0  0  0  0  0  0  0  0  0  0
   26.2918  -21.9668  -15.5733 O   0  0  0  0  0  0  0  0  0  0  0  0
   29.3009  -22.4825  -11.8878 C   0  0  0  0  0  0  0  0  0  0  0  0
   29.2177  -20.9898  -12.0780 C   0  0  2  0  0  0  0  0  0  0  0  0
   29.9859  -20.3721  -10.8931 C   0  0  0  0  0  0  0  0  0  0  0  0
   27.8511  -20.4354  -12.0086 C   0  0  0  0  0  0  0  0  0  0  0  0
   26.9183  -20.6656  -13.1308 C   0  0  2  0  0  0  0  0  0  0  0  0
   27.2785  -20.1714  -14.4143 N   0  0  0  0  0  0  0  0  0  0  0  0
   25.5307  -20.1785  -12.8474 C   0  0  0  0  0  0  0  0  0  0  0  0
   25.2401  -18.9403  -12.8180 O   0  0  0  0  0  0  0  0  0  0  0  0
   21.2395  -22.8556  -15.5954 N   0  0  0  0  0  0  0  0  0  0  0  0
   20.3603  -22.1622  -14.7412 C   0  0  0  0  0  0  0  0  0  0  0  0
   19.1069  -22.2496  -14.9837 O   0  0  0  0  0  0  0  0  0  0  0  0
   20.8924  -21.3767  -13.6120 C   0  0  0  0  0  0  0  0  0  0  0  0
   22.3602  -21.4662  -13.5239 C   0  0  0  0  0  0  0  0  0  0  0  0
   23.0633  -20.6648  -12.4695 C   0  0  2  0  0  0  0  0  0  0  0  0
   24.4864  -21.0823  -12.6006 N   0  0  0  0  0  0  0  0  0  0  0  0
   22.5880  -20.7176  -11.1159 C   0  0  0  0  0  0  0  0  0  0  0  0
   21.4353  -20.0735  -10.7140 O   0  0  0  0  0  0  0  0  0  0  0  0
   23.2379  -21.3688  -10.2340 O   0  0  0  0  0  0  0  0  0  0  0  0
  2  1  1  0
  3  2  2  0
  4  2  1  0
  5  4  1  0
  6  7  1  1
  6  5  1  0
  8  6  1  0
  9  8  2  0
 11 10  1  1
 12 11  1  0
 13 11  1  0
 14 13  1  1
 14 15  1  0
 15  8  1  0
 16 24  1  0
 16 14  1  0
 17 16  2  0
 18 19  1  0
 19 21  1  0
 20 19  2  0
 21 22  1  0
 23 22  1  6
 23 24  1  0
 23 25  1  0
 25 26  1  0
 27 25  2  0
M  END
$$$$
