QLQ.pdb
     RDKit          3D

 27 26  0  0  1  0  0  0  0  0999 V2000
   28.6113  -16.5048  -16.9747 N   0  0  0  0  0  0  0  0  0  0  0  0
   27.2870  -16.8256  -17.4354 C   0  0  0  0  0  0  0  0  0  0  0  0
   26.3636  -15.9953  -17.2442 O   0  0  0  0  0  0  0  0  0  0  0  0
   27.1122  -18.1174  -18.0979 C   0  0  0  0  0  0  0  0  0  0  0  0
   26.3154  -19.1068  -17.3219 C   0  0  0  0  0  0  0  0  0  0  0  0
   26.9428  -19.4328  -16.0209 C   0  0  2  0  0  0  0  0  0  0  0  0
   28.1427  -20.2061  -16.1653 N   0  0  0  0  0  0  0  0  0  0  0  0
   26.0182  -20.2279  -15.1346 C   0  0  0  0  0  0  0  0  0  0  0  0
   25.2912  -21.1047  -15.6352 O   0  0  0  0  0  0  0  0  0  0  0  0
   27.5440  -22.2957  -11.3202 C   0  0  0  0  0  0  0  0  0  0  0  0
   27.0148  -20.9138  -11.0344 C   0  0  2  0  0  0  0  0  0  0  0  0
   27.0832  -20.7462   -9.5037 C   0  0  0  0  0  0  0  0  0  0  0  0
   25.5998  -20.7080  -11.4020 C   0  0  0  0  0  0  0  0  0  0  0  0
   25.2175  -20.6895  -12.8290 C   0  0  2  0  0  0  0  0  0  0  0  0
   26.0179  -19.9326  -13.7278 N   0  0  0  0  0  0  0  0  0  0  0  0
   23.7966  -20.2706  -13.0485 C   0  0  0  0  0  0  0  0  0  0  0  0
   23.4583  -19.0483  -13.1485 O   0  0  0  0  0  0  0  0  0  0  0  0
   17.6359  -23.3065  -15.7185 N   0  0  0  0  0  0  0  0  0  0  0  0
   18.9738  -23.1379  -15.3117 C   0  0  0  0  0  0  0  0  0  0  0  0
   19.8280  -24.0026  -15.7117 O   0  0  0  0  0  0  0  0  0  0  0  0
   19.3492  -21.9934  -14.4607 C   0  0  0  0  0  0  0  0  0  0  0  0
   20.7962  -21.9644  -14.1858 C   0  0  0  0  0  0  0  0  0  0  0  0
   21.3388  -20.8618  -13.3267 C   0  0  2  0  0  0  0  0  0  0  0  0
   22.7725  -21.2238  -13.1534 N   0  0  0  0  0  0  0  0  0  0  0  0
   20.6860  -20.5547  -12.0856 C   0  0  0  0  0  0  0  0  0  0  0  0
   19.5055  -19.8417  -12.0306 O   0  0  0  0  0  0  0  0  0  0  0  0
   21.1970  -20.9355  -10.9820 O   0  0  0  0  0  0  0  0  0  0  0  0
  2  1  1  0
  3  2  2  0
  4  2  1  0
  5  4  1  0
  6  7  1  6
  6  5  1  0
  8  6  1  0
  9  8  2  0
 11 10  1  1
 12 11  1  0
 13 11  1  0
 14 13  1  1
 14 15  1  0
 15  8  1  0
 16 24  1  0
 16 14  1  0
 17 16  2  0
 18 19  1  0
 19 21  1  0
 20 19  2  0
 21 22  1  0
 23 22  1  1
 23 24  1  0
 23 25  1  0
 25 26  1  0
 27 25  2  0
M  END
$$$$
