QLQ.pdb
     RDKit          3D

 27 26  0  0  1  0  0  0  0  0999 V2000
   19.2852  -18.4475  -11.5352 N   0  0  0  0  0  0  0  0  0  0  0  0
   18.9679  -19.7473  -11.0073 C   0  0  0  0  0  0  0  0  0  0  0  0
   17.7641  -20.0323  -10.7875 O   0  0  0  0  0  0  0  0  0  0  0  0
   20.0896  -20.6515  -10.7576 C   0  0  0  0  0  0  0  0  0  0  0  0
   21.4303  -20.0590  -11.0172 C   0  0  0  0  0  0  0  0  0  0  0  0
   21.8795  -20.2811  -12.4106 C   0  0  2  0  0  0  0  0  0  0  0  0
   21.8637  -21.6672  -12.7811 N   0  0  0  0  0  0  0  0  0  0  0  0
   23.2869  -19.7887  -12.6326 C   0  0  0  0  0  0  0  0  0  0  0  0
   23.5794  -18.6145  -12.3434 O   0  0  0  0  0  0  0  0  0  0  0  0
   29.0990  -21.4209  -12.2381 C   0  0  0  0  0  0  0  0  0  0  0  0
   28.0733  -20.6597  -13.0380 C   0  0  2  0  0  0  0  0  0  0  0  0
   28.2631  -19.1771  -12.6618 C   0  0  0  0  0  0  0  0  0  0  0  0
   26.6711  -20.9851  -12.7096 C   0  0  0  0  0  0  0  0  0  0  0  0
   25.5802  -20.3034  -13.4362 C   0  0  2  0  0  0  0  0  0  0  0  0
   24.2436  -20.7130  -13.1773 N   0  0  0  0  0  0  0  0  0  0  0  0
   25.7648  -20.3243  -14.9223 C   0  0  0  0  0  0  0  0  0  0  0  0
   25.7288  -21.4038  -15.5944 O   0  0  0  0  0  0  0  0  0  0  0  0
   23.0145  -16.6792  -18.5616 N   0  0  0  0  0  0  0  0  0  0  0  0
   22.6276  -17.8463  -17.8747 C   0  0  0  0  0  0  0  0  0  0  0  0
   21.3749  -18.0501  -17.7120 O   0  0  0  0  0  0  0  0  0  0  0  0
   23.6507  -18.7852  -17.3777 C   0  0  0  0  0  0  0  0  0  0  0  0
   25.0158  -18.2758  -17.5954 C   0  0  0  0  0  0  0  0  0  0  0  0
   26.1718  -19.1006  -17.1142 C   0  0  2  0  0  0  0  0  0  0  0  0
   25.9871  -19.1379  -15.6373 N   0  0  0  0  0  0  0  0  0  0  0  0
   27.5043  -18.7328  -17.5015 C   0  0  0  0  0  0  0  0  0  0  0  0
   28.0739  -19.1637  -18.6826 O   0  0  0  0  0  0  0  0  0  0  0  0
   28.2095  -17.9898  -16.7433 O   0  0  0  0  0  0  0  0  0  0  0  0
  2  1  1  0
  3  2  2  0
  4  2  1  0
  5  4  1  0
  6  7  1  1
  6  5  1  0
  8  6  1  0
  9  8  2  0
 11 10  1  1
 12 11  1  0
 13 11  1  0
 14 13  1  1
 14 15  1  0
 15  8  1  0
 16 24  1  0
 16 14  1  0
 17 16  2  0
 18 19  1  0
 19 21  1  0
 20 19  2  0
 21 22  1  0
 23 22  1  6
 23 24  1  0
 23 25  1  0
 25 26  1  0
 27 25  2  0
M  END
$$$$
