QLQ.pdb
     RDKit          3D

 27 26  0  0  1  0  0  0  0  0999 V2000
   28.4768  -23.6188  -17.8456 N   0  0  0  0  0  0  0  0  0  0  0  0
   27.5682  -24.5032  -17.1664 C   0  0  0  0  0  0  0  0  0  0  0  0
   27.9759  -25.1273  -16.1550 O   0  0  0  0  0  0  0  0  0  0  0  0
   26.2181  -24.6145  -17.7169 C   0  0  0  0  0  0  0  0  0  0  0  0
   25.1388  -24.1443  -16.8058 C   0  0  0  0  0  0  0  0  0  0  0  0
   25.3148  -22.7268  -16.4153 C   0  0  2  0  0  0  0  0  0  0  0  0
   26.6495  -22.4373  -15.9754 N   0  0  0  0  0  0  0  0  0  0  0  0
   24.3923  -22.3355  -15.2891 C   0  0  0  0  0  0  0  0  0  0  0  0
   23.3130  -22.9367  -15.1423 O   0  0  0  0  0  0  0  0  0  0  0  0
   24.8681  -22.1640  -10.5587 C   0  0  0  0  0  0  0  0  0  0  0  0
   25.5298  -21.0783  -11.3679 C   0  0  2  0  0  0  0  0  0  0  0  0
   26.1773  -20.1263  -10.3431 C   0  0  0  0  0  0  0  0  0  0  0  0
   24.6013  -20.2490  -12.1616 C   0  0  0  0  0  0  0  0  0  0  0  0
   23.9657  -20.8233  -13.3652 C   0  0  2  0  0  0  0  0  0  0  0  0
   24.8078  -21.2678  -14.4210 N   0  0  0  0  0  0  0  0  0  0  0  0
   22.9407  -19.9170  -13.9743 C   0  0  0  0  0  0  0  0  0  0  0  0
   23.2527  -18.9959  -14.7946 O   0  0  0  0  0  0  0  0  0  0  0  0
   21.3631  -19.9603  -18.4107 N   0  0  0  0  0  0  0  0  0  0  0  0
   20.2240  -19.1747  -18.1480 C   0  0  0  0  0  0  0  0  0  0  0  0
   19.5298  -18.7844  -19.1496 O   0  0  0  0  0  0  0  0  0  0  0  0
   19.8644  -18.8351  -16.7586 C   0  0  0  0  0  0  0  0  0  0  0  0
   20.7665  -19.4752  -15.7855 C   0  0  0  0  0  0  0  0  0  0  0  0
   20.5082  -19.2627  -14.3239 C   0  0  2  0  0  0  0  0  0  0  0  0
   21.5805  -20.0526  -13.6584 N   0  0  0  0  0  0  0  0  0  0  0  0
   19.2020  -19.5379  -13.7958 C   0  0  0  0  0  0  0  0  0  0  0  0
   18.1831  -18.6073  -13.8277 O   0  0  0  0  0  0  0  0  0  0  0  0
   18.9504  -20.6700  -13.2675 O   0  0  0  0  0  0  0  0  0  0  0  0
  2  1  1  0
  3  2  2  0
  4  2  1  0
  5  4  1  0
  6  7  1  1
  6  5  1  0
  8  6  1  0
  9  8  2  0
 11 10  1  1
 12 11  1  0
 13 11  1  0
 14 13  1  1
 14 15  1  0
 15  8  1  0
 16 24  1  0
 16 14  1  0
 17 16  2  0
 18 19  1  0
 19 21  1  0
 20 19  2  0
 21 22  1  0
 23 22  1  6
 23 24  1  0
 23 25  1  0
 25 26  1  0
 27 25  2  0
M  END
$$$$
