QLQ.pdb
     RDKit          3D

 27 26  0  0  1  0  0  0  0  0999 V2000
   16.4091  -15.1386  -16.6599 N   0  0  0  0  0  0  0  0  0  0  0  0
   17.8001  -14.7736  -16.6932 C   0  0  0  0  0  0  0  0  0  0  0  0
   18.6615  -15.6545  -16.4472 O   0  0  0  0  0  0  0  0  0  0  0  0
   18.1108  -13.3805  -17.0113 C   0  0  0  0  0  0  0  0  0  0  0  0
   19.0285  -12.7163  -16.0456 C   0  0  0  0  0  0  0  0  0  0  0  0
   19.3476  -11.3261  -16.4433 C   0  0  2  0  0  0  0  0  0  0  0  0
   20.0182  -11.2545  -17.7097 N   0  0  0  0  0  0  0  0  0  0  0  0
   20.2428  -10.6458  -15.4391 C   0  0  0  0  0  0  0  0  0  0  0  0
   19.9245  -10.6414  -14.2364 O   0  0  0  0  0  0  0  0  0  0  0  0
   24.6005  -11.5521  -14.2891 C   0  0  0  0  0  0  0  0  0  0  0  0
   24.4273  -10.7222  -15.5351 C   0  0  2  0  0  0  0  0  0  0  0  0
   25.8521  -10.4102  -16.0333 C   0  0  0  0  0  0  0  0  0  0  0  0
   23.7780   -9.4140  -15.3183 C   0  0  0  0  0  0  0  0  0  0  0  0
   22.3301   -9.3631  -15.0291 C   0  0  2  0  0  0  0  0  0  0  0  0
   21.4440  -10.0225  -15.9242 N   0  0  0  0  0  0  0  0  0  0  0  0
   21.8173   -7.9670  -14.8539 C   0  0  0  0  0  0  0  0  0  0  0  0
   22.2548   -7.1938  -13.9434 O   0  0  0  0  0  0  0  0  0  0  0  0
   22.2362   -3.7109  -18.3354 N   0  0  0  0  0  0  0  0  0  0  0  0
   20.8381   -3.7859  -18.4885 C   0  0  0  0  0  0  0  0  0  0  0  0
   20.3137   -3.1436  -19.4631 O   0  0  0  0  0  0  0  0  0  0  0  0
   20.0333   -4.5883  -17.5485 C   0  0  0  0  0  0  0  0  0  0  0  0
   20.8728   -5.2612  -16.5422 C   0  0  0  0  0  0  0  0  0  0  0  0
   20.2027   -6.1137  -15.5066 C   0  0  2  0  0  0  0  0  0  0  0  0
   20.8222   -7.4538  -15.6993 N   0  0  0  0  0  0  0  0  0  0  0  0
   18.7688   -6.1624  -15.4600 C   0  0  0  0  0  0  0  0  0  0  0  0
   18.0071   -5.0816  -15.0638 O   0  0  0  0  0  0  0  0  0  0  0  0
   18.1535   -7.2306  -15.7835 O   0  0  0  0  0  0  0  0  0  0  0  0
  2  1  1  0
  3  2  2  0
  4  2  1  0
  5  4  1  0
  6  7  1  6
  6  5  1  0
  8  6  1  0
  9  8  2  0
 11 10  1  1
 12 11  1  0
 13 11  1  0
 14 13  1  6
 14 15  1  0
 15  8  1  0
 16 24  1  0
 16 14  1  0
 17 16  2  0
 18 19  1  0
 19 21  1  0
 20 19  2  0
 21 22  1  0
 23 22  1  6
 23 24  1  0
 23 25  1  0
 25 26  1  0
 27 25  2  0
M  END
$$$$
