QLQ.pdb
     RDKit          3D

 27 26  0  0  1  0  0  0  0  0999 V2000
   18.2326  -24.8311  -10.8844 N   0  0  0  0  0  0  0  0  0  0  0  0
   18.4400  -24.0693  -12.0867 C   0  0  0  0  0  0  0  0  0  0  0  0
   19.0795  -24.5950  -13.0319 O   0  0  0  0  0  0  0  0  0  0  0  0
   17.8858  -22.7164  -12.1161 C   0  0  0  0  0  0  0  0  0  0  0  0
   18.8572  -21.6594  -12.5100 C   0  0  0  0  0  0  0  0  0  0  0  0
   19.9435  -21.5001  -11.5164 C   0  0  2  0  0  0  0  0  0  0  0  0
   19.4875  -20.9122  -10.2896 N   0  0  0  0  0  0  0  0  0  0  0  0
   21.0531  -20.6201  -12.0331 C   0  0  0  0  0  0  0  0  0  0  0  0
   20.9181  -19.3836  -12.0087 O   0  0  0  0  0  0  0  0  0  0  0  0
   25.0639  -19.9913  -10.3448 C   0  0  0  0  0  0  0  0  0  0  0  0
   25.0297  -21.2113  -11.2290 C   0  0  2  0  0  0  0  0  0  0  0  0
   26.4660  -21.7705  -11.2288 C   0  0  0  0  0  0  0  0  0  0  0  0
   24.7010  -20.9385  -12.6423 C   0  0  0  0  0  0  0  0  0  0  0  0
   23.3394  -20.4863  -12.9949 C   0  0  2  0  0  0  0  0  0  0  0  0
   22.2369  -21.2597  -12.5392 N   0  0  0  0  0  0  0  0  0  0  0  0
   23.1535  -20.2830  -14.4670 C   0  0  0  0  0  0  0  0  0  0  0  0
   22.7534  -21.2155  -15.2344 O   0  0  0  0  0  0  0  0  0  0  0  0
   23.2072  -14.5604  -16.6553 N   0  0  0  0  0  0  0  0  0  0  0  0
   23.2047  -15.2150  -17.9024 C   0  0  0  0  0  0  0  0  0  0  0  0
   23.2596  -14.4872  -18.9534 O   0  0  0  0  0  0  0  0  0  0  0  0
   23.1469  -16.6873  -17.9644 C   0  0  0  0  0  0  0  0  0  0  0  0
   23.2262  -17.2972  -16.6258 C   0  0  0  0  0  0  0  0  0  0  0  0
   23.2809  -18.7921  -16.5232 C   0  0  2  0  0  0  0  0  0  0  0  0
   23.4171  -19.0400  -15.0615 N   0  0  0  0  0  0  0  0  0  0  0  0
   24.2454  -19.5133  -17.3046 C   0  0  0  0  0  0  0  0  0  0  0  0
   25.5425  -19.7100  -16.8758 O   0  0  0  0  0  0  0  0  0  0  0  0
   23.9204  -19.9923  -18.4400 O   0  0  0  0  0  0  0  0  0  0  0  0
  2  1  1  0
  3  2  2  0
  4  2  1  0
  5  4  1  0
  6  7  1  1
  6  5  1  0
  8  6  1  0
  9  8  2  0
 11 10  1  1
 12 11  1  0
 13 11  1  0
 14 13  1  6
 14 15  1  0
 15  8  1  0
 16 24  1  0
 16 14  1  0
 17 16  2  0
 18 19  1  0
 19 21  1  0
 20 19  2  0
 21 22  1  0
 23 22  1  1
 23 24  1  0
 23 25  1  0
 25 26  1  0
 27 25  2  0
M  END
$$$$
