QLQ.pdb
     RDKit          3D

 27 26  0  0  1  0  0  0  0  0999 V2000
   19.7122   -9.9162  -20.6144 N   0  0  0  0  0  0  0  0  0  0  0  0
   18.2743   -9.9557  -20.6137 C   0  0  0  0  0  0  0  0  0  0  0  0
   17.6817  -10.3907  -21.6326 O   0  0  0  0  0  0  0  0  0  0  0  0
   17.6002   -9.4737  -19.4089 C   0  0  0  0  0  0  0  0  0  0  0  0
   16.7760  -10.4980  -18.7105 C   0  0  0  0  0  0  0  0  0  0  0  0
   17.5900  -11.3621  -17.8254 C   0  0  2  0  0  0  0  0  0  0  0  0
   16.8165  -12.3969  -17.2012 N   0  0  0  0  0  0  0  0  0  0  0  0
   18.2393  -10.5760  -16.7150 C   0  0  0  0  0  0  0  0  0  0  0  0
   17.5284  -10.0298  -15.8523 O   0  0  0  0  0  0  0  0  0  0  0  0
   23.5529  -10.2669  -13.5658 C   0  0  0  0  0  0  0  0  0  0  0  0
   22.3033   -9.5871  -14.0635 C   0  0  2  0  0  0  0  0  0  0  0  0
   21.3860   -9.4416  -12.8333 C   0  0  0  0  0  0  0  0  0  0  0  0
   21.5325  -10.3643  -15.0543 C   0  0  0  0  0  0  0  0  0  0  0  0
   20.3474   -9.7533  -15.6907 C   0  0  2  0  0  0  0  0  0  0  0  0
   19.6743  -10.4913  -16.7024 N   0  0  0  0  0  0  0  0  0  0  0  0
   20.6209   -8.3914  -16.2505 C   0  0  0  0  0  0  0  0  0  0  0  0
   21.1562   -8.2232  -17.3923 O   0  0  0  0  0  0  0  0  0  0  0  0
   18.1811   -5.4302  -19.3466 N   0  0  0  0  0  0  0  0  0  0  0  0
   18.4910   -4.2112  -18.7128 C   0  0  0  0  0  0  0  0  0  0  0  0
   18.2415   -3.1310  -19.3519 O   0  0  0  0  0  0  0  0  0  0  0  0
   19.0752   -4.2095  -17.3586 C   0  0  0  0  0  0  0  0  0  0  0  0
   19.2836   -5.5758  -16.8485 C   0  0  0  0  0  0  0  0  0  0  0  0
   20.5180   -5.8587  -16.0457 C   0  0  2  0  0  0  0  0  0  0  0  0
   20.2922   -7.2356  -15.5264 N   0  0  0  0  0  0  0  0  0  0  0  0
   20.9156   -4.9337  -15.0224 C   0  0  0  0  0  0  0  0  0  0  0  0
   21.7435   -3.8600  -15.2807 O   0  0  0  0  0  0  0  0  0  0  0  0
   20.5099   -5.0909  -13.8245 O   0  0  0  0  0  0  0  0  0  0  0  0
  2  1  1  0
  3  2  2  0
  4  2  1  0
  5  4  1  0
  6  7  1  1
  6  5  1  0
  8  6  1  0
  9  8  2  0
 11 10  1  1
 12 11  1  0
 13 11  1  0
 14 13  1  6
 14 15  1  0
 15  8  1  0
 16 24  1  0
 16 14  1  0
 17 16  2  0
 18 19  1  0
 19 21  1  0
 20 19  2  0
 21 22  1  0
 23 22  1  1
 23 24  1  0
 23 25  1  0
 25 26  1  0
 27 25  2  0
M  END
$$$$
