QLQ.pdb
     RDKit          3D

 27 26  0  0  1  0  0  0  0  0999 V2000
   13.9946  -25.9723   -1.3347 N   0  0  0  0  0  0  0  0  0  0  0  0
   13.5270  -26.2204   -2.6721 C   0  0  0  0  0  0  0  0  0  0  0  0
   12.5312  -25.5796   -3.0922 O   0  0  0  0  0  0  0  0  0  0  0  0
   14.2552  -27.2199   -3.4525 C   0  0  0  0  0  0  0  0  0  0  0  0
   15.4154  -27.8295   -2.7466 C   0  0  0  0  0  0  0  0  0  0  0  0
   16.5649  -26.9006   -2.6548 C   0  0  2  0  0  0  0  0  0  0  0  0
   17.1681  -26.6414   -3.9306 N   0  0  0  0  0  0  0  0  0  0  0  0
   17.6532  -27.4399   -1.7619 C   0  0  0  0  0  0  0  0  0  0  0  0
   18.4285  -28.3108   -2.1960 O   0  0  0  0  0  0  0  0  0  0  0  0
   21.3713  -25.6373    0.0884 C   0  0  0  0  0  0  0  0  0  0  0  0
   20.1420  -25.2392    0.8639 C   0  0  2  0  0  0  0  0  0  0  0  0
   20.6544  -24.4680    2.0962 C   0  0  0  0  0  0  0  0  0  0  0  0
   19.3540  -26.3704    1.3924 C   0  0  0  0  0  0  0  0  0  0  0  0
   18.7764  -27.3526    0.4519 C   0  0  2  0  0  0  0  0  0  0  0  0
   17.7481  -26.9150   -0.4270 N   0  0  0  0  0  0  0  0  0  0  0  0
   18.2747  -28.5888    1.1322 C   0  0  0  0  0  0  0  0  0  0  0  0
   17.0963  -28.6715    1.6044 O   0  0  0  0  0  0  0  0  0  0  0  0
   21.0829  -34.2821    1.3633 N   0  0  0  0  0  0  0  0  0  0  0  0
   19.8071  -34.3452    0.7699 C   0  0  0  0  0  0  0  0  0  0  0  0
   19.4595  -35.4515    0.2291 O   0  0  0  0  0  0  0  0  0  0  0  0
   18.9225  -33.1654    0.7916 C   0  0  0  0  0  0  0  0  0  0  0  0
   19.5594  -32.0132    1.4528 C   0  0  0  0  0  0  0  0  0  0  0  0
   18.6807  -30.9378    2.0182 C   0  0  2  0  0  0  0  0  0  0  0  0
   19.0971  -29.7164    1.2756 N   0  0  0  0  0  0  0  0  0  0  0  0
   18.6405  -30.7410    3.4396 C   0  0  0  0  0  0  0  0  0  0  0  0
   19.5234  -29.9051    4.0932 O   0  0  0  0  0  0  0  0  0  0  0  0
   17.7744  -31.3527    4.1465 O   0  0  0  0  0  0  0  0  0  0  0  0
  2  1  1  0
  3  2  2  0
  4  2  1  0
  5  4  1  0
  6  7  1  6
  6  5  1  0
  8  6  1  0
  9  8  2  0
 11 10  1  1
 12 11  1  0
 13 11  1  0
 14 13  1  1
 14 15  1  0
 15  8  1  0
 16 24  1  0
 16 14  1  0
 17 16  2  0
 18 19  1  0
 19 21  1  0
 20 19  2  0
 21 22  1  0
 23 22  1  1
 23 24  1  0
 23 25  1  0
 25 26  1  0
 27 25  2  0
M  END
$$$$
