QLQ.pdb
     RDKit          3D

 27 26  0  0  1  0  0  0  0  0999 V2000
   17.1938  -20.8487  -13.2250 N   0  0  0  0  0  0  0  0  0  0  0  0
   17.1163  -22.2689  -13.0104 C   0  0  0  0  0  0  0  0  0  0  0  0
   16.0331  -22.8578  -13.2520 O   0  0  0  0  0  0  0  0  0  0  0  0
   18.3228  -22.9295  -12.5141 C   0  0  0  0  0  0  0  0  0  0  0  0
   19.4959  -22.0285  -12.3463 C   0  0  0  0  0  0  0  0  0  0  0  0
   20.3027  -21.9247  -13.5836 C   0  0  2  0  0  0  0  0  0  0  0  0
   20.8598  -23.1841  -13.9863 N   0  0  0  0  0  0  0  0  0  0  0  0
   21.4587  -20.9706  -13.4222 C   0  0  0  0  0  0  0  0  0  0  0  0
   21.2359  -19.7562  -13.2698 O   0  0  0  0  0  0  0  0  0  0  0  0
   24.5513  -20.1749  -10.2213 C   0  0  0  0  0  0  0  0  0  0  0  0
   24.7969  -21.3824  -11.0888 C   0  0  2  0  0  0  0  0  0  0  0  0
   26.0935  -22.0245  -10.5575 C   0  0  0  0  0  0  0  0  0  0  0  0
   25.0487  -21.0778  -12.5114 C   0  0  0  0  0  0  0  0  0  0  0  0
   23.9230  -20.6626  -13.3734 C   0  0  2  0  0  0  0  0  0  0  0  0
   22.7885  -21.5159  -13.4520 N   0  0  0  0  0  0  0  0  0  0  0  0
   24.3428  -20.3614  -14.7791 C   0  0  0  0  0  0  0  0  0  0  0  0
   24.7706  -21.2643  -15.5667 O   0  0  0  0  0  0  0  0  0  0  0  0
   20.8125  -21.1381  -17.7901 N   0  0  0  0  0  0  0  0  0  0  0  0
   21.3861  -20.3906  -18.8369 C   0  0  0  0  0  0  0  0  0  0  0  0
   20.8754  -20.5163  -20.0034 O   0  0  0  0  0  0  0  0  0  0  0  0
   22.5292  -19.4983  -18.5682 C   0  0  0  0  0  0  0  0  0  0  0  0
   22.9927  -19.6039  -17.1738 C   0  0  0  0  0  0  0  0  0  0  0  0
   24.1456  -18.7505  -16.7370 C   0  0  2  0  0  0  0  0  0  0  0  0
   24.2787  -19.0547  -15.2857 N   0  0  0  0  0  0  0  0  0  0  0  0
   24.1186  -17.3419  -17.0125 C   0  0  0  0  0  0  0  0  0  0  0  0
   24.0544  -16.3958  -16.0096 O   0  0  0  0  0  0  0  0  0  0  0  0
   24.1466  -16.9243  -18.2163 O   0  0  0  0  0  0  0  0  0  0  0  0
  2  1  1  0
  3  2  2  0
  4  2  1  0
  5  4  1  0
  6  7  1  1
  6  5  1  0
  8  6  1  0
  9  8  2  0
 11 10  1  1
 12 11  1  0
 13 11  1  0
 14 13  1  1
 14 15  1  0
 15  8  1  0
 16 24  1  0
 16 14  1  0
 17 16  2  0
 18 19  1  0
 19 21  1  0
 20 19  2  0
 21 22  1  0
 23 22  1  1
 23 24  1  0
 23 25  1  0
 25 26  1  0
 27 25  2  0
M  END
$$$$
