QLQ.pdb
     RDKit          3D

 27 26  0  0  1  0  0  0  0  0999 V2000
   28.4921  -21.8640  -16.7094 N   0  0  0  0  0  0  0  0  0  0  0  0
   28.5064  -20.4654  -17.0454 C   0  0  0  0  0  0  0  0  0  0  0  0
   29.4999  -20.0021  -17.6593 O   0  0  0  0  0  0  0  0  0  0  0  0
   27.3464  -19.6750  -16.6357 C   0  0  0  0  0  0  0  0  0  0  0  0
   26.2627  -20.4605  -15.9839 C   0  0  0  0  0  0  0  0  0  0  0  0
   26.7682  -21.2902  -14.8665 C   0  0  2  0  0  0  0  0  0  0  0  0
   27.2000  -22.5895  -15.2954 N   0  0  0  0  0  0  0  0  0  0  0  0
   25.7165  -21.5096  -13.8090 C   0  0  0  0  0  0  0  0  0  0  0  0
   24.8582  -22.3955  -13.9710 O   0  0  0  0  0  0  0  0  0  0  0  0
   25.7240  -21.9567   -8.8554 C   0  0  0  0  0  0  0  0  0  0  0  0
   26.0190  -20.6181   -9.4817 C   0  0  2  0  0  0  0  0  0  0  0  0
   26.1272  -19.6214   -8.3109 C   0  0  0  0  0  0  0  0  0  0  0  0
   24.9502  -20.0994  -10.3583 C   0  0  0  0  0  0  0  0  0  0  0  0
   24.7166  -20.7367  -11.6705 C   0  0  2  0  0  0  0  0  0  0  0  0
   25.7531  -20.6716  -12.6415 N   0  0  0  0  0  0  0  0  0  0  0  0
   23.4620  -20.2620  -12.3363 C   0  0  0  0  0  0  0  0  0  0  0  0
   23.4244  -19.1958  -13.0292 O   0  0  0  0  0  0  0  0  0  0  0  0
   22.3920  -21.0581  -16.9746 N   0  0  0  0  0  0  0  0  0  0  0  0
   21.0176  -20.7922  -16.8194 C   0  0  0  0  0  0  0  0  0  0  0  0
   20.3025  -20.7324  -17.8788 O   0  0  0  0  0  0  0  0  0  0  0  0
   20.4492  -20.6004  -15.4720 C   0  0  0  0  0  0  0  0  0  0  0  0
   21.4595  -20.7925  -14.4172 C   0  0  0  0  0  0  0  0  0  0  0  0
   21.0344  -20.6522  -12.9861 C   0  0  2  0  0  0  0  0  0  0  0  0
   22.2659  -20.9858  -12.2188 N   0  0  0  0  0  0  0  0  0  0  0  0
   19.8780  -21.3672  -12.5253 C   0  0  0  0  0  0  0  0  0  0  0  0
   18.6131  -20.8155  -12.5477 O   0  0  0  0  0  0  0  0  0  0  0  0
   19.9972  -22.5509  -12.0682 O   0  0  0  0  0  0  0  0  0  0  0  0
  2  1  1  0
  3  2  2  0
  4  2  1  0
  5  4  1  0
  6  7  1  6
  6  5  1  0
  8  6  1  0
  9  8  2  0
 11 10  1  1
 12 11  1  0
 13 11  1  0
 14 13  1  1
 14 15  1  0
 15  8  1  0
 16 24  1  0
 16 14  1  0
 17 16  2  0
 18 19  1  0
 19 21  1  0
 20 19  2  0
 21 22  1  0
 23 22  1  6
 23 24  1  0
 23 25  1  0
 25 26  1  0
 27 25  2  0
M  END
$$$$
