QLQ.pdb
     RDKit          3D

 27 26  0  0  1  0  0  0  0  0999 V2000
   16.7215  -11.4846  -18.3743 N   0  0  0  0  0  0  0  0  0  0  0  0
   17.2858  -12.7208  -18.8458 C   0  0  0  0  0  0  0  0  0  0  0  0
   16.5600  -13.5005  -19.5121 O   0  0  0  0  0  0  0  0  0  0  0  0
   18.6832  -12.9828  -18.5039 C   0  0  0  0  0  0  0  0  0  0  0  0
   19.3236  -11.9281  -17.6711 C   0  0  0  0  0  0  0  0  0  0  0  0
   20.7298  -12.2537  -17.3406 C   0  0  2  0  0  0  0  0  0  0  0  0
   20.8496  -13.4484  -16.5551 N   0  0  0  0  0  0  0  0  0  0  0  0
   21.3927  -11.1502  -16.5562 C   0  0  0  0  0  0  0  0  0  0  0  0
   20.8446  -10.7125  -15.5287 O   0  0  0  0  0  0  0  0  0  0  0  0
   25.6549  -10.6148  -14.4732 C   0  0  0  0  0  0  0  0  0  0  0  0
   25.6243  -10.5198  -15.9770 C   0  0  2  0  0  0  0  0  0  0  0  0
   27.0610  -10.1606  -16.4044 C   0  0  0  0  0  0  0  0  0  0  0  0
   24.7625   -9.4454  -16.5087 C   0  0  0  0  0  0  0  0  0  0  0  0
   23.2954   -9.5632  -16.3799 C   0  0  2  0  0  0  0  0  0  0  0  0
   22.6492  -10.6449  -17.0383 N   0  0  0  0  0  0  0  0  0  0  0  0
   22.5713   -8.3136  -16.7761 C   0  0  0  0  0  0  0  0  0  0  0  0
   22.2619   -8.0640  -17.9845 O   0  0  0  0  0  0  0  0  0  0  0  0
   17.7146   -7.9629  -17.2795 N   0  0  0  0  0  0  0  0  0  0  0  0
   17.7147   -6.5556  -17.2226 C   0  0  0  0  0  0  0  0  0  0  0  0
   16.6371   -5.9494  -17.5521 O   0  0  0  0  0  0  0  0  0  0  0  0
   18.9253   -5.8333  -16.7892 C   0  0  0  0  0  0  0  0  0  0  0  0
   20.0506   -6.7497  -16.5356 C   0  0  0  0  0  0  0  0  0  0  0  0
   21.3715   -6.1655  -16.1327 C   0  0  2  0  0  0  0  0  0  0  0  0
   22.2024   -7.3596  -15.8158 N   0  0  0  0  0  0  0  0  0  0  0  0
   21.4111   -5.1676  -15.1016 C   0  0  0  0  0  0  0  0  0  0  0  0
   20.9754   -3.8746  -15.3102 O   0  0  0  0  0  0  0  0  0  0  0  0
   21.8662   -5.4575  -13.9470 O   0  0  0  0  0  0  0  0  0  0  0  0
  2  1  1  0
  3  2  2  0
  4  2  1  0
  5  4  1  0
  6  7  1  1
  6  5  1  0
  8  6  1  0
  9  8  2  0
 11 10  1  1
 12 11  1  0
 13 11  1  0
 14 13  1  6
 14 15  1  0
 15  8  1  0
 16 24  1  0
 16 14  1  0
 17 16  2  0
 18 19  1  0
 19 21  1  0
 20 19  2  0
 21 22  1  0
 23 22  1  1
 23 24  1  0
 23 25  1  0
 25 26  1  0
 27 25  2  0
M  END
$$$$
