QLQ.pdb
     RDKit          3D

 27 26  0  0  1  0  0  0  0  0999 V2000
   26.1350  -24.1248  -14.6136 N   0  0  0  0  0  0  0  0  0  0  0  0
   25.0638  -24.1061  -15.5734 C   0  0  0  0  0  0  0  0  0  0  0  0
   25.2375  -24.6691  -16.6831 O   0  0  0  0  0  0  0  0  0  0  0  0
   23.8354  -23.4174  -15.1799 C   0  0  0  0  0  0  0  0  0  0  0  0
   23.8211  -22.9360  -13.7713 C   0  0  0  0  0  0  0  0  0  0  0  0
   24.8173  -21.8661  -13.5360 C   0  0  2  0  0  0  0  0  0  0  0  0
   25.2299  -21.7883  -12.1640 N   0  0  0  0  0  0  0  0  0  0  0  0
   24.2799  -20.5069  -13.9052 C   0  0  0  0  0  0  0  0  0  0  0  0
   23.3568  -20.0090  -13.2361 O   0  0  0  0  0  0  0  0  0  0  0  0
   27.0184  -15.7815  -16.1837 C   0  0  0  0  0  0  0  0  0  0  0  0
   25.9570  -16.5244  -15.4138 C   0  0  2  0  0  0  0  0  0  0  0  0
   26.6727  -17.1323  -14.1916 C   0  0  0  0  0  0  0  0  0  0  0  0
   25.3536  -17.6613  -16.1372 C   0  0  0  0  0  0  0  0  0  0  0  0
   24.4090  -18.5504  -15.4302 C   0  0  2  0  0  0  0  0  0  0  0  0
   24.8679  -19.8358  -15.0323 N   0  0  0  0  0  0  0  0  0  0  0  0
   23.1272  -18.7547  -16.1774 C   0  0  0  0  0  0  0  0  0  0  0  0
   23.0106  -19.6259  -17.0970 O   0  0  0  0  0  0  0  0  0  0  0  0
   17.7297  -18.8362  -13.7243 N   0  0  0  0  0  0  0  0  0  0  0  0
   18.4750  -19.9585  -14.1348 C   0  0  0  0  0  0  0  0  0  0  0  0
   18.1472  -21.0966  -13.6504 O   0  0  0  0  0  0  0  0  0  0  0  0
   19.5837  -19.7991  -15.0943 C   0  0  0  0  0  0  0  0  0  0  0  0
   19.7043  -18.4096  -15.5685 C   0  0  0  0  0  0  0  0  0  0  0  0
   20.7120  -18.1034  -16.6358 C   0  0  2  0  0  0  0  0  0  0  0  0
   21.9928  -17.9823  -15.8863 N   0  0  0  0  0  0  0  0  0  0  0  0
   20.4783  -17.0005  -17.5245 C   0  0  0  0  0  0  0  0  0  0  0  0
   19.5408  -17.0550  -18.5361 O   0  0  0  0  0  0  0  0  0  0  0  0
   21.1511  -15.9252  -17.4013 O   0  0  0  0  0  0  0  0  0  0  0  0
  2  1  1  0
  3  2  2  0
  4  2  1  0
  5  4  1  0
  6  7  1  1
  6  5  1  0
  8  6  1  0
  9  8  2  0
 11 10  1  6
 12 11  1  0
 13 11  1  0
 14 13  1  6
 14 15  1  0
 15  8  1  0
 16 24  1  0
 16 14  1  0
 17 16  2  0
 18 19  1  0
 19 21  1  0
 20 19  2  0
 21 22  1  0
 23 22  1  1
 23 24  1  0
 23 25  1  0
 25 26  1  0
 27 25  2  0
M  END
$$$$
