QLQ.pdb
     RDKit          3D

 27 26  0  0  1  0  0  0  0  0999 V2000
   23.6634  -20.4009  -16.2846 N   0  0  0  0  0  0  0  0  0  0  0  0
   22.3109  -20.8891  -16.2490 C   0  0  0  0  0  0  0  0  0  0  0  0
   22.1045  -22.1113  -16.4547 O   0  0  0  0  0  0  0  0  0  0  0  0
   21.2608  -19.9085  -15.9766 C   0  0  0  0  0  0  0  0  0  0  0  0
   21.7555  -18.5267  -15.7277 C   0  0  0  0  0  0  0  0  0  0  0  0
   21.9344  -17.7624  -16.9833 C   0  0  2  0  0  0  0  0  0  0  0  0
   22.6260  -18.5124  -17.9921 N   0  0  0  0  0  0  0  0  0  0  0  0
   22.7256  -16.4981  -16.7636 C   0  0  0  0  0  0  0  0  0  0  0  0
   22.2978  -15.6349  -15.9764 O   0  0  0  0  0  0  0  0  0  0  0  0
   28.4292  -15.6445  -16.5643 C   0  0  0  0  0  0  0  0  0  0  0  0
   26.9636  -15.3985  -16.3136 C   0  0  2  0  0  0  0  0  0  0  0  0
   26.4243  -16.6925  -15.6729 C   0  0  0  0  0  0  0  0  0  0  0  0
   26.1581  -15.1830  -17.5320 C   0  0  0  0  0  0  0  0  0  0  0  0
   24.6858  -15.1235  -17.4257 C   0  0  2  0  0  0  0  0  0  0  0  0
   23.9593  -16.3442  -17.4853 N   0  0  0  0  0  0  0  0  0  0  0  0
   24.0644  -14.1947  -18.4227 C   0  0  0  0  0  0  0  0  0  0  0  0
   23.4509  -14.6189  -19.4532 O   0  0  0  0  0  0  0  0  0  0  0  0
   19.9305  -11.5646  -17.2460 N   0  0  0  0  0  0  0  0  0  0  0  0
   19.8981  -11.0028  -18.5372 C   0  0  0  0  0  0  0  0  0  0  0  0
   18.9607  -10.1718  -18.7982 O   0  0  0  0  0  0  0  0  0  0  0  0
   20.9239  -11.3723  -19.5302 C   0  0  0  0  0  0  0  0  0  0  0  0
   21.9651  -12.2372  -18.9488 C   0  0  0  0  0  0  0  0  0  0  0  0
   23.4011  -11.8402  -19.1182 C   0  0  2  0  0  0  0  0  0  0  0  0
   24.1370  -12.8038  -18.2541 N   0  0  0  0  0  0  0  0  0  0  0  0
   23.7831  -10.4761  -18.8852 C   0  0  0  0  0  0  0  0  0  0  0  0
   23.5103   -9.4696  -19.7894 O   0  0  0  0  0  0  0  0  0  0  0  0
   24.4030  -10.1582  -17.8180 O   0  0  0  0  0  0  0  0  0  0  0  0
  2  1  1  0
  3  2  2  0
  4  2  1  0
  5  4  1  0
  6  7  1  6
  6  5  1  0
  8  6  1  0
  9  8  2  0
 11 10  1  6
 12 11  1  0
 13 11  1  0
 14 13  1  6
 14 15  1  0
 15  8  1  0
 16 24  1  0
 16 14  1  0
 17 16  2  0
 18 19  1  0
 19 21  1  0
 20 19  2  0
 21 22  1  0
 23 22  1  1
 23 24  1  0
 23 25  1  0
 25 26  1  0
 27 25  2  0
M  END
$$$$
