QLQ.pdb
     RDKit          3D

 27 26  0  0  1  0  0  0  0  0999 V2000
   17.8161  -16.4723  -18.9047 N   0  0  0  0  0  0  0  0  0  0  0  0
   18.3516  -15.7073  -19.9988 C   0  0  0  0  0  0  0  0  0  0  0  0
   18.0128  -16.0101  -21.1702 O   0  0  0  0  0  0  0  0  0  0  0  0
   19.2689  -14.6203  -19.6592 C   0  0  0  0  0  0  0  0  0  0  0  0
   19.5739  -14.5004  -18.2071 C   0  0  0  0  0  0  0  0  0  0  0  0
   20.9159  -15.0291  -17.8722 C   0  0  2  0  0  0  0  0  0  0  0  0
   20.8602  -16.3175  -17.2432 N   0  0  0  0  0  0  0  0  0  0  0  0
   21.6598  -14.1178  -16.9295 C   0  0  0  0  0  0  0  0  0  0  0  0
   21.0871  -13.6863  -15.9128 O   0  0  0  0  0  0  0  0  0  0  0  0
   25.6898  -14.7530  -14.6185 C   0  0  0  0  0  0  0  0  0  0  0  0
   25.8425  -14.3512  -16.0630 C   0  0  2  0  0  0  0  0  0  0  0  0
   27.3577  -14.1918  -16.2966 C   0  0  0  0  0  0  0  0  0  0  0  0
   25.2400  -13.0478  -16.4066 C   0  0  0  0  0  0  0  0  0  0  0  0
   23.7691  -12.9101  -16.4171 C   0  0  2  0  0  0  0  0  0  0  0  0
   23.0199  -13.7828  -17.2528 N   0  0  0  0  0  0  0  0  0  0  0  0
   23.3142  -11.5157  -16.7200 C   0  0  0  0  0  0  0  0  0  0  0  0
   23.2675  -11.0613  -17.9073 O   0  0  0  0  0  0  0  0  0  0  0  0
   19.5123  -10.0450  -18.9611 N   0  0  0  0  0  0  0  0  0  0  0  0
   19.5162   -8.7377  -18.4371 C   0  0  0  0  0  0  0  0  0  0  0  0
   18.6725   -7.9043  -18.9178 O   0  0  0  0  0  0  0  0  0  0  0  0
   20.4650   -8.3721  -17.3688 C   0  0  0  0  0  0  0  0  0  0  0  0
   21.3294   -9.5036  -16.9909 C   0  0  0  0  0  0  0  0  0  0  0  0
   22.3775   -9.2833  -15.9415 C   0  0  2  0  0  0  0  0  0  0  0  0
   22.9176  -10.6480  -15.6914 N   0  0  0  0  0  0  0  0  0  0  0  0
   22.0254   -8.5917  -14.7338 C   0  0  0  0  0  0  0  0  0  0  0  0
   21.8755   -9.2451  -13.5273 O   0  0  0  0  0  0  0  0  0  0  0  0
   21.8319   -7.3321  -14.7504 O   0  0  0  0  0  0  0  0  0  0  0  0
  2  1  1  0
  3  2  2  0
  4  2  1  0
  5  4  1  0
  6  7  1  1
  6  5  1  0
  8  6  1  0
  9  8  2  0
 11 10  1  1
 12 11  1  0
 13 11  1  0
 14 13  1  6
 14 15  1  0
 15  8  1  0
 16 24  1  0
 16 14  1  0
 17 16  2  0
 18 19  1  0
 19 21  1  0
 20 19  2  0
 21 22  1  0
 23 22  1  6
 23 24  1  0
 23 25  1  0
 25 26  1  0
 27 25  2  0
M  END
$$$$
