QLQ.pdb
     RDKit          3D

 27 26  0  0  1  0  0  0  0  0999 V2000
   17.0036  -10.8824  -17.7600 N   0  0  0  0  0  0  0  0  0  0  0  0
   17.4270  -12.0714  -18.4499 C   0  0  0  0  0  0  0  0  0  0  0  0
   16.5760  -12.7263  -19.1022 O   0  0  0  0  0  0  0  0  0  0  0  0
   18.8382  -12.4363  -18.3336 C   0  0  0  0  0  0  0  0  0  0  0  0
   19.6344  -11.5485  -17.4425 C   0  0  0  0  0  0  0  0  0  0  0  0
   21.0350  -12.0082  -17.3021 C   0  0  2  0  0  0  0  0  0  0  0  0
   21.1304  -13.3204  -16.7297 N   0  0  0  0  0  0  0  0  0  0  0  0
   21.8419  -11.0902  -16.4196 C   0  0  0  0  0  0  0  0  0  0  0  0
   21.5034  -10.9241  -15.2339 O   0  0  0  0  0  0  0  0  0  0  0  0
   26.0044  -10.9466  -14.5744 C   0  0  0  0  0  0  0  0  0  0  0  0
   25.9882  -10.6352  -16.0488 C   0  0  2  0  0  0  0  0  0  0  0  0
   27.4456  -10.3015  -16.4236 C   0  0  0  0  0  0  0  0  0  0  0  0
   25.1924   -9.4479  -16.4188 C   0  0  0  0  0  0  0  0  0  0  0  0
   23.7248   -9.4789  -16.2516 C   0  0  2  0  0  0  0  0  0  0  0  0
   22.9850  -10.4373  -16.9969 N   0  0  0  0  0  0  0  0  0  0  0  0
   23.0809   -8.1476  -16.4885 C   0  0  0  0  0  0  0  0  0  0  0  0
   22.7517   -7.7517  -17.6518 O   0  0  0  0  0  0  0  0  0  0  0  0
   18.3913   -7.4348  -17.1303 N   0  0  0  0  0  0  0  0  0  0  0  0
   18.4307   -6.0602  -16.8260 C   0  0  0  0  0  0  0  0  0  0  0  0
   17.3669   -5.3781  -17.0276 O   0  0  0  0  0  0  0  0  0  0  0  0
   19.6648   -5.4567  -16.2895 C   0  0  0  0  0  0  0  0  0  0  0  0
   20.7603   -6.4372  -16.1965 C   0  0  0  0  0  0  0  0  0  0  0  0
   22.0569   -6.0043  -15.5802 C   0  0  2  0  0  0  0  0  0  0  0  0
   22.8134   -7.2767  -15.4216 N   0  0  0  0  0  0  0  0  0  0  0  0
   22.0338   -5.2148  -14.3815 C   0  0  0  0  0  0  0  0  0  0  0  0
   21.6061   -3.9025  -14.3715 O   0  0  0  0  0  0  0  0  0  0  0  0
   22.4233   -5.7166  -13.2767 O   0  0  0  0  0  0  0  0  0  0  0  0
  2  1  1  0
  3  2  2  0
  4  2  1  0
  5  4  1  0
  6  7  1  1
  6  5  1  0
  8  6  1  0
  9  8  2  0
 11 10  1  1
 12 11  1  0
 13 11  1  0
 14 13  1  6
 14 15  1  0
 15  8  1  0
 16 24  1  0
 16 14  1  0
 17 16  2  0
 18 19  1  0
 19 21  1  0
 20 19  2  0
 21 22  1  0
 23 22  1  1
 23 24  1  0
 23 25  1  0
 25 26  1  0
 27 25  2  0
M  END
$$$$
