DHS.pdb
     RDKit          3D

 25 25  0  0  1  0  0  0  0  0999 V2000
   15.4055  -24.0816    1.1742 N   0  0  0  0  0  0  0  0  0  0  0  0
   15.1896  -24.3111    2.5913 C   0  0  1  0  0  0  0  0  0  0  0  0
   15.6239  -25.6919    2.9717 C   0  0  0  0  0  0  0  0  0  0  0  0
   14.4927  -26.6156    2.7012 C   0  0  0  0  0  0  0  0  0  0  0  0
   14.6483  -27.5832    1.8997 O   0  0  0  0  0  0  0  0  0  0  0  0
   15.8989  -23.2538    3.3562 C   0  0  0  0  0  0  0  0  0  0  0  0
   17.1248  -22.9672    3.1284 O   0  0  0  0  0  0  0  0  0  0  0  0
   13.2435  -26.4898    3.2803 O   0  0  0  0  0  0  0  0  0  0  0  0
   15.2469  -22.5122    4.3763 N   0  0  0  0  0  0  0  0  0  0  0  0
   15.9242  -21.3618    5.0277 C   0  0  1  0  0  0  0  0  0  0  0  0
   15.0310  -20.1691    4.9730 C   0  0  0  0  0  0  0  0  0  0  0  0
   15.1792  -19.2640    3.8505 C   0  0  0  0  0  0  0  0  0  0  0  0
   16.0028  -19.2174    2.7575 C   0  0  0  0  0  0  0  0  0  0  0  0
   15.6318  -18.1455    1.9960 N   0  0  0  0  0  0  0  0  0  0  0  0
   14.6155  -17.5536    2.5974 C   0  0  0  0  0  0  0  0  0  0  0  0
   14.3290  -18.2035    3.7040 N   0  0  0  0  0  0  0  0  0  0  0  0
   16.0277  -21.7377    6.4960 C   0  0  0  0  0  0  0  0  0  0  0  0
   15.4097  -22.7163    6.9083 O   0  0  0  0  0  0  0  0  0  0  0  0
   17.8804  -23.0567   10.2441 O   0  0  0  0  0  0  0  0  0  0  0  0
   17.6959  -22.7020    8.8878 C   0  0  0  0  0  0  0  0  0  0  0  0
   16.9879  -21.3595    8.8002 C   0  0  2  0  0  0  0  0  0  0  0  0
   16.8139  -20.9970    7.4076 N   0  0  0  0  0  0  0  0  0  0  0  0
   17.7952  -20.3308    9.5192 C   0  0  0  0  0  0  0  0  0  0  0  0
   18.4067  -19.4537    8.8869 O   0  0  0  0  0  0  0  0  0  0  0  0
   17.8738  -20.3397   10.9018 O   0  0  0  0  0  0  0  0  0  0  0  0
  2  1  1  6
  2  3  1  0
  3  4  1  0
  4  5  2  0
  6  2  1  0
  7  6  2  0
  8  4  1  0
  9  6  1  0
 10 11  1  1
 10  9  1  0
 11 12  1  0
 12 13  2  0
 13 14  1  0
 15 14  1  0
 16 12  1  0
 16 15  2  0
 17 22  1  0
 17 10  1  0
 18 17  2  0
 19 20  1  0
 21 20  1  6
 21 22  1  0
 23 21  1  0
 23 25  1  0
 24 23  2  0
M  END
$$$$
