DHS.pdb
     RDKit          3D

 25 25  0  0  1  0  0  0  0  0999 V2000
   21.0395   -9.8883  -18.3940 N   0  0  0  0  0  0  0  0  0  0  0  0
   20.9879   -8.4501  -18.5850 C   0  0  1  0  0  0  0  0  0  0  0  0
   19.6412   -8.0355  -19.0892 C   0  0  0  0  0  0  0  0  0  0  0  0
   19.5146   -8.5089  -20.4913 C   0  0  0  0  0  0  0  0  0  0  0  0
   20.4929   -9.0847  -21.0517 O   0  0  0  0  0  0  0  0  0  0  0  0
   21.3520   -7.7887  -17.3059 C   0  0  0  0  0  0  0  0  0  0  0  0
   20.8362   -8.1495  -16.1920 O   0  0  0  0  0  0  0  0  0  0  0  0
   18.3689   -8.3608  -21.2512 O   0  0  0  0  0  0  0  0  0  0  0  0
   22.2906   -6.7244  -17.2619 N   0  0  0  0  0  0  0  0  0  0  0  0
   22.6651   -6.0971  -15.9685 C   0  0  1  0  0  0  0  0  0  0  0  0
   24.0829   -6.4323  -15.6509 C   0  0  0  0  0  0  0  0  0  0  0  0
   24.4147   -7.8254  -15.4268 C   0  0  0  0  0  0  0  0  0  0  0  0
   23.7069   -8.9973  -15.4564 C   0  0  0  0  0  0  0  0  0  0  0  0
   24.5790  -10.0221  -15.2200 N   0  0  0  0  0  0  0  0  0  0  0  0
   25.7809   -9.5007  -15.0520 C   0  0  0  0  0  0  0  0  0  0  0  0
   25.7064   -8.1933  -15.1713 N   0  0  0  0  0  0  0  0  0  0  0  0
   22.6389   -4.6004  -16.2275 C   0  0  0  0  0  0  0  0  0  0  0  0
   23.0909   -4.1680  -17.2850 O   0  0  0  0  0  0  0  0  0  0  0  0
   20.3317   -1.0319  -17.0853 O   0  0  0  0  0  0  0  0  0  0  0  0
   20.7280   -2.3518  -16.7690 C   0  0  0  0  0  0  0  0  0  0  0  0
   21.7228   -2.3276  -15.6197 C   0  0  2  0  0  0  0  0  0  0  0  0
   22.1102   -3.6847  -15.2895 N   0  0  0  0  0  0  0  0  0  0  0  0
   21.0985   -1.6532  -14.4440 C   0  0  0  0  0  0  0  0  0  0  0  0
   20.3319   -2.2779  -13.6922 O   0  0  0  0  0  0  0  0  0  0  0  0
   21.3651   -0.3213  -14.1746 O   0  0  0  0  0  0  0  0  0  0  0  0
  2  1  1  1
  2  3  1  0
  3  4  1  0
  4  5  2  0
  6  2  1  0
  7  6  2  0
  8  4  1  0
  9  6  1  0
 10 11  1  6
 10  9  1  0
 11 12  1  0
 12 13  2  0
 13 14  1  0
 15 14  1  0
 16 12  1  0
 16 15  2  0
 17 22  1  0
 17 10  1  0
 18 17  2  0
 19 20  1  0
 21 20  1  6
 21 22  1  0
 23 21  1  0
 23 25  1  0
 24 23  2  0
M  END
$$$$
