DHS.pdb
     RDKit          3D

 25 25  0  0  1  0  0  0  0  0999 V2000
   23.4446  -13.5804  -16.4920 N   0  0  0  0  0  0  0  0  0  0  0  0
   23.0067  -13.2277  -17.8305 C   0  0  1  0  0  0  0  0  0  0  0  0
   22.3163  -14.3863  -18.4793 C   0  0  0  0  0  0  0  0  0  0  0  0
   23.2586  -15.5343  -18.4819 C   0  0  0  0  0  0  0  0  0  0  0  0
   23.0138  -16.5508  -17.7680 O   0  0  0  0  0  0  0  0  0  0  0  0
   22.1465  -12.0199  -17.7449 C   0  0  0  0  0  0  0  0  0  0  0  0
   21.6306  -11.4869  -18.7873 O   0  0  0  0  0  0  0  0  0  0  0  0
   24.4198  -15.5729  -19.2315 O   0  0  0  0  0  0  0  0  0  0  0  0
   21.8578  -11.4015  -16.4999 N   0  0  0  0  0  0  0  0  0  0  0  0
   20.8722  -10.2934  -16.4147 C   0  0  1  0  0  0  0  0  0  0  0  0
   19.7869  -10.6716  -15.4647 C   0  0  0  0  0  0  0  0  0  0  0  0
   18.7827  -11.6105  -15.9240 C   0  0  0  0  0  0  0  0  0  0  0  0
   18.0614  -11.7556  -17.0790 C   0  0  0  0  0  0  0  0  0  0  0  0
   17.2976  -12.8820  -16.9598 N   0  0  0  0  0  0  0  0  0  0  0  0
   17.5403  -13.4127  -15.7747 C   0  0  0  0  0  0  0  0  0  0  0  0
   18.4224  -12.6715  -15.1409 N   0  0  0  0  0  0  0  0  0  0  0  0
   21.6182   -9.1440  -15.7587 C   0  0  0  0  0  0  0  0  0  0  0  0
   22.5002   -9.3927  -14.9402 O   0  0  0  0  0  0  0  0  0  0  0  0
   22.4213   -5.7221  -17.6718 O   0  0  0  0  0  0  0  0  0  0  0  0
   21.8805   -5.4558  -16.3927 C   0  0  0  0  0  0  0  0  0  0  0  0
   22.0577   -6.6716  -15.4974 C   0  0  2  0  0  0  0  0  0  0  0  0
   21.3311   -7.7931  -16.0589 N   0  0  0  0  0  0  0  0  0  0  0  0
   21.5603   -6.3496  -14.1278 C   0  0  0  0  0  0  0  0  0  0  0  0
   22.1000   -5.4560  -13.4546 O   0  0  0  0  0  0  0  0  0  0  0  0
   20.4896   -7.0426  -13.5882 O   0  0  0  0  0  0  0  0  0  0  0  0
  2  1  1  1
  2  3  1  0
  3  4  1  0
  4  5  2  0
  6  2  1  0
  7  6  2  0
  8  4  1  0
  9  6  1  0
 10 11  1  1
 10  9  1  0
 11 12  1  0
 12 13  2  0
 13 14  1  0
 15 14  1  0
 16 12  1  0
 16 15  2  0
 17 22  1  0
 17 10  1  0
 18 17  2  0
 19 20  1  0
 21 20  1  6
 21 22  1  0
 23 21  1  0
 23 25  1  0
 24 23  2  0
M  END
$$$$
