DHS.pdb
     RDKit          3D

 25 25  0  0  1  0  0  0  0  0999 V2000
   21.1417  -13.1749  -18.0044 N   0  0  0  0  0  0  0  0  0  0  0  0
   21.3213  -12.1255  -18.9913 C   0  0  1  0  0  0  0  0  0  0  0  0
   20.6053  -12.4697  -20.2597 C   0  0  0  0  0  0  0  0  0  0  0  0
   21.2617  -13.6680  -20.8421 C   0  0  0  0  0  0  0  0  0  0  0  0
   20.5940  -14.7296  -21.0149 O   0  0  0  0  0  0  0  0  0  0  0  0
   20.8654  -10.8396  -18.4041 C   0  0  0  0  0  0  0  0  0  0  0  0
   19.6444  -10.6468  -18.0740 O   0  0  0  0  0  0  0  0  0  0  0  0
   22.5911  -13.7076  -21.2205 O   0  0  0  0  0  0  0  0  0  0  0  0
   21.7659   -9.7647  -18.1825 N   0  0  0  0  0  0  0  0  0  0  0  0
   21.2801   -8.4671  -17.6468 C   0  0  1  0  0  0  0  0  0  0  0  0
   21.8986   -8.2227  -16.3123 C   0  0  0  0  0  0  0  0  0  0  0  0
   21.6527   -6.9433  -15.6770 C   0  0  0  0  0  0  0  0  0  0  0  0
   20.8898   -5.8490  -15.9864 C   0  0  0  0  0  0  0  0  0  0  0  0
   21.0066   -4.9512  -14.9631 N   0  0  0  0  0  0  0  0  0  0  0  0
   21.8114   -5.4739  -14.0554 C   0  0  0  0  0  0  0  0  0  0  0  0
   22.2079   -6.6605  -14.4600 N   0  0  0  0  0  0  0  0  0  0  0  0
   21.8574   -7.4106  -18.5733 C   0  0  0  0  0  0  0  0  0  0  0  0
   23.0298   -7.5027  -18.9292 O   0  0  0  0  0  0  0  0  0  0  0  0
   19.4472   -4.2513  -19.7929 O   0  0  0  0  0  0  0  0  0  0  0  0
   20.3960   -4.7239  -20.7287 C   0  0  0  0  0  0  0  0  0  0  0  0
   21.5749   -5.3439  -19.9957 C   0  0  2  0  0  0  0  0  0  0  0  0
   21.0887   -6.3209  -19.0417 N   0  0  0  0  0  0  0  0  0  0  0  0
   22.3457   -4.2678  -19.3068 C   0  0  0  0  0  0  0  0  0  0  0  0
   22.4195   -4.2395  -18.0671 O   0  0  0  0  0  0  0  0  0  0  0  0
   22.9898   -3.2854  -20.0401 O   0  0  0  0  0  0  0  0  0  0  0  0
  2  1  1  1
  2  3  1  0
  3  4  1  0
  4  5  2  0
  6  2  1  0
  7  6  2  0
  8  4  1  0
  9  6  1  0
 10 11  1  1
 10  9  1  0
 11 12  1  0
 12 13  2  0
 13 14  1  0
 15 14  1  0
 16 12  1  0
 16 15  2  0
 17 22  1  0
 17 10  1  0
 18 17  2  0
 19 20  1  0
 21 20  1  1
 21 22  1  0
 23 21  1  0
 23 25  1  0
 24 23  2  0
M  END
$$$$
