DHS.pdb
     RDKit          3D

 25 25  0  0  1  0  0  0  0  0999 V2000
   20.0991  -10.4768  -17.1550 N   0  0  0  0  0  0  0  0  0  0  0  0
   19.9416  -10.4812  -15.7118 C   0  0  1  0  0  0  0  0  0  0  0  0
   20.2437  -11.8371  -15.1549 C   0  0  0  0  0  0  0  0  0  0  0  0
   19.1016  -12.7284  -15.4825 C   0  0  0  0  0  0  0  0  0  0  0  0
   18.0401  -12.2382  -15.9682 O   0  0  0  0  0  0  0  0  0  0  0  0
   20.8054   -9.4180  -15.1376 C   0  0  0  0  0  0  0  0  0  0  0  0
   20.9389   -9.2700  -13.8738 O   0  0  0  0  0  0  0  0  0  0  0  0
   19.1158  -14.0974  -15.2888 O   0  0  0  0  0  0  0  0  0  0  0  0
   21.5230   -8.5166  -15.9672 N   0  0  0  0  0  0  0  0  0  0  0  0
   22.3683   -7.4492  -15.3732 C   0  0  1  0  0  0  0  0  0  0  0  0
   23.7342   -7.5148  -15.9675 C   0  0  0  0  0  0  0  0  0  0  0  0
   24.5681   -8.6491  -15.6225 C   0  0  0  0  0  0  0  0  0  0  0  0
   24.4114   -9.7461  -14.8179 C   0  0  0  0  0  0  0  0  0  0  0  0
   25.5315  -10.5193  -14.9372 N   0  0  0  0  0  0  0  0  0  0  0  0
   26.3484   -9.9211  -15.7856 C   0  0  0  0  0  0  0  0  0  0  0  0
   25.7944   -8.8053  -16.2065 N   0  0  0  0  0  0  0  0  0  0  0  0
   21.7643   -6.1431  -15.8604 C   0  0  0  0  0  0  0  0  0  0  0  0
   21.1866   -6.1186  -16.9445 O   0  0  0  0  0  0  0  0  0  0  0  0
   19.4088   -3.8722  -14.0120 O   0  0  0  0  0  0  0  0  0  0  0  0
   20.5170   -3.0653  -14.3587 C   0  0  0  0  0  0  0  0  0  0  0  0
   21.2625   -3.6915  -15.5263 C   0  0  2  0  0  0  0  0  0  0  0  0
   21.8448   -4.9505  -15.1061 N   0  0  0  0  0  0  0  0  0  0  0  0
   22.3196   -2.7488  -15.9962 C   0  0  0  0  0  0  0  0  0  0  0  0
   23.4845   -2.8471  -15.5762 O   0  0  0  0  0  0  0  0  0  0  0  0
   22.0165   -1.7510  -16.9075 O   0  0  0  0  0  0  0  0  0  0  0  0
  2  1  1  6
  2  3  1  0
  3  4  1  0
  4  5  2  0
  6  2  1  0
  7  6  2  0
  8  4  1  0
  9  6  1  0
 10 11  1  6
 10  9  1  0
 11 12  1  0
 12 13  2  0
 13 14  1  0
 15 14  1  0
 16 12  1  0
 16 15  2  0
 17 22  1  0
 17 10  1  0
 18 17  2  0
 19 20  1  0
 21 20  1  1
 21 22  1  0
 23 21  1  0
 23 25  1  0
 24 23  2  0
M  END
$$$$
