DHS.pdb
     RDKit          3D

 25 25  0  0  1  0  0  0  0  0999 V2000
   17.4222  -10.9865  -15.3129 N   0  0  0  0  0  0  0  0  0  0  0  0
   17.5443   -9.7069  -15.9878 C   0  0  1  0  0  0  0  0  0  0  0  0
   16.2626   -8.9399  -15.8949 C   0  0  0  0  0  0  0  0  0  0  0  0
   15.3175   -9.5110  -16.8882 C   0  0  0  0  0  0  0  0  0  0  0  0
   15.7508  -10.2665  -17.8070 O   0  0  0  0  0  0  0  0  0  0  0  0
   18.6974   -8.9728  -15.4067 C   0  0  0  0  0  0  0  0  0  0  0  0
   18.8695   -8.8842  -14.1420 O   0  0  0  0  0  0  0  0  0  0  0  0
   13.9562   -9.2686  -16.8804 O   0  0  0  0  0  0  0  0  0  0  0  0
   19.6622   -8.3354  -16.2304 N   0  0  0  0  0  0  0  0  0  0  0  0
   20.8886   -7.7404  -15.6398 C   0  0  1  0  0  0  0  0  0  0  0  0
   22.0805   -8.2108  -16.4022 C   0  0  0  0  0  0  0  0  0  0  0  0
   22.5683   -9.5496  -16.1364 C   0  0  0  0  0  0  0  0  0  0  0  0
   22.2523  -10.5232  -15.2267 C   0  0  0  0  0  0  0  0  0  0  0  0
   23.0176  -11.6210  -15.5018 N   0  0  0  0  0  0  0  0  0  0  0  0
   23.7769  -11.3348  -16.5441 C   0  0  0  0  0  0  0  0  0  0  0  0
   23.5254  -10.1059  -16.9386 N   0  0  0  0  0  0  0  0  0  0  0  0
   20.7812   -6.2498  -15.9126 C   0  0  0  0  0  0  0  0  0  0  0  0
   20.1594   -5.8654  -16.9001 O   0  0  0  0  0  0  0  0  0  0  0  0
   19.2984   -3.7272  -13.8106 O   0  0  0  0  0  0  0  0  0  0  0  0
   19.7501   -3.4884  -15.1290 C   0  0  0  0  0  0  0  0  0  0  0  0
   21.2210   -3.8558  -15.2420 C   0  0  2  0  0  0  0  0  0  0  0  0
   21.3748   -5.2863  -15.0658 N   0  0  0  0  0  0  0  0  0  0  0  0
   21.9948   -3.1079  -14.2083 C   0  0  0  0  0  0  0  0  0  0  0  0
   22.5454   -3.7119  -13.2728 O   0  0  0  0  0  0  0  0  0  0  0  0
   22.1098   -1.7295  -14.2774 O   0  0  0  0  0  0  0  0  0  0  0  0
  2  1  1  1
  2  3  1  0
  3  4  1  0
  4  5  2  0
  6  2  1  0
  7  6  2  0
  8  4  1  0
  9  6  1  0
 10 11  1  6
 10  9  1  0
 11 12  1  0
 12 13  2  0
 13 14  1  0
 15 14  1  0
 16 12  1  0
 16 15  2  0
 17 22  1  0
 17 10  1  0
 18 17  2  0
 19 20  1  0
 21 20  1  1
 21 22  1  0
 23 21  1  0
 23 25  1  0
 24 23  2  0
M  END
$$$$
