DHS.pdb
     RDKit          3D

 25 25  0  0  1  0  0  0  0  0999 V2000
-2862463.00003763507.5000-2131871.2500 N   0  0  0  0  0  0  0  0  0  0  0  0
-2862463.25003763508.0000-2131870.5000 C   0  0  2  0  0  0  0  0  0  0  0  0
-2862465.75003763509.0000-2131869.5000 C   0  0  0  0  0  0  0  0  0  0  0  0
-2862464.50003763508.2500-2131869.0000 C   0  0  0  0  0  0  0  0  0  0  0  0
-2862465.00003763507.7500-2131867.2500 O   0  0  0  0  0  0  0  0  0  0  0  0
-2862465.00003763507.7500-2131871.5000 C   0  0  0  0  0  0  0  0  0  0  0  0
-2862465.25003763509.0000-2131873.0000 O   0  0  0  0  0  0  0  0  0  0  0  0
-2862464.25003763508.7500-2131867.7500 O   0  0  0  0  0  0  0  0  0  0  0  0
-2862465.00003763506.2500-2131871.2500 N   0  0  0  0  0  0  0  0  0  0  0  0
-2862464.25003763505.2500-2131872.2500 C   0  0  1  0  0  0  0  0  0  0  0  0
-2862464.50003763504.2500-2131872.2500 C   0  0  0  0  0  0  0  0  0  0  0  0
-2862465.50003763503.7500-2131873.2500 C   0  0  0  0  0  0  0  0  0  0  0  0
-2862467.25003763503.2500-2131874.2500 C   0  0  0  0  0  0  0  0  0  0  0  0
-2862466.50003763503.5000-2131875.7500 N   0  0  0  0  0  0  0  0  0  0  0  0
-2862466.50003763504.5000-2131874.7500 C   0  0  0  0  0  0  0  0  0  0  0  0
-2862465.00003763505.5000-2131874.2500 N   0  0  0  0  0  0  0  0  0  0  0  0
-2862465.50003763505.7500-2131873.2500 C   0  0  0  0  0  0  0  0  0  0  0  0
-2862467.00003763506.7500-2131873.0000 O   0  0  0  0  0  0  0  0  0  0  0  0
-2862467.50003763509.2500-2131874.5000 O   0  0  0  0  0  0  0  0  0  0  0  0
-2862467.00003763509.5000-2131874.7500 C   0  0  0  0  0  0  0  0  0  0  0  0
-2862465.75003763508.2500-2131875.0000 C   0  0  1  0  0  0  0  0  0  0  0  0
-2862465.75003763506.5000-2131874.7500 N   0  0  0  0  0  0  0  0  0  0  0  0
-2862464.25003763508.0000-2131876.5000 C   0  0  0  0  0  0  0  0  0  0  0  0
-2862464.00003763508.5000-2131876.5000 O   0  0  0  0  0  0  0  0  0  0  0  0
-2862463.75003763505.7500-2131877.2500 O   0  0  0  0  0  0  0  0  0  0  0  0
  2  1  1  6
  2  3  1  0
  3  4  1  0
  4  5  2  0
  6  2  1  0
  7  6  2  0
  8  4  1  0
  9  6  1  0
 10 11  1  1
 10  9  1  0
 11 12  1  0
 12 13  2  0
 13 14  1  0
 15 14  1  0
 16 12  1  0
 16 15  2  0
 17 22  1  0
 17 10  1  0
 18 17  2  0
 19 20  1  0
 21 20  1  1
 21 22  1  0
 23 21  1  0
 23 25  1  0
 24 23  2  0
M  END
$$$$
