DHS.pdb
     RDKit          3D

 25 25  0  0  1  0  0  0  0  0999 V2000
   22.7399  -11.3931  -17.7260 N   0  0  0  0  0  0  0  0  0  0  0  0
   21.6094  -10.9568  -18.5255 C   0  0  1  0  0  0  0  0  0  0  0  0
   20.7680  -12.1273  -18.9278 C   0  0  0  0  0  0  0  0  0  0  0  0
   21.6048  -13.0219  -19.7678 C   0  0  0  0  0  0  0  0  0  0  0  0
   22.4333  -12.5239  -20.5854 O   0  0  0  0  0  0  0  0  0  0  0  0
   20.8490   -9.9393  -17.7556 C   0  0  0  0  0  0  0  0  0  0  0  0
   19.8309   -9.3438  -18.2514 O   0  0  0  0  0  0  0  0  0  0  0  0
   21.5411  -14.4022  -19.7189 O   0  0  0  0  0  0  0  0  0  0  0  0
   21.2186   -9.5813  -16.4324 N   0  0  0  0  0  0  0  0  0  0  0  0
   20.4372   -8.5706  -15.6745 C   0  0  1  0  0  0  0  0  0  0  0  0
   19.8178   -9.2190  -14.4832 C   0  0  0  0  0  0  0  0  0  0  0  0
   18.5654   -9.9241  -14.6716 C   0  0  0  0  0  0  0  0  0  0  0  0
   17.7634  -10.1842  -15.7506 C   0  0  0  0  0  0  0  0  0  0  0  0
   16.7243  -10.9626  -15.3251 N   0  0  0  0  0  0  0  0  0  0  0  0
   16.8810  -11.1755  -14.0309 C   0  0  0  0  0  0  0  0  0  0  0  0
   17.9717  -10.5662  -13.6207 N   0  0  0  0  0  0  0  0  0  0  0  0
   21.4668   -7.5953  -15.1297 C   0  0  0  0  0  0  0  0  0  0  0  0
   22.6593   -7.8826  -15.2004 O   0  0  0  0  0  0  0  0  0  0  0  0
   23.6349   -3.8637  -15.3984 O   0  0  0  0  0  0  0  0  0  0  0  0
   22.7797   -4.9722  -15.5960 C   0  0  0  0  0  0  0  0  0  0  0  0
   22.0239   -5.2727  -14.3116 C   0  0  2  0  0  0  0  0  0  0  0  0
   21.0981   -6.3640  -14.5418 N   0  0  0  0  0  0  0  0  0  0  0  0
   21.2982   -4.0457  -13.8704 C   0  0  0  0  0  0  0  0  0  0  0  0
   20.1806   -3.7712  -14.3381 O   0  0  0  0  0  0  0  0  0  0  0  0
   21.8607   -3.1956  -12.9329 O   0  0  0  0  0  0  0  0  0  0  0  0
  2  1  1  1
  2  3  1  0
  3  4  1  0
  4  5  2  0
  6  2  1  0
  7  6  2  0
  8  4  1  0
  9  6  1  0
 10 11  1  1
 10  9  1  0
 11 12  1  0
 12 13  2  0
 13 14  1  0
 15 14  1  0
 16 12  1  0
 16 15  2  0
 17 22  1  0
 17 10  1  0
 18 17  2  0
 19 20  1  0
 21 20  1  6
 21 22  1  0
 23 21  1  0
 23 25  1  0
 24 23  2  0
M  END
$$$$
