DHS.pdb
     RDKit          3D

 25 25  0  0  1  0  0  0  0  0999 V2000
   17.1503  -12.1003  -15.3250 N   0  0  0  0  0  0  0  0  0  0  0  0
   17.3761  -10.8811  -16.0801 C   0  0  1  0  0  0  0  0  0  0  0  0
   16.2651   -9.9058  -15.8468 C   0  0  0  0  0  0  0  0  0  0  0  0
   15.0759  -10.3824  -16.5981 C   0  0  0  0  0  0  0  0  0  0  0  0
   15.1929  -11.3365  -17.4219 O   0  0  0  0  0  0  0  0  0  0  0  0
   18.7075  -10.3353  -15.7120 C   0  0  0  0  0  0  0  0  0  0  0  0
   19.0594  -10.1882  -14.4907 O   0  0  0  0  0  0  0  0  0  0  0  0
   13.8112   -9.8413  -16.4573 O   0  0  0  0  0  0  0  0  0  0  0  0
   19.6512   -9.9516  -16.7009 N   0  0  0  0  0  0  0  0  0  0  0  0
   20.9892   -9.4364  -16.3122 C   0  0  1  0  0  0  0  0  0  0  0  0
   22.0139   -9.9636  -17.2584 C   0  0  0  0  0  0  0  0  0  0  0  0
   23.3812   -9.5110  -17.0957 C   0  0  0  0  0  0  0  0  0  0  0  0
   24.0492   -8.8013  -16.1337 C   0  0  0  0  0  0  0  0  0  0  0  0
   25.3639   -8.7315  -16.4987 N   0  0  0  0  0  0  0  0  0  0  0  0
   25.5014   -9.3759  -17.6435 C   0  0  0  0  0  0  0  0  0  0  0  0
   24.3328   -9.8487  -18.0174 N   0  0  0  0  0  0  0  0  0  0  0  0
   20.9275   -7.9384  -16.5573 C   0  0  0  0  0  0  0  0  0  0  0  0
   20.4052   -7.5216  -17.5885 O   0  0  0  0  0  0  0  0  0  0  0  0
   22.1808   -5.2414  -13.5898 O   0  0  0  0  0  0  0  0  0  0  0  0
   21.1947   -4.8626  -14.5297 C   0  0  0  0  0  0  0  0  0  0  0  0
   21.4465   -5.5706  -15.8513 C   0  0  2  0  0  0  0  0  0  0  0  0
   21.4526   -7.0040  -15.6360 N   0  0  0  0  0  0  0  0  0  0  0  0
   22.7511   -5.1130  -16.4127 C   0  0  0  0  0  0  0  0  0  0  0  0
   23.7401   -5.8646  -16.4039 O   0  0  0  0  0  0  0  0  0  0  0  0
   22.8776   -3.8435  -16.9516 O   0  0  0  0  0  0  0  0  0  0  0  0
  2  1  1  1
  2  3  1  0
  3  4  1  0
  4  5  2  0
  6  2  1  0
  7  6  2  0
  8  4  1  0
  9  6  1  0
 10 11  1  6
 10  9  1  0
 11 12  1  0
 12 13  2  0
 13 14  1  0
 15 14  1  0
 16 12  1  0
 16 15  2  0
 17 22  1  0
 17 10  1  0
 18 17  2  0
 19 20  1  0
 21 20  1  1
 21 22  1  0
 23 21  1  0
 23 25  1  0
 24 23  2  0
M  END
$$$$
