DHS.pdb
     RDKit          3D

 25 25  0  0  1  0  0  0  0  0999 V2000
   20.0339  -13.2162  -16.8244 N   0  0  0  0  0  0  0  0  0  0  0  0
   19.4452  -11.9235  -16.5241 C   0  0  1  0  0  0  0  0  0  0  0  0
   18.6544  -11.9888  -15.2552 C   0  0  0  0  0  0  0  0  0  0  0  0
   17.3272  -12.5735  -15.5756 C   0  0  0  0  0  0  0  0  0  0  0  0
   16.8570  -12.4630  -16.7459 O   0  0  0  0  0  0  0  0  0  0  0  0
   20.5291  -10.9091  -16.4750 C   0  0  0  0  0  0  0  0  0  0  0  0
   21.6131  -11.1146  -15.8272 O   0  0  0  0  0  0  0  0  0  0  0  0
   16.5448  -13.2506  -14.6584 O   0  0  0  0  0  0  0  0  0  0  0  0
   20.4104   -9.6635  -17.1459 N   0  0  0  0  0  0  0  0  0  0  0  0
   21.5544   -8.7173  -17.1952 C   0  0  1  0  0  0  0  0  0  0  0  0
   21.8622   -8.3905  -18.6171 C   0  0  0  0  0  0  0  0  0  0  0  0
   22.5464   -9.3935  -19.4088 C   0  0  0  0  0  0  0  0  0  0  0  0
   23.5943  -10.2451  -19.1813 C   0  0  0  0  0  0  0  0  0  0  0  0
   23.7579  -11.0187  -20.2955 N   0  0  0  0  0  0  0  0  0  0  0  0
   22.8431  -10.6577  -21.1773 C   0  0  0  0  0  0  0  0  0  0  0  0
   22.1101   -9.6911  -20.6698 N   0  0  0  0  0  0  0  0  0  0  0  0
   21.0364   -7.4309  -16.5749 C   0  0  0  0  0  0  0  0  0  0  0  0
   19.8559   -7.1261  -16.7269 O   0  0  0  0  0  0  0  0  0  0  0  0
   20.1163   -4.9011  -13.0770 O   0  0  0  0  0  0  0  0  0  0  0  0
   20.5125   -5.9748  -13.9073 C   0  0  0  0  0  0  0  0  0  0  0  0
   21.3773   -5.4528  -15.0435 C   0  0  2  0  0  0  0  0  0  0  0  0
   21.8696   -6.5692  -15.8259 N   0  0  0  0  0  0  0  0  0  0  0  0
   22.5090   -4.6627  -14.4761 C   0  0  0  0  0  0  0  0  0  0  0  0
   23.6435   -5.1607  -14.3864 O   0  0  0  0  0  0  0  0  0  0  0  0
   22.3102   -3.3629  -14.0416 O   0  0  0  0  0  0  0  0  0  0  0  0
  2  1  1  1
  2  3  1  0
  3  4  1  0
  4  5  2  0
  6  2  1  0
  7  6  2  0
  8  4  1  0
  9  6  1  0
 10 11  1  6
 10  9  1  0
 11 12  1  0
 12 13  2  0
 13 14  1  0
 15 14  1  0
 16 12  1  0
 16 15  2  0
 17 22  1  0
 17 10  1  0
 18 17  2  0
 19 20  1  0
 21 20  1  1
 21 22  1  0
 23 21  1  0
 23 25  1  0
 24 23  2  0
M  END
$$$$
