DHS.pdb
     RDKit          3D

 25 25  0  0  1  0  0  0  0  0999 V2000
   16.1928  -13.4706  -15.4086 N   0  0  0  0  0  0  0  0  0  0  0  0
   16.1590  -12.0202  -15.3568 C   0  0  1  0  0  0  0  0  0  0  0  0
   15.6265  -11.5542  -14.0380 C   0  0  0  0  0  0  0  0  0  0  0  0
   14.1904  -11.9267  -13.9698 C   0  0  0  0  0  0  0  0  0  0  0  0
   13.4843  -11.9053  -15.0204 O   0  0  0  0  0  0  0  0  0  0  0  0
   17.5224  -11.5039  -15.6415 C   0  0  0  0  0  0  0  0  0  0  0  0
   18.5714  -12.1404  -15.2791 O   0  0  0  0  0  0  0  0  0  0  0  0
   13.5503  -12.3069  -12.8047 O   0  0  0  0  0  0  0  0  0  0  0  0
   17.7228  -10.2785  -16.3300 N   0  0  0  0  0  0  0  0  0  0  0  0
   19.0945   -9.7748  -16.5969 C   0  0  1  0  0  0  0  0  0  0  0  0
   19.1925   -9.3437  -18.0209 C   0  0  0  0  0  0  0  0  0  0  0  0
   20.4462   -8.7710  -18.4695 C   0  0  0  0  0  0  0  0  0  0  0  0
   21.6670   -8.5580  -17.8868 C   0  0  0  0  0  0  0  0  0  0  0  0
   22.4992   -8.0309  -18.8334 N   0  0  0  0  0  0  0  0  0  0  0  0
   21.8164   -7.9240  -19.9591 C   0  0  0  0  0  0  0  0  0  0  0  0
   20.5909   -8.3595  -19.7652 N   0  0  0  0  0  0  0  0  0  0  0  0
   19.2236   -8.5079  -15.7684 C   0  0  0  0  0  0  0  0  0  0  0  0
   18.2451   -7.7765  -15.6370 O   0  0  0  0  0  0  0  0  0  0  0  0
   21.9942   -5.9196  -12.6835 O   0  0  0  0  0  0  0  0  0  0  0  0
   21.8989   -7.0198  -13.5666 C   0  0  0  0  0  0  0  0  0  0  0  0
   20.6020   -6.9340  -14.3553 C   0  0  2  0  0  0  0  0  0  0  0  0
   20.4357   -8.1405  -15.1411 N   0  0  0  0  0  0  0  0  0  0  0  0
   20.6412   -5.7292  -15.2350 C   0  0  0  0  0  0  0  0  0  0  0  0
   21.3476   -5.7169  -16.2567 O   0  0  0  0  0  0  0  0  0  0  0  0
   19.8904   -4.6078  -14.9245 O   0  0  0  0  0  0  0  0  0  0  0  0
  2  1  1  1
  2  3  1  0
  3  4  1  0
  4  5  2  0
  6  2  1  0
  7  6  2  0
  8  4  1  0
  9  6  1  0
 10 11  1  6
 10  9  1  0
 11 12  1  0
 12 13  2  0
 13 14  1  0
 15 14  1  0
 16 12  1  0
 16 15  2  0
 17 22  1  0
 17 10  1  0
 18 17  2  0
 19 20  1  0
 21 20  1  6
 21 22  1  0
 23 21  1  0
 23 25  1  0
 24 23  2  0
M  END
$$$$
