DHS.pdb
     RDKit          3D

 25 25  0  0  1  0  0  0  0  0999 V2000
   13.8086   -9.9501  -12.4474 N   0  0  0  0  0  0  0  0  0  0  0  0
   15.2559  -10.0640  -12.4435 C   0  0  1  0  0  0  0  0  0  0  0  0
   15.7325  -10.7419  -13.6897 C   0  0  0  0  0  0  0  0  0  0  0  0
   15.4689  -12.1965  -13.5458 C   0  0  0  0  0  0  0  0  0  0  0  0
   16.0680  -13.0218  -14.2961 O   0  0  0  0  0  0  0  0  0  0  0  0
   15.8375   -8.7087  -12.2674 C   0  0  0  0  0  0  0  0  0  0  0  0
   15.4231   -7.7061  -12.9456 O   0  0  0  0  0  0  0  0  0  0  0  0
   14.5887  -12.7296  -12.6224 O   0  0  0  0  0  0  0  0  0  0  0  0
   16.8816   -8.4646  -11.3368 N   0  0  0  0  0  0  0  0  0  0  0  0
   17.3886   -7.0868  -11.1108 C   0  0  1  0  0  0  0  0  0  0  0  0
   17.2920   -6.7584   -9.6595 C   0  0  0  0  0  0  0  0  0  0  0  0
   15.9985   -6.3600   -9.1408 C   0  0  0  0  0  0  0  0  0  0  0  0
   14.7710   -6.1251   -9.7006 C   0  0  0  0  0  0  0  0  0  0  0  0
   13.8968   -5.8341   -8.6917 N   0  0  0  0  0  0  0  0  0  0  0  0
   14.5613   -5.8890   -7.5514 C   0  0  0  0  0  0  0  0  0  0  0  0
   15.8152   -6.2010   -7.7954 N   0  0  0  0  0  0  0  0  0  0  0  0
   18.8734   -7.1503  -11.4256 C   0  0  0  0  0  0  0  0  0  0  0  0
   19.5634   -8.0117  -10.8856 O   0  0  0  0  0  0  0  0  0  0  0  0
   22.2305   -6.9216  -14.6596 O   0  0  0  0  0  0  0  0  0  0  0  0
   20.8930   -6.8442  -14.2074 C   0  0  0  0  0  0  0  0  0  0  0  0
   20.8660   -6.3677  -12.7640 C   0  0  2  0  0  0  0  0  0  0  0  0
   19.4907   -6.2486  -12.3220 N   0  0  0  0  0  0  0  0  0  0  0  0
   21.5699   -5.0555  -12.6669 C   0  0  0  0  0  0  0  0  0  0  0  0
   20.9554   -3.9939  -12.8634 O   0  0  0  0  0  0  0  0  0  0  0  0
   22.9184   -5.0028  -12.3561 O   0  0  0  0  0  0  0  0  0  0  0  0
  2  1  1  6
  2  3  1  0
  3  4  1  0
  4  5  2  0
  6  2  1  0
  7  6  2  0
  8  4  1  0
  9  6  1  0
 10 11  1  1
 10  9  1  0
 11 12  1  0
 12 13  2  0
 13 14  1  0
 15 14  1  0
 16 12  1  0
 16 15  2  0
 17 22  1  0
 17 10  1  0
 18 17  2  0
 19 20  1  0
 21 20  1  6
 21 22  1  0
 23 21  1  0
 23 25  1  0
 24 23  2  0
M  END
$$$$
