DHS.pdb
     RDKit          3D

 25 25  0  0  1  0  0  0  0  0999 V2000
   19.6170  -13.0745  -16.8797 N   0  0  0  0  0  0  0  0  0  0  0  0
   19.6385  -11.6494  -17.1554 C   0  0  1  0  0  0  0  0  0  0  0  0
   18.2539  -11.0836  -17.1028 C   0  0  0  0  0  0  0  0  0  0  0  0
   17.5045  -11.6048  -18.2744 C   0  0  0  0  0  0  0  0  0  0  0  0
   16.2809  -11.9071  -18.1548 O   0  0  0  0  0  0  0  0  0  0  0  0
   20.5642  -10.9949  -16.1958 C   0  0  0  0  0  0  0  0  0  0  0  0
   20.5000  -11.2224  -14.9383 O   0  0  0  0  0  0  0  0  0  0  0  0
   18.0655  -11.7891  -19.5247 O   0  0  0  0  0  0  0  0  0  0  0  0
   21.5637  -10.0857  -16.6317 N   0  0  0  0  0  0  0  0  0  0  0  0
   22.5386   -9.5123  -15.6688 C   0  0  1  0  0  0  0  0  0  0  0  0
   23.9189   -9.9075  -16.0711 C   0  0  0  0  0  0  0  0  0  0  0  0
   24.3259  -11.2784  -15.8345 C   0  0  0  0  0  0  0  0  0  0  0  0
   24.2276  -12.1393  -14.7740 C   0  0  0  0  0  0  0  0  0  0  0  0
   24.7423  -13.3444  -15.1608 N   0  0  0  0  0  0  0  0  0  0  0  0
   25.1421  -13.2306  -16.4146 C   0  0  0  0  0  0  0  0  0  0  0  0
   24.9033  -12.0082  -16.8360 N   0  0  0  0  0  0  0  0  0  0  0  0
   22.4610   -8.0083  -15.8689 C   0  0  0  0  0  0  0  0  0  0  0  0
   22.4285   -7.5575  -17.0114 O   0  0  0  0  0  0  0  0  0  0  0  0
   19.9265   -5.8207  -14.8054 O   0  0  0  0  0  0  0  0  0  0  0  0
   20.9930   -5.3262  -15.5912 C   0  0  0  0  0  0  0  0  0  0  0  0
   22.3188   -5.6687  -14.9308 C   0  0  2  0  0  0  0  0  0  0  0  0
   22.4249   -7.1065  -14.7812 N   0  0  0  0  0  0  0  0  0  0  0  0
   22.3962   -4.9902  -13.6040 C   0  0  0  0  0  0  0  0  0  0  0  0
   22.3849   -5.6543  -12.5542 O   0  0  0  0  0  0  0  0  0  0  0  0
   22.4816   -3.6102  -13.5244 O   0  0  0  0  0  0  0  0  0  0  0  0
  2  1  1  1
  2  3  1  0
  3  4  1  0
  4  5  2  0
  6  2  1  0
  7  6  2  0
  8  4  1  0
  9  6  1  0
 10 11  1  6
 10  9  1  0
 11 12  1  0
 12 13  2  0
 13 14  1  0
 15 14  1  0
 16 12  1  0
 16 15  2  0
 17 22  1  0
 17 10  1  0
 18 17  2  0
 19 20  1  0
 21 20  1  1
 21 22  1  0
 23 21  1  0
 23 25  1  0
 24 23  2  0
M  END
$$$$
