NND.pdb
     RDKit          3D

 25 24  0  0  1  0  0  0  0  0999 V2000
   12.5903   -6.8571   -7.4147 N   0  0  0  0  0  0  0  0  0  0  0  0
   12.8627   -8.2177   -7.1778 C   0  0  0  0  0  0  0  0  0  0  0  0
   12.1060   -8.8965   -6.4421 O   0  0  0  0  0  0  0  0  0  0  0  0
   14.0794   -8.7996   -7.8383 C   0  0  0  0  0  0  0  0  0  0  0  0
   14.8361   -7.7041   -8.6044 C   0  0  2  0  0  0  0  0  0  0  0  0
   13.9305   -7.0708   -9.5347 N   0  0  0  0  0  0  0  0  0  0  0  0
   15.9059   -8.3829   -9.3534 C   0  0  0  0  0  0  0  0  0  0  0  0
   16.9055   -8.8256   -8.7273 O   0  0  0  0  0  0  0  0  0  0  0  0
   19.0254  -10.4225  -12.6035 N   0  0  0  0  0  0  0  0  0  0  0  0
   17.7066  -10.6677  -13.1350 C   0  0  0  0  0  0  0  0  0  0  0  0
   17.5992  -11.4840  -14.0726 O   0  0  0  0  0  0  0  0  0  0  0  0
   16.5239   -9.9808  -12.5934 C   0  0  0  0  0  0  0  0  0  0  0  0
   16.9826   -9.0598  -11.4627 C   0  0  2  0  0  0  0  0  0  0  0  0
   15.8204   -8.5427  -10.7748 N   0  0  0  0  0  0  0  0  0  0  0  0
   17.8432   -7.9695  -11.9767 C   0  0  0  0  0  0  0  0  0  0  0  0
   17.3682   -6.8505  -12.2977 O   0  0  0  0  0  0  0  0  0  0  0  0
   19.2429   -8.1169  -12.1376 N   0  0  0  0  0  0  0  0  0  0  0  0
   20.0580   -7.0134  -12.6415 C   0  0  1  0  0  0  0  0  0  0  0  0
   21.2188   -6.7709  -11.6793 C   0  0  0  0  0  0  0  0  0  0  0  0
   22.1241   -5.6991  -12.1106 C   0  0  0  0  0  0  0  0  0  0  0  0
   21.8678   -4.9474  -13.0883 O   0  0  0  0  0  0  0  0  0  0  0  0
   20.5050   -7.3042  -14.0174 C   0  0  0  0  0  0  0  0  0  0  0  0
   21.1978   -6.4183  -14.6321 O   0  0  0  0  0  0  0  0  0  0  0  0
   23.3170   -5.4680  -11.4527 O   0  0  0  0  0  0  0  0  0  0  0  0
   20.2566   -8.4486  -14.7348 O   0  0  0  0  0  0  0  0  0  0  0  0
  1  2  1  0
  2  3  2  0
  4  2  1  0
  5  4  1  0
  5  6  1  6
  7  8  2  0
  7  5  1  0
 10  9  1  0
 10 12  1  0
 11 10  2  0
 13 12  1  6
 13 14  1  0
 14  7  1  0
 15 13  1  0
 15 17  1  0
 16 15  2  0
 18 17  1  0
 18 22  1  0
 18 19  1  1
 19 20  1  0
 20 24  1  0
 20 21  2  0
 22 25  1  0
 23 22  2  0
M  END
$$$$
