NND.pdb
     RDKit          3D

 25 24  0  0  1  0  0  0  0  0999 V2000
   15.2579  -13.7601  -11.4158 N   0  0  0  0  0  0  0  0  0  0  0  0
   16.0398  -12.8416  -12.1412 C   0  0  0  0  0  0  0  0  0  0  0  0
   16.9522  -13.2477  -12.9010 O   0  0  0  0  0  0  0  0  0  0  0  0
   15.7300  -11.3833  -11.9613 C   0  0  0  0  0  0  0  0  0  0  0  0
   14.6629  -11.2034  -10.8711 C   0  0  2  0  0  0  0  0  0  0  0  0
   13.3843  -11.6298  -11.3907 N   0  0  0  0  0  0  0  0  0  0  0  0
   14.6104   -9.7628  -10.5734 C   0  0  0  0  0  0  0  0  0  0  0  0
   14.1009   -8.9811  -11.4197 O   0  0  0  0  0  0  0  0  0  0  0  0
   12.4818   -8.0390   -8.2341 N   0  0  0  0  0  0  0  0  0  0  0  0
   13.4863   -7.7347   -7.2441 C   0  0  0  0  0  0  0  0  0  0  0  0
   13.1185   -7.6217   -6.0571 O   0  0  0  0  0  0  0  0  0  0  0  0
   14.8990   -7.5619   -7.6160 C   0  0  0  0  0  0  0  0  0  0  0  0
   15.0331   -7.8225   -9.1165 C   0  0  2  0  0  0  0  0  0  0  0  0
   15.1290   -9.2478   -9.3409 N   0  0  0  0  0  0  0  0  0  0  0  0
   16.1960   -7.1009   -9.6828 C   0  0  0  0  0  0  0  0  0  0  0  0
   17.3712   -7.5192   -9.5265 O   0  0  0  0  0  0  0  0  0  0  0  0
   16.0589   -5.9049  -10.4297 N   0  0  0  0  0  0  0  0  0  0  0  0
   17.2165   -5.2901  -11.0760 C   0  0  1  0  0  0  0  0  0  0  0  0
   17.8976   -6.3252  -11.9686 C   0  0  0  0  0  0  0  0  0  0  0  0
   19.0166   -5.7823  -12.7480 C   0  0  0  0  0  0  0  0  0  0  0  0
   20.0040   -5.2135  -12.2112 O   0  0  0  0  0  0  0  0  0  0  0  0
   16.7994   -4.0823  -11.8140 C   0  0  0  0  0  0  0  0  0  0  0  0
   17.7084   -3.3391  -12.3280 O   0  0  0  0  0  0  0  0  0  0  0  0
   19.0324   -5.8715  -14.1267 O   0  0  0  0  0  0  0  0  0  0  0  0
   15.5116   -3.6515  -12.0193 O   0  0  0  0  0  0  0  0  0  0  0  0
  1  2  1  0
  2  3  2  0
  4  2  1  0
  5  4  1  0
  5  6  1  6
  7  8  2  0
  7  5  1  0
 10  9  1  0
 10 12  1  0
 11 10  2  0
 13 12  1  1
 13 14  1  0
 14  7  1  0
 15 13  1  0
 15 17  1  0
 16 15  2  0
 18 17  1  0
 18 22  1  0
 18 19  1  6
 19 20  1  0
 20 24  1  0
 20 21  2  0
 22 25  1  0
 23 22  2  0
M  END
$$$$
