NND.pdb
     RDKit          3D

 25 24  0  0  1  0  0  0  0  0999 V2000
   15.5530  -12.6861  -14.4962 N   0  0  0  0  0  0  0  0  0  0  0  0
   14.4583  -12.3420  -13.6810 C   0  0  0  0  0  0  0  0  0  0  0  0
   13.4799  -13.1202  -13.5726 O   0  0  0  0  0  0  0  0  0  0  0  0
   14.5232  -11.0240  -12.9643 C   0  0  0  0  0  0  0  0  0  0  0  0
   15.8097  -10.2787  -13.3504 C   0  0  2  0  0  0  0  0  0  0  0  0
   16.9383  -10.9436  -12.7415 N   0  0  0  0  0  0  0  0  0  0  0  0
   15.6875   -8.9213  -12.7944 C   0  0  0  0  0  0  0  0  0  0  0  0
   14.8252   -8.1385  -13.2747 O   0  0  0  0  0  0  0  0  0  0  0  0
   14.6749   -7.3545   -9.2403 N   0  0  0  0  0  0  0  0  0  0  0  0
   16.0521   -7.1010   -8.8928 C   0  0  0  0  0  0  0  0  0  0  0  0
   16.3394   -7.0068   -7.6822 O   0  0  0  0  0  0  0  0  0  0  0  0
   17.0878   -6.9571   -9.9275 C   0  0  0  0  0  0  0  0  0  0  0  0
   16.4214   -7.1105  -11.2949 C   0  0  2  0  0  0  0  0  0  0  0  0
   16.5330   -8.4876  -11.7220 N   0  0  0  0  0  0  0  0  0  0  0  0
   17.0129   -6.1817  -12.2854 C   0  0  0  0  0  0  0  0  0  0  0  0
   18.1578   -6.3743  -12.7679 O   0  0  0  0  0  0  0  0  0  0  0  0
   16.3324   -5.0284  -12.7476 N   0  0  0  0  0  0  0  0  0  0  0  0
   16.9471   -4.1425  -13.7340 C   0  0  1  0  0  0  0  0  0  0  0  0
   16.7391   -4.7284  -15.1288 C   0  0  0  0  0  0  0  0  0  0  0  0
   17.1859   -3.8421  -16.2101 C   0  0  0  0  0  0  0  0  0  0  0  0
   16.4409   -3.5180  -17.1727 O   0  0  0  0  0  0  0  0  0  0  0  0
   16.3998   -2.7789  -13.5975 C   0  0  0  0  0  0  0  0  0  0  0  0
   16.9063   -1.8453  -14.3148 O   0  0  0  0  0  0  0  0  0  0  0  0
   18.4651   -3.3200  -16.2189 O   0  0  0  0  0  0  0  0  0  0  0  0
   15.3801   -2.3849  -12.7661 O   0  0  0  0  0  0  0  0  0  0  0  0
  1  2  1  0
  2  3  2  0
  4  2  1  0
  5  4  1  0
  5  6  1  1
  7  8  2  0
  7  5  1  0
 10  9  1  0
 10 12  1  0
 11 10  2  0
 13 12  1  1
 13 14  1  0
 14  7  1  0
 15 13  1  0
 15 17  1  0
 16 15  2  0
 18 17  1  0
 18 22  1  0
 18 19  1  6
 19 20  1  0
 20 24  1  0
 20 21  2  0
 22 25  1  0
 23 22  2  0
M  END
$$$$
