NND.pdb
     RDKit          3D

 25 24  0  0  1  0  0  0  0  0999 V2000
   26.0243  -18.8248  -17.1712 N   0  0  0  0  0  0  0  0  0  0  0  0
   25.0673  -18.0420  -17.8441 C   0  0  0  0  0  0  0  0  0  0  0  0
   24.3795  -18.5385  -18.7688 O   0  0  0  0  0  0  0  0  0  0  0  0
   24.9171  -16.6136  -17.4053 C   0  0  0  0  0  0  0  0  0  0  0  0
   24.9772  -15.6805  -18.6241 C   0  0  2  0  0  0  0  0  0  0  0  0
   26.2166  -15.9093  -19.3299 N   0  0  0  0  0  0  0  0  0  0  0  0
   24.9646  -14.3061  -18.0973 C   0  0  0  0  0  0  0  0  0  0  0  0
   23.9376  -13.8897  -17.4983 O   0  0  0  0  0  0  0  0  0  0  0  0
   29.2560  -13.0733  -16.9715 N   0  0  0  0  0  0  0  0  0  0  0  0
   28.0771  -12.3221  -16.6143 C   0  0  0  0  0  0  0  0  0  0  0  0
   27.6725  -12.3988  -15.4364 O   0  0  0  0  0  0  0  0  0  0  0  0
   27.3710  -11.4916  -17.6020 C   0  0  0  0  0  0  0  0  0  0  0  0
   25.9745  -12.0784  -17.8083 C   0  0  2  0  0  0  0  0  0  0  0  0
   26.0997  -13.4468  -18.2588 N   0  0  0  0  0  0  0  0  0  0  0  0
   25.1856  -11.2606  -18.7583 C   0  0  0  0  0  0  0  0  0  0  0  0
   25.1713  -11.5117  -19.9902 O   0  0  0  0  0  0  0  0  0  0  0  0
   24.4045  -10.1541  -18.3431 N   0  0  0  0  0  0  0  0  0  0  0  0
   23.4695   -9.5111  -19.2641 C   0  0  1  0  0  0  0  0  0  0  0  0
   22.4521  -10.5439  -19.7439 C   0  0  0  0  0  0  0  0  0  0  0  0
   21.3940   -9.9767  -20.5883 C   0  0  0  0  0  0  0  0  0  0  0  0
   21.6028   -9.0303  -21.3928 O   0  0  0  0  0  0  0  0  0  0  0  0
   22.8403   -8.3464  -18.6122 C   0  0  0  0  0  0  0  0  0  0  0  0
   23.0053   -8.1925  -17.3504 O   0  0  0  0  0  0  0  0  0  0  0  0
   20.1022  -10.4638  -20.5329 O   0  0  0  0  0  0  0  0  0  0  0  0
   22.0766   -7.3806  -19.2205 O   0  0  0  0  0  0  0  0  0  0  0  0
  1  2  1  0
  2  3  2  0
  4  2  1  0
  5  4  1  0
  5  6  1  1
  7  8  2  0
  7  5  1  0
 10  9  1  0
 10 12  1  0
 11 10  2  0
 13 12  1  6
 13 14  1  0
 14  7  1  0
 15 13  1  0
 15 17  1  0
 16 15  2  0
 18 17  1  0
 18 22  1  0
 18 19  1  1
 19 20  1  0
 20 24  1  0
 20 21  2  0
 22 25  1  0
 23 22  2  0
M  END
$$$$
