NND.pdb
     RDKit          3D

 25 24  0  0  1  0  0  0  0  0999 V2000
   27.9803  -23.4035  -16.9934 N   0  0  0  0  0  0  0  0  0  0  0  0
   28.5106  -22.6100  -15.9587 C   0  0  0  0  0  0  0  0  0  0  0  0
   29.6545  -22.8476  -15.5010 O   0  0  0  0  0  0  0  0  0  0  0  0
   27.6534  -21.4893  -15.4446 C   0  0  0  0  0  0  0  0  0  0  0  0
   26.2686  -21.5403  -16.1073 C   0  0  2  0  0  0  0  0  0  0  0  0
   26.4363  -21.6251  -17.5395 N   0  0  0  0  0  0  0  0  0  0  0  0
   25.5988  -20.2735  -15.7707 C   0  0  0  0  0  0  0  0  0  0  0  0
   25.3294  -20.0251  -14.5654 O   0  0  0  0  0  0  0  0  0  0  0  0
   26.6230  -16.6211  -14.9745 N   0  0  0  0  0  0  0  0  0  0  0  0
   26.4394  -16.7730  -16.3975 C   0  0  0  0  0  0  0  0  0  0  0  0
   27.4575  -16.7758  -17.1190 O   0  0  0  0  0  0  0  0  0  0  0  0
   25.0984  -16.9200  -16.9843 C   0  0  0  0  0  0  0  0  0  0  0  0
   24.4608  -18.1842  -16.4077 C   0  0  2  0  0  0  0  0  0  0  0  0
   25.2543  -19.3302  -16.7927 N   0  0  0  0  0  0  0  0  0  0  0  0
   23.0533  -18.3217  -16.8476 C   0  0  0  0  0  0  0  0  0  0  0  0
   22.7594  -18.6245  -18.0319 O   0  0  0  0  0  0  0  0  0  0  0  0
   21.9592  -18.1228  -15.9699 N   0  0  0  0  0  0  0  0  0  0  0  0
   20.5935  -18.4175  -16.3986 C   0  0  1  0  0  0  0  0  0  0  0  0
   20.5098  -19.8810  -16.8265 C   0  0  0  0  0  0  0  0  0  0  0  0
   19.4535  -20.6337  -16.1395 C   0  0  0  0  0  0  0  0  0  0  0  0
   18.3763  -20.1003  -15.7628 O   0  0  0  0  0  0  0  0  0  0  0  0
   19.6430  -18.0799  -15.3215 C   0  0  0  0  0  0  0  0  0  0  0  0
   20.1140  -17.7108  -14.1880 O   0  0  0  0  0  0  0  0  0  0  0  0
   19.6003  -21.9809  -15.8703 O   0  0  0  0  0  0  0  0  0  0  0  0
   18.2723  -18.1166  -15.3973 O   0  0  0  0  0  0  0  0  0  0  0  0
  1  2  1  0
  2  3  2  0
  4  2  1  0
  5  4  1  0
  5  6  1  6
  7  8  2  0
  7  5  1  0
 10  9  1  0
 10 12  1  0
 11 10  2  0
 13 12  1  6
 13 14  1  0
 14  7  1  0
 15 13  1  0
 15 17  1  0
 16 15  2  0
 18 17  1  0
 18 22  1  0
 18 19  1  1
 19 20  1  0
 20 24  1  0
 20 21  2  0
 22 25  1  0
 23 22  2  0
M  END
$$$$
