NND.pdb
     RDKit          3D

 25 24  0  0  1  0  0  0  0  0999 V2000
   17.6788  -12.6772  -17.1788 N   0  0  0  0  0  0  0  0  0  0  0  0
   16.7687  -12.0388  -16.3153 C   0  0  0  0  0  0  0  0  0  0  0  0
   15.5434  -12.3016  -16.3798 O   0  0  0  0  0  0  0  0  0  0  0  0
   17.3305  -11.0494  -15.3352 C   0  0  0  0  0  0  0  0  0  0  0  0
   18.8435  -10.8964  -15.5517 C   0  0  2  0  0  0  0  0  0  0  0  0
   19.5126  -12.0677  -15.0350 N   0  0  0  0  0  0  0  0  0  0  0  0
   19.2584   -9.7174  -14.7744 C   0  0  0  0  0  0  0  0  0  0  0  0
   19.0384   -9.6936  -13.5342 O   0  0  0  0  0  0  0  0  0  0  0  0
   21.0914   -5.3940  -13.0689 N   0  0  0  0  0  0  0  0  0  0  0  0
   21.8616   -5.6912  -14.2522 C   0  0  0  0  0  0  0  0  0  0  0  0
   22.8711   -4.9942  -14.4803 O   0  0  0  0  0  0  0  0  0  0  0  0
   21.4741   -6.7790  -15.1637 C   0  0  0  0  0  0  0  0  0  0  0  0
   20.2326   -7.4628  -14.5906 C   0  0  2  0  0  0  0  0  0  0  0  0
   19.9039   -8.6076  -15.4106 N   0  0  0  0  0  0  0  0  0  0  0  0
   19.0974   -6.5163  -14.4937 C   0  0  0  0  0  0  0  0  0  0  0  0
   17.9575   -6.8066  -14.9375 O   0  0  0  0  0  0  0  0  0  0  0  0
   19.2230   -5.2362  -13.9001 N   0  0  0  0  0  0  0  0  0  0  0  0
   18.0881   -4.3163  -13.8592 C   0  0  1  0  0  0  0  0  0  0  0  0
   17.1834   -4.6922  -12.6877 C   0  0  0  0  0  0  0  0  0  0  0  0
   16.1090   -3.7229  -12.4416 C   0  0  0  0  0  0  0  0  0  0  0  0
   15.8891   -2.7460  -13.2057 O   0  0  0  0  0  0  0  0  0  0  0  0
   18.5703   -2.9236  -13.7872 C   0  0  0  0  0  0  0  0  0  0  0  0
   17.7054   -1.9780  -13.8146 O   0  0  0  0  0  0  0  0  0  0  0  0
   15.2821   -3.8421  -11.3411 O   0  0  0  0  0  0  0  0  0  0  0  0
   19.8773   -2.5131  -13.6912 O   0  0  0  0  0  0  0  0  0  0  0  0
  1  2  1  0
  2  3  2  0
  4  2  1  0
  5  4  1  0
  5  6  1  1
  7  8  2  0
  7  5  1  0
 10  9  1  0
 10 12  1  0
 11 10  2  0
 13 12  1  6
 13 14  1  0
 14  7  1  0
 15 13  1  0
 15 17  1  0
 16 15  2  0
 18 17  1  0
 18 22  1  0
 18 19  1  1
 19 20  1  0
 20 24  1  0
 20 21  2  0
 22 25  1  0
 23 22  2  0
M  END
$$$$
