NND.pdb
     RDKit          3D

 25 24  0  0  1  0  0  0  0  0999 V2000
   28.3403  -20.1887  -15.5875 N   0  0  0  0  0  0  0  0  0  0  0  0
   28.2260  -20.4205  -14.2039 C   0  0  0  0  0  0  0  0  0  0  0  0
   29.2351  -20.3388  -13.4624 O   0  0  0  0  0  0  0  0  0  0  0  0
   26.8627  -20.7625  -13.6752 C   0  0  0  0  0  0  0  0  0  0  0  0
   25.8252  -20.6805  -14.8050 C   0  0  2  0  0  0  0  0  0  0  0  0
   25.8867  -19.3678  -15.4046 N   0  0  0  0  0  0  0  0  0  0  0  0
   24.5079  -20.8656  -14.1749 C   0  0  0  0  0  0  0  0  0  0  0  0
   24.0239  -22.0262  -14.0979 O   0  0  0  0  0  0  0  0  0  0  0  0
   20.9466  -19.7209   -9.5969 N   0  0  0  0  0  0  0  0  0  0  0  0
   21.2880  -20.0991  -10.9467 C   0  0  0  0  0  0  0  0  0  0  0  0
   20.4855  -20.8241  -11.5691 O   0  0  0  0  0  0  0  0  0  0  0  0
   22.5400  -19.6481  -11.5739 C   0  0  0  0  0  0  0  0  0  0  0  0
   22.4868  -20.0078  -13.0588 C   0  0  2  0  0  0  0  0  0  0  0  0
   23.7789  -19.7476  -13.6537 N   0  0  0  0  0  0  0  0  0  0  0  0
   21.4076  -19.2658  -13.7506 C   0  0  0  0  0  0  0  0  0  0  0  0
   21.4449  -18.0157  -13.8792 O   0  0  0  0  0  0  0  0  0  0  0  0
   20.2758  -19.9117  -14.3061 N   0  0  0  0  0  0  0  0  0  0  0  0
   19.2349  -19.1432  -14.9857 C   0  0  1  0  0  0  0  0  0  0  0  0
   19.0050  -19.7344  -16.3748 C   0  0  0  0  0  0  0  0  0  0  0  0
   18.0031  -19.0074  -17.1634 C   0  0  0  0  0  0  0  0  0  0  0  0
   17.4306  -17.9683  -16.7401 O   0  0  0  0  0  0  0  0  0  0  0  0
   18.0096  -19.1171  -14.1638 C   0  0  0  0  0  0  0  0  0  0  0  0
   17.6333  -20.2038  -13.5977 O   0  0  0  0  0  0  0  0  0  0  0  0
   17.6378  -19.4415  -18.4232 O   0  0  0  0  0  0  0  0  0  0  0  0
   17.2036  -18.0302  -13.9291 O   0  0  0  0  0  0  0  0  0  0  0  0
  1  2  1  0
  2  3  2  0
  4  2  1  0
  5  4  1  0
  5  6  1  1
  7  8  2  0
  7  5  1  0
 10  9  1  0
 10 12  1  0
 11 10  2  0
 13 12  1  1
 13 14  1  0
 14  7  1  0
 15 13  1  0
 15 17  1  0
 16 15  2  0
 18 17  1  0
 18 22  1  0
 18 19  1  6
 19 20  1  0
 20 24  1  0
 20 21  2  0
 22 25  1  0
 23 22  2  0
M  END
$$$$
