NND.pdb
     RDKit          3D

 25 24  0  0  1  0  0  0  0  0999 V2000
   17.4375  -12.8329  -16.2105 N   0  0  0  0  0  0  0  0  0  0  0  0
   18.6660  -13.2718  -15.6819 C   0  0  0  0  0  0  0  0  0  0  0  0
   18.7649  -14.4153  -15.1746 O   0  0  0  0  0  0  0  0  0  0  0  0
   19.8251  -12.3200  -15.7565 C   0  0  0  0  0  0  0  0  0  0  0  0
   19.3628  -10.9731  -16.3327 C   0  0  2  0  0  0  0  0  0  0  0  0
   19.0439  -11.1453  -17.7310 N   0  0  0  0  0  0  0  0  0  0  0  0
   20.5034  -10.0517  -16.2043 C   0  0  0  0  0  0  0  0  0  0  0  0
   20.9639   -9.8037  -15.0582 O   0  0  0  0  0  0  0  0  0  0  0  0
   23.6041  -10.7834  -19.7613 N   0  0  0  0  0  0  0  0  0  0  0  0
   23.6458  -10.0679  -18.5091 C   0  0  0  0  0  0  0  0  0  0  0  0
   24.1220  -10.6569  -17.5175 O   0  0  0  0  0  0  0  0  0  0  0  0
   23.1445   -8.6893  -18.3989 C   0  0  0  0  0  0  0  0  0  0  0  0
   22.2505   -8.6036  -17.1617 C   0  0  2  0  0  0  0  0  0  0  0  0
   21.0883   -9.4407  -17.3608 N   0  0  0  0  0  0  0  0  0  0  0  0
   21.8708   -7.2016  -16.8722 C   0  0  0  0  0  0  0  0  0  0  0  0
   21.3460   -6.4668  -17.7470 O   0  0  0  0  0  0  0  0  0  0  0  0
   22.0729   -6.6054  -15.6031 N   0  0  0  0  0  0  0  0  0  0  0  0
   21.6285   -5.2383  -15.3398 C   0  0  1  0  0  0  0  0  0  0  0  0
   20.1065   -5.1787  -15.4497 C   0  0  0  0  0  0  0  0  0  0  0  0
   19.5438   -3.8691  -15.0995 C   0  0  0  0  0  0  0  0  0  0  0  0
   20.0645   -2.7852  -15.4743 O   0  0  0  0  0  0  0  0  0  0  0  0
   22.1263   -4.7907  -14.0248 C   0  0  0  0  0  0  0  0  0  0  0  0
   21.8651   -3.5929  -13.6508 O   0  0  0  0  0  0  0  0  0  0  0  0
   18.4016   -3.7691  -14.3284 O   0  0  0  0  0  0  0  0  0  0  0  0
   22.8581   -5.5324  -13.1302 O   0  0  0  0  0  0  0  0  0  0  0  0
  1  2  1  0
  2  3  2  0
  4  2  1  0
  5  4  1  0
  5  6  1  6
  7  8  2  0
  7  5  1  0
 10  9  1  0
 10 12  1  0
 11 10  2  0
 13 12  1  6
 13 14  1  0
 14  7  1  0
 15 13  1  0
 15 17  1  0
 16 15  2  0
 18 17  1  0
 18 22  1  0
 18 19  1  1
 19 20  1  0
 20 24  1  0
 20 21  2  0
 22 25  1  0
 23 22  2  0
M  END
$$$$
