NND.pdb
     RDKit          3D

 25 24  0  0  1  0  0  0  0  0999 V2000
   19.4255  -14.1923  -16.0924 N   0  0  0  0  0  0  0  0  0  0  0  0
   20.4450  -13.3081  -16.4925 C   0  0  0  0  0  0  0  0  0  0  0  0
   21.6438  -13.6789  -16.4859 O   0  0  0  0  0  0  0  0  0  0  0  0
   20.0301  -11.9291  -16.9182 C   0  0  0  0  0  0  0  0  0  0  0  0
   18.5212  -11.7430  -16.6986 C   0  0  2  0  0  0  0  0  0  0  0  0
   17.8088  -12.3363  -17.8062 N   0  0  0  0  0  0  0  0  0  0  0  0
   18.2781  -10.2913  -16.6861 C   0  0  0  0  0  0  0  0  0  0  0  0
   18.3848   -9.6437  -17.7614 O   0  0  0  0  0  0  0  0  0  0  0  0
   14.1978   -9.4228  -15.5577 N   0  0  0  0  0  0  0  0  0  0  0  0
   15.2146   -8.4736  -15.9409 C   0  0  0  0  0  0  0  0  0  0  0  0
   15.2272   -8.0802  -17.1250 O   0  0  0  0  0  0  0  0  0  0  0  0
   16.2065   -7.9824  -14.9720 C   0  0  0  0  0  0  0  0  0  0  0  0
   17.6000   -8.2092  -15.5587 C   0  0  2  0  0  0  0  0  0  0  0  0
   17.9245   -9.6158  -15.4730 N   0  0  0  0  0  0  0  0  0  0  0  0
   18.6116   -7.3725  -14.8731 C   0  0  0  0  0  0  0  0  0  0  0  0
   19.3596   -7.8429  -13.9787 O   0  0  0  0  0  0  0  0  0  0  0  0
   18.7989   -6.0020  -15.1789 N   0  0  0  0  0  0  0  0  0  0  0  0
   19.8287   -5.2182  -14.4999 C   0  0  1  0  0  0  0  0  0  0  0  0
   21.1633   -5.9534  -14.6018 C   0  0  0  0  0  0  0  0  0  0  0  0
   22.2869   -5.2139  -14.0143 C   0  0  0  0  0  0  0  0  0  0  0  0
   23.2186   -4.7305  -14.7106 O   0  0  0  0  0  0  0  0  0  0  0  0
   19.8800   -3.8560  -15.0650 C   0  0  0  0  0  0  0  0  0  0  0  0
   19.4005   -3.6654  -16.2382 O   0  0  0  0  0  0  0  0  0  0  0  0
   22.3722   -5.0165  -12.6494 O   0  0  0  0  0  0  0  0  0  0  0  0
   20.3973   -2.7370  -14.4597 O   0  0  0  0  0  0  0  0  0  0  0  0
  1  2  1  0
  2  3  2  0
  4  2  1  0
  5  4  1  0
  5  6  1  6
  7  8  2  0
  7  5  1  0
 10  9  1  0
 10 12  1  0
 11 10  2  0
 13 12  1  1
 13 14  1  0
 14  7  1  0
 15 13  1  0
 15 17  1  0
 16 15  2  0
 18 17  1  0
 18 22  1  0
 18 19  1  6
 19 20  1  0
 20 24  1  0
 20 21  2  0
 22 25  1  0
 23 22  2  0
M  END
$$$$
