NND.pdb
     RDKit          3D

 25 24  0  0  1  0  0  0  0  0999 V2000
    9.8082  -12.1602   -9.5452 N   0  0  0  0  0  0  0  0  0  0  0  0
   11.2126  -12.0678   -9.5210 C   0  0  0  0  0  0  0  0  0  0  0  0
   11.9181  -13.0684   -9.7963 O   0  0  0  0  0  0  0  0  0  0  0  0
   11.8071  -10.7377   -9.1571 C   0  0  0  0  0  0  0  0  0  0  0  0
   12.3610  -10.0483  -10.4131 C   0  0  2  0  0  0  0  0  0  0  0  0
   13.3671  -10.8963  -11.0091 N   0  0  0  0  0  0  0  0  0  0  0  0
   12.9877   -8.7963   -9.9589 C   0  0  0  0  0  0  0  0  0  0  0  0
   12.2610   -7.8893   -9.4731 O   0  0  0  0  0  0  0  0  0  0  0  0
   15.4637   -4.9329   -7.7707 N   0  0  0  0  0  0  0  0  0  0  0  0
   16.2952   -6.0363   -8.1867 C   0  0  0  0  0  0  0  0  0  0  0  0
   17.5187   -5.8276   -8.3144 O   0  0  0  0  0  0  0  0  0  0  0  0
   15.7247   -7.3658   -8.4533 C   0  0  0  0  0  0  0  0  0  0  0  0
   14.9260   -7.2905   -9.7547 C   0  0  2  0  0  0  0  0  0  0  0  0
   14.4036   -8.6030  -10.0640 N   0  0  0  0  0  0  0  0  0  0  0  0
   15.7547   -6.7579  -10.8608 C   0  0  0  0  0  0  0  0  0  0  0  0
   16.2144   -7.5070  -11.7598 O   0  0  0  0  0  0  0  0  0  0  0  0
   16.0786   -5.3835  -10.9748 N   0  0  0  0  0  0  0  0  0  0  0  0
   16.6198   -4.8436  -12.2203 C   0  0  1  0  0  0  0  0  0  0  0  0
   15.7492   -5.3088  -13.3855 C   0  0  0  0  0  0  0  0  0  0  0  0
   16.0569   -4.6357  -14.6531 C   0  0  0  0  0  0  0  0  0  0  0  0
   17.1983   -4.1717  -14.9147 O   0  0  0  0  0  0  0  0  0  0  0  0
   16.7209   -3.3742  -12.1311 C   0  0  0  0  0  0  0  0  0  0  0  0
   17.6098   -2.7813  -12.8389 O   0  0  0  0  0  0  0  0  0  0  0  0
   15.0900   -4.4777  -15.6274 O   0  0  0  0  0  0  0  0  0  0  0  0
   15.9488   -2.5457  -11.3542 O   0  0  0  0  0  0  0  0  0  0  0  0
  1  2  1  0
  2  3  2  0
  4  2  1  0
  5  4  1  0
  5  6  1  1
  7  8  2  0
  7  5  1  0
 10  9  1  0
 10 12  1  0
 11 10  2  0
 13 12  1  1
 13 14  1  0
 14  7  1  0
 15 13  1  0
 15 17  1  0
 16 15  2  0
 18 17  1  0
 18 22  1  0
 18 19  1  6
 19 20  1  0
 20 24  1  0
 20 21  2  0
 22 25  1  0
 23 22  2  0
M  END
$$$$
