NND.pdb
     RDKit          3D

 25 24  0  0  1  0  0  0  0  0999 V2000
   19.9412  -16.8378  -15.0258 N   0  0  0  0  0  0  0  0  0  0  0  0
   21.2102  -16.8847  -15.6330 C   0  0  0  0  0  0  0  0  0  0  0  0
   21.8519  -17.9622  -15.6771 O   0  0  0  0  0  0  0  0  0  0  0  0
   21.7422  -15.6054  -16.2122 C   0  0  0  0  0  0  0  0  0  0  0  0
   20.7649  -14.4544  -15.9298 C   0  0  2  0  0  0  0  0  0  0  0  0
   19.5909  -14.6222  -16.7544 N   0  0  0  0  0  0  0  0  0  0  0  0
   21.4579  -13.2151  -16.3175 C   0  0  0  0  0  0  0  0  0  0  0  0
   22.4960  -12.8727  -15.6913 O   0  0  0  0  0  0  0  0  0  0  0  0
   23.5332  -12.2539  -19.2079 N   0  0  0  0  0  0  0  0  0  0  0  0
   22.5473  -11.4325  -19.8674 C   0  0  0  0  0  0  0  0  0  0  0  0
   22.6357  -11.2970  -21.1047 O   0  0  0  0  0  0  0  0  0  0  0  0
   21.4712  -10.7736  -19.1112 C   0  0  0  0  0  0  0  0  0  0  0  0
   21.6297  -11.1418  -17.6359 C   0  0  2  0  0  0  0  0  0  0  0  0
   20.9662  -12.4031  -17.3908 N   0  0  0  0  0  0  0  0  0  0  0  0
   21.1067  -10.0697  -16.7579 C   0  0  0  0  0  0  0  0  0  0  0  0
   19.9221  -10.0817  -16.3369 O   0  0  0  0  0  0  0  0  0  0  0  0
   21.9008   -8.9733  -16.3406 N   0  0  0  0  0  0  0  0  0  0  0  0
   21.3396   -7.9232  -15.4932 C   0  0  1  0  0  0  0  0  0  0  0  0
   22.4743   -7.2249  -14.7469 C   0  0  0  0  0  0  0  0  0  0  0  0
   22.0253   -6.1034  -13.9131 C   0  0  0  0  0  0  0  0  0  0  0  0
   20.8975   -6.0842  -13.3526 O   0  0  0  0  0  0  0  0  0  0  0  0
   20.5328   -6.9948  -16.3084 C   0  0  0  0  0  0  0  0  0  0  0  0
   20.9976   -6.6195  -17.4424 O   0  0  0  0  0  0  0  0  0  0  0  0
   22.8338   -5.0020  -13.7072 O   0  0  0  0  0  0  0  0  0  0  0  0
   19.3055   -6.4723  -15.9816 O   0  0  0  0  0  0  0  0  0  0  0  0
  1  2  1  0
  2  3  2  0
  4  2  1  0
  5  4  1  0
  5  6  1  6
  7  8  2  0
  7  5  1  0
 10  9  1  0
 10 12  1  0
 11 10  2  0
 13 12  1  6
 13 14  1  0
 14  7  1  0
 15 13  1  0
 15 17  1  0
 16 15  2  0
 18 17  1  0
 18 22  1  0
 18 19  1  6
 19 20  1  0
 20 24  1  0
 20 21  2  0
 22 25  1  0
 23 22  2  0
M  END
$$$$
