NND.pdb
     RDKit          3D

 25 24  0  0  1  0  0  0  0  0999 V2000
   14.5410  -12.4265  -15.9828 N   0  0  0  0  0  0  0  0  0  0  0  0
   15.2014  -12.7059  -14.7716 C   0  0  0  0  0  0  0  0  0  0  0  0
   14.5429  -12.9905  -13.7420 O   0  0  0  0  0  0  0  0  0  0  0  0
   16.7019  -12.6468  -14.7780 C   0  0  0  0  0  0  0  0  0  0  0  0
   17.2089  -12.3199  -16.1907 C   0  0  2  0  0  0  0  0  0  0  0  0
   17.2164  -13.5304  -16.9787 N   0  0  0  0  0  0  0  0  0  0  0  0
   18.5891  -11.8326  -16.0355 C   0  0  0  0  0  0  0  0  0  0  0  0
   19.5260  -12.6689  -15.9366 O   0  0  0  0  0  0  0  0  0  0  0  0
   23.4347  -11.0435  -16.6437 N   0  0  0  0  0  0  0  0  0  0  0  0
   22.3622  -10.2660  -17.2157 C   0  0  0  0  0  0  0  0  0  0  0  0
   22.6536   -9.1774  -17.7512 O   0  0  0  0  0  0  0  0  0  0  0  0
   20.9690  -10.7362  -17.1716 C   0  0  0  0  0  0  0  0  0  0  0  0
   20.2608  -10.0239  -16.0191 C   0  0  2  0  0  0  0  0  0  0  0  0
   18.8727  -10.4286  -15.9963 N   0  0  0  0  0  0  0  0  0  0  0  0
   20.3994   -8.5537  -16.1331 C   0  0  0  0  0  0  0  0  0  0  0  0
   19.6832   -7.8831  -16.9192 O   0  0  0  0  0  0  0  0  0  0  0  0
   21.3387   -7.8169  -15.3705 N   0  0  0  0  0  0  0  0  0  0  0  0
   21.3197   -6.3555  -15.3699 C   0  0  1  0  0  0  0  0  0  0  0  0
   22.0461   -5.8477  -14.1263 C   0  0  0  0  0  0  0  0  0  0  0  0
   21.9870   -4.3898  -13.9666 C   0  0  0  0  0  0  0  0  0  0  0  0
   21.3034   -3.6519  -14.7247 O   0  0  0  0  0  0  0  0  0  0  0  0
   21.9038   -5.8432  -16.6243 C   0  0  0  0  0  0  0  0  0  0  0  0
   23.0479   -6.2905  -16.9901 O   0  0  0  0  0  0  0  0  0  0  0  0
   22.6930   -3.7552  -12.9627 O   0  0  0  0  0  0  0  0  0  0  0  0
   21.3454   -4.9154  -17.4691 O   0  0  0  0  0  0  0  0  0  0  0  0
  1  2  1  0
  2  3  2  0
  4  2  1  0
  5  4  1  0
  5  6  1  6
  7  8  2  0
  7  5  1  0
 10  9  1  0
 10 12  1  0
 11 10  2  0
 13 12  1  6
 13 14  1  0
 14  7  1  0
 15 13  1  0
 15 17  1  0
 16 15  2  0
 18 17  1  0
 18 22  1  0
 18 19  1  1
 19 20  1  0
 20 24  1  0
 20 21  2  0
 22 25  1  0
 23 22  2  0
M  END
$$$$
