NND.pdb
     RDKit          3D

 25 24  0  0  1  0  0  0  0  0999 V2000
   29.0515  -19.4180  -17.5781 N   0  0  0  0  0  0  0  0  0  0  0  0
   27.6938  -19.0610  -17.6804 C   0  0  0  0  0  0  0  0  0  0  0  0
   27.3206  -18.2294  -18.5429 O   0  0  0  0  0  0  0  0  0  0  0  0
   26.7379  -19.7143  -16.7241 C   0  0  0  0  0  0  0  0  0  0  0  0
   27.4978  -20.6713  -15.7933 C   0  0  2  0  0  0  0  0  0  0  0  0
   27.9349  -21.8184  -16.5546 N   0  0  0  0  0  0  0  0  0  0  0  0
   26.5355  -21.1066  -14.7680 C   0  0  0  0  0  0  0  0  0  0  0  0
   25.7374  -22.0437  -15.0363 O   0  0  0  0  0  0  0  0  0  0  0  0
   24.8628  -20.6899   -8.8201 N   0  0  0  0  0  0  0  0  0  0  0  0
   24.9510  -21.1355  -10.1896 C   0  0  0  0  0  0  0  0  0  0  0  0
   24.1953  -22.0603  -10.5509 O   0  0  0  0  0  0  0  0  0  0  0  0
   25.8990  -20.5235  -11.1334 C   0  0  0  0  0  0  0  0  0  0  0  0
   25.4799  -20.9129  -12.5512 C   0  0  2  0  0  0  0  0  0  0  0  0
   26.4998  -20.4794  -13.4802 N   0  0  0  0  0  0  0  0  0  0  0  0
   24.1544  -20.3465  -12.8917 C   0  0  0  0  0  0  0  0  0  0  0  0
   23.9909  -19.1128  -13.0701 O   0  0  0  0  0  0  0  0  0  0  0  0
   22.9978  -21.1516  -13.0367 N   0  0  0  0  0  0  0  0  0  0  0  0
   21.7106  -20.5549  -13.3875 C   0  0  1  0  0  0  0  0  0  0  0  0
   21.1537  -21.2605  -14.6220 C   0  0  0  0  0  0  0  0  0  0  0  0
   21.7170  -20.7667  -15.8842 C   0  0  0  0  0  0  0  0  0  0  0  0
   22.4749  -19.7622  -15.9414 O   0  0  0  0  0  0  0  0  0  0  0  0
   20.7955  -20.6145  -12.2314 C   0  0  0  0  0  0  0  0  0  0  0  0
   20.9011  -21.6027  -11.4221 O   0  0  0  0  0  0  0  0  0  0  0  0
   21.4323  -21.3920  -17.0829 O   0  0  0  0  0  0  0  0  0  0  0  0
   19.8160  -19.7056  -11.9144 O   0  0  0  0  0  0  0  0  0  0  0  0
  1  2  1  0
  2  3  2  0
  4  2  1  0
  5  4  1  0
  5  6  1  6
  7  8  2  0
  7  5  1  0
 10  9  1  0
 10 12  1  0
 11 10  2  0
 13 12  1  1
 13 14  1  0
 14  7  1  0
 15 13  1  0
 15 17  1  0
 16 15  2  0
 18 17  1  0
 18 22  1  0
 18 19  1  6
 19 20  1  0
 20 24  1  0
 20 21  2  0
 22 25  1  0
 23 22  2  0
M  END
$$$$
