KWY.pdb
     RDKit          3D

 36 38  0  0  1  0  0  0  0  0999 V2000
    8.4996  -17.0608   19.7335 N   0  0  0  0  0  0  0  0  0  0  0  0
    8.9608  -15.6973   19.7645 C   0  0  1  0  0  0  0  0  0  0  0  0
    8.1685  -14.8381   18.8324 C   0  0  0  0  0  0  0  0  0  0  0  0
    8.5815  -14.9204   17.4073 C   0  0  0  0  0  0  0  0  0  0  0  0
    7.8887  -14.0083   16.4563 C   0  0  0  0  0  0  0  0  0  0  0  0
    8.4101  -14.3499   15.0470 C   0  0  0  0  0  0  0  0  0  0  0  0
    7.6272  -13.6420   14.0631 N   0  0  0  0  0  0  0  0  0  0  0  0
    9.0005  -15.1701   21.1516 C   0  0  0  0  0  0  0  0  0  0  0  0
    9.4274  -14.0025   21.3024 O   0  0  0  0  0  0  0  0  0  0  0  0
    8.5759  -15.9473   22.2494 N   0  0  0  0  0  0  0  0  0  0  0  0
    8.5792  -15.3149   23.6383 C   0  0  1  0  0  0  0  0  0  0  0  0
    7.3835  -15.8278   24.3081 C   0  0  0  0  0  0  0  0  0  0  0  0
    6.6155  -14.9881   25.2108 C   0  0  0  0  0  0  0  0  0  0  0  0
    5.5458  -15.2512   26.0190 C   0  0  0  0  0  0  0  0  0  0  0  0
    5.2189  -14.1359   26.6764 N   0  0  0  0  0  0  0  0  0  0  0  0
    6.0445  -13.1131   26.3354 C   0  0  0  0  0  0  0  0  0  0  0  0
    6.1099  -11.8020   26.7484 C   0  0  0  0  0  0  0  0  0  0  0  0
    7.0732  -10.9743   26.2439 C   0  0  0  0  0  0  0  0  0  0  0  0
    7.9705  -11.4652   25.3234 C   0  0  0  0  0  0  0  0  0  0  0  0
    7.8919  -12.7750   24.9198 C   0  0  0  0  0  0  0  0  0  0  0  0
    6.9267  -13.6277   25.4179 C   0  0  0  0  0  0  0  0  0  0  0  0
    9.9162  -15.5474   24.1323 C   0  0  0  0  0  0  0  0  0  0  0  0
   10.1620  -15.2622   25.3990 O   0  0  0  0  0  0  0  0  0  0  0  0
   10.6483  -14.9181   30.2021 O   0  0  0  0  0  0  0  0  0  0  0  0
   10.9831  -15.5777   29.0154 C   0  0  0  0  0  0  0  0  0  0  0  0
   10.9090  -14.8622   27.8328 C   0  0  0  0  0  0  0  0  0  0  0  0
   11.2264  -15.4638   26.6342 C   0  0  0  0  0  0  0  0  0  0  0  0
   11.6316  -16.8029   26.5585 C   0  0  0  0  0  0  0  0  0  0  0  0
   11.9477  -17.3295   25.2305 C   0  0  0  0  0  0  0  0  0  0  0  0
   12.3069  -16.3048   24.2061 C   0  0  2  0  0  0  0  0  0  0  0  0
   11.0307  -16.0445   23.4748 N   0  0  0  0  0  0  0  0  0  0  0  0
   13.2851  -16.7362   23.2013 C   0  0  0  0  0  0  0  0  0  0  0  0
   14.4871  -16.9039   23.4297 O   0  0  0  0  0  0  0  0  0  0  0  0
   11.6958  -17.4841   27.7420 C   0  0  0  0  0  0  0  0  0  0  0  0
   11.3783  -16.8894   28.9591 C   0  0  0  0  0  0  0  0  0  0  0  0
   12.8424  -16.9771   21.8856 O   0  0  0  0  0  0  0  0  0  0  0  0
  2  1  1  1
  2  3  1  0
  4  3  1  0
  5  4  1  0
  6  5  1  0
  7  6  1  0
  8  9  2  0
  8  2  1  0
 10  8  1  0
 11 10  1  0
 11 12  1  1
 13 12  1  0
 14 13  2  0
 15 14  1  0
 16 15  1  0
 16 21  2  0
 17 16  1  0
 18 17  2  0
 18 19  1  0
 19 20  2  0
 20 21  1  0
 21 13  1  0
 22 23  2  0
 22 11  1  0
 25 24  1  0
 26 25  2  0
 27 26  1  0
 28 34  1  0
 28 27  2  0
 29 28  1  0
 30 29  1  1
 30 31  1  0
 31 22  1  0
 32 30  1  0
 33 32  2  0
 34 35  2  0
 35 25  1  0
 36 32  1  0
M  END
$$$$
