KWY.pdb
     RDKit          3D

 36 38  0  0  1  0  0  0  0  0999 V2000
    7.8082  -16.7087   20.3635 N   0  0  0  0  0  0  0  0  0  0  0  0
    8.7852  -15.6563   20.2602 C   0  0  1  0  0  0  0  0  0  0  0  0
    8.2488  -14.4957   19.4857 C   0  0  0  0  0  0  0  0  0  0  0  0
    8.2269  -14.6873   18.0123 C   0  0  0  0  0  0  0  0  0  0  0  0
    7.1852  -13.9398   17.2557 C   0  0  0  0  0  0  0  0  0  0  0  0
    7.2852  -14.3943   15.7867 C   0  0  0  0  0  0  0  0  0  0  0  0
    6.3039  -13.6872   14.9997 N   0  0  0  0  0  0  0  0  0  0  0  0
    9.3123  -15.2734   21.5941 C   0  0  0  0  0  0  0  0  0  0  0  0
   10.1270  -14.3230   21.6303 O   0  0  0  0  0  0  0  0  0  0  0  0
    8.9132  -15.9475   22.7670 N   0  0  0  0  0  0  0  0  0  0  0  0
    9.4555  -15.4639   24.1091 C   0  0  1  0  0  0  0  0  0  0  0  0
    8.4837  -15.9065   25.1097 C   0  0  0  0  0  0  0  0  0  0  0  0
    7.2441  -15.1789   25.3191 C   0  0  0  0  0  0  0  0  0  0  0  0
    5.9389  -15.5820   25.3456 C   0  0  0  0  0  0  0  0  0  0  0  0
    5.1670  -14.5235   25.6036 N   0  0  0  0  0  0  0  0  0  0  0  0
    5.9178  -13.4022   25.7557 C   0  0  0  0  0  0  0  0  0  0  0  0
    5.5829  -12.0979   26.0390 C   0  0  0  0  0  0  0  0  0  0  0  0
    6.5616  -11.1512   26.1552 C   0  0  0  0  0  0  0  0  0  0  0  0
    7.8774  -11.5164   25.9857 C   0  0  0  0  0  0  0  0  0  0  0  0
    8.1961  -12.8212   25.7018 C   0  0  0  0  0  0  0  0  0  0  0  0
    7.2223  -13.7928   25.5811 C   0  0  0  0  0  0  0  0  0  0  0  0
   10.8346  -15.8924   24.1113 C   0  0  0  0  0  0  0  0  0  0  0  0
   11.7165  -15.1296   23.4895 O   0  0  0  0  0  0  0  0  0  0  0  0
    9.9024  -16.7832   30.8926 O   0  0  0  0  0  0  0  0  0  0  0  0
   10.6713  -16.6653   29.7305 C   0  0  0  0  0  0  0  0  0  0  0  0
   10.7442  -15.4231   29.1245 C   0  0  0  0  0  0  0  0  0  0  0  0
   11.4866  -15.2512   27.9762 C   0  0  0  0  0  0  0  0  0  0  0  0
   12.1894  -16.3065   27.3801 C   0  0  0  0  0  0  0  0  0  0  0  0
   12.9470  -16.0011   26.1661 C   0  0  0  0  0  0  0  0  0  0  0  0
   12.8537  -17.0224   25.0814 C   0  0  2  0  0  0  0  0  0  0  0  0
   11.4139  -17.0142   24.6836 N   0  0  0  0  0  0  0  0  0  0  0  0
   13.1694  -18.3976   25.4837 C   0  0  0  0  0  0  0  0  0  0  0  0
   12.3455  -19.3166   25.5210 O   0  0  0  0  0  0  0  0  0  0  0  0
   12.0992  -17.5213   28.0007 C   0  0  0  0  0  0  0  0  0  0  0  0
   11.3535  -17.7091   29.1602 C   0  0  0  0  0  0  0  0  0  0  0  0
   14.4925  -18.7066   25.8567 O   0  0  0  0  0  0  0  0  0  0  0  0
  2  1  1  1
  2  3  1  0
  4  3  1  0
  5  4  1  0
  6  5  1  0
  7  6  1  0
  8  9  2  0
  8  2  1  0
 10  8  1  0
 11 10  1  0
 11 12  1  1
 13 12  1  0
 14 13  2  0
 15 14  1  0
 16 15  1  0
 16 21  2  0
 17 16  1  0
 18 17  2  0
 18 19  1  0
 19 20  2  0
 20 21  1  0
 21 13  1  0
 22 23  2  0
 22 11  1  0
 25 24  1  0
 26 25  2  0
 27 26  1  0
 28 34  1  0
 28 27  2  0
 29 28  1  0
 30 29  1  1
 30 31  1  0
 31 22  1  0
 32 30  1  0
 33 32  2  0
 34 35  2  0
 35 25  1  0
 36 32  1  0
M  END
$$$$
