KWY.pdb
     RDKit          3D

 36 38  0  0  1  0  0  0  0  0999 V2000
    7.4263  -15.9025   19.5593 N   0  0  0  0  0  0  0  0  0  0  0  0
    8.4268  -14.8703   19.6411 C   0  0  1  0  0  0  0  0  0  0  0  0
    7.8983  -13.5652   19.1391 C   0  0  0  0  0  0  0  0  0  0  0  0
    7.3759  -13.5986   17.7484 C   0  0  0  0  0  0  0  0  0  0  0  0
    8.3734  -13.8114   16.6640 C   0  0  0  0  0  0  0  0  0  0  0  0
    7.5889  -13.8747   15.3392 C   0  0  0  0  0  0  0  0  0  0  0  0
    8.5094  -14.0848   14.2480 N   0  0  0  0  0  0  0  0  0  0  0  0
    9.0018  -14.7801   21.0066 C   0  0  0  0  0  0  0  0  0  0  0  0
    9.8782  -13.9058   21.1961 O   0  0  0  0  0  0  0  0  0  0  0  0
    8.5801  -15.6382   22.0436 N   0  0  0  0  0  0  0  0  0  0  0  0
    9.2990  -15.5692   23.3880 C   0  0  1  0  0  0  0  0  0  0  0  0
    8.3772  -16.1600   24.3590 C   0  0  0  0  0  0  0  0  0  0  0  0
    7.2630  -15.3951   24.8915 C   0  0  0  0  0  0  0  0  0  0  0  0
    6.0338  -15.7697   25.3555 C   0  0  0  0  0  0  0  0  0  0  0  0
    5.3776  -14.6805   25.7629 N   0  0  0  0  0  0  0  0  0  0  0  0
    6.1337  -13.5660   25.5883 C   0  0  0  0  0  0  0  0  0  0  0  0
    5.8995  -12.2384   25.8645 C   0  0  0  0  0  0  0  0  0  0  0  0
    6.8614  -11.3052   25.5974 C   0  0  0  0  0  0  0  0  0  0  0  0
    8.0589  -11.7072   25.0518 C   0  0  0  0  0  0  0  0  0  0  0  0
    8.2776  -13.0351   24.7802 C   0  0  0  0  0  0  0  0  0  0  0  0
    7.3191  -13.9936   25.0433 C   0  0  0  0  0  0  0  0  0  0  0  0
   10.6098  -16.1123   23.1193 C   0  0  0  0  0  0  0  0  0  0  0  0
   10.7031  -17.0788   22.2231 O   0  0  0  0  0  0  0  0  0  0  0  0
   10.8305  -16.4724   31.3905 O   0  0  0  0  0  0  0  0  0  0  0  0
   10.8444  -16.1521   30.0294 C   0  0  0  0  0  0  0  0  0  0  0  0
   10.8427  -17.1939   29.1180 C   0  0  0  0  0  0  0  0  0  0  0  0
   10.8575  -16.9348   27.7645 C   0  0  0  0  0  0  0  0  0  0  0  0
   10.8743  -15.6289   27.2575 C   0  0  0  0  0  0  0  0  0  0  0  0
   10.8834  -15.4791   25.8020 C   0  0  0  0  0  0  0  0  0  0  0  0
   12.1189  -15.9627   25.1180 C   0  0  2  0  0  0  0  0  0  0  0  0
   11.8390  -15.7730   23.6631 N   0  0  0  0  0  0  0  0  0  0  0  0
   12.4244  -17.3857   25.3040 C   0  0  0  0  0  0  0  0  0  0  0  0
   13.4265  -17.8102   25.8875 O   0  0  0  0  0  0  0  0  0  0  0  0
   10.8752  -14.6207   28.1807 C   0  0  0  0  0  0  0  0  0  0  0  0
   10.8604  -14.8676   29.5498 C   0  0  0  0  0  0  0  0  0  0  0  0
   11.5287  -18.3431   24.7881 O   0  0  0  0  0  0  0  0  0  0  0  0
  2  1  1  1
  2  3  1  0
  4  3  1  0
  5  4  1  0
  6  5  1  0
  7  6  1  0
  8  9  2  0
  8  2  1  0
 10  8  1  0
 11 10  1  0
 11 12  1  1
 13 12  1  0
 14 13  2  0
 15 14  1  0
 16 15  1  0
 16 21  2  0
 17 16  1  0
 18 17  2  0
 18 19  1  0
 19 20  2  0
 20 21  1  0
 21 13  1  0
 22 23  2  0
 22 11  1  0
 25 24  1  0
 26 25  2  0
 27 26  1  0
 28 34  1  0
 28 27  2  0
 29 28  1  0
 30 29  1  1
 30 31  1  0
 31 22  1  0
 32 30  1  0
 33 32  2  0
 34 35  2  0
 35 25  1  0
 36 32  1  0
M  END
$$$$
