KWY.pdb
     RDKit          3D

 36 38  0  0  1  0  0  0  0  0999 V2000
   10.6469  -16.7504   19.2741 N   0  0  0  0  0  0  0  0  0  0  0  0
   10.9729  -17.3356   20.5485 C   0  0  1  0  0  0  0  0  0  0  0  0
   12.4101  -17.7430   20.6038 C   0  0  0  0  0  0  0  0  0  0  0  0
   12.7788  -18.8511   19.6848 C   0  0  0  0  0  0  0  0  0  0  0  0
   14.2112  -19.2559   19.6658 C   0  0  0  0  0  0  0  0  0  0  0  0
   14.3648  -20.3092   18.5515 C   0  0  0  0  0  0  0  0  0  0  0  0
   15.7611  -20.6363   18.3919 N   0  0  0  0  0  0  0  0  0  0  0  0
   10.5749  -16.4483   21.6700 C   0  0  0  0  0  0  0  0  0  0  0  0
   11.0154  -15.2762   21.6495 O   0  0  0  0  0  0  0  0  0  0  0  0
    9.7379  -16.9032   22.7103 N   0  0  0  0  0  0  0  0  0  0  0  0
    9.3173  -15.9159   23.7954 C   0  0  1  0  0  0  0  0  0  0  0  0
    7.8616  -15.8096   23.6891 C   0  0  0  0  0  0  0  0  0  0  0  0
    7.0834  -15.1551   24.7263 C   0  0  0  0  0  0  0  0  0  0  0  0
    6.2223  -15.6410   25.6693 C   0  0  0  0  0  0  0  0  0  0  0  0
    5.7785  -14.6235   26.4114 N   0  0  0  0  0  0  0  0  0  0  0  0
    6.3195  -13.4492   25.9963 C   0  0  0  0  0  0  0  0  0  0  0  0
    6.1791  -12.1569   26.4479 C   0  0  0  0  0  0  0  0  0  0  0  0
    6.8684  -11.1435   25.8434 C   0  0  0  0  0  0  0  0  0  0  0  0
    7.6985  -11.4298   24.7840 C   0  0  0  0  0  0  0  0  0  0  0  0
    7.8272  -12.7237   24.3435 C   0  0  0  0  0  0  0  0  0  0  0  0
    7.1402  -13.7618   24.9410 C   0  0  0  0  0  0  0  0  0  0  0  0
    9.9848  -16.3889   24.9854 C   0  0  0  0  0  0  0  0  0  0  0  0
   10.3785  -17.6501   25.0096 O   0  0  0  0  0  0  0  0  0  0  0  0
   16.4951  -16.7568   23.8257 O   0  0  0  0  0  0  0  0  0  0  0  0
   15.4788  -16.5283   24.7585 C   0  0  0  0  0  0  0  0  0  0  0  0
   14.6211  -15.4651   24.5357 C   0  0  0  0  0  0  0  0  0  0  0  0
   13.6030  -15.1939   25.4241 C   0  0  0  0  0  0  0  0  0  0  0  0
   13.3926  -15.9679   26.5729 C   0  0  0  0  0  0  0  0  0  0  0  0
   12.2762  -15.5864   27.4383 C   0  0  0  0  0  0  0  0  0  0  0  0
   11.0307  -16.3909   27.2659 C   0  0  2  0  0  0  0  0  0  0  0  0
   10.2990  -15.7129   26.1542 N   0  0  0  0  0  0  0  0  0  0  0  0
   10.1241  -16.4011   28.4194 C   0  0  0  0  0  0  0  0  0  0  0  0
    8.9977  -15.8951   28.4216 O   0  0  0  0  0  0  0  0  0  0  0  0
   14.2547  -17.0110   26.7666 C   0  0  0  0  0  0  0  0  0  0  0  0
   15.2867  -17.2962   25.8781 C   0  0  0  0  0  0  0  0  0  0  0  0
   10.5508  -17.0219   29.6101 O   0  0  0  0  0  0  0  0  0  0  0  0
  2  1  1  6
  2  3  1  0
  4  3  1  0
  5  4  1  0
  6  5  1  0
  7  6  1  0
  8  9  2  0
  8  2  1  0
 10  8  1  0
 11 10  1  0
 11 12  1  1
 13 12  1  0
 14 13  2  0
 15 14  1  0
 16 15  1  0
 16 21  2  0
 17 16  1  0
 18 17  2  0
 18 19  1  0
 19 20  2  0
 20 21  1  0
 21 13  1  0
 22 23  2  0
 22 11  1  0
 25 24  1  0
 26 25  2  0
 27 26  1  0
 28 34  1  0
 28 27  2  0
 29 28  1  0
 30 29  1  1
 30 31  1  0
 31 22  1  0
 32 30  1  0
 33 32  2  0
 34 35  2  0
 35 25  1  0
 36 32  1  0
M  END
$$$$
