KWY.pdb
     RDKit          3D

 36 38  0  0  1  0  0  0  0  0999 V2000
    7.6968  -18.2602   18.8682 N   0  0  0  0  0  0  0  0  0  0  0  0
    8.6322  -17.1703   18.7683 C   0  0  1  0  0  0  0  0  0  0  0  0
    8.4549  -16.4225   17.4861 C   0  0  0  0  0  0  0  0  0  0  0  0
    9.5915  -16.5378   16.5359 C   0  0  0  0  0  0  0  0  0  0  0  0
    9.3540  -17.3370   15.3026 C   0  0  0  0  0  0  0  0  0  0  0  0
   10.5284  -17.0478   14.3477 C   0  0  0  0  0  0  0  0  0  0  0  0
   10.3853  -17.8504   13.1571 N   0  0  0  0  0  0  0  0  0  0  0  0
    8.5749  -16.2954   19.9662 C   0  0  0  0  0  0  0  0  0  0  0  0
    7.7808  -15.3280   19.9243 O   0  0  0  0  0  0  0  0  0  0  0  0
    9.3766  -16.5427   21.1001 N   0  0  0  0  0  0  0  0  0  0  0  0
    9.1671  -15.6852   22.3451 C   0  0  1  0  0  0  0  0  0  0  0  0
    7.7428  -15.7936   22.6634 C   0  0  0  0  0  0  0  0  0  0  0  0
    7.2498  -15.4832   23.9940 C   0  0  0  0  0  0  0  0  0  0  0  0
    6.7753  -16.2737   25.0023 C   0  0  0  0  0  0  0  0  0  0  0  0
    6.4690  -15.5007   26.0470 N   0  0  0  0  0  0  0  0  0  0  0  0
    6.7254  -14.1951   25.7751 C   0  0  0  0  0  0  0  0  0  0  0  0
    6.5877  -13.0508   26.5270 C   0  0  0  0  0  0  0  0  0  0  0  0
    6.9446  -11.8410   26.0011 C   0  0  0  0  0  0  0  0  0  0  0  0
    7.4393  -11.7820   24.7185 C   0  0  0  0  0  0  0  0  0  0  0  0
    7.5696  -12.9319   23.9799 C   0  0  0  0  0  0  0  0  0  0  0  0
    7.2155  -14.1640   24.4930 C   0  0  0  0  0  0  0  0  0  0  0  0
   10.2082  -16.1114   23.2505 C   0  0  0  0  0  0  0  0  0  0  0  0
   10.1447  -17.3432   23.7246 O   0  0  0  0  0  0  0  0  0  0  0  0
   10.0979  -15.9640   31.4818 O   0  0  0  0  0  0  0  0  0  0  0  0
   10.2300  -15.7291   30.1097 C   0  0  0  0  0  0  0  0  0  0  0  0
    9.2364  -16.2050   29.2718 C   0  0  0  0  0  0  0  0  0  0  0  0
    9.3174  -16.0027   27.9110 C   0  0  0  0  0  0  0  0  0  0  0  0
   10.3894  -15.3183   27.3233 C   0  0  0  0  0  0  0  0  0  0  0  0
   10.3627  -15.1608   25.8689 C   0  0  0  0  0  0  0  0  0  0  0  0
   11.6596  -15.4156   25.1751 C   0  0  2  0  0  0  0  0  0  0  0  0
   11.3119  -15.4180   23.7224 N   0  0  0  0  0  0  0  0  0  0  0  0
   12.2802  -16.7143   25.4595 C   0  0  0  0  0  0  0  0  0  0  0  0
   13.2682  -16.8678   26.1842 O   0  0  0  0  0  0  0  0  0  0  0  0
   11.3552  -14.8596   28.1753 C   0  0  0  0  0  0  0  0  0  0  0  0
   11.2862  -15.0567   29.5509 C   0  0  0  0  0  0  0  0  0  0  0  0
   11.7275  -17.8709   24.8748 O   0  0  0  0  0  0  0  0  0  0  0  0
  2  1  1  1
  2  3  1  0
  4  3  1  0
  5  4  1  0
  6  5  1  0
  7  6  1  0
  8  9  2  0
  8  2  1  0
 10  8  1  0
 11 10  1  0
 11 12  1  1
 13 12  1  0
 14 13  2  0
 15 14  1  0
 16 15  1  0
 16 21  2  0
 17 16  1  0
 18 17  2  0
 18 19  1  0
 19 20  2  0
 20 21  1  0
 21 13  1  0
 22 23  2  0
 22 11  1  0
 25 24  1  0
 26 25  2  0
 27 26  1  0
 28 34  1  0
 28 27  2  0
 29 28  1  0
 30 29  1  1
 30 31  1  0
 31 22  1  0
 32 30  1  0
 33 32  2  0
 34 35  2  0
 35 25  1  0
 36 32  1  0
M  END
$$$$
