KWY.pdb
     RDKit          3D

 36 38  0  0  1  0  0  0  0  0999 V2000
    9.4015  -18.3512   18.9811 N   0  0  0  0  0  0  0  0  0  0  0  0
   10.5065  -17.5011   19.3406 C   0  0  1  0  0  0  0  0  0  0  0  0
   10.7535  -16.4645   18.2923 C   0  0  0  0  0  0  0  0  0  0  0  0
   10.1105  -16.7395   16.9812 C   0  0  0  0  0  0  0  0  0  0  0  0
   10.3019  -15.7184   15.9149 C   0  0  0  0  0  0  0  0  0  0  0  0
    9.5073  -16.1997   14.6854 C   0  0  0  0  0  0  0  0  0  0  0  0
    9.5440  -15.1812   13.6639 N   0  0  0  0  0  0  0  0  0  0  0  0
   10.3293  -16.9270   20.6980 C   0  0  0  0  0  0  0  0  0  0  0  0
   11.2769  -16.2471   21.1542 O   0  0  0  0  0  0  0  0  0  0  0  0
    9.1478  -17.1359   21.4396 N   0  0  0  0  0  0  0  0  0  0  0  0
    8.9970  -16.4363   22.7876 C   0  0  1  0  0  0  0  0  0  0  0  0
    7.6761  -15.8070   22.7596 C   0  0  0  0  0  0  0  0  0  0  0  0
    7.5339  -14.3653   22.8647 C   0  0  0  0  0  0  0  0  0  0  0  0
    7.6620  -13.3630   21.9450 C   0  0  0  0  0  0  0  0  0  0  0  0
    7.4027  -12.1967   22.5410 N   0  0  0  0  0  0  0  0  0  0  0  0
    7.0980  -12.3798   23.8516 C   0  0  0  0  0  0  0  0  0  0  0  0
    6.7538  -11.4992   24.8515 C   0  0  0  0  0  0  0  0  0  0  0  0
    6.4756  -11.9649   26.1059 C   0  0  0  0  0  0  0  0  0  0  0  0
    6.5445  -13.3164   26.3547 C   0  0  0  0  0  0  0  0  0  0  0  0
    6.8909  -14.1827   25.3475 C   0  0  0  0  0  0  0  0  0  0  0  0
    7.1749  -13.7324   24.0734 C   0  0  0  0  0  0  0  0  0  0  0  0
    9.3663  -17.4432   23.7547 C   0  0  0  0  0  0  0  0  0  0  0  0
   10.4502  -18.1594   23.5135 O   0  0  0  0  0  0  0  0  0  0  0  0
   12.4460  -15.9659   31.5672 O   0  0  0  0  0  0  0  0  0  0  0  0
   11.8046  -16.0280   30.3262 C   0  0  0  0  0  0  0  0  0  0  0  0
   12.0521  -17.1276   29.5227 C   0  0  0  0  0  0  0  0  0  0  0  0
   11.4475  -17.2386   28.2893 C   0  0  0  0  0  0  0  0  0  0  0  0
   10.5702  -16.2617   27.8004 C   0  0  0  0  0  0  0  0  0  0  0  0
    9.9851  -16.4924   26.4793 C   0  0  0  0  0  0  0  0  0  0  0  0
    9.5282  -17.8893   26.2183 C   0  0  2  0  0  0  0  0  0  0  0  0
    8.7515  -17.7966   24.9458 N   0  0  0  0  0  0  0  0  0  0  0  0
    8.6196  -18.4517   27.2238 C   0  0  0  0  0  0  0  0  0  0  0  0
    8.9181  -19.3710   27.9924 O   0  0  0  0  0  0  0  0  0  0  0  0
   10.3447  -15.1877   28.6156 C   0  0  0  0  0  0  0  0  0  0  0  0
   10.9481  -15.0627   29.8629 C   0  0  0  0  0  0  0  0  0  0  0  0
    7.3184  -17.9223   27.3316 O   0  0  0  0  0  0  0  0  0  0  0  0
  2  1  1  6
  2  3  1  0
  4  3  1  0
  5  4  1  0
  6  5  1  0
  7  6  1  0
  8  9  2  0
  8  2  1  0
 10  8  1  0
 11 10  1  0
 11 12  1  1
 13 12  1  0
 14 13  2  0
 15 14  1  0
 16 15  1  0
 16 21  2  0
 17 16  1  0
 18 17  2  0
 18 19  1  0
 19 20  2  0
 20 21  1  0
 21 13  1  0
 22 23  2  0
 22 11  1  0
 25 24  1  0
 26 25  2  0
 27 26  1  0
 28 34  1  0
 28 27  2  0
 29 28  1  0
 30 29  1  1
 30 31  1  0
 31 22  1  0
 32 30  1  0
 33 32  2  0
 34 35  2  0
 35 25  1  0
 36 32  1  0
M  END
$$$$
