KWY.pdb
     RDKit          3D

 36 38  0  0  1  0  0  0  0  0999 V2000
    9.0662  -16.9648   17.7715 N   0  0  0  0  0  0  0  0  0  0  0  0
   10.2251  -17.0359   18.6228 C   0  0  1  0  0  0  0  0  0  0  0  0
   11.4499  -16.5634   17.9079 C   0  0  0  0  0  0  0  0  0  0  0  0
   11.5963  -17.0738   16.5200 C   0  0  0  0  0  0  0  0  0  0  0  0
   12.7391  -16.5413   15.7284 C   0  0  0  0  0  0  0  0  0  0  0  0
   12.5572  -17.0452   14.2835 C   0  0  0  0  0  0  0  0  0  0  0  0
   12.7399  -18.4762   14.2497 N   0  0  0  0  0  0  0  0  0  0  0  0
    9.9951  -16.3349   19.9110 C   0  0  0  0  0  0  0  0  0  0  0  0
   10.8818  -15.5346   20.2872 O   0  0  0  0  0  0  0  0  0  0  0  0
    8.8311  -16.5584   20.6756 N   0  0  0  0  0  0  0  0  0  0  0  0
    8.7860  -16.0362   22.1089 C   0  0  1  0  0  0  0  0  0  0  0  0
    7.3746  -16.0637   22.4945 C   0  0  0  0  0  0  0  0  0  0  0  0
    6.9623  -15.7139   23.8427 C   0  0  0  0  0  0  0  0  0  0  0  0
    6.4887  -16.4667   24.8798 C   0  0  0  0  0  0  0  0  0  0  0  0
    6.2768  -15.6684   25.9290 N   0  0  0  0  0  0  0  0  0  0  0  0
    6.5969  -14.3826   25.6317 C   0  0  0  0  0  0  0  0  0  0  0  0
    6.5615  -13.2261   26.3766 C   0  0  0  0  0  0  0  0  0  0  0  0
    6.9646  -12.0439   25.8222 C   0  0  0  0  0  0  0  0  0  0  0  0
    7.4026  -12.0247   24.5179 C   0  0  0  0  0  0  0  0  0  0  0  0
    7.4309  -13.1863   23.7865 C   0  0  0  0  0  0  0  0  0  0  0  0
    7.0287  -14.3910   24.3285 C   0  0  0  0  0  0  0  0  0  0  0  0
    9.8026  -16.7967   22.7972 C   0  0  0  0  0  0  0  0  0  0  0  0
   11.0403  -16.7238   22.3401 O   0  0  0  0  0  0  0  0  0  0  0  0
   11.2474  -14.1544   30.7511 O   0  0  0  0  0  0  0  0  0  0  0  0
   10.8808  -14.5475   29.4602 C   0  0  0  0  0  0  0  0  0  0  0  0
   10.2481  -15.7694   29.3096 C   0  0  0  0  0  0  0  0  0  0  0  0
    9.8666  -16.2064   28.0595 C   0  0  0  0  0  0  0  0  0  0  0  0
   10.0969  -15.4479   26.9042 C   0  0  0  0  0  0  0  0  0  0  0  0
    9.6419  -16.0136   25.6338 C   0  0  0  0  0  0  0  0  0  0  0  0
   10.3405  -17.2606   25.2035 C   0  0  2  0  0  0  0  0  0  0  0  0
    9.6946  -17.6217   23.9060 N   0  0  0  0  0  0  0  0  0  0  0  0
   10.1700  -18.4155   26.0922 C   0  0  0  0  0  0  0  0  0  0  0  0
   11.0983  -18.9924   26.6669 O   0  0  0  0  0  0  0  0  0  0  0  0
   10.7230  -14.2459   27.0837 C   0  0  0  0  0  0  0  0  0  0  0  0
   11.1136  -13.7924   28.3396 C   0  0  0  0  0  0  0  0  0  0  0  0
    8.8704  -18.9126   26.3139 O   0  0  0  0  0  0  0  0  0  0  0  0
  2  1  1  6
  2  3  1  0
  4  3  1  0
  5  4  1  0
  6  5  1  0
  7  6  1  0
  8  9  2  0
  8  2  1  0
 10  8  1  0
 11 10  1  0
 11 12  1  1
 13 12  1  0
 14 13  2  0
 15 14  1  0
 16 15  1  0
 16 21  2  0
 17 16  1  0
 18 17  2  0
 18 19  1  0
 19 20  2  0
 20 21  1  0
 21 13  1  0
 22 23  2  0
 22 11  1  0
 25 24  1  0
 26 25  2  0
 27 26  1  0
 28 34  1  0
 28 27  2  0
 29 28  1  0
 30 29  1  1
 30 31  1  0
 31 22  1  0
 32 30  1  0
 33 32  2  0
 34 35  2  0
 35 25  1  0
 36 32  1  0
M  END
$$$$
