KWY.pdb
     RDKit          3D

 36 38  0  0  1  0  0  0  0  0999 V2000
    8.0895  -16.0995   19.4271 N   0  0  0  0  0  0  0  0  0  0  0  0
    8.8634  -14.9203   19.7160 C   0  0  1  0  0  0  0  0  0  0  0  0
    8.2536  -13.7075   19.0900 C   0  0  0  0  0  0  0  0  0  0  0  0
    7.6814  -13.9268   17.7363 C   0  0  0  0  0  0  0  0  0  0  0  0
    8.6284  -13.8541   16.5899 C   0  0  0  0  0  0  0  0  0  0  0  0
    7.7886  -13.9918   15.3052 C   0  0  0  0  0  0  0  0  0  0  0  0
    8.6435  -13.8237   14.1549 N   0  0  0  0  0  0  0  0  0  0  0  0
    9.0967  -14.7690   21.1742 C   0  0  0  0  0  0  0  0  0  0  0  0
    9.6845  -13.7288   21.5494 O   0  0  0  0  0  0  0  0  0  0  0  0
    8.6746  -15.7504   22.0953 N   0  0  0  0  0  0  0  0  0  0  0  0
    8.8786  -15.4910   23.5852 C   0  0  1  0  0  0  0  0  0  0  0  0
    7.7300  -16.1041   24.2532 C   0  0  0  0  0  0  0  0  0  0  0  0
    6.7335  -15.2876   24.9242 C   0  0  0  0  0  0  0  0  0  0  0  0
    5.4907  -15.5767   25.4127 C   0  0  0  0  0  0  0  0  0  0  0  0
    4.9802  -14.4753   25.9687 N   0  0  0  0  0  0  0  0  0  0  0  0
    5.8495  -13.4365   25.8720 C   0  0  0  0  0  0  0  0  0  0  0  0
    5.7791  -12.1305   26.2998 C   0  0  0  0  0  0  0  0  0  0  0  0
    6.8283  -11.2826   26.0808 C   0  0  0  0  0  0  0  0  0  0  0  0
    7.9481  -11.7482   25.4307 C   0  0  0  0  0  0  0  0  0  0  0  0
    8.0032  -13.0533   25.0083 C   0  0  0  0  0  0  0  0  0  0  0  0
    6.9543  -13.9260   25.2204 C   0  0  0  0  0  0  0  0  0  0  0  0
   10.2413  -15.8992   23.8345 C   0  0  0  0  0  0  0  0  0  0  0  0
   10.8532  -16.6035   22.8988 O   0  0  0  0  0  0  0  0  0  0  0  0
   10.4191  -16.2345   31.1009 O   0  0  0  0  0  0  0  0  0  0  0  0
   11.0362  -15.9760   29.8730 C   0  0  0  0  0  0  0  0  0  0  0  0
   11.9101  -16.9262   29.3737 C   0  0  0  0  0  0  0  0  0  0  0  0
   12.5467  -16.7215   28.1687 C   0  0  0  0  0  0  0  0  0  0  0  0
   12.3425  -15.5635   27.4069 C   0  0  0  0  0  0  0  0  0  0  0  0
   13.0701  -15.4612   26.1415 C   0  0  0  0  0  0  0  0  0  0  0  0
   12.4510  -16.1802   24.9891 C   0  0  2  0  0  0  0  0  0  0  0  0
   11.0508  -15.6628   24.9348 N   0  0  0  0  0  0  0  0  0  0  0  0
   12.3541  -17.6368   25.1355 C   0  0  0  0  0  0  0  0  0  0  0  0
   13.3239  -18.4013   25.1286 O   0  0  0  0  0  0  0  0  0  0  0  0
   11.4743  -14.6432   27.9248 C   0  0  0  0  0  0  0  0  0  0  0  0
   10.8248  -14.8368   29.1398 C   0  0  0  0  0  0  0  0  0  0  0  0
   11.0803  -18.2179   25.2930 O   0  0  0  0  0  0  0  0  0  0  0  0
  2  1  1  1
  2  3  1  0
  4  3  1  0
  5  4  1  0
  6  5  1  0
  7  6  1  0
  8  9  2  0
  8  2  1  0
 10  8  1  0
 11 10  1  0
 11 12  1  1
 13 12  1  0
 14 13  2  0
 15 14  1  0
 16 15  1  0
 16 21  2  0
 17 16  1  0
 18 17  2  0
 18 19  1  0
 19 20  2  0
 20 21  1  0
 21 13  1  0
 22 23  2  0
 22 11  1  0
 25 24  1  0
 26 25  2  0
 27 26  1  0
 28 34  1  0
 28 27  2  0
 29 28  1  0
 30 29  1  1
 30 31  1  0
 31 22  1  0
 32 30  1  0
 33 32  2  0
 34 35  2  0
 35 25  1  0
 36 32  1  0
M  END
$$$$
