KWY.pdb
     RDKit          3D

 36 38  0  0  1  0  0  0  0  0999 V2000
    8.3806  -17.6355   18.2051 N   0  0  0  0  0  0  0  0  0  0  0  0
    7.7720  -17.6849   19.5089 C   0  0  1  0  0  0  0  0  0  0  0  0
    7.5877  -19.0964   19.9655 C   0  0  0  0  0  0  0  0  0  0  0  0
    7.2363  -20.0581   18.8886 C   0  0  0  0  0  0  0  0  0  0  0  0
    7.9567  -21.3609   18.8937 C   0  0  0  0  0  0  0  0  0  0  0  0
    7.3142  -22.2329   17.7977 C   0  0  0  0  0  0  0  0  0  0  0  0
    7.3492  -23.6165   18.2059 N   0  0  0  0  0  0  0  0  0  0  0  0
    8.5139  -16.8484   20.4854 C   0  0  0  0  0  0  0  0  0  0  0  0
    9.7597  -16.9743   20.5086 O   0  0  0  0  0  0  0  0  0  0  0  0
    7.8472  -15.9519   21.3464 N   0  0  0  0  0  0  0  0  0  0  0  0
    8.6714  -15.1580   22.3560 C   0  0  1  0  0  0  0  0  0  0  0  0
    7.7472  -14.1870   22.9430 C   0  0  0  0  0  0  0  0  0  0  0  0
    7.5181  -14.1469   24.3768 C   0  0  0  0  0  0  0  0  0  0  0  0
    7.6772  -15.0862   25.3562 C   0  0  0  0  0  0  0  0  0  0  0  0
    7.3509  -14.5421   26.5310 N   0  0  0  0  0  0  0  0  0  0  0  0
    6.9720  -13.2472   26.3765 C   0  0  0  0  0  0  0  0  0  0  0  0
    6.5682  -12.2892   27.2780 C   0  0  0  0  0  0  0  0  0  0  0  0
    6.2536  -11.0321   26.8439 C   0  0  0  0  0  0  0  0  0  0  0  0
    6.3445  -10.7389   25.5026 C   0  0  0  0  0  0  0  0  0  0  0  0
    6.7473  -11.7054   24.6147 C   0  0  0  0  0  0  0  0  0  0  0  0
    7.0703  -12.9811   25.0332 C   0  0  0  0  0  0  0  0  0  0  0  0
    9.3485  -16.1675   23.1357 C   0  0  0  0  0  0  0  0  0  0  0  0
    8.6922  -17.2837   23.3993 O   0  0  0  0  0  0  0  0  0  0  0  0
   12.0192  -21.6254   29.1186 O   0  0  0  0  0  0  0  0  0  0  0  0
   11.5644  -20.7498   28.1278 C   0  0  0  0  0  0  0  0  0  0  0  0
   12.2957  -20.6604   26.9560 C   0  0  0  0  0  0  0  0  0  0  0  0
   11.8933  -19.8120   25.9473 C   0  0  0  0  0  0  0  0  0  0  0  0
   10.7461  -19.0154   26.0589 C   0  0  0  0  0  0  0  0  0  0  0  0
   10.4165  -18.1583   24.9197 C   0  0  0  0  0  0  0  0  0  0  0  0
   10.8996  -16.7494   25.0199 C   0  0  2  0  0  0  0  0  0  0  0  0
   10.6264  -16.1642   23.6730 N   0  0  0  0  0  0  0  0  0  0  0  0
   12.3386  -16.5937   25.2603 C   0  0  0  0  0  0  0  0  0  0  0  0
   13.1445  -16.1940   24.4145 O   0  0  0  0  0  0  0  0  0  0  0  0
   10.0440  -19.1249   27.2267 C   0  0  0  0  0  0  0  0  0  0  0  0
   10.4387  -19.9771   28.2532 C   0  0  0  0  0  0  0  0  0  0  0  0
   12.8512  -16.9188   26.5318 O   0  0  0  0  0  0  0  0  0  0  0  0
  2  1  1  6
  2  3  1  0
  4  3  1  0
  5  4  1  0
  6  5  1  0
  7  6  1  0
  8  9  2  0
  8  2  1  0
 10  8  1  0
 11 10  1  0
 11 12  1  1
 13 12  1  0
 14 13  2  0
 15 14  1  0
 16 15  1  0
 16 21  2  0
 17 16  1  0
 18 17  2  0
 18 19  1  0
 19 20  2  0
 20 21  1  0
 21 13  1  0
 22 23  2  0
 22 11  1  0
 25 24  1  0
 26 25  2  0
 27 26  1  0
 28 34  1  0
 28 27  2  0
 29 28  1  0
 30 29  1  6
 30 31  1  0
 31 22  1  0
 32 30  1  0
 33 32  2  0
 34 35  2  0
 35 25  1  0
 36 32  1  0
M  END
$$$$
