KWY.pdb
     RDKit          3D

 36 38  0  0  1  0  0  0  0  0999 V2000
    8.5150  -16.9511   18.5606 N   0  0  0  0  0  0  0  0  0  0  0  0
    9.4621  -15.8907   18.7874 C   0  0  1  0  0  0  0  0  0  0  0  0
    9.2175  -14.7415   17.8632 C   0  0  0  0  0  0  0  0  0  0  0  0
    8.6845  -15.1187   16.5284 C   0  0  0  0  0  0  0  0  0  0  0  0
    7.4529  -14.4150   16.0765 C   0  0  0  0  0  0  0  0  0  0  0  0
    7.8983  -13.3260   15.0813 C   0  0  0  0  0  0  0  0  0  0  0  0
    7.2399  -13.5375   13.8149 N   0  0  0  0  0  0  0  0  0  0  0  0
    9.4971  -15.4920   20.2169 C   0  0  0  0  0  0  0  0  0  0  0  0
   10.1654  -14.4729   20.5051 O   0  0  0  0  0  0  0  0  0  0  0  0
    8.8084  -16.2259   21.2052 N   0  0  0  0  0  0  0  0  0  0  0  0
    8.6986  -15.6378   22.6092 C   0  0  1  0  0  0  0  0  0  0  0  0
    7.3208  -15.8873   23.0346 C   0  0  0  0  0  0  0  0  0  0  0  0
    6.8395  -15.4143   24.3209 C   0  0  0  0  0  0  0  0  0  0  0  0
    6.4185  -16.0748   25.4403 C   0  0  0  0  0  0  0  0  0  0  0  0
    6.0984  -15.1765   26.3749 N   0  0  0  0  0  0  0  0  0  0  0  0
    6.2930  -13.9124   25.9184 C   0  0  0  0  0  0  0  0  0  0  0  0
    6.1198  -12.6809   26.5074 C   0  0  0  0  0  0  0  0  0  0  0  0
    6.4141  -11.5429   25.8103 C   0  0  0  0  0  0  0  0  0  0  0  0
    6.8820  -11.6437   24.5202 C   0  0  0  0  0  0  0  0  0  0  0  0
    7.0482  -12.8792   23.9452 C   0  0  0  0  0  0  0  0  0  0  0  0
    6.7573  -14.0408   24.6328 C   0  0  0  0  0  0  0  0  0  0  0  0
    9.8444  -16.1698   23.3089 C   0  0  0  0  0  0  0  0  0  0  0  0
   10.4913  -17.1784   22.7518 O   0  0  0  0  0  0  0  0  0  0  0  0
    9.5922  -15.3226   31.0191 O   0  0  0  0  0  0  0  0  0  0  0  0
   10.2513  -15.3980   29.7882 C   0  0  0  0  0  0  0  0  0  0  0  0
   10.3130  -14.2520   29.0144 C   0  0  0  0  0  0  0  0  0  0  0  0
   10.9491  -14.2709   27.7920 C   0  0  0  0  0  0  0  0  0  0  0  0
   11.5521  -15.4296   27.2852 C   0  0  0  0  0  0  0  0  0  0  0  0
   12.2021  -15.3257   25.9784 C   0  0  0  0  0  0  0  0  0  0  0  0
   11.7347  -16.3047   24.9531 C   0  0  2  0  0  0  0  0  0  0  0  0
   10.4060  -15.7812   24.5152 N   0  0  0  0  0  0  0  0  0  0  0  0
   11.5066  -17.6685   25.4439 C   0  0  0  0  0  0  0  0  0  0  0  0
   12.4030  -18.4295   25.8212 O   0  0  0  0  0  0  0  0  0  0  0  0
   11.4756  -16.5455   28.0711 C   0  0  0  0  0  0  0  0  0  0  0  0
   10.8366  -16.5408   29.3070 C   0  0  0  0  0  0  0  0  0  0  0  0
   10.1865  -18.1582   25.4926 O   0  0  0  0  0  0  0  0  0  0  0  0
  2  1  1  1
  2  3  1  0
  4  3  1  0
  5  4  1  0
  6  5  1  0
  7  6  1  0
  8  9  2  0
  8  2  1  0
 10  8  1  0
 11 10  1  0
 11 12  1  1
 13 12  1  0
 14 13  2  0
 15 14  1  0
 16 15  1  0
 16 21  2  0
 17 16  1  0
 18 17  2  0
 18 19  1  0
 19 20  2  0
 20 21  1  0
 21 13  1  0
 22 23  2  0
 22 11  1  0
 25 24  1  0
 26 25  2  0
 27 26  1  0
 28 34  1  0
 28 27  2  0
 29 28  1  0
 30 29  1  1
 30 31  1  0
 31 22  1  0
 32 30  1  0
 33 32  2  0
 34 35  2  0
 35 25  1  0
 36 32  1  0
M  END
$$$$
