KWY.pdb
     RDKit          3D

 36 38  0  0  1  0  0  0  0  0999 V2000
    7.9099  -16.7039   19.5227 N   0  0  0  0  0  0  0  0  0  0  0  0
    8.5481  -15.4189   19.6430 C   0  0  1  0  0  0  0  0  0  0  0  0
    7.7176  -14.3433   19.0202 C   0  0  0  0  0  0  0  0  0  0  0  0
    7.3982  -14.5560   17.5846 C   0  0  0  0  0  0  0  0  0  0  0  0
    7.7487  -13.4512   16.6504 C   0  0  0  0  0  0  0  0  0  0  0  0
    7.3247  -13.9050   15.2401 C   0  0  0  0  0  0  0  0  0  0  0  0
    6.4795  -12.8968   14.6474 N   0  0  0  0  0  0  0  0  0  0  0  0
    8.9191  -15.1278   21.0505 C   0  0  0  0  0  0  0  0  0  0  0  0
    9.3949  -13.9940   21.2886 O   0  0  0  0  0  0  0  0  0  0  0  0
    8.7428  -16.0829   22.0733 N   0  0  0  0  0  0  0  0  0  0  0  0
    9.2334  -15.7483   23.4791 C   0  0  1  0  0  0  0  0  0  0  0  0
    8.2351  -16.3105   24.3895 C   0  0  0  0  0  0  0  0  0  0  0  0
    7.1950  -15.4752   24.9645 C   0  0  0  0  0  0  0  0  0  0  0  0
    5.9818  -15.7740   25.5173 C   0  0  0  0  0  0  0  0  0  0  0  0
    5.4056  -14.6415   25.9276 N   0  0  0  0  0  0  0  0  0  0  0  0
    6.2008  -13.5718   25.6679 C   0  0  0  0  0  0  0  0  0  0  0  0
    6.0480  -12.2263   25.9126 C   0  0  0  0  0  0  0  0  0  0  0  0
    7.0338  -11.3505   25.5539 C   0  0  0  0  0  0  0  0  0  0  0  0
    8.1733  -11.8280   24.9483 C   0  0  0  0  0  0  0  0  0  0  0  0
    8.3110  -13.1729   24.7091 C   0  0  0  0  0  0  0  0  0  0  0  0
    7.3270  -14.0742   25.0644 C   0  0  0  0  0  0  0  0  0  0  0  0
   10.6175  -16.1605   23.4809 C   0  0  0  0  0  0  0  0  0  0  0  0
   10.9319  -17.2621   22.8224 O   0  0  0  0  0  0  0  0  0  0  0  0
   11.1440  -16.7928   31.8247 O   0  0  0  0  0  0  0  0  0  0  0  0
   11.0708  -16.5581   30.4481 C   0  0  0  0  0  0  0  0  0  0  0  0
   11.2505  -15.2605   30.0011 C   0  0  0  0  0  0  0  0  0  0  0  0
   11.1869  -14.9729   28.6548 C   0  0  0  0  0  0  0  0  0  0  0  0
   10.9422  -15.9625   27.6937 C   0  0  0  0  0  0  0  0  0  0  0  0
   10.9030  -15.5372   26.2942 C   0  0  0  0  0  0  0  0  0  0  0  0
   12.1046  -15.8952   25.4841 C   0  0  2  0  0  0  0  0  0  0  0  0
   11.7187  -15.5676   24.0788 N   0  0  0  0  0  0  0  0  0  0  0  0
   12.4715  -17.3157   25.4976 C   0  0  0  0  0  0  0  0  0  0  0  0
   11.7848  -18.2149   25.0030 O   0  0  0  0  0  0  0  0  0  0  0  0
   10.7691  -17.2343   28.1643 C   0  0  0  0  0  0  0  0  0  0  0  0
   10.8306  -17.5389   29.5205 C   0  0  0  0  0  0  0  0  0  0  0  0
   13.6809  -17.6964   26.1122 O   0  0  0  0  0  0  0  0  0  0  0  0
  2  1  1  1
  2  3  1  0
  4  3  1  0
  5  4  1  0
  6  5  1  0
  7  6  1  0
  8  9  2  0
  8  2  1  0
 10  8  1  0
 11 10  1  0
 11 12  1  1
 13 12  1  0
 14 13  2  0
 15 14  1  0
 16 15  1  0
 16 21  2  0
 17 16  1  0
 18 17  2  0
 18 19  1  0
 19 20  2  0
 20 21  1  0
 21 13  1  0
 22 23  2  0
 22 11  1  0
 25 24  1  0
 26 25  2  0
 27 26  1  0
 28 34  1  0
 28 27  2  0
 29 28  1  0
 30 29  1  1
 30 31  1  0
 31 22  1  0
 32 30  1  0
 33 32  2  0
 34 35  2  0
 35 25  1  0
 36 32  1  0
M  END
$$$$
