KWY.pdb
     RDKit          3D

 36 38  0  0  1  0  0  0  0  0999 V2000
    8.3196  -17.3440   17.7934 N   0  0  0  0  0  0  0  0  0  0  0  0
    9.4739  -17.5259   18.6344 C   0  0  1  0  0  0  0  0  0  0  0  0
   10.7398  -17.3414   17.8610 C   0  0  0  0  0  0  0  0  0  0  0  0
   10.6189  -17.5889   16.4008 C   0  0  0  0  0  0  0  0  0  0  0  0
    9.8628  -16.5784   15.6113 C   0  0  0  0  0  0  0  0  0  0  0  0
    9.8919  -17.0436   14.1425 C   0  0  0  0  0  0  0  0  0  0  0  0
    9.2667  -16.0431   13.3117 N   0  0  0  0  0  0  0  0  0  0  0  0
    9.4014  -16.6719   19.8464 C   0  0  0  0  0  0  0  0  0  0  0  0
    9.9159  -15.5328   19.7689 O   0  0  0  0  0  0  0  0  0  0  0  0
    8.7804  -17.1214   21.0304 N   0  0  0  0  0  0  0  0  0  0  0  0
    8.7675  -16.1982   22.2455 C   0  0  1  0  0  0  0  0  0  0  0  0
    7.3552  -15.9463   22.5345 C   0  0  0  0  0  0  0  0  0  0  0  0
    6.9401  -15.4126   23.8200 C   0  0  0  0  0  0  0  0  0  0  0  0
    6.4666  -16.0143   24.9516 C   0  0  0  0  0  0  0  0  0  0  0  0
    6.2514  -15.0778   25.8788 N   0  0  0  0  0  0  0  0  0  0  0  0
    6.5691  -13.8454   25.4052 C   0  0  0  0  0  0  0  0  0  0  0  0
    6.5301  -12.5963   25.9813 C   0  0  0  0  0  0  0  0  0  0  0  0
    6.9314  -11.5021   25.2676 C   0  0  0  0  0  0  0  0  0  0  0  0
    7.3713  -11.6643   23.9739 C   0  0  0  0  0  0  0  0  0  0  0  0
    7.4032  -12.9165   23.4120 C   0  0  0  0  0  0  0  0  0  0  0  0
    7.0028  -14.0346   24.1164 C   0  0  0  0  0  0  0  0  0  0  0  0
    9.6595  -16.8349   23.1860 C   0  0  0  0  0  0  0  0  0  0  0  0
    9.2265  -17.9172   23.8083 O   0  0  0  0  0  0  0  0  0  0  0  0
   10.4277  -15.0123   31.2493 O   0  0  0  0  0  0  0  0  0  0  0  0
   10.3261  -15.2039   29.8679 C   0  0  0  0  0  0  0  0  0  0  0  0
   10.2967  -16.5040   29.3939 C   0  0  0  0  0  0  0  0  0  0  0  0
   10.1990  -16.7498   28.0414 C   0  0  0  0  0  0  0  0  0  0  0  0
   10.1260  -15.7142   27.1006 C   0  0  0  0  0  0  0  0  0  0  0  0
   10.0193  -16.0988   25.6929 C   0  0  0  0  0  0  0  0  0  0  0  0
   11.2214  -15.8054   24.8580 C   0  0  2  0  0  0  0  0  0  0  0  0
   10.9494  -16.4896   23.5583 N   0  0  0  0  0  0  0  0  0  0  0  0
   12.4860  -16.3519   25.3626 C   0  0  0  0  0  0  0  0  0  0  0  0
   13.0180  -16.0063   26.4221 O   0  0  0  0  0  0  0  0  0  0  0  0
   10.1569  -14.4411   27.5978 C   0  0  0  0  0  0  0  0  0  0  0  0
   10.2552  -14.1783   28.9605 C   0  0  0  0  0  0  0  0  0  0  0  0
   13.1508  -17.3333   24.6011 O   0  0  0  0  0  0  0  0  0  0  0  0
  2  1  1  6
  2  3  1  0
  4  3  1  0
  5  4  1  0
  6  5  1  0
  7  6  1  0
  8  9  2  0
  8  2  1  0
 10  8  1  0
 11 10  1  0
 11 12  1  1
 13 12  1  0
 14 13  2  0
 15 14  1  0
 16 15  1  0
 16 21  2  0
 17 16  1  0
 18 17  2  0
 18 19  1  0
 19 20  2  0
 20 21  1  0
 21 13  1  0
 22 23  2  0
 22 11  1  0
 25 24  1  0
 26 25  2  0
 27 26  1  0
 28 34  1  0
 28 27  2  0
 29 28  1  0
 30 29  1  1
 30 31  1  0
 31 22  1  0
 32 30  1  0
 33 32  2  0
 34 35  2  0
 35 25  1  0
 36 32  1  0
M  END
$$$$
