KWY.pdb
     RDKit          3D

 36 38  0  0  1  0  0  0  0  0999 V2000
    9.2236  -17.0408   18.4661 N   0  0  0  0  0  0  0  0  0  0  0  0
    8.2292  -16.9086   19.4988 C   0  0  1  0  0  0  0  0  0  0  0  0
    7.3712  -18.1299   19.5816 C   0  0  0  0  0  0  0  0  0  0  0  0
    7.4117  -19.0018   18.3789 C   0  0  0  0  0  0  0  0  0  0  0  0
    6.1011  -19.4480   17.8315 C   0  0  0  0  0  0  0  0  0  0  0  0
    6.4056  -20.4230   16.6778 C   0  0  0  0  0  0  0  0  0  0  0  0
    5.1686  -20.8272   16.0544 N   0  0  0  0  0  0  0  0  0  0  0  0
    8.8435  -16.5386   20.7985 C   0  0  0  0  0  0  0  0  0  0  0  0
    9.9843  -16.9966   21.0373 O   0  0  0  0  0  0  0  0  0  0  0  0
    8.1744  -15.7081   21.7217 N   0  0  0  0  0  0  0  0  0  0  0  0
    8.8682  -15.3704   23.0384 C   0  0  1  0  0  0  0  0  0  0  0  0
    8.1222  -14.2434   23.5995 C   0  0  0  0  0  0  0  0  0  0  0  0
    8.2346  -13.9004   25.0065 C   0  0  0  0  0  0  0  0  0  0  0  0
    9.0807  -14.3309   25.9892 C   0  0  0  0  0  0  0  0  0  0  0  0
    8.7891  -13.6851   27.1210 N   0  0  0  0  0  0  0  0  0  0  0  0
    7.7600  -12.8192   26.9332 C   0  0  0  0  0  0  0  0  0  0  0  0
    7.1251  -11.9413   27.7816 C   0  0  0  0  0  0  0  0  0  0  0  0
    6.1060  -11.1584   27.3168 C   0  0  0  0  0  0  0  0  0  0  0  0
    5.7250  -11.2590   25.9984 C   0  0  0  0  0  0  0  0  0  0  0  0
    6.3667  -12.1405   25.1641 C   0  0  0  0  0  0  0  0  0  0  0  0
    7.3990  -12.9397   25.6141 C   0  0  0  0  0  0  0  0  0  0  0  0
    8.9931  -16.6420   23.7115 C   0  0  0  0  0  0  0  0  0  0  0  0
    8.2145  -17.6304   23.3081 O   0  0  0  0  0  0  0  0  0  0  0  0
   14.8423  -18.5510   21.1818 O   0  0  0  0  0  0  0  0  0  0  0  0
   13.7031  -18.7278   21.9732 C   0  0  0  0  0  0  0  0  0  0  0  0
   12.4848  -18.8732   21.3326 C   0  0  0  0  0  0  0  0  0  0  0  0
   11.3301  -19.0487   22.0642 C   0  0  0  0  0  0  0  0  0  0  0  0
   11.3358  -19.0877   23.4647 C   0  0  0  0  0  0  0  0  0  0  0  0
   10.0483  -19.2849   24.1313 C   0  0  0  0  0  0  0  0  0  0  0  0
    9.7969  -18.4021   25.3085 C   0  0  2  0  0  0  0  0  0  0  0  0
    9.8306  -17.0169   24.7506 N   0  0  0  0  0  0  0  0  0  0  0  0
   10.8163  -18.4543   26.3625 C   0  0  0  0  0  0  0  0  0  0  0  0
   11.0780  -19.4623   27.0259 O   0  0  0  0  0  0  0  0  0  0  0  0
   12.5530  -18.9417   24.0697 C   0  0  0  0  0  0  0  0  0  0  0  0
   13.7265  -18.7638   23.3437 C   0  0  0  0  0  0  0  0  0  0  0  0
   11.5519  -17.2876   26.6507 O   0  0  0  0  0  0  0  0  0  0  0  0
  2  1  1  6
  2  3  1  0
  4  3  1  0
  5  4  1  0
  6  5  1  0
  7  6  1  0
  8  9  2  0
  8  2  1  0
 10  8  1  0
 11 10  1  0
 11 12  1  1
 13 12  1  0
 14 13  2  0
 15 14  1  0
 16 15  1  0
 16 21  2  0
 17 16  1  0
 18 17  2  0
 18 19  1  0
 19 20  2  0
 20 21  1  0
 21 13  1  0
 22 23  2  0
 22 11  1  0
 25 24  1  0
 26 25  2  0
 27 26  1  0
 28 34  1  0
 28 27  2  0
 29 28  1  0
 30 29  1  6
 30 31  1  0
 31 22  1  0
 32 30  1  0
 33 32  2  0
 34 35  2  0
 35 25  1  0
 36 32  1  0
M  END
$$$$
