ERW.pdb
     RDKit          3D

 35 36  0  0  1  0  0  0  0  0999 V2000
   10.0634  -14.0386   19.1879 N   0  0  0  0  0  0  0  0  0  0  0  0
    8.7578  -14.1246   19.7931 C   0  0  1  0  0  0  0  0  0  0  0  0
    7.6969  -14.4618   18.7741 C   0  0  0  0  0  0  0  0  0  0  0  0
    8.3004  -15.0889   17.5366 C   0  0  0  0  0  0  0  0  0  0  0  0
    7.9246  -14.3917   16.3061 C   0  0  0  0  0  0  0  0  0  0  0  0
    7.1199  -13.4096   16.3106 O   0  0  0  0  0  0  0  0  0  0  0  0
    8.6992  -15.2092   20.8314 C   0  0  0  0  0  0  0  0  0  0  0  0
    7.6123  -15.4851   21.4400 O   0  0  0  0  0  0  0  0  0  0  0  0
    8.4349  -14.7732   15.0733 O   0  0  0  0  0  0  0  0  0  0  0  0
   13.6873  -19.7373   19.8746 N   0  0  0  0  0  0  0  0  0  0  0  0
   12.7148  -20.7417   20.0905 C   0  0  0  0  0  0  0  0  0  0  0  0
   12.2773  -21.5141   19.1485 N   0  0  0  0  0  0  0  0  0  0  0  0
   12.1391  -20.9649   21.3812 N   0  0  0  0  0  0  0  0  0  0  0  0
   12.2193  -20.0175   22.4193 C   0  0  0  0  0  0  0  0  0  0  0  0
   10.9644  -19.2568   22.7498 C   0  0  0  0  0  0  0  0  0  0  0  0
   10.9806  -18.0322   21.8609 C   0  0  0  0  0  0  0  0  0  0  0  0
    9.8459  -17.0791   22.1041 C   0  0  2  0  0  0  0  0  0  0  0  0
    9.8442  -15.9690   21.1749 N   0  0  0  0  0  0  0  0  0  0  0  0
    9.9777  -16.5498   23.4966 C   0  0  0  0  0  0  0  0  0  0  0  0
   10.8251  -15.6331   23.7716 O   0  0  0  0  0  0  0  0  0  0  0  0
   11.5519  -22.2252   19.3756 N   0  0  0  0  0  0  0  0  0  0  0  0
    9.1979  -17.0165   24.5822 C   0  0  1  0  0  0  0  0  0  0  0  0
    9.4182  -16.5578   25.9437 C   0  0  0  0  0  0  0  0  0  0  0  0
    8.1126  -16.2841   26.5889 C   0  0  0  0  0  0  0  0  0  0  0  0
    7.2806  -15.2444   25.9820 C   0  0  0  0  0  0  0  0  0  0  0  0
    6.3159  -15.3543   25.0281 N   0  0  0  0  0  0  0  0  0  0  0  0
    5.8297  -14.1132   24.8151 C   0  0  0  0  0  0  0  0  0  0  0  0
    6.4584  -13.2252   25.6028 C   0  0  0  0  0  0  0  0  0  0  0  0
    6.3662  -11.8475   25.7933 C   0  0  0  0  0  0  0  0  0  0  0  0
    7.1709  -11.1952   26.6987 C   0  0  0  0  0  0  0  0  0  0  0  0
    8.1004  -11.8842   27.4536 C   0  0  0  0  0  0  0  0  0  0  0  0
    8.2044  -13.2539   27.2769 C   0  0  0  0  0  0  0  0  0  0  0  0
    7.3867  -13.9013   26.3594 C   0  0  0  0  0  0  0  0  0  0  0  0
   10.3022  -17.4907   26.6894 O   0  0  0  0  0  0  0  0  0  0  0  0
   10.6333  -18.6031   26.1884 O   0  0  0  0  0  0  0  0  0  0  0  0
  2  3  1  0
  2  1  1  6
  4  3  1  0
  5  4  1  0
  5  6  2  0
  7  2  1  0
  8  7  2  0
  9  5  1  0
 10 11  1  0
 11 12  2  0
 11 13  1  0
 13 14  1  0
 15 14  1  0
 16 15  1  0
 17 16  1  6
 17 18  1  0
 18  7  1  0
 19 21  1  0
 19 17  1  0
 20 19  2  0
 22 21  1  0
 22 23  1  6
 23 24  1  0
 24 25  2  0
 24 32  1  0
 25 26  1  0
 26 27  1  0
 27 28  2  0
 29 28  1  0
 30 29  2  0
 31 32  2  0
 31 30  1  0
 32 27  1  0
 33 22  1  0
 34 33  2  0
 35 33  1  0
M  END
$$$$
