ERW.pdb
     RDKit          3D

 35 36  0  0  1  0  0  0  0  0999 V2000
    8.1480  -13.3973   18.8851 N   0  0  0  0  0  0  0  0  0  0  0  0
    8.9735  -14.5321   19.2152 C   0  0  1  0  0  0  0  0  0  0  0  0
   10.4005  -14.1193   19.4813 C   0  0  0  0  0  0  0  0  0  0  0  0
   11.1229  -13.7733   18.1977 C   0  0  0  0  0  0  0  0  0  0  0  0
   12.4965  -13.3222   18.4234 C   0  0  0  0  0  0  0  0  0  0  0  0
   12.7548  -12.2194   18.9971 O   0  0  0  0  0  0  0  0  0  0  0  0
    8.4975  -15.2184   20.4643 C   0  0  0  0  0  0  0  0  0  0  0  0
    7.7791  -14.6067   21.3232 O   0  0  0  0  0  0  0  0  0  0  0  0
   13.5841  -14.0843   18.0205 O   0  0  0  0  0  0  0  0  0  0  0  0
    8.6120  -20.4441   17.5640 N   0  0  0  0  0  0  0  0  0  0  0  0
    9.6182  -21.2974   18.0745 C   0  0  0  0  0  0  0  0  0  0  0  0
   10.3676  -22.0347   17.3195 N   0  0  0  0  0  0  0  0  0  0  0  0
    9.8690  -21.4067   19.4788 N   0  0  0  0  0  0  0  0  0  0  0  0
    9.0959  -20.7291   20.4404 C   0  0  0  0  0  0  0  0  0  0  0  0
    9.2775  -19.2391   20.5380 C   0  0  0  0  0  0  0  0  0  0  0  0
    8.3948  -18.7922   21.6831 C   0  0  0  0  0  0  0  0  0  0  0  0
    8.3697  -17.3061   21.8983 C   0  0  2  0  0  0  0  0  0  0  0  0
    8.8243  -16.5692   20.7381 N   0  0  0  0  0  0  0  0  0  0  0  0
    9.2621  -16.9921   23.0565 C   0  0  0  0  0  0  0  0  0  0  0  0
   10.5149  -16.8038   22.8861 O   0  0  0  0  0  0  0  0  0  0  0  0
   11.0504  -22.6818   17.7648 N   0  0  0  0  0  0  0  0  0  0  0  0
    8.7971  -16.8881   24.3898 C   0  0  1  0  0  0  0  0  0  0  0  0
    9.6675  -16.4825   25.4808 C   0  0  0  0  0  0  0  0  0  0  0  0
    8.8555  -15.8650   26.5556 C   0  0  0  0  0  0  0  0  0  0  0  0
    7.6245  -15.1873   26.1474 C   0  0  0  0  0  0  0  0  0  0  0  0
    6.4747  -15.7108   25.6409 N   0  0  0  0  0  0  0  0  0  0  0  0
    5.6285  -14.6789   25.4377 C   0  0  0  0  0  0  0  0  0  0  0  0
    6.2090  -13.5225   25.7980 C   0  0  0  0  0  0  0  0  0  0  0  0
    5.8119  -12.1865   25.8006 C   0  0  0  0  0  0  0  0  0  0  0  0
    6.6537  -11.1909   26.2399 C   0  0  0  0  0  0  0  0  0  0  0  0
    7.9252  -11.4809   26.6960 C   0  0  0  0  0  0  0  0  0  0  0  0
    8.3353  -12.8037   26.7005 C   0  0  0  0  0  0  0  0  0  0  0  0
    7.4764  -13.8000   26.2542 C   0  0  0  0  0  0  0  0  0  0  0  0
   10.5388  -17.6034   25.9192 O   0  0  0  0  0  0  0  0  0  0  0  0
   10.3098  -18.7855   25.5343 O   0  0  0  0  0  0  0  0  0  0  0  0
  2  3  1  0
  2  1  1  1
  4  3  1  0
  5  4  1  0
  5  6  2  0
  7  2  1  0
  8  7  2  0
  9  5  1  0
 10 11  1  0
 11 12  2  0
 11 13  1  0
 13 14  1  0
 15 14  1  0
 16 15  1  0
 17 16  1  6
 17 18  1  0
 18  7  1  0
 19 21  1  0
 19 17  1  0
 20 19  2  0
 22 21  1  0
 22 23  1  6
 23 24  1  0
 24 25  2  0
 24 32  1  0
 25 26  1  0
 26 27  1  0
 27 28  2  0
 29 28  1  0
 30 29  2  0
 31 32  2  0
 31 30  1  0
 32 27  1  0
 33 22  1  0
 34 33  2  0
 35 33  1  0
M  END
$$$$
