ERW.pdb
     RDKit          3D

 35 36  0  0  1  0  0  0  0  0999 V2000
   12.1209  -18.0105   18.8951 N   0  0  0  0  0  0  0  0  0  0  0  0
   11.1678  -18.3433   19.9242 C   0  0  1  0  0  0  0  0  0  0  0  0
   11.6337  -19.5167   20.7510 C   0  0  0  0  0  0  0  0  0  0  0  0
   12.9738  -19.2394   21.3960 C   0  0  0  0  0  0  0  0  0  0  0  0
   13.4893  -20.3839   22.1483 C   0  0  0  0  0  0  0  0  0  0  0  0
   14.6674  -20.8246   21.9756 O   0  0  0  0  0  0  0  0  0  0  0  0
   10.9722  -17.2059   20.8865 C   0  0  0  0  0  0  0  0  0  0  0  0
   11.9662  -16.5638   21.3635 O   0  0  0  0  0  0  0  0  0  0  0  0
   12.7104  -21.0409   23.0905 O   0  0  0  0  0  0  0  0  0  0  0  0
    8.0564  -12.2206   18.1550 N   0  0  0  0  0  0  0  0  0  0  0  0
    7.9941  -13.5577   17.6971 C   0  0  0  0  0  0  0  0  0  0  0  0
    8.4794  -13.9367   16.5587 N   0  0  0  0  0  0  0  0  0  0  0  0
    7.3742  -14.5887   18.4716 N   0  0  0  0  0  0  0  0  0  0  0  0
    7.0201  -14.4110   19.8223 C   0  0  0  0  0  0  0  0  0  0  0  0
    8.1173  -14.0108   20.7704 C   0  0  0  0  0  0  0  0  0  0  0  0
    8.0856  -15.0301   21.8884 C   0  0  0  0  0  0  0  0  0  0  0  0
    9.4118  -15.6751   22.1721 C   0  0  2  0  0  0  0  0  0  0  0  0
    9.6801  -16.7997   21.3009 N   0  0  0  0  0  0  0  0  0  0  0  0
    9.4011  -16.1484   23.5907 C   0  0  0  0  0  0  0  0  0  0  0  0
    8.8990  -17.2827   23.8992 O   0  0  0  0  0  0  0  0  0  0  0  0
    8.4413  -14.9454   16.3050 N   0  0  0  0  0  0  0  0  0  0  0  0
    9.9278  -15.3926   24.6659 C   0  0  2  0  0  0  0  0  0  0  0  0
    9.8432  -15.8483   26.0434 C   0  0  0  0  0  0  0  0  0  0  0  0
    8.4660  -16.3180   26.3234 C   0  0  0  0  0  0  0  0  0  0  0  0
    7.3775  -15.3839   26.0338 C   0  0  0  0  0  0  0  0  0  0  0  0
    6.1394  -15.6281   25.5237 N   0  0  0  0  0  0  0  0  0  0  0  0
    5.4997  -14.4413   25.4578 C   0  0  0  0  0  0  0  0  0  0  0  0
    6.2957  -13.4576   25.9082 C   0  0  0  0  0  0  0  0  0  0  0  0
    6.1585  -12.0787   26.0596 C   0  0  0  0  0  0  0  0  0  0  0  0
    7.1822  -11.3090   26.5622 C   0  0  0  0  0  0  0  0  0  0  0  0
    8.3848  -11.8769   26.9364 C   0  0  0  0  0  0  0  0  0  0  0  0
    8.5372  -13.2459   26.7930 C   0  0  0  0  0  0  0  0  0  0  0  0
    7.4966  -14.0124   26.2840 C   0  0  0  0  0  0  0  0  0  0  0  0
   10.9149  -16.8302   26.3521 O   0  0  0  0  0  0  0  0  0  0  0  0
   11.7662  -17.1515   25.4745 O   0  0  0  0  0  0  0  0  0  0  0  0
  2  3  1  0
  2  1  1  6
  4  3  1  0
  5  4  1  0
  5  6  2  0
  7  2  1  0
  8  7  2  0
  9  5  1  0
 10 11  1  0
 11 12  2  0
 11 13  1  0
 13 14  1  0
 15 14  1  0
 16 15  1  0
 17 16  1  6
 17 18  1  0
 18  7  1  0
 19 21  1  0
 19 17  1  0
 20 19  2  0
 22 21  1  0
 22 23  1  6
 23 24  1  0
 24 25  2  0
 24 32  1  0
 25 26  1  0
 26 27  1  0
 27 28  2  0
 29 28  1  0
 30 29  2  0
 31 32  2  0
 31 30  1  0
 32 27  1  0
 33 22  1  0
 34 33  2  0
 35 33  1  0
M  END
$$$$
