ERW.pdb
     RDKit          3D

 35 36  0  0  1  0  0  0  0  0999 V2000
    9.7091  -18.7456   20.1828 N   0  0  0  0  0  0  0  0  0  0  0  0
   11.0707  -18.3796   20.4833 C   0  0  1  0  0  0  0  0  0  0  0  0
   11.8907  -18.2196   19.2264 C   0  0  0  0  0  0  0  0  0  0  0  0
   11.5735  -19.3034   18.2194 C   0  0  0  0  0  0  0  0  0  0  0  0
   12.6761  -19.5555   17.2909 C   0  0  0  0  0  0  0  0  0  0  0  0
   13.7784  -18.9308   17.3729 O   0  0  0  0  0  0  0  0  0  0  0  0
   11.1444  -17.0613   21.2005 C   0  0  0  0  0  0  0  0  0  0  0  0
   12.2655  -16.5447   21.5230 O   0  0  0  0  0  0  0  0  0  0  0  0
   12.5666  -20.4948   16.2752 O   0  0  0  0  0  0  0  0  0  0  0  0
    8.4810  -14.1154   17.3138 N   0  0  0  0  0  0  0  0  0  0  0  0
    8.0174  -13.3609   18.4170 C   0  0  0  0  0  0  0  0  0  0  0  0
    8.4148  -12.1539   18.6631 N   0  0  0  0  0  0  0  0  0  0  0  0
    7.0720  -13.8954   19.3484 N   0  0  0  0  0  0  0  0  0  0  0  0
    7.3847  -14.9566   20.2188 C   0  0  0  0  0  0  0  0  0  0  0  0
    7.5693  -14.6175   21.6726 C   0  0  0  0  0  0  0  0  0  0  0  0
    8.9884  -14.1073   21.7981 C   0  0  0  0  0  0  0  0  0  0  0  0
    9.9630  -15.1203   22.3266 C   0  0  2  0  0  0  0  0  0  0  0  0
    9.9757  -16.3390   21.5454 N   0  0  0  0  0  0  0  0  0  0  0  0
    9.5732  -15.4462   23.7331 C   0  0  0  0  0  0  0  0  0  0  0  0
    8.4628  -15.0373   24.2167 O   0  0  0  0  0  0  0  0  0  0  0  0
    8.0411  -11.6607   19.4999 N   0  0  0  0  0  0  0  0  0  0  0  0
   10.3859  -16.2066   24.6082 C   0  0  1  0  0  0  0  0  0  0  0  0
   10.1766  -16.2111   26.0465 C   0  0  0  0  0  0  0  0  0  0  0  0
    8.8020  -16.6784   26.3431 C   0  0  0  0  0  0  0  0  0  0  0  0
    7.7135  -15.7346   26.0871 C   0  0  0  0  0  0  0  0  0  0  0  0
    6.5685  -15.9064   25.3715 N   0  0  0  0  0  0  0  0  0  0  0  0
    5.8812  -14.7468   25.4441 C   0  0  0  0  0  0  0  0  0  0  0  0
    6.5573  -13.8500   26.1807 C   0  0  0  0  0  0  0  0  0  0  0  0
    6.3286  -12.5317   26.5713 C   0  0  0  0  0  0  0  0  0  0  0  0
    7.2345  -11.8489   27.3497 C   0  0  0  0  0  0  0  0  0  0  0  0
    8.4053  -12.4473   27.7736 C   0  0  0  0  0  0  0  0  0  0  0  0
    8.6477  -13.7572   27.3947 C   0  0  0  0  0  0  0  0  0  0  0  0
    7.7256  -14.4361   26.6083 C   0  0  0  0  0  0  0  0  0  0  0  0
   11.2559  -16.9562   26.7450 O   0  0  0  0  0  0  0  0  0  0  0  0
   12.2195  -17.4536   26.0953 O   0  0  0  0  0  0  0  0  0  0  0  0
  2  3  1  0
  2  1  1  6
  4  3  1  0
  5  4  1  0
  5  6  2  0
  7  2  1  0
  8  7  2  0
  9  5  1  0
 10 11  1  0
 11 12  2  0
 11 13  1  0
 13 14  1  0
 15 14  1  0
 16 15  1  0
 17 16  1  6
 17 18  1  0
 18  7  1  0
 19 21  1  0
 19 17  1  0
 20 19  2  0
 22 21  1  0
 22 23  1  1
 23 24  1  0
 24 25  2  0
 24 32  1  0
 25 26  1  0
 26 27  1  0
 27 28  2  0
 29 28  1  0
 30 29  2  0
 31 32  2  0
 31 30  1  0
 32 27  1  0
 33 22  1  0
 34 33  2  0
 35 33  1  0
M  END
$$$$
