ERW.pdb
     RDKit          3D

 35 36  0  0  1  0  0  0  0  0999 V2000
   13.0232  -17.6925   20.1157 N   0  0  0  0  0  0  0  0  0  0  0  0
   13.2551  -17.1987   21.4501 C   0  0  1  0  0  0  0  0  0  0  0  0
   13.9396  -15.8538   21.4309 C   0  0  0  0  0  0  0  0  0  0  0  0
   15.4452  -16.0016   21.4111 C   0  0  0  0  0  0  0  0  0  0  0  0
   16.1426  -14.7170   21.4810 C   0  0  0  0  0  0  0  0  0  0  0  0
   16.3613  -14.1317   22.5863 O   0  0  0  0  0  0  0  0  0  0  0  0
   11.9676  -17.0012   22.1990 C   0  0  0  0  0  0  0  0  0  0  0  0
   11.2259  -15.9854   21.9846 O   0  0  0  0  0  0  0  0  0  0  0  0
   16.6002  -14.0785   20.3370 O   0  0  0  0  0  0  0  0  0  0  0  0
    7.7569  -21.6840   20.5960 N   0  0  0  0  0  0  0  0  0  0  0  0
    8.6742  -22.6737   21.0206 C   0  0  0  0  0  0  0  0  0  0  0  0
    8.8719  -23.7766   20.3727 N   0  0  0  0  0  0  0  0  0  0  0  0
    9.4466  -22.5190   22.2149 N   0  0  0  0  0  0  0  0  0  0  0  0
    9.2475  -21.4525   23.1118 C   0  0  0  0  0  0  0  0  0  0  0  0
   10.0075  -20.1822   22.8439 C   0  0  0  0  0  0  0  0  0  0  0  0
    9.5610  -19.2045   23.9091 C   0  0  0  0  0  0  0  0  0  0  0  0
   10.2464  -17.8697   23.8467 C   0  0  2  0  0  0  0  0  0  0  0  0
   11.5245  -17.9328   23.1698 N   0  0  0  0  0  0  0  0  0  0  0  0
   10.4595  -17.3940   25.2484 C   0  0  0  0  0  0  0  0  0  0  0  0
   11.5948  -17.5279   25.8202 O   0  0  0  0  0  0  0  0  0  0  0  0
    9.4915  -24.5019   20.7891 N   0  0  0  0  0  0  0  0  0  0  0  0
    9.4452  -16.7818   26.0237 C   0  0  2  0  0  0  0  0  0  0  0  0
    9.6309  -16.4739   27.4320 C   0  0  0  0  0  0  0  0  0  0  0  0
    8.4945  -15.6522   27.9108 C   0  0  0  0  0  0  0  0  0  0  0  0
    7.7198  -14.9395   26.8942 C   0  0  0  0  0  0  0  0  0  0  0  0
    6.7797  -15.4136   26.0317 N   0  0  0  0  0  0  0  0  0  0  0  0
    6.3466  -14.3619   25.3046 C   0  0  0  0  0  0  0  0  0  0  0  0
    6.9850  -13.2415   25.6803 C   0  0  0  0  0  0  0  0  0  0  0  0
    6.9388  -11.9071   25.2803 C   0  0  0  0  0  0  0  0  0  0  0  0
    7.7408  -10.9561   25.8679 C   0  0  0  0  0  0  0  0  0  0  0  0
    8.6217  -11.2906   26.8782 C   0  0  0  0  0  0  0  0  0  0  0  0
    8.6796  -12.6122   27.2880 C   0  0  0  0  0  0  0  0  0  0  0  0
    7.8651  -13.5635   26.6868 C   0  0  0  0  0  0  0  0  0  0  0  0
    9.8905  -17.7051   28.2223 O   0  0  0  0  0  0  0  0  0  0  0  0
    9.4728  -18.8285   27.8202 O   0  0  0  0  0  0  0  0  0  0  0  0
  2  3  1  0
  2  1  1  6
  4  3  1  0
  5  4  1  0
  5  6  2  0
  7  2  1  0
  8  7  2  0
  9  5  1  0
 10 11  1  0
 11 12  2  0
 11 13  1  0
 13 14  1  0
 15 14  1  0
 16 15  1  0
 17 16  1  1
 17 18  1  0
 18  7  1  0
 19 21  1  0
 19 17  1  0
 20 19  2  0
 22 21  1  0
 22 23  1  6
 23 24  1  0
 24 25  2  0
 24 32  1  0
 25 26  1  0
 26 27  1  0
 27 28  2  0
 29 28  1  0
 30 29  2  0
 31 32  2  0
 31 30  1  0
 32 27  1  0
 33 22  1  0
 34 33  2  0
 35 33  1  0
M  END
$$$$
