ERW.pdb
     RDKit          3D

 35 36  0  0  1  0  0  0  0  0999 V2000
    8.1180  -17.7824   17.2910 N   0  0  0  0  0  0  0  0  0  0  0  0
    8.6804  -18.2920   18.5166 C   0  0  1  0  0  0  0  0  0  0  0  0
   10.1843  -18.1666   18.5292 C   0  0  0  0  0  0  0  0  0  0  0  0
   10.7721  -18.4426   17.1627 C   0  0  0  0  0  0  0  0  0  0  0  0
   12.2354  -18.4302   17.1613 C   0  0  0  0  0  0  0  0  0  0  0  0
   12.9056  -18.4731   16.0838 O   0  0  0  0  0  0  0  0  0  0  0  0
    8.1876  -17.5269   19.7123 C   0  0  0  0  0  0  0  0  0  0  0  0
    7.9479  -16.2756   19.6448 O   0  0  0  0  0  0  0  0  0  0  0  0
   12.9600  -18.3687   18.3434 O   0  0  0  0  0  0  0  0  0  0  0  0
    2.9599  -20.6990   21.3926 N   0  0  0  0  0  0  0  0  0  0  0  0
    2.6510  -19.7181   20.4212 C   0  0  0  0  0  0  0  0  0  0  0  0
    1.9048  -19.9563   19.3908 N   0  0  0  0  0  0  0  0  0  0  0  0
    3.1581  -18.3835   20.5138 N   0  0  0  0  0  0  0  0  0  0  0  0
    4.1152  -18.0027   21.4732 C   0  0  0  0  0  0  0  0  0  0  0  0
    5.3437  -18.8624   21.5929 C   0  0  0  0  0  0  0  0  0  0  0  0
    6.1984  -18.2109   22.6582 C   0  0  0  0  0  0  0  0  0  0  0  0
    7.4159  -17.5096   22.1279 C   0  0  2  0  0  0  0  0  0  0  0  0
    7.9676  -18.1618   20.9592 N   0  0  0  0  0  0  0  0  0  0  0  0
    8.4476  -17.4933   23.2104 C   0  0  0  0  0  0  0  0  0  0  0  0
    9.3525  -18.3944   23.2667 O   0  0  0  0  0  0  0  0  0  0  0  0
    1.7567  -19.2011   18.6902 N   0  0  0  0  0  0  0  0  0  0  0  0
    8.4925  -16.5079   24.2262 C   0  0  2  0  0  0  0  0  0  0  0  0
    9.5343  -16.4916   25.2395 C   0  0  0  0  0  0  0  0  0  0  0  0
    9.6069  -15.1434   25.8501 C   0  0  0  0  0  0  0  0  0  0  0  0
    8.3721  -14.3583   25.8673 C   0  0  0  0  0  0  0  0  0  0  0  0
    7.3787  -14.3269   26.7973 N   0  0  0  0  0  0  0  0  0  0  0  0
    6.4635  -13.4335   26.3655 C   0  0  0  0  0  0  0  0  0  0  0  0
    6.8477  -12.9029   25.1929 C   0  0  0  0  0  0  0  0  0  0  0  0
    6.3046  -11.9630   24.3185 C   0  0  0  0  0  0  0  0  0  0  0  0
    6.9489  -11.6131   23.1543 C   0  0  0  0  0  0  0  0  0  0  0  0
    8.1602  -12.1814   22.8103 C   0  0  0  0  0  0  0  0  0  0  0  0
    8.7139  -13.1168   23.6686 C   0  0  0  0  0  0  0  0  0  0  0  0
    8.0537  -13.4622   24.8410 C   0  0  0  0  0  0  0  0  0  0  0  0
    9.3633  -17.6082   26.2049 O   0  0  0  0  0  0  0  0  0  0  0  0
   10.2613  -17.8665   27.0564 O   0  0  0  0  0  0  0  0  0  0  0  0
  2  3  1  0
  2  1  1  6
  4  3  1  0
  5  4  1  0
  5  6  2  0
  7  2  1  0
  8  7  2  0
  9  5  1  0
 10 11  1  0
 11 12  2  0
 11 13  1  0
 13 14  1  0
 15 14  1  0
 16 15  1  0
 17 16  1  1
 17 18  1  0
 18  7  1  0
 19 21  1  0
 19 17  1  0
 20 19  2  0
 22 21  1  0
 22 23  1  6
 23 24  1  0
 24 25  2  0
 24 32  1  0
 25 26  1  0
 26 27  1  0
 27 28  2  0
 29 28  1  0
 30 29  2  0
 31 32  2  0
 31 30  1  0
 32 27  1  0
 33 22  1  0
 34 33  2  0
 35 33  1  0
M  END
$$$$
