ERW.pdb
     RDKit          3D

 35 36  0  0  1  0  0  0  0  0999 V2000
    9.0704  -19.9880   21.5552 N   0  0  0  0  0  0  0  0  0  0  0  0
   10.4566  -19.5924   21.5504 C   0  0  1  0  0  0  0  0  0  0  0  0
   11.0555  -19.6922   20.1687 C   0  0  0  0  0  0  0  0  0  0  0  0
   11.1715  -21.1327   19.7208 C   0  0  0  0  0  0  0  0  0  0  0  0
   11.7881  -21.2686   18.4007 C   0  0  0  0  0  0  0  0  0  0  0  0
   12.1605  -20.2589   17.7270 O   0  0  0  0  0  0  0  0  0  0  0  0
   10.6256  -18.1613   21.9763 C   0  0  0  0  0  0  0  0  0  0  0  0
   11.7821  -17.6651   22.1860 O   0  0  0  0  0  0  0  0  0  0  0  0
   11.9966  -22.5135   17.8238 O   0  0  0  0  0  0  0  0  0  0  0  0
    7.3727  -13.1466   18.3130 N   0  0  0  0  0  0  0  0  0  0  0  0
    8.7616  -13.3939   18.2087 C   0  0  0  0  0  0  0  0  0  0  0  0
    9.5988  -12.5270   17.7365 N   0  0  0  0  0  0  0  0  0  0  0  0
    9.3356  -14.6391   18.6170 N   0  0  0  0  0  0  0  0  0  0  0  0
    9.1184  -15.1896   19.8942 C   0  0  0  0  0  0  0  0  0  0  0  0
    8.5570  -14.2741   20.9475 C   0  0  0  0  0  0  0  0  0  0  0  0
    8.3787  -15.1301   22.1826 C   0  0  0  0  0  0  0  0  0  0  0  0
    9.5972  -15.9196   22.5664 C   0  0  2  0  0  0  0  0  0  0  0  0
    9.5112  -17.3063   22.1599 N   0  0  0  0  0  0  0  0  0  0  0  0
    9.7398  -15.8549   24.0537 C   0  0  0  0  0  0  0  0  0  0  0  0
   10.0471  -14.7589   24.6353 O   0  0  0  0  0  0  0  0  0  0  0  0
   10.6061  -12.7814   17.6734 N   0  0  0  0  0  0  0  0  0  0  0  0
    9.5542  -16.9736   24.9014 C   0  0  1  0  0  0  0  0  0  0  0  0
    9.7150  -16.8840   26.3432 C   0  0  0  0  0  0  0  0  0  0  0  0
    8.3825  -16.7707   26.9815 C   0  0  0  0  0  0  0  0  0  0  0  0
    7.4533  -15.7991   26.4035 C   0  0  0  0  0  0  0  0  0  0  0  0
    6.3314  -16.0089   25.6618 N   0  0  0  0  0  0  0  0  0  0  0  0
    5.8138  -14.7946   25.3791 C   0  0  0  0  0  0  0  0  0  0  0  0
    6.5745  -13.8272   25.9172 C   0  0  0  0  0  0  0  0  0  0  0  0
    6.5175  -12.4347   25.9389 C   0  0  0  0  0  0  0  0  0  0  0  0
    7.4728  -11.6898   26.5910 C   0  0  0  0  0  0  0  0  0  0  0  0
    8.5245  -12.2969   27.2498 C   0  0  0  0  0  0  0  0  0  0  0  0
    8.5957  -13.6800   27.2383 C   0  0  0  0  0  0  0  0  0  0  0  0
    7.6253  -14.4213   26.5762 C   0  0  0  0  0  0  0  0  0  0  0  0
   10.5651  -17.9879   26.8595 O   0  0  0  0  0  0  0  0  0  0  0  0
   11.0020  -18.8825   26.0805 O   0  0  0  0  0  0  0  0  0  0  0  0
  2  3  1  0
  2  1  1  6
  4  3  1  0
  5  4  1  0
  5  6  2  0
  7  2  1  0
  8  7  2  0
  9  5  1  0
 10 11  1  0
 11 12  2  0
 11 13  1  0
 13 14  1  0
 15 14  1  0
 16 15  1  0
 17 16  1  1
 17 18  1  0
 18  7  1  0
 19 21  1  0
 19 17  1  0
 20 19  2  0
 22 21  1  0
 22 23  1  1
 23 24  1  0
 24 25  2  0
 24 32  1  0
 25 26  1  0
 26 27  1  0
 27 28  2  0
 29 28  1  0
 30 29  2  0
 31 32  2  0
 31 30  1  0
 32 27  1  0
 33 22  1  0
 34 33  2  0
 35 33  1  0
M  END
$$$$
