ERW.pdb
     RDKit          3D

 35 36  0  0  1  0  0  0  0  0999 V2000
   11.0407  -19.2043   18.2918 N   0  0  0  0  0  0  0  0  0  0  0  0
   12.1969  -18.4347   18.6779 C   0  0  1  0  0  0  0  0  0  0  0  0
   12.7756  -17.6802   17.5059 C   0  0  0  0  0  0  0  0  0  0  0  0
   12.7298  -18.5080   16.2403 C   0  0  0  0  0  0  0  0  0  0  0  0
   13.6736  -18.0427   15.2234 C   0  0  0  0  0  0  0  0  0  0  0  0
   13.7674  -18.6038   14.0883 O   0  0  0  0  0  0  0  0  0  0  0  0
   11.8533  -17.4001   19.7120 C   0  0  0  0  0  0  0  0  0  0  0  0
   12.7269  -16.5728   20.1365 O   0  0  0  0  0  0  0  0  0  0  0  0
   14.5112  -16.9605   15.4542 O   0  0  0  0  0  0  0  0  0  0  0  0
    8.2941  -13.9234   17.3814 N   0  0  0  0  0  0  0  0  0  0  0  0
    8.1819  -13.1747   18.5764 C   0  0  0  0  0  0  0  0  0  0  0  0
    8.5867  -11.9498   18.6819 N   0  0  0  0  0  0  0  0  0  0  0  0
    7.6128  -13.7352   19.7633 N   0  0  0  0  0  0  0  0  0  0  0  0
    7.0690  -15.0330   19.8016 C   0  0  0  0  0  0  0  0  0  0  0  0
    8.0392  -16.1790   19.8910 C   0  0  0  0  0  0  0  0  0  0  0  0
    8.6779  -16.0704   21.2586 C   0  0  0  0  0  0  0  0  0  0  0  0
   10.1533  -16.3503   21.2737 C   0  0  2  0  0  0  0  0  0  0  0  0
   10.5489  -17.2997   20.2550 N   0  0  0  0  0  0  0  0  0  0  0  0
   10.5048  -16.9024   22.6183 C   0  0  0  0  0  0  0  0  0  0  0  0
   10.5127  -18.1635   22.8271 O   0  0  0  0  0  0  0  0  0  0  0  0
    8.5096  -11.4708   19.6027 N   0  0  0  0  0  0  0  0  0  0  0  0
   10.8406  -16.0900   23.7283 C   0  0  2  0  0  0  0  0  0  0  0  0
    9.8913  -15.8063   24.7917 C   0  0  0  0  0  0  0  0  0  0  0  0
    8.8057  -14.9452   24.2665 C   0  0  0  0  0  0  0  0  0  0  0  0
    7.7484  -14.5683   25.2054 C   0  0  0  0  0  0  0  0  0  0  0  0
    6.8274  -15.3504   25.8320 N   0  0  0  0  0  0  0  0  0  0  0  0
    6.0818  -14.5355   26.6081 C   0  0  0  0  0  0  0  0  0  0  0  0
    6.5025  -13.2655   26.4889 C   0  0  0  0  0  0  0  0  0  0  0  0
    6.1085  -12.0475   27.0404 C   0  0  0  0  0  0  0  0  0  0  0  0
    6.7495  -10.8744   26.7152 C   0  0  0  0  0  0  0  0  0  0  0  0
    7.8095  -10.8621   25.8291 C   0  0  0  0  0  0  0  0  0  0  0  0
    8.2139  -12.0640   25.2725 C   0  0  0  0  0  0  0  0  0  0  0  0
    7.5586  -13.2419   25.6083 C   0  0  0  0  0  0  0  0  0  0  0  0
    9.4350  -17.0562   25.4532 O   0  0  0  0  0  0  0  0  0  0  0  0
    9.2644  -17.0969   26.7051 O   0  0  0  0  0  0  0  0  0  0  0  0
  2  3  1  0
  2  1  1  6
  4  3  1  0
  5  4  1  0
  5  6  2  0
  7  2  1  0
  8  7  2  0
  9  5  1  0
 10 11  1  0
 11 12  2  0
 11 13  1  0
 13 14  1  0
 15 14  1  0
 16 15  1  0
 17 16  1  1
 17 18  1  0
 18  7  1  0
 19 21  1  0
 19 17  1  0
 20 19  2  0
 22 21  1  0
 22 23  1  1
 23 24  1  0
 24 25  2  0
 24 32  1  0
 25 26  1  0
 26 27  1  0
 27 28  2  0
 29 28  1  0
 30 29  2  0
 31 32  2  0
 31 30  1  0
 32 27  1  0
 33 22  1  0
 34 33  2  0
 35 33  1  0
M  END
$$$$
