ERW.pdb
     RDKit          3D

 35 36  0  0  1  0  0  0  0  0999 V2000
   11.0620  -17.9178   16.8248 N   0  0  0  0  0  0  0  0  0  0  0  0
   11.4538  -18.3016   18.1579 C   0  0  1  0  0  0  0  0  0  0  0  0
   12.9145  -18.0168   18.4087 C   0  0  0  0  0  0  0  0  0  0  0  0
   13.8025  -18.9385   17.6020 C   0  0  0  0  0  0  0  0  0  0  0  0
   15.2254  -18.6332   17.7551 C   0  0  0  0  0  0  0  0  0  0  0  0
   15.9039  -18.1100   16.8181 O   0  0  0  0  0  0  0  0  0  0  0  0
   10.6934  -17.5332   19.2014 C   0  0  0  0  0  0  0  0  0  0  0  0
   10.5231  -16.2726   19.1025 O   0  0  0  0  0  0  0  0  0  0  0  0
   15.9002  -18.9013   18.9378 O   0  0  0  0  0  0  0  0  0  0  0  0
    3.4189  -20.7704   21.0900 N   0  0  0  0  0  0  0  0  0  0  0  0
    3.9076  -20.4154   19.8109 C   0  0  0  0  0  0  0  0  0  0  0  0
    3.1588  -20.3751   18.7559 N   0  0  0  0  0  0  0  0  0  0  0  0
    5.2825  -20.0815   19.5982 N   0  0  0  0  0  0  0  0  0  0  0  0
    6.1045  -19.5729   20.6214 C   0  0  0  0  0  0  0  0  0  0  0  0
    7.2703  -18.7198   20.2022 C   0  0  0  0  0  0  0  0  0  0  0  0
    7.9723  -18.3257   21.4835 C   0  0  0  0  0  0  0  0  0  0  0  0
    9.2372  -17.5427   21.2776 C   0  0  2  0  0  0  0  0  0  0  0  0
   10.1343  -18.1750   20.3336 N   0  0  0  0  0  0  0  0  0  0  0  0
    9.9258  -17.4218   22.5996 C   0  0  0  0  0  0  0  0  0  0  0  0
   10.6688  -18.3642   23.0399 O   0  0  0  0  0  0  0  0  0  0  0  0
    3.5920  -20.1416   17.8388 N   0  0  0  0  0  0  0  0  0  0  0  0
    9.8041  -16.2875   23.4382 C   0  0  2  0  0  0  0  0  0  0  0  0
   10.2506  -16.2994   24.8213 C   0  0  0  0  0  0  0  0  0  0  0  0
    9.9458  -14.9920   25.4488 C   0  0  0  0  0  0  0  0  0  0  0  0
    8.5586  -14.5316   25.3764 C   0  0  0  0  0  0  0  0  0  0  0  0
    7.5407  -14.7069   26.2628 N   0  0  0  0  0  0  0  0  0  0  0  0
    6.4601  -14.0812   25.7499 C   0  0  0  0  0  0  0  0  0  0  0  0
    6.7644  -13.5193   24.5684 C   0  0  0  0  0  0  0  0  0  0  0  0
    6.0560  -12.7752   23.6265 C   0  0  0  0  0  0  0  0  0  0  0  0
    6.6556  -12.3246   22.4731 C   0  0  0  0  0  0  0  0  0  0  0  0
    7.9844  -12.5935   22.2074 C   0  0  0  0  0  0  0  0  0  0  0  0
    8.7029  -13.3313   23.1334 C   0  0  0  0  0  0  0  0  0  0  0  0
    8.0863  -13.7811   24.2941 C   0  0  0  0  0  0  0  0  0  0  0  0
    9.7199  -17.4819   25.5479 O   0  0  0  0  0  0  0  0  0  0  0  0
    8.7141  -18.1093   25.1091 O   0  0  0  0  0  0  0  0  0  0  0  0
  2  3  1  0
  2  1  1  6
  4  3  1  0
  5  4  1  0
  5  6  2  0
  7  2  1  0
  8  7  2  0
  9  5  1  0
 10 11  1  0
 11 12  2  0
 11 13  1  0
 13 14  1  0
 15 14  1  0
 16 15  1  0
 17 16  1  1
 17 18  1  0
 18  7  1  0
 19 21  1  0
 19 17  1  0
 20 19  2  0
 22 21  1  0
 22 23  1  6
 23 24  1  0
 24 25  2  0
 24 32  1  0
 25 26  1  0
 26 27  1  0
 27 28  2  0
 29 28  1  0
 30 29  2  0
 31 32  2  0
 31 30  1  0
 32 27  1  0
 33 22  1  0
 34 33  2  0
 35 33  1  0
M  END
$$$$
