ERW.pdb
     RDKit          3D

 35 36  0  0  1  0  0  0  0  0999 V2000
   10.3856  -14.8803   19.0334 N   0  0  0  0  0  0  0  0  0  0  0  0
    9.1536  -14.5268   19.6934 C   0  0  1  0  0  0  0  0  0  0  0  0
    7.9849  -14.5626   18.7392 C   0  0  0  0  0  0  0  0  0  0  0  0
    8.4321  -14.8916   17.3318 C   0  0  0  0  0  0  0  0  0  0  0  0
    7.3229  -14.9283   16.3779 C   0  0  0  0  0  0  0  0  0  0  0  0
    6.4458  -15.8460   16.4041 O   0  0  0  0  0  0  0  0  0  0  0  0
    8.8208  -15.4901   20.7976 C   0  0  0  0  0  0  0  0  0  0  0  0
    7.7384  -15.3842   21.4647 O   0  0  0  0  0  0  0  0  0  0  0  0
    7.1780  -13.9561   15.3983 O   0  0  0  0  0  0  0  0  0  0  0  0
    8.9814  -21.6317   16.9844 N   0  0  0  0  0  0  0  0  0  0  0  0
    9.6750  -20.6651   17.7498 C   0  0  0  0  0  0  0  0  0  0  0  0
    9.7356  -19.4150   17.4198 N   0  0  0  0  0  0  0  0  0  0  0  0
   10.3703  -21.0153   18.9501 N   0  0  0  0  0  0  0  0  0  0  0  0
   10.6622  -20.0757   19.9568 C   0  0  0  0  0  0  0  0  0  0  0  0
    9.5553  -19.7352   20.9169 C   0  0  0  0  0  0  0  0  0  0  0  0
   10.1750  -18.8186   21.9493 C   0  0  0  0  0  0  0  0  0  0  0  0
    9.4219  -17.5378   22.1675 C   0  0  2  0  0  0  0  0  0  0  0  0
    9.6915  -16.5532   21.1410 N   0  0  0  0  0  0  0  0  0  0  0  0
    9.8294  -16.9829   23.4951 C   0  0  0  0  0  0  0  0  0  0  0  0
   10.8480  -16.2179   23.6007 O   0  0  0  0  0  0  0  0  0  0  0  0
   10.3493  -18.7780   17.9682 N   0  0  0  0  0  0  0  0  0  0  0  0
    9.1379  -17.2612   24.6988 C   0  0  1  0  0  0  0  0  0  0  0  0
    9.5969  -16.7631   25.9848 C   0  0  0  0  0  0  0  0  0  0  0  0
    8.4361  -16.2794   26.7687 C   0  0  0  0  0  0  0  0  0  0  0  0
    7.5573  -15.3076   26.1170 C   0  0  0  0  0  0  0  0  0  0  0  0
    6.4950  -15.5173   25.2922 N   0  0  0  0  0  0  0  0  0  0  0  0
    6.0046  -14.3027   24.9655 C   0  0  0  0  0  0  0  0  0  0  0  0
    6.7250  -13.3353   25.5565 C   0  0  0  0  0  0  0  0  0  0  0  0
    6.6711  -11.9425   25.5679 C   0  0  0  0  0  0  0  0  0  0  0  0
    7.5760  -11.1976   26.2884 C   0  0  0  0  0  0  0  0  0  0  0  0
    8.5719  -11.8050   27.0285 C   0  0  0  0  0  0  0  0  0  0  0  0
    8.6392  -13.1883   27.0284 C   0  0  0  0  0  0  0  0  0  0  0  0
    7.7200  -13.9296   26.2967 C   0  0  0  0  0  0  0  0  0  0  0  0
   10.4469  -17.7656   26.6779 O   0  0  0  0  0  0  0  0  0  0  0  0
   10.5607  -18.9390   26.2215 O   0  0  0  0  0  0  0  0  0  0  0  0
  2  3  1  0
  2  1  1  6
  4  3  1  0
  5  4  1  0
  5  6  2  0
  7  2  1  0
  8  7  2  0
  9  5  1  0
 10 11  1  0
 11 12  2  0
 11 13  1  0
 13 14  1  0
 15 14  1  0
 16 15  1  0
 17 16  1  6
 17 18  1  0
 18  7  1  0
 19 21  1  0
 19 17  1  0
 20 19  2  0
 22 21  1  0
 22 23  1  1
 23 24  1  0
 24 25  2  0
 24 32  1  0
 25 26  1  0
 26 27  1  0
 27 28  2  0
 29 28  1  0
 30 29  2  0
 31 32  2  0
 31 30  1  0
 32 27  1  0
 33 22  1  0
 34 33  2  0
 35 33  1  0
M  END
$$$$
