PFH.pdb
     RDKit          3D

 29 31  0  0  1  0  0  0  0  0999 V2000
    7.5191  -15.4277   19.6091 N   0  0  0  0  0  0  0  0  0  0  0  0
    7.0333  -14.7936   18.4076 C   0  0  0  0  0  0  0  0  0  0  0  0
    7.6994  -13.4435   18.3239 C   0  0  0  0  0  0  0  0  0  0  0  0
    8.9132  -13.5477   19.1985 C   0  0  0  0  0  0  0  0  0  0  0  0
    8.8144  -14.8726   19.8965 C   0  0  1  0  0  0  0  0  0  0  0  0
    9.0686  -14.7653   21.3576 C   0  0  0  0  0  0  0  0  0  0  0  0
   10.1865  -14.3652   21.7445 O   0  0  0  0  0  0  0  0  0  0  0  0
    8.1018  -15.0955   22.3447 N   0  0  0  0  0  0  0  0  0  0  0  0
    8.2137  -14.7059   23.7401 C   0  0  1  0  0  0  0  0  0  0  0  0
    7.0900  -13.8597   24.1789 C   0  0  0  0  0  0  0  0  0  0  0  0
    7.2005  -13.1417   25.4369 C   0  0  0  0  0  0  0  0  0  0  0  0
    8.3808  -12.7575   26.0203 C   0  0  0  0  0  0  0  0  0  0  0  0
    8.3758  -12.0683   27.2040 C   0  0  0  0  0  0  0  0  0  0  0  0
    7.2003  -11.7409   27.8421 C   0  0  0  0  0  0  0  0  0  0  0  0
    5.9984  -12.1129   27.2808 C   0  0  0  0  0  0  0  0  0  0  0  0
    6.0250  -12.8050   26.0908 C   0  0  0  0  0  0  0  0  0  0  0  0
    8.3516  -15.8849   24.6271 C   0  0  0  0  0  0  0  0  0  0  0  0
    8.0777  -15.7391   25.8442 O   0  0  0  0  0  0  0  0  0  0  0  0
    8.7738  -17.1514   24.1629 N   0  0  0  0  0  0  0  0  0  0  0  0
    9.9255  -17.7856   24.8179 C   0  0  1  0  0  0  0  0  0  0  0  0
   11.1844  -17.0814   24.4374 C   0  0  0  0  0  0  0  0  0  0  0  0
   11.6163  -17.4602   23.0787 C   0  0  0  0  0  0  0  0  0  0  0  0
   10.9044  -18.3153   22.2059 C   0  0  0  0  0  0  0  0  0  0  0  0
   11.5805  -18.4431   21.0568 N   0  0  0  0  0  0  0  0  0  0  0  0
   12.6893  -17.7123   21.1518 C   0  0  0  0  0  0  0  0  0  0  0  0
   12.6961  -17.1400   22.3472 N   0  0  0  0  0  0  0  0  0  0  0  0
    9.6662  -17.6703   26.2599 C   0  0  0  0  0  0  0  0  0  0  0  0
    9.9458  -18.7325   27.1035 O   0  0  0  0  0  0  0  0  0  0  0  0
    9.1969  -16.6372   26.7606 O   0  0  0  0  0  0  0  0  0  0  0  0
  1  5  1  0
  2  1  1  0
  3  2  1  0
  3  4  1  0
  5  4  1  0
  6  7  2  0
  5  6  1  1
  8  6  1  0
  9  8  1  0
  9 10  1  1
 11 10  1  0
 12 11  2  0
 13 12  1  0
 14 15  1  0
 14 13  2  0
 15 16  2  0
 16 11  1  0
 17  9  1  0
 17 18  2  0
 19 20  1  0
 19 17  1  0
 20 21  1  1
 21 22  1  0
 22 23  2  0
 22 26  1  0
 23 24  1  0
 24 25  1  0
 26 25  2  0
 27 20  1  0
 28 27  1  0
 29 27  2  0
M  END
$$$$
