PFH.pdb
     RDKit          3D

 29 31  0  0  1  0  0  0  0  0999 V2000
    7.5250  -15.5020   19.4211 N   0  0  0  0  0  0  0  0  0  0  0  0
    6.9511  -14.9667   18.2105 C   0  0  0  0  0  0  0  0  0  0  0  0
    7.4299  -13.5420   18.0905 C   0  0  0  0  0  0  0  0  0  0  0  0
    8.6522  -13.4626   18.9558 C   0  0  0  0  0  0  0  0  0  0  0  0
    8.7361  -14.7722   19.6840 C   0  0  1  0  0  0  0  0  0  0  0  0
    8.9828  -14.5978   21.1399 C   0  0  0  0  0  0  0  0  0  0  0  0
   10.0818  -14.1354   21.5113 O   0  0  0  0  0  0  0  0  0  0  0  0
    8.0293  -14.9309   22.1388 N   0  0  0  0  0  0  0  0  0  0  0  0
    8.1807  -14.5825   23.5415 C   0  0  1  0  0  0  0  0  0  0  0  0
    6.9184  -14.1200   24.1447 C   0  0  0  0  0  0  0  0  0  0  0  0
    6.9592  -13.4518   25.4340 C   0  0  0  0  0  0  0  0  0  0  0  0
    7.3267  -12.1450   25.6295 C   0  0  0  0  0  0  0  0  0  0  0  0
    7.3164  -11.6037   26.8877 C   0  0  0  0  0  0  0  0  0  0  0  0
    6.9412  -12.3432   27.9870 C   0  0  0  0  0  0  0  0  0  0  0  0
    6.5667  -13.6588   27.8228 C   0  0  0  0  0  0  0  0  0  0  0  0
    6.5839  -14.1840   26.5502 C   0  0  0  0  0  0  0  0  0  0  0  0
    8.7487  -15.7047   24.3249 C   0  0  0  0  0  0  0  0  0  0  0  0
    8.1629  -16.8144   24.2705 O   0  0  0  0  0  0  0  0  0  0  0  0
    9.9096  -15.5769   25.1211 N   0  0  0  0  0  0  0  0  0  0  0  0
   10.4620  -16.7852   25.7475 C   0  0  1  0  0  0  0  0  0  0  0  0
   11.9529  -16.7332   25.7367 C   0  0  0  0  0  0  0  0  0  0  0  0
   12.4708  -16.5988   24.3620 C   0  0  0  0  0  0  0  0  0  0  0  0
   12.0462  -17.3660   23.2525 C   0  0  0  0  0  0  0  0  0  0  0  0
   12.7221  -16.9839   22.1611 N   0  0  0  0  0  0  0  0  0  0  0  0
   13.5574  -16.0105   22.5179 C   0  0  0  0  0  0  0  0  0  0  0  0
   13.3979  -15.7953   23.8158 N   0  0  0  0  0  0  0  0  0  0  0  0
    9.9394  -16.7859   27.1212 C   0  0  0  0  0  0  0  0  0  0  0  0
   10.2498  -17.8252   27.9823 O   0  0  0  0  0  0  0  0  0  0  0  0
    9.2163  -15.8729   27.5475 O   0  0  0  0  0  0  0  0  0  0  0  0
  1  5  1  0
  2  1  1  0
  3  2  1  0
  3  4  1  0
  5  4  1  0
  6  7  2  0
  5  6  1  1
  8  6  1  0
  9  8  1  0
  9 10  1  1
 11 10  1  0
 12 11  2  0
 13 12  1  0
 14 15  1  0
 14 13  2  0
 15 16  2  0
 16 11  1  0
 17  9  1  0
 17 18  2  0
 19 20  1  0
 19 17  1  0
 20 21  1  1
 21 22  1  0
 22 23  2  0
 22 26  1  0
 23 24  1  0
 24 25  1  0
 26 25  2  0
 27 20  1  0
 28 27  1  0
 29 27  2  0
M  END
$$$$
