PFH.pdb
     RDKit          3D

 29 31  0  0  1  0  0  0  0  0999 V2000
    7.5279  -15.2890   19.0210 N   0  0  0  0  0  0  0  0  0  0  0  0
    6.9819  -14.7531   17.7978 C   0  0  0  0  0  0  0  0  0  0  0  0
    7.4785  -13.3343   17.6801 C   0  0  0  0  0  0  0  0  0  0  0  0
    8.6858  -13.2643   18.5670 C   0  0  0  0  0  0  0  0  0  0  0  0
    8.7421  -14.5713   19.3024 C   0  0  1  0  0  0  0  0  0  0  0  0
    8.9645  -14.3928   20.7617 C   0  0  0  0  0  0  0  0  0  0  0  0
   10.0862  -14.0105   21.1555 O   0  0  0  0  0  0  0  0  0  0  0  0
    7.9631  -14.6354   21.7396 N   0  0  0  0  0  0  0  0  0  0  0  0
    8.1360  -14.3501   23.1539 C   0  0  1  0  0  0  0  0  0  0  0  0
    6.9143  -13.8028   23.7700 C   0  0  0  0  0  0  0  0  0  0  0  0
    6.9753  -13.3124   25.1360 C   0  0  0  0  0  0  0  0  0  0  0  0
    7.6065  -12.1598   25.5287 C   0  0  0  0  0  0  0  0  0  0  0  0
    7.5925  -11.7763   26.8436 C   0  0  0  0  0  0  0  0  0  0  0  0
    6.9522  -12.5252   27.8056 C   0  0  0  0  0  0  0  0  0  0  0  0
    6.3091  -13.6881   27.4422 C   0  0  0  0  0  0  0  0  0  0  0  0
    6.3348  -14.0560   26.1156 C   0  0  0  0  0  0  0  0  0  0  0  0
    8.6022  -15.5431   23.8989 C   0  0  0  0  0  0  0  0  0  0  0  0
    7.9531  -16.6099   23.7644 O   0  0  0  0  0  0  0  0  0  0  0  0
    9.7347  -15.5278   24.7445 N   0  0  0  0  0  0  0  0  0  0  0  0
   10.2925  -16.8128   25.1862 C   0  0  1  0  0  0  0  0  0  0  0  0
   11.7666  -16.8381   24.9583 C   0  0  0  0  0  0  0  0  0  0  0  0
   12.3552  -18.1086   25.4225 C   0  0  0  0  0  0  0  0  0  0  0  0
   11.6748  -19.3466   25.4866 C   0  0  0  0  0  0  0  0  0  0  0  0
   12.5053  -20.2885   25.9526 N   0  0  0  0  0  0  0  0  0  0  0  0
   13.6828  -19.7139   26.1894 C   0  0  0  0  0  0  0  0  0  0  0  0
   13.5786  -18.4313   25.8726 N   0  0  0  0  0  0  0  0  0  0  0  0
    9.9737  -16.9048   26.6179 C   0  0  0  0  0  0  0  0  0  0  0  0
   10.2297  -18.0748   27.3133 O   0  0  0  0  0  0  0  0  0  0  0  0
    9.4739  -15.9554   27.2401 O   0  0  0  0  0  0  0  0  0  0  0  0
  1  5  1  0
  2  1  1  0
  3  2  1  0
  3  4  1  0
  5  4  1  0
  6  7  2  0
  5  6  1  1
  8  6  1  0
  9  8  1  0
  9 10  1  1
 11 10  1  0
 12 11  2  0
 13 12  1  0
 14 15  1  0
 14 13  2  0
 15 16  2  0
 16 11  1  0
 17  9  1  0
 17 18  2  0
 19 20  1  0
 19 17  1  0
 20 21  1  1
 21 22  1  0
 22 23  2  0
 22 26  1  0
 23 24  1  0
 24 25  1  0
 26 25  2  0
 27 20  1  0
 28 27  1  0
 29 27  2  0
M  END
$$$$
