PFH.pdb
     RDKit          3D

 29 31  0  0  1  0  0  0  0  0999 V2000
    7.0823  -15.1933   20.7157 N   0  0  0  0  0  0  0  0  0  0  0  0
    6.4068  -14.3741   19.7390 C   0  0  0  0  0  0  0  0  0  0  0  0
    7.1112  -13.0411   19.7215 C   0  0  0  0  0  0  0  0  0  0  0  0
    8.4639  -13.3022   20.3141 C   0  0  0  0  0  0  0  0  0  0  0  0
    8.4350  -14.7154   20.8184 C   0  0  1  0  0  0  0  0  0  0  0  0
    8.9707  -14.8365   22.2001 C   0  0  0  0  0  0  0  0  0  0  0  0
   10.1655  -14.5389   22.4088 O   0  0  0  0  0  0  0  0  0  0  0  0
    8.1918  -15.2755   23.3040 N   0  0  0  0  0  0  0  0  0  0  0  0
    8.7056  -15.3772   24.6595 C   0  0  1  0  0  0  0  0  0  0  0  0
    7.6941  -15.0251   25.6715 C   0  0  0  0  0  0  0  0  0  0  0  0
    7.4266  -13.6225   25.9392 C   0  0  0  0  0  0  0  0  0  0  0  0
    6.1789  -13.0540   25.9730 C   0  0  0  0  0  0  0  0  0  0  0  0
    6.0329  -11.7207   26.2510 C   0  0  0  0  0  0  0  0  0  0  0  0
    7.1202  -10.9142   26.5033 C   0  0  0  0  0  0  0  0  0  0  0  0
    8.3865  -11.4562   26.4767 C   0  0  0  0  0  0  0  0  0  0  0  0
    8.5118  -12.7981   26.1953 C   0  0  0  0  0  0  0  0  0  0  0  0
    9.2651  -16.7219   24.9322 C   0  0  0  0  0  0  0  0  0  0  0  0
    8.5209  -17.7163   24.7454 O   0  0  0  0  0  0  0  0  0  0  0  0
   10.5870  -16.9268   25.3887 N   0  0  0  0  0  0  0  0  0  0  0  0
   11.0672  -18.3070   25.5374 C   0  0  1  0  0  0  0  0  0  0  0  0
   12.5321  -18.3733   25.2628 C   0  0  0  0  0  0  0  0  0  0  0  0
   12.8346  -17.9487   23.8828 C   0  0  0  0  0  0  0  0  0  0  0  0
   11.9814  -18.1280   22.7695 C   0  0  0  0  0  0  0  0  0  0  0  0
   12.5664  -17.6267   21.6738 N   0  0  0  0  0  0  0  0  0  0  0  0
   13.7511  -17.1359   22.0316 C   0  0  0  0  0  0  0  0  0  0  0  0
   13.8945  -17.3329   23.3344 N   0  0  0  0  0  0  0  0  0  0  0  0
   10.7693  -18.6758   26.9286 C   0  0  0  0  0  0  0  0  0  0  0  0
   10.1566  -17.7651   27.7731 O   0  0  0  0  0  0  0  0  0  0  0  0
   11.0514  -19.7941   27.3846 O   0  0  0  0  0  0  0  0  0  0  0  0
  1  5  1  0
  2  1  1  0
  3  2  1  0
  3  4  1  0
  5  4  1  0
  6  7  2  0
  5  6  1  1
  8  6  1  0
  9  8  1  0
  9 10  1  1
 11 10  1  0
 12 11  2  0
 13 12  1  0
 14 15  1  0
 14 13  2  0
 15 16  2  0
 16 11  1  0
 17  9  1  0
 17 18  2  0
 19 20  1  0
 19 17  1  0
 20 21  1  1
 21 22  1  0
 22 23  2  0
 22 26  1  0
 23 24  1  0
 24 25  1  0
 26 25  2  0
 27 20  1  0
 28 27  1  0
 29 27  2  0
M  END
$$$$
