PFH.pdb
     RDKit          3D

 29 31  0  0  1  0  0  0  0  0999 V2000
    7.6213  -15.5679   19.1612 N   0  0  0  0  0  0  0  0  0  0  0  0
    7.0258  -15.0787   17.9415 C   0  0  0  0  0  0  0  0  0  0  0  0
    7.4397  -13.6358   17.7992 C   0  0  0  0  0  0  0  0  0  0  0  0
    8.6556  -13.4871   18.6644 C   0  0  0  0  0  0  0  0  0  0  0  0
    8.7976  -14.7797   19.4135 C   0  0  1  0  0  0  0  0  0  0  0  0
    9.0335  -14.5711   20.8667 C   0  0  0  0  0  0  0  0  0  0  0  0
   10.1629  -14.1940   21.2433 O   0  0  0  0  0  0  0  0  0  0  0  0
    8.0368  -14.7789   21.8574 N   0  0  0  0  0  0  0  0  0  0  0  0
    8.2208  -14.4550   23.2619 C   0  0  1  0  0  0  0  0  0  0  0  0
    7.0263  -13.8283   23.8550 C   0  0  0  0  0  0  0  0  0  0  0  0
    7.1172  -13.2687   25.1925 C   0  0  0  0  0  0  0  0  0  0  0  0
    7.7979  -12.1239   25.5198 C   0  0  0  0  0  0  0  0  0  0  0  0
    7.8091  -11.6706   26.8123 C   0  0  0  0  0  0  0  0  0  0  0  0
    7.1455  -12.3400   27.8162 C   0  0  0  0  0  0  0  0  0  0  0  0
    6.4526  -13.4930   27.5187 C   0  0  0  0  0  0  0  0  0  0  0  0
    6.4537  -13.9319   26.2137 C   0  0  0  0  0  0  0  0  0  0  0  0
    8.6266  -15.6437   24.0481 C   0  0  0  0  0  0  0  0  0  0  0  0
    7.9233  -16.6797   23.9512 O   0  0  0  0  0  0  0  0  0  0  0  0
    9.7602  -15.6570   24.8923 N   0  0  0  0  0  0  0  0  0  0  0  0
   10.1358  -16.9232   25.5352 C   0  0  1  0  0  0  0  0  0  0  0  0
   11.6168  -17.0987   25.4972 C   0  0  0  0  0  0  0  0  0  0  0  0
   12.0709  -17.4990   24.1519 C   0  0  0  0  0  0  0  0  0  0  0  0
   11.2289  -17.6983   23.0334 C   0  0  0  0  0  0  0  0  0  0  0  0
   11.9693  -18.0547   21.9756 N   0  0  0  0  0  0  0  0  0  0  0  0
   13.2426  -18.0930   22.3626 C   0  0  0  0  0  0  0  0  0  0  0  0
   13.2862  -17.7635   23.6455 N   0  0  0  0  0  0  0  0  0  0  0  0
    9.6477  -16.8185   26.9176 C   0  0  0  0  0  0  0  0  0  0  0  0
    9.5550  -17.9508   27.7096 O   0  0  0  0  0  0  0  0  0  0  0  0
    9.3085  -15.7328   27.4121 O   0  0  0  0  0  0  0  0  0  0  0  0
  1  5  1  0
  2  1  1  0
  3  2  1  0
  3  4  1  0
  5  4  1  0
  6  7  2  0
  5  6  1  1
  8  6  1  0
  9  8  1  0
  9 10  1  1
 11 10  1  0
 12 11  2  0
 13 12  1  0
 14 15  1  0
 14 13  2  0
 15 16  2  0
 16 11  1  0
 17  9  1  0
 17 18  2  0
 19 20  1  0
 19 17  1  0
 20 21  1  1
 21 22  1  0
 22 23  2  0
 22 26  1  0
 23 24  1  0
 24 25  1  0
 26 25  2  0
 27 20  1  0
 28 27  1  0
 29 27  2  0
M  END
$$$$
