PFH.pdb
     RDKit          3D

 29 31  0  0  1  0  0  0  0  0999 V2000
    7.2696  -16.0405   19.7211 N   0  0  0  0  0  0  0  0  0  0  0  0
    6.9376  -15.6273   18.3792 C   0  0  0  0  0  0  0  0  0  0  0  0
    7.7861  -14.4201   18.0692 C   0  0  0  0  0  0  0  0  0  0  0  0
    8.9276  -14.4806   19.0399 C   0  0  0  0  0  0  0  0  0  0  0  0
    8.6123  -15.6000   19.9885 C   0  0  1  0  0  0  0  0  0  0  0  0
    8.8035  -15.2103   21.4106 C   0  0  0  0  0  0  0  0  0  0  0  0
    9.9667  -15.0813   21.8464 O   0  0  0  0  0  0  0  0  0  0  0  0
    7.7271  -14.9749   22.3073 N   0  0  0  0  0  0  0  0  0  0  0  0
    7.9089  -14.5942   23.6978 C   0  0  1  0  0  0  0  0  0  0  0  0
    7.1396  -13.3894   24.0556 C   0  0  0  0  0  0  0  0  0  0  0  0
    7.2149  -12.8858   25.4161 C   0  0  0  0  0  0  0  0  0  0  0  0
    8.2841  -12.2083   25.9442 C   0  0  0  0  0  0  0  0  0  0  0  0
    8.2492  -11.7602   27.2381 C   0  0  0  0  0  0  0  0  0  0  0  0
    7.1531  -11.9715   28.0443 C   0  0  0  0  0  0  0  0  0  0  0  0
    6.0634  -12.6489   27.5424 C   0  0  0  0  0  0  0  0  0  0  0  0
    6.1184  -13.0911   26.2396 C   0  0  0  0  0  0  0  0  0  0  0  0
    7.5820  -15.7096   24.6169 C   0  0  0  0  0  0  0  0  0  0  0  0
    6.5565  -16.3917   24.3707 O   0  0  0  0  0  0  0  0  0  0  0  0
    8.3692  -16.0319   25.7457 N   0  0  0  0  0  0  0  0  0  0  0  0
    8.9804  -17.3660   25.8116 C   0  0  1  0  0  0  0  0  0  0  0  0
    9.8111  -17.6106   24.5968 C   0  0  0  0  0  0  0  0  0  0  0  0
   10.4712  -18.9284   24.6600 C   0  0  0  0  0  0  0  0  0  0  0  0
   10.3384  -19.8565   25.7187 C   0  0  0  0  0  0  0  0  0  0  0  0
   11.0714  -20.9453   25.4519 N   0  0  0  0  0  0  0  0  0  0  0  0
   11.6660  -20.7592   24.2753 C   0  0  0  0  0  0  0  0  0  0  0  0
   11.3030  -19.5680   23.8219 N   0  0  0  0  0  0  0  0  0  0  0  0
    9.8055  -17.3574   27.0277 C   0  0  0  0  0  0  0  0  0  0  0  0
    9.6360  -18.3391   27.9897 O   0  0  0  0  0  0  0  0  0  0  0  0
   10.6654  -16.4867   27.2298 O   0  0  0  0  0  0  0  0  0  0  0  0
  1  5  1  0
  2  1  1  0
  3  2  1  0
  3  4  1  0
  5  4  1  0
  6  7  2  0
  5  6  1  1
  8  6  1  0
  9  8  1  0
  9 10  1  1
 11 10  1  0
 12 11  2  0
 13 12  1  0
 14 15  1  0
 14 13  2  0
 15 16  2  0
 16 11  1  0
 17  9  1  0
 17 18  2  0
 19 20  1  0
 19 17  1  0
 20 21  1  6
 21 22  1  0
 22 23  2  0
 22 26  1  0
 23 24  1  0
 24 25  1  0
 26 25  2  0
 27 20  1  0
 28 27  1  0
 29 27  2  0
M  END
$$$$
