PFH.pdb
     RDKit          3D

 29 31  0  0  1  0  0  0  0  0999 V2000
    7.6845  -15.3625   19.1632 N   0  0  0  0  0  0  0  0  0  0  0  0
    7.1496  -14.8423   17.9283 C   0  0  0  0  0  0  0  0  0  0  0  0
    7.5795  -13.4000   17.8371 C   0  0  0  0  0  0  0  0  0  0  0  0
    8.7548  -13.2796   18.7607 C   0  0  0  0  0  0  0  0  0  0  0  0
    8.8531  -14.5892   19.4870 C   0  0  1  0  0  0  0  0  0  0  0  0
    9.0227  -14.4138   20.9538 C   0  0  0  0  0  0  0  0  0  0  0  0
   10.0983  -13.9454   21.3819 O   0  0  0  0  0  0  0  0  0  0  0  0
    8.0204  -14.7526   21.9018 N   0  0  0  0  0  0  0  0  0  0  0  0
    8.1375  -14.4837   23.3250 C   0  0  1  0  0  0  0  0  0  0  0  0
    6.8970  -13.9299   23.8959 C   0  0  0  0  0  0  0  0  0  0  0  0
    6.9134  -13.4293   25.2595 C   0  0  0  0  0  0  0  0  0  0  0  0
    6.4810  -14.1282   26.3575 C   0  0  0  0  0  0  0  0  0  0  0  0
    6.5538  -13.5701   27.6062 C   0  0  0  0  0  0  0  0  0  0  0  0
    7.0573  -12.3034   27.8009 C   0  0  0  0  0  0  0  0  0  0  0  0
    7.4996  -11.5762   26.7175 C   0  0  0  0  0  0  0  0  0  0  0  0
    7.4179  -12.1551   25.4709 C   0  0  0  0  0  0  0  0  0  0  0  0
    8.5603  -15.6892   24.0758 C   0  0  0  0  0  0  0  0  0  0  0  0
    7.8048  -16.6922   24.0495 O   0  0  0  0  0  0  0  0  0  0  0  0
    9.7657  -15.7537   24.8113 N   0  0  0  0  0  0  0  0  0  0  0  0
   10.1237  -17.0255   25.4530 C   0  0  1  0  0  0  0  0  0  0  0  0
   11.5611  -17.3386   25.2056 C   0  0  0  0  0  0  0  0  0  0  0  0
   11.7903  -17.7088   23.7961 C   0  0  0  0  0  0  0  0  0  0  0  0
   10.7804  -17.8518   22.8166 C   0  0  0  0  0  0  0  0  0  0  0  0
   11.3380  -18.1945   21.6479 N   0  0  0  0  0  0  0  0  0  0  0  0
   12.6539  -18.2775   21.8319 C   0  0  0  0  0  0  0  0  0  0  0  0
   12.9045  -17.9890   23.1009 N   0  0  0  0  0  0  0  0  0  0  0  0
    9.8611  -16.8271   26.8854 C   0  0  0  0  0  0  0  0  0  0  0  0
    9.3716  -15.6142   27.3408 O   0  0  0  0  0  0  0  0  0  0  0  0
   10.0652  -17.7225   27.7190 O   0  0  0  0  0  0  0  0  0  0  0  0
  1  5  1  0
  2  1  1  0
  3  2  1  0
  3  4  1  0
  5  4  1  0
  6  7  2  0
  5  6  1  1
  8  6  1  0
  9  8  1  0
  9 10  1  1
 11 10  1  0
 12 11  2  0
 13 12  1  0
 14 15  1  0
 14 13  2  0
 15 16  2  0
 16 11  1  0
 17  9  1  0
 17 18  2  0
 19 20  1  0
 19 17  1  0
 20 21  1  1
 21 22  1  0
 22 23  2  0
 22 26  1  0
 23 24  1  0
 24 25  1  0
 26 25  2  0
 27 20  1  0
 28 27  1  0
 29 27  2  0
M  END
$$$$
