PFH.pdb
     RDKit          3D

 29 31  0  0  1  0  0  0  0  0999 V2000
    7.6939  -15.2976   19.0107 N   0  0  0  0  0  0  0  0  0  0  0  0
    7.1516  -14.7839   17.7764 C   0  0  0  0  0  0  0  0  0  0  0  0
    7.5598  -13.3351   17.6871 C   0  0  0  0  0  0  0  0  0  0  0  0
    8.7330  -13.1984   18.6111 C   0  0  0  0  0  0  0  0  0  0  0  0
    8.8507  -14.5073   19.3358 C   0  0  1  0  0  0  0  0  0  0  0  0
    9.0173  -14.3313   20.8029 C   0  0  0  0  0  0  0  0  0  0  0  0
   10.1429  -14.0215   21.2462 O   0  0  0  0  0  0  0  0  0  0  0  0
    7.9579  -14.4977   21.7346 N   0  0  0  0  0  0  0  0  0  0  0  0
    8.1081  -14.2956   23.1657 C   0  0  1  0  0  0  0  0  0  0  0  0
    6.9106  -13.6921   23.7765 C   0  0  0  0  0  0  0  0  0  0  0  0
    6.9999  -13.1669   25.1280 C   0  0  0  0  0  0  0  0  0  0  0  0
    7.6877  -12.0357   25.4866 C   0  0  0  0  0  0  0  0  0  0  0  0
    7.6967  -11.6150   26.7901 C   0  0  0  0  0  0  0  0  0  0  0  0
    7.0240  -12.3044   27.7742 C   0  0  0  0  0  0  0  0  0  0  0  0
    6.3240  -13.4444   27.4452 C   0  0  0  0  0  0  0  0  0  0  0  0
    6.3274  -13.8505   26.1295 C   0  0  0  0  0  0  0  0  0  0  0  0
    8.4655  -15.5546   23.8607 C   0  0  0  0  0  0  0  0  0  0  0  0
    7.7767  -16.5760   23.6164 O   0  0  0  0  0  0  0  0  0  0  0  0
    9.5381  -15.6498   24.7764 N   0  0  0  0  0  0  0  0  0  0  0  0
   10.0993  -16.9779   25.0572 C   0  0  1  0  0  0  0  0  0  0  0  0
   11.4659  -17.0924   24.4700 C   0  0  0  0  0  0  0  0  0  0  0  0
   12.0454  -18.4246   24.7263 C   0  0  0  0  0  0  0  0  0  0  0  0
   12.6526  -18.8299   25.9374 C   0  0  0  0  0  0  0  0  0  0  0  0
   13.0686  -20.0981   25.8252 N   0  0  0  0  0  0  0  0  0  0  0  0
   12.7574  -20.5235   24.6026 C   0  0  0  0  0  0  0  0  0  0  0  0
   12.1559  -19.5275   23.9681 N   0  0  0  0  0  0  0  0  0  0  0  0
   10.1392  -17.0825   26.5226 C   0  0  0  0  0  0  0  0  0  0  0  0
   10.6752  -16.0532   27.2785 O   0  0  0  0  0  0  0  0  0  0  0  0
    9.7025  -18.0774   27.1206 O   0  0  0  0  0  0  0  0  0  0  0  0
  1  5  1  0
  2  1  1  0
  3  2  1  0
  3  4  1  0
  5  4  1  0
  6  7  2  0
  5  6  1  1
  8  6  1  0
  9  8  1  0
  9 10  1  1
 11 10  1  0
 12 11  2  0
 13 12  1  0
 14 15  1  0
 14 13  2  0
 15 16  2  0
 16 11  1  0
 17  9  1  0
 17 18  2  0
 19 20  1  0
 19 17  1  0
 20 21  1  1
 21 22  1  0
 22 23  2  0
 22 26  1  0
 23 24  1  0
 24 25  1  0
 26 25  2  0
 27 20  1  0
 28 27  1  0
 29 27  2  0
M  END
$$$$
