PFH.pdb
     RDKit          3D

 29 31  0  0  1  0  0  0  0  0999 V2000
    7.4910  -15.3319   19.1914 N   0  0  0  0  0  0  0  0  0  0  0  0
    6.9769  -14.7018   17.9996 C   0  0  0  0  0  0  0  0  0  0  0  0
    7.5740  -13.3185   17.9421 C   0  0  0  0  0  0  0  0  0  0  0  0
    8.7891  -13.3768   18.8190 C   0  0  0  0  0  0  0  0  0  0  0  0
    8.7557  -14.7172   19.4931 C   0  0  1  0  0  0  0  0  0  0  0  0
    9.0002  -14.6232   20.9568 C   0  0  0  0  0  0  0  0  0  0  0  0
   10.1441  -14.3201   21.3559 O   0  0  0  0  0  0  0  0  0  0  0  0
    7.9961  -14.8611   21.9331 N   0  0  0  0  0  0  0  0  0  0  0  0
    8.1642  -14.5667   23.3461 C   0  0  1  0  0  0  0  0  0  0  0  0
    6.9416  -14.0122   23.9536 C   0  0  0  0  0  0  0  0  0  0  0  0
    7.0361  -13.3485   25.2424 C   0  0  0  0  0  0  0  0  0  0  0  0
    6.2982  -13.6777   26.3507 C   0  0  0  0  0  0  0  0  0  0  0  0
    6.4746  -12.9979   27.5267 C   0  0  0  0  0  0  0  0  0  0  0  0
    7.3875  -11.9729   27.6364 C   0  0  0  0  0  0  0  0  0  0  0  0
    8.1437  -11.6190   26.5405 C   0  0  0  0  0  0  0  0  0  0  0  0
    7.9514  -12.3145   25.3679 C   0  0  0  0  0  0  0  0  0  0  0  0
    8.6244  -15.7558   24.1010 C   0  0  0  0  0  0  0  0  0  0  0  0
    7.9191  -16.7937   24.0485 O   0  0  0  0  0  0  0  0  0  0  0  0
    9.8114  -15.7676   24.8683 N   0  0  0  0  0  0  0  0  0  0  0  0
   10.2099  -17.0239   25.5169 C   0  0  1  0  0  0  0  0  0  0  0  0
   11.6899  -17.1948   25.4392 C   0  0  0  0  0  0  0  0  0  0  0  0
   12.1246  -17.4448   24.0518 C   0  0  0  0  0  0  0  0  0  0  0  0
   11.2607  -17.6212   22.9463 C   0  0  0  0  0  0  0  0  0  0  0  0
   11.9877  -17.8274   21.8404 N   0  0  0  0  0  0  0  0  0  0  0  0
   13.2734  -17.7915   22.1843 C   0  0  0  0  0  0  0  0  0  0  0  0
   13.3377  -17.5655   23.4886 N   0  0  0  0  0  0  0  0  0  0  0  0
    9.7607  -16.9027   26.9110 C   0  0  0  0  0  0  0  0  0  0  0  0
    9.4813  -15.6558   27.4453 O   0  0  0  0  0  0  0  0  0  0  0  0
    9.6194  -17.8943   27.6424 O   0  0  0  0  0  0  0  0  0  0  0  0
  1  5  1  0
  2  1  1  0
  3  2  1  0
  3  4  1  0
  5  4  1  0
  6  7  2  0
  5  6  1  1
  8  6  1  0
  9  8  1  0
  9 10  1  1
 11 10  1  0
 12 11  2  0
 13 12  1  0
 14 15  1  0
 14 13  2  0
 15 16  2  0
 16 11  1  0
 17  9  1  0
 17 18  2  0
 19 20  1  0
 19 17  1  0
 20 21  1  1
 21 22  1  0
 22 23  2  0
 22 26  1  0
 23 24  1  0
 24 25  1  0
 26 25  2  0
 27 20  1  0
 28 27  1  0
 29 27  2  0
M  END
$$$$
