PFH.pdb
     RDKit          3D

 29 31  0  0  1  0  0  0  0  0999 V2000
    7.3807  -15.2244   19.0579 N   0  0  0  0  0  0  0  0  0  0  0  0
    6.8391  -14.7395   17.8117 C   0  0  0  0  0  0  0  0  0  0  0  0
    7.3029  -13.3132   17.6571 C   0  0  0  0  0  0  0  0  0  0  0  0
    8.4956  -13.1866   18.5574 C   0  0  0  0  0  0  0  0  0  0  0  0
    8.5731  -14.4689   19.3332 C   0  0  1  0  0  0  0  0  0  0  0  0
    8.7706  -14.2408   20.7892 C   0  0  0  0  0  0  0  0  0  0  0  0
    9.8726  -13.8064   21.1846 O   0  0  0  0  0  0  0  0  0  0  0  0
    7.7665  -14.4920   21.7622 N   0  0  0  0  0  0  0  0  0  0  0  0
    7.9703  -14.3166   23.1903 C   0  0  1  0  0  0  0  0  0  0  0  0
    6.7224  -13.9825   23.8989 C   0  0  0  0  0  0  0  0  0  0  0  0
    6.8019  -13.4389   25.2437 C   0  0  0  0  0  0  0  0  0  0  0  0
    6.9091  -12.1054   25.5462 C   0  0  0  0  0  0  0  0  0  0  0  0
    6.9616  -11.6936   26.8515 C   0  0  0  0  0  0  0  0  0  0  0  0
    6.9093  -12.5927   27.8932 C   0  0  0  0  0  0  0  0  0  0  0  0
    6.8015  -13.9390   27.6213 C   0  0  0  0  0  0  0  0  0  0  0  0
    6.7502  -14.3323   26.3029 C   0  0  0  0  0  0  0  0  0  0  0  0
    8.6105  -15.5054   23.8008 C   0  0  0  0  0  0  0  0  0  0  0  0
    8.0571  -16.6206   23.6345 O   0  0  0  0  0  0  0  0  0  0  0  0
    9.8048  -15.4343   24.5536 N   0  0  0  0  0  0  0  0  0  0  0  0
   10.5886  -16.6632   24.7352 C   0  0  1  0  0  0  0  0  0  0  0  0
   12.0267  -16.4039   24.4351 C   0  0  0  0  0  0  0  0  0  0  0  0
   12.8184  -17.6464   24.5097 C   0  0  0  0  0  0  0  0  0  0  0  0
   12.3138  -18.9129   24.8853 C   0  0  0  0  0  0  0  0  0  0  0  0
   13.3017  -19.8165   24.8452 N   0  0  0  0  0  0  0  0  0  0  0  0
   14.4127  -19.1904   24.4626 C   0  0  0  0  0  0  0  0  0  0  0  0
   14.1122  -17.9142   24.2690 N   0  0  0  0  0  0  0  0  0  0  0  0
   10.3986  -17.0424   26.1424 C   0  0  0  0  0  0  0  0  0  0  0  0
    9.5467  -16.3087   26.9511 O   0  0  0  0  0  0  0  0  0  0  0  0
   10.9840  -18.0142   26.6438 O   0  0  0  0  0  0  0  0  0  0  0  0
  1  5  1  0
  2  1  1  0
  3  2  1  0
  3  4  1  0
  5  4  1  0
  6  7  2  0
  5  6  1  1
  8  6  1  0
  9  8  1  0
  9 10  1  1
 11 10  1  0
 12 11  2  0
 13 12  1  0
 14 15  1  0
 14 13  2  0
 15 16  2  0
 16 11  1  0
 17  9  1  0
 17 18  2  0
 19 20  1  0
 19 17  1  0
 20 21  1  1
 21 22  1  0
 22 23  2  0
 22 26  1  0
 23 24  1  0
 24 25  1  0
 26 25  2  0
 27 20  1  0
 28 27  1  0
 29 27  2  0
M  END
$$$$
