PFH.pdb
     RDKit          3D

 29 31  0  0  1  0  0  0  0  0999 V2000
    7.8531  -17.6307   19.9081 N   0  0  0  0  0  0  0  0  0  0  0  0
    7.3419  -17.7050   18.5610 C   0  0  0  0  0  0  0  0  0  0  0  0
    7.7127  -16.4124   17.8791 C   0  0  0  0  0  0  0  0  0  0  0  0
    8.8475  -15.8531   18.6844 C   0  0  0  0  0  0  0  0  0  0  0  0
    8.9751  -16.7310   19.8949 C   0  0  1  0  0  0  0  0  0  0  0  0
    9.0835  -15.9489   21.1549 C   0  0  0  0  0  0  0  0  0  0  0  0
   10.0955  -15.2399   21.3360 O   0  0  0  0  0  0  0  0  0  0  0  0
    8.0913  -15.9644   22.1714 N   0  0  0  0  0  0  0  0  0  0  0  0
    8.2431  -15.2944   23.4519 C   0  0  1  0  0  0  0  0  0  0  0  0
    7.0622  -14.4879   23.8073 C   0  0  0  0  0  0  0  0  0  0  0  0
    7.1089  -13.6617   25.0012 C   0  0  0  0  0  0  0  0  0  0  0  0
    6.5791  -14.0094   26.2175 C   0  0  0  0  0  0  0  0  0  0  0  0
    6.6906  -13.1631   27.2887 C   0  0  0  0  0  0  0  0  0  0  0  0
    7.3306  -11.9484   27.1836 C   0  0  0  0  0  0  0  0  0  0  0  0
    7.8733  -11.5709   25.9748 C   0  0  0  0  0  0  0  0  0  0  0  0
    7.7505  -12.4358   24.9105 C   0  0  0  0  0  0  0  0  0  0  0  0
    8.5609  -16.2533   24.5360 C   0  0  0  0  0  0  0  0  0  0  0  0
    7.6835  -17.0950   24.8511 O   0  0  0  0  0  0  0  0  0  0  0  0
    9.7974  -16.2579   25.2207 N   0  0  0  0  0  0  0  0  0  0  0  0
   10.0606  -17.3409   26.1774 C   0  0  1  0  0  0  0  0  0  0  0  0
   11.4743  -17.8013   26.0554 C   0  0  0  0  0  0  0  0  0  0  0  0
   11.6844  -18.5485   24.8009 C   0  0  0  0  0  0  0  0  0  0  0  0
   10.6644  -18.9282   23.8980 C   0  0  0  0  0  0  0  0  0  0  0  0
   11.2050  -19.5915   22.8676 N   0  0  0  0  0  0  0  0  0  0  0  0
   12.5198  -19.6545   23.0670 C   0  0  0  0  0  0  0  0  0  0  0  0
   12.7865  -19.0364   24.2087 N   0  0  0  0  0  0  0  0  0  0  0  0
    9.8021  -16.7615   27.5031 C   0  0  0  0  0  0  0  0  0  0  0  0
    9.8785  -17.5552   28.6355 O   0  0  0  0  0  0  0  0  0  0  0  0
    9.5122  -15.5645   27.6497 O   0  0  0  0  0  0  0  0  0  0  0  0
  1  5  1  0
  2  1  1  0
  3  2  1  0
  3  4  1  0
  5  4  1  0
  6  7  2  0
  5  6  1  1
  8  6  1  0
  9  8  1  0
  9 10  1  1
 11 10  1  0
 12 11  2  0
 13 12  1  0
 14 15  1  0
 14 13  2  0
 15 16  2  0
 16 11  1  0
 17  9  1  0
 17 18  2  0
 19 20  1  0
 19 17  1  0
 20 21  1  1
 21 22  1  0
 22 23  2  0
 22 26  1  0
 23 24  1  0
 24 25  1  0
 26 25  2  0
 27 20  1  0
 28 27  1  0
 29 27  2  0
M  END
$$$$
