PFH.pdb
     RDKit          3D

 29 31  0  0  1  0  0  0  0  0999 V2000
    7.5014  -14.6458   20.5376 N   0  0  0  0  0  0  0  0  0  0  0  0
    6.7936  -13.7750   19.6308 C   0  0  0  0  0  0  0  0  0  0  0  0
    7.3654  -12.3920   19.8145 C   0  0  0  0  0  0  0  0  0  0  0  0
    8.7093  -12.6017   20.4462 C   0  0  0  0  0  0  0  0  0  0  0  0
    8.7953  -14.0638   20.7733 C   0  0  1  0  0  0  0  0  0  0  0  0
    9.2782  -14.3087   22.1581 C   0  0  0  0  0  0  0  0  0  0  0  0
   10.4138  -13.8998   22.4788 O   0  0  0  0  0  0  0  0  0  0  0  0
    8.5125  -14.9874   23.1435 N   0  0  0  0  0  0  0  0  0  0  0  0
    8.9510  -15.1685   24.5171 C   0  0  1  0  0  0  0  0  0  0  0  0
    7.8262  -15.1801   25.4689 C   0  0  0  0  0  0  0  0  0  0  0  0
    7.2406  -13.9159   25.8802 C   0  0  0  0  0  0  0  0  0  0  0  0
    5.8954  -13.6738   25.9933 C   0  0  0  0  0  0  0  0  0  0  0  0
    5.4448  -12.4479   26.4058 C   0  0  0  0  0  0  0  0  0  0  0  0
    6.3158  -11.4278   26.7176 C   0  0  0  0  0  0  0  0  0  0  0  0
    7.6730  -11.6404   26.6139 C   0  0  0  0  0  0  0  0  0  0  0  0
    8.1054  -12.8795   26.1976 C   0  0  0  0  0  0  0  0  0  0  0  0
    9.7729  -16.3917   24.6714 C   0  0  0  0  0  0  0  0  0  0  0  0
    9.8140  -16.9324   25.8043 O   0  0  0  0  0  0  0  0  0  0  0  0
   10.5034  -16.9669   23.6067 N   0  0  0  0  0  0  0  0  0  0  0  0
   11.3759  -18.1120   23.8983 C   0  0  1  0  0  0  0  0  0  0  0  0
   11.7862  -18.7809   22.6295 C   0  0  0  0  0  0  0  0  0  0  0  0
   10.6120  -19.1238   21.8049 C   0  0  0  0  0  0  0  0  0  0  0  0
    9.3591  -19.5459   22.3065 C   0  0  0  0  0  0  0  0  0  0  0  0
    8.5229  -19.7722   21.2849 N   0  0  0  0  0  0  0  0  0  0  0  0
    9.1792  -19.5158   20.1553 C   0  0  0  0  0  0  0  0  0  0  0  0
   10.4071  -19.1354   20.4777 N   0  0  0  0  0  0  0  0  0  0  0  0
   12.5365  -17.5486   24.6023 C   0  0  0  0  0  0  0  0  0  0  0  0
   13.5639  -18.3769   25.0224 O   0  0  0  0  0  0  0  0  0  0  0  0
   12.6331  -16.3351   24.8396 O   0  0  0  0  0  0  0  0  0  0  0  0
  1  5  1  0
  2  1  1  0
  3  2  1  0
  3  4  1  0
  5  4  1  0
  6  7  2  0
  5  6  1  1
  8  6  1  0
  9  8  1  0
  9 10  1  1
 11 10  1  0
 12 11  2  0
 13 12  1  0
 14 15  1  0
 14 13  2  0
 15 16  2  0
 16 11  1  0
 17  9  1  0
 17 18  2  0
 19 20  1  0
 19 17  1  0
 20 21  1  6
 21 22  1  0
 22 23  2  0
 22 26  1  0
 23 24  1  0
 24 25  1  0
 26 25  2  0
 27 20  1  0
 28 27  1  0
 29 27  2  0
M  END
$$$$
