PFH.pdb
     RDKit          3D

 29 31  0  0  1  0  0  0  0  0999 V2000
    7.6484  -15.3548   19.2537 N   0  0  0  0  0  0  0  0  0  0  0  0
    7.0804  -14.8558   18.0248 C   0  0  0  0  0  0  0  0  0  0  0  0
    7.4874  -13.4086   17.9092 C   0  0  0  0  0  0  0  0  0  0  0  0
    8.6800  -13.2615   18.8066 C   0  0  0  0  0  0  0  0  0  0  0  0
    8.8122  -14.5615   19.5446 C   0  0  1  0  0  0  0  0  0  0  0  0
    9.0098  -14.3678   21.0055 C   0  0  0  0  0  0  0  0  0  0  0  0
   10.0943  -13.8964   21.4071 O   0  0  0  0  0  0  0  0  0  0  0  0
    8.0250  -14.6921   21.9765 N   0  0  0  0  0  0  0  0  0  0  0  0
    8.1761  -14.4191   23.3958 C   0  0  1  0  0  0  0  0  0  0  0  0
    6.9309  -13.9231   24.0080 C   0  0  0  0  0  0  0  0  0  0  0  0
    6.9714  -13.4118   25.3671 C   0  0  0  0  0  0  0  0  0  0  0  0
    6.3784  -14.0109   26.4491 C   0  0  0  0  0  0  0  0  0  0  0  0
    6.4891  -13.4542   27.6957 C   0  0  0  0  0  0  0  0  0  0  0  0
    7.1911  -12.2880   27.9041 C   0  0  0  0  0  0  0  0  0  0  0  0
    7.7980  -11.6627   26.8370 C   0  0  0  0  0  0  0  0  0  0  0  0
    7.6748  -12.2383   25.5923 C   0  0  0  0  0  0  0  0  0  0  0  0
    8.6779  -15.6045   24.1297 C   0  0  0  0  0  0  0  0  0  0  0  0
    7.9967  -16.6585   24.0786 O   0  0  0  0  0  0  0  0  0  0  0  0
    9.8784  -15.5957   24.8759 N   0  0  0  0  0  0  0  0  0  0  0  0
   10.2475  -16.8088   25.6173 C   0  0  1  0  0  0  0  0  0  0  0  0
   11.7245  -17.0122   25.5662 C   0  0  0  0  0  0  0  0  0  0  0  0
   12.1659  -17.3687   24.2045 C   0  0  0  0  0  0  0  0  0  0  0  0
   11.3233  -17.4604   23.0725 C   0  0  0  0  0  0  0  0  0  0  0  0
   12.0506  -17.8047   22.0018 N   0  0  0  0  0  0  0  0  0  0  0  0
   13.3161  -17.9377   22.3932 C   0  0  0  0  0  0  0  0  0  0  0  0
   13.3679  -17.6779   23.6918 N   0  0  0  0  0  0  0  0  0  0  0  0
    9.7892  -16.5786   26.9946 C   0  0  0  0  0  0  0  0  0  0  0  0
    9.9775  -17.5520   27.9616 O   0  0  0  0  0  0  0  0  0  0  0  0
    9.2289  -15.5245   27.3311 O   0  0  0  0  0  0  0  0  0  0  0  0
  1  5  1  0
  2  1  1  0
  3  2  1  0
  3  4  1  0
  5  4  1  0
  6  7  2  0
  5  6  1  1
  8  6  1  0
  9  8  1  0
  9 10  1  1
 11 10  1  0
 12 11  2  0
 13 12  1  0
 14 15  1  0
 14 13  2  0
 15 16  2  0
 16 11  1  0
 17  9  1  0
 17 18  2  0
 19 20  1  0
 19 17  1  0
 20 21  1  1
 21 22  1  0
 22 23  2  0
 22 26  1  0
 23 24  1  0
 24 25  1  0
 26 25  2  0
 27 20  1  0
 28 27  1  0
 29 27  2  0
M  END
$$$$
