PFH.pdb
     RDKit          3D

 29 31  0  0  1  0  0  0  0  0999 V2000
    7.3680  -15.3091   19.2102 N   0  0  0  0  0  0  0  0  0  0  0  0
    6.8268  -14.7199   18.0096 C   0  0  0  0  0  0  0  0  0  0  0  0
    7.3986  -13.3285   17.9073 C   0  0  0  0  0  0  0  0  0  0  0  0
    8.6263  -13.3425   18.7684 C   0  0  0  0  0  0  0  0  0  0  0  0
    8.6257  -14.6649   19.4779 C   0  0  1  0  0  0  0  0  0  0  0  0
    8.8883  -14.5278   20.9351 C   0  0  0  0  0  0  0  0  0  0  0  0
   10.0228  -14.1635   21.3088 O   0  0  0  0  0  0  0  0  0  0  0  0
    7.9117  -14.7907   21.9326 N   0  0  0  0  0  0  0  0  0  0  0  0
    8.1093  -14.5077   23.3442 C   0  0  1  0  0  0  0  0  0  0  0  0
    6.9207  -13.8989   23.9668 C   0  0  0  0  0  0  0  0  0  0  0  0
    7.0250  -13.3768   25.3184 C   0  0  0  0  0  0  0  0  0  0  0  0
    7.6245  -12.1908   25.6576 C   0  0  0  0  0  0  0  0  0  0  0  0
    7.6561  -11.7796   26.9637 C   0  0  0  0  0  0  0  0  0  0  0  0
    7.0940  -12.5332   27.9699 C   0  0  0  0  0  0  0  0  0  0  0  0
    6.4844  -13.7293   27.6608 C   0  0  0  0  0  0  0  0  0  0  0  0
    6.4633  -14.1247   26.3421 C   0  0  0  0  0  0  0  0  0  0  0  0
    8.5229  -15.7186   24.0915 C   0  0  0  0  0  0  0  0  0  0  0  0
    7.8030  -16.7432   23.9936 O   0  0  0  0  0  0  0  0  0  0  0  0
    9.6813  -15.7652   24.9000 N   0  0  0  0  0  0  0  0  0  0  0  0
   10.0516  -17.0469   25.5145 C   0  0  1  0  0  0  0  0  0  0  0  0
   11.5111  -17.2991   25.3362 C   0  0  0  0  0  0  0  0  0  0  0  0
   11.8292  -17.6113   23.9299 C   0  0  0  0  0  0  0  0  0  0  0  0
   10.8783  -17.9002   22.9240 C   0  0  0  0  0  0  0  0  0  0  0  0
   11.5105  -18.1362   21.7670 N   0  0  0  0  0  0  0  0  0  0  0  0
   12.8183  -18.0125   21.9836 C   0  0  0  0  0  0  0  0  0  0  0  0
   12.9900  -17.7034   23.2608 N   0  0  0  0  0  0  0  0  0  0  0  0
    9.7046  -16.9123   26.9364 C   0  0  0  0  0  0  0  0  0  0  0  0
    9.9046  -17.9731   27.8041 O   0  0  0  0  0  0  0  0  0  0  0  0
    9.2298  -15.8638   27.3984 O   0  0  0  0  0  0  0  0  0  0  0  0
  1  5  1  0
  2  1  1  0
  3  2  1  0
  3  4  1  0
  5  4  1  0
  6  7  2  0
  5  6  1  1
  8  6  1  0
  9  8  1  0
  9 10  1  1
 11 10  1  0
 12 11  2  0
 13 12  1  0
 14 15  1  0
 14 13  2  0
 15 16  2  0
 16 11  1  0
 17  9  1  0
 17 18  2  0
 19 20  1  0
 19 17  1  0
 20 21  1  1
 21 22  1  0
 22 23  2  0
 22 26  1  0
 23 24  1  0
 24 25  1  0
 26 25  2  0
 27 20  1  0
 28 27  1  0
 29 27  2  0
M  END
$$$$
