DEM.pdb
     RDKit          3D

 26 25  0  0  1  0  0  0  0  0999 V2000
    9.4931  -16.0950   18.8335 N   0  0  0  0  0  0  0  0  0  0  0  0
    8.1701  -16.0261   19.4388 C   0  0  1  0  0  0  0  0  0  0  0  0
    7.2408  -16.7951   18.5048 C   0  0  0  0  0  0  0  0  0  0  0  0
    7.8081  -16.6925   17.1364 C   0  0  0  0  0  0  0  0  0  0  0  0
    8.9356  -16.1869   16.9136 O   0  0  0  0  0  0  0  0  0  0  0  0
    8.1884  -16.6325   20.7999 C   0  0  0  0  0  0  0  0  0  0  0  0
    7.1369  -16.6006   21.4853 O   0  0  0  0  0  0  0  0  0  0  0  0
    7.0651  -17.1709   16.0816 O   0  0  0  0  0  0  0  0  0  0  0  0
    9.3711  -17.2315   21.3055 N   0  0  0  0  0  0  0  0  0  0  0  0
    9.3902  -17.9040   22.6357 C   0  0  1  0  0  0  0  0  0  0  0  0
   10.5328  -18.8629   22.6539 C   0  0  0  0  0  0  0  0  0  0  0  0
   10.7908  -19.5918   23.9229 C   0  0  0  0  0  0  0  0  0  0  0  0
   11.9282  -20.5288   23.8975 C   0  0  0  0  0  0  0  0  0  0  0  0
   12.7609  -20.4986   24.8248 O   0  0  0  0  0  0  0  0  0  0  0  0
    9.4995  -16.8110   23.6351 C   0  0  0  0  0  0  0  0  0  0  0  0
   10.4218  -15.9193   23.5280 O   0  0  0  0  0  0  0  0  0  0  0  0
   12.0632  -21.4192   22.8638 O   0  0  0  0  0  0  0  0  0  0  0  0
    6.9275  -10.6476   25.9268 C   0  0  0  0  0  0  0  0  0  0  0  0
    6.5314  -12.4075   26.1174 S   0  0  0  0  0  0  0  0  0  0  0  0
    8.0790  -13.3365   25.8012 C   0  0  0  0  0  0  0  0  0  0  0  0
    7.7732  -14.7804   26.0660 C   0  0  0  0  0  0  0  0  0  0  0  0
    8.9612  -15.6314   25.7875 C   0  0  2  0  0  0  0  0  0  0  0  0
    8.6521  -16.6301   24.7518 N   0  0  0  0  0  0  0  0  0  0  0  0
    9.3621  -16.3708   27.0010 C   0  0  0  0  0  0  0  0  0  0  0  0
    9.9127  -15.7002   28.0979 O   0  0  0  0  0  0  0  0  0  0  0  0
    9.2439  -17.6157   27.1364 O   0  0  0  0  0  0  0  0  0  0  0  0
  2  6  1  0
  2  3  1  0
  2  1  1  6
  3  4  1  0
  4  8  1  0
  4  5  2  0
  6  7  2  0
  9 10  1  0
  9  6  1  0
 10 11  1  6
 12 11  1  0
 12 13  1  0
 13 14  2  0
 15 16  2  0
 15 10  1  0
 17 13  1  0
 18 19  1  0
 20 21  1  0
 20 19  1  0
 22 21  1  1
 22 23  1  0
 22 24  1  0
 23 15  1  0
 24 25  1  0
 26 24  2  0
M  END
$$$$
