DEM.pdb
     RDKit          3D

 26 25  0  0  1  0  0  0  0  0999 V2000
    9.2807  -12.8466   18.6326 N   0  0  0  0  0  0  0  0  0  0  0  0
    7.9145  -13.2945   18.8657 C   0  0  1  0  0  0  0  0  0  0  0  0
    7.3852  -13.7505   17.5096 C   0  0  0  0  0  0  0  0  0  0  0  0
    8.3145  -14.7911   17.0012 C   0  0  0  0  0  0  0  0  0  0  0  0
    9.4008  -15.0572   17.5718 O   0  0  0  0  0  0  0  0  0  0  0  0
    7.8940  -14.4091   19.8546 C   0  0  0  0  0  0  0  0  0  0  0  0
    6.8013  -14.9800   20.0928 O   0  0  0  0  0  0  0  0  0  0  0  0
    7.9645  -15.4831   15.8645 O   0  0  0  0  0  0  0  0  0  0  0  0
    9.0861  -14.8125   20.5099 N   0  0  0  0  0  0  0  0  0  0  0  0
    9.0866  -15.9296   21.4969 C   0  0  1  0  0  0  0  0  0  0  0  0
   10.2250  -16.8365   21.1698 C   0  0  0  0  0  0  0  0  0  0  0  0
   10.0966  -17.6799   19.9531 C   0  0  0  0  0  0  0  0  0  0  0  0
   11.2483  -18.5517   19.6600 C   0  0  0  0  0  0  0  0  0  0  0  0
   12.2813  -18.0506   19.1740 O   0  0  0  0  0  0  0  0  0  0  0  0
    9.1884  -15.2849   22.8308 C   0  0  0  0  0  0  0  0  0  0  0  0
    9.5648  -14.0583   22.9353 O   0  0  0  0  0  0  0  0  0  0  0  0
   11.1776  -19.8959   19.9202 O   0  0  0  0  0  0  0  0  0  0  0  0
    5.9506  -11.3560   27.8846 C   0  0  0  0  0  0  0  0  0  0  0  0
    6.1287  -12.2610   26.3226 S   0  0  0  0  0  0  0  0  0  0  0  0
    7.5170  -13.4362   26.5461 C   0  0  0  0  0  0  0  0  0  0  0  0
    7.7116  -14.1243   25.2281 C   0  0  0  0  0  0  0  0  0  0  0  0
    8.8140  -15.1198   25.3101 C   0  0  2  0  0  0  0  0  0  0  0  0
    8.8975  -15.9042   24.0677 N   0  0  0  0  0  0  0  0  0  0  0  0
    8.5685  -16.0719   26.4116 C   0  0  0  0  0  0  0  0  0  0  0  0
    8.7008  -15.6722   27.7453 O   0  0  0  0  0  0  0  0  0  0  0  0
    8.2342  -17.2725   26.2413 O   0  0  0  0  0  0  0  0  0  0  0  0
  2  6  1  0
  2  3  1  0
  2  1  1  6
  3  4  1  0
  4  8  1  0
  4  5  2  0
  6  7  2  0
  9 10  1  0
  9  6  1  0
 10 11  1  6
 12 11  1  0
 12 13  1  0
 13 14  2  0
 15 16  2  0
 15 10  1  0
 17 13  1  0
 18 19  1  0
 20 21  1  0
 20 19  1  0
 22 21  1  6
 22 23  1  0
 22 24  1  0
 23 15  1  0
 24 25  1  0
 26 24  2  0
M  END
$$$$
