DEM.pdb
     RDKit          3D

 26 25  0  0  1  0  0  0  0  0999 V2000
    9.9012  -14.8768   17.9418 N   0  0  0  0  0  0  0  0  0  0  0  0
    8.6922  -14.2522   18.4610 C   0  0  1  0  0  0  0  0  0  0  0  0
    7.6446  -14.3860   17.3601 C   0  0  0  0  0  0  0  0  0  0  0  0
    8.3076  -14.0409   16.0770 C   0  0  0  0  0  0  0  0  0  0  0  0
    9.5501  -13.8856   15.9842 O   0  0  0  0  0  0  0  0  0  0  0  0
    8.2504  -14.9329   19.7108 C   0  0  0  0  0  0  0  0  0  0  0  0
    7.1980  -14.5372   20.2698 O   0  0  0  0  0  0  0  0  0  0  0  0
    7.5249  -13.8879   14.9556 O   0  0  0  0  0  0  0  0  0  0  0  0
    9.0062  -16.0043   20.2531 N   0  0  0  0  0  0  0  0  0  0  0  0
    8.5352  -16.7547   21.4519 C   0  0  1  0  0  0  0  0  0  0  0  0
    9.1638  -18.1074   21.4284 C   0  0  0  0  0  0  0  0  0  0  0  0
   10.2431  -18.3745   22.4142 C   0  0  0  0  0  0  0  0  0  0  0  0
   11.0241  -19.6030   22.1839 C   0  0  0  0  0  0  0  0  0  0  0  0
   12.2467  -19.5121   21.9575 O   0  0  0  0  0  0  0  0  0  0  0  0
    8.9235  -15.9255   22.6210 C   0  0  0  0  0  0  0  0  0  0  0  0
   10.0468  -15.2968   22.6305 O   0  0  0  0  0  0  0  0  0  0  0  0
   10.4075  -20.8270   22.2189 O   0  0  0  0  0  0  0  0  0  0  0  0
    6.4461  -10.7727   27.8349 C   0  0  0  0  0  0  0  0  0  0  0  0
    6.0743  -11.9580   26.5130 S   0  0  0  0  0  0  0  0  0  0  0  0
    7.6080  -12.9148   26.2120 C   0  0  0  0  0  0  0  0  0  0  0  0
    7.3127  -13.8515   25.0790 C   0  0  0  0  0  0  0  0  0  0  0  0
    8.4965  -14.6985   24.7720 C   0  0  2  0  0  0  0  0  0  0  0  0
    8.1497  -15.7372   23.7889 N   0  0  0  0  0  0  0  0  0  0  0  0
    8.9664  -15.3892   25.9894 C   0  0  0  0  0  0  0  0  0  0  0  0
    9.6451  -14.6892   26.9920 O   0  0  0  0  0  0  0  0  0  0  0  0
    8.7988  -16.6161   26.2101 O   0  0  0  0  0  0  0  0  0  0  0  0
  2  6  1  0
  2  3  1  0
  2  1  1  6
  3  4  1  0
  4  8  1  0
  4  5  2  0
  6  7  2  0
  9 10  1  0
  9  6  1  0
 10 11  1  1
 12 11  1  0
 12 13  1  0
 13 14  2  0
 15 16  2  0
 15 10  1  0
 17 13  1  0
 18 19  1  0
 20 21  1  0
 20 19  1  0
 22 21  1  1
 22 23  1  0
 22 24  1  0
 23 15  1  0
 24 25  1  0
 26 24  2  0
M  END
$$$$
