DEM.pdb
     RDKit          3D

 26 25  0  0  1  0  0  0  0  0999 V2000
    9.3077  -15.3308   18.5525 N   0  0  0  0  0  0  0  0  0  0  0  0
    8.4265  -14.2539   18.9827 C   0  0  1  0  0  0  0  0  0  0  0  0
    7.5196  -13.9533   17.7934 C   0  0  0  0  0  0  0  0  0  0  0  0
    8.3725  -13.9536   16.5779 C   0  0  0  0  0  0  0  0  0  0  0  0
    9.6002  -14.2135   16.6198 O   0  0  0  0  0  0  0  0  0  0  0  0
    7.6335  -14.6742   20.1722 C   0  0  0  0  0  0  0  0  0  0  0  0
    6.7743  -13.8820   20.6312 O   0  0  0  0  0  0  0  0  0  0  0  0
    7.7885  -13.6575   15.3676 O   0  0  0  0  0  0  0  0  0  0  0  0
    7.8487  -15.9432   20.7695 N   0  0  0  0  0  0  0  0  0  0  0  0
    6.9140  -16.4833   21.7973 C   0  0  1  0  0  0  0  0  0  0  0  0
    6.9295  -17.9719   21.7012 C   0  0  0  0  0  0  0  0  0  0  0  0
    6.0168  -18.7226   22.6021 C   0  0  0  0  0  0  0  0  0  0  0  0
    6.0131  -20.1860   22.4269 C   0  0  0  0  0  0  0  0  0  0  0  0
    5.2915  -20.8844   23.1657 O   0  0  0  0  0  0  0  0  0  0  0  0
    7.3994  -15.9543   23.0971 C   0  0  0  0  0  0  0  0  0  0  0  0
    6.7554  -16.2024   24.1838 O   0  0  0  0  0  0  0  0  0  0  0  0
    6.7961  -20.7655   21.4622 O   0  0  0  0  0  0  0  0  0  0  0  0
    6.4985  -11.0801   28.0791 C   0  0  0  0  0  0  0  0  0  0  0  0
    6.2747  -11.9188   26.4863 S   0  0  0  0  0  0  0  0  0  0  0  0
    7.7822  -12.9200   26.1978 C   0  0  0  0  0  0  0  0  0  0  0  0
    7.6172  -13.5648   24.8542 C   0  0  0  0  0  0  0  0  0  0  0  0
    8.7847  -14.4303   24.5370 C   0  0  2  0  0  0  0  0  0  0  0  0
    8.5585  -15.1668   23.2831 N   0  0  0  0  0  0  0  0  0  0  0  0
    8.9879  -15.4331   25.6015 C   0  0  0  0  0  0  0  0  0  0  0  0
    9.4804  -15.0557   26.8549 O   0  0  0  0  0  0  0  0  0  0  0  0
    8.7432  -16.6595   25.4675 O   0  0  0  0  0  0  0  0  0  0  0  0
  2  6  1  0
  2  3  1  0
  2  1  1  6
  3  4  1  0
  4  8  1  0
  4  5  2  0
  6  7  2  0
  9 10  1  0
  9  6  1  0
 10 11  1  1
 12 11  1  0
 12 13  1  0
 13 14  2  0
 15 16  2  0
 15 10  1  0
 17 13  1  0
 18 19  1  0
 20 21  1  0
 20 19  1  0
 22 21  1  1
 22 23  1  0
 22 24  1  0
 23 15  1  0
 24 25  1  0
 26 24  2  0
M  END
$$$$
