DEM.pdb
     RDKit          3D

 26 25  0  0  1  0  0  0  0  0999 V2000
    9.5985  -13.8436   18.8274 N   0  0  0  0  0  0  0  0  0  0  0  0
    8.2153  -14.2667   18.9985 C   0  0  1  0  0  0  0  0  0  0  0  0
    7.7984  -14.8864   17.6683 C   0  0  0  0  0  0  0  0  0  0  0  0
    8.1159  -13.9004   16.6043 C   0  0  0  0  0  0  0  0  0  0  0  0
    7.2866  -13.0408   16.2170 O   0  0  0  0  0  0  0  0  0  0  0  0
    8.1066  -15.2533   20.1100 C   0  0  0  0  0  0  0  0  0  0  0  0
    6.9793  -15.7399   20.3724 O   0  0  0  0  0  0  0  0  0  0  0  0
    9.3650  -13.9374   16.0284 O   0  0  0  0  0  0  0  0  0  0  0  0
    9.2552  -15.6309   20.8526 N   0  0  0  0  0  0  0  0  0  0  0  0
    9.1671  -16.6194   21.9649 C   0  0  1  0  0  0  0  0  0  0  0  0
   10.2860  -17.5936   21.8088 C   0  0  0  0  0  0  0  0  0  0  0  0
   10.0849  -18.7154   20.8553 C   0  0  0  0  0  0  0  0  0  0  0  0
   11.2074  -19.6641   20.7446 C   0  0  0  0  0  0  0  0  0  0  0  0
   12.1521  -19.5845   21.5542 O   0  0  0  0  0  0  0  0  0  0  0  0
    9.2280  -15.8209   23.2155 C   0  0  0  0  0  0  0  0  0  0  0  0
   10.3129  -15.2137   23.5494 O   0  0  0  0  0  0  0  0  0  0  0  0
   11.2067  -20.6190   19.7608 O   0  0  0  0  0  0  0  0  0  0  0  0
    6.9362  -10.5380   26.0344 C   0  0  0  0  0  0  0  0  0  0  0  0
    7.4335  -12.1445   26.7146 S   0  0  0  0  0  0  0  0  0  0  0  0
    6.7615  -13.4269   25.5912 C   0  0  0  0  0  0  0  0  0  0  0  0
    7.1677  -14.7522   26.1630 C   0  0  0  0  0  0  0  0  0  0  0  0
    8.4177  -15.2426   25.5227 C   0  0  2  0  0  0  0  0  0  0  0  0
    8.1643  -15.6412   24.1290 N   0  0  0  0  0  0  0  0  0  0  0  0
    8.9276  -16.4333   26.2314 C   0  0  0  0  0  0  0  0  0  0  0  0
    9.6113  -16.3053   27.4447 O   0  0  0  0  0  0  0  0  0  0  0  0
    8.7916  -17.6117   25.8132 O   0  0  0  0  0  0  0  0  0  0  0  0
  2  6  1  0
  2  3  1  0
  2  1  1  6
  3  4  1  0
  4  8  1  0
  4  5  2  0
  6  7  2  0
  9 10  1  0
  9  6  1  0
 10 11  1  1
 12 11  1  0
 12 13  1  0
 13 14  2  0
 15 16  2  0
 15 10  1  0
 17 13  1  0
 18 19  1  0
 20 21  1  0
 20 19  1  0
 22 21  1  1
 22 23  1  0
 22 24  1  0
 23 15  1  0
 24 25  1  0
 26 24  2  0
M  END
$$$$
