DEM.pdb
     RDKit          3D

 26 25  0  0  1  0  0  0  0  0999 V2000
    8.7966  -18.8553   17.6583 N   0  0  0  0  0  0  0  0  0  0  0  0
    8.9707  -17.5225   18.2193 C   0  0  1  0  0  0  0  0  0  0  0  0
    8.2722  -16.5673   17.2565 C   0  0  0  0  0  0  0  0  0  0  0  0
    9.0810  -16.5268   16.0118 C   0  0  0  0  0  0  0  0  0  0  0  0
   10.0968  -17.2463   15.8481 O   0  0  0  0  0  0  0  0  0  0  0  0
    8.3709  -17.4488   19.5814 C   0  0  0  0  0  0  0  0  0  0  0  0
    7.1517  -17.1673   19.6857 O   0  0  0  0  0  0  0  0  0  0  0  0
    8.6962  -15.6677   15.0081 O   0  0  0  0  0  0  0  0  0  0  0  0
    9.1647  -17.6922   20.7320 N   0  0  0  0  0  0  0  0  0  0  0  0
    8.5508  -17.8074   22.0854 C   0  0  1  0  0  0  0  0  0  0  0  0
    9.0353  -19.0737   22.7077 C   0  0  0  0  0  0  0  0  0  0  0  0
   10.5049  -19.2857   22.7659 C   0  0  0  0  0  0  0  0  0  0  0  0
   10.9450  -20.6923   22.7501 C   0  0  0  0  0  0  0  0  0  0  0  0
   10.5615  -21.4384   21.8278 O   0  0  0  0  0  0  0  0  0  0  0  0
    8.9566  -16.5791   22.8147 C   0  0  0  0  0  0  0  0  0  0  0  0
   10.1092  -16.0461   22.6037 O   0  0  0  0  0  0  0  0  0  0  0  0
   11.7651  -21.1678   23.7405 O   0  0  0  0  0  0  0  0  0  0  0  0
    6.5018  -11.0720   27.7660 C   0  0  0  0  0  0  0  0  0  0  0  0
    6.4308  -11.7459   26.0833 S   0  0  0  0  0  0  0  0  0  0  0  0
    7.5540  -13.1933   26.0440 C   0  0  0  0  0  0  0  0  0  0  0  0
    7.5432  -13.7054   24.6347 C   0  0  0  0  0  0  0  0  0  0  0  0
    8.6604  -14.6620   24.4120 C   0  0  2  0  0  0  0  0  0  0  0  0
    8.1703  -15.8901   23.7660 N   0  0  0  0  0  0  0  0  0  0  0  0
    9.2653  -15.0577   25.6994 C   0  0  0  0  0  0  0  0  0  0  0  0
    9.1978  -16.3819   26.1443 O   0  0  0  0  0  0  0  0  0  0  0  0
    9.8655  -14.2629   26.4676 O   0  0  0  0  0  0  0  0  0  0  0  0
  2  6  1  0
  2  3  1  0
  2  1  1  6
  3  4  1  0
  4  8  1  0
  4  5  2  0
  6  7  2  0
  9 10  1  0
  9  6  1  0
 10 11  1  1
 12 11  1  0
 12 13  1  0
 13 14  2  0
 15 16  2  0
 15 10  1  0
 17 13  1  0
 18 19  1  0
 20 21  1  0
 20 19  1  0
 22 21  1  1
 22 23  1  0
 22 24  1  0
 23 15  1  0
 24 25  1  0
 26 24  2  0
M  END
$$$$
