DEM.pdb
     RDKit          3D

 26 25  0  0  1  0  0  0  0  0999 V2000
    8.9561  -15.7094   18.2107 N   0  0  0  0  0  0  0  0  0  0  0  0
    8.8868  -14.8528   19.3867 C   0  0  1  0  0  0  0  0  0  0  0  0
    7.6192  -14.0197   19.2250 C   0  0  0  0  0  0  0  0  0  0  0  0
    7.7482  -13.2635   17.9536 C   0  0  0  0  0  0  0  0  0  0  0  0
    6.9371  -12.3640   17.6226 O   0  0  0  0  0  0  0  0  0  0  0  0
    8.8359  -15.6760   20.6277 C   0  0  0  0  0  0  0  0  0  0  0  0
    7.7266  -16.1305   21.0013 O   0  0  0  0  0  0  0  0  0  0  0  0
    8.7965  -13.5657   17.1150 O   0  0  0  0  0  0  0  0  0  0  0  0
   10.0181  -15.9375   21.3675 N   0  0  0  0  0  0  0  0  0  0  0  0
   10.0225  -16.9023   22.5038 C   0  0  1  0  0  0  0  0  0  0  0  0
   11.2002  -17.8035   22.3420 C   0  0  0  0  0  0  0  0  0  0  0  0
   11.1304  -18.8305   21.2703 C   0  0  0  0  0  0  0  0  0  0  0  0
   12.2941  -19.7301   21.1755 C   0  0  0  0  0  0  0  0  0  0  0  0
   12.8930  -20.0603   22.2179 O   0  0  0  0  0  0  0  0  0  0  0  0
   10.0590  -16.0714   23.7340 C   0  0  0  0  0  0  0  0  0  0  0  0
   10.7235  -14.9691   23.7572 O   0  0  0  0  0  0  0  0  0  0  0  0
   12.7076  -20.1936   19.9534 O   0  0  0  0  0  0  0  0  0  0  0  0
    7.0337  -10.9401   26.3664 C   0  0  0  0  0  0  0  0  0  0  0  0
    6.4392  -12.6159   26.7253 S   0  0  0  0  0  0  0  0  0  0  0  0
    7.9189  -13.6415   27.0672 C   0  0  0  0  0  0  0  0  0  0  0  0
    8.0749  -14.5702   25.9003 C   0  0  0  0  0  0  0  0  0  0  0  0
    9.3153  -15.3807   26.0328 C   0  0  2  0  0  0  0  0  0  0  0  0
    9.4041  -16.3732   24.9499 N   0  0  0  0  0  0  0  0  0  0  0  0
    9.3114  -16.1253   27.3078 C   0  0  0  0  0  0  0  0  0  0  0  0
    9.3315  -17.5237   27.3195 O   0  0  0  0  0  0  0  0  0  0  0  0
    9.2899  -15.5789   28.4405 O   0  0  0  0  0  0  0  0  0  0  0  0
  2  6  1  0
  2  3  1  0
  2  1  1  6
  3  4  1  0
  4  8  1  0
  4  5  2  0
  6  7  2  0
  9 10  1  0
  9  6  1  0
 10 11  1  6
 12 11  1  0
 12 13  1  0
 13 14  2  0
 15 16  2  0
 15 10  1  0
 17 13  1  0
 18 19  1  0
 20 21  1  0
 20 19  1  0
 22 21  1  6
 22 23  1  0
 22 24  1  0
 23 15  1  0
 24 25  1  0
 26 24  2  0
M  END
$$$$
