DEM.pdb
     RDKit          3D

 26 25  0  0  1  0  0  0  0  0999 V2000
    7.7313  -16.5629   18.2682 N   0  0  0  0  0  0  0  0  0  0  0  0
    8.5643  -15.7020   19.0966 C   0  0  1  0  0  0  0  0  0  0  0  0
    7.9055  -14.3263   19.0674 C   0  0  0  0  0  0  0  0  0  0  0  0
    8.1231  -13.7625   17.7110 C   0  0  0  0  0  0  0  0  0  0  0  0
    7.3690  -14.0313   16.7437 O   0  0  0  0  0  0  0  0  0  0  0  0
    8.6408  -16.2333   20.4867 C   0  0  0  0  0  0  0  0  0  0  0  0
    7.5810  -16.6120   21.0436 O   0  0  0  0  0  0  0  0  0  0  0  0
    9.1909  -12.9166   17.5167 O   0  0  0  0  0  0  0  0  0  0  0  0
    9.8866  -16.3073   21.1619 N   0  0  0  0  0  0  0  0  0  0  0  0
   10.0337  -17.0722   22.4328 C   0  0  1  0  0  0  0  0  0  0  0  0
   11.3335  -17.8028   22.3862 C   0  0  0  0  0  0  0  0  0  0  0  0
   11.6974  -18.6227   23.5709 C   0  0  0  0  0  0  0  0  0  0  0  0
   13.0067  -19.2958   23.4998 C   0  0  0  0  0  0  0  0  0  0  0  0
   13.3690  -20.0211   24.4469 O   0  0  0  0  0  0  0  0  0  0  0  0
    9.9432  -16.0640   23.5193 C   0  0  0  0  0  0  0  0  0  0  0  0
   10.6490  -14.9884   23.4715 O   0  0  0  0  0  0  0  0  0  0  0  0
   13.8112  -19.1217   22.4035 O   0  0  0  0  0  0  0  0  0  0  0  0
    6.4594  -11.3105   25.7982 C   0  0  0  0  0  0  0  0  0  0  0  0
    6.2651  -12.6420   27.0147 S   0  0  0  0  0  0  0  0  0  0  0  0
    7.8524  -13.5569   27.0574 C   0  0  0  0  0  0  0  0  0  0  0  0
    7.8861  -14.4132   25.8269 C   0  0  0  0  0  0  0  0  0  0  0  0
    9.1763  -15.1473   25.7297 C   0  0  2  0  0  0  0  0  0  0  0  0
    9.1178  -16.1592   24.6629 N   0  0  0  0  0  0  0  0  0  0  0  0
    9.4610  -15.8594   26.9915 C   0  0  0  0  0  0  0  0  0  0  0  0
    9.7887  -15.1529   28.1532 O   0  0  0  0  0  0  0  0  0  0  0  0
    9.4324  -17.1108   27.1139 O   0  0  0  0  0  0  0  0  0  0  0  0
  2  6  1  0
  2  3  1  0
  2  1  1  6
  3  4  1  0
  4  8  1  0
  4  5  2  0
  6  7  2  0
  9 10  1  0
  9  6  1  0
 10 11  1  6
 12 11  1  0
 12 13  1  0
 13 14  2  0
 15 16  2  0
 15 10  1  0
 17 13  1  0
 18 19  1  0
 20 21  1  0
 20 19  1  0
 22 21  1  1
 22 23  1  0
 22 24  1  0
 23 15  1  0
 24 25  1  0
 26 24  2  0
M  END
$$$$
