DEM.pdb
     RDKit          3D

 26 25  0  0  1  0  0  0  0  0999 V2000
    8.3448  -16.1291   18.4135 N   0  0  0  0  0  0  0  0  0  0  0  0
    8.7187  -15.2031   19.4738 C   0  0  1  0  0  0  0  0  0  0  0  0
    7.8991  -13.9388   19.2350 C   0  0  0  0  0  0  0  0  0  0  0  0
    8.2614  -13.4265   17.8892 C   0  0  0  0  0  0  0  0  0  0  0  0
    9.4473  -13.4026   17.4773 O   0  0  0  0  0  0  0  0  0  0  0  0
    8.4214  -15.7937   20.8092 C   0  0  0  0  0  0  0  0  0  0  0  0
    7.2392  -16.1284   21.0677 O   0  0  0  0  0  0  0  0  0  0  0  0
    7.2558  -12.9638   17.0717 O   0  0  0  0  0  0  0  0  0  0  0  0
    9.4556  -15.9718   21.7642 N   0  0  0  0  0  0  0  0  0  0  0  0
    9.2010  -16.6612   23.0611 C   0  0  1  0  0  0  0  0  0  0  0  0
    9.7152  -18.0574   22.9525 C   0  0  0  0  0  0  0  0  0  0  0  0
   10.0677  -18.5502   21.5957 C   0  0  0  0  0  0  0  0  0  0  0  0
   10.5448  -19.9431   21.5298 C   0  0  0  0  0  0  0  0  0  0  0  0
    9.8702  -20.8424   22.0688 O   0  0  0  0  0  0  0  0  0  0  0  0
    9.8866  -15.8407   24.0917 C   0  0  0  0  0  0  0  0  0  0  0  0
   10.5601  -14.7973   23.7528 O   0  0  0  0  0  0  0  0  0  0  0  0
   11.7168  -20.2392   20.8829 O   0  0  0  0  0  0  0  0  0  0  0  0
    6.7179  -11.1107   25.7813 C   0  0  0  0  0  0  0  0  0  0  0  0
    6.3727  -12.6040   26.7515 S   0  0  0  0  0  0  0  0  0  0  0  0
    7.9939  -13.3270   27.2068 C   0  0  0  0  0  0  0  0  0  0  0  0
    8.2868  -14.3928   26.1936 C   0  0  0  0  0  0  0  0  0  0  0  0
    9.6147  -15.0130   26.4487 C   0  0  2  0  0  0  0  0  0  0  0  0
    9.8772  -16.0918   25.4827 N   0  0  0  0  0  0  0  0  0  0  0  0
    9.6526  -15.6152   27.7962 C   0  0  0  0  0  0  0  0  0  0  0  0
   10.1974  -14.9150   28.8774 O   0  0  0  0  0  0  0  0  0  0  0  0
    9.2143  -16.7629   28.0656 O   0  0  0  0  0  0  0  0  0  0  0  0
  2  6  1  0
  2  3  1  0
  2  1  1  6
  3  4  1  0
  4  8  1  0
  4  5  2  0
  6  7  2  0
  9 10  1  0
  9  6  1  0
 10 11  1  6
 12 11  1  0
 12 13  1  0
 13 14  2  0
 15 16  2  0
 15 10  1  0
 17 13  1  0
 18 19  1  0
 20 21  1  0
 20 19  1  0
 22 21  1  6
 22 23  1  0
 22 24  1  0
 23 15  1  0
 24 25  1  0
 26 24  2  0
M  END
$$$$
