DEM.pdb
     RDKit          3D

 26 25  0  0  1  0  0  0  0  0999 V2000
    9.5899  -13.1725   18.5474 N   0  0  0  0  0  0  0  0  0  0  0  0
    8.2522  -13.3034   19.1083 C   0  0  1  0  0  0  0  0  0  0  0  0
    7.3382  -13.6504   17.9372 C   0  0  0  0  0  0  0  0  0  0  0  0
    8.1898  -14.2409   16.8737 C   0  0  0  0  0  0  0  0  0  0  0  0
    9.4185  -14.4441   17.0336 O   0  0  0  0  0  0  0  0  0  0  0  0
    8.2257  -14.3713   20.1472 C   0  0  0  0  0  0  0  0  0  0  0  0
    7.1435  -14.6062   20.7390 O   0  0  0  0  0  0  0  0  0  0  0  0
    7.6033  -14.5741   15.6743 O   0  0  0  0  0  0  0  0  0  0  0  0
    9.4008  -15.1037   20.4572 N   0  0  0  0  0  0  0  0  0  0  0  0
    9.3819  -16.2108   21.4552 C   0  0  1  0  0  0  0  0  0  0  0  0
   10.3848  -17.2317   21.0338 C   0  0  0  0  0  0  0  0  0  0  0  0
   10.6277  -18.3702   21.9574 C   0  0  0  0  0  0  0  0  0  0  0  0
   11.6051  -19.3697   21.4905 C   0  0  0  0  0  0  0  0  0  0  0  0
   11.1957  -20.3960   20.9132 O   0  0  0  0  0  0  0  0  0  0  0  0
    9.6771  -15.5746   22.7641 C   0  0  0  0  0  0  0  0  0  0  0  0
   10.1182  -14.3664   22.8173 O   0  0  0  0  0  0  0  0  0  0  0  0
   12.9459  -19.1674   21.6923 O   0  0  0  0  0  0  0  0  0  0  0  0
    6.6133  -11.4377   27.6368 C   0  0  0  0  0  0  0  0  0  0  0  0
    6.7837  -12.4123   26.1163 S   0  0  0  0  0  0  0  0  0  0  0  0
    8.1305  -13.6201   26.4089 C   0  0  0  0  0  0  0  0  0  0  0  0
    8.3370  -14.3521   25.1166 C   0  0  0  0  0  0  0  0  0  0  0  0
    9.4086  -15.3747   25.2546 C   0  0  2  0  0  0  0  0  0  0  0  0
    9.5144  -16.1832   24.0295 N   0  0  0  0  0  0  0  0  0  0  0  0
    9.0993  -16.3000   26.3628 C   0  0  0  0  0  0  0  0  0  0  0  0
    9.3984  -15.9572   27.6853 O   0  0  0  0  0  0  0  0  0  0  0  0
    8.5630  -17.4271   26.2081 O   0  0  0  0  0  0  0  0  0  0  0  0
  2  6  1  0
  2  3  1  0
  2  1  1  6
  3  4  1  0
  4  8  1  0
  4  5  2  0
  6  7  2  0
  9 10  1  0
  9  6  1  0
 10 11  1  6
 12 11  1  0
 12 13  1  0
 13 14  2  0
 15 16  2  0
 15 10  1  0
 17 13  1  0
 18 19  1  0
 20 21  1  0
 20 19  1  0
 22 21  1  6
 22 23  1  0
 22 24  1  0
 23 15  1  0
 24 25  1  0
 26 24  2  0
M  END
$$$$
