DEM.pdb
     RDKit          3D

 26 25  0  0  1  0  0  0  0  0999 V2000
   13.6811  -18.0857   21.9253 N   0  0  0  0  0  0  0  0  0  0  0  0
   13.0592  -16.7894   21.6924 C   0  0  1  0  0  0  0  0  0  0  0  0
   12.9185  -16.6571   20.1792 C   0  0  0  0  0  0  0  0  0  0  0  0
   14.2814  -16.4525   19.6263 C   0  0  0  0  0  0  0  0  0  0  0  0
   15.1811  -15.8523   20.2641 O   0  0  0  0  0  0  0  0  0  0  0  0
   11.7313  -16.7210   22.3651 C   0  0  0  0  0  0  0  0  0  0  0  0
   11.0414  -15.6810   22.2268 O   0  0  0  0  0  0  0  0  0  0  0  0
   14.5590  -16.9411   18.3702 O   0  0  0  0  0  0  0  0  0  0  0  0
   11.2615  -17.8101   23.1437 N   0  0  0  0  0  0  0  0  0  0  0  0
    9.9371  -17.7592   23.8260 C   0  0  1  0  0  0  0  0  0  0  0  0
    9.2736  -19.0836   23.6493 C   0  0  0  0  0  0  0  0  0  0  0  0
   10.1466  -20.2859   23.6288 C   0  0  0  0  0  0  0  0  0  0  0  0
    9.4565  -21.5683   23.4016 C   0  0  0  0  0  0  0  0  0  0  0  0
    9.3955  -22.0287   22.2446 O   0  0  0  0  0  0  0  0  0  0  0  0
   10.2285  -17.4105   25.2398 C   0  0  0  0  0  0  0  0  0  0  0  0
    9.3015  -17.4715   26.1310 O   0  0  0  0  0  0  0  0  0  0  0  0
    8.8904  -22.2408   24.4537 O   0  0  0  0  0  0  0  0  0  0  0  0
    8.7160  -12.8080   27.1616 C   0  0  0  0  0  0  0  0  0  0  0  0
   10.2906  -12.5991   28.0377 S   0  0  0  0  0  0  0  0  0  0  0  0
   10.9839  -14.2767   28.2895 C   0  0  0  0  0  0  0  0  0  0  0  0
   11.0018  -14.9387   26.9442 C   0  0  0  0  0  0  0  0  0  0  0  0
   11.5937  -16.3005   27.0338 C   0  0  2  0  0  0  0  0  0  0  0  0
   11.4837  -16.9995   25.7434 N   0  0  0  0  0  0  0  0  0  0  0  0
   10.8710  -17.1125   28.0330 C   0  0  0  0  0  0  0  0  0  0  0  0
    9.9959  -18.1272   27.6322 O   0  0  0  0  0  0  0  0  0  0  0  0
   10.9824  -16.9593   29.2764 O   0  0  0  0  0  0  0  0  0  0  0  0
  2  6  1  0
  2  3  1  0
  2  1  1  6
  3  4  1  0
  4  8  1  0
  4  5  2  0
  6  7  2  0
  9 10  1  0
  9  6  1  0
 10 11  1  1
 12 11  1  0
 12 13  1  0
 13 14  2  0
 15 16  2  0
 15 10  1  0
 17 13  1  0
 18 19  1  0
 20 21  1  0
 20 19  1  0
 22 21  1  6
 22 23  1  0
 22 24  1  0
 23 15  1  0
 24 25  1  0
 26 24  2  0
M  END
$$$$
