FTI.pdb
     RDKit          3D

 27 27  0  0  1  0  0  0  0  0999 V2000
    7.9124  -17.5660   18.9619 N   0  0  0  0  0  0  0  0  0  0  0  0
    8.0785  -16.5226   19.9134 C   0  0  1  0  0  0  0  0  0  0  0  0
    7.0345  -15.4565   19.6021 C   0  0  0  0  0  0  0  0  0  0  0  0
    7.3644  -14.2758   20.4389 C   0  0  0  0  0  0  0  0  0  0  0  0
    8.1186  -13.2154   19.9926 C   0  0  0  0  0  0  0  0  0  0  0  0
    8.3787  -12.1438   20.8332 C   0  0  0  0  0  0  0  0  0  0  0  0
    7.9100  -12.0800   22.1280 C   0  0  0  0  0  0  0  0  0  0  0  0
    7.1489  -13.1542   22.5711 C   0  0  0  0  0  0  0  0  0  0  0  0
    6.8747  -14.2441   21.7411 C   0  0  0  0  0  0  0  0  0  0  0  0
    8.0772  -16.8980   21.3266 C   0  0  0  0  0  0  0  0  0  0  0  0
    7.3408  -17.8876   21.6823 O   0  0  0  0  0  0  0  0  0  0  0  0
    9.0329  -19.2265   22.6665 C   0  0  0  0  0  0  0  0  0  0  0  0
    9.6581  -18.2440   23.5990 C   0  0  1  0  0  0  0  0  0  0  0  0
   10.9691  -18.0463   23.2079 O   0  0  0  0  0  0  0  0  0  0  0  0
    8.9641  -16.9135   23.6895 C   0  0  2  0  0  0  0  0  0  0  0  0
    8.7880  -16.3147   22.3795 N   0  0  0  0  0  0  0  0  0  0  0  0
    9.6494  -16.0205   24.6314 C   0  0  0  0  0  0  0  0  0  0  0  0
    9.9991  -14.8297   24.2863 O   0  0  0  0  0  0  0  0  0  0  0  0
    7.4748  -12.8668   26.1069 C   0  0  0  0  0  0  0  0  0  0  0  0
    8.7094  -13.7027   25.9210 C   0  0  0  0  0  0  0  0  0  0  0  0
    9.1513  -14.4391   27.1457 C   0  0  2  0  0  0  0  0  0  0  0  0
    9.3822  -13.3996   28.2200 C   0  0  0  0  0  0  0  0  0  0  0  0
   10.3730  -15.3187   26.9287 C   0  0  2  0  0  0  0  0  0  0  0  0
    9.9848  -16.3592   25.9712 N   0  0  0  0  0  0  0  0  0  0  0  0
   10.7285  -15.9182   28.2351 C   0  0  0  0  0  0  0  0  0  0  0  0
   10.1434  -16.9085   28.7462 O   0  0  0  0  0  0  0  0  0  0  0  0
   11.7786  -15.3531   28.9465 O   0  0  0  0  0  0  0  0  0  0  0  0
  2  3  1  0
  2  1  1  6
  4  9  2  0
  4  3  1  0
  5  4  1  0
  6  7  1  0
  6  5  2  0
  7  8  2  0
  8  9  1  0
 10  2  1  0
 11 10  2  0
 13 12  1  6
 14 13  1  0
 15 13  1  0
 15 16  1  6
 16 10  1  0
 17 18  2  0
 17 15  1  0
 19 20  1  0
 20 21  1  0
 21 23  1  0
 21 22  1  1
 23 24  1  6
 24 17  1  0
 25 23  1  0
 25 27  1  0
 26 25  2  0
M  END
$$$$
