FTI.pdb
     RDKit          3D

 27 27  0  0  1  0  0  0  0  0999 V2000
    5.4004  -17.1270   23.5204 N   0  0  0  0  0  0  0  0  0  0  0  0
    6.4257  -16.3022   24.0591 C   0  0  1  0  0  0  0  0  0  0  0  0
    5.9032  -15.7312   25.3722 C   0  0  0  0  0  0  0  0  0  0  0  0
    5.9707  -14.2531   25.2542 C   0  0  0  0  0  0  0  0  0  0  0  0
    6.8411  -13.5971   24.4149 C   0  0  0  0  0  0  0  0  0  0  0  0
    6.8397  -12.2118   24.3555 C   0  0  0  0  0  0  0  0  0  0  0  0
    5.9901  -11.4332   25.1120 C   0  0  0  0  0  0  0  0  0  0  0  0
    5.1139  -12.1030   25.9566 C   0  0  0  0  0  0  0  0  0  0  0  0
    5.0985  -13.4979   26.0322 C   0  0  0  0  0  0  0  0  0  0  0  0
    7.7542  -16.8949   24.2066 C   0  0  0  0  0  0  0  0  0  0  0  0
    7.8437  -18.0176   24.8228 O   0  0  0  0  0  0  0  0  0  0  0  0
   10.5392  -17.5357   21.4996 C   0  0  0  0  0  0  0  0  0  0  0  0
   11.1305  -16.9589   22.7420 C   0  0  1  0  0  0  0  0  0  0  0  0
   11.4442  -15.6344   22.5003 O   0  0  0  0  0  0  0  0  0  0  0  0
   10.2622  -17.0449   23.9662 C   0  0  2  0  0  0  0  0  0  0  0  0
    8.9805  -16.3975   23.7563 N   0  0  0  0  0  0  0  0  0  0  0  0
   10.9640  -16.5377   25.1513 C   0  0  0  0  0  0  0  0  0  0  0  0
   11.3456  -15.3095   25.2249 O   0  0  0  0  0  0  0  0  0  0  0  0
    9.7185  -13.4766   27.8828 C   0  0  0  0  0  0  0  0  0  0  0  0
   10.7768  -14.4090   27.3651 C   0  0  0  0  0  0  0  0  0  0  0  0
   10.8224  -15.7384   28.0492 C   0  0  2  0  0  0  0  0  0  0  0  0
   11.0360  -15.4641   29.5214 C   0  0  0  0  0  0  0  0  0  0  0  0
   11.8703  -16.6860   27.4859 C   0  0  2  0  0  0  0  0  0  0  0  0
   11.2824  -17.3148   26.2987 N   0  0  0  0  0  0  0  0  0  0  0  0
   12.1588  -17.7004   28.5251 C   0  0  0  0  0  0  0  0  0  0  0  0
   13.0655  -17.5934   29.3915 O   0  0  0  0  0  0  0  0  0  0  0  0
   11.3773  -18.8480   28.5493 O   0  0  0  0  0  0  0  0  0  0  0  0
  2  3  1  0
  2  1  1  1
  4  9  2  0
  4  3  1  0
  5  4  1  0
  6  7  1  0
  6  5  2  0
  7  8  2  0
  8  9  1  0
 10  2  1  0
 11 10  2  0
 13 12  1  6
 14 13  1  0
 15 13  1  0
 15 16  1  6
 16 10  1  0
 17 18  2  0
 17 15  1  0
 19 20  1  0
 20 21  1  0
 21 23  1  0
 21 22  1  1
 23 24  1  6
 24 17  1  0
 25 23  1  0
 25 27  1  0
 26 25  2  0
M  END
$$$$
