FTI.pdb
     RDKit          3D

 27 27  0  0  1  0  0  0  0  0999 V2000
    7.8829  -17.3741   18.9185 N   0  0  0  0  0  0  0  0  0  0  0  0
    8.0947  -16.3512   19.8832 C   0  0  1  0  0  0  0  0  0  0  0  0
    7.0623  -15.2611   19.6202 C   0  0  0  0  0  0  0  0  0  0  0  0
    7.4799  -14.0754   20.4094 C   0  0  0  0  0  0  0  0  0  0  0  0
    7.1620  -13.8953   21.7356 C   0  0  0  0  0  0  0  0  0  0  0  0
    7.5951  -12.7624   22.4074 C   0  0  0  0  0  0  0  0  0  0  0  0
    8.3484  -11.7786   21.8033 C   0  0  0  0  0  0  0  0  0  0  0  0
    8.6657  -11.9679   20.4642 C   0  0  0  0  0  0  0  0  0  0  0  0
    8.2397  -13.1018   19.7680 C   0  0  0  0  0  0  0  0  0  0  0  0
    8.1258  -16.7520   21.2890 C   0  0  0  0  0  0  0  0  0  0  0  0
    7.4215  -17.7670   21.6378 O   0  0  0  0  0  0  0  0  0  0  0  0
    9.4324  -19.0671   22.4704 C   0  0  0  0  0  0  0  0  0  0  0  0
    9.9891  -18.0438   23.4025 C   0  0  1  0  0  0  0  0  0  0  0  0
   11.2297  -17.6557   22.9320 O   0  0  0  0  0  0  0  0  0  0  0  0
    9.1333  -16.8240   23.6021 C   0  0  2  0  0  0  0  0  0  0  0  0
    8.8378  -16.1690   22.3413 N   0  0  0  0  0  0  0  0  0  0  0  0
    9.7295  -15.9127   24.5861 C   0  0  0  0  0  0  0  0  0  0  0  0
    9.9246  -14.6696   24.3105 O   0  0  0  0  0  0  0  0  0  0  0  0
    6.8132  -13.6702   26.8210 C   0  0  0  0  0  0  0  0  0  0  0  0
    8.2284  -13.9867   26.4280 C   0  0  0  0  0  0  0  0  0  0  0  0
    8.9709  -14.8360   27.4103 C   0  0  2  0  0  0  0  0  0  0  0  0
    9.0399  -14.0507   28.7012 C   0  0  0  0  0  0  0  0  0  0  0  0
   10.3472  -15.2719   26.9317 C   0  0  2  0  0  0  0  0  0  0  0  0
   10.1364  -16.2883   25.8959 N   0  0  0  0  0  0  0  0  0  0  0  0
   11.0606  -15.8505   28.0930 C   0  0  0  0  0  0  0  0  0  0  0  0
   11.6585  -15.1738   28.9698 O   0  0  0  0  0  0  0  0  0  0  0  0
   11.0715  -17.2325   28.2279 O   0  0  0  0  0  0  0  0  0  0  0  0
  2  3  1  0
  2  1  1  6
  4  9  2  0
  4  3  1  0
  5  4  1  0
  6  7  1  0
  6  5  2  0
  7  8  2  0
  8  9  1  0
 10  2  1  0
 11 10  2  0
 13 12  1  6
 14 13  1  0
 15 13  1  0
 15 16  1  6
 16 10  1  0
 17 18  2  0
 17 15  1  0
 19 20  1  0
 20 21  1  0
 21 23  1  0
 21 22  1  1
 23 24  1  6
 24 17  1  0
 25 23  1  0
 25 27  1  0
 26 25  2  0
M  END
$$$$
