FTI.pdb
     RDKit          3D

 27 27  0  0  1  0  0  0  0  0999 V2000
    9.7023  -17.5791   18.4958 N   0  0  0  0  0  0  0  0  0  0  0  0
    9.5007  -16.9622   19.7609 C   0  0  1  0  0  0  0  0  0  0  0  0
    7.9976  -16.7884   19.9447 C   0  0  0  0  0  0  0  0  0  0  0  0
    7.7137  -15.3379   19.8086 C   0  0  0  0  0  0  0  0  0  0  0  0
    7.3768  -14.7383   18.6172 C   0  0  0  0  0  0  0  0  0  0  0  0
    7.1191  -13.3767   18.5718 C   0  0  0  0  0  0  0  0  0  0  0  0
    7.1832  -12.5673   19.6858 C   0  0  0  0  0  0  0  0  0  0  0  0
    7.5235  -13.1802   20.8851 C   0  0  0  0  0  0  0  0  0  0  0  0
    7.7872  -14.5504   20.9536 C   0  0  0  0  0  0  0  0  0  0  0  0
   10.1277  -17.5930   20.9215 C   0  0  0  0  0  0  0  0  0  0  0  0
   11.1661  -18.3203   20.7194 O   0  0  0  0  0  0  0  0  0  0  0  0
   11.9071  -15.7492   21.5809 C   0  0  0  0  0  0  0  0  0  0  0  0
   11.2816  -15.7363   22.9353 C   0  0  1  0  0  0  0  0  0  0  0  0
   10.3792  -14.6904   22.9878 O   0  0  0  0  0  0  0  0  0  0  0  0
   10.5864  -17.0083   23.3336 C   0  0  2  0  0  0  0  0  0  0  0  0
    9.7457  -17.5129   22.2638 N   0  0  0  0  0  0  0  0  0  0  0  0
    9.8556  -16.8410   24.5954 C   0  0  0  0  0  0  0  0  0  0  0  0
    8.5715  -16.7400   24.6134 O   0  0  0  0  0  0  0  0  0  0  0  0
   10.6732  -13.8956   28.8732 C   0  0  0  0  0  0  0  0  0  0  0  0
   11.2715  -15.0201   28.0764 C   0  0  0  0  0  0  0  0  0  0  0  0
   10.5750  -16.3342   28.2365 C   0  0  2  0  0  0  0  0  0  0  0  0
   11.6527  -17.3789   28.4239 C   0  0  0  0  0  0  0  0  0  0  0  0
    9.6376  -16.6787   27.0894 C   0  0  2  0  0  0  0  0  0  0  0  0
   10.4615  -16.7778   25.8803 N   0  0  0  0  0  0  0  0  0  0  0  0
    8.6598  -15.5738   26.9654 C   0  0  0  0  0  0  0  0  0  0  0  0
    8.7583  -14.6254   26.1437 O   0  0  0  0  0  0  0  0  0  0  0  0
    7.5577  -15.5819   27.8101 O   0  0  0  0  0  0  0  0  0  0  0  0
  2  3  1  0
  2  1  1  6
  4  9  2  0
  4  3  1  0
  5  4  1  0
  6  7  1  0
  6  5  2  0
  7  8  2  0
  8  9  1  0
 10  2  1  0
 11 10  2  0
 13 12  1  6
 14 13  1  0
 15 13  1  0
 15 16  1  6
 16 10  1  0
 17 18  2  0
 17 15  1  0
 19 20  1  0
 20 21  1  0
 21 23  1  0
 21 22  1  6
 23 24  1  6
 24 17  1  0
 25 23  1  0
 25 27  1  0
 26 25  2  0
M  END
$$$$
