FTI.pdb
     RDKit          3D

 27 27  0  0  1  0  0  0  0  0999 V2000
    5.1097  -16.3880   24.3028 N   0  0  0  0  0  0  0  0  0  0  0  0
    6.3820  -15.8099   24.5650 C   0  0  1  0  0  0  0  0  0  0  0  0
    6.3455  -15.2629   25.9873 C   0  0  0  0  0  0  0  0  0  0  0  0
    6.3655  -13.7828   25.8782 C   0  0  0  0  0  0  0  0  0  0  0  0
    7.2140  -13.0940   25.0427 C   0  0  0  0  0  0  0  0  0  0  0  0
    7.1680  -11.7092   24.9917 C   0  0  0  0  0  0  0  0  0  0  0  0
    6.2942  -10.9629   25.7532 C   0  0  0  0  0  0  0  0  0  0  0  0
    5.4404  -11.6655   26.5939 C   0  0  0  0  0  0  0  0  0  0  0  0
    5.4698  -13.0607   26.6610 C   0  0  0  0  0  0  0  0  0  0  0  0
    7.5590  -16.6440   24.3263 C   0  0  0  0  0  0  0  0  0  0  0  0
    7.5138  -17.8675   24.7123 O   0  0  0  0  0  0  0  0  0  0  0  0
   11.1262  -15.6728   21.9836 C   0  0  0  0  0  0  0  0  0  0  0  0
   10.6790  -17.0352   22.3955 C   0  0  1  0  0  0  0  0  0  0  0  0
   11.7852  -17.8632   22.4341 O   0  0  0  0  0  0  0  0  0  0  0  0
    9.9645  -17.1044   23.7164 C   0  0  2  0  0  0  0  0  0  0  0  0
    8.7652  -16.2874   23.7163 N   0  0  0  0  0  0  0  0  0  0  0  0
   10.8686  -16.7806   24.8263 C   0  0  0  0  0  0  0  0  0  0  0  0
   11.8907  -16.0162   24.6520 O   0  0  0  0  0  0  0  0  0  0  0  0
    9.6246  -13.8140   28.4559 C   0  0  0  0  0  0  0  0  0  0  0  0
   10.4559  -14.6753   27.5480 C   0  0  0  0  0  0  0  0  0  0  0  0
   10.9280  -15.9536   28.1648 C   0  0  2  0  0  0  0  0  0  0  0  0
   11.7753  -15.5747   29.3592 C   0  0  0  0  0  0  0  0  0  0  0  0
   11.6726  -16.8649   27.2013 C   0  0  2  0  0  0  0  0  0  0  0  0
   10.7179  -17.2544   26.1586 N   0  0  0  0  0  0  0  0  0  0  0  0
   12.1226  -18.0502   27.9661 C   0  0  0  0  0  0  0  0  0  0  0  0
   11.4422  -19.0980   28.1197 O   0  0  0  0  0  0  0  0  0  0  0  0
   13.3800  -18.0070   28.5536 O   0  0  0  0  0  0  0  0  0  0  0  0
  2  3  1  0
  2  1  1  1
  4  9  2  0
  4  3  1  0
  5  4  1  0
  6  7  1  0
  6  5  2  0
  7  8  2  0
  8  9  1  0
 10  2  1  0
 11 10  2  0
 13 12  1  1
 14 13  1  0
 15 13  1  0
 15 16  1  6
 16 10  1  0
 17 18  2  0
 17 15  1  0
 19 20  1  0
 20 21  1  0
 21 23  1  0
 21 22  1  1
 23 24  1  6
 24 17  1  0
 25 23  1  0
 25 27  1  0
 26 25  2  0
M  END
$$$$
