FTI.pdb
     RDKit          3D

 27 27  0  0  1  0  0  0  0  0999 V2000
    5.5857  -16.4114   23.3114 N   0  0  0  0  0  0  0  0  0  0  0  0
    6.8838  -16.0850   22.8319 C   0  0  1  0  0  0  0  0  0  0  0  0
    6.9043  -14.5838   22.5690 C   0  0  0  0  0  0  0  0  0  0  0  0
    6.6078  -13.9177   23.8618 C   0  0  0  0  0  0  0  0  0  0  0  0
    5.6251  -14.3410   24.7265 C   0  0  0  0  0  0  0  0  0  0  0  0
    5.4125  -13.6694   25.9208 C   0  0  0  0  0  0  0  0  0  0  0  0
    6.1524  -12.5701   26.3009 C   0  0  0  0  0  0  0  0  0  0  0  0
    7.1430  -12.1492   25.4227 C   0  0  0  0  0  0  0  0  0  0  0  0
    7.3742  -12.8110   24.2143 C   0  0  0  0  0  0  0  0  0  0  0  0
    8.0244  -16.5181   23.6378 C   0  0  0  0  0  0  0  0  0  0  0  0
    7.7873  -16.9740   24.8143 O   0  0  0  0  0  0  0  0  0  0  0  0
   11.1838  -18.4472   21.9043 C   0  0  0  0  0  0  0  0  0  0  0  0
   11.5512  -17.6058   23.0803 C   0  0  1  0  0  0  0  0  0  0  0  0
   12.1408  -16.4444   22.6173 O   0  0  0  0  0  0  0  0  0  0  0  0
   10.4131  -17.2503   23.9960 C   0  0  2  0  0  0  0  0  0  0  0  0
    9.3803  -16.5076   23.2979 N   0  0  0  0  0  0  0  0  0  0  0  0
   10.8946  -16.5564   25.1963 C   0  0  0  0  0  0  0  0  0  0  0  0
   11.2297  -15.3132   25.1580 O   0  0  0  0  0  0  0  0  0  0  0  0
    9.5150  -13.1102   27.3786 C   0  0  0  0  0  0  0  0  0  0  0  0
   10.5733  -14.1330   27.0765 C   0  0  0  0  0  0  0  0  0  0  0  0
   10.5454  -15.3366   27.9642 C   0  0  2  0  0  0  0  0  0  0  0  0
   10.7124  -14.8368   29.3820 C   0  0  0  0  0  0  0  0  0  0  0  0
   11.5798  -16.3920   27.6041 C   0  0  2  0  0  0  0  0  0  0  0  0
   11.0346  -17.1567   26.4778 N   0  0  0  0  0  0  0  0  0  0  0  0
   11.7589  -17.2629   28.7881 C   0  0  0  0  0  0  0  0  0  0  0  0
   11.0503  -18.2714   29.0433 O   0  0  0  0  0  0  0  0  0  0  0  0
   12.7775  -16.9498   29.6784 O   0  0  0  0  0  0  0  0  0  0  0  0
  2  3  1  0
  2  1  1  1
  4  9  2  0
  4  3  1  0
  5  4  1  0
  6  7  1  0
  6  5  2  0
  7  8  2  0
  8  9  1  0
 10  2  1  0
 11 10  2  0
 13 12  1  6
 14 13  1  0
 15 13  1  0
 15 16  1  6
 16 10  1  0
 17 18  2  0
 17 15  1  0
 19 20  1  0
 20 21  1  0
 21 23  1  0
 21 22  1  1
 23 24  1  6
 24 17  1  0
 25 23  1  0
 25 27  1  0
 26 25  2  0
M  END
$$$$
