FTI.pdb
     RDKit          3D

 27 27  0  0  1  0  0  0  0  0999 V2000
    5.8020  -17.8115   23.2683 N   0  0  0  0  0  0  0  0  0  0  0  0
    6.5571  -16.7599   23.8562 C   0  0  1  0  0  0  0  0  0  0  0  0
    5.8219  -16.3269   25.1193 C   0  0  0  0  0  0  0  0  0  0  0  0
    5.9896  -14.8563   25.2305 C   0  0  0  0  0  0  0  0  0  0  0  0
    5.2261  -14.0652   26.0572 C   0  0  0  0  0  0  0  0  0  0  0  0
    5.4477  -12.6975   26.1110 C   0  0  0  0  0  0  0  0  0  0  0  0
    6.4184  -12.0686   25.3609 C   0  0  0  0  0  0  0  0  0  0  0  0
    7.1854  -12.8743   24.5289 C   0  0  0  0  0  0  0  0  0  0  0  0
    6.9791  -14.2543   24.4592 C   0  0  0  0  0  0  0  0  0  0  0  0
    7.9760  -17.0114   24.1043 C   0  0  0  0  0  0  0  0  0  0  0  0
    8.2825  -17.9162   24.9619 O   0  0  0  0  0  0  0  0  0  0  0  0
   12.7134  -16.9491   22.5686 C   0  0  0  0  0  0  0  0  0  0  0  0
   11.3141  -16.4329   22.5289 C   0  0  1  0  0  0  0  0  0  0  0  0
   10.7130  -16.8938   21.3726 O   0  0  0  0  0  0  0  0  0  0  0  0
   10.4601  -16.8017   23.7098 C   0  0  2  0  0  0  0  0  0  0  0  0
    9.0823  -16.3875   23.5204 N   0  0  0  0  0  0  0  0  0  0  0  0
   11.0359  -16.2934   24.9605 C   0  0  0  0  0  0  0  0  0  0  0  0
   11.6038  -15.1383   25.0117 O   0  0  0  0  0  0  0  0  0  0  0  0
   11.2469  -12.6193   27.2774 C   0  0  0  0  0  0  0  0  0  0  0  0
   11.8644  -13.9643   27.0185 C   0  0  0  0  0  0  0  0  0  0  0  0
   11.1629  -15.1078   27.6802 C   0  0  2  0  0  0  0  0  0  0  0  0
   11.1698  -14.8228   29.1657 C   0  0  0  0  0  0  0  0  0  0  0  0
   11.7606  -16.4683   27.3560 C   0  0  2  0  0  0  0  0  0  0  0  0
   11.0269  -16.9918   26.1992 N   0  0  0  0  0  0  0  0  0  0  0  0
   11.5595  -17.3368   28.5381 C   0  0  0  0  0  0  0  0  0  0  0  0
   12.3094  -17.3473   29.5491 O   0  0  0  0  0  0  0  0  0  0  0  0
   10.4703  -18.1982   28.5355 O   0  0  0  0  0  0  0  0  0  0  0  0
  2  3  1  0
  2  1  1  1
  4  9  2  0
  4  3  1  0
  5  4  1  0
  6  7  1  0
  6  5  2  0
  7  8  2  0
  8  9  1  0
 10  2  1  0
 11 10  2  0
 13 12  1  1
 14 13  1  0
 15 13  1  0
 15 16  1  6
 16 10  1  0
 17 18  2  0
 17 15  1  0
 19 20  1  0
 20 21  1  0
 21 23  1  0
 21 22  1  1
 23 24  1  6
 24 17  1  0
 25 23  1  0
 25 27  1  0
 26 25  2  0
M  END
$$$$
