FTI.pdb
     RDKit          3D

 27 27  0  0  1  0  0  0  0  0999 V2000
    8.2170  -17.2572   18.2290 N   0  0  0  0  0  0  0  0  0  0  0  0
    8.3016  -16.2782   19.2567 C   0  0  1  0  0  0  0  0  0  0  0  0
    7.0986  -15.3551   19.1018 C   0  0  0  0  0  0  0  0  0  0  0  0
    7.2032  -14.3311   20.1711 C   0  0  0  0  0  0  0  0  0  0  0  0
    6.6509  -14.4801   21.4222 C   0  0  0  0  0  0  0  0  0  0  0  0
    6.7975  -13.4800   22.3713 C   0  0  0  0  0  0  0  0  0  0  0  0
    7.4858  -12.3115   22.1240 C   0  0  0  0  0  0  0  0  0  0  0  0
    8.0410  -12.1687   20.8587 C   0  0  0  0  0  0  0  0  0  0  0  0
    7.9054  -13.1637   19.8874 C   0  0  0  0  0  0  0  0  0  0  0  0
    8.4533  -16.7590   20.6292 C   0  0  0  0  0  0  0  0  0  0  0  0
    7.5605  -17.5613   21.0845 O   0  0  0  0  0  0  0  0  0  0  0  0
   10.4662  -19.2211   22.0294 C   0  0  0  0  0  0  0  0  0  0  0  0
   10.6303  -18.0712   22.9657 C   0  0  1  0  0  0  0  0  0  0  0  0
   11.8611  -17.4885   22.7277 O   0  0  0  0  0  0  0  0  0  0  0  0
    9.5612  -17.0177   22.8822 C   0  0  2  0  0  0  0  0  0  0  0  0
    9.4659  -16.4607   21.5456 N   0  0  0  0  0  0  0  0  0  0  0  0
    9.7492  -15.9881   23.9112 C   0  0  0  0  0  0  0  0  0  0  0  0
   10.1818  -14.8134   23.6073 O   0  0  0  0  0  0  0  0  0  0  0  0
    7.3647  -11.9071   26.5452 C   0  0  0  0  0  0  0  0  0  0  0  0
    8.5505  -12.8114   26.7290 C   0  0  0  0  0  0  0  0  0  0  0  0
    8.5190  -14.0541   25.8970 C   0  0  2  0  0  0  0  0  0  0  0  0
    7.1395  -14.6530   26.0597 C   0  0  0  0  0  0  0  0  0  0  0  0
    9.6183  -15.0496   26.2341 C   0  0  2  0  0  0  0  0  0  0  0  0
    9.4826  -16.1687   25.2963 N   0  0  0  0  0  0  0  0  0  0  0  0
    9.3962  -15.5048   27.6254 C   0  0  0  0  0  0  0  0  0  0  0  0
    8.8212  -16.5797   27.9391 O   0  0  0  0  0  0  0  0  0  0  0  0
    9.8531  -14.6945   28.6564 O   0  0  0  0  0  0  0  0  0  0  0  0
  2  3  1  0
  2  1  1  6
  4  9  2  0
  4  3  1  0
  5  4  1  0
  6  7  1  0
  6  5  2  0
  7  8  2  0
  8  9  1  0
 10  2  1  0
 11 10  2  0
 13 12  1  6
 14 13  1  0
 15 13  1  0
 15 16  1  6
 16 10  1  0
 17 18  2  0
 17 15  1  0
 19 20  1  0
 20 21  1  0
 21 23  1  0
 21 22  1  1
 23 24  1  6
 24 17  1  0
 25 23  1  0
 25 27  1  0
 26 25  2  0
M  END
$$$$
