FTI.pdb
     RDKit          3D

 27 27  0  0  1  0  0  0  0  0999 V2000
    7.5956  -17.6418   18.8228 N   0  0  0  0  0  0  0  0  0  0  0  0
    7.8855  -16.5553   19.6931 C   0  0  1  0  0  0  0  0  0  0  0  0
    6.7836  -15.5191   19.5050 C   0  0  0  0  0  0  0  0  0  0  0  0
    7.2132  -14.2992   20.2334 C   0  0  0  0  0  0  0  0  0  0  0  0
    6.9409  -14.0728   21.5626 C   0  0  0  0  0  0  0  0  0  0  0  0
    7.3825  -12.9099   22.1752 C   0  0  0  0  0  0  0  0  0  0  0  0
    8.0999  -11.9406   21.5073 C   0  0  0  0  0  0  0  0  0  0  0  0
    8.3712  -12.1767   20.1656 C   0  0  0  0  0  0  0  0  0  0  0  0
    7.9359  -13.3414   19.5285 C   0  0  0  0  0  0  0  0  0  0  0  0
    8.1118  -16.8683   21.1033 C   0  0  0  0  0  0  0  0  0  0  0  0
    7.1385  -17.3791   21.7667 O   0  0  0  0  0  0  0  0  0  0  0  0
   10.7034  -18.6676   24.7652 C   0  0  0  0  0  0  0  0  0  0  0  0
   10.4771  -18.1737   23.3757 C   0  0  1  0  0  0  0  0  0  0  0  0
   10.1220  -19.2497   22.5839 O   0  0  0  0  0  0  0  0  0  0  0  0
    9.4380  -17.0960   23.2387 C   0  0  2  0  0  0  0  0  0  0  0  0
    9.2754  -16.6860   21.8562 N   0  0  0  0  0  0  0  0  0  0  0  0
    9.7226  -15.9675   24.1329 C   0  0  0  0  0  0  0  0  0  0  0  0
   10.5577  -15.0457   23.7975 O   0  0  0  0  0  0  0  0  0  0  0  0
    6.2807  -12.8285   26.4907 C   0  0  0  0  0  0  0  0  0  0  0  0
    7.5416  -13.4153   25.9222 C   0  0  0  0  0  0  0  0  0  0  0  0
    8.4406  -14.0537   26.9330 C   0  0  2  0  0  0  0  0  0  0  0  0
    8.8434  -12.9678   27.9059 C   0  0  0  0  0  0  0  0  0  0  0  0
    9.6465  -14.7565   26.3287 C   0  0  2  0  0  0  0  0  0  0  0  0
    9.1299  -15.7773   25.4114 N   0  0  0  0  0  0  0  0  0  0  0  0
   10.3988  -15.3848   27.4385 C   0  0  0  0  0  0  0  0  0  0  0  0
   10.1382  -16.5167   27.9235 O   0  0  0  0  0  0  0  0  0  0  0  0
   11.4653  -14.6813   27.9824 O   0  0  0  0  0  0  0  0  0  0  0  0
  2  3  1  0
  2  1  1  6
  4  9  2  0
  4  3  1  0
  5  4  1  0
  6  7  1  0
  6  5  2  0
  7  8  2  0
  8  9  1  0
 10  2  1  0
 11 10  2  0
 13 12  1  1
 14 13  1  0
 15 13  1  0
 15 16  1  6
 16 10  1  0
 17 18  2  0
 17 15  1  0
 19 20  1  0
 20 21  1  0
 21 23  1  0
 21 22  1  1
 23 24  1  6
 24 17  1  0
 25 23  1  0
 25 27  1  0
 26 25  2  0
M  END
$$$$
