FTI.pdb
     RDKit          3D

 27 27  0  0  1  0  0  0  0  0999 V2000
    5.8948  -16.7566   22.9379 N   0  0  0  0  0  0  0  0  0  0  0  0
    6.9910  -16.2265   23.6721 C   0  0  1  0  0  0  0  0  0  0  0  0
    6.4825  -15.9006   25.0716 C   0  0  0  0  0  0  0  0  0  0  0  0
    6.4435  -14.4208   25.1801 C   0  0  0  0  0  0  0  0  0  0  0  0
    5.3219  -13.7157   25.5504 C   0  0  0  0  0  0  0  0  0  0  0  0
    5.3662  -12.3325   25.6357 C   0  0  0  0  0  0  0  0  0  0  0  0
    6.5040  -11.6038   25.3625 C   0  0  0  0  0  0  0  0  0  0  0  0
    7.6325  -12.3231   24.9897 C   0  0  0  0  0  0  0  0  0  0  0  0
    7.6101  -13.7169   24.8974 C   0  0  0  0  0  0  0  0  0  0  0  0
    8.2211  -17.0164   23.7037 C   0  0  0  0  0  0  0  0  0  0  0  0
    8.3418  -17.9703   22.8530 O   0  0  0  0  0  0  0  0  0  0  0  0
   10.3130  -16.8892   21.7551 C   0  0  0  0  0  0  0  0  0  0  0  0
   11.1540  -16.6295   22.9597 C   0  0  1  0  0  0  0  0  0  0  0  0
   11.2307  -15.2625   23.1503 O   0  0  0  0  0  0  0  0  0  0  0  0
   10.6759  -17.2786   24.2286 C   0  0  2  0  0  0  0  0  0  0  0  0
    9.3207  -16.8752   24.5551 N   0  0  0  0  0  0  0  0  0  0  0  0
   11.6161  -17.0449   25.3311 C   0  0  0  0  0  0  0  0  0  0  0  0
   12.5549  -16.1685   25.2319 O   0  0  0  0  0  0  0  0  0  0  0  0
    9.5234  -13.8658   27.8203 C   0  0  0  0  0  0  0  0  0  0  0  0
   10.6771  -14.7692   27.4884 C   0  0  0  0  0  0  0  0  0  0  0  0
   10.5740  -16.1457   28.0647 C   0  0  2  0  0  0  0  0  0  0  0  0
   10.2648  -15.9805   29.5361 C   0  0  0  0  0  0  0  0  0  0  0  0
   11.8072  -17.0051   27.8323 C   0  0  2  0  0  0  0  0  0  0  0  0
   11.5909  -17.7308   26.5766 N   0  0  0  0  0  0  0  0  0  0  0  0
   11.9138  -17.9485   28.9685 C   0  0  0  0  0  0  0  0  0  0  0  0
   11.2410  -19.0064   29.0804 O   0  0  0  0  0  0  0  0  0  0  0  0
   12.8171  -17.6499   29.9801 O   0  0  0  0  0  0  0  0  0  0  0  0
  2  3  1  0
  2  1  1  6
  4  9  2  0
  4  3  1  0
  5  4  1  0
  6  7  1  0
  6  5  2  0
  7  8  2  0
  8  9  1  0
 10  2  1  0
 11 10  2  0
 13 12  1  6
 14 13  1  0
 15 13  1  0
 15 16  1  1
 16 10  1  0
 17 18  2  0
 17 15  1  0
 19 20  1  0
 20 21  1  0
 21 23  1  0
 21 22  1  1
 23 24  1  6
 24 17  1  0
 25 23  1  0
 25 27  1  0
 26 25  2  0
M  END
$$$$
