FTI.pdb
     RDKit          3D

 27 27  0  0  1  0  0  0  0  0999 V2000
    8.1367  -17.7355   19.2381 N   0  0  0  0  0  0  0  0  0  0  0  0
    8.1336  -16.7330   20.2465 C   0  0  1  0  0  0  0  0  0  0  0  0
    6.8854  -15.8839   20.0359 C   0  0  0  0  0  0  0  0  0  0  0  0
    7.1856  -14.5371   20.5826 C   0  0  0  0  0  0  0  0  0  0  0  0
    6.9057  -14.1629   21.8764 C   0  0  0  0  0  0  0  0  0  0  0  0
    7.2227  -12.8866   22.3159 C   0  0  0  0  0  0  0  0  0  0  0  0
    7.8201  -11.9451   21.5053 C   0  0  0  0  0  0  0  0  0  0  0  0
    8.1000  -12.3306   20.2005 C   0  0  0  0  0  0  0  0  0  0  0  0
    7.7891  -13.6113   19.7369 C   0  0  0  0  0  0  0  0  0  0  0  0
    8.2698  -17.1768   21.6330 C   0  0  0  0  0  0  0  0  0  0  0  0
    7.2692  -17.7746   22.1711 O   0  0  0  0  0  0  0  0  0  0  0  0
    9.5944  -19.9067   23.3275 C   0  0  0  0  0  0  0  0  0  0  0  0
   10.1477  -18.7327   24.0632 C   0  0  1  0  0  0  0  0  0  0  0  0
   11.4605  -18.5519   23.6699 O   0  0  0  0  0  0  0  0  0  0  0  0
    9.3948  -17.4450   23.8764 C   0  0  2  0  0  0  0  0  0  0  0  0
    9.3709  -17.0396   22.4832 N   0  0  0  0  0  0  0  0  0  0  0  0
    9.9120  -16.3946   24.7616 C   0  0  0  0  0  0  0  0  0  0  0  0
   10.9786  -15.7370   24.4629 O   0  0  0  0  0  0  0  0  0  0  0  0
    7.4306  -12.2406   26.2317 C   0  0  0  0  0  0  0  0  0  0  0  0
    8.5796  -13.1783   25.9911 C   0  0  0  0  0  0  0  0  0  0  0  0
    9.0142  -13.9505   27.1962 C   0  0  2  0  0  0  0  0  0  0  0  0
    9.5804  -12.9471   28.1763 C   0  0  0  0  0  0  0  0  0  0  0  0
    9.9984  -15.0689   26.8897 C   0  0  2  0  0  0  0  0  0  0  0  0
    9.3143  -16.0048   25.9916 N   0  0  0  0  0  0  0  0  0  0  0  0
   10.3370  -15.7285   28.1713 C   0  0  0  0  0  0  0  0  0  0  0  0
   11.2567  -15.3521   28.9439 O   0  0  0  0  0  0  0  0  0  0  0  0
    9.5908  -16.8365   28.5504 O   0  0  0  0  0  0  0  0  0  0  0  0
  2  3  1  0
  2  1  1  6
  4  9  2  0
  4  3  1  0
  5  4  1  0
  6  7  1  0
  6  5  2  0
  7  8  2  0
  8  9  1  0
 10  2  1  0
 11 10  2  0
 13 12  1  6
 14 13  1  0
 15 13  1  0
 15 16  1  6
 16 10  1  0
 17 18  2  0
 17 15  1  0
 19 20  1  0
 20 21  1  0
 21 23  1  0
 21 22  1  1
 23 24  1  6
 24 17  1  0
 25 23  1  0
 25 27  1  0
 26 25  2  0
M  END
$$$$
