FTI.pdb
     RDKit          3D

 27 27  0  0  1  0  0  0  0  0999 V2000
    7.6388  -17.3777   18.7653 N   0  0  0  0  0  0  0  0  0  0  0  0
    7.9416  -16.4217   19.7733 C   0  0  1  0  0  0  0  0  0  0  0  0
    6.7354  -15.4980   19.8972 C   0  0  0  0  0  0  0  0  0  0  0  0
    7.1125  -14.4258   20.8517 C   0  0  0  0  0  0  0  0  0  0  0  0
    6.8715  -14.4938   22.2044 C   0  0  0  0  0  0  0  0  0  0  0  0
    7.2603  -13.4528   23.0337 C   0  0  0  0  0  0  0  0  0  0  0  0
    7.8932  -12.3215   22.5649 C   0  0  0  0  0  0  0  0  0  0  0  0
    8.1334  -12.2605   21.1980 C   0  0  0  0  0  0  0  0  0  0  0  0
    7.7502  -13.2978   20.3443 C   0  0  0  0  0  0  0  0  0  0  0  0
    8.3791  -16.9326   21.0716 C   0  0  0  0  0  0  0  0  0  0  0  0
    7.5594  -17.6667   21.7331 O   0  0  0  0  0  0  0  0  0  0  0  0
   11.5524  -18.7275   24.2918 C   0  0  0  0  0  0  0  0  0  0  0  0
   11.1063  -18.1864   22.9749 C   0  0  1  0  0  0  0  0  0  0  0  0
   10.7883  -19.2509   22.1523 O   0  0  0  0  0  0  0  0  0  0  0  0
    9.9392  -17.2407   23.0316 C   0  0  2  0  0  0  0  0  0  0  0  0
    9.6033  -16.7302   21.7154 N   0  0  0  0  0  0  0  0  0  0  0  0
   10.1696  -16.1714   24.0103 C   0  0  0  0  0  0  0  0  0  0  0  0
   11.0776  -15.2778   23.8196 O   0  0  0  0  0  0  0  0  0  0  0  0
    8.0546  -11.5990   26.8977 C   0  0  0  0  0  0  0  0  0  0  0  0
    9.0689  -12.7040   26.9850 C   0  0  0  0  0  0  0  0  0  0  0  0
    8.7883  -13.8763   26.0992 C   0  0  2  0  0  0  0  0  0  0  0  0
    7.4018  -14.3675   26.4520 C   0  0  0  0  0  0  0  0  0  0  0  0
    9.8281  -14.9824   26.1928 C   0  0  2  0  0  0  0  0  0  0  0  0
    9.4435  -16.0125   25.2226 N   0  0  0  0  0  0  0  0  0  0  0  0
    9.7833  -15.5210   27.5713 C   0  0  0  0  0  0  0  0  0  0  0  0
    9.1401  -16.5475   27.9134 O   0  0  0  0  0  0  0  0  0  0  0  0
   10.4990  -14.8519   28.5553 O   0  0  0  0  0  0  0  0  0  0  0  0
  2  3  1  0
  2  1  1  6
  4  9  2  0
  4  3  1  0
  5  4  1  0
  6  7  1  0
  6  5  2  0
  7  8  2  0
  8  9  1  0
 10  2  1  0
 11 10  2  0
 13 12  1  1
 14 13  1  0
 15 13  1  0
 15 16  1  6
 16 10  1  0
 17 18  2  0
 17 15  1  0
 19 20  1  0
 20 21  1  0
 21 23  1  0
 21 22  1  1
 23 24  1  6
 24 17  1  0
 25 23  1  0
 25 27  1  0
 26 25  2  0
M  END
$$$$
