KHH.pdb
     RDKit          3D

 30 31  0  0  1  0  0  0  0  0999 V2000
    8.0026  -17.9213   20.0157 N   0  0  0  0  0  0  0  0  0  0  0  0
    8.3796  -16.8667   20.9505 C   0  0  1  0  0  0  0  0  0  0  0  0
    7.7454  -15.6086   20.4716 C   0  0  0  0  0  0  0  0  0  0  0  0
    8.7011  -14.6174   19.8936 C   0  0  0  0  0  0  0  0  0  0  0  0
    7.9457  -13.4133   19.3683 C   0  0  0  0  0  0  0  0  0  0  0  0
    8.8866  -12.3651   18.8147 C   0  0  0  0  0  0  0  0  0  0  0  0
    8.1925  -11.2026   18.3527 N   0  0  0  0  0  0  0  0  0  0  0  0
    8.0595  -17.2724   22.3162 C   0  0  0  0  0  0  0  0  0  0  0  0
    6.8971  -17.6913   22.6417 O   0  0  0  0  0  0  0  0  0  0  0  0
    9.0719  -17.2006   23.3208 N   0  0  0  0  0  0  0  0  0  0  0  0
    9.1091  -18.1744   24.3884 C   0  0  1  0  0  0  0  0  0  0  0  0
    9.3561  -19.5754   23.8441 C   0  0  0  0  0  0  0  0  0  0  0  0
    9.3515  -20.6005   24.8906 C   0  0  0  0  0  0  0  0  0  0  0  0
    9.1301  -20.3736   26.2307 C   0  0  0  0  0  0  0  0  0  0  0  0
    9.2089  -21.5572   26.8450 N   0  0  0  0  0  0  0  0  0  0  0  0
    9.4692  -22.4876   25.9269 C   0  0  0  0  0  0  0  0  0  0  0  0
    9.5570  -21.9121   24.7369 N   0  0  0  0  0  0  0  0  0  0  0  0
   10.2401  -17.8679   25.2956 C   0  0  0  0  0  0  0  0  0  0  0  0
   11.3853  -17.7683   24.7847 O   0  0  0  0  0  0  0  0  0  0  0  0
   10.0010  -17.7027   26.6628 N   0  0  0  0  0  0  0  0  0  0  0  0
   11.1217  -17.2747   27.5387 C   0  0  1  0  0  0  0  0  0  0  0  0
   10.5087  -16.3630   28.5300 C   0  0  0  0  0  0  0  0  0  0  0  0
    9.8815  -15.1322   28.0243 C   0  0  0  0  0  0  0  0  0  0  0  0
    9.9497  -14.5766   26.7791 C   0  0  0  0  0  0  0  0  0  0  0  0
    9.1545  -13.4581   26.7099 N   0  0  0  0  0  0  0  0  0  0  0  0
    8.6129  -13.3563   27.9251 C   0  0  0  0  0  0  0  0  0  0  0  0
    9.0179  -14.3278   28.7309 N   0  0  0  0  0  0  0  0  0  0  0  0
   11.6836  -18.5245   28.1418 C   0  0  0  0  0  0  0  0  0  0  0  0
   12.9647  -18.5296   28.7358 O   0  0  0  0  0  0  0  0  0  0  0  0
   11.0868  -19.6013   28.1615 O   0  0  0  0  0  0  0  0  0  0  0  0
  2  1  1  6
  2  3  1  0
  3  4  1  0
  4  5  1  0
  5  6  1  0
  7  6  1  0
  8  2  1  0
  8  9  2  0
 10  8  1  0
 11 10  1  0
 11 12  1  6
 13 12  1  0
 14 13  2  0
 15 16  1  0
 15 14  1  0
 16 17  2  0
 17 13  1  0
 18 11  1  0
 19 18  2  0
 20 18  1  0
 21 20  1  0
 21 28  1  0
 21 22  1  1
 23 24  2  0
 23 22  1  0
 25 24  1  0
 26 27  2  0
 26 25  1  0
 27 23  1  0
 28 29  1  0
 30 28  2  0
M  END
$$$$
