KHH.pdb
     RDKit          3D

 30 31  0  0  1  0  0  0  0  0999 V2000
    8.4420  -18.5946   17.3730 N   0  0  0  0  0  0  0  0  0  0  0  0
    9.2977  -17.4881   16.9585 C   0  0  1  0  0  0  0  0  0  0  0  0
    8.5866  -16.7685   15.8672 C   0  0  0  0  0  0  0  0  0  0  0  0
    7.9984  -17.6587   14.8225 C   0  0  0  0  0  0  0  0  0  0  0  0
    8.9212  -17.7311   13.6227 C   0  0  0  0  0  0  0  0  0  0  0  0
    8.3089  -18.5386   12.4985 C   0  0  0  0  0  0  0  0  0  0  0  0
    7.5472  -19.6493   12.9807 N   0  0  0  0  0  0  0  0  0  0  0  0
    9.6768  -16.6882   18.1199 C   0  0  0  0  0  0  0  0  0  0  0  0
   10.3782  -15.6259   18.0088 O   0  0  0  0  0  0  0  0  0  0  0  0
    9.2538  -17.1013   19.4198 N   0  0  0  0  0  0  0  0  0  0  0  0
    9.6320  -16.3360   20.5863 C   0  0  1  0  0  0  0  0  0  0  0  0
    8.4155  -15.6884   21.2351 C   0  0  0  0  0  0  0  0  0  0  0  0
    7.9256  -14.5261   20.4902 C   0  0  0  0  0  0  0  0  0  0  0  0
    8.4816  -14.0253   19.3342 C   0  0  0  0  0  0  0  0  0  0  0  0
    7.7468  -12.9698   18.9732 N   0  0  0  0  0  0  0  0  0  0  0  0
    6.7701  -12.8158   19.8668 C   0  0  0  0  0  0  0  0  0  0  0  0
    6.8736  -13.7589   20.7914 N   0  0  0  0  0  0  0  0  0  0  0  0
   10.2199  -17.2423   21.6007 C   0  0  0  0  0  0  0  0  0  0  0  0
    9.8437  -18.4427   21.5962 O   0  0  0  0  0  0  0  0  0  0  0  0
   11.1550  -16.7424   22.5114 N   0  0  0  0  0  0  0  0  0  0  0  0
   11.8225  -17.6873   23.4430 C   0  0  1  0  0  0  0  0  0  0  0  0
   13.1977  -17.1644   23.6016 C   0  0  0  0  0  0  0  0  0  0  0  0
   14.1538  -17.4268   22.5148 C   0  0  0  0  0  0  0  0  0  0  0  0
   13.9890  -18.1662   21.3791 C   0  0  0  0  0  0  0  0  0  0  0  0
   15.1137  -18.0932   20.5931 N   0  0  0  0  0  0  0  0  0  0  0  0
   15.9466  -17.3025   21.2725 C   0  0  0  0  0  0  0  0  0  0  0  0
   15.4152  -16.8878   22.4140 N   0  0  0  0  0  0  0  0  0  0  0  0
   11.0232  -17.6633   24.7088 C   0  0  0  0  0  0  0  0  0  0  0  0
   11.2491  -18.6159   25.7264 O   0  0  0  0  0  0  0  0  0  0  0  0
   10.1406  -16.8373   24.9435 O   0  0  0  0  0  0  0  0  0  0  0  0
  2  1  1  1
  2  3  1  0
  3  4  1  0
  4  5  1  0
  5  6  1  0
  7  6  1  0
  8  2  1  0
  8  9  2  0
 10  8  1  0
 11 10  1  0
 11 12  1  1
 13 12  1  0
 14 13  2  0
 15 16  1  0
 15 14  1  0
 16 17  2  0
 17 13  1  0
 18 11  1  0
 19 18  2  0
 20 18  1  0
 21 20  1  0
 21 28  1  0
 21 22  1  1
 23 24  2  0
 23 22  1  0
 25 24  1  0
 26 27  2  0
 26 25  1  0
 27 23  1  0
 28 29  1  0
 30 28  2  0
M  END
$$$$
