KHH.pdb
     RDKit          3D

 30 31  0  0  1  0  0  0  0  0999 V2000
   12.8120  -14.4625   17.3115 N   0  0  0  0  0  0  0  0  0  0  0  0
   13.2596  -14.9399   18.6153 C   0  0  1  0  0  0  0  0  0  0  0  0
   14.6935  -14.5658   18.7509 C   0  0  0  0  0  0  0  0  0  0  0  0
   15.5828  -15.1396   17.6974 C   0  0  0  0  0  0  0  0  0  0  0  0
   17.0356  -14.9475   18.0833 C   0  0  0  0  0  0  0  0  0  0  0  0
   17.9682  -15.5512   17.0554 C   0  0  0  0  0  0  0  0  0  0  0  0
   19.3444  -15.3949   17.4134 N   0  0  0  0  0  0  0  0  0  0  0  0
   12.3632  -14.4526   19.6600 C   0  0  0  0  0  0  0  0  0  0  0  0
   12.3560  -13.2288   20.0274 O   0  0  0  0  0  0  0  0  0  0  0  0
   11.4667  -15.3667   20.2924 N   0  0  0  0  0  0  0  0  0  0  0  0
   10.4965  -14.8894   21.2518 C   0  0  1  0  0  0  0  0  0  0  0  0
    9.0907  -15.3449   20.8828 C   0  0  0  0  0  0  0  0  0  0  0  0
    8.4971  -14.5435   19.8098 C   0  0  0  0  0  0  0  0  0  0  0  0
    9.1170  -13.5049   19.1514 C   0  0  0  0  0  0  0  0  0  0  0  0
    8.2470  -13.0391   18.2512 N   0  0  0  0  0  0  0  0  0  0  0  0
    7.1277  -13.7567   18.3420 C   0  0  0  0  0  0  0  0  0  0  0  0
    7.2736  -14.6727   19.2878 N   0  0  0  0  0  0  0  0  0  0  0  0
   10.7932  -15.4697   22.5828 C   0  0  0  0  0  0  0  0  0  0  0  0
   11.4590  -16.5365   22.6170 O   0  0  0  0  0  0  0  0  0  0  0  0
   10.3320  -14.8244   23.7337 N   0  0  0  0  0  0  0  0  0  0  0  0
   10.6263  -15.4276   25.0588 C   0  0  1  0  0  0  0  0  0  0  0  0
   10.3021  -14.3712   26.0429 C   0  0  0  0  0  0  0  0  0  0  0  0
   10.3656  -14.7284   27.4686 C   0  0  0  0  0  0  0  0  0  0  0  0
   10.7681  -15.8964   28.0494 C   0  0  0  0  0  0  0  0  0  0  0  0
   10.7394  -15.7849   29.4187 N   0  0  0  0  0  0  0  0  0  0  0  0
   10.3175  -14.5393   29.6446 C   0  0  0  0  0  0  0  0  0  0  0  0
   10.0861  -13.8825   28.5166 N   0  0  0  0  0  0  0  0  0  0  0  0
    9.7536  -16.6389   25.1713 C   0  0  0  0  0  0  0  0  0  0  0  0
   10.1020  -17.7057   26.0284 O   0  0  0  0  0  0  0  0  0  0  0  0
    8.7040  -16.7851   24.5442 O   0  0  0  0  0  0  0  0  0  0  0  0
  2  1  1  6
  2  3  1  0
  3  4  1  0
  4  5  1  0
  5  6  1  0
  7  6  1  0
  8  2  1  0
  8  9  2  0
 10  8  1  0
 11 10  1  0
 11 12  1  6
 13 12  1  0
 14 13  2  0
 15 16  1  0
 15 14  1  0
 16 17  2  0
 17 13  1  0
 18 11  1  0
 19 18  2  0
 20 18  1  0
 21 20  1  0
 21 28  1  0
 21 22  1  1
 23 24  2  0
 23 22  1  0
 25 24  1  0
 26 27  2  0
 26 25  1  0
 27 23  1  0
 28 29  1  0
 30 28  2  0
M  END
$$$$
