KHH.pdb
     RDKit          3D

 30 31  0  0  1  0  0  0  0  0999 V2000
    6.9344  -16.3527   20.6386 N   0  0  0  0  0  0  0  0  0  0  0  0
    8.1366  -15.8054   21.2578 C   0  0  1  0  0  0  0  0  0  0  0  0
    7.8038  -14.4319   21.7238 C   0  0  0  0  0  0  0  0  0  0  0  0
    7.3372  -13.5108   20.6451 C   0  0  0  0  0  0  0  0  0  0  0  0
    8.4575  -13.2599   19.6560 C   0  0  0  0  0  0  0  0  0  0  0  0
    8.0053  -12.3709   18.5177 C   0  0  0  0  0  0  0  0  0  0  0  0
    8.9795  -12.2888   17.4735 N   0  0  0  0  0  0  0  0  0  0  0  0
    8.6397  -16.7276   22.2721 C   0  0  0  0  0  0  0  0  0  0  0  0
    7.8545  -17.4140   23.0103 O   0  0  0  0  0  0  0  0  0  0  0  0
   10.0497  -16.8699   22.4478 N   0  0  0  0  0  0  0  0  0  0  0  0
   10.5715  -17.7453   23.4730 C   0  0  1  0  0  0  0  0  0  0  0  0
   12.0403  -18.0641   23.2263 C   0  0  0  0  0  0  0  0  0  0  0  0
   12.2376  -19.0329   22.1454 C   0  0  0  0  0  0  0  0  0  0  0  0
   11.2368  -19.7208   21.4961 C   0  0  0  0  0  0  0  0  0  0  0  0
   11.8263  -20.4984   20.5839 N   0  0  0  0  0  0  0  0  0  0  0  0
   13.1429  -20.3054   20.6588 C   0  0  0  0  0  0  0  0  0  0  0  0
   13.3990  -19.4156   21.6062 N   0  0  0  0  0  0  0  0  0  0  0  0
   10.5019  -17.0621   24.7863 C   0  0  0  0  0  0  0  0  0  0  0  0
   10.2281  -15.8343   24.7896 O   0  0  0  0  0  0  0  0  0  0  0  0
   10.7384  -17.7911   25.9551 N   0  0  0  0  0  0  0  0  0  0  0  0
   10.1427  -17.3135   27.2292 C   0  0  1  0  0  0  0  0  0  0  0  0
    8.6800  -17.4264   27.0362 C   0  0  0  0  0  0  0  0  0  0  0  0
    7.9639  -16.2339   26.5573 C   0  0  0  0  0  0  0  0  0  0  0  0
    8.4627  -15.0206   26.1791 C   0  0  0  0  0  0  0  0  0  0  0  0
    7.4513  -14.2068   25.7286 N   0  0  0  0  0  0  0  0  0  0  0  0
    6.3484  -14.9491   25.8416 C   0  0  0  0  0  0  0  0  0  0  0  0
    6.6101  -16.1543   26.3276 N   0  0  0  0  0  0  0  0  0  0  0  0
   10.6758  -18.2098   28.3035 C   0  0  0  0  0  0  0  0  0  0  0  0
   10.7698  -17.7627   29.6395 O   0  0  0  0  0  0  0  0  0  0  0  0
   11.0575  -19.3633   28.1033 O   0  0  0  0  0  0  0  0  0  0  0  0
  2  1  1  1
  2  3  1  0
  3  4  1  0
  4  5  1  0
  5  6  1  0
  7  6  1  0
  8  2  1  0
  8  9  2  0
 10  8  1  0
 11 10  1  0
 11 12  1  6
 13 12  1  0
 14 13  2  0
 15 16  1  0
 15 14  1  0
 16 17  2  0
 17 13  1  0
 18 11  1  0
 19 18  2  0
 20 18  1  0
 21 20  1  0
 21 28  1  0
 21 22  1  6
 23 24  2  0
 23 22  1  0
 25 24  1  0
 26 27  2  0
 26 25  1  0
 27 23  1  0
 28 29  1  0
 30 28  2  0
M  END
$$$$
