KHH.pdb
     RDKit          3D

 30 31  0  0  1  0  0  0  0  0999 V2000
   10.8270  -16.2227   19.7364 N   0  0  0  0  0  0  0  0  0  0  0  0
    9.4608  -16.3373   20.2347 C   0  0  1  0  0  0  0  0  0  0  0  0
    8.9944  -17.7158   19.9237 C   0  0  0  0  0  0  0  0  0  0  0  0
    9.8229  -18.7990   20.5320 C   0  0  0  0  0  0  0  0  0  0  0  0
    9.2515  -20.1550   20.1700 C   0  0  0  0  0  0  0  0  0  0  0  0
   10.0995  -21.2808   20.7215 C   0  0  0  0  0  0  0  0  0  0  0  0
    9.5097  -22.5646   20.4967 N   0  0  0  0  0  0  0  0  0  0  0  0
    9.4063  -15.9381   21.6383 C   0  0  0  0  0  0  0  0  0  0  0  0
   10.3881  -16.1287   22.4335 O   0  0  0  0  0  0  0  0  0  0  0  0
    8.2233  -15.3163   22.1414 N   0  0  0  0  0  0  0  0  0  0  0  0
    8.1668  -14.8595   23.5117 C   0  0  1  0  0  0  0  0  0  0  0  0
    6.8412  -14.1690   23.8052 C   0  0  0  0  0  0  0  0  0  0  0  0
    6.7905  -13.5832   25.1468 C   0  0  0  0  0  0  0  0  0  0  0  0
    7.8183  -13.5947   26.0633 C   0  0  0  0  0  0  0  0  0  0  0  0
    7.3756  -12.9630   27.1539 N   0  0  0  0  0  0  0  0  0  0  0  0
    6.1215  -12.5717   26.9296 C   0  0  0  0  0  0  0  0  0  0  0  0
    5.7603  -12.9459   25.7112 N   0  0  0  0  0  0  0  0  0  0  0  0
    8.2473  -16.0250   24.4233 C   0  0  0  0  0  0  0  0  0  0  0  0
    7.4497  -16.9768   24.2226 O   0  0  0  0  0  0  0  0  0  0  0  0
    9.1891  -16.0277   25.4561 N   0  0  0  0  0  0  0  0  0  0  0  0
    9.2784  -17.2182   26.3400 C   0  0  1  0  0  0  0  0  0  0  0  0
    9.7515  -18.3130   25.4641 C   0  0  0  0  0  0  0  0  0  0  0  0
   11.1093  -18.2006   24.9092 C   0  0  0  0  0  0  0  0  0  0  0  0
   11.9703  -17.1416   24.9405 C   0  0  0  0  0  0  0  0  0  0  0  0
   13.1699  -17.4829   24.3638 N   0  0  0  0  0  0  0  0  0  0  0  0
   13.0129  -18.7546   23.9915 C   0  0  0  0  0  0  0  0  0  0  0  0
   11.8080  -19.2150   24.2970 N   0  0  0  0  0  0  0  0  0  0  0  0
   10.2439  -16.8617   27.4274 C   0  0  0  0  0  0  0  0  0  0  0  0
   10.5164  -17.7642   28.4786 O   0  0  0  0  0  0  0  0  0  0  0  0
   10.8487  -15.7904   27.4794 O   0  0  0  0  0  0  0  0  0  0  0  0
  2  1  1  1
  2  3  1  0
  3  4  1  0
  4  5  1  0
  5  6  1  0
  7  6  1  0
  8  2  1  0
  8  9  2  0
 10  8  1  0
 11 10  1  0
 11 12  1  6
 13 12  1  0
 14 13  2  0
 15 16  1  0
 15 14  1  0
 16 17  2  0
 17 13  1  0
 18 11  1  0
 19 18  2  0
 20 18  1  0
 21 20  1  0
 21 28  1  0
 21 22  1  6
 23 24  2  0
 23 22  1  0
 25 24  1  0
 26 27  2  0
 26 25  1  0
 27 23  1  0
 28 29  1  0
 30 28  2  0
M  END
$$$$
