KHH.pdb
     RDKit          3D

 30 31  0  0  1  0  0  0  0  0999 V2000
   15.8343  -13.8672   17.8983 N   0  0  0  0  0  0  0  0  0  0  0  0
   14.5861  -14.4419   17.4085 C   0  0  1  0  0  0  0  0  0  0  0  0
   14.9039  -15.7970   16.8818 C   0  0  0  0  0  0  0  0  0  0  0  0
   15.8552  -16.5793   17.7261 C   0  0  0  0  0  0  0  0  0  0  0  0
   16.1203  -17.9305   17.0936 C   0  0  0  0  0  0  0  0  0  0  0  0
   17.5213  -18.4188   17.3922 C   0  0  0  0  0  0  0  0  0  0  0  0
   17.5663  -19.2681   18.5425 N   0  0  0  0  0  0  0  0  0  0  0  0
   13.5641  -14.3767   18.4495 C   0  0  0  0  0  0  0  0  0  0  0  0
   13.8651  -14.3493   19.6910 O   0  0  0  0  0  0  0  0  0  0  0  0
   12.1868  -14.3424   18.0739 N   0  0  0  0  0  0  0  0  0  0  0  0
   11.1592  -14.2208   19.0833 C   0  0  1  0  0  0  0  0  0  0  0  0
    9.7807  -14.0889   18.4491 C   0  0  0  0  0  0  0  0  0  0  0  0
    8.7287  -13.8096   19.4295 C   0  0  0  0  0  0  0  0  0  0  0  0
    8.9269  -13.5948   20.7752 C   0  0  0  0  0  0  0  0  0  0  0  0
    7.7253  -13.3768   21.3166 N   0  0  0  0  0  0  0  0  0  0  0  0
    6.8117  -13.4520   20.3493 C   0  0  0  0  0  0  0  0  0  0  0  0
    7.4155  -13.7148   19.1998 N   0  0  0  0  0  0  0  0  0  0  0  0
   11.1296  -15.4525   19.9069 C   0  0  0  0  0  0  0  0  0  0  0  0
   11.4913  -16.5264   19.3607 O   0  0  0  0  0  0  0  0  0  0  0  0
   10.7088  -15.3810   21.2378 N   0  0  0  0  0  0  0  0  0  0  0  0
   10.8983  -16.5661   22.1129 C   0  0  1  0  0  0  0  0  0  0  0  0
   12.3622  -16.7751   22.1660 C   0  0  0  0  0  0  0  0  0  0  0  0
   12.8866  -18.0451   21.6405 C   0  0  0  0  0  0  0  0  0  0  0  0
   12.2197  -19.0699   21.0333 C   0  0  0  0  0  0  0  0  0  0  0  0
   13.1022  -20.0428   20.6299 N   0  0  0  0  0  0  0  0  0  0  0  0
   14.2989  -19.5849   21.0022 C   0  0  0  0  0  0  0  0  0  0  0  0
   14.2133  -18.4063   21.6028 N   0  0  0  0  0  0  0  0  0  0  0  0
   10.2958  -16.2107   23.4366 C   0  0  0  0  0  0  0  0  0  0  0  0
    9.9045  -17.2160   24.3478 O   0  0  0  0  0  0  0  0  0  0  0  0
   10.1053  -15.0534   23.8115 O   0  0  0  0  0  0  0  0  0  0  0  0
  2  1  1  1
  2  3  1  0
  3  4  1  0
  4  5  1  0
  5  6  1  0
  7  6  1  0
  8  2  1  0
  8  9  2  0
 10  8  1  0
 11 10  1  0
 11 12  1  6
 13 12  1  0
 14 13  2  0
 15 16  1  0
 15 14  1  0
 16 17  2  0
 17 13  1  0
 18 11  1  0
 19 18  2  0
 20 18  1  0
 21 20  1  0
 21 28  1  0
 21 22  1  1
 23 24  2  0
 23 22  1  0
 25 24  1  0
 26 27  2  0
 26 25  1  0
 27 23  1  0
 28 29  1  0
 30 28  2  0
M  END
$$$$
