KHH.pdb
     RDKit          3D

 30 31  0  0  1  0  0  0  0  0999 V2000
   13.1716  -14.1522   17.6841 N   0  0  0  0  0  0  0  0  0  0  0  0
   13.2959  -15.1730   18.7188 C   0  0  1  0  0  0  0  0  0  0  0  0
   14.7469  -15.4627   18.8772 C   0  0  0  0  0  0  0  0  0  0  0  0
   15.4965  -15.5797   17.5910 C   0  0  0  0  0  0  0  0  0  0  0  0
   16.9566  -15.8774   17.8662 C   0  0  0  0  0  0  0  0  0  0  0  0
   17.7501  -16.0005   16.5834 C   0  0  0  0  0  0  0  0  0  0  0  0
   19.1560  -16.1112   16.8236 N   0  0  0  0  0  0  0  0  0  0  0  0
   12.5859  -14.7518   19.9233 C   0  0  0  0  0  0  0  0  0  0  0  0
   12.9919  -13.7752   20.6403 O   0  0  0  0  0  0  0  0  0  0  0  0
   11.4028  -15.4488   20.3154 N   0  0  0  0  0  0  0  0  0  0  0  0
   10.7036  -15.0745   21.5241 C   0  0  1  0  0  0  0  0  0  0  0  0
    9.2223  -15.4160   21.4285 C   0  0  0  0  0  0  0  0  0  0  0  0
    8.5274  -14.6461   20.3939 C   0  0  0  0  0  0  0  0  0  0  0  0
    9.0973  -13.6732   19.6035 C   0  0  0  0  0  0  0  0  0  0  0  0
    8.1378  -13.2164   18.7942 N   0  0  0  0  0  0  0  0  0  0  0  0
    7.0125  -13.8765   19.0667 C   0  0  0  0  0  0  0  0  0  0  0  0
    7.2431  -14.7470   20.0383 N   0  0  0  0  0  0  0  0  0  0  0  0
   11.2435  -15.8501   22.6657 C   0  0  0  0  0  0  0  0  0  0  0  0
   12.4866  -15.8175   22.8551 O   0  0  0  0  0  0  0  0  0  0  0  0
   10.3697  -16.5780   23.4782 N   0  0  0  0  0  0  0  0  0  0  0  0
   10.5268  -16.4944   24.9529 C   0  0  1  0  0  0  0  0  0  0  0  0
   10.3245  -15.0657   25.2810 C   0  0  0  0  0  0  0  0  0  0  0  0
   10.4789  -14.6633   26.6875 C   0  0  0  0  0  0  0  0  0  0  0  0
   10.8729  -15.4089   27.7611 C   0  0  0  0  0  0  0  0  0  0  0  0
   10.9514  -14.6238   28.8861 N   0  0  0  0  0  0  0  0  0  0  0  0
   10.6017  -13.4054   28.4695 C   0  0  0  0  0  0  0  0  0  0  0  0
   10.3153  -13.3876   27.1754 N   0  0  0  0  0  0  0  0  0  0  0  0
    9.4846  -17.3964   25.5376 C   0  0  0  0  0  0  0  0  0  0  0  0
    9.7789  -18.2207   26.6456 O   0  0  0  0  0  0  0  0  0  0  0  0
    8.3341  -17.4798   25.1066 O   0  0  0  0  0  0  0  0  0  0  0  0
  2  1  1  6
  2  3  1  0
  3  4  1  0
  4  5  1  0
  5  6  1  0
  7  6  1  0
  8  2  1  0
  8  9  2  0
 10  8  1  0
 11 10  1  0
 11 12  1  6
 13 12  1  0
 14 13  2  0
 15 16  1  0
 15 14  1  0
 16 17  2  0
 17 13  1  0
 18 11  1  0
 19 18  2  0
 20 18  1  0
 21 20  1  0
 21 28  1  0
 21 22  1  1
 23 24  2  0
 23 22  1  0
 25 24  1  0
 26 27  2  0
 26 25  1  0
 27 23  1  0
 28 29  1  0
 30 28  2  0
M  END
$$$$
