KHH.pdb
     RDKit          3D

 30 31  0  0  1  0  0  0  0  0999 V2000
   13.0234  -22.0601   15.3059 N   0  0  0  0  0  0  0  0  0  0  0  0
   12.4317  -21.3769   16.4511 C   0  0  1  0  0  0  0  0  0  0  0  0
   12.0837  -22.4208   17.4529 C   0  0  0  0  0  0  0  0  0  0  0  0
   11.1675  -23.4839   16.9430 C   0  0  0  0  0  0  0  0  0  0  0  0
   10.0859  -23.7712   17.9647 C   0  0  0  0  0  0  0  0  0  0  0  0
    9.1296  -24.8379   17.4768 C   0  0  0  0  0  0  0  0  0  0  0  0
    8.1406  -25.1690   18.4560 N   0  0  0  0  0  0  0  0  0  0  0  0
   13.3188  -20.3115   16.9097 C   0  0  0  0  0  0  0  0  0  0  0  0
   14.5891  -20.4486   16.9225 O   0  0  0  0  0  0  0  0  0  0  0  0
   12.7547  -19.0785   17.3580 N   0  0  0  0  0  0  0  0  0  0  0  0
   13.6127  -18.0073   17.8119 C   0  0  1  0  0  0  0  0  0  0  0  0
   12.8497  -16.6916   17.8947 C   0  0  0  0  0  0  0  0  0  0  0  0
   13.7057  -15.5607   18.2609 C   0  0  0  0  0  0  0  0  0  0  0  0
   14.5699  -14.9048   17.4127 C   0  0  0  0  0  0  0  0  0  0  0  0
   15.1600  -13.9414   18.1254 N   0  0  0  0  0  0  0  0  0  0  0  0
   14.6847  -13.9918   19.3695 C   0  0  0  0  0  0  0  0  0  0  0  0
   13.8003  -14.9740   19.4580 N   0  0  0  0  0  0  0  0  0  0  0  0
   14.0905  -18.3060   19.1825 C   0  0  0  0  0  0  0  0  0  0  0  0
   13.3105  -18.9295   19.9476 O   0  0  0  0  0  0  0  0  0  0  0  0
   15.3677  -17.8927   19.5719 N   0  0  0  0  0  0  0  0  0  0  0  0
   15.8522  -18.2494   20.9300 C   0  0  1  0  0  0  0  0  0  0  0  0
   16.7953  -19.3701   20.7200 C   0  0  0  0  0  0  0  0  0  0  0  0
   16.5356  -20.6220   21.4477 C   0  0  0  0  0  0  0  0  0  0  0  0
   15.4802  -20.9529   22.2480 C   0  0  0  0  0  0  0  0  0  0  0  0
   15.5938  -22.2536   22.6762 N   0  0  0  0  0  0  0  0  0  0  0  0
   16.7255  -22.6915   22.1214 C   0  0  0  0  0  0  0  0  0  0  0  0
   17.3115  -21.7561   21.3873 N   0  0  0  0  0  0  0  0  0  0  0  0
   16.4997  -17.0172   21.4813 C   0  0  0  0  0  0  0  0  0  0  0  0
   16.5378  -15.8214   20.7313 O   0  0  0  0  0  0  0  0  0  0  0  0
   17.0277  -16.9622   22.5924 O   0  0  0  0  0  0  0  0  0  0  0  0
  2  1  1  6
  2  3  1  0
  3  4  1  0
  4  5  1  0
  5  6  1  0
  7  6  1  0
  8  2  1  0
  8  9  2  0
 10  8  1  0
 11 10  1  0
 11 12  1  1
 13 12  1  0
 14 13  2  0
 15 16  1  0
 15 14  1  0
 16 17  2  0
 17 13  1  0
 18 11  1  0
 19 18  2  0
 20 18  1  0
 21 20  1  0
 21 28  1  0
 21 22  1  6
 23 24  2  0
 23 22  1  0
 25 24  1  0
 26 27  2  0
 26 25  1  0
 27 23  1  0
 28 29  1  0
 30 28  2  0
M  END
$$$$
