KHH.pdb
     RDKit          3D

 30 31  0  0  1  0  0  0  0  0999 V2000
   11.1363  -17.1601   18.9845 N   0  0  0  0  0  0  0  0  0  0  0  0
    9.8188  -17.2385   19.6060 C   0  0  1  0  0  0  0  0  0  0  0  0
    9.3443  -18.6407   19.4531 C   0  0  0  0  0  0  0  0  0  0  0  0
   10.0701  -19.6332   20.3005 C   0  0  0  0  0  0  0  0  0  0  0  0
    9.5574  -21.0308   20.0175 C   0  0  0  0  0  0  0  0  0  0  0  0
   10.3685  -22.0790   20.7482 C   0  0  0  0  0  0  0  0  0  0  0  0
    9.8423  -23.3967   20.5659 N   0  0  0  0  0  0  0  0  0  0  0  0
    9.8790  -16.7221   20.9705 C   0  0  0  0  0  0  0  0  0  0  0  0
   10.9376  -16.8112   21.6806 O   0  0  0  0  0  0  0  0  0  0  0  0
    8.7236  -16.0984   21.5321 N   0  0  0  0  0  0  0  0  0  0  0  0
    8.7780  -15.5226   22.8569 C   0  0  1  0  0  0  0  0  0  0  0  0
    7.4497  -14.8765   23.2288 C   0  0  0  0  0  0  0  0  0  0  0  0
    7.5275  -14.0854   24.4592 C   0  0  0  0  0  0  0  0  0  0  0  0
    8.6812  -13.8017   25.1555 C   0  0  0  0  0  0  0  0  0  0  0  0
    8.3285  -13.0618   26.2101 N   0  0  0  0  0  0  0  0  0  0  0  0
    7.0075  -12.8890   26.1759 C   0  0  0  0  0  0  0  0  0  0  0  0
    6.5149  -13.5090   25.1138 N   0  0  0  0  0  0  0  0  0  0  0  0
    9.0193  -16.5951   23.8507 C   0  0  0  0  0  0  0  0  0  0  0  0
    8.3664  -17.6629   23.7244 O   0  0  0  0  0  0  0  0  0  0  0  0
    9.9468  -16.3882   24.8757 N   0  0  0  0  0  0  0  0  0  0  0  0
   10.2160  -17.4933   25.8310 C   0  0  1  0  0  0  0  0  0  0  0  0
   11.6877  -17.6467   25.8371 C   0  0  0  0  0  0  0  0  0  0  0  0
   12.2907  -18.4576   24.7680 C   0  0  0  0  0  0  0  0  0  0  0  0
   11.7133  -18.9689   23.6415 C   0  0  0  0  0  0  0  0  0  0  0  0
   12.6532  -19.6094   22.8705 N   0  0  0  0  0  0  0  0  0  0  0  0
   13.7936  -19.4721   23.5494 C   0  0  0  0  0  0  0  0  0  0  0  0
   13.6207  -18.7966   24.6768 N   0  0  0  0  0  0  0  0  0  0  0  0
    9.6542  -17.0556   27.1479 C   0  0  0  0  0  0  0  0  0  0  0  0
    9.5904  -17.9476   28.2407 O   0  0  0  0  0  0  0  0  0  0  0  0
    9.2220  -15.9229   27.3634 O   0  0  0  0  0  0  0  0  0  0  0  0
  2  1  1  1
  2  3  1  0
  3  4  1  0
  4  5  1  0
  5  6  1  0
  7  6  1  0
  8  2  1  0
  8  9  2  0
 10  8  1  0
 11 10  1  0
 11 12  1  1
 13 12  1  0
 14 13  2  0
 15 16  1  0
 15 14  1  0
 16 17  2  0
 17 13  1  0
 18 11  1  0
 19 18  2  0
 20 18  1  0
 21 20  1  0
 21 28  1  0
 21 22  1  1
 23 24  2  0
 23 22  1  0
 25 24  1  0
 26 27  2  0
 26 25  1  0
 27 23  1  0
 28 29  1  0
 30 28  2  0
M  END
$$$$
