KHH.pdb
     RDKit          3D

 30 31  0  0  1  0  0  0  0  0999 V2000
    9.1479  -15.3669   16.3891 N   0  0  0  0  0  0  0  0  0  0  0  0
    9.6229  -14.5700   17.5150 C   0  0  1  0  0  0  0  0  0  0  0  0
    8.4484  -14.3002   18.3881 C   0  0  0  0  0  0  0  0  0  0  0  0
    8.7512  -13.4655   19.5887 C   0  0  0  0  0  0  0  0  0  0  0  0
    7.5165  -13.3396   20.4582 C   0  0  0  0  0  0  0  0  0  0  0  0
    7.7860  -12.4993   21.6878 C   0  0  0  0  0  0  0  0  0  0  0  0
    6.6082  -12.2936   22.4732 N   0  0  0  0  0  0  0  0  0  0  0  0
   10.7610  -15.2299   18.1488 C   0  0  0  0  0  0  0  0  0  0  0  0
   10.7853  -16.4918   18.3479 O   0  0  0  0  0  0  0  0  0  0  0  0
   11.8817  -14.4463   18.5598 N   0  0  0  0  0  0  0  0  0  0  0  0
   13.0263  -15.0788   19.1759 C   0  0  1  0  0  0  0  0  0  0  0  0
   14.2669  -14.2033   19.0562 C   0  0  0  0  0  0  0  0  0  0  0  0
   15.0238  -14.4554   17.8276 C   0  0  0  0  0  0  0  0  0  0  0  0
   14.7517  -15.4457   16.9102 C   0  0  0  0  0  0  0  0  0  0  0  0
   15.6651  -15.3415   15.9411 N   0  0  0  0  0  0  0  0  0  0  0  0
   16.4763  -14.3270   16.2393 C   0  0  0  0  0  0  0  0  0  0  0  0
   16.0915  -13.7844   17.3850 N   0  0  0  0  0  0  0  0  0  0  0  0
   12.7711  -15.2547   20.6251 C   0  0  0  0  0  0  0  0  0  0  0  0
   11.7582  -14.6882   21.1104 O   0  0  0  0  0  0  0  0  0  0  0  0
   13.6480  -16.0294   21.3896 N   0  0  0  0  0  0  0  0  0  0  0  0
   13.1583  -16.6191   22.6619 C   0  0  1  0  0  0  0  0  0  0  0  0
   11.9703  -17.4164   22.2843 C   0  0  0  0  0  0  0  0  0  0  0  0
   10.6470  -16.8357   22.5595 C   0  0  0  0  0  0  0  0  0  0  0  0
   10.3286  -15.5887   23.0148 C   0  0  0  0  0  0  0  0  0  0  0  0
    8.9645  -15.4318   23.0661 N   0  0  0  0  0  0  0  0  0  0  0  0
    8.4767  -16.5968   22.6357 C   0  0  0  0  0  0  0  0  0  0  0  0
    9.4402  -17.4530   22.3260 N   0  0  0  0  0  0  0  0  0  0  0  0
   14.2850  -17.4432   23.2032 C   0  0  0  0  0  0  0  0  0  0  0  0
   15.4265  -17.7148   22.4177 O   0  0  0  0  0  0  0  0  0  0  0  0
   14.2947  -17.9266   24.3357 O   0  0  0  0  0  0  0  0  0  0  0  0
  2  1  1  6
  2  3  1  0
  3  4  1  0
  4  5  1  0
  5  6  1  0
  7  6  1  0
  8  2  1  0
  8  9  2  0
 10  8  1  0
 11 10  1  0
 11 12  1  1
 13 12  1  0
 14 13  2  0
 15 16  1  0
 15 14  1  0
 16 17  2  0
 17 13  1  0
 18 11  1  0
 19 18  2  0
 20 18  1  0
 21 20  1  0
 21 28  1  0
 21 22  1  6
 23 24  2  0
 23 22  1  0
 25 24  1  0
 26 27  2  0
 26 25  1  0
 27 23  1  0
 28 29  1  0
 30 28  2  0
M  END
$$$$
