KHH.pdb
     RDKit          3D

 30 31  0  0  1  0  0  0  0  0999 V2000
   12.1344  -19.6090   15.2415 N   0  0  0  0  0  0  0  0  0  0  0  0
   12.5841  -20.7910   15.9686 C   0  0  1  0  0  0  0  0  0  0  0  0
   14.0348  -20.9572   15.6814 C   0  0  0  0  0  0  0  0  0  0  0  0
   14.6495  -19.8206   14.9329 C   0  0  0  0  0  0  0  0  0  0  0  0
   15.5050  -20.3481   13.7988 C   0  0  0  0  0  0  0  0  0  0  0  0
   16.2773  -19.2365   13.1218 C   0  0  0  0  0  0  0  0  0  0  0  0
   17.0959  -19.7181   12.0520 N   0  0  0  0  0  0  0  0  0  0  0  0
   12.2126  -20.6823   17.3766 C   0  0  0  0  0  0  0  0  0  0  0  0
   12.5884  -19.6989   18.1006 O   0  0  0  0  0  0  0  0  0  0  0  0
   11.4057  -21.7025   17.9660 N   0  0  0  0  0  0  0  0  0  0  0  0
   11.0472  -21.6307   19.3645 C   0  0  1  0  0  0  0  0  0  0  0  0
   10.0135  -22.6912   19.7206 C   0  0  0  0  0  0  0  0  0  0  0  0
    9.6057  -22.6376   21.1265 C   0  0  0  0  0  0  0  0  0  0  0  0
    9.9750  -23.5381   22.1008 C   0  0  0  0  0  0  0  0  0  0  0  0
    9.3987  -23.1404   23.2383 N   0  0  0  0  0  0  0  0  0  0  0  0
    8.6970  -22.0356   22.9869 C   0  0  0  0  0  0  0  0  0  0  0  0
    8.8190  -21.7250   21.7048 N   0  0  0  0  0  0  0  0  0  0  0  0
   12.2427  -21.9100   20.1945 C   0  0  0  0  0  0  0  0  0  0  0  0
   13.2486  -22.3999   19.6195 O   0  0  0  0  0  0  0  0  0  0  0  0
   12.2131  -21.6252   21.5626 N   0  0  0  0  0  0  0  0  0  0  0  0
   13.4586  -21.7898   22.3549 C   0  0  1  0  0  0  0  0  0  0  0  0
   14.3958  -20.7814   21.8124 C   0  0  0  0  0  0  0  0  0  0  0  0
   15.3795  -21.2344   20.8167 C   0  0  0  0  0  0  0  0  0  0  0  0
   15.2981  -22.2704   19.9314 C   0  0  0  0  0  0  0  0  0  0  0  0
   16.4132  -22.3029   19.1291 N   0  0  0  0  0  0  0  0  0  0  0  0
   17.1560  -21.2758   19.5458 C   0  0  0  0  0  0  0  0  0  0  0  0
   16.5787  -20.6191   20.5422 N   0  0  0  0  0  0  0  0  0  0  0  0
   13.0817  -21.5494   23.7838 C   0  0  0  0  0  0  0  0  0  0  0  0
   13.8478  -22.0953   24.8368 O   0  0  0  0  0  0  0  0  0  0  0  0
   12.1078  -20.8798   24.1297 O   0  0  0  0  0  0  0  0  0  0  0  0
  2  1  1  6
  2  3  1  0
  3  4  1  0
  4  5  1  0
  5  6  1  0
  7  6  1  0
  8  2  1  0
  8  9  2  0
 10  8  1  0
 11 10  1  0
 11 12  1  6
 13 12  1  0
 14 13  2  0
 15 16  1  0
 15 14  1  0
 16 17  2  0
 17 13  1  0
 18 11  1  0
 19 18  2  0
 20 18  1  0
 21 20  1  0
 21 28  1  0
 21 22  1  6
 23 24  2  0
 23 22  1  0
 25 24  1  0
 26 27  2  0
 26 25  1  0
 27 23  1  0
 28 29  1  0
 30 28  2  0
M  END
$$$$
