KHH.pdb
     RDKit          3D

 30 31  0  0  1  0  0  0  0  0999 V2000
   10.4625  -18.7973   19.2709 N   0  0  0  0  0  0  0  0  0  0  0  0
   11.5270  -17.8530   19.5925 C   0  0  1  0  0  0  0  0  0  0  0  0
   11.9155  -17.1807   18.3230 C   0  0  0  0  0  0  0  0  0  0  0  0
   11.8514  -18.0577   17.1161 C   0  0  0  0  0  0  0  0  0  0  0  0
   10.7134  -17.6200   16.2163 C   0  0  0  0  0  0  0  0  0  0  0  0
   10.6566  -18.4468   14.9499 C   0  0  0  0  0  0  0  0  0  0  0  0
    9.6475  -17.9867   14.0463 N   0  0  0  0  0  0  0  0  0  0  0  0
   11.1058  -16.9788   20.6838 C   0  0  0  0  0  0  0  0  0  0  0  0
   11.9043  -16.1406   21.2246 O   0  0  0  0  0  0  0  0  0  0  0  0
    9.7634  -17.0596   21.1640 N   0  0  0  0  0  0  0  0  0  0  0  0
    9.3271  -16.2147   22.2528 C   0  0  1  0  0  0  0  0  0  0  0  0
    7.9415  -15.6431   21.9818 C   0  0  0  0  0  0  0  0  0  0  0  0
    7.9294  -14.6829   20.8756 C   0  0  0  0  0  0  0  0  0  0  0  0
    9.0280  -14.2964   20.1406 C   0  0  0  0  0  0  0  0  0  0  0  0
    8.5999  -13.4141   19.2336 N   0  0  0  0  0  0  0  0  0  0  0  0
    7.2866  -13.2544   19.3940 C   0  0  0  0  0  0  0  0  0  0  0  0
    6.8732  -14.0230   20.3906 N   0  0  0  0  0  0  0  0  0  0  0  0
    9.2164  -17.0231   23.4898 C   0  0  0  0  0  0  0  0  0  0  0  0
    8.8865  -18.2309   23.3680 O   0  0  0  0  0  0  0  0  0  0  0  0
    9.4774  -16.4277   24.7272 N   0  0  0  0  0  0  0  0  0  0  0  0
    9.8781  -17.2919   25.8668 C   0  0  1  0  0  0  0  0  0  0  0  0
   11.0902  -18.0029   25.4030 C   0  0  0  0  0  0  0  0  0  0  0  0
   11.7749  -18.8783   26.3669 C   0  0  0  0  0  0  0  0  0  0  0  0
   11.2463  -19.6406   27.3685 C   0  0  0  0  0  0  0  0  0  0  0  0
   12.2342  -20.3651   27.9907 N   0  0  0  0  0  0  0  0  0  0  0  0
   13.3534  -20.0265   27.3480 C   0  0  0  0  0  0  0  0  0  0  0  0
   13.1233  -19.1497   26.3808 N   0  0  0  0  0  0  0  0  0  0  0  0
   10.1283  -16.3733   27.0223 C   0  0  0  0  0  0  0  0  0  0  0  0
   10.0120  -14.9739   26.8735 O   0  0  0  0  0  0  0  0  0  0  0  0
   10.4430  -16.7615   28.1476 O   0  0  0  0  0  0  0  0  0  0  0  0
  2  1  1  6
  2  3  1  0
  3  4  1  0
  4  5  1  0
  5  6  1  0
  7  6  1  0
  8  2  1  0
  8  9  2  0
 10  8  1  0
 11 10  1  0
 11 12  1  6
 13 12  1  0
 14 13  2  0
 15 16  1  0
 15 14  1  0
 16 17  2  0
 17 13  1  0
 18 11  1  0
 19 18  2  0
 20 18  1  0
 21 20  1  0
 21 28  1  0
 21 22  1  6
 23 24  2  0
 23 22  1  0
 25 24  1  0
 26 27  2  0
 26 25  1  0
 27 23  1  0
 28 29  1  0
 30 28  2  0
M  END
$$$$
