KHH.pdb
     RDKit          3D

 30 31  0  0  1  0  0  0  0  0999 V2000
    9.4674  -19.3579   18.4836 N   0  0  0  0  0  0  0  0  0  0  0  0
   10.4881  -18.3302   18.3096 C   0  0  1  0  0  0  0  0  0  0  0  0
   10.1714  -17.6065   17.0485 C   0  0  0  0  0  0  0  0  0  0  0  0
    9.3621  -18.3944   16.0718 C   0  0  0  0  0  0  0  0  0  0  0  0
    9.2471  -17.6385   14.7635 C   0  0  0  0  0  0  0  0  0  0  0  0
    8.2433  -18.2857   13.8339 C   0  0  0  0  0  0  0  0  0  0  0  0
    8.0885  -17.5589   12.6116 N   0  0  0  0  0  0  0  0  0  0  0  0
   10.5850  -17.5136   19.5163 C   0  0  0  0  0  0  0  0  0  0  0  0
   11.6458  -16.8644   19.8093 O   0  0  0  0  0  0  0  0  0  0  0  0
    9.4641  -17.4352   20.3976 N   0  0  0  0  0  0  0  0  0  0  0  0
    9.5118  -16.5808   21.5626 C   0  0  1  0  0  0  0  0  0  0  0  0
    8.2217  -15.7848   21.7117 C   0  0  0  0  0  0  0  0  0  0  0  0
    8.0975  -14.7132   20.7207 C   0  0  0  0  0  0  0  0  0  0  0  0
    9.0357  -14.3970   19.7636 C   0  0  0  0  0  0  0  0  0  0  0  0
    8.5482  -13.3689   19.0640 N   0  0  0  0  0  0  0  0  0  0  0  0
    7.3531  -13.0538   19.5626 C   0  0  0  0  0  0  0  0  0  0  0  0
    7.0737  -13.8675   20.5700 N   0  0  0  0  0  0  0  0  0  0  0  0
    9.6369  -17.4153   22.7808 C   0  0  0  0  0  0  0  0  0  0  0  0
    9.2245  -18.6020   22.7179 O   0  0  0  0  0  0  0  0  0  0  0  0
   10.1984  -16.8661   23.9370 N   0  0  0  0  0  0  0  0  0  0  0  0
   10.7518  -17.7812   24.9679 C   0  0  1  0  0  0  0  0  0  0  0  0
   11.8378  -18.5185   24.2850 C   0  0  0  0  0  0  0  0  0  0  0  0
   12.6445  -19.4442   25.0953 C   0  0  0  0  0  0  0  0  0  0  0  0
   12.4965  -19.7994   26.4051 C   0  0  0  0  0  0  0  0  0  0  0  0
   13.4259  -20.7505   26.7509 N   0  0  0  0  0  0  0  0  0  0  0  0
   14.1256  -20.9572   25.6337 C   0  0  0  0  0  0  0  0  0  0  0  0
   13.6937  -20.2037   24.6323 N   0  0  0  0  0  0  0  0  0  0  0  0
   11.2312  -16.9106   26.0876 C   0  0  0  0  0  0  0  0  0  0  0  0
   11.6671  -17.4734   27.3071 O   0  0  0  0  0  0  0  0  0  0  0  0
   11.2774  -15.6817   26.0254 O   0  0  0  0  0  0  0  0  0  0  0  0
  2  1  1  1
  2  3  1  0
  3  4  1  0
  4  5  1  0
  5  6  1  0
  7  6  1  0
  8  2  1  0
  8  9  2  0
 10  8  1  0
 11 10  1  0
 11 12  1  1
 13 12  1  0
 14 13  2  0
 15 16  1  0
 15 14  1  0
 16 17  2  0
 17 13  1  0
 18 11  1  0
 19 18  2  0
 20 18  1  0
 21 20  1  0
 21 28  1  0
 21 22  1  6
 23 24  2  0
 23 22  1  0
 25 24  1  0
 26 27  2  0
 26 25  1  0
 27 23  1  0
 28 29  1  0
 30 28  2  0
M  END
$$$$
