NYP.pdb
     RDKit          3D

 28 29  0  0  1  0  0  0  0  0999 V2000
   18.8129  -20.8351  -13.2700 N   0  0  0  0  0  0  0  0  0  0  0  0
   19.1774  -20.4441  -11.9507 C   0  0  0  0  0  0  0  0  0  0  0  0
   18.2608  -20.3094  -11.1003 O   0  0  0  0  0  0  0  0  0  0  0  0
   20.6105  -20.2223  -11.6684 C   0  0  0  0  0  0  0  0  0  0  0  0
   21.3820  -20.4395  -12.9543 C   0  0  2  0  0  0  0  0  0  0  0  0
   21.3247  -21.8662  -13.2647 N   0  0  0  0  0  0  0  0  0  0  0  0
   22.7910  -19.9836  -12.8407 C   0  0  0  0  0  0  0  0  0  0  0  0
   23.1285  -18.8746  -12.4045 O   0  0  0  0  0  0  0  0  0  0  0  0
   26.3839  -19.9038   -6.9493 O   0  0  0  0  0  0  0  0  0  0  0  0
   26.3213  -20.2946   -8.2896 C   0  0  0  0  0  0  0  0  0  0  0  0
   27.4263  -20.2684   -9.1101 C   0  0  0  0  0  0  0  0  0  0  0  0
   27.3125  -20.6640  -10.4255 C   0  0  0  0  0  0  0  0  0  0  0  0
   26.1146  -21.0982  -10.9823 C   0  0  0  0  0  0  0  0  0  0  0  0
   26.0441  -21.5385  -12.4265 C   0  0  0  0  0  0  0  0  0  0  0  0
   25.2322  -20.5624  -13.2089 C   0  0  2  0  0  0  0  0  0  0  0  0
   23.8225  -20.8560  -13.2509 N   0  0  0  0  0  0  0  0  0  0  0  0
   25.6838  -20.4369  -14.5938 C   0  0  0  0  0  0  0  0  0  0  0  0
   25.2830  -21.3551  -15.4291 O   0  0  0  0  0  0  0  0  0  0  0  0
   25.0249  -21.1177  -10.1489 C   0  0  0  0  0  0  0  0  0  0  0  0
   25.1235  -20.7215   -8.8191 C   0  0  0  0  0  0  0  0  0  0  0  0
   26.5053  -19.4556  -15.1846 N   0  0  0  0  0  0  0  0  0  0  0  0
   27.0827  -18.3524  -14.4010 C   0  0  0  0  0  0  0  0  0  0  0  0
   28.3932  -18.0949  -15.0951 C   0  0  0  0  0  0  0  0  0  0  0  0
   27.8881  -18.0770  -16.5471 C   0  0  0  0  0  0  0  0  0  0  0  0
   26.9230  -19.3013  -16.5365 C   0  0  1  0  0  0  0  0  0  0  0  0
   27.6899  -20.4573  -17.0848 C   0  0  0  0  0  0  0  0  0  0  0  0
   27.7775  -20.5599  -18.3333 O   0  0  0  0  0  0  0  0  0  0  0  0
   28.3076  -21.4118  -16.3075 O   0  0  0  0  0  0  0  0  0  0  0  0
  1  2  1  0
  2  3  2  0
  4  5  1  0
  4  2  1  0
  5  6  1  1
  7  5  1  0
  7  8  2  0
  9 10  1  0
 10 11  2  0
 11 12  1  0
 13 12  2  0
 13 14  1  0
 15 14  1  6
 15 16  1  0
 16  7  1  0
 17 15  1  0
 18 17  2  0
 19 13  1  0
 20 10  1  0
 20 19  2  0
 21 22  1  0
 21 17  1  0
 23 22  1  0
 24 23  1  0
 24 25  1  0
 25 21  1  0
 25 26  1  1
 27 26  2  0
 28 26  1  0
M  END
$$$$
