NYP.pdb
     RDKit          3D

 28 29  0  0  1  0  0  0  0  0999 V2000
   26.5069  -19.9442   -8.3947 N   0  0  0  0  0  0  0  0  0  0  0  0
   25.2322  -20.5747   -8.4564 C   0  0  0  0  0  0  0  0  0  0  0  0
   24.5309  -20.5924   -7.4126 O   0  0  0  0  0  0  0  0  0  0  0  0
   24.8176  -21.1672   -9.7447 C   0  0  0  0  0  0  0  0  0  0  0  0
   25.9651  -21.0160  -10.7226 C   0  0  2  0  0  0  0  0  0  0  0  0
   26.3204  -19.5993  -10.7666 N   0  0  0  0  0  0  0  0  0  0  0  0
   25.6094  -21.5099  -12.0774 C   0  0  0  0  0  0  0  0  0  0  0  0
   25.5043  -22.7078  -12.3738 O   0  0  0  0  0  0  0  0  0  0  0  0
   19.3992  -22.9236  -12.3454 O   0  0  0  0  0  0  0  0  0  0  0  0
   20.4602  -22.2658  -12.9735 C   0  0  0  0  0  0  0  0  0  0  0  0
   20.8327  -20.9862  -12.6289 C   0  0  0  0  0  0  0  0  0  0  0  0
   21.8865  -20.3807  -13.2789 C   0  0  0  0  0  0  0  0  0  0  0  0
   22.6111  -21.0062  -14.2875 C   0  0  0  0  0  0  0  0  0  0  0  0
   23.7706  -20.3067  -14.9590 C   0  0  0  0  0  0  0  0  0  0  0  0
   25.0556  -20.8861  -14.4721 C   0  0  2  0  0  0  0  0  0  0  0  0
   25.3730  -20.5690  -13.1032 N   0  0  0  0  0  0  0  0  0  0  0  0
   26.2011  -20.4754  -15.2823 C   0  0  0  0  0  0  0  0  0  0  0  0
   26.4265  -19.1941  -15.3763 O   0  0  0  0  0  0  0  0  0  0  0  0
   22.2253  -22.2811  -14.6166 C   0  0  0  0  0  0  0  0  0  0  0  0
   21.1637  -22.9057  -13.9700 C   0  0  0  0  0  0  0  0  0  0  0  0
   27.1244  -21.2653  -15.9970 N   0  0  0  0  0  0  0  0  0  0  0  0
   27.0946  -22.7351  -15.9417 C   0  0  0  0  0  0  0  0  0  0  0  0
   27.5778  -23.1343  -17.3102 C   0  0  0  0  0  0  0  0  0  0  0  0
   28.7977  -22.2037  -17.4072 C   0  0  0  0  0  0  0  0  0  0  0  0
   28.2000  -20.8781  -16.8450 C   0  0  1  0  0  0  0  0  0  0  0  0
   27.7970  -20.0556  -18.0223 C   0  0  0  0  0  0  0  0  0  0  0  0
   28.6997  -19.4379  -18.6391 O   0  0  0  0  0  0  0  0  0  0  0  0
   26.5010  -19.9365  -18.4730 O   0  0  0  0  0  0  0  0  0  0  0  0
  1  2  1  0
  2  3  2  0
  4  5  1  0
  4  2  1  0
  5  6  1  6
  7  5  1  0
  7  8  2  0
  9 10  1  0
 10 11  2  0
 11 12  1  0
 13 12  2  0
 13 14  1  0
 15 14  1  6
 15 16  1  0
 16  7  1  0
 17 15  1  0
 18 17  2  0
 19 13  1  0
 20 10  1  0
 20 19  2  0
 21 22  1  0
 21 17  1  0
 23 22  1  0
 24 23  1  0
 24 25  1  0
 25 21  1  0
 25 26  1  6
 27 26  2  0
 28 26  1  0
M  END
$$$$
