NYP.pdb
     RDKit          3D

 28 29  0  0  1  0  0  0  0  0999 V2000
   30.0209  -22.3052  -17.9566 N   0  0  0  0  0  0  0  0  0  0  0  0
   29.1639  -22.5676  -16.8507 C   0  0  0  0  0  0  0  0  0  0  0  0
   28.8812  -23.7658  -16.5939 O   0  0  0  0  0  0  0  0  0  0  0  0
   28.6630  -21.4128  -16.0773 C   0  0  0  0  0  0  0  0  0  0  0  0
   27.1570  -21.3585  -16.2356 C   0  0  2  0  0  0  0  0  0  0  0  0
   26.8747  -20.8623  -17.5806 N   0  0  0  0  0  0  0  0  0  0  0  0
   26.5216  -20.4900  -15.2119 C   0  0  0  0  0  0  0  0  0  0  0  0
   26.8044  -19.2962  -15.0423 O   0  0  0  0  0  0  0  0  0  0  0  0
   23.0443  -16.3174  -17.9200 O   0  0  0  0  0  0  0  0  0  0  0  0
   23.1255  -17.2463  -16.8790 C   0  0  0  0  0  0  0  0  0  0  0  0
   22.9867  -18.5987  -17.0947 C   0  0  0  0  0  0  0  0  0  0  0  0
   23.0747  -19.4744  -16.0340 C   0  0  0  0  0  0  0  0  0  0  0  0
   23.3014  -19.0567  -14.7271 C   0  0  0  0  0  0  0  0  0  0  0  0
   23.4073  -20.0575  -13.5994 C   0  0  0  0  0  0  0  0  0  0  0  0
   24.8433  -20.3439  -13.3166 C   0  0  2  0  0  0  0  0  0  0  0  0
   25.5316  -21.0435  -14.3711 N   0  0  0  0  0  0  0  0  0  0  0  0
   25.0317  -21.1225  -12.0936 C   0  0  0  0  0  0  0  0  0  0  0  0
   24.5957  -22.3518  -12.1052 O   0  0  0  0  0  0  0  0  0  0  0  0
   23.4375  -17.7055  -14.5323 C   0  0  0  0  0  0  0  0  0  0  0  0
   23.3509  -16.8090  -15.5924 C   0  0  0  0  0  0  0  0  0  0  0  0
   25.6251  -20.7452  -10.8718 N   0  0  0  0  0  0  0  0  0  0  0  0
   26.3818  -19.4914  -10.7312 C   0  0  0  0  0  0  0  0  0  0  0  0
   26.1205  -19.0978   -9.3021 C   0  0  0  0  0  0  0  0  0  0  0  0
   26.3853  -20.4570   -8.6340 C   0  0  0  0  0  0  0  0  0  0  0  0
   25.6452  -21.4151   -9.6162 C   0  0  1  0  0  0  0  0  0  0  0  0
   24.2985  -21.6747   -9.0296 C   0  0  0  0  0  0  0  0  0  0  0  0
   23.3269  -21.0253   -9.4892 O   0  0  0  0  0  0  0  0  0  0  0  0
   24.0578  -22.5820   -8.0218 O   0  0  0  0  0  0  0  0  0  0  0  0
  1  2  1  0
  2  3  2  0
  4  5  1  0
  4  2  1  0
  5  6  1  6
  7  5  1  0
  7  8  2  0
  9 10  1  0
 10 11  2  0
 11 12  1  0
 13 12  2  0
 13 14  1  0
 15 14  1  6
 15 16  1  0
 16  7  1  0
 17 15  1  0
 18 17  2  0
 19 13  1  0
 20 10  1  0
 20 19  2  0
 21 22  1  0
 21 17  1  0
 23 22  1  0
 24 23  1  0
 24 25  1  0
 25 21  1  0
 25 26  1  1
 27 26  2  0
 28 26  1  0
M  END
$$$$
