NYP.pdb
     RDKit          3D

 28 29  0  0  1  0  0  0  0  0999 V2000
   21.4333  -17.1800  -17.8001 N   0  0  0  0  0  0  0  0  0  0  0  0
   20.4906  -16.1135  -17.8138 C   0  0  0  0  0  0  0  0  0  0  0  0
   19.3868  -16.2936  -17.2386 O   0  0  0  0  0  0  0  0  0  0  0  0
   20.8726  -14.8644  -18.5039 C   0  0  0  0  0  0  0  0  0  0  0  0
   21.1040  -13.7982  -17.4523 C   0  0  2  0  0  0  0  0  0  0  0  0
   20.1887  -14.0675  -16.3456 N   0  0  0  0  0  0  0  0  0  0  0  0
   20.8884  -12.4308  -17.9905 C   0  0  0  0  0  0  0  0  0  0  0  0
   21.4771  -11.9735  -18.9796 O   0  0  0  0  0  0  0  0  0  0  0  0
   17.3461   -4.7668  -20.1380 O   0  0  0  0  0  0  0  0  0  0  0  0
   17.5477   -6.0305  -19.5762 C   0  0  0  0  0  0  0  0  0  0  0  0
   17.3835   -6.2657  -18.2299 C   0  0  0  0  0  0  0  0  0  0  0  0
   17.5948   -7.5305  -17.7245 C   0  0  0  0  0  0  0  0  0  0  0  0
   17.9737   -8.6072  -18.5187 C   0  0  0  0  0  0  0  0  0  0  0  0
   18.1768   -9.9802  -17.9201 C   0  0  0  0  0  0  0  0  0  0  0  0
   19.6348  -10.2402  -17.7456 C   0  0  2  0  0  0  0  0  0  0  0  0
   19.9580  -11.5862  -17.3469 N   0  0  0  0  0  0  0  0  0  0  0  0
   20.2533   -9.3452  -16.7688 C   0  0  0  0  0  0  0  0  0  0  0  0
   20.0408   -9.6111  -15.5096 O   0  0  0  0  0  0  0  0  0  0  0  0
   18.1319   -8.3532  -19.8576 C   0  0  0  0  0  0  0  0  0  0  0  0
   17.9226   -7.0822  -20.3829 C   0  0  0  0  0  0  0  0  0  0  0  0
   21.0637   -8.2109  -16.9777 N   0  0  0  0  0  0  0  0  0  0  0  0
   21.3781   -7.7199  -18.3284 C   0  0  0  0  0  0  0  0  0  0  0  0
   21.4942   -6.2325  -18.1284 C   0  0  0  0  0  0  0  0  0  0  0  0
   22.3880   -6.2348  -16.8776 C   0  0  0  0  0  0  0  0  0  0  0  0
   21.7139   -7.3623  -16.0381 C   0  0  1  0  0  0  0  0  0  0  0  0
   20.7980   -6.6892  -15.0721 C   0  0  0  0  0  0  0  0  0  0  0  0
   19.5622   -6.8279  -15.2463 O   0  0  0  0  0  0  0  0  0  0  0  0
   21.2247   -5.9314  -14.0041 O   0  0  0  0  0  0  0  0  0  0  0  0
  1  2  1  0
  2  3  2  0
  4  5  1  0
  4  2  1  0
  5  6  1  1
  7  5  1  0
  7  8  2  0
  9 10  1  0
 10 11  2  0
 11 12  1  0
 13 12  2  0
 13 14  1  0
 15 14  1  1
 15 16  1  0
 16  7  1  0
 17 15  1  0
 18 17  2  0
 19 13  1  0
 20 10  1  0
 20 19  2  0
 21 22  1  0
 21 17  1  0
 23 22  1  0
 24 23  1  0
 24 25  1  0
 25 21  1  0
 25 26  1  1
 27 26  2  0
 28 26  1  0
M  END
$$$$
