NYP.pdb
     RDKit          3D

 28 29  0  0  1  0  0  0  0  0999 V2000
   18.8988  -21.3328  -13.3194 N   0  0  0  0  0  0  0  0  0  0  0  0
   19.1546  -20.4894  -12.2016 C   0  0  0  0  0  0  0  0  0  0  0  0
   18.1851  -20.1755  -11.4645 O   0  0  0  0  0  0  0  0  0  0  0  0
   20.5441  -20.0385  -11.9817 C   0  0  0  0  0  0  0  0  0  0  0  0
   21.3825  -20.5112  -13.1521 C   0  0  2  0  0  0  0  0  0  0  0  0
   21.2887  -21.9686  -13.1987 N   0  0  0  0  0  0  0  0  0  0  0  0
   22.7987  -20.0802  -13.0311 C   0  0  0  0  0  0  0  0  0  0  0  0
   23.1517  -18.9231  -12.7657 O   0  0  0  0  0  0  0  0  0  0  0  0
   26.0097  -19.9014   -6.8594 O   0  0  0  0  0  0  0  0  0  0  0  0
   25.9789  -20.3620   -8.1785 C   0  0  0  0  0  0  0  0  0  0  0  0
   24.7993  -20.6742   -8.8155 C   0  0  0  0  0  0  0  0  0  0  0  0
   24.8222  -21.1251  -10.1177 C   0  0  0  0  0  0  0  0  0  0  0  0
   25.9993  -21.2857  -10.8404 C   0  0  0  0  0  0  0  0  0  0  0  0
   25.9716  -21.7672  -12.2728 C   0  0  0  0  0  0  0  0  0  0  0  0
   25.2331  -20.7848  -13.1176 C   0  0  2  0  0  0  0  0  0  0  0  0
   23.8189  -21.0361  -13.2278 N   0  0  0  0  0  0  0  0  0  0  0  0
   25.7600  -20.7047  -14.4790 C   0  0  0  0  0  0  0  0  0  0  0  0
   25.3441  -21.6061  -15.3252 O   0  0  0  0  0  0  0  0  0  0  0  0
   27.1645  -20.9690  -10.1887 C   0  0  0  0  0  0  0  0  0  0  0  0
   27.1579  -20.5130   -8.8746 C   0  0  0  0  0  0  0  0  0  0  0  0
   26.6704  -19.7841  -15.0364 N   0  0  0  0  0  0  0  0  0  0  0  0
   27.2789  -18.7117  -14.2339 C   0  0  0  0  0  0  0  0  0  0  0  0
   28.6351  -18.5456  -14.8652 C   0  0  0  0  0  0  0  0  0  0  0  0
   28.2028  -18.5110  -16.3402 C   0  0  0  0  0  0  0  0  0  0  0  0
   27.1618  -19.6712  -16.3674 C   0  0  1  0  0  0  0  0  0  0  0  0
   27.8785  -20.8794  -16.8689 C   0  0  0  0  0  0  0  0  0  0  0  0
   27.9961  -21.0140  -18.1119 O   0  0  0  0  0  0  0  0  0  0  0  0
   28.4192  -21.8493  -16.0542 O   0  0  0  0  0  0  0  0  0  0  0  0
  1  2  1  0
  2  3  2  0
  4  5  1  0
  4  2  1  0
  5  6  1  1
  7  5  1  0
  7  8  2  0
  9 10  1  0
 10 11  2  0
 11 12  1  0
 13 12  2  0
 13 14  1  0
 15 14  1  1
 15 16  1  0
 16  7  1  0
 17 15  1  0
 18 17  2  0
 19 13  1  0
 20 10  1  0
 20 19  2  0
 21 22  1  0
 21 17  1  0
 23 22  1  0
 24 23  1  0
 24 25  1  0
 25 21  1  0
 25 26  1  1
 27 26  2  0
 28 26  1  0
M  END
$$$$
