NYP.pdb
     RDKit          3D

 28 29  0  0  1  0  0  0  0  0999 V2000
   18.9391  -21.1585  -14.2219 N   0  0  0  0  0  0  0  0  0  0  0  0
   19.2496  -20.7167  -12.9048 C   0  0  0  0  0  0  0  0  0  0  0  0
   18.3219  -20.6920  -12.0561 O   0  0  0  0  0  0  0  0  0  0  0  0
   20.6433  -20.3161  -12.6226 C   0  0  0  0  0  0  0  0  0  0  0  0
   21.4302  -20.4101  -13.9141 C   0  0  2  0  0  0  0  0  0  0  0  0
   21.4707  -21.8184  -14.3018 N   0  0  0  0  0  0  0  0  0  0  0  0
   22.8046  -19.8663  -13.7683 C   0  0  0  0  0  0  0  0  0  0  0  0
   23.0613  -18.7384  -13.3257 O   0  0  0  0  0  0  0  0  0  0  0  0
   25.1951  -20.1566   -7.6206 O   0  0  0  0  0  0  0  0  0  0  0  0
   25.3930  -20.4501   -8.9726 C   0  0  0  0  0  0  0  0  0  0  0  0
   24.5428  -21.2759   -9.6726 C   0  0  0  0  0  0  0  0  0  0  0  0
   24.7816  -21.5345  -11.0052 C   0  0  0  0  0  0  0  0  0  0  0  0
   25.8597  -20.9942  -11.6976 C   0  0  0  0  0  0  0  0  0  0  0  0
   26.0697  -21.2940  -13.1641 C   0  0  0  0  0  0  0  0  0  0  0  0
   25.2879  -20.3291  -13.9898 C   0  0  2  0  0  0  0  0  0  0  0  0
   23.8983  -20.6718  -14.1533 N   0  0  0  0  0  0  0  0  0  0  0  0
   25.8453  -20.1544  -15.3301 C   0  0  0  0  0  0  0  0  0  0  0  0
   25.5133  -21.0424  -16.2260 O   0  0  0  0  0  0  0  0  0  0  0  0
   26.6955  -20.1735  -10.9832 C   0  0  0  0  0  0  0  0  0  0  0  0
   26.4681  -19.9030   -9.6377 C   0  0  0  0  0  0  0  0  0  0  0  0
   26.7074  -19.1526  -15.8201 N   0  0  0  0  0  0  0  0  0  0  0  0
   27.2244  -18.0818  -14.9539 C   0  0  0  0  0  0  0  0  0  0  0  0
   28.5824  -17.8003  -15.5389 C   0  0  0  0  0  0  0  0  0  0  0  0
   28.1858  -17.7251  -17.0224 C   0  0  0  0  0  0  0  0  0  0  0  0
   27.2236  -18.9469  -17.1305 C   0  0  1  0  0  0  0  0  0  0  0  0
   28.0299  -20.0823  -17.6651 C   0  0  0  0  0  0  0  0  0  0  0  0
   28.3912  -20.9729  -16.8569 O   0  0  0  0  0  0  0  0  0  0  0  0
   28.3968  -20.2134  -18.9862 O   0  0  0  0  0  0  0  0  0  0  0  0
  1  2  1  0
  2  3  2  0
  4  5  1  0
  4  2  1  0
  5  6  1  1
  7  5  1  0
  7  8  2  0
  9 10  1  0
 10 11  2  0
 11 12  1  0
 13 12  2  0
 13 14  1  0
 15 14  1  6
 15 16  1  0
 16  7  1  0
 17 15  1  0
 18 17  2  0
 19 13  1  0
 20 10  1  0
 20 19  2  0
 21 22  1  0
 21 17  1  0
 23 22  1  0
 24 23  1  0
 24 25  1  0
 25 21  1  0
 25 26  1  1
 27 26  2  0
 28 26  1  0
M  END
$$$$
