NYP.pdb
     RDKit          3D

 28 29  0  0  1  0  0  0  0  0999 V2000
   28.3111  -23.4070  -17.0393 N   0  0  0  0  0  0  0  0  0  0  0  0
   27.0663  -22.8795  -17.4848 C   0  0  0  0  0  0  0  0  0  0  0  0
   26.6592  -23.2117  -18.6275 O   0  0  0  0  0  0  0  0  0  0  0  0
   26.3347  -21.9757  -16.5736 C   0  0  0  0  0  0  0  0  0  0  0  0
   26.6583  -22.3807  -15.1498 C   0  0  2  0  0  0  0  0  0  0  0  0
   25.9951  -23.6576  -14.8953 N   0  0  0  0  0  0  0  0  0  0  0  0
   26.2198  -21.3567  -14.1674 C   0  0  0  0  0  0  0  0  0  0  0  0
   26.4860  -20.1504  -14.2568 O   0  0  0  0  0  0  0  0  0  0  0  0
   21.3789  -18.6237  -16.8563 O   0  0  0  0  0  0  0  0  0  0  0  0
   21.8645  -19.1898  -15.6744 C   0  0  0  0  0  0  0  0  0  0  0  0
   21.7079  -20.5268  -15.3871 C   0  0  0  0  0  0  0  0  0  0  0  0
   22.2050  -21.0370  -14.2072 C   0  0  0  0  0  0  0  0  0  0  0  0
   22.8718  -20.2567  -13.2690 C   0  0  0  0  0  0  0  0  0  0  0  0
   23.4144  -20.8662  -11.9967 C   0  0  0  0  0  0  0  0  0  0  0  0
   24.9045  -20.8929  -12.0496 C   0  0  2  0  0  0  0  0  0  0  0  0
   25.4509  -21.7664  -13.0565 N   0  0  0  0  0  0  0  0  0  0  0  0
   25.5062  -21.2815  -10.7750 C   0  0  0  0  0  0  0  0  0  0  0  0
   25.4585  -22.5472  -10.4631 O   0  0  0  0  0  0  0  0  0  0  0  0
   23.0184  -18.9269  -13.5733 C   0  0  0  0  0  0  0  0  0  0  0  0
   22.5221  -18.3970  -14.7599 C   0  0  0  0  0  0  0  0  0  0  0  0
   26.1459  -20.4842   -9.8043 N   0  0  0  0  0  0  0  0  0  0  0  0
   26.5640  -19.1025  -10.0878 C   0  0  0  0  0  0  0  0  0  0  0  0
   26.4115  -18.4231   -8.7533 C   0  0  0  0  0  0  0  0  0  0  0  0
   27.1098  -19.4745   -7.8755 C   0  0  0  0  0  0  0  0  0  0  0  0
   26.5137  -20.7895   -8.4637 C   0  0  1  0  0  0  0  0  0  0  0  0
   25.3756  -21.1774   -7.5809 C   0  0  0  0  0  0  0  0  0  0  0  0
   24.2118  -20.9628   -8.0010 O   0  0  0  0  0  0  0  0  0  0  0  0
   25.5241  -21.7572   -6.3404 O   0  0  0  0  0  0  0  0  0  0  0  0
  1  2  1  0
  2  3  2  0
  4  5  1  0
  4  2  1  0
  5  6  1  1
  7  5  1  0
  7  8  2  0
  9 10  1  0
 10 11  2  0
 11 12  1  0
 13 12  2  0
 13 14  1  0
 15 14  1  1
 15 16  1  0
 16  7  1  0
 17 15  1  0
 18 17  2  0
 19 13  1  0
 20 10  1  0
 20 19  2  0
 21 22  1  0
 21 17  1  0
 23 22  1  0
 24 23  1  0
 24 25  1  0
 25 21  1  0
 25 26  1  1
 27 26  2  0
 28 26  1  0
M  END
$$$$
