NYP.pdb
     RDKit          3D

 28 29  0  0  1  0  0  0  0  0999 V2000
   28.0333  -19.6877  -16.9902 N   0  0  0  0  0  0  0  0  0  0  0  0
   28.1274  -20.3020  -15.7095 C   0  0  0  0  0  0  0  0  0  0  0  0
   28.7122  -21.4125  -15.6288 O   0  0  0  0  0  0  0  0  0  0  0  0
   27.5307  -19.5928  -14.5591 C   0  0  0  0  0  0  0  0  0  0  0  0
   26.3982  -20.4424  -14.0191 C   0  0  2  0  0  0  0  0  0  0  0  0
   25.3274  -20.4296  -15.0132 N   0  0  0  0  0  0  0  0  0  0  0  0
   25.9047  -19.9436  -12.7100 C   0  0  0  0  0  0  0  0  0  0  0  0
   25.5022  -18.7887  -12.5145 O   0  0  0  0  0  0  0  0  0  0  0  0
   19.8677  -19.1210  -13.3678 O   0  0  0  0  0  0  0  0  0  0  0  0
   20.8823  -19.6244  -12.5492 C   0  0  0  0  0  0  0  0  0  0  0  0
   21.3217  -18.9499  -11.4326 C   0  0  0  0  0  0  0  0  0  0  0  0
   22.3260  -19.4888  -10.6575 C   0  0  0  0  0  0  0  0  0  0  0  0
   22.9339  -20.7051  -10.9484 C   0  0  0  0  0  0  0  0  0  0  0  0
   24.0199  -21.2632  -10.0576 C   0  0  0  0  0  0  0  0  0  0  0  0
   25.3019  -20.5487  -10.3224 C   0  0  2  0  0  0  0  0  0  0  0  0
   25.8862  -20.8276  -11.6093 N   0  0  0  0  0  0  0  0  0  0  0  0
   26.3244  -20.8361   -9.3177 C   0  0  0  0  0  0  0  0  0  0  0  0
   26.6687  -22.0854   -9.1687 O   0  0  0  0  0  0  0  0  0  0  0  0
   22.4822  -21.3625  -12.0648 C   0  0  0  0  0  0  0  0  0  0  0  0
   21.4697  -20.8316  -12.8573 C   0  0  0  0  0  0  0  0  0  0  0  0
   27.0149  -19.9539   -8.4621 N   0  0  0  0  0  0  0  0  0  0  0  0
   26.9199  -18.4936   -8.6124 C   0  0  0  0  0  0  0  0  0  0  0  0
   27.0534  -17.9991   -7.1970 C   0  0  0  0  0  0  0  0  0  0  0  0
   28.2664  -18.8413   -6.7695 C   0  0  0  0  0  0  0  0  0  0  0  0
   27.8860  -20.2287   -7.3704 C   0  0  1  0  0  0  0  0  0  0  0  0
   27.2678  -21.0195   -6.2671 C   0  0  0  0  0  0  0  0  0  0  0  0
   26.0523  -21.3168   -6.3724 O   0  0  0  0  0  0  0  0  0  0  0  0
   27.9479  -21.4440   -5.1472 O   0  0  0  0  0  0  0  0  0  0  0  0
  1  2  1  0
  2  3  2  0
  4  5  1  0
  4  2  1  0
  5  6  1  6
  7  5  1  0
  7  8  2  0
  9 10  1  0
 10 11  2  0
 11 12  1  0
 13 12  2  0
 13 14  1  0
 15 14  1  1
 15 16  1  0
 16  7  1  0
 17 15  1  0
 18 17  2  0
 19 13  1  0
 20 10  1  0
 20 19  2  0
 21 22  1  0
 21 17  1  0
 23 22  1  0
 24 23  1  0
 24 25  1  0
 25 21  1  0
 25 26  1  1
 27 26  2  0
 28 26  1  0
M  END
$$$$
