NYP.pdb
     RDKit          3D

 28 29  0  0  1  0  0  0  0  0999 V2000
   18.1488  -11.2652  -20.8460 N   0  0  0  0  0  0  0  0  0  0  0  0
   18.9139  -12.3171  -20.2676 C   0  0  0  0  0  0  0  0  0  0  0  0
   18.6244  -13.4998  -20.5821 O   0  0  0  0  0  0  0  0  0  0  0  0
   19.9987  -11.9483  -19.3350 C   0  0  0  0  0  0  0  0  0  0  0  0
   20.0131  -10.4388  -19.2039 C   0  0  2  0  0  0  0  0  0  0  0  0
   20.7544   -9.9063  -20.3449 N   0  0  0  0  0  0  0  0  0  0  0  0
   20.6288   -9.9978  -17.9262 C   0  0  0  0  0  0  0  0  0  0  0  0
   20.2281  -10.3445  -16.8068 O   0  0  0  0  0  0  0  0  0  0  0  0
   25.6395  -14.1099  -17.7824 O   0  0  0  0  0  0  0  0  0  0  0  0
   25.2231  -12.7940  -17.5630 C   0  0  0  0  0  0  0  0  0  0  0  0
   24.9674  -12.3101  -16.3000 C   0  0  0  0  0  0  0  0  0  0  0  0
   24.5586  -11.0040  -16.1364 C   0  0  0  0  0  0  0  0  0  0  0  0
   24.3862  -10.1278  -17.2023 C   0  0  0  0  0  0  0  0  0  0  0  0
   23.9526   -8.6986  -16.9703 C   0  0  0  0  0  0  0  0  0  0  0  0
   22.4691   -8.6416  -16.8289 C   0  0  2  0  0  0  0  0  0  0  0  0
   21.7409   -9.1292  -17.9722 N   0  0  0  0  0  0  0  0  0  0  0  0
   21.9811   -7.2906  -16.5561 C   0  0  0  0  0  0  0  0  0  0  0  0
   21.9349   -6.4664  -17.5660 O   0  0  0  0  0  0  0  0  0  0  0  0
   24.6462  -10.6283  -18.4530 C   0  0  0  0  0  0  0  0  0  0  0  0
   25.0593  -11.9441  -18.6346 C   0  0  0  0  0  0  0  0  0  0  0  0
   21.5416   -6.7229  -15.3430 N   0  0  0  0  0  0  0  0  0  0  0  0
   21.3670   -7.5311  -14.1262 C   0  0  0  0  0  0  0  0  0  0  0  0
   21.7014   -6.5606  -13.0254 C   0  0  0  0  0  0  0  0  0  0  0  0
   20.8663   -5.3636  -13.5086 C   0  0  0  0  0  0  0  0  0  0  0  0
   21.1874   -5.3794  -15.0341 C   0  0  1  0  0  0  0  0  0  0  0  0
   22.2765   -4.3842  -15.2539 C   0  0  0  0  0  0  0  0  0  0  0  0
   21.9641   -3.1680  -15.2551 O   0  0  0  0  0  0  0  0  0  0  0  0
   23.5982   -4.7178  -15.4511 O   0  0  0  0  0  0  0  0  0  0  0  0
  1  2  1  0
  2  3  2  0
  4  5  1  0
  4  2  1  0
  5  6  1  6
  7  5  1  0
  7  8  2  0
  9 10  1  0
 10 11  2  0
 11 12  1  0
 13 12  2  0
 13 14  1  0
 15 14  1  6
 15 16  1  0
 16  7  1  0
 17 15  1  0
 18 17  2  0
 19 13  1  0
 20 10  1  0
 20 19  2  0
 21 22  1  0
 21 17  1  0
 23 22  1  0
 24 23  1  0
 24 25  1  0
 25 21  1  0
 25 26  1  1
 27 26  2  0
 28 26  1  0
M  END
$$$$
