NYP.pdb
     RDKit          3D

 28 29  0  0  1  0  0  0  0  0999 V2000
   19.9231  -22.0188  -14.1065 N   0  0  0  0  0  0  0  0  0  0  0  0
   19.9207  -21.1886  -12.9502 C   0  0  0  0  0  0  0  0  0  0  0  0
   19.0210  -21.3749  -12.0914 O   0  0  0  0  0  0  0  0  0  0  0  0
   20.9770  -20.1621  -12.8361 C   0  0  0  0  0  0  0  0  0  0  0  0
   21.8810  -20.2812  -14.0464 C   0  0  2  0  0  0  0  0  0  0  0  0
   22.8988  -21.2829  -13.7370 N   0  0  0  0  0  0  0  0  0  0  0  0
   22.5119  -18.9836  -14.3986 C   0  0  0  0  0  0  0  0  0  0  0  0
   21.9629  -17.8830  -14.2534 O   0  0  0  0  0  0  0  0  0  0  0  0
   28.6096  -13.0972  -16.8197 O   0  0  0  0  0  0  0  0  0  0  0  0
   27.9603  -14.2352  -16.3335 C   0  0  0  0  0  0  0  0  0  0  0  0
   28.1446  -15.4776  -16.8968 C   0  0  0  0  0  0  0  0  0  0  0  0
   27.4807  -16.5695  -16.3804 C   0  0  0  0  0  0  0  0  0  0  0  0
   26.6144  -16.4828  -15.2961 C   0  0  0  0  0  0  0  0  0  0  0  0
   25.9224  -17.7127  -14.7548 C   0  0  0  0  0  0  0  0  0  0  0  0
   24.5567  -17.8196  -15.3442 C   0  0  2  0  0  0  0  0  0  0  0  0
   23.8185  -18.9865  -14.9334 N   0  0  0  0  0  0  0  0  0  0  0  0
   24.5728  -17.8171  -16.8061 C   0  0  0  0  0  0  0  0  0  0  0  0
   25.0604  -18.8760  -17.3913 O   0  0  0  0  0  0  0  0  0  0  0  0
   26.4440  -15.2366  -14.7481 C   0  0  0  0  0  0  0  0  0  0  0  0
   27.1068  -14.1249  -15.2580 C   0  0  0  0  0  0  0  0  0  0  0  0
   24.1336  -16.8257  -17.7069 N   0  0  0  0  0  0  0  0  0  0  0  0
   23.5567  -15.5550  -17.2415 C   0  0  0  0  0  0  0  0  0  0  0  0
   23.9813  -14.5808  -18.3074 C   0  0  0  0  0  0  0  0  0  0  0  0
   23.6009  -15.4095  -19.5452 C   0  0  0  0  0  0  0  0  0  0  0  0
   24.1306  -16.8158  -19.1302 C   0  0  1  0  0  0  0  0  0  0  0  0
   25.4765  -16.9691  -19.7547 C   0  0  0  0  0  0  0  0  0  0  0  0
   25.5237  -17.3003  -20.9651 O   0  0  0  0  0  0  0  0  0  0  0  0
   26.6642  -16.7667  -19.0876 O   0  0  0  0  0  0  0  0  0  0  0  0
  1  2  1  0
  2  3  2  0
  4  5  1  0
  4  2  1  0
  5  6  1  1
  7  5  1  0
  7  8  2  0
  9 10  1  0
 10 11  2  0
 11 12  1  0
 13 12  2  0
 13 14  1  0
 15 14  1  1
 15 16  1  0
 16  7  1  0
 17 15  1  0
 18 17  2  0
 19 13  1  0
 20 10  1  0
 20 19  2  0
 21 22  1  0
 21 17  1  0
 23 22  1  0
 24 23  1  0
 24 25  1  0
 25 21  1  0
 25 26  1  1
 27 26  2  0
 28 26  1  0
M  END
$$$$
