NYP.pdb
     RDKit          3D

 28 29  0  0  1  0  0  0  0  0999 V2000
   26.9218  -23.4686  -14.7032 N   0  0  0  0  0  0  0  0  0  0  0  0
   26.3840  -22.1972  -15.0502 C   0  0  0  0  0  0  0  0  0  0  0  0
   26.0336  -22.0099  -16.2434 O   0  0  0  0  0  0  0  0  0  0  0  0
   26.2732  -21.1810  -13.9836 C   0  0  0  0  0  0  0  0  0  0  0  0
   26.8237  -21.7795  -12.7051 C   0  0  2  0  0  0  0  0  0  0  0  0
   26.0184  -22.9572  -12.3896 N   0  0  0  0  0  0  0  0  0  0  0  0
   26.7971  -20.8093  -11.5808 C   0  0  0  0  0  0  0  0  0  0  0  0
   27.1330  -19.6214  -11.6813 O   0  0  0  0  0  0  0  0  0  0  0  0
   20.7439  -19.2547  -12.5187 O   0  0  0  0  0  0  0  0  0  0  0  0
   21.6964  -19.5897  -11.5525 C   0  0  0  0  0  0  0  0  0  0  0  0
   21.4280  -20.4855  -10.5424 C   0  0  0  0  0  0  0  0  0  0  0  0
   22.4017  -20.7825   -9.6132 C   0  0  0  0  0  0  0  0  0  0  0  0
   23.6703  -20.2136   -9.6409 C   0  0  0  0  0  0  0  0  0  0  0  0
   24.7105  -20.5847   -8.6090 C   0  0  0  0  0  0  0  0  0  0  0  0
   26.0743  -20.4031   -9.1844 C   0  0  2  0  0  0  0  0  0  0  0  0
   26.3648  -21.2516  -10.3117 N   0  0  0  0  0  0  0  0  0  0  0  0
   27.1338  -20.6217   -8.2010 C   0  0  0  0  0  0  0  0  0  0  0  0
   27.5699  -21.8437   -8.0673 O   0  0  0  0  0  0  0  0  0  0  0  0
   23.9189  -19.3238  -10.6552 C   0  0  0  0  0  0  0  0  0  0  0  0
   22.9466  -19.0135  -11.6004 C   0  0  0  0  0  0  0  0  0  0  0  0
   27.7753  -19.6970   -7.3521 N   0  0  0  0  0  0  0  0  0  0  0  0
   27.6818  -18.2456   -7.5738 C   0  0  0  0  0  0  0  0  0  0  0  0
   27.7396  -17.6864   -6.1775 C   0  0  0  0  0  0  0  0  0  0  0  0
   28.9324  -18.5003   -5.6499 C   0  0  0  0  0  0  0  0  0  0  0  0
   28.5897  -19.9160   -6.2056 C   0  0  1  0  0  0  0  0  0  0  0  0
   27.9185  -20.6600   -5.1006 C   0  0  0  0  0  0  0  0  0  0  0  0
   26.6878  -20.8837   -5.2110 O   0  0  0  0  0  0  0  0  0  0  0  0
   28.5655  -21.1170   -3.9738 O   0  0  0  0  0  0  0  0  0  0  0  0
  1  2  1  0
  2  3  2  0
  4  5  1  0
  4  2  1  0
  5  6  1  1
  7  5  1  0
  7  8  2  0
  9 10  1  0
 10 11  2  0
 11 12  1  0
 13 12  2  0
 13 14  1  0
 15 14  1  1
 15 16  1  0
 16  7  1  0
 17 15  1  0
 18 17  2  0
 19 13  1  0
 20 10  1  0
 20 19  2  0
 21 22  1  0
 21 17  1  0
 23 22  1  0
 24 23  1  0
 24 25  1  0
 25 21  1  0
 25 26  1  1
 27 26  2  0
 28 26  1  0
M  END
$$$$
