NYP.pdb
     RDKit          3D

 28 29  0  0  1  0  0  0  0  0999 V2000
   12.2228  -19.7072    5.3172 N   0  0  0  0  0  0  0  0  0  0  0  0
   13.0547  -19.2035    6.3566 C   0  0  0  0  0  0  0  0  0  0  0  0
   12.4990  -18.6857    7.3590 O   0  0  0  0  0  0  0  0  0  0  0  0
   14.5175  -19.3228    6.1881 C   0  0  0  0  0  0  0  0  0  0  0  0
   15.1581  -18.0636    6.7357 C   0  0  2  0  0  0  0  0  0  0  0  0
   14.8050  -16.9657    5.8384 N   0  0  0  0  0  0  0  0  0  0  0  0
   16.6332  -18.1946    6.8490 C   0  0  0  0  0  0  0  0  0  0  0  0
   17.2557  -19.2428    6.6300 O   0  0  0  0  0  0  0  0  0  0  0  0
   18.2571  -15.5953    1.1201 O   0  0  0  0  0  0  0  0  0  0  0  0
   18.5535  -15.6642    2.4841 C   0  0  0  0  0  0  0  0  0  0  0  0
   19.3093  -16.6840    3.0165 C   0  0  0  0  0  0  0  0  0  0  0  0
   19.5737  -16.7069    4.3690 C   0  0  0  0  0  0  0  0  0  0  0  0
   19.1078  -15.7334    5.2458 C   0  0  0  0  0  0  0  0  0  0  0  0
   19.4391  -15.7927    6.7194 C   0  0  0  0  0  0  0  0  0  0  0  0
   18.8251  -17.0106    7.3225 C   0  0  2  0  0  0  0  0  0  0  0  0
   17.3886  -17.0640    7.2290 N   0  0  0  0  0  0  0  0  0  0  0  0
   19.1677  -17.1735    8.7344 C   0  0  0  0  0  0  0  0  0  0  0  0
   18.4738  -16.4780    9.5925 O   0  0  0  0  0  0  0  0  0  0  0  0
   18.3569  -14.7250    4.6965 C   0  0  0  0  0  0  0  0  0  0  0  0
   18.0812  -14.6880    3.3335 C   0  0  0  0  0  0  0  0  0  0  0  0
   20.1550  -17.9838    9.3309 N   0  0  0  0  0  0  0  0  0  0  0  0
   20.9858  -18.9042    8.5392 C   0  0  0  0  0  0  0  0  0  0  0  0
   22.2917  -18.9088    9.2876 C   0  0  0  0  0  0  0  0  0  0  0  0
   21.7434  -19.0971   10.7116 C   0  0  0  0  0  0  0  0  0  0  0  0
   20.5405  -18.1054   10.6956 C   0  0  1  0  0  0  0  0  0  0  0  0
   21.0202  -16.8386   11.3202 C   0  0  0  0  0  0  0  0  0  0  0  0
   21.3669  -15.9054   10.5548 O   0  0  0  0  0  0  0  0  0  0  0  0
   21.1016  -16.6311   12.6794 O   0  0  0  0  0  0  0  0  0  0  0  0
  1  2  1  0
  2  3  2  0
  4  5  1  0
  4  2  1  0
  5  6  1  6
  7  5  1  0
  7  8  2  0
  9 10  1  0
 10 11  2  0
 11 12  1  0
 13 12  2  0
 13 14  1  0
 15 14  1  1
 15 16  1  0
 16  7  1  0
 17 15  1  0
 18 17  2  0
 19 13  1  0
 20 10  1  0
 20 19  2  0
 21 22  1  0
 21 17  1  0
 23 22  1  0
 24 23  1  0
 24 25  1  0
 25 21  1  0
 25 26  1  6
 27 26  2  0
 28 26  1  0
M  END
$$$$
