QSY.pdb
     RDKit          3D

 28 28  0  0  1  0  0  0  0  0999 V2000
   21.0451  -15.6738  -15.7319 N   0  0  0  0  0  0  0  0  0  0  0  0
   20.4193  -16.6426  -16.5484 C   0  0  0  0  0  0  0  0  0  0  0  0
   20.1193  -17.7902  -16.1541 O   0  0  0  0  0  0  0  0  0  0  0  0
   20.1021  -16.2660  -17.9600 C   0  0  0  0  0  0  0  0  0  0  0  0
   20.5199  -14.8485  -18.1768 C   0  0  0  0  0  0  0  0  0  0  0  0
   19.3022  -13.9297  -18.0989 C   0  0  2  0  0  0  0  0  0  0  0  0
   18.6051  -14.1832  -19.3866 N   0  0  0  0  0  0  0  0  0  0  0  0
   19.6500  -12.5098  -18.0802 C   0  0  0  0  0  0  0  0  0  0  0  0
   19.9792  -11.9358  -19.1640 O   0  0  0  0  0  0  0  0  0  0  0  0
   17.6441   -9.6422  -17.3413 O   0  0  0  0  0  0  0  0  0  0  0  0
   18.8850   -9.6606  -17.9742 C   0  0  0  0  0  0  0  0  0  0  0  0
   19.9503  -10.2489  -17.0489 C   0  0  2  0  0  0  0  0  0  0  0  0
   19.6560  -11.6625  -16.9275 N   0  0  0  0  0  0  0  0  0  0  0  0
   20.0455   -9.5171  -15.7953 C   0  0  0  0  0  0  0  0  0  0  0  0
   19.3339   -9.9386  -14.8309 O   0  0  0  0  0  0  0  0  0  0  0  0
   25.5977   -5.0909  -17.5409 O   0  0  0  0  0  0  0  0  0  0  0  0
   24.7905   -5.6975  -16.5877 C   0  0  0  0  0  0  0  0  0  0  0  0
   24.1405   -4.9764  -15.6118 C   0  0  0  0  0  0  0  0  0  0  0  0
   23.3489   -5.6306  -14.6872 C   0  0  0  0  0  0  0  0  0  0  0  0
   23.1601   -6.9971  -14.6745 C   0  0  0  0  0  0  0  0  0  0  0  0
   22.3324   -7.7303  -13.6981 C   0  0  0  0  0  0  0  0  0  0  0  0
   20.9220   -7.8075  -14.1611 C   0  0  2  0  0  0  0  0  0  0  0  0
   20.8440   -8.3814  -15.5179 N   0  0  0  0  0  0  0  0  0  0  0  0
   20.3132   -6.4725  -14.2172 C   0  0  0  0  0  0  0  0  0  0  0  0
   19.9803   -5.9923  -15.3523 O   0  0  0  0  0  0  0  0  0  0  0  0
   23.8350   -7.7019  -15.6807 C   0  0  0  0  0  0  0  0  0  0  0  0
   24.6271   -7.0632  -16.6089 C   0  0  0  0  0  0  0  0  0  0  0  0
   20.0668   -5.6837  -13.1100 O   0  0  0  0  0  0  0  0  0  0  0  0
  2  1  1  0
  3  2  2  0
  4  2  1  0
  5  6  1  0
  5  4  1  0
  6  8  1  0
  6  7  1  6
  8  9  2  0
 10 11  1  0
 12 11  1  6
 13 12  1  0
 13  8  1  0
 14 12  1  0
 14 15  2  0
 16 17  1  0
 17 27  2  0
 17 18  1  0
 18 19  2  0
 19 20  1  0
 20 21  1  0
 22 21  1  6
 22 23  1  0
 22 24  1  0
 23 14  1  0
 24 28  1  0
 25 24  2  0
 26 20  2  0
 27 26  1  0
M  END
$$$$
