QSY.pdb
     RDKit          3D

 28 28  0  0  1  0  0  0  0  0999 V2000
   27.2999  -25.8497  -15.6621 N   0  0  0  0  0  0  0  0  0  0  0  0
   28.2855  -25.3534  -16.5448 C   0  0  0  0  0  0  0  0  0  0  0  0
   29.4949  -25.6617  -16.4751 O   0  0  0  0  0  0  0  0  0  0  0  0
   27.8493  -24.4083  -17.6179 C   0  0  0  0  0  0  0  0  0  0  0  0
   26.3577  -24.3319  -17.6033 C   0  0  0  0  0  0  0  0  0  0  0  0
   25.9128  -22.9312  -17.1873 C   0  0  2  0  0  0  0  0  0  0  0  0
   27.0824  -22.4167  -16.4286 N   0  0  0  0  0  0  0  0  0  0  0  0
   24.7797  -22.9353  -16.2634 C   0  0  0  0  0  0  0  0  0  0  0  0
   23.6654  -23.4074  -16.6481 O   0  0  0  0  0  0  0  0  0  0  0  0
   24.3757  -20.7450  -12.6643 O   0  0  0  0  0  0  0  0  0  0  0  0
   24.0191  -22.0915  -12.6882 C   0  0  0  0  0  0  0  0  0  0  0  0
   23.5995  -22.5103  -14.0973 C   0  0  2  0  0  0  0  0  0  0  0  0
   24.7921  -22.4493  -14.9180 N   0  0  0  0  0  0  0  0  0  0  0  0
   22.4653  -21.7371  -14.5790 C   0  0  0  0  0  0  0  0  0  0  0  0
   22.7274  -20.6417  -15.1668 O   0  0  0  0  0  0  0  0  0  0  0  0
   18.1501  -26.1728  -18.3977 O   0  0  0  0  0  0  0  0  0  0  0  0
   18.6479  -24.9596  -17.9411 C   0  0  0  0  0  0  0  0  0  0  0  0
   19.9890  -24.6531  -17.9890 C   0  0  0  0  0  0  0  0  0  0  0  0
   20.4310  -23.4306  -17.5208 C   0  0  0  0  0  0  0  0  0  0  0  0
   19.5959  -22.4678  -16.9928 C   0  0  0  0  0  0  0  0  0  0  0  0
   20.0325  -21.1577  -16.4741 C   0  0  0  0  0  0  0  0  0  0  0  0
   20.0440  -21.1608  -14.9877 C   0  0  2  0  0  0  0  0  0  0  0  0
   21.0916  -22.0621  -14.4712 N   0  0  0  0  0  0  0  0  0  0  0  0
   18.7607  -21.6331  -14.4529 C   0  0  0  0  0  0  0  0  0  0  0  0
   18.7368  -22.7053  -13.7602 O   0  0  0  0  0  0  0  0  0  0  0  0
   18.2373  -22.8105  -16.9584 C   0  0  0  0  0  0  0  0  0  0  0  0
   17.7823  -24.0252  -17.4216 C   0  0  0  0  0  0  0  0  0  0  0  0
   17.5541  -20.9885  -14.6457 O   0  0  0  0  0  0  0  0  0  0  0  0
  2  1  1  0
  3  2  2  0
  4  2  1  0
  5  6  1  0
  5  4  1  0
  6  8  1  0
  6  7  1  1
  8  9  2  0
 10 11  1  0
 12 11  1  1
 13 12  1  0
 13  8  1  0
 14 12  1  0
 14 15  2  0
 16 17  1  0
 17 27  2  0
 17 18  1  0
 18 19  2  0
 19 20  1  0
 20 21  1  0
 22 21  1  6
 22 23  1  0
 22 24  1  0
 23 14  1  0
 24 28  1  0
 25 24  2  0
 26 20  2  0
 27 26  1  0
M  END
$$$$
