QSY.pdb
     RDKit          3D

 28 28  0  0  1  0  0  0  0  0999 V2000
   20.2234  -12.4519  -15.4121 N   0  0  0  0  0  0  0  0  0  0  0  0
   19.1231  -13.2842  -15.7179 C   0  0  0  0  0  0  0  0  0  0  0  0
   18.9478  -14.4132  -15.2109 O   0  0  0  0  0  0  0  0  0  0  0  0
   18.1183  -12.7790  -16.7029 C   0  0  0  0  0  0  0  0  0  0  0  0
   18.5282  -11.4098  -17.1368 C   0  0  0  0  0  0  0  0  0  0  0  0
   17.3601  -10.4400  -16.9703 C   0  0  2  0  0  0  0  0  0  0  0  0
   16.4814  -10.7686  -18.1229 N   0  0  0  0  0  0  0  0  0  0  0  0
   17.7469   -9.0381  -17.1212 C   0  0  0  0  0  0  0  0  0  0  0  0
   17.5352   -8.4502  -18.2267 O   0  0  0  0  0  0  0  0  0  0  0  0
   16.5400   -6.1069  -15.6297 O   0  0  0  0  0  0  0  0  0  0  0  0
   17.3881   -6.1324  -16.7346 C   0  0  0  0  0  0  0  0  0  0  0  0
   18.6977   -6.8415  -16.3892 C   0  0  2  0  0  0  0  0  0  0  0  0
   18.3589   -8.2237  -16.1169 N   0  0  0  0  0  0  0  0  0  0  0  0
   19.4263   -6.1537  -15.3345 C   0  0  0  0  0  0  0  0  0  0  0  0
   18.9560   -6.2487  -14.1581 O   0  0  0  0  0  0  0  0  0  0  0  0
   23.2020  -10.9227  -15.1499 O   0  0  0  0  0  0  0  0  0  0  0  0
   23.0873   -9.5603  -14.9075 C   0  0  0  0  0  0  0  0  0  0  0  0
   22.7387   -9.0626  -13.6723 C   0  0  0  0  0  0  0  0  0  0  0  0
   22.6388   -7.6972  -13.4856 C   0  0  0  0  0  0  0  0  0  0  0  0
   22.8708   -6.7712  -14.4816 C   0  0  0  0  0  0  0  0  0  0  0  0
   22.7632   -5.3086  -14.3222 C   0  0  0  0  0  0  0  0  0  0  0  0
   21.3374   -4.8904  -14.2793 C   0  0  2  0  0  0  0  0  0  0  0  0
   20.6080   -5.3847  -15.4626 N   0  0  0  0  0  0  0  0  0  0  0  0
   21.2185   -3.4270  -14.2743 C   0  0  0  0  0  0  0  0  0  0  0  0
   21.7601   -2.7661  -13.3256 O   0  0  0  0  0  0  0  0  0  0  0  0
   23.2236   -7.3100  -15.7264 C   0  0  0  0  0  0  0  0  0  0  0  0
   23.3273   -8.6687  -15.9271 C   0  0  0  0  0  0  0  0  0  0  0  0
   20.5530   -2.6982  -15.2410 O   0  0  0  0  0  0  0  0  0  0  0  0
  2  1  1  0
  3  2  2  0
  4  2  1  0
  5  6  1  0
  5  4  1  0
  6  8  1  0
  6  7  1  6
  8  9  2  0
 10 11  1  0
 12 11  1  1
 13 12  1  0
 13  8  1  0
 14 12  1  0
 14 15  2  0
 16 17  1  0
 17 27  2  0
 17 18  1  0
 18 19  2  0
 19 20  1  0
 20 21  1  0
 22 21  1  6
 22 23  1  0
 22 24  1  0
 23 14  1  0
 24 28  1  0
 25 24  2  0
 26 20  2  0
 27 26  1  0
M  END
$$$$
