QSY.pdb
     RDKit          3D

 28 28  0  0  1  0  0  0  0  0999 V2000
   22.7877  -15.8168  -14.3977 N   0  0  0  0  0  0  0  0  0  0  0  0
   22.4808  -16.9832  -15.1340 C   0  0  0  0  0  0  0  0  0  0  0  0
   22.2141  -18.0844  -14.6061 O   0  0  0  0  0  0  0  0  0  0  0  0
   22.4772  -16.8861  -16.6259 C   0  0  0  0  0  0  0  0  0  0  0  0
   22.5674  -15.4445  -17.0063 C   0  0  0  0  0  0  0  0  0  0  0  0
   21.1772  -14.9065  -17.3388 C   0  0  2  0  0  0  0  0  0  0  0  0
   20.8570  -15.5719  -18.6284 N   0  0  0  0  0  0  0  0  0  0  0  0
   21.1601  -13.4665  -17.5917 C   0  0  0  0  0  0  0  0  0  0  0  0
   21.7114  -13.0131  -18.6420 O   0  0  0  0  0  0  0  0  0  0  0  0
   18.5198  -10.8092  -15.9643 O   0  0  0  0  0  0  0  0  0  0  0  0
   19.1665  -10.5850  -17.1777 C   0  0  0  0  0  0  0  0  0  0  0  0
   20.6144  -11.0713  -17.1117 C   0  0  2  0  0  0  0  0  0  0  0  0
   20.5622  -12.4742  -16.7525 N   0  0  0  0  0  0  0  0  0  0  0  0
   21.4308  -10.2318  -16.2486 C   0  0  0  0  0  0  0  0  0  0  0  0
   21.4847  -10.5544  -15.0210 O   0  0  0  0  0  0  0  0  0  0  0  0
   27.3619  -12.6974  -17.2176 O   0  0  0  0  0  0  0  0  0  0  0  0
   26.6026  -11.5549  -17.0029 C   0  0  0  0  0  0  0  0  0  0  0  0
   25.7920  -11.0196  -17.9783 C   0  0  0  0  0  0  0  0  0  0  0  0
   25.0572   -9.8803  -17.7114 C   0  0  0  0  0  0  0  0  0  0  0  0
   25.0811   -9.2228  -16.4988 C   0  0  0  0  0  0  0  0  0  0  0  0
   24.3198   -7.9998  -16.1816 C   0  0  0  0  0  0  0  0  0  0  0  0
   22.9839   -8.3439  -15.6278 C   0  0  2  0  0  0  0  0  0  0  0  0
   22.1803   -9.0883  -16.6160 N   0  0  0  0  0  0  0  0  0  0  0  0
   22.2315   -7.1324  -15.2783 C   0  0  0  0  0  0  0  0  0  0  0  0
   22.6891   -6.3614  -14.3694 O   0  0  0  0  0  0  0  0  0  0  0  0
   25.9155   -9.7929  -15.5276 C   0  0  0  0  0  0  0  0  0  0  0  0
   26.6535  -10.9282  -15.7794 C   0  0  0  0  0  0  0  0  0  0  0  0
   21.0431   -6.7569  -15.8743 O   0  0  0  0  0  0  0  0  0  0  0  0
  2  1  1  0
  3  2  2  0
  4  2  1  0
  5  6  1  0
  5  4  1  0
  6  8  1  0
  6  7  1  6
  8  9  2  0
 10 11  1  0
 12 11  1  1
 13 12  1  0
 13  8  1  0
 14 12  1  0
 14 15  2  0
 16 17  1  0
 17 27  2  0
 17 18  1  0
 18 19  2  0
 19 20  1  0
 20 21  1  0
 22 21  1  6
 22 23  1  0
 22 24  1  0
 23 14  1  0
 24 28  1  0
 25 24  2  0
 26 20  2  0
 27 26  1  0
M  END
$$$$
