QSY.pdb
     RDKit          3D

 28 28  0  0  1  0  0  0  0  0999 V2000
   15.2618  -14.9197  -17.3434 N   0  0  0  0  0  0  0  0  0  0  0  0
   15.7601  -14.0230  -16.3715 C   0  0  0  0  0  0  0  0  0  0  0  0
   15.0317  -13.2889  -15.6695 O   0  0  0  0  0  0  0  0  0  0  0  0
   17.2411  -13.9548  -16.1789 C   0  0  0  0  0  0  0  0  0  0  0  0
   17.6007  -12.5662  -15.7627 C   0  0  0  0  0  0  0  0  0  0  0  0
   18.8579  -12.1110  -16.5011 C   0  0  2  0  0  0  0  0  0  0  0  0
   19.4961  -13.3917  -16.9025 N   0  0  0  0  0  0  0  0  0  0  0  0
   19.8134  -11.4153  -15.6406 C   0  0  0  0  0  0  0  0  0  0  0  0
   19.4261  -10.9644  -14.5185 O   0  0  0  0  0  0  0  0  0  0  0  0
   23.7094  -10.3212  -16.7935 O   0  0  0  0  0  0  0  0  0  0  0  0
   23.4479  -10.5680  -15.4476 C   0  0  0  0  0  0  0  0  0  0  0  0
   21.9823  -10.2775  -15.1239 C   0  0  2  0  0  0  0  0  0  0  0  0
   21.1935  -11.1818  -15.9362 N   0  0  0  0  0  0  0  0  0  0  0  0
   21.6638   -8.8653  -15.2662 C   0  0  0  0  0  0  0  0  0  0  0  0
   21.0700   -8.5171  -16.3340 O   0  0  0  0  0  0  0  0  0  0  0  0
   20.0161   -0.2710  -14.6086 O   0  0  0  0  0  0  0  0  0  0  0  0
   20.5093   -1.5432  -14.3508 C   0  0  0  0  0  0  0  0  0  0  0  0
   21.8165   -1.8886  -14.6096 C   0  0  0  0  0  0  0  0  0  0  0  0
   22.2555   -3.1694  -14.3340 C   0  0  0  0  0  0  0  0  0  0  0  0
   21.4500   -4.1549  -13.8019 C   0  0  0  0  0  0  0  0  0  0  0  0
   21.8803   -5.5343  -13.5050 C   0  0  0  0  0  0  0  0  0  0  0  0
   21.6858   -6.4097  -14.6905 C   0  0  2  0  0  0  0  0  0  0  0  0
   21.9379   -7.8225  -14.3487 N   0  0  0  0  0  0  0  0  0  0  0  0
   22.6156   -6.0497  -15.7684 C   0  0  0  0  0  0  0  0  0  0  0  0
   22.1764   -5.3888  -16.7685 O   0  0  0  0  0  0  0  0  0  0  0  0
   20.1256   -3.7713  -13.5499 C   0  0  0  0  0  0  0  0  0  0  0  0
   19.6741   -2.4982  -13.8194 C   0  0  0  0  0  0  0  0  0  0  0  0
   23.9577   -6.3777  -15.7786 O   0  0  0  0  0  0  0  0  0  0  0  0
  2  1  1  0
  3  2  2  0
  4  2  1  0
  5  6  1  0
  5  4  1  0
  6  8  1  0
  6  7  1  1
  8  9  2  0
 10 11  1  0
 12 11  1  6
 13 12  1  0
 13  8  1  0
 14 12  1  0
 14 15  2  0
 16 17  1  0
 17 27  2  0
 17 18  1  0
 18 19  2  0
 19 20  1  0
 20 21  1  0
 22 21  1  1
 22 23  1  0
 22 24  1  0
 23 14  1  0
 24 28  1  0
 25 24  2  0
 26 20  2  0
 27 26  1  0
M  END
$$$$
