QSY.pdb
     RDKit          3D

 28 28  0  0  1  0  0  0  0  0999 V2000
   20.0068  -13.9254  -21.6056 N   0  0  0  0  0  0  0  0  0  0  0  0
   19.1195  -12.9038  -21.1980 C   0  0  0  0  0  0  0  0  0  0  0  0
   19.1368  -11.7450  -21.6661 O   0  0  0  0  0  0  0  0  0  0  0  0
   18.1075  -13.2359  -20.1488 C   0  0  0  0  0  0  0  0  0  0  0  0
   17.8701  -12.0176  -19.3181 C   0  0  0  0  0  0  0  0  0  0  0  0
   18.4015  -12.2409  -17.9037 C   0  0  2  0  0  0  0  0  0  0  0  0
   17.3909  -13.1497  -17.3027 N   0  0  0  0  0  0  0  0  0  0  0  0
   18.4114  -11.0253  -17.0914 C   0  0  0  0  0  0  0  0  0  0  0  0
   17.3361  -10.6387  -16.5375 O   0  0  0  0  0  0  0  0  0  0  0  0
   19.0085   -8.7117  -13.5778 O   0  0  0  0  0  0  0  0  0  0  0  0
   18.9565   -9.6703  -14.5873 C   0  0  0  0  0  0  0  0  0  0  0  0
   19.4644   -9.0882  -15.9065 C   0  0  2  0  0  0  0  0  0  0  0  0
   19.5477  -10.1933  -16.8400 N   0  0  0  0  0  0  0  0  0  0  0  0
   20.6889   -8.3235  -15.7274 C   0  0  0  0  0  0  0  0  0  0  0  0
   21.7816   -8.9679  -15.7971 O   0  0  0  0  0  0  0  0  0  0  0  0
   27.5384   -3.2437  -16.9685 O   0  0  0  0  0  0  0  0  0  0  0  0
   26.3011   -3.8737  -16.9487 C   0  0  0  0  0  0  0  0  0  0  0  0
   25.1295   -3.1814  -16.7411 C   0  0  0  0  0  0  0  0  0  0  0  0
   23.9249   -3.8580  -16.7311 C   0  0  0  0  0  0  0  0  0  0  0  0
   23.8123   -5.2199  -16.9200 C   0  0  0  0  0  0  0  0  0  0  0  0
   22.5463   -5.9769  -16.9050 C   0  0  0  0  0  0  0  0  0  0  0  0
   22.1222   -6.2596  -15.5087 C   0  0  2  0  0  0  0  0  0  0  0  0
   20.8104   -6.9343  -15.4833 N   0  0  0  0  0  0  0  0  0  0  0  0
   21.9878   -5.0170  -14.7381 C   0  0  0  0  0  0  0  0  0  0  0  0
   20.8615   -4.4160  -14.7260 O   0  0  0  0  0  0  0  0  0  0  0  0
   25.0227   -5.8951  -17.1288 C   0  0  0  0  0  0  0  0  0  0  0  0
   26.2308   -5.2338  -17.1416 C   0  0  0  0  0  0  0  0  0  0  0  0
   23.0099   -4.4406  -14.0088 O   0  0  0  0  0  0  0  0  0  0  0  0
  2  1  1  0
  3  2  2  0
  4  2  1  0
  5  6  1  0
  5  4  1  0
  6  8  1  0
  6  7  1  1
  8  9  2  0
 10 11  1  0
 12 11  1  1
 13 12  1  0
 13  8  1  0
 14 12  1  0
 14 15  2  0
 16 17  1  0
 17 27  2  0
 17 18  1  0
 18 19  2  0
 19 20  1  0
 20 21  1  0
 22 21  1  6
 22 23  1  0
 22 24  1  0
 23 14  1  0
 24 28  1  0
 25 24  2  0
 26 20  2  0
 27 26  1  0
M  END
$$$$
