QSY.pdb
     RDKit          3D

 28 28  0  0  1  0  0  0  0  0999 V2000
   22.3356  -28.7330  -18.6009 N   0  0  0  0  0  0  0  0  0  0  0  0
   22.8485  -28.0857  -19.7476 C   0  0  0  0  0  0  0  0  0  0  0  0
   22.2534  -27.1634  -20.3456 O   0  0  0  0  0  0  0  0  0  0  0  0
   24.1764  -28.5348  -20.2673 C   0  0  0  0  0  0  0  0  0  0  0  0
   24.6926  -29.6157  -19.3751 C   0  0  0  0  0  0  0  0  0  0  0  0
   26.0462  -30.1076  -19.8837 C   0  0  2  0  0  0  0  0  0  0  0  0
   25.6814  -30.9564  -21.0478 N   0  0  0  0  0  0  0  0  0  0  0  0
   26.7412  -30.9732  -18.9322 C   0  0  0  0  0  0  0  0  0  0  0  0
   26.6282  -32.2334  -19.0405 O   0  0  0  0  0  0  0  0  0  0  0  0
   28.5960  -29.7306  -15.3304 O   0  0  0  0  0  0  0  0  0  0  0  0
   29.1707  -30.7452  -16.0925 C   0  0  0  0  0  0  0  0  0  0  0  0
   28.1002  -31.4863  -16.8937 C   0  0  2  0  0  0  0  0  0  0  0  0
   27.5710  -30.5366  -17.8517 N   0  0  0  0  0  0  0  0  0  0  0  0
   27.1170  -32.1212  -16.0298 C   0  0  0  0  0  0  0  0  0  0  0  0
   25.9813  -31.5581  -15.9447 O   0  0  0  0  0  0  0  0  0  0  0  0
   21.0075  -36.3351  -11.7232 O   0  0  0  0  0  0  0  0  0  0  0  0
   21.9509  -35.7225  -12.5372 C   0  0  0  0  0  0  0  0  0  0  0  0
   21.9676  -34.3616  -12.7437 C   0  0  0  0  0  0  0  0  0  0  0  0
   22.9292  -33.8034  -13.5640 C   0  0  0  0  0  0  0  0  0  0  0  0
   23.9022  -34.5380  -14.2095 C   0  0  0  0  0  0  0  0  0  0  0  0
   24.9367  -33.9786  -15.1001 C   0  0  0  0  0  0  0  0  0  0  0  0
   26.2123  -33.7833  -14.3623 C   0  0  2  0  0  0  0  0  0  0  0  0
   27.2748  -33.3026  -15.2660 N   0  0  0  0  0  0  0  0  0  0  0  0
   26.6785  -35.0456  -13.7746 C   0  0  0  0  0  0  0  0  0  0  0  0
   27.4874  -35.7756  -14.4400 O   0  0  0  0  0  0  0  0  0  0  0  0
   23.8580  -35.9197  -13.9785 C   0  0  0  0  0  0  0  0  0  0  0  0
   22.9054  -36.4900  -13.1633 C   0  0  0  0  0  0  0  0  0  0  0  0
   26.3008  -35.5090  -12.5292 O   0  0  0  0  0  0  0  0  0  0  0  0
  2  1  1  0
  3  2  2  0
  4  2  1  0
  5  6  1  0
  5  4  1  0
  6  8  1  0
  6  7  1  6
  8  9  2  0
 10 11  1  0
 12 11  1  1
 13 12  1  0
 13  8  1  0
 14 12  1  0
 14 15  2  0
 16 17  1  0
 17 27  2  0
 17 18  1  0
 18 19  2  0
 19 20  1  0
 20 21  1  0
 22 21  1  6
 22 23  1  0
 22 24  1  0
 23 14  1  0
 24 28  1  0
 25 24  2  0
 26 20  2  0
 27 26  1  0
M  END
$$$$
