QSY.pdb
     RDKit          3D

 28 28  0  0  1  0  0  0  0  0999 V2000
   19.3816  -16.2800  -17.2445 N   0  0  0  0  0  0  0  0  0  0  0  0
   19.7302  -15.1303  -17.9886 C   0  0  0  0  0  0  0  0  0  0  0  0
   19.0956  -14.7362  -18.9907 O   0  0  0  0  0  0  0  0  0  0  0  0
   20.9251  -14.3483  -17.5460 C   0  0  0  0  0  0  0  0  0  0  0  0
   20.6551  -12.8982  -17.7812 C   0  0  0  0  0  0  0  0  0  0  0  0
   20.0083  -12.2820  -16.5424 C   0  0  2  0  0  0  0  0  0  0  0  0
   18.6283  -12.8325  -16.5727 N   0  0  0  0  0  0  0  0  0  0  0  0
   19.8838  -10.8273  -16.6186 C   0  0  0  0  0  0  0  0  0  0  0  0
   20.0845  -10.2432  -17.7282 O   0  0  0  0  0  0  0  0  0  0  0  0
   17.0764   -8.5735  -15.1656 O   0  0  0  0  0  0  0  0  0  0  0  0
   17.9660   -8.2920  -16.2001 C   0  0  0  0  0  0  0  0  0  0  0  0
   19.4069   -8.5295  -15.7480 C   0  0  2  0  0  0  0  0  0  0  0  0
   19.5428   -9.9564  -15.5360 N   0  0  0  0  0  0  0  0  0  0  0  0
   19.7669   -7.6892  -14.6163 C   0  0  0  0  0  0  0  0  0  0  0  0
   20.0478   -8.2831  -13.5289 O   0  0  0  0  0  0  0  0  0  0  0  0
   24.7758   -4.1280  -17.7204 O   0  0  0  0  0  0  0  0  0  0  0  0
   24.0572   -4.5871  -16.6245 C   0  0  0  0  0  0  0  0  0  0  0  0
   23.8463   -5.9281  -16.3962 C   0  0  0  0  0  0  0  0  0  0  0  0
   23.1236   -6.3307  -15.2894 C   0  0  0  0  0  0  0  0  0  0  0  0
   22.5827   -5.4551  -14.3708 C   0  0  0  0  0  0  0  0  0  0  0  0
   21.7974   -5.8473  -13.1852 C   0  0  0  0  0  0  0  0  0  0  0  0
   20.3539   -5.5615  -13.3957 C   0  0  2  0  0  0  0  0  0  0  0  0
   19.8433   -6.2760  -14.5811 N   0  0  0  0  0  0  0  0  0  0  0  0
   20.1290   -4.1281  -13.6207 C   0  0  0  0  0  0  0  0  0  0  0  0
   19.7132   -3.7397  -14.7635 O   0  0  0  0  0  0  0  0  0  0  0  0
   22.8153   -4.0978  -14.6317 C   0  0  0  0  0  0  0  0  0  0  0  0
   23.5339   -3.6820  -15.7307 C   0  0  0  0  0  0  0  0  0  0  0  0
   20.3357   -3.1501  -12.6670 O   0  0  0  0  0  0  0  0  0  0  0  0
  2  1  1  0
  3  2  2  0
  4  2  1  0
  5  6  1  0
  5  4  1  0
  6  8  1  0
  6  7  1  6
  8  9  2  0
 10 11  1  0
 12 11  1  1
 13 12  1  0
 13  8  1  0
 14 12  1  0
 14 15  2  0
 16 17  1  0
 17 27  2  0
 17 18  1  0
 18 19  2  0
 19 20  1  0
 20 21  1  0
 22 21  1  6
 22 23  1  0
 22 24  1  0
 23 14  1  0
 24 28  1  0
 25 24  2  0
 26 20  2  0
 27 26  1  0
M  END
$$$$
