QSY.pdb
     RDKit          3D

 28 28  0  0  1  0  0  0  0  0999 V2000
   24.0033  -17.1440  -16.7295 N   0  0  0  0  0  0  0  0  0  0  0  0
   22.9555  -16.9357  -17.6545 C   0  0  0  0  0  0  0  0  0  0  0  0
   22.6324  -17.7651  -18.5321 O   0  0  0  0  0  0  0  0  0  0  0  0
   22.1968  -15.6501  -17.5720 C   0  0  0  0  0  0  0  0  0  0  0  0
   22.7084  -14.8731  -16.4035 C   0  0  0  0  0  0  0  0  0  0  0  0
   23.7916  -13.8984  -16.8611 C   0  0  2  0  0  0  0  0  0  0  0  0
   25.0500  -14.5785  -16.4585 N   0  0  0  0  0  0  0  0  0  0  0  0
   23.7569  -12.6209  -16.1509 C   0  0  0  0  0  0  0  0  0  0  0  0
   24.6846  -12.3402  -15.3304 O   0  0  0  0  0  0  0  0  0  0  0  0
   24.1434   -9.2858  -17.3122 O   0  0  0  0  0  0  0  0  0  0  0  0
   24.2021   -9.7372  -15.9956 C   0  0  0  0  0  0  0  0  0  0  0  0
   22.8659  -10.3526  -15.5795 C   0  0  2  0  0  0  0  0  0  0  0  0
   22.7529  -11.6111  -16.2888 N   0  0  0  0  0  0  0  0  0  0  0  0
   21.7598   -9.4260  -15.7640 C   0  0  0  0  0  0  0  0  0  0  0  0
   21.3070   -9.3030  -16.9446 O   0  0  0  0  0  0  0  0  0  0  0  0
   16.4992  -12.5567  -17.0983 O   0  0  0  0  0  0  0  0  0  0  0  0
   17.0348  -11.4284  -16.4915 C   0  0  0  0  0  0  0  0  0  0  0  0
   16.8348  -10.1620  -16.9928 C   0  0  0  0  0  0  0  0  0  0  0  0
   17.3910   -9.0732  -16.3492 C   0  0  0  0  0  0  0  0  0  0  0  0
   18.1558   -9.1710  -15.2052 C   0  0  0  0  0  0  0  0  0  0  0  0
   18.7738   -8.0335  -14.4979 C   0  0  0  0  0  0  0  0  0  0  0  0
   20.0685   -7.6659  -15.1290 C   0  0  2  0  0  0  0  0  0  0  0  0
   21.1207   -8.6381  -14.7766 N   0  0  0  0  0  0  0  0  0  0  0  0
   20.5221   -6.3473  -14.6691 C   0  0  0  0  0  0  0  0  0  0  0  0
   19.8009   -5.3239  -14.9189 O   0  0  0  0  0  0  0  0  0  0  0  0
   18.3403  -10.4731  -14.7206 C   0  0  0  0  0  0  0  0  0  0  0  0
   17.7919  -11.5677  -15.3516 C   0  0  0  0  0  0  0  0  0  0  0  0
   21.6935   -6.1290  -13.9700 O   0  0  0  0  0  0  0  0  0  0  0  0
  2  1  1  0
  3  2  2  0
  4  2  1  0
  5  6  1  0
  5  4  1  0
  6  8  1  0
  6  7  1  1
  8  9  2  0
 10 11  1  0
 12 11  1  6
 13 12  1  0
 13  8  1  0
 14 12  1  0
 14 15  2  0
 16 17  1  0
 17 27  2  0
 17 18  1  0
 18 19  2  0
 19 20  1  0
 20 21  1  0
 22 21  1  1
 22 23  1  0
 22 24  1  0
 23 14  1  0
 24 28  1  0
 25 24  2  0
 26 20  2  0
 27 26  1  0
M  END
$$$$
