QSY.pdb
     RDKit          3D

 28 28  0  0  1  0  0  0  0  0999 V2000
   27.7812  -21.8103  -16.0183 N   0  0  0  0  0  0  0  0  0  0  0  0
   28.8303  -22.2198  -16.8720 C   0  0  0  0  0  0  0  0  0  0  0  0
   28.7814  -22.1347  -18.1181 O   0  0  0  0  0  0  0  0  0  0  0  0
   30.0627  -22.7847  -16.2417 C   0  0  0  0  0  0  0  0  0  0  0  0
   30.4057  -24.0622  -16.9354 C   0  0  0  0  0  0  0  0  0  0  0  0
   30.8533  -25.1051  -15.9133 C   0  0  2  0  0  0  0  0  0  0  0  0
   32.3169  -25.2045  -16.1508 N   0  0  0  0  0  0  0  0  0  0  0  0
   30.2949  -26.4335  -16.1606 C   0  0  0  0  0  0  0  0  0  0  0  0
   31.0417  -27.4538  -16.0429 O   0  0  0  0  0  0  0  0  0  0  0  0
   26.2708  -27.1994  -16.9598 O   0  0  0  0  0  0  0  0  0  0  0  0
   27.0197  -28.0930  -16.1974 C   0  0  0  0  0  0  0  0  0  0  0  0
   28.4809  -28.0882  -16.6472 C   0  0  2  0  0  0  0  0  0  0  0  0
   28.9433  -26.7198  -16.5319 N   0  0  0  0  0  0  0  0  0  0  0  0
   28.6486  -28.6998  -17.9564 C   0  0  0  0  0  0  0  0  0  0  0  0
   28.6100  -27.9225  -18.9605 O   0  0  0  0  0  0  0  0  0  0  0  0
   32.8826  -34.4292  -16.3599 O   0  0  0  0  0  0  0  0  0  0  0  0
   32.3275  -33.4799  -17.2078 C   0  0  0  0  0  0  0  0  0  0  0  0
   32.5246  -32.1298  -17.0254 C   0  0  0  0  0  0  0  0  0  0  0  0
   31.9487  -31.2277  -17.8993 C   0  0  0  0  0  0  0  0  0  0  0  0
   31.1664  -31.5982  -18.9735 C   0  0  0  0  0  0  0  0  0  0  0  0
   30.5272  -30.6643  -19.9198 C   0  0  0  0  0  0  0  0  0  0  0  0
   29.0748  -30.5381  -19.6299 C   0  0  2  0  0  0  0  0  0  0  0  0
   28.8524  -30.0700  -18.2486 N   0  0  0  0  0  0  0  0  0  0  0  0
   28.3971  -31.8337  -19.7650 C   0  0  0  0  0  0  0  0  0  0  0  0
   27.8216  -32.3396  -18.7439 O   0  0  0  0  0  0  0  0  0  0  0  0
   30.9854  -32.9790  -19.1315 C   0  0  0  0  0  0  0  0  0  0  0  0
   31.5534  -33.8898  -18.2684 C   0  0  0  0  0  0  0  0  0  0  0  0
   28.3329  -32.5582  -20.9396 O   0  0  0  0  0  0  0  0  0  0  0  0
  2  1  1  0
  3  2  2  0
  4  2  1  0
  5  6  1  0
  5  4  1  0
  6  8  1  0
  6  7  1  6
  8  9  2  0
 10 11  1  0
 12 11  1  6
 13 12  1  0
 13  8  1  0
 14 12  1  0
 14 15  2  0
 16 17  1  0
 17 27  2  0
 17 18  1  0
 18 19  2  0
 19 20  1  0
 20 21  1  0
 22 21  1  1
 22 23  1  0
 22 24  1  0
 23 14  1  0
 24 28  1  0
 25 24  2  0
 26 20  2  0
 27 26  1  0
M  END
$$$$
