QSY.pdb
     RDKit          3D

 28 28  0  0  1  0  0  0  0  0999 V2000
   22.4316  -32.7952   -6.3838 N   0  0  0  0  0  0  0  0  0  0  0  0
   23.5542  -33.1556   -7.1627 C   0  0  0  0  0  0  0  0  0  0  0  0
   24.4228  -33.9726   -6.7879 O   0  0  0  0  0  0  0  0  0  0  0  0
   23.7035  -32.5201   -8.5077 C   0  0  0  0  0  0  0  0  0  0  0  0
   22.4904  -31.6914   -8.7766 C   0  0  0  0  0  0  0  0  0  0  0  0
   21.4340  -32.5322   -9.4907 C   0  0  2  0  0  0  0  0  0  0  0  0
   21.8823  -32.5059  -10.9073 N   0  0  0  0  0  0  0  0  0  0  0  0
   20.1006  -31.9334   -9.4592 C   0  0  0  0  0  0  0  0  0  0  0  0
   19.8816  -30.8683  -10.1150 O   0  0  0  0  0  0  0  0  0  0  0  0
   16.7101  -33.4005   -7.3466 O   0  0  0  0  0  0  0  0  0  0  0  0
   16.6192  -32.8346   -8.6163 C   0  0  0  0  0  0  0  0  0  0  0  0
   17.6913  -31.7608   -8.8029 C   0  0  2  0  0  0  0  0  0  0  0  0
   18.9698  -32.4401   -8.7441 N   0  0  0  0  0  0  0  0  0  0  0  0
   17.5229  -30.6569   -7.8706 C   0  0  0  0  0  0  0  0  0  0  0  0
   18.5748  -30.2126   -7.3136 O   0  0  0  0  0  0  0  0  0  0  0  0
   14.5386  -22.9573   -5.0814 O   0  0  0  0  0  0  0  0  0  0  0  0
   15.1508  -24.1268   -5.5123 C   0  0  0  0  0  0  0  0  0  0  0  0
   15.9332  -24.8942   -4.6793 C   0  0  0  0  0  0  0  0  0  0  0  0
   16.5194  -26.0495   -5.1597 C   0  0  0  0  0  0  0  0  0  0  0  0
   16.3703  -26.4998   -6.4552 C   0  0  0  0  0  0  0  0  0  0  0  0
   16.9888  -27.7207   -7.0056 C   0  0  0  0  0  0  0  0  0  0  0  0
   16.2932  -28.9332   -6.5001 C   0  0  2  0  0  0  0  0  0  0  0  0
   16.3166  -30.0116   -7.5066 N   0  0  0  0  0  0  0  0  0  0  0  0
   14.8844  -28.6456   -6.2025 C   0  0  0  0  0  0  0  0  0  0  0  0
   14.0141  -28.8002   -7.1237 O   0  0  0  0  0  0  0  0  0  0  0  0
   15.5681  -25.6965   -7.2772 C   0  0  0  0  0  0  0  0  0  0  0  0
   14.9774  -24.5425   -6.8120 C   0  0  0  0  0  0  0  0  0  0  0  0
   14.4221  -28.2142   -4.9742 O   0  0  0  0  0  0  0  0  0  0  0  0
  2  1  1  0
  3  2  2  0
  4  2  1  0
  5  6  1  0
  5  4  1  0
  6  8  1  0
  6  7  1  6
  8  9  2  0
 10 11  1  0
 12 11  1  1
 13 12  1  0
 13  8  1  0
 14 12  1  0
 14 15  2  0
 16 17  1  0
 17 27  2  0
 17 18  1  0
 18 19  2  0
 19 20  1  0
 20 21  1  0
 22 21  1  6
 22 23  1  0
 22 24  1  0
 23 14  1  0
 24 28  1  0
 25 24  2  0
 26 20  2  0
 27 26  1  0
M  END
$$$$
