QSY.pdb
     RDKit          3D

 28 28  0  0  1  0  0  0  0  0999 V2000
   24.3497  -11.4614  -23.1060 N   0  0  0  0  0  0  0  0  0  0  0  0
   23.7361  -12.7341  -23.1362 C   0  0  0  0  0  0  0  0  0  0  0  0
   23.6499  -13.4362  -24.1668 O   0  0  0  0  0  0  0  0  0  0  0  0
   23.1612  -13.2621  -21.8612 C   0  0  0  0  0  0  0  0  0  0  0  0
   23.3097  -12.2154  -20.8061 C   0  0  0  0  0  0  0  0  0  0  0  0
   24.0195  -12.8023  -19.5877 C   0  0  2  0  0  0  0  0  0  0  0  0
   23.2233  -14.0205  -19.2872 N   0  0  0  0  0  0  0  0  0  0  0  0
   23.9417  -11.9456  -18.4054 C   0  0  0  0  0  0  0  0  0  0  0  0
   22.8254  -11.4358  -18.0792 O   0  0  0  0  0  0  0  0  0  0  0  0
   27.2281  -10.6094  -16.1583 O   0  0  0  0  0  0  0  0  0  0  0  0
   26.0313  -10.8809  -15.4991 C   0  0  0  0  0  0  0  0  0  0  0  0
   24.8433  -10.6835  -16.4408 C   0  0  2  0  0  0  0  0  0  0  0  0
   25.0299  -11.6096  -17.5396 N   0  0  0  0  0  0  0  0  0  0  0  0
   24.6739   -9.2885  -16.8169 C   0  0  0  0  0  0  0  0  0  0  0  0
   25.3356   -8.8823  -17.8225 O   0  0  0  0  0  0  0  0  0  0  0  0
   22.5145   -1.1705  -19.0346 O   0  0  0  0  0  0  0  0  0  0  0  0
   22.4940   -2.4705  -18.5470 C   0  0  0  0  0  0  0  0  0  0  0  0
   22.1196   -2.7627  -17.2549 C   0  0  0  0  0  0  0  0  0  0  0  0
   22.1170   -4.0744  -16.8208 C   0  0  0  0  0  0  0  0  0  0  0  0
   22.4748   -5.1429  -17.6168 C   0  0  0  0  0  0  0  0  0  0  0  0
   22.4946   -6.5534  -17.1852 C   0  0  0  0  0  0  0  0  0  0  0  0
   23.8316   -6.9171  -16.6469 C   0  0  2  0  0  0  0  0  0  0  0  0
   23.8518   -8.3203  -16.1916 N   0  0  0  0  0  0  0  0  0  0  0  0
   24.1792   -6.0795  -15.4921 C   0  0  0  0  0  0  0  0  0  0  0  0
   23.7288   -6.3969  -14.3405 O   0  0  0  0  0  0  0  0  0  0  0  0
   22.8504   -4.8120  -18.9260 C   0  0  0  0  0  0  0  0  0  0  0  0
   22.8575   -3.5090  -19.3725 C   0  0  0  0  0  0  0  0  0  0  0  0
   24.9757   -4.9527  -15.5612 O   0  0  0  0  0  0  0  0  0  0  0  0
  2  1  1  0
  3  2  2  0
  4  2  1  0
  5  6  1  0
  5  4  1  0
  6  8  1  0
  6  7  1  1
  8  9  2  0
 10 11  1  0
 12 11  1  1
 13 12  1  0
 13  8  1  0
 14 12  1  0
 14 15  2  0
 16 17  1  0
 17 27  2  0
 17 18  1  0
 18 19  2  0
 19 20  1  0
 20 21  1  0
 22 21  1  1
 22 23  1  0
 22 24  1  0
 23 14  1  0
 24 28  1  0
 25 24  2  0
 26 20  2  0
 27 26  1  0
M  END
$$$$
