QSY.pdb
     RDKit          3D

 28 28  0  0  1  0  0  0  0  0999 V2000
   28.3876  -14.7367  -19.5690 N   0  0  0  0  0  0  0  0  0  0  0  0
   27.7083  -15.0481  -18.3696 C   0  0  0  0  0  0  0  0  0  0  0  0
   26.5132  -14.7517  -18.1544 O   0  0  0  0  0  0  0  0  0  0  0  0
   28.4681  -15.7721  -17.3049 C   0  0  0  0  0  0  0  0  0  0  0  0
   27.5370  -16.7172  -16.6188 C   0  0  0  0  0  0  0  0  0  0  0  0
   27.7757  -18.1395  -17.1218 C   0  0  2  0  0  0  0  0  0  0  0  0
   27.4034  -18.0566  -18.5581 N   0  0  0  0  0  0  0  0  0  0  0  0
   26.8850  -19.1253  -16.5116 C   0  0  0  0  0  0  0  0  0  0  0  0
   25.9472  -19.6289  -17.2040 O   0  0  0  0  0  0  0  0  0  0  0  0
   27.8943  -23.0950  -15.5079 O   0  0  0  0  0  0  0  0  0  0  0  0
   27.9269  -21.7181  -15.7177 C   0  0  0  0  0  0  0  0  0  0  0  0
   26.8551  -21.0222  -14.8787 C   0  0  2  0  0  0  0  0  0  0  0  0
   26.9613  -19.6060  -15.1663 N   0  0  0  0  0  0  0  0  0  0  0  0
   26.9440  -21.3861  -13.4730 C   0  0  0  0  0  0  0  0  0  0  0  0
   28.0964  -21.3359  -12.9405 O   0  0  0  0  0  0  0  0  0  0  0  0
   28.6606  -20.1729   -5.6646 O   0  0  0  0  0  0  0  0  0  0  0  0
   28.1537  -20.1358   -6.9568 C   0  0  0  0  0  0  0  0  0  0  0  0
   27.1143  -19.3063   -7.3126 C   0  0  0  0  0  0  0  0  0  0  0  0
   26.6481  -19.3092   -8.6133 C   0  0  0  0  0  0  0  0  0  0  0  0
   27.1679  -20.1100   -9.6091 C   0  0  0  0  0  0  0  0  0  0  0  0
   26.6894  -20.1478  -11.0040 C   0  0  0  0  0  0  0  0  0  0  0  0
   25.8066  -21.3236  -11.2226 C   0  0  2  0  0  0  0  0  0  0  0  0
   25.8906  -21.7925  -12.6189 N   0  0  0  0  0  0  0  0  0  0  0  0
   24.4025  -20.9829  -10.9614 C   0  0  0  0  0  0  0  0  0  0  0  0
   23.6940  -20.5100  -11.9124 O   0  0  0  0  0  0  0  0  0  0  0  0
   28.2245  -20.9421   -9.2146 C   0  0  0  0  0  0  0  0  0  0  0  0
   28.6996  -20.9498   -7.9219 C   0  0  0  0  0  0  0  0  0  0  0  0
   23.7789  -21.1419   -9.7389 O   0  0  0  0  0  0  0  0  0  0  0  0
  2  1  1  0
  3  2  2  0
  4  2  1  0
  5  6  1  0
  5  4  1  0
  6  8  1  0
  6  7  1  6
  8  9  2  0
 10 11  1  0
 12 11  1  6
 13 12  1  0
 13  8  1  0
 14 12  1  0
 14 15  2  0
 16 17  1  0
 17 27  2  0
 17 18  1  0
 18 19  2  0
 19 20  1  0
 20 21  1  0
 22 21  1  6
 22 23  1  0
 22 24  1  0
 23 14  1  0
 24 28  1  0
 25 24  2  0
 26 20  2  0
 27 26  1  0
M  END
$$$$
