QSY.pdb
     RDKit          3D

 28 28  0  0  1  0  0  0  0  0999 V2000
   21.6422  -12.9683  -16.5886 N   0  0  0  0  0  0  0  0  0  0  0  0
   20.8443  -13.1923  -17.7332 C   0  0  0  0  0  0  0  0  0  0  0  0
   21.1276  -14.0243  -18.6220 O   0  0  0  0  0  0  0  0  0  0  0  0
   19.5944  -12.3856  -17.8814 C   0  0  0  0  0  0  0  0  0  0  0  0
   19.4342  -11.5336  -16.6652 C   0  0  0  0  0  0  0  0  0  0  0  0
   18.1475  -10.7172  -16.7679 C   0  0  2  0  0  0  0  0  0  0  0  0
   17.7620  -10.8723  -18.1947 N   0  0  0  0  0  0  0  0  0  0  0  0
   18.3504   -9.2874  -16.5391 C   0  0  0  0  0  0  0  0  0  0  0  0
   18.9290   -8.5911  -17.4296 O   0  0  0  0  0  0  0  0  0  0  0  0
   16.4272   -7.0287  -13.6793 O   0  0  0  0  0  0  0  0  0  0  0  0
   16.9348   -6.4630  -14.8468 C   0  0  0  0  0  0  0  0  0  0  0  0
   18.2425   -7.1453  -15.2488 C   0  0  2  0  0  0  0  0  0  0  0  0
   17.9482   -8.5584  -15.3758 N   0  0  0  0  0  0  0  0  0  0  0  0
   19.3313   -6.8091  -14.3446 C   0  0  0  0  0  0  0  0  0  0  0  0
   19.5611   -7.6241  -13.3974 O   0  0  0  0  0  0  0  0  0  0  0  0
   23.7299   -3.6254  -19.0663 O   0  0  0  0  0  0  0  0  0  0  0  0
   23.4224   -4.2685  -17.8747 C   0  0  0  0  0  0  0  0  0  0  0  0
   22.6491   -5.4066  -17.8346 C   0  0  0  0  0  0  0  0  0  0  0  0
   22.3734   -6.0068  -16.6209 C   0  0  0  0  0  0  0  0  0  0  0  0
   22.8331   -5.5295  -15.4110 C   0  0  0  0  0  0  0  0  0  0  0  0
   22.5504   -6.1365  -14.0966 C   0  0  0  0  0  0  0  0  0  0  0  0
   21.3334   -5.5335  -13.4925 C   0  0  2  0  0  0  0  0  0  0  0  0
   20.1740   -5.6726  -14.3941 N   0  0  0  0  0  0  0  0  0  0  0  0
   21.5242   -4.0986  -13.2466 C   0  0  0  0  0  0  0  0  0  0  0  0
   20.7745   -3.2624  -13.8538 O   0  0  0  0  0  0  0  0  0  0  0  0
   23.6172   -4.3701  -15.4862 C   0  0  0  0  0  0  0  0  0  0  0  0
   23.9003   -3.7612  -16.6888 C   0  0  0  0  0  0  0  0  0  0  0  0
   22.4721   -3.5768  -12.3875 O   0  0  0  0  0  0  0  0  0  0  0  0
  2  1  1  0
  3  2  2  0
  4  2  1  0
  5  6  1  0
  5  4  1  0
  6  8  1  0
  6  7  1  6
  8  9  2  0
 10 11  1  0
 12 11  1  1
 13 12  1  0
 13  8  1  0
 14 12  1  0
 14 15  2  0
 16 17  1  0
 17 27  2  0
 17 18  1  0
 18 19  2  0
 19 20  1  0
 20 21  1  0
 22 21  1  6
 22 23  1  0
 22 24  1  0
 23 14  1  0
 24 28  1  0
 25 24  2  0
 26 20  2  0
 27 26  1  0
M  END
$$$$
