KTQ.pdb
     RDKit          3D

 26 25  0  0  1  0  0  0  0  0999 V2000
   24.2175  -18.1025  -17.5676 N   0  0  0  0  0  0  0  0  0  0  0  0
   24.3266  -19.4822  -17.9679 C   0  0  1  0  0  0  0  0  0  0  0  0
   24.9072  -19.5734  -19.3418 C   0  0  0  0  0  0  0  0  0  0  0  0
   24.1213  -18.9665  -20.4405 C   0  0  0  0  0  0  0  0  0  0  0  0
   22.6722  -19.2560  -20.5030 C   0  0  0  0  0  0  0  0  0  0  0  0
   21.9253  -18.5914  -21.6224 C   0  0  0  0  0  0  0  0  0  0  0  0
   20.5169  -18.9036  -21.6267 N   0  0  0  0  0  0  0  0  0  0  0  0
   25.2737  -20.1497  -17.0030 C   0  0  0  0  0  0  0  0  0  0  0  0
   25.6574  -21.3333  -17.1806 O   0  0  0  0  0  0  0  0  0  0  0  0
   28.6842  -19.7696  -16.1745 C   0  0  0  0  0  0  0  0  0  0  0  0
   27.9757  -19.4370  -14.8780 C   0  0  1  0  0  0  0  0  0  0  0  0
   27.9406  -18.0526  -14.7793 O   0  0  0  0  0  0  0  0  0  0  0  0
   26.5825  -20.0427  -14.8420 C   0  0  2  0  0  0  0  0  0  0  0  0
   25.7433  -19.4377  -15.8755 N   0  0  0  0  0  0  0  0  0  0  0  0
   25.9284  -19.7923  -13.5331 C   0  0  0  0  0  0  0  0  0  0  0  0
   25.4853  -18.6324  -13.2250 O   0  0  0  0  0  0  0  0  0  0  0  0
   20.8650  -20.7938  -11.9487 N   0  0  0  0  0  0  0  0  0  0  0  0
   21.2861  -20.3349  -10.6800 C   0  0  0  0  0  0  0  0  0  0  0  0
   20.4430  -20.0676   -9.7886 O   0  0  0  0  0  0  0  0  0  0  0  0
   22.7194  -20.1713  -10.3887 C   0  0  0  0  0  0  0  0  0  0  0  0
   23.6453  -20.4651  -11.5016 C   0  0  0  0  0  0  0  0  0  0  0  0
   25.1008  -20.4896  -11.2395 C   0  0  2  0  0  0  0  0  0  0  0  0
   25.7445  -20.7885  -12.5426 N   0  0  0  0  0  0  0  0  0  0  0  0
   25.6346  -21.2952  -10.1695 C   0  0  0  0  0  0  0  0  0  0  0  0
   25.6761  -20.9585   -8.8198 O   0  0  0  0  0  0  0  0  0  0  0  0
   26.1433  -22.4480  -10.4209 O   0  0  0  0  0  0  0  0  0  0  0  0
  2  1  1  1
  3  2  1  0
  4  3  1  0
  4  5  1  0
  5  6  1  0
  6  7  1  0
  8  2  1  0
  8  9  2  0
 11 10  1  6
 11 13  1  0
 12 11  1  0
 13 14  1  6
 14  8  1  0
 15 23  1  0
 15 13  1  0
 16 15  2  0
 17 18  1  0
 18 19  2  0
 18 20  1  0
 20 21  1  0
 22 21  1  6
 22 23  1  0
 22 24  1  0
 24 25  1  0
 26 24  2  0
M  END
$$$$
