KTQ.pdb
     RDKit          3D

 26 25  0  0  1  0  0  0  0  0999 V2000
   14.0579   -9.7780  -16.8513 N   0  0  0  0  0  0  0  0  0  0  0  0
   14.4482   -8.7241  -15.9500 C   0  0  1  0  0  0  0  0  0  0  0  0
   14.4073   -9.2143  -14.5390 C   0  0  0  0  0  0  0  0  0  0  0  0
   13.3301  -10.1708  -14.1954 C   0  0  0  0  0  0  0  0  0  0  0  0
   13.1568  -10.5441  -12.7747 C   0  0  0  0  0  0  0  0  0  0  0  0
   12.1199  -11.5942  -12.5016 C   0  0  0  0  0  0  0  0  0  0  0  0
   12.0570  -11.9795  -11.1127 N   0  0  0  0  0  0  0  0  0  0  0  0
   15.8711   -8.3568  -16.2878 C   0  0  0  0  0  0  0  0  0  0  0  0
   16.6785   -9.2142  -16.7266 O   0  0  0  0  0  0  0  0  0  0  0  0
   16.8394   -5.8065  -18.7426 C   0  0  0  0  0  0  0  0  0  0  0  0
   17.5389   -5.3988  -17.4628 C   0  0  1  0  0  0  0  0  0  0  0  0
   16.8122   -4.3471  -16.9213 O   0  0  0  0  0  0  0  0  0  0  0  0
   17.6464   -6.5685  -16.4986 C   0  0  2  0  0  0  0  0  0  0  0  0
   16.3127   -7.0254  -16.1105 N   0  0  0  0  0  0  0  0  0  0  0  0
   18.3599   -6.1708  -15.2591 C   0  0  0  0  0  0  0  0  0  0  0  0
   17.7858   -6.2266  -14.1171 O   0  0  0  0  0  0  0  0  0  0  0  0
   20.2138   -8.8578  -11.4748 N   0  0  0  0  0  0  0  0  0  0  0  0
   21.2893   -8.7464  -12.3848 C   0  0  0  0  0  0  0  0  0  0  0  0
   22.1529   -9.6546  -12.4628 O   0  0  0  0  0  0  0  0  0  0  0  0
   21.4046   -7.5656  -13.2558 C   0  0  0  0  0  0  0  0  0  0  0  0
   20.3373   -6.5532  -13.1209 C   0  0  0  0  0  0  0  0  0  0  0  0
   20.3815   -5.3433  -13.9705 C   0  0  2  0  0  0  0  0  0  0  0  0
   19.6992   -5.7092  -15.2364 N   0  0  0  0  0  0  0  0  0  0  0  0
   21.6303   -4.6605  -14.2011 C   0  0  0  0  0  0  0  0  0  0  0  0
   22.4024   -4.0010  -13.2495 O   0  0  0  0  0  0  0  0  0  0  0  0
   22.1325   -4.6144  -15.3828 O   0  0  0  0  0  0  0  0  0  0  0  0
  2  1  1  6
  3  2  1  0
  4  3  1  0
  4  5  1  0
  5  6  1  0
  6  7  1  0
  8  2  1  0
  8  9  2  0
 11 10  1  6
 11 13  1  0
 12 11  1  0
 13 14  1  1
 14  8  1  0
 15 23  1  0
 15 13  1  0
 16 15  2  0
 17 18  1  0
 18 19  2  0
 18 20  1  0
 20 21  1  0
 22 21  1  6
 22 23  1  0
 22 24  1  0
 24 25  1  0
 26 24  2  0
M  END
$$$$
