KTQ.pdb
     RDKit          3D

 26 25  0  0  1  0  0  0  0  0999 V2000
   25.1876  -20.8001   -9.3098 N   0  0  0  0  0  0  0  0  0  0  0  0
   24.3633  -20.9310  -10.4841 C   0  0  1  0  0  0  0  0  0  0  0  0
   22.9947  -20.3962  -10.2124 C   0  0  0  0  0  0  0  0  0  0  0  0
   21.8988  -21.3870  -10.1097 C   0  0  0  0  0  0  0  0  0  0  0  0
   21.2571  -21.5821   -8.7915 C   0  0  0  0  0  0  0  0  0  0  0  0
   20.2268  -22.6714   -8.7261 C   0  0  0  0  0  0  0  0  0  0  0  0
   19.6850  -22.8591   -7.4023 N   0  0  0  0  0  0  0  0  0  0  0  0
   24.9979  -20.0943  -11.5661 C   0  0  0  0  0  0  0  0  0  0  0  0
   25.4661  -18.9546  -11.3179 O   0  0  0  0  0  0  0  0  0  0  0  0
   28.0053  -20.3341  -13.3599 C   0  0  0  0  0  0  0  0  0  0  0  0
   26.9524  -20.4502  -14.4422 C   0  0  1  0  0  0  0  0  0  0  0  0
   26.8165  -21.8012  -14.7317 O   0  0  0  0  0  0  0  0  0  0  0  0
   25.6375  -19.8311  -13.9983 C   0  0  2  0  0  0  0  0  0  0  0  0
   25.0714  -20.5939  -12.8867 N   0  0  0  0  0  0  0  0  0  0  0  0
   24.6443  -19.8467  -15.1015 C   0  0  0  0  0  0  0  0  0  0  0  0
   23.7090  -20.7188  -15.1388 O   0  0  0  0  0  0  0  0  0  0  0  0
   20.3336  -20.1016  -14.7648 N   0  0  0  0  0  0  0  0  0  0  0  0
   19.9647  -19.5321  -16.0045 C   0  0  0  0  0  0  0  0  0  0  0  0
   18.7922  -19.6553  -16.4371 O   0  0  0  0  0  0  0  0  0  0  0  0
   20.9509  -18.7826  -16.7992 C   0  0  0  0  0  0  0  0  0  0  0  0
   22.2981  -18.6534  -16.2070 C   0  0  0  0  0  0  0  0  0  0  0  0
   23.4838  -18.7709  -17.0835 C   0  0  2  0  0  0  0  0  0  0  0  0
   24.6478  -18.9230  -16.1759 N   0  0  0  0  0  0  0  0  0  0  0  0
   23.7229  -17.7973  -18.1196 C   0  0  0  0  0  0  0  0  0  0  0  0
   23.1713  -17.7939  -19.3972 O   0  0  0  0  0  0  0  0  0  0  0  0
   24.5199  -16.8118  -17.9082 O   0  0  0  0  0  0  0  0  0  0  0  0
  2  1  1  1
  3  2  1  0
  4  3  1  0
  4  5  1  0
  5  6  1  0
  6  7  1  0
  8  2  1  0
  8  9  2  0
 11 10  1  1
 11 13  1  0
 12 11  1  0
 13 14  1  1
 14  8  1  0
 15 23  1  0
 15 13  1  0
 16 15  2  0
 17 18  1  0
 18 19  2  0
 18 20  1  0
 20 21  1  0
 22 21  1  1
 22 23  1  0
 22 24  1  0
 24 25  1  0
 26 24  2  0
M  END
$$$$
