KTQ.pdb
     RDKit          3D

 26 25  0  0  1  0  0  0  0  0999 V2000
   24.7240  -20.6226   -9.3512 N   0  0  0  0  0  0  0  0  0  0  0  0
   24.3452  -20.9255  -10.7078 C   0  0  1  0  0  0  0  0  0  0  0  0
   22.9703  -20.4094  -10.9839 C   0  0  0  0  0  0  0  0  0  0  0  0
   21.8860  -20.8902  -10.0971 C   0  0  0  0  0  0  0  0  0  0  0  0
   20.9827  -21.9435  -10.6091 C   0  0  0  0  0  0  0  0  0  0  0  0
   19.7866  -22.2446   -9.7540 C   0  0  0  0  0  0  0  0  0  0  0  0
   18.8896  -23.2027  -10.3529 N   0  0  0  0  0  0  0  0  0  0  0  0
   25.3163  -20.2063  -11.6097 C   0  0  0  0  0  0  0  0  0  0  0  0
   25.7331  -19.0538  -11.3310 O   0  0  0  0  0  0  0  0  0  0  0  0
   28.7020  -20.5555  -12.4821 C   0  0  0  0  0  0  0  0  0  0  0  0
   27.9953  -20.7636  -13.8053 C   0  0  1  0  0  0  0  0  0  0  0  0
   27.9592  -22.1324  -14.0343 O   0  0  0  0  0  0  0  0  0  0  0  0
   26.6027  -20.1557  -13.7861 C   0  0  2  0  0  0  0  0  0  0  0  0
   25.7710  -20.8334  -12.7925 N   0  0  0  0  0  0  0  0  0  0  0  0
   25.9379  -20.3102  -15.1044 C   0  0  0  0  0  0  0  0  0  0  0  0
   25.0563  -21.2164  -15.2998 O   0  0  0  0  0  0  0  0  0  0  0  0
   21.2737  -19.2915  -16.3961 N   0  0  0  0  0  0  0  0  0  0  0  0
   21.8174  -18.2723  -17.2103 C   0  0  0  0  0  0  0  0  0  0  0  0
   21.1024  -17.3121  -17.5894 O   0  0  0  0  0  0  0  0  0  0  0  0
   23.2307  -18.3232  -17.6177 C   0  0  0  0  0  0  0  0  0  0  0  0
   24.0159  -19.4603  -17.0956 C   0  0  0  0  0  0  0  0  0  0  0  0
   25.4367  -19.5930  -17.4849 C   0  0  2  0  0  0  0  0  0  0  0  0
   26.2154  -19.4901  -16.2259 N   0  0  0  0  0  0  0  0  0  0  0  0
   25.9842  -18.7697  -18.5342 C   0  0  0  0  0  0  0  0  0  0  0  0
   25.7045  -18.8654  -19.8941 O   0  0  0  0  0  0  0  0  0  0  0  0
   26.8251  -17.8397  -18.2532 O   0  0  0  0  0  0  0  0  0  0  0  0
  2  1  1  1
  3  2  1  0
  4  3  1  0
  4  5  1  0
  5  6  1  0
  6  7  1  0
  8  2  1  0
  8  9  2  0
 11 10  1  1
 11 13  1  0
 12 11  1  0
 13 14  1  1
 14  8  1  0
 15 23  1  0
 15 13  1  0
 16 15  2  0
 17 18  1  0
 18 19  2  0
 18 20  1  0
 20 21  1  0
 22 21  1  1
 22 23  1  0
 22 24  1  0
 24 25  1  0
 26 24  2  0
M  END
$$$$
