KTQ.pdb
     RDKit          3D

 26 25  0  0  1  0  0  0  0  0999 V2000
   23.7534  -21.9438  -14.4766 N   0  0  0  0  0  0  0  0  0  0  0  0
   25.1353  -21.7510  -14.1178 C   0  0  1  0  0  0  0  0  0  0  0  0
   26.0116  -22.6089  -14.9716 C   0  0  0  0  0  0  0  0  0  0  0  0
   25.3613  -23.3117  -16.1014 C   0  0  0  0  0  0  0  0  0  0  0  0
   25.4926  -24.7831  -16.1750 C   0  0  0  0  0  0  0  0  0  0  0  0
   26.1016  -25.3179  -17.4381 C   0  0  0  0  0  0  0  0  0  0  0  0
   26.3135  -26.7446  -17.4042 N   0  0  0  0  0  0  0  0  0  0  0  0
   25.4667  -20.3059  -14.3924 C   0  0  0  0  0  0  0  0  0  0  0  0
   26.5906  -19.8276  -14.0959 O   0  0  0  0  0  0  0  0  0  0  0  0
   27.2372  -18.3393  -15.3958 C   0  0  0  0  0  0  0  0  0  0  0  0
   25.9994  -17.9319  -16.1674 C   0  0  1  0  0  0  0  0  0  0  0  0
   25.9402  -18.7405  -17.2943 O   0  0  0  0  0  0  0  0  0  0  0  0
   24.7507  -18.0615  -15.3111 C   0  0  2  0  0  0  0  0  0  0  0  0
   24.5009  -19.4670  -14.9943 N   0  0  0  0  0  0  0  0  0  0  0  0
   23.5581  -17.5476  -16.0305 C   0  0  0  0  0  0  0  0  0  0  0  0
   22.7097  -18.3449  -16.5610 O   0  0  0  0  0  0  0  0  0  0  0  0
   18.8552  -15.8688  -14.0295 N   0  0  0  0  0  0  0  0  0  0  0  0
   18.5291  -15.5090  -15.3567 C   0  0  0  0  0  0  0  0  0  0  0  0
   17.3431  -15.2397  -15.6694 O   0  0  0  0  0  0  0  0  0  0  0  0
   19.5789  -15.4403  -16.3859 C   0  0  0  0  0  0  0  0  0  0  0  0
   20.9403  -15.8126  -15.9497 C   0  0  0  0  0  0  0  0  0  0  0  0
   22.0597  -15.7001  -16.9101 C   0  0  2  0  0  0  0  0  0  0  0  0
   23.2666  -16.1699  -16.1858 N   0  0  0  0  0  0  0  0  0  0  0  0
   22.2927  -14.4644  -17.6154 C   0  0  0  0  0  0  0  0  0  0  0  0
   21.5514  -13.9669  -18.6829 O   0  0  0  0  0  0  0  0  0  0  0  0
   23.2707  -13.7026  -17.2778 O   0  0  0  0  0  0  0  0  0  0  0  0
  2  1  1  6
  3  2  1  0
  4  3  1  0
  4  5  1  0
  5  6  1  0
  6  7  1  0
  8  2  1  0
  8  9  2  0
 11 10  1  1
 11 13  1  0
 12 11  1  0
 13 14  1  6
 14  8  1  0
 15 23  1  0
 15 13  1  0
 16 15  2  0
 17 18  1  0
 18 19  2  0
 18 20  1  0
 20 21  1  0
 22 21  1  1
 22 23  1  0
 22 24  1  0
 24 25  1  0
 26 24  2  0
M  END
$$$$
