KTQ.pdb
     RDKit          3D

 26 25  0  0  1  0  0  0  0  0999 V2000
   28.3211  -20.1358  -17.6270 N   0  0  0  0  0  0  0  0  0  0  0  0
   26.9786  -20.6168  -17.4225 C   0  0  1  0  0  0  0  0  0  0  0  0
   26.9974  -21.8419  -16.5671 C   0  0  0  0  0  0  0  0  0  0  0  0
   27.5403  -23.0760  -17.1800 C   0  0  0  0  0  0  0  0  0  0  0  0
   27.6159  -24.2940  -16.3443 C   0  0  0  0  0  0  0  0  0  0  0  0
   28.2001  -25.5042  -17.0125 C   0  0  0  0  0  0  0  0  0  0  0  0
   29.3611  -26.0221  -16.3304 N   0  0  0  0  0  0  0  0  0  0  0  0
   26.2268  -19.5338  -16.6907 C   0  0  0  0  0  0  0  0  0  0  0  0
   26.7575  -18.8969  -15.7460 O   0  0  0  0  0  0  0  0  0  0  0  0
   25.5553  -16.3652  -17.4919 C   0  0  0  0  0  0  0  0  0  0  0  0
   24.1507  -16.9128  -17.3488 C   0  0  1  0  0  0  0  0  0  0  0  0
   23.6935  -17.1946  -18.6290 O   0  0  0  0  0  0  0  0  0  0  0  0
   24.1285  -18.1424  -16.4562 C   0  0  2  0  0  0  0  0  0  0  0  0
   24.9003  -19.2232  -17.0682 N   0  0  0  0  0  0  0  0  0  0  0  0
   22.7413  -18.6364  -16.2674 C   0  0  0  0  0  0  0  0  0  0  0  0
   22.4286  -19.8491  -16.5282 O   0  0  0  0  0  0  0  0  0  0  0  0
   20.8285  -21.6925  -12.8124 N   0  0  0  0  0  0  0  0  0  0  0  0
   21.0820  -20.3909  -12.3238 C   0  0  0  0  0  0  0  0  0  0  0  0
   21.4175  -20.2154  -11.1265 O   0  0  0  0  0  0  0  0  0  0  0  0
   20.9611  -19.2269  -13.2163 C   0  0  0  0  0  0  0  0  0  0  0  0
   20.5230  -19.5116  -14.5980 C   0  0  0  0  0  0  0  0  0  0  0  0
   20.3256  -18.3858  -15.5369 C   0  0  2  0  0  0  0  0  0  0  0  0
   21.6767  -17.8294  -15.7955 N   0  0  0  0  0  0  0  0  0  0  0  0
   19.3578  -17.3571  -15.2472 C   0  0  0  0  0  0  0  0  0  0  0  0
   17.9901  -17.5344  -15.0615 O   0  0  0  0  0  0  0  0  0  0  0  0
   19.7295  -16.1316  -15.1430 O   0  0  0  0  0  0  0  0  0  0  0  0
  2  1  1  1
  3  2  1  0
  4  3  1  0
  4  5  1  0
  5  6  1  0
  6  7  1  0
  8  2  1  0
  8  9  2  0
 11 10  1  6
 11 13  1  0
 12 11  1  0
 13 14  1  6
 14  8  1  0
 15 23  1  0
 15 13  1  0
 16 15  2  0
 17 18  1  0
 18 19  2  0
 18 20  1  0
 20 21  1  0
 22 21  1  1
 22 23  1  0
 22 24  1  0
 24 25  1  0
 26 24  2  0
M  END
$$$$
