KTQ.pdb
     RDKit          3D

 26 25  0  0  1  0  0  0  0  0999 V2000
   23.9680  -19.7874  -18.6962 N   0  0  0  0  0  0  0  0  0  0  0  0
   24.2328  -19.0868  -17.4656 C   0  0  1  0  0  0  0  0  0  0  0  0
   22.9722  -18.9411  -16.6767 C   0  0  0  0  0  0  0  0  0  0  0  0
   21.8585  -18.2122  -17.3261 C   0  0  0  0  0  0  0  0  0  0  0  0
   20.5967  -18.0519  -16.5713 C   0  0  0  0  0  0  0  0  0  0  0  0
   19.5270  -17.2536  -17.2575 C   0  0  0  0  0  0  0  0  0  0  0  0
   18.2826  -17.2302  -16.5280 N   0  0  0  0  0  0  0  0  0  0  0  0
   25.1979  -19.9323  -16.6735 C   0  0  0  0  0  0  0  0  0  0  0  0
   25.8774  -20.8346  -17.2246 O   0  0  0  0  0  0  0  0  0  0  0  0
   27.7971  -19.4835  -16.6802 C   0  0  0  0  0  0  0  0  0  0  0  0
   27.7489  -19.2674  -15.1821 C   0  0  1  0  0  0  0  0  0  0  0  0
   27.6630  -17.8976  -14.9731 O   0  0  0  0  0  0  0  0  0  0  0  0
   26.5797  -20.0101  -14.5572 C   0  0  2  0  0  0  0  0  0  0  0  0
   25.3468  -19.7121  -15.2849 N   0  0  0  0  0  0  0  0  0  0  0  0
   26.3776  -19.5916  -13.1473 C   0  0  0  0  0  0  0  0  0  0  0  0
   26.1600  -18.3680  -12.8439 O   0  0  0  0  0  0  0  0  0  0  0  0
   21.6393  -19.2348  -12.0475 N   0  0  0  0  0  0  0  0  0  0  0  0
   21.9306  -20.5912  -11.7778 C   0  0  0  0  0  0  0  0  0  0  0  0
   21.0385  -21.4677  -11.8908 O   0  0  0  0  0  0  0  0  0  0  0  0
   23.2860  -20.9913  -11.3672 C   0  0  0  0  0  0  0  0  0  0  0  0
   24.2699  -19.8985  -11.2249 C   0  0  0  0  0  0  0  0  0  0  0  0
   25.6495  -20.2229  -10.8013 C   0  0  2  0  0  0  0  0  0  0  0  0
   26.4074  -20.4867  -12.0494 N   0  0  0  0  0  0  0  0  0  0  0  0
   25.8850  -21.2295   -9.7964 C   0  0  0  0  0  0  0  0  0  0  0  0
   26.5208  -22.4534   -9.9822 O   0  0  0  0  0  0  0  0  0  0  0  0
   25.4875  -21.0422   -8.5890 O   0  0  0  0  0  0  0  0  0  0  0  0
  2  1  1  6
  3  2  1  0
  4  3  1  0
  4  5  1  0
  5  6  1  0
  6  7  1  0
  8  2  1  0
  8  9  2  0
 11 10  1  6
 11 13  1  0
 12 11  1  0
 13 14  1  6
 14  8  1  0
 15 23  1  0
 15 13  1  0
 16 15  2  0
 17 18  1  0
 18 19  2  0
 18 20  1  0
 20 21  1  0
 22 21  1  6
 22 23  1  0
 22 24  1  0
 24 25  1  0
 26 24  2  0
M  END
$$$$
