KTQ.pdb
     RDKit          3D

 26 25  0  0  1  0  0  0  0  0999 V2000
   25.8513  -22.0255  -11.8920 N   0  0  0  0  0  0  0  0  0  0  0  0
   24.9471  -20.9365  -11.6236 C   0  0  1  0  0  0  0  0  0  0  0  0
   25.3108  -20.2734  -10.3348 C   0  0  0  0  0  0  0  0  0  0  0  0
   24.5742  -20.7118   -9.1271 C   0  0  0  0  0  0  0  0  0  0  0  0
   23.2021  -21.2362   -9.2999 C   0  0  0  0  0  0  0  0  0  0  0  0
   22.4494  -21.5148   -8.0317 C   0  0  0  0  0  0  0  0  0  0  0  0
   21.0867  -21.9289   -8.2618 N   0  0  0  0  0  0  0  0  0  0  0  0
   25.1142  -19.9367  -12.7399 C   0  0  0  0  0  0  0  0  0  0  0  0
   24.4312  -18.8823  -12.7776 O   0  0  0  0  0  0  0  0  0  0  0  0
   28.7482  -19.2807  -14.4365 C   0  0  0  0  0  0  0  0  0  0  0  0
   27.6631  -19.4885  -15.4722 C   0  0  1  0  0  0  0  0  0  0  0  0
   27.8086  -20.7811  -15.9576 O   0  0  0  0  0  0  0  0  0  0  0  0
   26.2839  -19.2590  -14.8768 C   0  0  2  0  0  0  0  0  0  0  0  0
   26.0546  -20.1826  -13.7666 N   0  0  0  0  0  0  0  0  0  0  0  0
   25.2228  -19.5025  -15.8861 C   0  0  0  0  0  0  0  0  0  0  0  0
   24.5198  -20.5711  -15.8637 O   0  0  0  0  0  0  0  0  0  0  0  0
   19.8728  -18.0337  -15.9154 N   0  0  0  0  0  0  0  0  0  0  0  0
   20.2434  -19.3856  -16.0957 C   0  0  0  0  0  0  0  0  0  0  0  0
   19.3984  -20.3021  -15.9452 O   0  0  0  0  0  0  0  0  0  0  0  0
   21.6243  -19.7327  -16.4684 C   0  0  0  0  0  0  0  0  0  0  0  0
   22.5662  -18.6016  -16.5937 C   0  0  0  0  0  0  0  0  0  0  0  0
   23.6075  -18.6452  -17.6433 C   0  0  2  0  0  0  0  0  0  0  0  0
   24.9076  -18.5975  -16.9296 N   0  0  0  0  0  0  0  0  0  0  0  0
   23.5606  -17.7274  -18.7542 C   0  0  0  0  0  0  0  0  0  0  0  0
   22.6534  -17.7487  -19.8092 O   0  0  0  0  0  0  0  0  0  0  0  0
   24.4184  -16.7748  -18.8416 O   0  0  0  0  0  0  0  0  0  0  0  0
  2  1  1  6
  3  2  1  0
  4  3  1  0
  4  5  1  0
  5  6  1  0
  6  7  1  0
  8  2  1  0
  8  9  2  0
 11 10  1  1
 11 13  1  0
 12 11  1  0
 13 14  1  1
 14  8  1  0
 15 23  1  0
 15 13  1  0
 16 15  2  0
 17 18  1  0
 18 19  2  0
 18 20  1  0
 20 21  1  0
 22 21  1  1
 22 23  1  0
 22 24  1  0
 24 25  1  0
 26 24  2  0
M  END
$$$$
