KTQ.pdb
     RDKit          3D

 26 25  0  0  1  0  0  0  0  0999 V2000
   26.3464  -14.8454  -20.3068 N   0  0  0  0  0  0  0  0  0  0  0  0
   25.9270  -14.8897  -18.9292 C   0  0  1  0  0  0  0  0  0  0  0  0
   24.8694  -13.8635  -18.6816 C   0  0  0  0  0  0  0  0  0  0  0  0
   23.6241  -13.9835  -19.4741 C   0  0  0  0  0  0  0  0  0  0  0  0
   22.6155  -12.9083  -19.3539 C   0  0  0  0  0  0  0  0  0  0  0  0
   21.3009  -13.1735  -20.0278 C   0  0  0  0  0  0  0  0  0  0  0  0
   20.4021  -12.0462  -19.9781 N   0  0  0  0  0  0  0  0  0  0  0  0
   25.3339  -16.2553  -18.6906 C   0  0  0  0  0  0  0  0  0  0  0  0
   24.8168  -16.9137  -19.6280 O   0  0  0  0  0  0  0  0  0  0  0  0
   26.4063  -18.3263  -15.1742 C   0  0  0  0  0  0  0  0  0  0  0  0
   25.8370  -18.9978  -16.4064 C   0  0  1  0  0  0  0  0  0  0  0  0
   25.3095  -20.2150  -15.9971 O   0  0  0  0  0  0  0  0  0  0  0  0
   24.7898  -18.1228  -17.0749 C   0  0  2  0  0  0  0  0  0  0  0  0
   25.3560  -16.8122  -17.3913 N   0  0  0  0  0  0  0  0  0  0  0  0
   23.6297  -17.9021  -16.1752 C   0  0  0  0  0  0  0  0  0  0  0  0
   23.6230  -16.9463  -15.3249 O   0  0  0  0  0  0  0  0  0  0  0  0
   18.1136  -16.9729  -17.6956 N   0  0  0  0  0  0  0  0  0  0  0  0
   17.9365  -16.9613  -16.2935 C   0  0  0  0  0  0  0  0  0  0  0  0
   16.8767  -16.5135  -15.7902 O   0  0  0  0  0  0  0  0  0  0  0  0
   18.9915  -17.4802  -15.4083 C   0  0  0  0  0  0  0  0  0  0  0  0
   20.2538  -17.8757  -16.0660 C   0  0  0  0  0  0  0  0  0  0  0  0
   21.3369  -18.4653  -15.2491 C   0  0  2  0  0  0  0  0  0  0  0  0
   22.4647  -18.7083  -16.1823 N   0  0  0  0  0  0  0  0  0  0  0  0
   21.0740  -19.6023  -14.4025 C   0  0  0  0  0  0  0  0  0  0  0  0
   20.3217  -19.6078  -13.2318 O   0  0  0  0  0  0  0  0  0  0  0  0
   21.5591  -20.7545  -14.6995 O   0  0  0  0  0  0  0  0  0  0  0  0
  2  1  1  6
  3  2  1  0
  4  3  1  0
  4  5  1  0
  5  6  1  0
  6  7  1  0
  8  2  1  0
  8  9  2  0
 11 10  1  1
 11 13  1  0
 12 11  1  0
 13 14  1  1
 14  8  1  0
 15 23  1  0
 15 13  1  0
 16 15  2  0
 17 18  1  0
 18 19  2  0
 18 20  1  0
 20 21  1  0
 22 21  1  6
 22 23  1  0
 22 24  1  0
 24 25  1  0
 26 24  2  0
M  END
$$$$
