KTQ.pdb
     RDKit          3D

 26 25  0  0  1  0  0  0  0  0999 V2000
   16.0587  -13.6637  -15.9850 N   0  0  0  0  0  0  0  0  0  0  0  0
   15.7056  -12.2673  -15.9542 C   0  0  1  0  0  0  0  0  0  0  0  0
   14.2400  -12.1141  -15.7061 C   0  0  0  0  0  0  0  0  0  0  0  0
   13.3281  -12.6306  -16.7523 C   0  0  0  0  0  0  0  0  0  0  0  0
   11.8903  -12.2996  -16.6489 C   0  0  0  0  0  0  0  0  0  0  0  0
   11.0241  -12.8145  -17.7611 C   0  0  0  0  0  0  0  0  0  0  0  0
    9.6294  -12.4875  -17.5898 N   0  0  0  0  0  0  0  0  0  0  0  0
   16.4535  -11.6468  -14.8012 C   0  0  0  0  0  0  0  0  0  0  0  0
   16.7332  -12.3126  -13.7725 O   0  0  0  0  0  0  0  0  0  0  0  0
   19.8202  -10.4592  -14.6223 C   0  0  0  0  0  0  0  0  0  0  0  0
   18.9839   -9.2351  -14.3128 C   0  0  1  0  0  0  0  0  0  0  0  0
   18.9165   -8.4852  -15.4792 O   0  0  0  0  0  0  0  0  0  0  0  0
   17.6041   -9.6251  -13.8097 C   0  0  2  0  0  0  0  0  0  0  0  0
   16.8508  -10.2918  -14.8711 N   0  0  0  0  0  0  0  0  0  0  0  0
   16.8305   -8.4265  -13.3990 C   0  0  0  0  0  0  0  0  0  0  0  0
   16.0064   -7.8635  -14.1993 O   0  0  0  0  0  0  0  0  0  0  0  0
   15.2970   -6.8790   -7.6774 N   0  0  0  0  0  0  0  0  0  0  0  0
   14.6836   -5.8170   -8.3796 C   0  0  0  0  0  0  0  0  0  0  0  0
   14.0679   -4.9158   -7.7586 O   0  0  0  0  0  0  0  0  0  0  0  0
   14.7655   -5.7534   -9.8478 C   0  0  0  0  0  0  0  0  0  0  0  0
   15.5146   -6.8447  -10.5036 C   0  0  0  0  0  0  0  0  0  0  0  0
   16.2081   -6.5746  -11.7819 C   0  0  2  0  0  0  0  0  0  0  0  0
   16.9360   -7.8221  -12.1220 N   0  0  0  0  0  0  0  0  0  0  0  0
   17.0351   -5.4027  -11.9283 C   0  0  0  0  0  0  0  0  0  0  0  0
   16.5973   -4.1041  -12.1697 O   0  0  0  0  0  0  0  0  0  0  0  0
   18.3136   -5.4999  -11.8442 O   0  0  0  0  0  0  0  0  0  0  0  0
  2  1  1  1
  3  2  1  0
  4  3  1  0
  4  5  1  0
  5  6  1  0
  6  7  1  0
  8  2  1  0
  8  9  2  0
 11 10  1  6
 11 13  1  0
 12 11  1  0
 13 14  1  6
 14  8  1  0
 15 23  1  0
 15 13  1  0
 16 15  2  0
 17 18  1  0
 18 19  2  0
 18 20  1  0
 20 21  1  0
 22 21  1  1
 22 23  1  0
 22 24  1  0
 24 25  1  0
 26 24  2  0
M  END
$$$$
