KTQ.pdb
     RDKit          3D

 26 25  0  0  1  0  0  0  0  0999 V2000
   25.8977  -21.7306  -11.3885 N   0  0  0  0  0  0  0  0  0  0  0  0
   26.0475  -21.6420  -12.8186 C   0  0  1  0  0  0  0  0  0  0  0  0
   25.1603  -22.6394  -13.4902 C   0  0  0  0  0  0  0  0  0  0  0  0
   23.7982  -22.8035  -12.9327 C   0  0  0  0  0  0  0  0  0  0  0  0
   22.6678  -22.1896  -13.6628 C   0  0  0  0  0  0  0  0  0  0  0  0
   21.3205  -22.3416  -13.0194 C   0  0  0  0  0  0  0  0  0  0  0  0
   20.2694  -21.6665  -13.7410 N   0  0  0  0  0  0  0  0  0  0  0  0
   25.6060  -20.2587  -13.2253 C   0  0  0  0  0  0  0  0  0  0  0  0
   25.1360  -19.4515  -12.3844 O   0  0  0  0  0  0  0  0  0  0  0  0
   27.8058  -17.7235  -14.7329 C   0  0  0  0  0  0  0  0  0  0  0  0
   26.6655  -17.9078  -15.7123 C   0  0  1  0  0  0  0  0  0  0  0  0
   27.1327  -18.7314  -16.7276 O   0  0  0  0  0  0  0  0  0  0  0  0
   25.4416  -18.4922  -15.0271 C   0  0  2  0  0  0  0  0  0  0  0  0
   25.7198  -19.8549  -14.5754 N   0  0  0  0  0  0  0  0  0  0  0  0
   24.2906  -18.5586  -15.9623 C   0  0  0  0  0  0  0  0  0  0  0  0
   23.6771  -19.6597  -16.1809 O   0  0  0  0  0  0  0  0  0  0  0  0
   21.0014  -19.9378  -14.4676 N   0  0  0  0  0  0  0  0  0  0  0  0
   19.9521  -19.1656  -15.0154 C   0  0  0  0  0  0  0  0  0  0  0  0
   18.7677  -19.5807  -14.9721 O   0  0  0  0  0  0  0  0  0  0  0  0
   20.2368  -17.8626  -15.6376 C   0  0  0  0  0  0  0  0  0  0  0  0
   21.6540  -17.4462  -15.6517 C   0  0  0  0  0  0  0  0  0  0  0  0
   22.3404  -17.2733  -16.9505 C   0  0  2  0  0  0  0  0  0  0  0  0
   23.7882  -17.4397  -16.6715 N   0  0  0  0  0  0  0  0  0  0  0  0
   22.0713  -16.1165  -17.7680 C   0  0  0  0  0  0  0  0  0  0  0  0
   21.0681  -15.9926  -18.7244 O   0  0  0  0  0  0  0  0  0  0  0  0
   22.7982  -15.0630  -17.6556 O   0  0  0  0  0  0  0  0  0  0  0  0
  2  1  1  1
  3  2  1  0
  4  3  1  0
  4  5  1  0
  5  6  1  0
  6  7  1  0
  8  2  1  0
  8  9  2  0
 11 10  1  1
 11 13  1  0
 12 11  1  0
 13 14  1  6
 14  8  1  0
 15 23  1  0
 15 13  1  0
 16 15  2  0
 17 18  1  0
 18 19  2  0
 18 20  1  0
 20 21  1  0
 22 21  1  1
 22 23  1  0
 22 24  1  0
 24 25  1  0
 26 24  2  0
M  END
$$$$
