CKN.pdb
     RDKit          3D

 24 23  0  0  1  0  0  0  0  0999 V2000
    6.7185  -19.5499   25.0173 N   0  0  0  0  0  0  0  0  0  0  0  0
    6.4340  -18.1324   25.0136 C   0  0  1  0  0  0  0  0  0  0  0  0
    6.6960  -17.5363   26.3796 C   0  0  0  0  0  0  0  0  0  0  0  0
    8.5054  -17.7063   26.6445 S   0  0  0  0  0  0  0  0  0  0  0  0
    7.2150  -17.5010   23.9308 C   0  0  0  0  0  0  0  0  0  0  0  0
    8.0578  -18.2105   23.3208 O   0  0  0  0  0  0  0  0  0  0  0  0
    7.0986  -16.1621   23.5158 N   0  0  0  0  0  0  0  0  0  0  0  0
    7.8782  -15.4990   22.5192 C   0  0  1  0  0  0  0  0  0  0  0  0
    7.1864  -14.2434   22.0090 C   0  0  0  0  0  0  0  0  0  0  0  0
    7.9432  -13.5749   20.9226 C   0  0  0  0  0  0  0  0  0  0  0  0
    7.6834  -14.0988   19.5527 C   0  0  0  0  0  0  0  0  0  0  0  0
    8.3965  -13.4014   18.4329 C   0  0  0  0  0  0  0  0  0  0  0  0
    7.9820  -13.7773   17.1231 N   0  0  0  0  0  0  0  0  0  0  0  0
    9.2597  -15.1980   22.9720 C   0  0  0  0  0  0  0  0  0  0  0  0
    9.4314  -14.7615   24.1533 O   0  0  0  0  0  0  0  0  0  0  0  0
   13.6380  -16.5622   24.8830 N   0  0  0  0  0  0  0  0  0  0  0  0
   12.9356  -17.4262   24.0088 C   0  0  0  0  0  0  0  0  0  0  0  0
   13.4592  -18.5321   23.6967 O   0  0  0  0  0  0  0  0  0  0  0  0
   11.6053  -17.0837   23.4424 C   0  0  0  0  0  0  0  0  0  0  0  0
   11.6720  -15.7395   22.7520 C   0  0  2  0  0  0  0  0  0  0  0  0
   10.3981  -15.3645   22.1752 N   0  0  0  0  0  0  0  0  0  0  0  0
   12.7305  -15.7625   21.6869 C   0  0  0  0  0  0  0  0  0  0  0  0
   13.9611  -15.1417   21.8280 O   0  0  0  0  0  0  0  0  0  0  0  0
   12.5248  -16.3650   20.6002 O   0  0  0  0  0  0  0  0  0  0  0  0
  2  5  1  0
  2  1  1  1
  3  2  1  0
  4  3  1  0
  5  6  2  0
  7  8  1  0
  7  5  1  0
  9 10  1  0
  8  9  1  1
 10 11  1  0
 11 12  1  0
 13 12  1  0
 14  8  1  0
 14 15  2  0
 16 17  1  0
 17 18  2  0
 17 19  1  0
 20 19  1  6
 20 21  1  0
 20 22  1  0
 21 14  1  0
 22 24  2  0
 22 23  1  0
M  END
$$$$
