CKN.pdb
     RDKit          3D

 24 23  0  0  1  0  0  0  0  0999 V2000
   12.9436  -17.6353   16.0604 N   0  0  0  0  0  0  0  0  0  0  0  0
   12.6473  -18.4540   17.2146 C   0  0  1  0  0  0  0  0  0  0  0  0
   13.3835  -19.7734   17.1307 C   0  0  0  0  0  0  0  0  0  0  0  0
   12.2164  -20.9292   16.3092 S   0  0  0  0  0  0  0  0  0  0  0  0
   12.9582  -17.6772   18.4317 C   0  0  0  0  0  0  0  0  0  0  0  0
   14.0254  -17.0090   18.4480 O   0  0  0  0  0  0  0  0  0  0  0  0
   12.1579  -17.6170   19.5868 N   0  0  0  0  0  0  0  0  0  0  0  0
   12.4690  -16.9593   20.8162 C   0  0  1  0  0  0  0  0  0  0  0  0
   11.2694  -16.9213   21.7516 C   0  0  0  0  0  0  0  0  0  0  0  0
   11.5683  -16.2454   23.0375 C   0  0  0  0  0  0  0  0  0  0  0  0
   10.4083  -16.0936   23.9594 C   0  0  0  0  0  0  0  0  0  0  0  0
   10.6928  -15.4332   25.2754 C   0  0  0  0  0  0  0  0  0  0  0  0
    9.5631  -15.2665   26.1267 N   0  0  0  0  0  0  0  0  0  0  0  0
   13.6554  -17.5371   21.4964 C   0  0  0  0  0  0  0  0  0  0  0  0
   13.7143  -18.7974   21.6515 O   0  0  0  0  0  0  0  0  0  0  0  0
   17.4090  -15.6113   20.0280 N   0  0  0  0  0  0  0  0  0  0  0  0
   17.4576  -16.0609   21.3694 C   0  0  0  0  0  0  0  0  0  0  0  0
   17.8400  -15.2581   22.2661 O   0  0  0  0  0  0  0  0  0  0  0  0
   17.0767  -17.4414   21.7656 C   0  0  0  0  0  0  0  0  0  0  0  0
   15.8495  -17.4017   22.6490 C   0  0  2  0  0  0  0  0  0  0  0  0
   14.7250  -16.7777   21.9841 N   0  0  0  0  0  0  0  0  0  0  0  0
   16.1600  -16.6729   23.9249 C   0  0  0  0  0  0  0  0  0  0  0  0
   15.5204  -15.5042   24.3049 O   0  0  0  0  0  0  0  0  0  0  0  0
   17.0383  -17.1158   24.7115 O   0  0  0  0  0  0  0  0  0  0  0  0
  2  5  1  0
  2  1  1  6
  3  2  1  0
  4  3  1  0
  5  6  2  0
  7  8  1  0
  7  5  1  0
  9 10  1  0
  8  9  1  1
 10 11  1  0
 11 12  1  0
 13 12  1  0
 14  8  1  0
 14 15  2  0
 16 17  1  0
 17 18  2  0
 17 19  1  0
 20 19  1  6
 20 21  1  0
 20 22  1  0
 21 14  1  0
 22 24  2  0
 22 23  1  0
M  END
$$$$
