CKN.pdb
     RDKit          3D

 24 23  0  0  1  0  0  0  0  0999 V2000
    6.6080  -14.5884   19.9652 N   0  0  0  0  0  0  0  0  0  0  0  0
    7.6925  -14.4033   20.9031 C   0  0  1  0  0  0  0  0  0  0  0  0
    7.9707  -12.9299   21.1067 C   0  0  0  0  0  0  0  0  0  0  0  0
    8.8051  -12.3759   19.5673 S   0  0  0  0  0  0  0  0  0  0  0  0
    7.3612  -15.1225   22.1498 C   0  0  0  0  0  0  0  0  0  0  0  0
    6.3778  -14.7145   22.8222 O   0  0  0  0  0  0  0  0  0  0  0  0
    8.0547  -16.2360   22.6574 N   0  0  0  0  0  0  0  0  0  0  0  0
    7.8018  -16.9211   23.8851 C   0  0  1  0  0  0  0  0  0  0  0  0
    7.6169  -18.4155   23.6662 C   0  0  0  0  0  0  0  0  0  0  0  0
    7.3527  -19.1498   24.9275 C   0  0  0  0  0  0  0  0  0  0  0  0
    7.0831  -20.6062   24.7695 C   0  0  0  0  0  0  0  0  0  0  0  0
    6.8561  -21.3768   26.0357 C   0  0  0  0  0  0  0  0  0  0  0  0
    6.8007  -22.7917   25.8826 N   0  0  0  0  0  0  0  0  0  0  0  0
    8.8367  -16.6591   24.9168 C   0  0  0  0  0  0  0  0  0  0  0  0
   10.0583  -16.6530   24.5656 O   0  0  0  0  0  0  0  0  0  0  0  0
   10.4316  -13.6859   26.5777 N   0  0  0  0  0  0  0  0  0  0  0  0
    9.7183  -13.8620   27.7877 C   0  0  0  0  0  0  0  0  0  0  0  0
    9.4489  -12.8462   28.4879 O   0  0  0  0  0  0  0  0  0  0  0  0
    9.2736  -15.1959   28.2683 C   0  0  0  0  0  0  0  0  0  0  0  0
    9.6122  -16.2514   27.2392 C   0  0  2  0  0  0  0  0  0  0  0  0
    8.5533  -16.4160   26.2656 N   0  0  0  0  0  0  0  0  0  0  0  0
    9.8909  -17.5604   27.9204 C   0  0  0  0  0  0  0  0  0  0  0  0
    8.9216  -18.5286   28.1269 O   0  0  0  0  0  0  0  0  0  0  0  0
   11.0494  -17.8252   28.3374 O   0  0  0  0  0  0  0  0  0  0  0  0
  2  5  1  0
  2  1  1  6
  3  2  1  0
  4  3  1  0
  5  6  2  0
  7  8  1  0
  7  5  1  0
  9 10  1  0
  8  9  1  6
 10 11  1  0
 11 12  1  0
 13 12  1  0
 14  8  1  0
 14 15  2  0
 16 17  1  0
 17 18  2  0
 17 19  1  0
 20 19  1  1
 20 21  1  0
 20 22  1  0
 21 14  1  0
 22 24  2  0
 22 23  1  0
M  END
$$$$
