CKN.pdb
     RDKit          3D

 24 23  0  0  1  0  0  0  0  0999 V2000
    9.0659  -14.5394   18.9283 N   0  0  0  0  0  0  0  0  0  0  0  0
    8.8875  -13.5761   19.9915 C   0  0  1  0  0  0  0  0  0  0  0  0
    7.7451  -12.6375   19.6692 C   0  0  0  0  0  0  0  0  0  0  0  0
    6.2544  -13.7051   19.5643 S   0  0  0  0  0  0  0  0  0  0  0  0
    8.7135  -14.3083   21.2623 C   0  0  0  0  0  0  0  0  0  0  0  0
    8.3863  -13.6478   22.2832 O   0  0  0  0  0  0  0  0  0  0  0  0
    8.8823  -15.6940   21.4343 N   0  0  0  0  0  0  0  0  0  0  0  0
    8.6183  -16.4533   22.6152 C   0  0  1  0  0  0  0  0  0  0  0  0
    8.5488  -17.9444   22.3200 C   0  0  0  0  0  0  0  0  0  0  0  0
    7.2963  -18.3322   21.6266 C   0  0  0  0  0  0  0  0  0  0  0  0
    7.1950  -19.7715   21.2569 C   0  0  0  0  0  0  0  0  0  0  0  0
    5.9919  -20.1634   20.4521 C   0  0  0  0  0  0  0  0  0  0  0  0
    5.9389  -21.5342   20.0692 N   0  0  0  0  0  0  0  0  0  0  0  0
    9.5810  -16.1725   23.7099 C   0  0  0  0  0  0  0  0  0  0  0  0
   10.8110  -16.0377   23.4190 O   0  0  0  0  0  0  0  0  0  0  0  0
    7.7006  -15.0258   26.8526 N   0  0  0  0  0  0  0  0  0  0  0  0
    8.8002  -14.1706   27.1042 C   0  0  0  0  0  0  0  0  0  0  0  0
    8.5928  -13.0683   27.6843 O   0  0  0  0  0  0  0  0  0  0  0  0
   10.1908  -14.5178   26.7122 C   0  0  0  0  0  0  0  0  0  0  0  0
   10.2202  -15.8973   26.0925 C   0  0  2  0  0  0  0  0  0  0  0  0
    9.2202  -16.0454   25.0561 N   0  0  0  0  0  0  0  0  0  0  0  0
   10.0173  -16.9402   27.1539 C   0  0  0  0  0  0  0  0  0  0  0  0
    8.9933  -17.8726   27.1142 O   0  0  0  0  0  0  0  0  0  0  0  0
   10.7956  -17.0000   28.1422 O   0  0  0  0  0  0  0  0  0  0  0  0
  2  5  1  0
  2  1  1  6
  3  2  1  0
  4  3  1  0
  5  6  2  0
  7  8  1  0
  7  5  1  0
  9 10  1  0
  8  9  1  6
 10 11  1  0
 11 12  1  0
 13 12  1  0
 14  8  1  0
 14 15  2  0
 16 17  1  0
 17 18  2  0
 17 19  1  0
 20 19  1  1
 20 21  1  0
 20 22  1  0
 21 14  1  0
 22 24  2  0
 22 23  1  0
M  END
$$$$
