CKN.pdb
     RDKit          3D

 24 23  0  0  1  0  0  0  0  0999 V2000
    7.9043  -13.1347   16.9173 N   0  0  0  0  0  0  0  0  0  0  0  0
    8.3796  -14.4992   16.9652 C   0  0  1  0  0  0  0  0  0  0  0  0
    9.5389  -14.6898   16.0116 C   0  0  0  0  0  0  0  0  0  0  0  0
    8.7732  -15.0694   14.3860 S   0  0  0  0  0  0  0  0  0  0  0  0
    8.7031  -14.8333   18.3670 C   0  0  0  0  0  0  0  0  0  0  0  0
    9.2480  -13.9451   19.0740 O   0  0  0  0  0  0  0  0  0  0  0  0
    8.4528  -16.0698   18.9889 N   0  0  0  0  0  0  0  0  0  0  0  0
    8.8198  -16.4567   20.3142 C   0  0  1  0  0  0  0  0  0  0  0  0
    8.1035  -17.7277   20.7465 C   0  0  0  0  0  0  0  0  0  0  0  0
    8.5050  -18.1775   22.1016 C   0  0  0  0  0  0  0  0  0  0  0  0
    7.8412  -19.4223   22.5798 C   0  0  0  0  0  0  0  0  0  0  0  0
    8.1387  -19.8283   23.9923 C   0  0  0  0  0  0  0  0  0  0  0  0
    7.5322  -21.0463   24.4134 N   0  0  0  0  0  0  0  0  0  0  0  0
   10.2879  -16.5871   20.4923 C   0  0  0  0  0  0  0  0  0  0  0  0
   10.9444  -17.2763   19.6498 O   0  0  0  0  0  0  0  0  0  0  0  0
   12.7335  -14.0505   19.0950 N   0  0  0  0  0  0  0  0  0  0  0  0
   13.4637  -14.9403   19.9191 C   0  0  0  0  0  0  0  0  0  0  0  0
   14.3276  -15.6917   19.3865 O   0  0  0  0  0  0  0  0  0  0  0  0
   13.2539  -15.0265   21.3876 C   0  0  0  0  0  0  0  0  0  0  0  0
   12.4200  -16.2449   21.7163 C   0  0  2  0  0  0  0  0  0  0  0  0
   11.0050  -15.9952   21.5382 N   0  0  0  0  0  0  0  0  0  0  0  0
   12.6898  -16.6852   23.1265 C   0  0  0  0  0  0  0  0  0  0  0  0
   13.9310  -17.1230   23.5593 O   0  0  0  0  0  0  0  0  0  0  0  0
   11.7675  -16.6694   23.9840 O   0  0  0  0  0  0  0  0  0  0  0  0
  2  5  1  0
  2  1  1  1
  3  2  1  0
  4  3  1  0
  5  6  2  0
  7  8  1  0
  7  5  1  0
  9 10  1  0
  8  9  1  6
 10 11  1  0
 11 12  1  0
 13 12  1  0
 14  8  1  0
 14 15  2  0
 16 17  1  0
 17 18  2  0
 17 19  1  0
 20 19  1  1
 20 21  1  0
 20 22  1  0
 21 14  1  0
 22 24  2  0
 22 23  1  0
M  END
$$$$
