CKN.pdb
     RDKit          3D

 24 23  0  0  1  0  0  0  0  0999 V2000
    8.6581  -16.5868   17.9120 N   0  0  0  0  0  0  0  0  0  0  0  0
    7.9330  -16.9741   19.1012 C   0  0  1  0  0  0  0  0  0  0  0  0
    7.9821  -18.4752   19.2859 C   0  0  0  0  0  0  0  0  0  0  0  0
    6.4365  -19.1091   18.5228 S   0  0  0  0  0  0  0  0  0  0  0  0
    8.4753  -16.2171   20.2475 C   0  0  0  0  0  0  0  0  0  0  0  0
    9.7170  -16.0108   20.2834 O   0  0  0  0  0  0  0  0  0  0  0  0
    7.7183  -15.6999   21.3143 N   0  0  0  0  0  0  0  0  0  0  0  0
    8.2120  -15.0232   22.4715 C   0  0  1  0  0  0  0  0  0  0  0  0
    7.0874  -14.3732   23.2640 C   0  0  0  0  0  0  0  0  0  0  0  0
    7.5589  -13.7650   24.5320 C   0  0  0  0  0  0  0  0  0  0  0  0
    6.5071  -13.0882   25.3409 C   0  0  0  0  0  0  0  0  0  0  0  0
    6.9633  -12.4591   26.6234 C   0  0  0  0  0  0  0  0  0  0  0  0
    5.9328  -11.8666   27.4081 N   0  0  0  0  0  0  0  0  0  0  0  0
    9.0402  -15.8956   23.3416 C   0  0  0  0  0  0  0  0  0  0  0  0
    8.6050  -17.0538   23.6330 O   0  0  0  0  0  0  0  0  0  0  0  0
   13.0587  -18.3673   25.2821 N   0  0  0  0  0  0  0  0  0  0  0  0
   13.5395  -17.2299   24.5899 C   0  0  0  0  0  0  0  0  0  0  0  0
   14.7803  -17.1260   24.3793 O   0  0  0  0  0  0  0  0  0  0  0  0
   12.6420  -16.1514   24.1009 C   0  0  0  0  0  0  0  0  0  0  0  0
   11.2021  -16.5088   24.3956 C   0  0  2  0  0  0  0  0  0  0  0  0
   10.2820  -15.5231   23.8685 N   0  0  0  0  0  0  0  0  0  0  0  0
   11.0035  -16.6556   25.8770 C   0  0  0  0  0  0  0  0  0  0  0  0
   10.0546  -15.9399   26.5889 O   0  0  0  0  0  0  0  0  0  0  0  0
   11.7157  -17.4580   26.5366 O   0  0  0  0  0  0  0  0  0  0  0  0
  2  5  1  0
  2  1  1  6
  3  2  1  0
  4  3  1  0
  5  6  2  0
  7  8  1  0
  7  5  1  0
  9 10  1  0
  8  9  1  1
 10 11  1  0
 11 12  1  0
 13 12  1  0
 14  8  1  0
 14 15  2  0
 16 17  1  0
 17 18  2  0
 17 19  1  0
 20 19  1  1
 20 21  1  0
 20 22  1  0
 21 14  1  0
 22 24  2  0
 22 23  1  0
M  END
$$$$
