CKN.pdb
     RDKit          3D

 24 23  0  0  1  0  0  0  0  0999 V2000
    5.9209  -17.8000   25.3927 N   0  0  0  0  0  0  0  0  0  0  0  0
    6.6186  -16.5340   25.3685 C   0  0  1  0  0  0  0  0  0  0  0  0
    7.4422  -16.3592   26.6259 C   0  0  0  0  0  0  0  0  0  0  0  0
    7.5010  -14.5473   26.9199 S   0  0  0  0  0  0  0  0  0  0  0  0
    7.4116  -16.4603   24.1247 C   0  0  0  0  0  0  0  0  0  0  0  0
    8.0531  -17.4851   23.7729 O   0  0  0  0  0  0  0  0  0  0  0  0
    7.5139  -15.3337   23.2888 N   0  0  0  0  0  0  0  0  0  0  0  0
    8.3718  -15.1764   22.1574 C   0  0  1  0  0  0  0  0  0  0  0  0
    8.0467  -13.9104   21.3782 C   0  0  0  0  0  0  0  0  0  0  0  0
    7.4685  -14.1940   20.0422 C   0  0  0  0  0  0  0  0  0  0  0  0
    8.2604  -13.6866   18.8871 C   0  0  0  0  0  0  0  0  0  0  0  0
    7.6713  -13.9221   17.5284 C   0  0  0  0  0  0  0  0  0  0  0  0
    8.4693  -13.4763   16.4361 N   0  0  0  0  0  0  0  0  0  0  0  0
    9.8123  -15.2264   22.5132 C   0  0  0  0  0  0  0  0  0  0  0  0
   10.1691  -14.8233   23.6647 O   0  0  0  0  0  0  0  0  0  0  0  0
   13.0455  -18.6405   24.5861 N   0  0  0  0  0  0  0  0  0  0  0  0
   12.6062  -18.5771   23.2419 C   0  0  0  0  0  0  0  0  0  0  0  0
   13.2299  -19.2400   22.3666 O   0  0  0  0  0  0  0  0  0  0  0  0
   11.4392  -17.7605   22.8185 C   0  0  0  0  0  0  0  0  0  0  0  0
   11.9170  -16.4909   22.1493 C   0  0  2  0  0  0  0  0  0  0  0  0
   10.8147  -15.6928   21.6552 N   0  0  0  0  0  0  0  0  0  0  0  0
   12.8528  -16.8259   21.0236 C   0  0  0  0  0  0  0  0  0  0  0  0
   12.4450  -17.4645   19.8637 O   0  0  0  0  0  0  0  0  0  0  0  0
   14.0739  -16.5277   21.1028 O   0  0  0  0  0  0  0  0  0  0  0  0
  2  5  1  0
  2  1  1  1
  3  2  1  0
  4  3  1  0
  5  6  2  0
  7  8  1  0
  7  5  1  0
  9 10  1  0
  8  9  1  1
 10 11  1  0
 11 12  1  0
 13 12  1  0
 14  8  1  0
 14 15  2  0
 16 17  1  0
 17 18  2  0
 17 19  1  0
 20 19  1  6
 20 21  1  0
 20 22  1  0
 21 14  1  0
 22 24  2  0
 22 23  1  0
M  END
$$$$
