CKN.pdb
     RDKit          3D

 24 23  0  0  1  0  0  0  0  0999 V2000
    8.6050  -19.5843   17.3377 N   0  0  0  0  0  0  0  0  0  0  0  0
    8.0181  -19.4336   18.6503 C   0  0  1  0  0  0  0  0  0  0  0  0
    7.8920  -20.7790   19.3315 C   0  0  0  0  0  0  0  0  0  0  0  0
    6.4089  -21.5641   18.5853 S   0  0  0  0  0  0  0  0  0  0  0  0
    8.8204  -18.4554   19.4123 C   0  0  0  0  0  0  0  0  0  0  0  0
   10.0729  -18.4968   19.2893 O   0  0  0  0  0  0  0  0  0  0  0  0
    8.3028  -17.4703   20.2725 N   0  0  0  0  0  0  0  0  0  0  0  0
    9.0402  -16.4737   20.9824 C   0  0  1  0  0  0  0  0  0  0  0  0
    8.2685  -15.1656   21.0771 C   0  0  0  0  0  0  0  0  0  0  0  0
    8.0309  -14.5447   19.7513 C   0  0  0  0  0  0  0  0  0  0  0  0
    7.2287  -13.2899   19.7727 C   0  0  0  0  0  0  0  0  0  0  0  0
    6.9772  -12.6442   18.4428 C   0  0  0  0  0  0  0  0  0  0  0  0
    6.1390  -11.4932   18.4766 N   0  0  0  0  0  0  0  0  0  0  0  0
    9.4820  -16.9286   22.3248 C   0  0  0  0  0  0  0  0  0  0  0  0
    8.7303  -17.7192   22.9774 O   0  0  0  0  0  0  0  0  0  0  0  0
   12.9551  -19.3306   25.1293 N   0  0  0  0  0  0  0  0  0  0  0  0
   12.6934  -19.5923   23.7629 C   0  0  0  0  0  0  0  0  0  0  0  0
   13.1580  -20.6466   23.2460 O   0  0  0  0  0  0  0  0  0  0  0  0
   11.8932  -18.6749   22.9109 C   0  0  0  0  0  0  0  0  0  0  0  0
   11.4649  -17.4687   23.7167 C   0  0  2  0  0  0  0  0  0  0  0  0
   10.6844  -16.5401   22.9262 N   0  0  0  0  0  0  0  0  0  0  0  0
   12.6713  -16.7745   24.2807 C   0  0  0  0  0  0  0  0  0  0  0  0
   13.5406  -16.0197   23.5098 O   0  0  0  0  0  0  0  0  0  0  0  0
   12.9372  -16.8607   25.5087 O   0  0  0  0  0  0  0  0  0  0  0  0
  2  5  1  0
  2  1  1  6
  3  2  1  0
  4  3  1  0
  5  6  2  0
  7  8  1  0
  7  5  1  0
  9 10  1  0
  8  9  1  1
 10 11  1  0
 11 12  1  0
 13 12  1  0
 14  8  1  0
 14 15  2  0
 16 17  1  0
 17 18  2  0
 17 19  1  0
 20 19  1  6
 20 21  1  0
 20 22  1  0
 21 14  1  0
 22 24  2  0
 22 23  1  0
M  END
$$$$
