CKN.pdb
     RDKit          3D

 24 23  0  0  1  0  0  0  0  0999 V2000
   14.0755  -21.3040   17.5605 N   0  0  0  0  0  0  0  0  0  0  0  0
   14.3410  -22.3431   18.5300 C   0  0  1  0  0  0  0  0  0  0  0  0
   15.8199  -22.4097   18.8432 C   0  0  0  0  0  0  0  0  0  0  0  0
   16.4337  -23.9062   17.9732 S   0  0  0  0  0  0  0  0  0  0  0  0
   13.4934  -22.1047   19.7157 C   0  0  0  0  0  0  0  0  0  0  0  0
   13.3773  -20.9209   20.1290 O   0  0  0  0  0  0  0  0  0  0  0  0
   12.7961  -23.0945   20.4316 N   0  0  0  0  0  0  0  0  0  0  0  0
   11.9780  -22.9054   21.5873 C   0  0  1  0  0  0  0  0  0  0  0  0
   10.8753  -23.9507   21.6715 C   0  0  0  0  0  0  0  0  0  0  0  0
    9.9408  -23.7064   22.7970 C   0  0  0  0  0  0  0  0  0  0  0  0
    8.7984  -24.6577   22.8913 C   0  0  0  0  0  0  0  0  0  0  0  0
    7.7962  -24.3809   23.9719 C   0  0  0  0  0  0  0  0  0  0  0  0
    6.6986  -25.2869   24.0271 N   0  0  0  0  0  0  0  0  0  0  0  0
   12.7610  -22.8562   22.8477 C   0  0  0  0  0  0  0  0  0  0  0  0
   13.6159  -23.7704   23.0692 O   0  0  0  0  0  0  0  0  0  0  0  0
   15.5200  -19.7448   23.1910 N   0  0  0  0  0  0  0  0  0  0  0  0
   15.3731  -20.6909   24.2337 C   0  0  0  0  0  0  0  0  0  0  0  0
   16.2336  -21.6080   24.3480 O   0  0  0  0  0  0  0  0  0  0  0  0
   14.2453  -20.6488   25.2003 C   0  0  0  0  0  0  0  0  0  0  0  0
   13.3893  -21.8861   25.0444 C   0  0  2  0  0  0  0  0  0  0  0  0
   12.6184  -21.8589   23.8192 N   0  0  0  0  0  0  0  0  0  0  0  0
   12.4716  -22.0264   26.2249 C   0  0  0  0  0  0  0  0  0  0  0  0
   11.0911  -21.9709   26.1223 O   0  0  0  0  0  0  0  0  0  0  0  0
   12.9441  -22.2037   27.3788 O   0  0  0  0  0  0  0  0  0  0  0  0
  2  5  1  0
  2  1  1  6
  3  2  1  0
  4  3  1  0
  5  6  2  0
  7  8  1  0
  7  5  1  0
  9 10  1  0
  8  9  1  1
 10 11  1  0
 11 12  1  0
 13 12  1  0
 14  8  1  0
 14 15  2  0
 16 17  1  0
 17 18  2  0
 17 19  1  0
 20 19  1  1
 20 21  1  0
 20 22  1  0
 21 14  1  0
 22 24  2  0
 22 23  1  0
M  END
$$$$
