CKN.pdb
     RDKit          3D

 24 23  0  0  1  0  0  0  0  0999 V2000
    5.2261  -13.9140   26.4829 N   0  0  0  0  0  0  0  0  0  0  0  0
    6.4296  -13.3310   25.9333 C   0  0  1  0  0  0  0  0  0  0  0  0
    7.4818  -13.1757   27.0097 C   0  0  0  0  0  0  0  0  0  0  0  0
    7.3178  -11.4453   27.6029 S   0  0  0  0  0  0  0  0  0  0  0  0
    6.8685  -14.1551   24.7889 C   0  0  0  0  0  0  0  0  0  0  0  0
    6.9263  -15.4028   24.9487 O   0  0  0  0  0  0  0  0  0  0  0  0
    7.2309  -13.6634   23.5220 N   0  0  0  0  0  0  0  0  0  0  0  0
    7.7643  -14.4121   22.4285 C   0  0  1  0  0  0  0  0  0  0  0  0
    7.8324  -13.5781   21.1575 C   0  0  0  0  0  0  0  0  0  0  0  0
    8.3251  -14.3516   19.9918 C   0  0  0  0  0  0  0  0  0  0  0  0
    8.3606  -13.6048   18.7036 C   0  0  0  0  0  0  0  0  0  0  0  0
    8.7267  -14.4025   17.4877 C   0  0  0  0  0  0  0  0  0  0  0  0
    8.7943  -13.6607   16.2737 N   0  0  0  0  0  0  0  0  0  0  0  0
    9.0824  -15.0228   22.7348 C   0  0  0  0  0  0  0  0  0  0  0  0
    9.9614  -14.3130   23.3174 O   0  0  0  0  0  0  0  0  0  0  0  0
   10.9465  -16.9312   25.6940 N   0  0  0  0  0  0  0  0  0  0  0  0
   10.2906  -17.8360   24.8249 C   0  0  0  0  0  0  0  0  0  0  0  0
    9.2541  -18.4295   25.2348 O   0  0  0  0  0  0  0  0  0  0  0  0
   10.7736  -18.1163   23.4479 C   0  0  0  0  0  0  0  0  0  0  0  0
   10.7676  -16.8423   22.6326 C   0  0  2  0  0  0  0  0  0  0  0  0
    9.4253  -16.3427   22.4207 N   0  0  0  0  0  0  0  0  0  0  0  0
   11.4424  -17.0763   21.3115 C   0  0  0  0  0  0  0  0  0  0  0  0
   12.7879  -17.3842   21.1919 O   0  0  0  0  0  0  0  0  0  0  0  0
   10.7854  -16.9967   20.2400 O   0  0  0  0  0  0  0  0  0  0  0  0
  2  5  1  0
  2  1  1  1
  3  2  1  0
  4  3  1  0
  5  6  2  0
  7  8  1  0
  7  5  1  0
  9 10  1  0
  8  9  1  6
 10 11  1  0
 11 12  1  0
 13 12  1  0
 14  8  1  0
 14 15  2  0
 16 17  1  0
 17 18  2  0
 17 19  1  0
 20 19  1  6
 20 21  1  0
 20 22  1  0
 21 14  1  0
 22 24  2  0
 22 23  1  0
M  END
$$$$
