CKN.pdb
     RDKit          3D

 24 23  0  0  1  0  0  0  0  0999 V2000
    6.3126  -16.9178   27.0760 N   0  0  0  0  0  0  0  0  0  0  0  0
    6.6778  -15.6251   26.5417 C   0  0  1  0  0  0  0  0  0  0  0  0
    7.4790  -14.8397   27.5571 C   0  0  0  0  0  0  0  0  0  0  0  0
    7.6432  -13.1539   26.8474 S   0  0  0  0  0  0  0  0  0  0  0  0
    7.3824  -15.8303   25.2601 C   0  0  0  0  0  0  0  0  0  0  0  0
    8.1704  -16.8084   25.1705 O   0  0  0  0  0  0  0  0  0  0  0  0
    7.2487  -15.0207   24.1177 N   0  0  0  0  0  0  0  0  0  0  0  0
    7.9273  -15.1739   22.8699 C   0  0  1  0  0  0  0  0  0  0  0  0
    7.3338  -14.2760   21.7943 C   0  0  0  0  0  0  0  0  0  0  0  0
    7.8323  -14.6041   20.4365 C   0  0  0  0  0  0  0  0  0  0  0  0
    7.5586  -13.5758   19.3942 C   0  0  0  0  0  0  0  0  0  0  0  0
    7.8204  -13.9871   17.9761 C   0  0  0  0  0  0  0  0  0  0  0  0
    7.4990  -13.0089   16.9920 N   0  0  0  0  0  0  0  0  0  0  0  0
    9.3939  -14.9719   22.9813 C   0  0  0  0  0  0  0  0  0  0  0  0
    9.8327  -14.1730   23.8672 O   0  0  0  0  0  0  0  0  0  0  0  0
   13.9944  -17.0803   23.6618 N   0  0  0  0  0  0  0  0  0  0  0  0
   12.7870  -17.5325   24.2463 C   0  0  0  0  0  0  0  0  0  0  0  0
   12.8418  -18.4094   25.1533 O   0  0  0  0  0  0  0  0  0  0  0  0
   11.4557  -17.0164   23.8348 C   0  0  0  0  0  0  0  0  0  0  0  0
   11.6148  -16.0413   22.6895 C   0  0  2  0  0  0  0  0  0  0  0  0
   10.3358  -15.6096   22.1660 N   0  0  0  0  0  0  0  0  0  0  0  0
   12.4329  -16.6650   21.5954 C   0  0  0  0  0  0  0  0  0  0  0  0
   13.7929  -16.4458   21.4473 O   0  0  0  0  0  0  0  0  0  0  0  0
   11.8905  -17.4290   20.7539 O   0  0  0  0  0  0  0  0  0  0  0  0
  2  5  1  0
  2  1  1  1
  3  2  1  0
  4  3  1  0
  5  6  2  0
  7  8  1  0
  7  5  1  0
  9 10  1  0
  8  9  1  6
 10 11  1  0
 11 12  1  0
 13 12  1  0
 14  8  1  0
 14 15  2  0
 16 17  1  0
 17 18  2  0
 17 19  1  0
 20 19  1  1
 20 21  1  0
 20 22  1  0
 21 14  1  0
 22 24  2  0
 22 23  1  0
M  END
$$$$
