CKN.pdb
     RDKit          3D

 24 23  0  0  1  0  0  0  0  0999 V2000
   10.2437  -20.0743   15.3848 N   0  0  0  0  0  0  0  0  0  0  0  0
    9.1466  -19.6609   16.2308 C   0  0  1  0  0  0  0  0  0  0  0  0
    8.4606  -20.8667   16.8351 C   0  0  0  0  0  0  0  0  0  0  0  0
    8.1560  -22.0077   15.4286 S   0  0  0  0  0  0  0  0  0  0  0  0
    9.6624  -18.7070   17.2335 C   0  0  0  0  0  0  0  0  0  0  0  0
   10.9094  -18.5512   17.3122 O   0  0  0  0  0  0  0  0  0  0  0  0
    8.8744  -17.9483   18.1177 N   0  0  0  0  0  0  0  0  0  0  0  0
    9.3338  -17.0035   19.0857 C   0  0  1  0  0  0  0  0  0  0  0  0
    8.2708  -15.9615   19.4015 C   0  0  0  0  0  0  0  0  0  0  0  0
    8.7548  -14.9158   20.3353 C   0  0  0  0  0  0  0  0  0  0  0  0
    7.7693  -13.8459   20.6562 C   0  0  0  0  0  0  0  0  0  0  0  0
    8.2583  -12.7437   21.5477 C   0  0  0  0  0  0  0  0  0  0  0  0
    7.3220  -11.6974   21.7871 N   0  0  0  0  0  0  0  0  0  0  0  0
    9.8343  -17.6454   20.3273 C   0  0  0  0  0  0  0  0  0  0  0  0
    9.5136  -18.8532   20.5599 O   0  0  0  0  0  0  0  0  0  0  0  0
   13.8410  -20.1902   22.1378 N   0  0  0  0  0  0  0  0  0  0  0  0
   13.8785  -18.8034   21.8559 C   0  0  0  0  0  0  0  0  0  0  0  0
   14.8489  -18.1211   22.2889 O   0  0  0  0  0  0  0  0  0  0  0  0
   12.8204  -18.1170   21.0702 C   0  0  0  0  0  0  0  0  0  0  0  0
   11.6827  -17.7156   21.9825 C   0  0  2  0  0  0  0  0  0  0  0  0
   10.6446  -17.0015   21.2693 N   0  0  0  0  0  0  0  0  0  0  0  0
   12.2036  -16.8720   23.1105 C   0  0  0  0  0  0  0  0  0  0  0  0
   12.5006  -17.3823   24.3638 O   0  0  0  0  0  0  0  0  0  0  0  0
   12.3913  -15.6376   22.9459 O   0  0  0  0  0  0  0  0  0  0  0  0
  2  5  1  0
  2  1  1  1
  3  2  1  0
  4  3  1  0
  5  6  2  0
  7  8  1  0
  7  5  1  0
  9 10  1  0
  8  9  1  1
 10 11  1  0
 11 12  1  0
 13 12  1  0
 14  8  1  0
 14 15  2  0
 16 17  1  0
 17 18  2  0
 17 19  1  0
 20 19  1  6
 20 21  1  0
 20 22  1  0
 21 14  1  0
 22 24  2  0
 22 23  1  0
M  END
$$$$
