HTS.pdb
     RDKit          3D

 24 24  0  0  1  0  0  0  0  0999 V2000
    6.6941  -18.4667   16.7562 N   0  0  0  0  0  0  0  0  0  0  0  0
    6.7311  -17.6407   17.9282 C   0  0  1  0  0  0  0  0  0  0  0  0
    6.5283  -18.4972   19.1561 C   0  0  0  0  0  0  0  0  0  0  0  0
    5.1932  -19.1290   19.0872 C   0  0  0  0  0  0  0  0  0  0  0  0
    4.2611  -19.0840   18.0618 C   0  0  0  0  0  0  0  0  0  0  0  0
    3.2040  -19.8095   18.4617 N   0  0  0  0  0  0  0  0  0  0  0  0
    3.4164  -20.3136   19.6891 C   0  0  0  0  0  0  0  0  0  0  0  0
    4.6306  -19.8956   20.0655 N   0  0  0  0  0  0  0  0  0  0  0  0
    7.9793  -16.8452   18.0078 C   0  0  0  0  0  0  0  0  0  0  0  0
    8.9700  -17.2553   17.3282 O   0  0  0  0  0  0  0  0  0  0  0  0
    8.0787  -12.9702   19.6451 C   0  0  0  0  0  0  0  0  0  0  0  0
    8.9231  -13.4714   18.5089 C   0  0  1  0  0  0  0  0  0  0  0  0
   10.0400  -12.6595   18.3834 O   0  0  0  0  0  0  0  0  0  0  0  0
    9.3165  -14.9199   18.7589 C   0  0  2  0  0  0  0  0  0  0  0  0
    8.0887  -15.6787   18.7970 N   0  0  0  0  0  0  0  0  0  0  0  0
   10.0247  -14.9693   20.0677 C   0  0  0  0  0  0  0  0  0  0  0  0
    9.3520  -14.8011   21.1184 O   0  0  0  0  0  0  0  0  0  0  0  0
   12.7859  -17.3701   22.8461 O   0  0  0  0  0  0  0  0  0  0  0  0
   12.2300  -17.0345   21.6342 C   0  0  0  0  0  0  0  0  0  0  0  0
   12.0481  -15.5448   21.4494 C   0  0  2  0  0  0  0  0  0  0  0  0
   11.4106  -15.1936   20.2261 N   0  0  0  0  0  0  0  0  0  0  0  0
   13.3947  -14.9353   21.4928 C   0  0  0  0  0  0  0  0  0  0  0  0
   13.9059  -14.3569   20.4980 O   0  0  0  0  0  0  0  0  0  0  0  0
   14.1129  -15.0070   22.6722 O   0  0  0  0  0  0  0  0  0  0  0  0
  2  1  1  6
  3  2  1  0
  4  5  2  0
  4  3  1  0
  6  5  1  0
  7  8  2  0
  7  6  1  0
  8  4  1  0
  9 10  2  0
  9  2  1  0
 12 11  1  1
 12 14  1  0
 13 12  1  0
 14 15  1  1
 15  9  1  0
 16 14  1  0
 17 16  2  0
 18 19  1  0
 20 19  1  6
 20 22  1  0
 20 21  1  0
 21 16  1  0
 22 24  1  0
 23 22  2  0
M  END
$$$$
