HTS.pdb
     RDKit          3D

 24 24  0  0  1  0  0  0  0  0999 V2000
    8.3210  -16.5645   20.3244 N   0  0  0  0  0  0  0  0  0  0  0  0
    8.0755  -15.3544   21.0544 C   0  0  1  0  0  0  0  0  0  0  0  0
    7.0560  -14.5181   20.3172 C   0  0  0  0  0  0  0  0  0  0  0  0
    7.6021  -14.1494   18.9934 C   0  0  0  0  0  0  0  0  0  0  0  0
    8.3770  -13.0534   18.6465 C   0  0  0  0  0  0  0  0  0  0  0  0
    8.6259  -13.1509   17.3303 N   0  0  0  0  0  0  0  0  0  0  0  0
    8.0486  -14.2530   16.8225 C   0  0  0  0  0  0  0  0  0  0  0  0
    7.4259  -14.8580   17.8409 N   0  0  0  0  0  0  0  0  0  0  0  0
    7.6646  -15.6230   22.4530 C   0  0  0  0  0  0  0  0  0  0  0  0
    6.4859  -16.0577   22.6353 O   0  0  0  0  0  0  0  0  0  0  0  0
    7.0003  -17.7828   23.7152 C   0  0  0  0  0  0  0  0  0  0  0  0
    8.0377  -17.4156   24.7370 C   0  0  1  0  0  0  0  0  0  0  0  0
    9.2529  -17.9715   24.3673 O   0  0  0  0  0  0  0  0  0  0  0  0
    8.1335  -15.9015   24.8532 C   0  0  2  0  0  0  0  0  0  0  0  0
    8.5263  -15.4133   23.5525 N   0  0  0  0  0  0  0  0  0  0  0  0
    9.1679  -15.5985   25.8806 C   0  0  0  0  0  0  0  0  0  0  0  0
   10.3763  -15.5886   25.5278 O   0  0  0  0  0  0  0  0  0  0  0  0
    8.4214  -12.9743   28.6319 O   0  0  0  0  0  0  0  0  0  0  0  0
    9.3024  -13.8727   29.1860 C   0  0  0  0  0  0  0  0  0  0  0  0
    9.8564  -14.8637   28.1872 C   0  0  2  0  0  0  0  0  0  0  0  0
    8.8970  -15.3169   27.2384 N   0  0  0  0  0  0  0  0  0  0  0  0
   10.3652  -16.0179   28.9589 C   0  0  0  0  0  0  0  0  0  0  0  0
   11.1948  -15.8893   29.8974 O   0  0  0  0  0  0  0  0  0  0  0  0
    9.9089  -17.2817   28.6324 O   0  0  0  0  0  0  0  0  0  0  0  0
  2  1  1  6
  3  2  1  0
  4  5  2  0
  4  3  1  0
  6  5  1  0
  7  8  2  0
  7  6  1  0
  8  4  1  0
  9 10  2  0
  9  2  1  0
 12 11  1  6
 12 14  1  0
 13 12  1  0
 14 15  1  6
 15  9  1  0
 16 14  1  0
 17 16  2  0
 18 19  1  0
 20 19  1  1
 20 22  1  0
 20 21  1  0
 21 16  1  0
 22 24  1  0
 23 22  2  0
M  END
$$$$
