HTS.pdb
     RDKit          3D

 24 24  0  0  1  0  0  0  0  0999 V2000
    4.3223  -19.5902   20.4510 N   0  0  0  0  0  0  0  0  0  0  0  0
    4.2137  -19.1909   21.8244 C   0  0  1  0  0  0  0  0  0  0  0  0
    3.4349  -20.2326   22.5929 C   0  0  0  0  0  0  0  0  0  0  0  0
    1.9986  -20.0959   22.2693 C   0  0  0  0  0  0  0  0  0  0  0  0
    1.2019  -18.9618   22.3089 C   0  0  0  0  0  0  0  0  0  0  0  0
   -0.0310  -19.3363   21.9299 N   0  0  0  0  0  0  0  0  0  0  0  0
   -0.0589  -20.6506   21.6513 C   0  0  0  0  0  0  0  0  0  0  0  0
    1.1812  -21.1085   21.8599 N   0  0  0  0  0  0  0  0  0  0  0  0
    5.5397  -18.9297   22.4333 C   0  0  0  0  0  0  0  0  0  0  0  0
    6.4403  -19.8064   22.2545 O   0  0  0  0  0  0  0  0  0  0  0  0
    7.5114  -15.8681   21.9306 C   0  0  0  0  0  0  0  0  0  0  0  0
    7.5072  -16.1107   23.4126 C   0  0  1  0  0  0  0  0  0  0  0  0
    6.6056  -15.2432   24.0100 O   0  0  0  0  0  0  0  0  0  0  0  0
    7.1503  -17.5623   23.6962 C   0  0  2  0  0  0  0  0  0  0  0  0
    5.8158  -17.7654   23.1840 N   0  0  0  0  0  0  0  0  0  0  0  0
    7.1987  -17.7524   25.1723 C   0  0  0  0  0  0  0  0  0  0  0  0
    6.2859  -17.2400   25.8715 O   0  0  0  0  0  0  0  0  0  0  0  0
    8.5893  -21.0459   26.9978 O   0  0  0  0  0  0  0  0  0  0  0  0
    7.8998  -20.0812   27.6938 C   0  0  0  0  0  0  0  0  0  0  0  0
    8.2454  -18.6719   27.2683 C   0  0  2  0  0  0  0  0  0  0  0  0
    8.2015  -18.4724   25.8596 N   0  0  0  0  0  0  0  0  0  0  0  0
    9.6120  -18.3938   27.7600 C   0  0  0  0  0  0  0  0  0  0  0  0
   10.5316  -17.9859   27.0028 O   0  0  0  0  0  0  0  0  0  0  0  0
    9.8826  -18.5912   29.1016 O   0  0  0  0  0  0  0  0  0  0  0  0
  2  1  1  6
  3  2  1  0
  4  5  2  0
  4  3  1  0
  6  5  1  0
  7  8  2  0
  7  6  1  0
  8  4  1  0
  9 10  2  0
  9  2  1  0
 12 11  1  6
 12 14  1  0
 13 12  1  0
 14 15  1  1
 15  9  1  0
 16 14  1  0
 17 16  2  0
 18 19  1  0
 20 19  1  6
 20 22  1  0
 20 21  1  0
 21 16  1  0
 22 24  1  0
 23 22  2  0
M  END
$$$$
