HTS.pdb
     RDKit          3D

 24 24  0  0  1  0  0  0  0  0999 V2000
   14.2089  -14.1383   17.4028 N   0  0  0  0  0  0  0  0  0  0  0  0
   13.1792  -15.0690   17.7644 C   0  0  1  0  0  0  0  0  0  0  0  0
   13.7886  -16.4322   17.9936 C   0  0  0  0  0  0  0  0  0  0  0  0
   14.3822  -16.9133   16.7275 C   0  0  0  0  0  0  0  0  0  0  0  0
   13.8837  -16.8091   15.4380 C   0  0  0  0  0  0  0  0  0  0  0  0
   14.7774  -17.3949   14.6244 N   0  0  0  0  0  0  0  0  0  0  0  0
   15.8187  -17.8663   15.3309 C   0  0  0  0  0  0  0  0  0  0  0  0
   15.5724  -17.5699   16.6125 N   0  0  0  0  0  0  0  0  0  0  0  0
   12.3994  -14.6066   18.9371 C   0  0  0  0  0  0  0  0  0  0  0  0
   13.0510  -14.0931   19.8981 O   0  0  0  0  0  0  0  0  0  0  0  0
    8.8101  -12.8316   18.7819 C   0  0  0  0  0  0  0  0  0  0  0  0
    8.8665  -13.9698   19.7600 C   0  0  1  0  0  0  0  0  0  0  0  0
    8.3070  -15.0959   19.1758 O   0  0  0  0  0  0  0  0  0  0  0  0
   10.3083  -14.2203   20.1768 C   0  0  2  0  0  0  0  0  0  0  0  0
   10.9932  -14.7204   19.0083 N   0  0  0  0  0  0  0  0  0  0  0  0
   10.2867  -15.2340   21.2673 C   0  0  0  0  0  0  0  0  0  0  0  0
   10.6640  -16.4054   21.0024 O   0  0  0  0  0  0  0  0  0  0  0  0
    8.2260  -14.5902   24.8671 O   0  0  0  0  0  0  0  0  0  0  0  0
    9.3309  -15.4037   24.9547 C   0  0  0  0  0  0  0  0  0  0  0  0
    9.7720  -15.9626   23.6207 C   0  0  2  0  0  0  0  0  0  0  0  0
    9.8711  -14.9818   22.5939 N   0  0  0  0  0  0  0  0  0  0  0  0
    8.7769  -16.9836   23.2285 C   0  0  0  0  0  0  0  0  0  0  0  0
    7.9938  -16.8239   22.2554 O   0  0  0  0  0  0  0  0  0  0  0  0
    8.7094  -18.1541   23.9617 O   0  0  0  0  0  0  0  0  0  0  0  0
  2  1  1  1
  3  2  1  0
  4  5  2  0
  4  3  1  0
  6  5  1  0
  7  8  2  0
  7  6  1  0
  8  4  1  0
  9 10  2  0
  9  2  1  0
 12 11  1  6
 12 14  1  0
 13 12  1  0
 14 15  1  6
 15  9  1  0
 16 14  1  0
 17 16  2  0
 18 19  1  0
 20 19  1  1
 20 22  1  0
 20 21  1  0
 21 16  1  0
 22 24  1  0
 23 22  2  0
M  END
$$$$
