HTS.pdb
     RDKit          3D

 24 24  0  0  1  0  0  0  0  0999 V2000
    8.3383  -13.2658   16.5522 N   0  0  0  0  0  0  0  0  0  0  0  0
    8.9353  -14.4261   17.1478 C   0  0  1  0  0  0  0  0  0  0  0  0
   10.1807  -14.8032   16.3803 C   0  0  0  0  0  0  0  0  0  0  0  0
    9.7864  -15.4205   15.0958 C   0  0  0  0  0  0  0  0  0  0  0  0
    8.5588  -15.3816   14.4524 C   0  0  0  0  0  0  0  0  0  0  0  0
    8.6889  -16.0890   13.3182 N   0  0  0  0  0  0  0  0  0  0  0  0
    9.9365  -16.5757   13.2075 C   0  0  0  0  0  0  0  0  0  0  0  0
   10.6012  -16.1650   14.2940 N   0  0  0  0  0  0  0  0  0  0  0  0
    9.2120  -14.2298   18.5907 C   0  0  0  0  0  0  0  0  0  0  0  0
    9.8850  -13.2035   18.9154 O   0  0  0  0  0  0  0  0  0  0  0  0
    7.0429  -13.4515   21.1539 C   0  0  0  0  0  0  0  0  0  0  0  0
    7.7362  -14.6759   21.6787 C   0  0  1  0  0  0  0  0  0  0  0  0
    6.9107  -15.7751   21.4981 O   0  0  0  0  0  0  0  0  0  0  0  0
    9.0677  -14.8599   20.9657 C   0  0  2  0  0  0  0  0  0  0  0  0
    8.7590  -15.1292   19.5812 N   0  0  0  0  0  0  0  0  0  0  0  0
    9.7572  -16.0163   21.6018 C   0  0  0  0  0  0  0  0  0  0  0  0
   10.1238  -16.9713   20.8681 O   0  0  0  0  0  0  0  0  0  0  0  0
   13.0808  -17.0708   22.2402 O   0  0  0  0  0  0  0  0  0  0  0  0
   12.4560  -16.4387   23.2891 C   0  0  0  0  0  0  0  0  0  0  0  0
   11.0552  -16.9464   23.5472 C   0  0  2  0  0  0  0  0  0  0  0  0
   10.0367  -16.1280   22.9823 N   0  0  0  0  0  0  0  0  0  0  0  0
   10.8790  -17.0049   25.0142 C   0  0  0  0  0  0  0  0  0  0  0  0
   10.0650  -16.2644   25.6262 O   0  0  0  0  0  0  0  0  0  0  0  0
   11.6395  -17.9081   25.7339 O   0  0  0  0  0  0  0  0  0  0  0  0
  2  1  1  6
  3  2  1  0
  4  5  2  0
  4  3  1  0
  6  5  1  0
  7  8  2  0
  7  6  1  0
  8  4  1  0
  9 10  2  0
  9  2  1  0
 12 11  1  6
 12 14  1  0
 13 12  1  0
 14 15  1  6
 15  9  1  0
 16 14  1  0
 17 16  2  0
 18 19  1  0
 20 19  1  1
 20 22  1  0
 20 21  1  0
 21 16  1  0
 22 24  1  0
 23 22  2  0
M  END
$$$$
