HTS.pdb
     RDKit          3D

 24 24  0  0  1  0  0  0  0  0999 V2000
    9.6041  -15.5791   21.3589 N   0  0  0  0  0  0  0  0  0  0  0  0
    8.9002  -14.9272   22.4251 C   0  0  1  0  0  0  0  0  0  0  0  0
    7.4414  -14.7899   22.0572 C   0  0  0  0  0  0  0  0  0  0  0  0
    7.3369  -14.1109   20.7478 C   0  0  0  0  0  0  0  0  0  0  0  0
    7.6224  -12.7929   20.4259 C   0  0  0  0  0  0  0  0  0  0  0  0
    7.3725  -12.6475   19.1143 N   0  0  0  0  0  0  0  0  0  0  0  0
    6.9427  -13.8058   18.5858 C   0  0  0  0  0  0  0  0  0  0  0  0
    6.9230  -14.6945   19.5862 N   0  0  0  0  0  0  0  0  0  0  0  0
    9.0816  -15.6263   23.7195 C   0  0  0  0  0  0  0  0  0  0  0  0
    9.5275  -16.8141   23.6769 O   0  0  0  0  0  0  0  0  0  0  0  0
    8.2219  -13.6614   27.2753 C   0  0  0  0  0  0  0  0  0  0  0  0
    9.5706  -14.2921   27.0795 C   0  0  1  0  0  0  0  0  0  0  0  0
   10.0805  -14.6615   28.3148 O   0  0  0  0  0  0  0  0  0  0  0  0
    9.4492  -15.4903   26.1495 C   0  0  2  0  0  0  0  0  0  0  0  0
    8.7794  -15.0212   24.9597 N   0  0  0  0  0  0  0  0  0  0  0  0
    8.6400  -16.5217   26.8557 C   0  0  0  0  0  0  0  0  0  0  0  0
    7.3976  -16.3437   26.9530 O   0  0  0  0  0  0  0  0  0  0  0  0
    9.4597  -20.4314   26.8991 O   0  0  0  0  0  0  0  0  0  0  0  0
    8.2801  -19.9947   27.4543 C   0  0  0  0  0  0  0  0  0  0  0  0
    8.4052  -18.6624   28.1583 C   0  0  2  0  0  0  0  0  0  0  0  0
    9.1631  -17.7006   27.4326 N   0  0  0  0  0  0  0  0  0  0  0  0
    9.0581  -18.9199   29.4599 C   0  0  0  0  0  0  0  0  0  0  0  0
   10.1213  -18.3419   29.8075 O   0  0  0  0  0  0  0  0  0  0  0  0
    8.4739  -19.8299   30.3216 O   0  0  0  0  0  0  0  0  0  0  0  0
  2  1  1  6
  3  2  1  0
  4  5  2  0
  4  3  1  0
  6  5  1  0
  7  8  2  0
  7  6  1  0
  8  4  1  0
  9 10  2  0
  9  2  1  0
 12 11  1  1
 12 14  1  0
 13 12  1  0
 14 15  1  6
 15  9  1  0
 16 14  1  0
 17 16  2  0
 18 19  1  0
 20 19  1  6
 20 22  1  0
 20 21  1  0
 21 16  1  0
 22 24  1  0
 23 22  2  0
M  END
$$$$
