HTS.pdb
     RDKit          3D

 24 24  0  0  1  0  0  0  0  0999 V2000
   12.3078  -14.7832   17.2943 N   0  0  0  0  0  0  0  0  0  0  0  0
   12.6060  -15.0361   18.6743 C   0  0  1  0  0  0  0  0  0  0  0  0
   14.0305  -14.6265   18.9663 C   0  0  0  0  0  0  0  0  0  0  0  0
   14.9453  -15.4431   18.1400 C   0  0  0  0  0  0  0  0  0  0  0  0
   15.1049  -16.8202   18.1206 C   0  0  0  0  0  0  0  0  0  0  0  0
   16.0521  -17.0916   17.2079 N   0  0  0  0  0  0  0  0  0  0  0  0
   16.5030  -15.9573   16.6460 C   0  0  0  0  0  0  0  0  0  0  0  0
   15.8247  -14.9554   17.2180 N   0  0  0  0  0  0  0  0  0  0  0  0
   11.6413  -14.3709   19.5820 C   0  0  0  0  0  0  0  0  0  0  0  0
   11.9026  -13.1779   19.9287 O   0  0  0  0  0  0  0  0  0  0  0  0
    8.2071  -13.4164   19.0681 C   0  0  0  0  0  0  0  0  0  0  0  0
    8.2122  -14.3173   20.2696 C   0  0  1  0  0  0  0  0  0  0  0  0
    7.8693  -15.6009   19.8734 O   0  0  0  0  0  0  0  0  0  0  0  0
    9.5830  -14.2887   20.9294 C   0  0  2  0  0  0  0  0  0  0  0  0
   10.4753  -15.0127   20.0553 N   0  0  0  0  0  0  0  0  0  0  0  0
    9.4549  -14.9623   22.2512 C   0  0  0  0  0  0  0  0  0  0  0  0
    9.9086  -16.1301   22.3738 O   0  0  0  0  0  0  0  0  0  0  0  0
    7.6527  -14.9015   26.8259 O   0  0  0  0  0  0  0  0  0  0  0  0
    7.9131  -14.2234   25.6586 C   0  0  0  0  0  0  0  0  0  0  0  0
    8.6623  -15.0507   24.6384 C   0  0  2  0  0  0  0  0  0  0  0  0
    8.8568  -14.3865   23.3945 N   0  0  0  0  0  0  0  0  0  0  0  0
    7.8755  -16.2831   24.4179 C   0  0  0  0  0  0  0  0  0  0  0  0
    7.0053  -16.3753   23.5125 O   0  0  0  0  0  0  0  0  0  0  0  0
    8.1093  -17.3702   25.2399 O   0  0  0  0  0  0  0  0  0  0  0  0
  2  1  1  6
  3  2  1  0
  4  5  2  0
  4  3  1  0
  6  5  1  0
  7  8  2  0
  7  6  1  0
  8  4  1  0
  9 10  2  0
  9  2  1  0
 12 11  1  6
 12 14  1  0
 13 12  1  0
 14 15  1  6
 15  9  1  0
 16 14  1  0
 17 16  2  0
 18 19  1  0
 20 19  1  1
 20 22  1  0
 20 21  1  0
 21 16  1  0
 22 24  1  0
 23 22  2  0
M  END
$$$$
