HTS.pdb
     RDKit          3D

 24 24  0  0  1  0  0  0  0  0999 V2000
    7.4485  -16.8823   15.9101 N   0  0  0  0  0  0  0  0  0  0  0  0
    8.3537  -16.1886   16.7799 C   0  0  1  0  0  0  0  0  0  0  0  0
    8.1058  -14.7014   16.6843 C   0  0  0  0  0  0  0  0  0  0  0  0
    8.4132  -14.2494   15.3103 C   0  0  0  0  0  0  0  0  0  0  0  0
    7.5810  -13.6271   14.3925 C   0  0  0  0  0  0  0  0  0  0  0  0
    8.3105  -13.4124   13.2855 N   0  0  0  0  0  0  0  0  0  0  0  0
    9.5641  -13.8665   13.4526 C   0  0  0  0  0  0  0  0  0  0  0  0
    9.6211  -14.3757   14.6888 N   0  0  0  0  0  0  0  0  0  0  0  0
    8.2651  -16.6761   18.1769 C   0  0  0  0  0  0  0  0  0  0  0  0
    7.1044  -16.7745   18.6818 O   0  0  0  0  0  0  0  0  0  0  0  0
    8.1576  -19.5456   19.6339 C   0  0  0  0  0  0  0  0  0  0  0  0
    9.3404  -18.9426   20.3358 C   0  0  1  0  0  0  0  0  0  0  0  0
   10.5028  -19.3781   19.7182 O   0  0  0  0  0  0  0  0  0  0  0  0
    9.2354  -17.4248   20.3115 C   0  0  2  0  0  0  0  0  0  0  0  0
    9.4053  -17.0228   18.9353 N   0  0  0  0  0  0  0  0  0  0  0  0
   10.3271  -16.8893   21.1710 C   0  0  0  0  0  0  0  0  0  0  0  0
   11.4339  -16.6216   20.6344 O   0  0  0  0  0  0  0  0  0  0  0  0
    9.7349  -16.4592   25.2305 O   0  0  0  0  0  0  0  0  0  0  0  0
   10.7591  -15.6779   24.7500 C   0  0  0  0  0  0  0  0  0  0  0  0
   11.2392  -16.0948   23.3781 C   0  0  2  0  0  0  0  0  0  0  0  0
   10.2175  -16.6542   22.5599 N   0  0  0  0  0  0  0  0  0  0  0  0
   12.3088  -17.0960   23.5792 C   0  0  0  0  0  0  0  0  0  0  0  0
   12.2066  -18.2835   23.1731 O   0  0  0  0  0  0  0  0  0  0  0  0
   13.4605  -16.7067   24.2381 O   0  0  0  0  0  0  0  0  0  0  0  0
  2  1  1  6
  3  2  1  0
  4  5  2  0
  4  3  1  0
  6  5  1  0
  7  8  2  0
  7  6  1  0
  8  4  1  0
  9 10  2  0
  9  2  1  0
 12 11  1  6
 12 14  1  0
 13 12  1  0
 14 15  1  6
 15  9  1  0
 16 14  1  0
 17 16  2  0
 18 19  1  0
 20 19  1  1
 20 22  1  0
 20 21  1  0
 21 16  1  0
 22 24  1  0
 23 22  2  0
M  END
$$$$
