HTS.pdb
     RDKit          3D

 24 24  0  0  1  0  0  0  0  0999 V2000
    9.6816  -16.5575   18.4344 N   0  0  0  0  0  0  0  0  0  0  0  0
    9.8853  -16.3813   19.8433 C   0  0  1  0  0  0  0  0  0  0  0  0
    8.7040  -15.6500   20.4366 C   0  0  0  0  0  0  0  0  0  0  0  0
    8.5651  -14.3379   19.7689 C   0  0  0  0  0  0  0  0  0  0  0  0
    9.3923  -13.2283   19.8505 C   0  0  0  0  0  0  0  0  0  0  0  0
    8.8526  -12.2794   19.0680 N   0  0  0  0  0  0  0  0  0  0  0  0
    7.7244  -12.7292   18.4930 C   0  0  0  0  0  0  0  0  0  0  0  0
    7.5540  -13.9847   18.9239 N   0  0  0  0  0  0  0  0  0  0  0  0
   10.1432  -17.6680   20.5325 C   0  0  0  0  0  0  0  0  0  0  0  0
    9.1345  -18.3878   20.8084 O   0  0  0  0  0  0  0  0  0  0  0  0
   11.9882  -20.5250   19.3441 C   0  0  0  0  0  0  0  0  0  0  0  0
   12.6121  -20.1568   20.6596 C   0  0  1  0  0  0  0  0  0  0  0  0
   13.7550  -19.4081   20.4240 O   0  0  0  0  0  0  0  0  0  0  0  0
   11.6105  -19.3870   21.5076 C   0  0  2  0  0  0  0  0  0  0  0  0
   11.4434  -18.0983   20.8783 N   0  0  0  0  0  0  0  0  0  0  0  0
   12.1925  -19.2523   22.8716 C   0  0  0  0  0  0  0  0  0  0  0  0
   12.9660  -18.2855   23.0989 O   0  0  0  0  0  0  0  0  0  0  0  0
   11.1721  -21.9129   25.9361 O   0  0  0  0  0  0  0  0  0  0  0  0
   11.6775  -20.6948   26.3248 C   0  0  0  0  0  0  0  0  0  0  0  0
   12.4964  -20.0145   25.2509 C   0  0  2  0  0  0  0  0  0  0  0  0
   11.9417  -20.1355   23.9456 N   0  0  0  0  0  0  0  0  0  0  0  0
   13.8388  -20.6342   25.2721 C   0  0  0  0  0  0  0  0  0  0  0  0
   14.2844  -21.3119   24.3090 O   0  0  0  0  0  0  0  0  0  0  0  0
   14.6281  -20.4588   26.3939 O   0  0  0  0  0  0  0  0  0  0  0  0
  2  1  1  6
  3  2  1  0
  4  5  2  0
  4  3  1  0
  6  5  1  0
  7  8  2  0
  7  6  1  0
  8  4  1  0
  9 10  2  0
  9  2  1  0
 12 11  1  6
 12 14  1  0
 13 12  1  0
 14 15  1  6
 15  9  1  0
 16 14  1  0
 17 16  2  0
 18 19  1  0
 20 19  1  1
 20 22  1  0
 20 21  1  0
 21 16  1  0
 22 24  1  0
 23 22  2  0
M  END
$$$$
