HTS.pdb
     RDKit          3D

 24 24  0  0  1  0  0  0  0  0999 V2000
   12.5658  -14.1656   16.6245 N   0  0  0  0  0  0  0  0  0  0  0  0
   12.7993  -14.8239   17.8773 C   0  0  1  0  0  0  0  0  0  0  0  0
   14.2692  -14.7522   18.2189 C   0  0  0  0  0  0  0  0  0  0  0  0
   15.0205  -15.6356   17.3013 C   0  0  0  0  0  0  0  0  0  0  0  0
   14.5327  -16.5325   16.3634 C   0  0  0  0  0  0  0  0  0  0  0  0
   15.5977  -17.1020   15.7757 N   0  0  0  0  0  0  0  0  0  0  0  0
   16.7377  -16.6129   16.2922 C   0  0  0  0  0  0  0  0  0  0  0  0
   16.3798  -15.7193   17.2218 N   0  0  0  0  0  0  0  0  0  0  0  0
   11.9513  -14.2729   18.9609 C   0  0  0  0  0  0  0  0  0  0  0  0
   12.0556  -13.0306   19.2009 O   0  0  0  0  0  0  0  0  0  0  0  0
    8.5528  -13.7152   19.1343 C   0  0  0  0  0  0  0  0  0  0  0  0
    8.8158  -14.5856   20.3294 C   0  0  1  0  0  0  0  0  0  0  0  0
    8.4971  -15.8971   20.0123 O   0  0  0  0  0  0  0  0  0  0  0  0
   10.2720  -14.4558   20.7512 C   0  0  2  0  0  0  0  0  0  0  0  0
   11.0585  -15.0720   19.7090 N   0  0  0  0  0  0  0  0  0  0  0  0
   10.4267  -15.1769   22.0447 C   0  0  0  0  0  0  0  0  0  0  0  0
   11.1650  -16.1960   22.0767 O   0  0  0  0  0  0  0  0  0  0  0  0
    9.3299  -15.5200   26.8275 O   0  0  0  0  0  0  0  0  0  0  0  0
    9.1932  -14.8461   25.6369 C   0  0  0  0  0  0  0  0  0  0  0  0
    9.8983  -15.5200   24.4814 C   0  0  2  0  0  0  0  0  0  0  0  0
    9.8024  -14.8026   23.2557 N   0  0  0  0  0  0  0  0  0  0  0  0
    9.2829  -16.8545   24.3174 C   0  0  0  0  0  0  0  0  0  0  0  0
    8.3240  -17.0631   23.5285 O   0  0  0  0  0  0  0  0  0  0  0  0
    9.7842  -17.9072   25.0608 O   0  0  0  0  0  0  0  0  0  0  0  0
  2  1  1  6
  3  2  1  0
  4  5  2  0
  4  3  1  0
  6  5  1  0
  7  8  2  0
  7  6  1  0
  8  4  1  0
  9 10  2  0
  9  2  1  0
 12 11  1  6
 12 14  1  0
 13 12  1  0
 14 15  1  6
 15  9  1  0
 16 14  1  0
 17 16  2  0
 18 19  1  0
 20 19  1  1
 20 22  1  0
 20 21  1  0
 21 16  1  0
 22 24  1  0
 23 22  2  0
M  END
$$$$
