TWA.pdb
     RDKit          3D

 27 28  0  0  1  0  0  0  0  0999 V2000
   26.0175  -19.1188  -15.7347 C   0  0  0  0  0  0  0  0  0  0  0  0
   27.0778  -20.0956  -16.1534 C   0  0  1  0  0  0  0  0  0  0  0  0
   28.0645  -19.5008  -16.9383 O   0  0  0  0  0  0  0  0  0  0  0  0
   27.7582  -20.6648  -14.9412 C   0  0  2  0  0  0  0  0  0  0  0  0
   28.7983  -21.6035  -15.2629 N   0  0  0  0  0  0  0  0  0  0  0  0
   26.8142  -21.2688  -13.9822 C   0  0  0  0  0  0  0  0  0  0  0  0
   26.3650  -22.4390  -14.1179 O   0  0  0  0  0  0  0  0  0  0  0  0
   26.3795  -20.5351  -12.8624 N   0  0  0  0  0  0  0  0  0  0  0  0
   25.4680  -20.9249  -11.8485 C   0  0  1  0  0  0  0  0  0  0  0  0
   25.7203  -20.3686  -10.4584 C   0  0  0  0  0  0  0  0  0  0  0  0
   27.0079  -20.8096   -9.8659 C   0  0  0  0  0  0  0  0  0  0  0  0
   28.0074  -21.6049  -10.3562 C   0  0  0  0  0  0  0  0  0  0  0  0
   28.9979  -21.7061   -9.4323 N   0  0  0  0  0  0  0  0  0  0  0  0
   28.6855  -21.0035   -8.3487 C   0  0  0  0  0  0  0  0  0  0  0  0
   29.3145  -20.7550   -7.1316 C   0  0  0  0  0  0  0  0  0  0  0  0
   28.7142  -19.9529   -6.1846 C   0  0  0  0  0  0  0  0  0  0  0  0
   27.4830  -19.3761   -6.4096 C   0  0  0  0  0  0  0  0  0  0  0  0
   26.8783  -19.6435   -7.6378 C   0  0  0  0  0  0  0  0  0  0  0  0
   27.4724  -20.4420   -8.5836 C   0  0  0  0  0  0  0  0  0  0  0  0
   24.0426  -20.7821  -12.1629 C   0  0  0  0  0  0  0  0  0  0  0  0
   23.5866  -19.5920  -12.2962 O   0  0  0  0  0  0  0  0  0  0  0  0
   21.1876  -22.7793  -13.5098 C   0  0  0  0  0  0  0  0  0  0  0  0
   21.7346  -21.6168  -12.7523 C   0  0  2  0  0  0  0  0  0  0  0  0
   23.1103  -21.8104  -12.3372 N   0  0  0  0  0  0  0  0  0  0  0  0
   20.8552  -21.2759  -11.6181 C   0  0  0  0  0  0  0  0  0  0  0  0
   19.6828  -20.9128  -11.7883 O   0  0  0  0  0  0  0  0  0  0  0  0
   21.3590  -21.3656  -10.3308 O   0  0  0  0  0  0  0  0  0  0  0  0
  2  1  1  1
  2  4  1  0
  3  2  1  0
  4  5  1  6
  6  4  1  0
  7  6  2  0
  8  6  1  0
  9 20  1  0
  9  8  1  0
  9 10  1  1
 11 10  1  0
 12 11  2  0
 13 12  1  0
 14 13  1  0
 14 19  2  0
 15 16  2  0
 15 14  1  0
 16 17  1  0
 17 18  2  0
 19 18  1  0
 19 11  1  0
 20 21  2  0
 23 22  1  1
 24 23  1  0
 24 20  1  0
 25 27  1  0
 25 23  1  0
 26 25  2  0
M  END
$$$$
