TWA.pdb
     RDKit          3D

 27 28  0  0  1  0  0  0  0  0999 V2000
   22.4725   -7.3854  -21.4628 C   0  0  0  0  0  0  0  0  0  0  0  0
   23.5800   -7.3992  -20.4492 C   0  0  1  0  0  0  0  0  0  0  0  0
   24.8134   -7.0702  -21.0092 O   0  0  0  0  0  0  0  0  0  0  0  0
   23.2998   -6.3927  -19.3699 C   0  0  2  0  0  0  0  0  0  0  0  0
   24.4038   -6.2058  -18.4684 N   0  0  0  0  0  0  0  0  0  0  0  0
   22.0730   -6.6927  -18.6080 C   0  0  0  0  0  0  0  0  0  0  0  0
   20.9954   -7.0362  -19.1650 O   0  0  0  0  0  0  0  0  0  0  0  0
   22.0742   -6.6006  -17.2035 N   0  0  0  0  0  0  0  0  0  0  0  0
   21.0191   -6.8778  -16.2975 C   0  0  1  0  0  0  0  0  0  0  0  0
   21.4024   -7.5643  -14.9986 C   0  0  0  0  0  0  0  0  0  0  0  0
   22.0434   -8.8891  -15.1926 C   0  0  0  0  0  0  0  0  0  0  0  0
   23.3442   -9.2947  -15.0688 C   0  0  0  0  0  0  0  0  0  0  0  0
   23.4310  -10.6223  -15.3429 N   0  0  0  0  0  0  0  0  0  0  0  0
   22.2305  -11.1063  -15.6430 C   0  0  0  0  0  0  0  0  0  0  0  0
   21.7442  -12.3638  -15.9907 C   0  0  0  0  0  0  0  0  0  0  0  0
   20.4018  -12.5493  -16.2443 C   0  0  0  0  0  0  0  0  0  0  0  0
   19.5057  -11.5055  -16.1627 C   0  0  0  0  0  0  0  0  0  0  0  0
   20.0230  -10.2584  -15.8123 C   0  0  0  0  0  0  0  0  0  0  0  0
   21.3591  -10.0692  -15.5592 C   0  0  0  0  0  0  0  0  0  0  0  0
   20.1109   -5.7668  -15.9944 C   0  0  0  0  0  0  0  0  0  0  0  0
   20.6150   -4.7333  -15.4290 O   0  0  0  0  0  0  0  0  0  0  0  0
   16.7747   -4.3872  -16.9046 C   0  0  0  0  0  0  0  0  0  0  0  0
   17.8846   -4.5794  -15.9272 C   0  0  2  0  0  0  0  0  0  0  0  0
   18.7380   -5.7044  -16.2560 N   0  0  0  0  0  0  0  0  0  0  0  0
   17.3566   -4.6663  -14.5525 C   0  0  0  0  0  0  0  0  0  0  0  0
   17.1003   -5.7554  -14.0201 O   0  0  0  0  0  0  0  0  0  0  0  0
   17.1434   -3.4958  -13.8428 O   0  0  0  0  0  0  0  0  0  0  0  0
  2  1  1  6
  2  4  1  0
  3  2  1  0
  4  5  1  1
  6  4  1  0
  7  6  2  0
  8  6  1  0
  9 20  1  0
  9  8  1  0
  9 10  1  1
 11 10  1  0
 12 11  2  0
 13 12  1  0
 14 13  1  0
 14 19  2  0
 15 16  2  0
 15 14  1  0
 16 17  1  0
 17 18  2  0
 19 18  1  0
 19 11  1  0
 20 21  2  0
 23 22  1  6
 24 23  1  0
 24 20  1  0
 25 27  1  0
 25 23  1  0
 26 25  2  0
M  END
$$$$
