TWA.pdb
     RDKit          3D

 27 28  0  0  1  0  0  0  0  0999 V2000
   28.4658  -18.6992  -15.9619 C   0  0  0  0  0  0  0  0  0  0  0  0
   27.5246  -19.2248  -14.9170 C   0  0  1  0  0  0  0  0  0  0  0  0
   26.2132  -19.3109  -15.3818 O   0  0  0  0  0  0  0  0  0  0  0  0
   27.9399  -20.6073  -14.5016 C   0  0  2  0  0  0  0  0  0  0  0  0
   27.8694  -21.5659  -15.5705 N   0  0  0  0  0  0  0  0  0  0  0  0
   27.1942  -21.1043  -13.3299 C   0  0  0  0  0  0  0  0  0  0  0  0
   26.2161  -21.8931  -13.4329 O   0  0  0  0  0  0  0  0  0  0  0  0
   27.5652  -20.7000  -12.0338 N   0  0  0  0  0  0  0  0  0  0  0  0
   26.7862  -20.7029  -10.8489 C   0  0  1  0  0  0  0  0  0  0  0  0
   27.3942  -20.0229   -9.6351 C   0  0  0  0  0  0  0  0  0  0  0  0
   26.7121  -20.3599   -8.3604 C   0  0  0  0  0  0  0  0  0  0  0  0
   25.5076  -20.9568   -8.1060 C   0  0  0  0  0  0  0  0  0  0  0  0
   25.3287  -21.0578   -6.7633 N   0  0  0  0  0  0  0  0  0  0  0  0
   26.3755  -20.5478   -6.1232 C   0  0  0  0  0  0  0  0  0  0  0  0
   26.7205  -20.3952   -4.7830 C   0  0  0  0  0  0  0  0  0  0  0  0
   27.9195  -19.8126   -4.4310 C   0  0  0  0  0  0  0  0  0  0  0  0
   28.8075  -19.3664   -5.3857 C   0  0  0  0  0  0  0  0  0  0  0  0
   28.4337  -19.5332   -6.7192 C   0  0  0  0  0  0  0  0  0  0  0  0
   27.2406  -20.1125   -7.0741 C   0  0  0  0  0  0  0  0  0  0  0  0
   25.3917  -20.2696  -10.9840 C   0  0  0  0  0  0  0  0  0  0  0  0
   25.1733  -19.0096  -11.0663 O   0  0  0  0  0  0  0  0  0  0  0  0
   22.2778  -21.4503  -12.4359 C   0  0  0  0  0  0  0  0  0  0  0  0
   22.9235  -20.6258  -11.3740 C   0  0  2  0  0  0  0  0  0  0  0  0
   24.2562  -21.0852  -11.0349 N   0  0  0  0  0  0  0  0  0  0  0  0
   22.0508  -20.5300  -10.1885 C   0  0  0  0  0  0  0  0  0  0  0  0
   22.4101  -20.9483   -9.0789 O   0  0  0  0  0  0  0  0  0  0  0  0
   20.7974  -19.9562  -10.3255 O   0  0  0  0  0  0  0  0  0  0  0  0
  2  1  1  6
  2  4  1  0
  3  2  1  0
  4  5  1  6
  6  4  1  0
  7  6  2  0
  8  6  1  0
  9 20  1  0
  9  8  1  0
  9 10  1  1
 11 10  1  0
 12 11  2  0
 13 12  1  0
 14 13  1  0
 14 19  2  0
 15 16  2  0
 15 14  1  0
 16 17  1  0
 17 18  2  0
 19 18  1  0
 19 11  1  0
 20 21  2  0
 23 22  1  6
 24 23  1  0
 24 20  1  0
 25 27  1  0
 25 23  1  0
 26 25  2  0
M  END
$$$$
