TWA.pdb
     RDKit          3D

 27 28  0  0  1  0  0  0  0  0999 V2000
   27.7023  -15.7162  -18.2986 C   0  0  0  0  0  0  0  0  0  0  0  0
   26.9452  -16.7416  -17.5055 C   0  0  1  0  0  0  0  0  0  0  0  0
   25.8279  -17.2193  -18.1888 O   0  0  0  0  0  0  0  0  0  0  0  0
   27.8283  -17.9224  -17.2185 C   0  0  2  0  0  0  0  0  0  0  0  0
   28.3655  -18.5305  -18.4052 N   0  0  0  0  0  0  0  0  0  0  0  0
   27.1691  -18.9442  -16.3836 C   0  0  0  0  0  0  0  0  0  0  0  0
   26.6221  -19.9698  -16.8721 O   0  0  0  0  0  0  0  0  0  0  0  0
   27.1331  -18.7965  -14.9844 N   0  0  0  0  0  0  0  0  0  0  0  0
   26.4799  -19.6112  -14.0250 C   0  0  1  0  0  0  0  0  0  0  0  0
   27.0280  -19.5655  -12.6097 C   0  0  0  0  0  0  0  0  0  0  0  0
   26.4221  -20.5739  -11.7043 C   0  0  0  0  0  0  0  0  0  0  0  0
   26.0699  -21.8804  -11.9071 C   0  0  0  0  0  0  0  0  0  0  0  0
   25.5583  -22.3934  -10.7582 N   0  0  0  0  0  0  0  0  0  0  0  0
   25.5616  -21.4689   -9.8037 C   0  0  0  0  0  0  0  0  0  0  0  0
   25.1687  -21.4435   -8.4682 C   0  0  0  0  0  0  0  0  0  0  0  0
   25.3105  -20.2950   -7.7188 C   0  0  0  0  0  0  0  0  0  0  0  0
   25.8409  -19.1450   -8.2623 C   0  0  0  0  0  0  0  0  0  0  0  0
   26.2251  -19.2018   -9.6021 C   0  0  0  0  0  0  0  0  0  0  0  0
   26.0854  -20.3433  -10.3521 C   0  0  0  0  0  0  0  0  0  0  0  0
   25.0180  -19.5084  -13.9689 C   0  0  0  0  0  0  0  0  0  0  0  0
   24.5166  -18.3390  -13.8164 O   0  0  0  0  0  0  0  0  0  0  0  0
   21.9167  -21.3010  -14.9078 C   0  0  0  0  0  0  0  0  0  0  0  0
   22.6558  -20.3978  -13.9792 C   0  0  2  0  0  0  0  0  0  0  0  0
   24.0946  -20.5550  -14.0648 N   0  0  0  0  0  0  0  0  0  0  0  0
   22.1613  -20.5556  -12.5983 C   0  0  0  0  0  0  0  0  0  0  0  0
   22.8908  -20.9737  -11.6882 O   0  0  0  0  0  0  0  0  0  0  0  0
   20.8454  -20.2260  -12.3175 O   0  0  0  0  0  0  0  0  0  0  0  0
  2  1  1  6
  2  4  1  0
  3  2  1  0
  4  5  1  6
  6  4  1  0
  7  6  2  0
  8  6  1  0
  9 20  1  0
  9  8  1  0
  9 10  1  1
 11 10  1  0
 12 11  2  0
 13 12  1  0
 14 13  1  0
 14 19  2  0
 15 16  2  0
 15 14  1  0
 16 17  1  0
 17 18  2  0
 19 18  1  0
 19 11  1  0
 20 21  2  0
 23 22  1  6
 24 23  1  0
 24 20  1  0
 25 27  1  0
 25 23  1  0
 26 25  2  0
M  END
$$$$
