TWA.pdb
     RDKit          3D

 27 28  0  0  1  0  0  0  0  0999 V2000
   28.4252  -21.4686  -11.2368 C   0  0  0  0  0  0  0  0  0  0  0  0
   27.5156  -20.7714  -12.2066 C   0  0  1  0  0  0  0  0  0  0  0  0
   26.7863  -21.6683  -12.9858 O   0  0  0  0  0  0  0  0  0  0  0  0
   26.5248  -19.9233  -11.4614 C   0  0  2  0  0  0  0  0  0  0  0  0
   25.6378  -20.6877  -10.6275 N   0  0  0  0  0  0  0  0  0  0  0  0
   25.7451  -19.0376  -12.3465 C   0  0  0  0  0  0  0  0  0  0  0  0
   24.4846  -19.0159  -12.3448 O   0  0  0  0  0  0  0  0  0  0  0  0
   26.4056  -18.1721  -13.2385 N   0  0  0  0  0  0  0  0  0  0  0  0
   25.8427  -17.2785  -14.1847 C   0  0  1  0  0  0  0  0  0  0  0  0
   26.7922  -16.2822  -14.8260 C   0  0  0  0  0  0  0  0  0  0  0  0
   26.1250  -15.3411  -15.7603 C   0  0  0  0  0  0  0  0  0  0  0  0
   25.1352  -14.4170  -15.5645 C   0  0  0  0  0  0  0  0  0  0  0  0
   24.8690  -13.7855  -16.7373 N   0  0  0  0  0  0  0  0  0  0  0  0
   25.6507  -14.2619  -17.7004 C   0  0  0  0  0  0  0  0  0  0  0  0
   25.8066  -13.9870  -19.0564 C   0  0  0  0  0  0  0  0  0  0  0  0
   26.7382  -14.6724  -19.8068 C   0  0  0  0  0  0  0  0  0  0  0  0
   27.5382  -15.6433  -19.2442 C   0  0  0  0  0  0  0  0  0  0  0  0
   27.3586  -15.8960  -17.8842 C   0  0  0  0  0  0  0  0  0  0  0  0
   26.4318  -15.2160  -17.1333 C   0  0  0  0  0  0  0  0  0  0  0  0
   25.0088  -17.8776  -15.2318 C   0  0  0  0  0  0  0  0  0  0  0  0
   25.4741  -18.9073  -15.8362 O   0  0  0  0  0  0  0  0  0  0  0  0
   21.5391  -18.3394  -16.2435 C   0  0  0  0  0  0  0  0  0  0  0  0
   22.9479  -18.1021  -16.6717 C   0  0  2  0  0  0  0  0  0  0  0  0
   23.7453  -17.4486  -15.6524 N   0  0  0  0  0  0  0  0  0  0  0  0
   22.9851  -17.3766  -17.9556 C   0  0  0  0  0  0  0  0  0  0  0  0
   22.7112  -16.1705  -18.0312 O   0  0  0  0  0  0  0  0  0  0  0  0
   23.3360  -18.0672  -19.1041 O   0  0  0  0  0  0  0  0  0  0  0  0
  2  1  1  1
  2  4  1  0
  3  2  1  0
  4  5  1  6
  6  4  1  0
  7  6  2  0
  8  6  1  0
  9 20  1  0
  9  8  1  0
  9 10  1  6
 11 10  1  0
 12 11  2  0
 13 12  1  0
 14 13  1  0
 14 19  2  0
 15 16  2  0
 15 14  1  0
 16 17  1  0
 17 18  2  0
 19 18  1  0
 19 11  1  0
 20 21  2  0
 23 22  1  1
 24 23  1  0
 24 20  1  0
 25 27  1  0
 25 23  1  0
 26 25  2  0
M  END
$$$$
