TWA.pdb
     RDKit          3D

 27 28  0  0  1  0  0  0  0  0999 V2000
   40.3179  -26.8371    6.3500 C   0  0  0  0  0  0  0  0  0  0  0  0
   39.9766  -26.4240    4.9476 C   0  0  1  0  0  0  0  0  0  0  0  0
   38.7568  -26.9492    4.5237 O   0  0  0  0  0  0  0  0  0  0  0  0
   39.8682  -24.9281    4.8657 C   0  0  2  0  0  0  0  0  0  0  0  0
   41.1183  -24.2556    5.0927 N   0  0  0  0  0  0  0  0  0  0  0  0
   38.8308  -24.3768    5.7577 C   0  0  0  0  0  0  0  0  0  0  0  0
   39.0309  -24.1719    6.9855 O   0  0  0  0  0  0  0  0  0  0  0  0
   37.5585  -24.0573    5.2477 N   0  0  0  0  0  0  0  0  0  0  0  0
   36.4144  -23.5973    5.9478 C   0  0  1  0  0  0  0  0  0  0  0  0
   35.2595  -23.0903    5.1024 C   0  0  0  0  0  0  0  0  0  0  0  0
   34.2880  -22.2608    5.8585 C   0  0  0  0  0  0  0  0  0  0  0  0
   34.2580  -21.8656    7.1681 C   0  0  0  0  0  0  0  0  0  0  0  0
   33.1590  -21.0967    7.3823 N   0  0  0  0  0  0  0  0  0  0  0  0
   32.4629  -20.9709    6.2575 C   0  0  0  0  0  0  0  0  0  0  0  0
   31.2888  -20.3109    5.9048 C   0  0  0  0  0  0  0  0  0  0  0  0
   30.8140  -20.3700    4.6119 C   0  0  0  0  0  0  0  0  0  0  0  0
   31.4802  -21.0780    3.6351 C   0  0  0  0  0  0  0  0  0  0  0  0
   32.6530  -21.7283    4.0189 C   0  0  0  0  0  0  0  0  0  0  0  0
   33.1292  -21.6723    5.3055 C   0  0  0  0  0  0  0  0  0  0  0  0
   35.8845  -24.4862    6.9870 C   0  0  0  0  0  0  0  0  0  0  0  0
   35.5689  -25.6776    6.6362 O   0  0  0  0  0  0  0  0  0  0  0  0
   35.4552  -24.6766   10.7265 C   0  0  0  0  0  0  0  0  0  0  0  0
   35.1694  -25.1057    9.3270 C   0  0  2  0  0  0  0  0  0  0  0  0
   35.6816  -24.1789    8.3366 N   0  0  0  0  0  0  0  0  0  0  0  0
   33.7289  -25.3690    9.1486 C   0  0  0  0  0  0  0  0  0  0  0  0
   32.9477  -24.4874    8.7643 O   0  0  0  0  0  0  0  0  0  0  0  0
   33.2424  -26.6374    9.4195 O   0  0  0  0  0  0  0  0  0  0  0  0
  2  1  1  1
  2  4  1  0
  3  2  1  0
  4  5  1  1
  6  4  1  0
  7  6  2  0
  8  6  1  0
  9 20  1  0
  9  8  1  0
  9 10  1  6
 11 10  1  0
 12 11  2  0
 13 12  1  0
 14 13  1  0
 14 19  2  0
 15 16  2  0
 15 14  1  0
 16 17  1  0
 17 18  2  0
 19 18  1  0
 19 11  1  0
 20 21  2  0
 23 22  1  1
 24 23  1  0
 24 20  1  0
 25 27  1  0
 25 23  1  0
 26 25  2  0
M  END
$$$$
