TWA.pdb
     RDKit          3D

 27 28  0  0  1  0  0  0  0  0999 V2000
   28.1241  -16.3709  -14.6004 C   0  0  0  0  0  0  0  0  0  0  0  0
   27.2926  -17.5811  -14.2874 C   0  0  1  0  0  0  0  0  0  0  0  0
   26.1480  -17.6555  -15.0796 O   0  0  0  0  0  0  0  0  0  0  0  0
   28.0889  -18.8296  -14.5398 C   0  0  2  0  0  0  0  0  0  0  0  0
   28.6139  -18.9071  -15.8758 N   0  0  0  0  0  0  0  0  0  0  0  0
   27.3438  -20.0617  -14.2196 C   0  0  0  0  0  0  0  0  0  0  0  0
   26.8727  -20.8202  -15.1097 O   0  0  0  0  0  0  0  0  0  0  0  0
   27.1342  -20.4312  -12.8778 N   0  0  0  0  0  0  0  0  0  0  0  0
   26.2725  -21.4309  -12.3594 C   0  0  1  0  0  0  0  0  0  0  0  0
   26.6295  -21.9942  -10.9953 C   0  0  0  0  0  0  0  0  0  0  0  0
   26.4418  -21.0272   -9.8847 C   0  0  0  0  0  0  0  0  0  0  0  0
   25.4622  -20.1035   -9.6415 C   0  0  0  0  0  0  0  0  0  0  0  0
   25.7294  -19.4585   -8.4763 N   0  0  0  0  0  0  0  0  0  0  0  0
   26.8526  -19.9263   -7.9423 C   0  0  0  0  0  0  0  0  0  0  0  0
   27.5761  -19.6426   -6.7870 C   0  0  0  0  0  0  0  0  0  0  0  0
   28.7378  -20.3284   -6.5028 C   0  0  0  0  0  0  0  0  0  0  0  0
   29.2165  -21.3082   -7.3453 C   0  0  0  0  0  0  0  0  0  0  0  0
   28.4700  -21.5696   -8.4943 C   0  0  0  0  0  0  0  0  0  0  0  0
   27.3127  -20.8888   -8.7813 C   0  0  0  0  0  0  0  0  0  0  0  0
   24.8369  -21.1326  -12.3862 C   0  0  0  0  0  0  0  0  0  0  0  0
   24.4921  -19.8992  -12.3426 O   0  0  0  0  0  0  0  0  0  0  0  0
   22.1891  -20.2408  -12.8786 C   0  0  0  0  0  0  0  0  0  0  0  0
   22.4028  -21.7087  -12.7243 C   0  0  2  0  0  0  0  0  0  0  0  0
   23.7854  -22.0528  -12.4557 N   0  0  0  0  0  0  0  0  0  0  0  0
   21.8657  -22.4369  -13.8894 C   0  0  0  0  0  0  0  0  0  0  0  0
   20.6880  -22.3083  -14.2525 O   0  0  0  0  0  0  0  0  0  0  0  0
   22.7049  -23.2858  -14.5924 O   0  0  0  0  0  0  0  0  0  0  0  0
  2  1  1  6
  2  4  1  0
  3  2  1  0
  4  5  1  6
  6  4  1  0
  7  6  2  0
  8  6  1  0
  9 20  1  0
  9  8  1  0
  9 10  1  1
 11 10  1  0
 12 11  2  0
 13 12  1  0
 14 13  1  0
 14 19  2  0
 15 16  2  0
 15 14  1  0
 16 17  1  0
 17 18  2  0
 19 18  1  0
 19 11  1  0
 20 21  2  0
 23 22  1  6
 24 23  1  0
 24 20  1  0
 25 27  1  0
 25 23  1  0
 26 25  2  0
M  END
$$$$
