TWA.pdb
     RDKit          3D

 27 28  0  0  1  0  0  0  0  0999 V2000
   23.9183   -9.6961  -22.3435 C   0  0  0  0  0  0  0  0  0  0  0  0
   23.4078   -9.3373  -20.9780 C   0  0  1  0  0  0  0  0  0  0  0  0
   22.0237   -9.1724  -20.9574 O   0  0  0  0  0  0  0  0  0  0  0  0
   23.7390  -10.4309  -20.0030 C   0  0  2  0  0  0  0  0  0  0  0  0
   23.2317  -11.7164  -20.3988 N   0  0  0  0  0  0  0  0  0  0  0  0
   23.3103  -10.1230  -18.6257 C   0  0  0  0  0  0  0  0  0  0  0  0
   22.3804  -10.7489  -18.0487 O   0  0  0  0  0  0  0  0  0  0  0  0
   23.9447   -9.0959  -17.9020 N   0  0  0  0  0  0  0  0  0  0  0  0
   23.7420   -8.7084  -16.5531 C   0  0  1  0  0  0  0  0  0  0  0  0
   24.9413   -8.8165  -15.6281 C   0  0  0  0  0  0  0  0  0  0  0  0
   25.5666  -10.1628  -15.6198 C   0  0  0  0  0  0  0  0  0  0  0  0
   25.1358  -11.3605  -15.1178 C   0  0  0  0  0  0  0  0  0  0  0  0
   26.0671  -12.3166  -15.3697 N   0  0  0  0  0  0  0  0  0  0  0  0
   27.0980  -11.7898  -16.0219 C   0  0  0  0  0  0  0  0  0  0  0  0
   28.2963  -12.2922  -16.5222 C   0  0  0  0  0  0  0  0  0  0  0  0
   29.1832  -11.4643  -17.1768 C   0  0  0  0  0  0  0  0  0  0  0  0
   28.9151  -10.1244  -17.3555 C   0  0  0  0  0  0  0  0  0  0  0  0
   27.7071   -9.6509  -16.8433 C   0  0  0  0  0  0  0  0  0  0  0  0
   26.8212  -10.4719  -16.1905 C   0  0  0  0  0  0  0  0  0  0  0  0
   23.0950   -7.4101  -16.3376 C   0  0  0  0  0  0  0  0  0  0  0  0
   23.6975   -6.3716  -16.7856 O   0  0  0  0  0  0  0  0  0  0  0  0
   19.8078   -5.8982  -15.3665 C   0  0  0  0  0  0  0  0  0  0  0  0
   21.2939   -5.8600  -15.4863 C   0  0  2  0  0  0  0  0  0  0  0  0
   21.8777   -7.1714  -15.6907 N   0  0  0  0  0  0  0  0  0  0  0  0
   21.8900   -5.1608  -14.3322 C   0  0  0  0  0  0  0  0  0  0  0  0
   22.4470   -5.7772  -13.4129 O   0  0  0  0  0  0  0  0  0  0  0  0
   21.8220   -3.7781  -14.2800 O   0  0  0  0  0  0  0  0  0  0  0  0
  2  1  1  6
  2  4  1  0
  3  2  1  0
  4  5  1  6
  6  4  1  0
  7  6  2  0
  8  6  1  0
  9 20  1  0
  9  8  1  0
  9 10  1  1
 11 10  1  0
 12 11  2  0
 13 12  1  0
 14 13  1  0
 14 19  2  0
 15 16  2  0
 15 14  1  0
 16 17  1  0
 17 18  2  0
 19 18  1  0
 19 11  1  0
 20 21  2  0
 23 22  1  1
 24 23  1  0
 24 20  1  0
 25 27  1  0
 25 23  1  0
 26 25  2  0
M  END
$$$$
