TWA.pdb
     RDKit          3D

 27 28  0  0  1  0  0  0  0  0999 V2000
   28.1990  -19.8201  -17.6672 C   0  0  0  0  0  0  0  0  0  0  0  0
   27.2684  -20.0347  -16.5088 C   0  0  1  0  0  0  0  0  0  0  0  0
   25.9297  -20.0264  -16.8975 O   0  0  0  0  0  0  0  0  0  0  0  0
   27.5382  -21.3695  -15.8748 C   0  0  2  0  0  0  0  0  0  0  0  0
   27.3802  -22.4716  -16.7840 N   0  0  0  0  0  0  0  0  0  0  0  0
   26.7362  -21.6013  -14.6587 C   0  0  0  0  0  0  0  0  0  0  0  0
   25.7516  -22.3884  -14.6353 O   0  0  0  0  0  0  0  0  0  0  0  0
   27.0579  -20.9323  -13.4629 N   0  0  0  0  0  0  0  0  0  0  0  0
   26.4219  -21.0241  -12.1988 C   0  0  1  0  0  0  0  0  0  0  0  0
   27.2328  -20.5737  -10.9966 C   0  0  0  0  0  0  0  0  0  0  0  0
   26.4953  -20.6697   -9.7119 C   0  0  0  0  0  0  0  0  0  0  0  0
   25.3410  -21.3224   -9.3747 C   0  0  0  0  0  0  0  0  0  0  0  0
   25.0742  -21.1165   -8.0588 N   0  0  0  0  0  0  0  0  0  0  0  0
   26.0144  -20.3502   -7.5164 C   0  0  0  0  0  0  0  0  0  0  0  0
   26.2422  -19.8401   -6.2410 C   0  0  0  0  0  0  0  0  0  0  0  0
   27.3474  -19.0558   -5.9881 C   0  0  0  0  0  0  0  0  0  0  0  0
   28.2545  -18.7536   -6.9806 C   0  0  0  0  0  0  0  0  0  0  0  0
   27.9991  -19.2789   -8.2473 C   0  0  0  0  0  0  0  0  0  0  0  0
   26.8996  -20.0603   -8.5035 C   0  0  0  0  0  0  0  0  0  0  0  0
   25.0759  -20.4499  -12.1026 C   0  0  0  0  0  0  0  0  0  0  0  0
   24.9303  -19.2296  -12.4655 O   0  0  0  0  0  0  0  0  0  0  0  0
   22.3896  -19.3003  -10.9643 C   0  0  0  0  0  0  0  0  0  0  0  0
   22.5765  -20.5456  -11.7634 C   0  0  2  0  0  0  0  0  0  0  0  0
   23.9157  -21.0905  -11.6546 N   0  0  0  0  0  0  0  0  0  0  0  0
   22.1786  -20.3266  -13.1670 C   0  0  0  0  0  0  0  0  0  0  0  0
   22.9483  -20.5663  -14.1079 O   0  0  0  0  0  0  0  0  0  0  0  0
   20.9096  -19.8395  -13.4340 O   0  0  0  0  0  0  0  0  0  0  0  0
  2  1  1  6
  2  4  1  0
  3  2  1  0
  4  5  1  6
  6  4  1  0
  7  6  2  0
  8  6  1  0
  9 20  1  0
  9  8  1  0
  9 10  1  1
 11 10  1  0
 12 11  2  0
 13 12  1  0
 14 13  1  0
 14 19  2  0
 15 16  2  0
 15 14  1  0
 16 17  1  0
 17 18  2  0
 19 18  1  0
 19 11  1  0
 20 21  2  0
 23 22  1  1
 24 23  1  0
 24 20  1  0
 25 27  1  0
 25 23  1  0
 26 25  2  0
M  END
$$$$
