TWA.pdb
     RDKit          3D

 27 28  0  0  1  0  0  0  0  0999 V2000
   18.2556  -36.5989   -5.3770 C   0  0  0  0  0  0  0  0  0  0  0  0
   19.7538  -36.6799   -5.3226 C   0  0  1  0  0  0  0  0  0  0  0  0
   20.2290  -37.9374   -5.6917 O   0  0  0  0  0  0  0  0  0  0  0  0
   20.3560  -35.6821   -6.2703 C   0  0  2  0  0  0  0  0  0  0  0  0
   19.9198  -35.8555   -7.6290 N   0  0  0  0  0  0  0  0  0  0  0  0
   21.8297  -35.6528   -6.2147 C   0  0  0  0  0  0  0  0  0  0  0  0
   22.5527  -36.1370   -7.1270 O   0  0  0  0  0  0  0  0  0  0  0  0
   22.4829  -35.0685   -5.1134 N   0  0  0  0  0  0  0  0  0  0  0  0
   23.8750  -34.9271   -4.8830 C   0  0  1  0  0  0  0  0  0  0  0  0
   24.4173  -33.5093   -4.8516 C   0  0  0  0  0  0  0  0  0  0  0  0
   24.3970  -32.8352   -6.1740 C   0  0  0  0  0  0  0  0  0  0  0  0
   23.4037  -32.1677   -6.8373 C   0  0  0  0  0  0  0  0  0  0  0  0
   23.8805  -31.7138   -8.0254 N   0  0  0  0  0  0  0  0  0  0  0  0
   25.1556  -32.0591   -8.1681 C   0  0  0  0  0  0  0  0  0  0  0  0
   26.1156  -31.8613   -9.1569 C   0  0  0  0  0  0  0  0  0  0  0  0
   27.3931  -32.3555   -9.0008 C   0  0  0  0  0  0  0  0  0  0  0  0
   27.7583  -33.0551   -7.8711 C   0  0  0  0  0  0  0  0  0  0  0  0
   26.7749  -33.2369   -6.8986 C   0  0  0  0  0  0  0  0  0  0  0  0
   25.5014  -32.7467   -7.0502 C   0  0  0  0  0  0  0  0  0  0  0  0
   24.4264  -35.6691   -3.7445 C   0  0  0  0  0  0  0  0  0  0  0  0
   23.8773  -35.4846   -2.6015 O   0  0  0  0  0  0  0  0  0  0  0  0
   26.8403  -38.4883   -3.0401 C   0  0  0  0  0  0  0  0  0  0  0  0
   25.8941  -37.4045   -2.6468 C   0  0  2  0  0  0  0  0  0  0  0  0
   25.4977  -36.5686   -3.7631 N   0  0  0  0  0  0  0  0  0  0  0  0
   26.4452  -36.6143   -1.5297 C   0  0  0  0  0  0  0  0  0  0  0  0
   26.5867  -37.0967   -0.3972 O   0  0  0  0  0  0  0  0  0  0  0  0
   26.8123  -35.2983   -1.7587 O   0  0  0  0  0  0  0  0  0  0  0  0
  2  1  1  6
  2  4  1  0
  3  2  1  0
  4  5  1  6
  6  4  1  0
  7  6  2  0
  8  6  1  0
  9 20  1  0
  9  8  1  0
  9 10  1  1
 11 10  1  0
 12 11  2  0
 13 12  1  0
 14 13  1  0
 14 19  2  0
 15 16  2  0
 15 14  1  0
 16 17  1  0
 17 18  2  0
 19 18  1  0
 19 11  1  0
 20 21  2  0
 23 22  1  6
 24 23  1  0
 24 20  1  0
 25 27  1  0
 25 23  1  0
 26 25  2  0
M  END
$$$$
