TWA.pdb
     RDKit          3D

 27 28  0  0  1  0  0  0  0  0999 V2000
   27.3894  -20.8905  -17.3268 C   0  0  0  0  0  0  0  0  0  0  0  0
   26.5931  -20.9130  -16.0543 C   0  0  1  0  0  0  0  0  0  0  0  0
   25.2194  -20.9361  -16.2905 O   0  0  0  0  0  0  0  0  0  0  0  0
   26.9279  -22.1442  -15.2616 C   0  0  2  0  0  0  0  0  0  0  0  0
   26.6767  -23.3653  -15.9774 N   0  0  0  0  0  0  0  0  0  0  0  0
   26.2567  -22.1832  -13.9487 C   0  0  0  0  0  0  0  0  0  0  0  0
   25.2531  -22.9116  -13.7212 O   0  0  0  0  0  0  0  0  0  0  0  0
   26.7318  -21.3877  -12.8893 N   0  0  0  0  0  0  0  0  0  0  0  0
   26.1457  -21.1659  -11.6172 C   0  0  1  0  0  0  0  0  0  0  0  0
   27.0462  -20.5708  -10.5493 C   0  0  0  0  0  0  0  0  0  0  0  0
   26.3859  -20.4254   -9.2278 C   0  0  0  0  0  0  0  0  0  0  0  0
   25.0807  -20.5720   -8.8444 C   0  0  0  0  0  0  0  0  0  0  0  0
   24.9739  -20.3427   -7.5098 N   0  0  0  0  0  0  0  0  0  0  0  0
   26.1654  -20.0501   -6.9997 C   0  0  0  0  0  0  0  0  0  0  0  0
   26.6321  -19.7408   -5.7249 C   0  0  0  0  0  0  0  0  0  0  0  0
   27.9698  -19.4838   -5.5126 C   0  0  0  0  0  0  0  0  0  0  0  0
   28.8806  -19.5243   -6.5461 C   0  0  0  0  0  0  0  0  0  0  0  0
   28.3828  -19.8369   -7.8112 C   0  0  0  0  0  0  0  0  0  0  0  0
   27.0513  -20.0932   -8.0270 C   0  0  0  0  0  0  0  0  0  0  0  0
   24.8638  -20.4536  -11.6049 C   0  0  0  0  0  0  0  0  0  0  0  0
   24.7680  -19.4037  -12.3334 O   0  0  0  0  0  0  0  0  0  0  0  0
   22.3717  -18.8220  -11.4397 C   0  0  0  0  0  0  0  0  0  0  0  0
   22.3866  -20.2852  -11.1513 C   0  0  2  0  0  0  0  0  0  0  0  0
   23.7169  -20.7936  -10.8796 N   0  0  0  0  0  0  0  0  0  0  0  0
   21.7159  -21.0340  -12.2310 C   0  0  0  0  0  0  0  0  0  0  0  0
   22.2613  -21.2273  -13.3266 O   0  0  0  0  0  0  0  0  0  0  0  0
   20.4424  -21.5319  -12.0083 O   0  0  0  0  0  0  0  0  0  0  0  0
  2  1  1  6
  2  4  1  0
  3  2  1  0
  4  5  1  6
  6  4  1  0
  7  6  2  0
  8  6  1  0
  9 20  1  0
  9  8  1  0
  9 10  1  1
 11 10  1  0
 12 11  2  0
 13 12  1  0
 14 13  1  0
 14 19  2  0
 15 16  2  0
 15 14  1  0
 16 17  1  0
 17 18  2  0
 19 18  1  0
 19 11  1  0
 20 21  2  0
 23 22  1  6
 24 23  1  0
 24 20  1  0
 25 27  1  0
 25 23  1  0
 26 25  2  0
M  END
$$$$
