TWA.pdb
     RDKit          3D

 27 28  0  0  1  0  0  0  0  0999 V2000
   29.3914  -26.3138  -16.7214 C   0  0  0  0  0  0  0  0  0  0  0  0
   28.9747  -27.7529  -16.6249 C   0  0  1  0  0  0  0  0  0  0  0  0
   28.0584  -27.9703  -15.5970 O   0  0  0  0  0  0  0  0  0  0  0  0
   28.3164  -28.1832  -17.9047 C   0  0  2  0  0  0  0  0  0  0  0  0
   27.1493  -27.4096  -18.2301 N   0  0  0  0  0  0  0  0  0  0  0  0
   27.9897  -29.6213  -17.9283 C   0  0  0  0  0  0  0  0  0  0  0  0
   26.8463  -30.0522  -18.2391 O   0  0  0  0  0  0  0  0  0  0  0  0
   28.9712  -30.5737  -17.5957 N   0  0  0  0  0  0  0  0  0  0  0  0
   28.8429  -31.9831  -17.5076 C   0  0  1  0  0  0  0  0  0  0  0  0
   30.1162  -32.7927  -17.6772 C   0  0  0  0  0  0  0  0  0  0  0  0
   29.9277  -34.0412  -18.4578 C   0  0  0  0  0  0  0  0  0  0  0  0
   28.8169  -34.5893  -19.0390 C   0  0  0  0  0  0  0  0  0  0  0  0
   29.1575  -35.7489  -19.6587 N   0  0  0  0  0  0  0  0  0  0  0  0
   30.4563  -35.9842  -19.5063 C   0  0  0  0  0  0  0  0  0  0  0  0
   31.3209  -36.9932  -19.9221 C   0  0  0  0  0  0  0  0  0  0  0  0
   32.6597  -36.9460  -19.5965 C   0  0  0  0  0  0  0  0  0  0  0  0
   33.1812  -35.9077  -18.8554 C   0  0  0  0  0  0  0  0  0  0  0  0
   32.2904  -34.9123  -18.4537 C   0  0  0  0  0  0  0  0  0  0  0  0
   30.9564  -34.9556  -18.7755 C   0  0  0  0  0  0  0  0  0  0  0  0
   28.1054  -32.4998  -16.3500 C   0  0  0  0  0  0  0  0  0  0  0  0
   28.4405  -32.0580  -15.1948 O   0  0  0  0  0  0  0  0  0  0  0  0
   27.2864  -34.0429  -13.9983 C   0  0  0  0  0  0  0  0  0  0  0  0
   26.3846  -33.9289  -15.1806 C   0  0  2  0  0  0  0  0  0  0  0  0
   27.0626  -33.4324  -16.3621 N   0  0  0  0  0  0  0  0  0  0  0  0
   25.1909  -33.1285  -14.8479 C   0  0  0  0  0  0  0  0  0  0  0  0
   24.8402  -32.1622  -15.5397 O   0  0  0  0  0  0  0  0  0  0  0  0
   24.4463  -33.4707  -13.7310 O   0  0  0  0  0  0  0  0  0  0  0  0
  2  1  1  6
  2  4  1  0
  3  2  1  0
  4  5  1  1
  6  4  1  0
  7  6  2  0
  8  6  1  0
  9 20  1  0
  9  8  1  0
  9 10  1  1
 11 10  1  0
 12 11  2  0
 13 12  1  0
 14 13  1  0
 14 19  2  0
 15 16  2  0
 15 14  1  0
 16 17  1  0
 17 18  2  0
 19 18  1  0
 19 11  1  0
 20 21  2  0
 23 22  1  1
 24 23  1  0
 24 20  1  0
 25 27  1  0
 25 23  1  0
 26 25  2  0
M  END
$$$$
