VVR.pdb
     RDKit          3D

 26 25  0  0  1  0  0  0  0  0999 V2000
   22.8431  -18.9997  -14.8705 C   0  0  0  0  0  0  0  0  0  0  0  0
   22.7398  -19.9601  -16.0213 C   0  0  1  0  0  0  0  0  0  0  0  0
   22.0274  -19.3717  -17.1962 C   0  0  0  0  0  0  0  0  0  0  0  0
   24.0999  -20.5274  -16.3677 C   0  0  2  0  0  0  0  0  0  0  0  0
   24.0476  -21.5063  -17.4113 N   0  0  0  0  0  0  0  0  0  0  0  0
   24.7799  -21.0884  -15.1770 C   0  0  0  0  0  0  0  0  0  0  0  0
   24.3474  -22.1539  -14.6460 O   0  0  0  0  0  0  0  0  0  0  0  0
   28.3997  -19.4319  -13.7445 C   0  0  0  0  0  0  0  0  0  0  0  0
   28.0481  -20.8533  -13.4954 C   0  0  1  0  0  0  0  0  0  0  0  0
   28.7928  -21.3743  -12.2857 C   0  0  0  0  0  0  0  0  0  0  0  0
   26.5606  -21.1060  -13.3952 C   0  0  2  0  0  0  0  0  0  0  0  0
   25.9201  -20.4962  -14.5688 N   0  0  0  0  0  0  0  0  0  0  0  0
   26.0480  -20.3851  -12.2033 C   0  0  0  0  0  0  0  0  0  0  0  0
   25.9660  -19.1109  -12.2480 O   0  0  0  0  0  0  0  0  0  0  0  0
   19.6761  -23.9095  -10.0191 N   0  0  0  0  0  0  0  0  0  0  0  0
   19.3587  -22.5307   -9.9846 C   0  0  0  0  0  0  0  0  0  0  0  0
   18.1224  -22.2210   -9.7631 N   0  0  0  0  0  0  0  0  0  0  0  0
   20.3579  -21.5422  -10.1855 N   0  0  0  0  0  0  0  0  0  0  0  0
   21.7149  -21.9065  -10.4390 C   0  0  0  0  0  0  0  0  0  0  0  0
   22.6915  -20.8096  -10.5146 C   0  0  0  0  0  0  0  0  0  0  0  0
   23.7660  -20.7226   -9.5348 C   0  0  0  0  0  0  0  0  0  0  0  0
   25.0768  -20.1053   -9.8732 C   0  0  2  0  0  0  0  0  0  0  0  0
   25.6321  -20.9729  -11.0081 N   0  0  0  0  0  0  0  0  0  0  0  0
   26.1267  -20.1324   -8.8349 C   0  0  0  0  0  0  0  0  0  0  0  0
   26.9440  -21.1328   -8.7751 O   0  0  0  0  0  0  0  0  0  0  0  0
   26.3671  -19.1818   -7.8796 O   0  0  0  0  0  0  0  0  0  0  0  0
  2  4  1  0
  2  1  1  1
  3  2  1  0
  4  5  1  6
  6  7  2  0
  6  4  1  0
  9  8  1  1
  9 11  1  0
 10  9  1  0
 11 12  1  6
 12  6  1  0
 13 23  1  0
 13 11  1  0
 14 13  2  0
 16 15  1  0
 17 16  2  0
 18 16  1  0
 19 20  1  0
 19 18  1  0
 20 21  1  0
 22 23  1  0
 22 21  1  1
 24 22  1  0
 25 24  2  0
 26 24  1  0
M  END
$$$$
