VVR.pdb
     RDKit          3D

 26 25  0  0  1  0  0  0  0  0999 V2000
   22.0337  -18.7383  -18.6455 C   0  0  0  0  0  0  0  0  0  0  0  0
   22.9238  -19.5760  -17.7718 C   0  0  1  0  0  0  0  0  0  0  0  0
   24.2440  -19.8658  -18.4099 C   0  0  0  0  0  0  0  0  0  0  0  0
   23.0462  -18.9655  -16.3920 C   0  0  2  0  0  0  0  0  0  0  0  0
   23.5870  -17.6399  -16.4137 N   0  0  0  0  0  0  0  0  0  0  0  0
   23.8384  -19.8236  -15.4805 C   0  0  0  0  0  0  0  0  0  0  0  0
   23.4548  -21.0050  -15.2324 O   0  0  0  0  0  0  0  0  0  0  0  0
   27.9110  -20.4053  -12.6426 C   0  0  0  0  0  0  0  0  0  0  0  0
   27.1558  -19.7862  -13.7618 C   0  0  1  0  0  0  0  0  0  0  0  0
   27.9051  -19.9659  -15.0639 C   0  0  0  0  0  0  0  0  0  0  0  0
   25.7224  -20.2566  -13.8652 C   0  0  2  0  0  0  0  0  0  0  0  0
   25.0372  -19.4011  -14.8440 N   0  0  0  0  0  0  0  0  0  0  0  0
   25.0633  -20.0237  -12.5558 C   0  0  0  0  0  0  0  0  0  0  0  0
   24.7982  -18.8227  -12.2098 O   0  0  0  0  0  0  0  0  0  0  0  0
   19.8709  -24.1957   -7.5233 N   0  0  0  0  0  0  0  0  0  0  0  0
   19.1937  -22.9554   -7.4436 C   0  0  0  0  0  0  0  0  0  0  0  0
   18.2416  -22.8645   -6.5725 N   0  0  0  0  0  0  0  0  0  0  0  0
   19.5503  -21.8690   -8.2852 N   0  0  0  0  0  0  0  0  0  0  0  0
   20.4676  -22.0433   -9.3653 C   0  0  0  0  0  0  0  0  0  0  0  0
   21.7140  -21.2650   -9.3070 C   0  0  0  0  0  0  0  0  0  0  0  0
   22.6997  -21.3881  -10.3726 C   0  0  0  0  0  0  0  0  0  0  0  0
   23.9767  -20.6251  -10.3404 C   0  0  2  0  0  0  0  0  0  0  0  0
   24.6904  -21.0093  -11.6411 N   0  0  0  0  0  0  0  0  0  0  0  0
   24.9401  -20.9615   -9.2727 C   0  0  0  0  0  0  0  0  0  0  0  0
   25.7441  -21.9627   -9.4263 O   0  0  0  0  0  0  0  0  0  0  0  0
   25.1090  -20.3125   -8.0793 O   0  0  0  0  0  0  0  0  0  0  0  0
  2  4  1  0
  2  1  1  6
  3  2  1  0
  4  5  1  6
  6  7  2  0
  6  4  1  0
  9  8  1  1
  9 11  1  0
 10  9  1  0
 11 12  1  6
 12  6  1  0
 13 23  1  0
 13 11  1  0
 14 13  2  0
 16 15  1  0
 17 16  2  0
 18 16  1  0
 19 20  1  0
 19 18  1  0
 20 21  1  0
 22 23  1  0
 22 21  1  1
 24 22  1  0
 25 24  2  0
 26 24  1  0
M  END
$$$$
