VVR.pdb
     RDKit          3D

 26 25  0  0  1  0  0  0  0  0999 V2000
   18.6270  -25.7965   -8.9441 C   0  0  0  0  0  0  0  0  0  0  0  0
   18.8595  -24.3659   -9.3400 C   0  0  1  0  0  0  0  0  0  0  0  0
   17.5887  -23.6455   -9.6565 C   0  0  0  0  0  0  0  0  0  0  0  0
   19.7090  -23.6568   -8.3070 C   0  0  2  0  0  0  0  0  0  0  0  0
   19.0700  -23.5599   -7.0294 N   0  0  0  0  0  0  0  0  0  0  0  0
   20.1281  -22.3133   -8.7698 C   0  0  0  0  0  0  0  0  0  0  0  0
   19.5924  -21.2785   -8.2733 O   0  0  0  0  0  0  0  0  0  0  0  0
   23.4262  -20.5606   -8.5859 C   0  0  0  0  0  0  0  0  0  0  0  0
   22.9909  -20.5956  -10.0056 C   0  0  1  0  0  0  0  0  0  0  0  0
   23.7545  -21.6598  -10.7630 C   0  0  0  0  0  0  0  0  0  0  0  0
   21.4960  -20.7389  -10.1827 C   0  0  2  0  0  0  0  0  0  0  0  0
   21.1210  -22.0966   -9.7638 N   0  0  0  0  0  0  0  0  0  0  0  0
   21.1898  -20.6367  -11.6315 C   0  0  0  0  0  0  0  0  0  0  0  0
   21.0302  -21.7137  -12.3001 O   0  0  0  0  0  0  0  0  0  0  0  0
   20.9522  -15.7057  -17.8040 N   0  0  0  0  0  0  0  0  0  0  0  0
   19.5675  -15.8245  -18.0716 C   0  0  0  0  0  0  0  0  0  0  0  0
   19.1834  -15.5804  -19.2826 N   0  0  0  0  0  0  0  0  0  0  0  0
   18.6518  -16.1943  -17.0516 N   0  0  0  0  0  0  0  0  0  0  0  0
   19.0980  -16.4637  -15.7225 C   0  0  0  0  0  0  0  0  0  0  0  0
   19.6939  -17.7860  -15.4797 C   0  0  0  0  0  0  0  0  0  0  0  0
   20.1529  -18.1438  -14.1443 C   0  0  0  0  0  0  0  0  0  0  0  0
   20.6955  -19.4969  -13.8467 C   0  0  2  0  0  0  0  0  0  0  0  0
   21.0511  -19.4526  -12.3566 N   0  0  0  0  0  0  0  0  0  0  0  0
   21.9518  -19.8859  -14.5188 C   0  0  0  0  0  0  0  0  0  0  0  0
   23.0878  -19.5653  -13.9903 O   0  0  0  0  0  0  0  0  0  0  0  0
   22.0795  -20.5866  -15.6877 O   0  0  0  0  0  0  0  0  0  0  0  0
  2  4  1  0
  2  1  1  1
  3  2  1  0
  4  5  1  1
  6  7  2  0
  6  4  1  0
  9  8  1  1
  9 11  1  0
 10  9  1  0
 11 12  1  6
 12  6  1  0
 13 23  1  0
 13 11  1  0
 14 13  2  0
 16 15  1  0
 17 16  2  0
 18 16  1  0
 19 20  1  0
 19 18  1  0
 20 21  1  0
 22 23  1  0
 22 21  1  6
 24 22  1  0
 25 24  2  0
 26 24  1  0
M  END
$$$$
