VVR.pdb
     RDKit          3D

 26 25  0  0  1  0  0  0  0  0999 V2000
   27.1171  -22.3565  -14.1889 C   0  0  0  0  0  0  0  0  0  0  0  0
   25.8985  -21.8303  -13.4851 C   0  0  1  0  0  0  0  0  0  0  0  0
   26.2285  -21.1659  -12.1875 C   0  0  0  0  0  0  0  0  0  0  0  0
   25.0797  -20.9588  -14.4134 C   0  0  2  0  0  0  0  0  0  0  0  0
   25.8054  -19.8240  -14.8989 N   0  0  0  0  0  0  0  0  0  0  0  0
   23.8138  -20.5209  -13.7807 C   0  0  0  0  0  0  0  0  0  0  0  0
   23.7834  -19.4521  -13.1018 O   0  0  0  0  0  0  0  0  0  0  0  0
   21.0949  -19.0275  -15.0739 C   0  0  0  0  0  0  0  0  0  0  0  0
   20.4819  -20.1690  -14.3476 C   0  0  1  0  0  0  0  0  0  0  0  0
   20.0298  -21.2316  -15.3253 C   0  0  0  0  0  0  0  0  0  0  0  0
   21.3595  -20.7411  -13.2571 C   0  0  2  0  0  0  0  0  0  0  0  0
   22.5913  -21.2389  -13.8851 N   0  0  0  0  0  0  0  0  0  0  0  0
   20.6674  -21.9189  -12.6765 C   0  0  0  0  0  0  0  0  0  0  0  0
   20.8148  -23.0549  -13.2423 O   0  0  0  0  0  0  0  0  0  0  0  0
   15.9414  -24.8144   -6.8998 N   0  0  0  0  0  0  0  0  0  0  0  0
   17.0285  -25.5168   -6.3272 C   0  0  0  0  0  0  0  0  0  0  0  0
   16.7579  -26.6428   -5.7505 N   0  0  0  0  0  0  0  0  0  0  0  0
   18.3497  -25.0006   -6.3879 N   0  0  0  0  0  0  0  0  0  0  0  0
   18.6636  -23.8721   -7.2042 C   0  0  0  0  0  0  0  0  0  0  0  0
   18.7946  -24.1161   -8.6484 C   0  0  0  0  0  0  0  0  0  0  0  0
   19.1975  -23.0335   -9.5360 C   0  0  0  0  0  0  0  0  0  0  0  0
   19.2613  -23.2220  -11.0106 C   0  0  2  0  0  0  0  0  0  0  0  0
   19.8532  -21.9125  -11.5433 N   0  0  0  0  0  0  0  0  0  0  0  0
   17.9805  -23.3726  -11.7304 C   0  0  0  0  0  0  0  0  0  0  0  0
   17.3393  -22.3213  -12.1256 O   0  0  0  0  0  0  0  0  0  0  0  0
   17.3517  -24.5431  -12.0596 O   0  0  0  0  0  0  0  0  0  0  0  0
  2  4  1  0
  2  1  1  6
  3  2  1  0
  4  5  1  1
  6  7  2  0
  6  4  1  0
  9  8  1  6
  9 11  1  0
 10  9  1  0
 11 12  1  6
 12  6  1  0
 13 23  1  0
 13 11  1  0
 14 13  2  0
 16 15  1  0
 17 16  2  0
 18 16  1  0
 19 20  1  0
 19 18  1  0
 20 21  1  0
 22 23  1  0
 22 21  1  1
 24 22  1  0
 25 24  2  0
 26 24  1  0
M  END
$$$$
