VVR.pdb
     RDKit          3D

 26 25  0  0  1  0  0  0  0  0999 V2000
   20.6581  -22.1664  -13.7650 C   0  0  0  0  0  0  0  0  0  0  0  0
   19.9201  -21.9433  -12.4755 C   0  0  1  0  0  0  0  0  0  0  0  0
   18.8221  -22.9352  -12.2649 C   0  0  0  0  0  0  0  0  0  0  0  0
   20.8869  -21.8636  -11.3133 C   0  0  2  0  0  0  0  0  0  0  0  0
   20.2426  -21.5629  -10.0705 N   0  0  0  0  0  0  0  0  0  0  0  0
   21.9754  -20.8923  -11.5706 C   0  0  0  0  0  0  0  0  0  0  0  0
   21.7558  -19.6507  -11.4502 O   0  0  0  0  0  0  0  0  0  0  0  0
   25.5951  -20.7397  -10.0840 C   0  0  0  0  0  0  0  0  0  0  0  0
   25.6135  -20.7512  -11.5691 C   0  0  1  0  0  0  0  0  0  0  0  0
   26.0033  -22.1214  -12.0789 C   0  0  0  0  0  0  0  0  0  0  0  0
   24.3308  -20.2576  -12.1996 C   0  0  2  0  0  0  0  0  0  0  0  0
   23.2914  -21.2674  -11.9557 N   0  0  0  0  0  0  0  0  0  0  0  0
   24.5317  -20.1947  -13.6689 C   0  0  0  0  0  0  0  0  0  0  0  0
   24.4145  -21.2702  -14.3486 O   0  0  0  0  0  0  0  0  0  0  0  0
   22.5247  -17.6188  -21.2010 N   0  0  0  0  0  0  0  0  0  0  0  0
   22.2510  -16.4582  -20.4387 C   0  0  0  0  0  0  0  0  0  0  0  0
   22.1460  -15.3440  -21.0878 N   0  0  0  0  0  0  0  0  0  0  0  0
   22.1011  -16.5247  -19.0284 N   0  0  0  0  0  0  0  0  0  0  0  0
   23.2184  -16.3410  -18.1588 C   0  0  0  0  0  0  0  0  0  0  0  0
   23.9617  -17.5494  -17.7719 C   0  0  0  0  0  0  0  0  0  0  0  0
   24.0951  -17.9029  -16.3650 C   0  0  0  0  0  0  0  0  0  0  0  0
   24.8686  -19.0992  -15.9355 C   0  0  2  0  0  0  0  0  0  0  0  0
   24.8403  -19.0495  -14.4039 N   0  0  0  0  0  0  0  0  0  0  0  0
   26.3039  -19.1381  -16.2811 C   0  0  0  0  0  0  0  0  0  0  0  0
   27.1725  -18.6237  -15.4728 O   0  0  0  0  0  0  0  0  0  0  0  0
   26.8680  -19.6839  -17.4026 O   0  0  0  0  0  0  0  0  0  0  0  0
  2  4  1  0
  2  1  1  6
  3  2  1  0
  4  5  1  1
  6  7  2  0
  6  4  1  0
  9  8  1  1
  9 11  1  0
 10  9  1  0
 11 12  1  6
 12  6  1  0
 13 23  1  0
 13 11  1  0
 14 13  2  0
 16 15  1  0
 17 16  2  0
 18 16  1  0
 19 20  1  0
 19 18  1  0
 20 21  1  0
 22 23  1  0
 22 21  1  6
 24 22  1  0
 25 24  2  0
 26 24  1  0
M  END
$$$$
