VVR.pdb
     RDKit          3D

 26 25  0  0  1  0  0  0  0  0999 V2000
   27.8257  -20.9383  -15.5859 C   0  0  0  0  0  0  0  0  0  0  0  0
   26.5240  -20.2852  -15.2167 C   0  0  1  0  0  0  0  0  0  0  0  0
   25.8717  -19.6100  -16.3798 C   0  0  0  0  0  0  0  0  0  0  0  0
   25.6159  -21.2669  -14.5071 C   0  0  2  0  0  0  0  0  0  0  0  0
   25.2844  -22.4036  -15.3122 N   0  0  0  0  0  0  0  0  0  0  0  0
   24.3805  -20.6142  -14.0146 C   0  0  0  0  0  0  0  0  0  0  0  0
   24.4524  -19.7144  -13.1261 O   0  0  0  0  0  0  0  0  0  0  0  0
   20.9031  -20.5523  -16.2215 C   0  0  0  0  0  0  0  0  0  0  0  0
   21.1284  -19.6459  -15.0666 C   0  0  1  0  0  0  0  0  0  0  0  0
   19.8184  -19.0426  -14.6091 C   0  0  0  0  0  0  0  0  0  0  0  0
   21.8842  -20.2876  -13.9249 C   0  0  2  0  0  0  0  0  0  0  0  0
   23.0780  -20.9372  -14.4838 N   0  0  0  0  0  0  0  0  0  0  0  0
   21.0360  -21.3647  -13.3560 C   0  0  0  0  0  0  0  0  0  0  0  0
   20.9559  -22.4752  -13.9827 O   0  0  0  0  0  0  0  0  0  0  0  0
   19.2815  -24.9391   -6.2751 N   0  0  0  0  0  0  0  0  0  0  0  0
   18.0222  -25.1467   -6.8868 C   0  0  0  0  0  0  0  0  0  0  0  0
   17.3867  -26.2263   -6.5641 N   0  0  0  0  0  0  0  0  0  0  0  0
   17.4909  -24.2080   -7.8100 N   0  0  0  0  0  0  0  0  0  0  0  0
   17.9419  -24.1693   -9.1641 C   0  0  0  0  0  0  0  0  0  0  0  0
   19.2182  -23.4842   -9.4172 C   0  0  0  0  0  0  0  0  0  0  0  0
   19.2566  -22.3124  -10.2818 C   0  0  0  0  0  0  0  0  0  0  0  0
   19.3806  -22.4416  -11.7589 C   0  0  2  0  0  0  0  0  0  0  0  0
   20.3002  -21.2876  -12.1729 N   0  0  0  0  0  0  0  0  0  0  0  0
   18.1557  -22.2489  -12.5611 C   0  0  0  0  0  0  0  0  0  0  0  0
   17.7577  -21.0520  -12.8468 O   0  0  0  0  0  0  0  0  0  0  0  0
   17.3456  -23.2241  -13.0774 O   0  0  0  0  0  0  0  0  0  0  0  0
  2  4  1  0
  2  1  1  6
  3  2  1  0
  4  5  1  6
  6  7  2  0
  6  4  1  0
  9  8  1  6
  9 11  1  0
 10  9  1  0
 11 12  1  6
 12  6  1  0
 13 23  1  0
 13 11  1  0
 14 13  2  0
 16 15  1  0
 17 16  2  0
 18 16  1  0
 19 20  1  0
 19 18  1  0
 20 21  1  0
 22 23  1  0
 22 21  1  1
 24 22  1  0
 25 24  2  0
 26 24  1  0
M  END
$$$$
