VVR.pdb
     RDKit          3D

 26 25  0  0  1  0  0  0  0  0999 V2000
   24.5240  -23.8844  -17.3971 C   0  0  0  0  0  0  0  0  0  0  0  0
   25.7598  -24.7373  -17.3465 C   0  0  1  0  0  0  0  0  0  0  0  0
   25.9253  -25.5792  -18.5703 C   0  0  0  0  0  0  0  0  0  0  0  0
   26.9774  -23.8957  -17.0289 C   0  0  2  0  0  0  0  0  0  0  0  0
   28.1742  -24.6710  -16.9003 N   0  0  0  0  0  0  0  0  0  0  0  0
   26.7727  -23.0703  -15.8158 C   0  0  0  0  0  0  0  0  0  0  0  0
   26.8570  -23.6011  -14.6688 O   0  0  0  0  0  0  0  0  0  0  0  0
   28.0838  -19.2102  -15.2788 C   0  0  0  0  0  0  0  0  0  0  0  0
   26.6588  -19.4555  -14.9393 C   0  0  1  0  0  0  0  0  0  0  0  0
   25.7589  -18.9179  -16.0304 C   0  0  0  0  0  0  0  0  0  0  0  0
   26.3488  -20.8987  -14.6113 C   0  0  2  0  0  0  0  0  0  0  0  0
   26.4788  -21.6799  -15.8492 N   0  0  0  0  0  0  0  0  0  0  0  0
   24.9259  -20.9839  -14.1974 C   0  0  0  0  0  0  0  0  0  0  0  0
   24.0305  -21.0823  -15.1034 O   0  0  0  0  0  0  0  0  0  0  0  0
   20.1341  -23.6921   -8.4774 N   0  0  0  0  0  0  0  0  0  0  0  0
   19.0630  -23.0560   -9.1490 C   0  0  0  0  0  0  0  0  0  0  0  0
   17.8893  -23.1708   -8.6172 N   0  0  0  0  0  0  0  0  0  0  0  0
   19.2775  -22.3292  -10.3496 N   0  0  0  0  0  0  0  0  0  0  0  0
   20.5545  -22.3206  -10.9881 C   0  0  0  0  0  0  0  0  0  0  0  0
   21.5344  -21.3413  -10.4950 C   0  0  0  0  0  0  0  0  0  0  0  0
   22.8322  -21.2191  -11.1453 C   0  0  0  0  0  0  0  0  0  0  0  0
   22.9468  -20.9584  -12.6057 C   0  0  2  0  0  0  0  0  0  0  0  0
   24.4538  -20.9706  -12.8844 N   0  0  0  0  0  0  0  0  0  0  0  0
   22.4871  -19.6438  -13.0974 C   0  0  0  0  0  0  0  0  0  0  0  0
   23.2392  -18.6029  -12.9445 O   0  0  0  0  0  0  0  0  0  0  0  0
   21.3082  -19.3680  -13.7361 O   0  0  0  0  0  0  0  0  0  0  0  0
  2  4  1  0
  2  1  1  6
  3  2  1  0
  4  5  1  1
  6  7  2  0
  6  4  1  0
  9  8  1  6
  9 11  1  0
 10  9  1  0
 11 12  1  6
 12  6  1  0
 13 23  1  0
 13 11  1  0
 14 13  2  0
 16 15  1  0
 17 16  2  0
 18 16  1  0
 19 20  1  0
 19 18  1  0
 20 21  1  0
 22 23  1  0
 22 21  1  1
 24 22  1  0
 25 24  2  0
 26 24  1  0
M  END
$$$$
