VVR.pdb
     RDKit          3D

 26 25  0  0  1  0  0  0  0  0999 V2000
   18.8635  -13.8860  -19.4505 C   0  0  0  0  0  0  0  0  0  0  0  0
   18.9722  -12.9759  -18.2600 C   0  0  1  0  0  0  0  0  0  0  0  0
   17.7067  -12.9167  -17.4669 C   0  0  0  0  0  0  0  0  0  0  0  0
   20.1859  -13.3285  -17.4268 C   0  0  2  0  0  0  0  0  0  0  0  0
   20.1636  -14.6787  -16.9509 N   0  0  0  0  0  0  0  0  0  0  0  0
   20.3638  -12.3919  -16.2928 C   0  0  0  0  0  0  0  0  0  0  0  0
   19.8283  -12.6460  -15.1734 O   0  0  0  0  0  0  0  0  0  0  0  0
   23.4125  -11.1492  -14.4624 C   0  0  0  0  0  0  0  0  0  0  0  0
   22.6570   -9.9765  -14.9724 C   0  0  1  0  0  0  0  0  0  0  0  0
   23.3496   -9.3920  -16.1840 C   0  0  0  0  0  0  0  0  0  0  0  0
   21.1959  -10.2603  -15.2391 C   0  0  2  0  0  0  0  0  0  0  0  0
   21.1175  -11.1893  -16.3749 N   0  0  0  0  0  0  0  0  0  0  0  0
   20.5506   -8.9960  -15.6732 C   0  0  0  0  0  0  0  0  0  0  0  0
   20.6858   -8.6267  -16.8888 O   0  0  0  0  0  0  0  0  0  0  0  0
   13.4257   -6.2406  -17.1740 N   0  0  0  0  0  0  0  0  0  0  0  0
   13.4281   -6.0540  -15.7711 C   0  0  0  0  0  0  0  0  0  0  0  0
   12.2794   -6.0786  -15.1764 N   0  0  0  0  0  0  0  0  0  0  0  0
   14.6397   -5.8497  -15.0598 N   0  0  0  0  0  0  0  0  0  0  0  0
   15.8815   -5.6964  -15.7475 C   0  0  0  0  0  0  0  0  0  0  0  0
   17.0782   -5.4981  -14.9162 C   0  0  0  0  0  0  0  0  0  0  0  0
   17.9647   -6.6197  -14.6369 C   0  0  0  0  0  0  0  0  0  0  0  0
   19.1850   -6.8661  -15.4519 C   0  0  2  0  0  0  0  0  0  0  0  0
   19.7880   -8.1487  -14.8686 N   0  0  0  0  0  0  0  0  0  0  0  0
   20.2712   -5.8694  -15.3637 C   0  0  0  0  0  0  0  0  0  0  0  0
   21.1094   -5.9194  -14.3800 O   0  0  0  0  0  0  0  0  0  0  0  0
   20.5269   -4.8480  -16.2384 O   0  0  0  0  0  0  0  0  0  0  0  0
  2  4  1  0
  2  1  1  6
  3  2  1  0
  4  5  1  1
  6  7  2  0
  6  4  1  0
  9  8  1  6
  9 11  1  0
 10  9  1  0
 11 12  1  6
 12  6  1  0
 13 23  1  0
 13 11  1  0
 14 13  2  0
 16 15  1  0
 17 16  2  0
 18 16  1  0
 19 20  1  0
 19 18  1  0
 20 21  1  0
 22 23  1  0
 22 21  1  1
 24 22  1  0
 25 24  2  0
 26 24  1  0
M  END
$$$$
