VVR.pdb
     RDKit          3D

 26 25  0  0  1  0  0  0  0  0999 V2000
   26.2870  -19.1058  -15.1930 C   0  0  0  0  0  0  0  0  0  0  0  0
   27.6936  -19.6326  -15.1602 C   0  0  1  0  0  0  0  0  0  0  0  0
   28.6554  -18.7432  -15.8799 C   0  0  0  0  0  0  0  0  0  0  0  0
   28.1142  -19.9453  -13.7399 C   0  0  2  0  0  0  0  0  0  0  0  0
   29.4258  -20.5137  -13.6581 N   0  0  0  0  0  0  0  0  0  0  0  0
   27.1352  -20.8239  -13.0585 C   0  0  0  0  0  0  0  0  0  0  0  0
   27.1447  -22.0711  -13.2793 O   0  0  0  0  0  0  0  0  0  0  0  0
   26.0630  -20.5799   -9.2411 C   0  0  0  0  0  0  0  0  0  0  0  0
   24.8816  -20.7152  -10.1311 C   0  0  1  0  0  0  0  0  0  0  0  0
   24.1359  -19.4015  -10.2176 C   0  0  0  0  0  0  0  0  0  0  0  0
   25.2079  -21.2709  -11.4991 C   0  0  2  0  0  0  0  0  0  0  0  0
   26.1542  -20.3507  -12.1449 N   0  0  0  0  0  0  0  0  0  0  0  0
   23.9673  -21.2526  -12.3139 C   0  0  0  0  0  0  0  0  0  0  0  0
   23.7456  -20.2449  -13.0674 O   0  0  0  0  0  0  0  0  0  0  0  0
   18.1129  -26.5268  -14.2057 N   0  0  0  0  0  0  0  0  0  0  0  0
   17.5143  -25.5384  -15.0228 C   0  0  0  0  0  0  0  0  0  0  0  0
   16.2475  -25.6607  -15.2548 N   0  0  0  0  0  0  0  0  0  0  0  0
   18.2776  -24.4675  -15.5579 N   0  0  0  0  0  0  0  0  0  0  0  0
   19.6632  -24.3218  -15.2462 C   0  0  0  0  0  0  0  0  0  0  0  0
   19.9911  -23.8575  -13.8900 C   0  0  0  0  0  0  0  0  0  0  0  0
   21.3678  -23.5272  -13.5465 C   0  0  0  0  0  0  0  0  0  0  0  0
   21.7855  -22.1246  -13.2783 C   0  0  2  0  0  0  0  0  0  0  0  0
   22.9941  -22.2521  -12.3446 N   0  0  0  0  0  0  0  0  0  0  0  0
   20.8363  -21.2634  -12.5445 C   0  0  0  0  0  0  0  0  0  0  0  0
   20.8919  -21.2017  -11.2540 O   0  0  0  0  0  0  0  0  0  0  0  0
   19.8562  -20.4721  -13.0804 O   0  0  0  0  0  0  0  0  0  0  0  0
  2  4  1  0
  2  1  1  1
  3  2  1  0
  4  5  1  6
  6  7  2  0
  6  4  1  0
  9  8  1  1
  9 11  1  0
 10  9  1  0
 11 12  1  6
 12  6  1  0
 13 23  1  0
 13 11  1  0
 14 13  2  0
 16 15  1  0
 17 16  2  0
 18 16  1  0
 19 20  1  0
 19 18  1  0
 20 21  1  0
 22 23  1  0
 22 21  1  1
 24 22  1  0
 25 24  2  0
 26 24  1  0
M  END
$$$$
