VVR.pdb
     RDKit          3D

 26 25  0  0  1  0  0  0  0  0999 V2000
   27.7127  -21.0934   -4.3906 C   0  0  0  0  0  0  0  0  0  0  0  0
   27.1176  -20.8917   -5.7553 C   0  0  1  0  0  0  0  0  0  0  0  0
   25.6474  -20.6272   -5.7057 C   0  0  0  0  0  0  0  0  0  0  0  0
   27.8898  -19.8418   -6.5253 C   0  0  2  0  0  0  0  0  0  0  0  0
   27.9134  -18.5707   -5.8666 N   0  0  0  0  0  0  0  0  0  0  0  0
   27.3798  -19.6893   -7.9078 C   0  0  0  0  0  0  0  0  0  0  0  0
   26.5840  -18.7444   -8.1871 O   0  0  0  0  0  0  0  0  0  0  0  0
   29.7325  -19.9230  -11.1220 C   0  0  0  0  0  0  0  0  0  0  0  0
   28.4832  -20.7140  -11.2621 C   0  0  1  0  0  0  0  0  0  0  0  0
   28.7723  -22.1884  -11.0832 C   0  0  0  0  0  0  0  0  0  0  0  0
   27.3598  -20.2456  -10.3647 C   0  0  2  0  0  0  0  0  0  0  0  0
   27.7318  -20.5568   -8.9776 N   0  0  0  0  0  0  0  0  0  0  0  0
   26.1524  -21.0506  -10.6764 C   0  0  0  0  0  0  0  0  0  0  0  0
   25.8027  -21.9693   -9.8602 O   0  0  0  0  0  0  0  0  0  0  0  0
   18.0656  -20.5978  -11.7085 N   0  0  0  0  0  0  0  0  0  0  0  0
   19.0183  -21.3291  -12.4573 C   0  0  0  0  0  0  0  0  0  0  0  0
   18.5582  -22.1581  -13.3374 N   0  0  0  0  0  0  0  0  0  0  0  0
   20.4109  -21.1538  -12.2441 N   0  0  0  0  0  0  0  0  0  0  0  0
   20.8966  -20.3319  -11.1825 C   0  0  0  0  0  0  0  0  0  0  0  0
   22.3566  -20.2214  -11.0459 C   0  0  0  0  0  0  0  0  0  0  0  0
   23.1702  -21.4244  -10.9318 C   0  0  0  0  0  0  0  0  0  0  0  0
   24.1264  -21.8189  -12.0014 C   0  0  2  0  0  0  0  0  0  0  0  0
   25.3360  -20.9001  -11.7980 N   0  0  0  0  0  0  0  0  0  0  0  0
   23.7122  -21.5864  -13.3999 C   0  0  0  0  0  0  0  0  0  0  0  0
   22.9383  -22.4383  -13.9897 O   0  0  0  0  0  0  0  0  0  0  0  0
   24.0519  -20.5255  -14.1955 O   0  0  0  0  0  0  0  0  0  0  0  0
  2  4  1  0
  2  1  1  1
  3  2  1  0
  4  5  1  1
  6  7  2  0
  6  4  1  0
  9  8  1  1
  9 11  1  0
 10  9  1  0
 11 12  1  1
 12  6  1  0
 13 23  1  0
 13 11  1  0
 14 13  2  0
 16 15  1  0
 17 16  2  0
 18 16  1  0
 19 20  1  0
 19 18  1  0
 20 21  1  0
 22 23  1  0
 22 21  1  1
 24 22  1  0
 25 24  2  0
 26 24  1  0
M  END
$$$$
