VVR.pdb
     RDKit          3D

 26 25  0  0  1  0  0  0  0  0999 V2000
   27.1067  -20.9423  -15.0821 C   0  0  0  0  0  0  0  0  0  0  0  0
   26.9456  -21.3243  -13.6381 C   0  0  1  0  0  0  0  0  0  0  0  0
   28.0441  -20.7884  -12.7778 C   0  0  0  0  0  0  0  0  0  0  0  0
   25.5629  -20.9609  -13.1401 C   0  0  2  0  0  0  0  0  0  0  0  0
   25.2858  -19.5594  -13.2343 N   0  0  0  0  0  0  0  0  0  0  0  0
   25.3375  -21.4324  -11.7539 C   0  0  0  0  0  0  0  0  0  0  0  0
   25.2640  -22.6737  -11.5127 O   0  0  0  0  0  0  0  0  0  0  0  0
   24.9730  -18.7007   -8.5101 C   0  0  0  0  0  0  0  0  0  0  0  0
   25.4478  -20.0907   -8.2896 C   0  0  1  0  0  0  0  0  0  0  0  0
   25.1699  -20.5210   -6.8659 C   0  0  0  0  0  0  0  0  0  0  0  0
   24.9130  -21.0855   -9.2950 C   0  0  2  0  0  0  0  0  0  0  0  0
   25.1930  -20.5620  -10.6392 N   0  0  0  0  0  0  0  0  0  0  0  0
   23.4364  -21.1380   -9.1537 C   0  0  0  0  0  0  0  0  0  0  0  0
   22.7331  -20.2564   -9.7541 O   0  0  0  0  0  0  0  0  0  0  0  0
   16.7656  -26.8631   -9.2748 N   0  0  0  0  0  0  0  0  0  0  0  0
   17.9308  -26.6739  -10.0556 C   0  0  0  0  0  0  0  0  0  0  0  0
   17.9570  -27.2475  -11.2148 N   0  0  0  0  0  0  0  0  0  0  0  0
   19.0143  -25.8898   -9.5791 N   0  0  0  0  0  0  0  0  0  0  0  0
   18.9334  -25.2013   -8.3310 C   0  0  0  0  0  0  0  0  0  0  0  0
   19.3345  -23.7865   -8.3285 C   0  0  0  0  0  0  0  0  0  0  0  0
   20.7464  -23.4300   -8.3676 C   0  0  0  0  0  0  0  0  0  0  0  0
   21.1886  -22.0094   -8.3544 C   0  0  2  0  0  0  0  0  0  0  0  0
   22.7184  -22.0793   -8.4150 N   0  0  0  0  0  0  0  0  0  0  0  0
   20.8990  -21.2209   -7.1396 C   0  0  0  0  0  0  0  0  0  0  0  0
   19.8321  -20.4918   -7.0874 O   0  0  0  0  0  0  0  0  0  0  0  0
   21.6482  -21.1630   -5.9954 O   0  0  0  0  0  0  0  0  0  0  0  0
  2  4  1  0
  2  1  1  6
  3  2  1  0
  4  5  1  1
  6  7  2  0
  6  4  1  0
  9  8  1  6
  9 11  1  0
 10  9  1  0
 11 12  1  6
 12  6  1  0
 13 23  1  0
 13 11  1  0
 14 13  2  0
 16 15  1  0
 17 16  2  0
 18 16  1  0
 19 20  1  0
 19 18  1  0
 20 21  1  0
 22 23  1  0
 22 21  1  1
 24 22  1  0
 25 24  2  0
 26 24  1  0
M  END
$$$$
