ARH.pdb
     RDKit          3D

 27 27  0  0  1  0  0  0  0  0999 V2000
   22.0314  -23.9736  -16.0060 C   0  0  0  0  0  0  0  0  0  0  0  0
   20.6169  -23.8461  -15.5151 C   0  0  2  0  0  0  0  0  0  0  0  0
   20.0480  -22.6088  -16.0132 N   0  0  0  0  0  0  0  0  0  0  0  0
   20.5638  -23.8976  -14.0308 C   0  0  0  0  0  0  0  0  0  0  0  0
   21.2927  -23.1215  -13.3724 O   0  0  0  0  0  0  0  0  0  0  0  0
   14.0747  -23.1549  -10.5495 N   0  0  0  0  0  0  0  0  0  0  0  0
   15.1530  -22.4570   -9.9158 C   0  0  0  0  0  0  0  0  0  0  0  0
   15.0287  -22.0933   -8.6851 N   0  0  0  0  0  0  0  0  0  0  0  0
   16.3380  -22.1663  -10.6178 N   0  0  0  0  0  0  0  0  0  0  0  0
   16.4819  -22.3922  -12.0367 C   0  0  0  0  0  0  0  0  0  0  0  0
   17.3321  -23.5874  -12.2573 C   0  0  0  0  0  0  0  0  0  0  0  0
   18.6788  -23.5321  -11.5997 C   0  0  0  0  0  0  0  0  0  0  0  0
   19.5434  -24.7205  -11.8746 C   0  0  2  0  0  0  0  0  0  0  0  0
   19.7213  -24.7897  -13.3261 N   0  0  0  0  0  0  0  0  0  0  0  0
   18.8713  -25.9866  -11.4630 C   0  0  0  0  0  0  0  0  0  0  0  0
   17.8061  -26.3731  -12.0406 O   0  0  0  0  0  0  0  0  0  0  0  0
   15.8189  -21.6309   -8.1941 N   0  0  0  0  0  0  0  0  0  0  0  0
   19.3650  -26.8111  -10.4332 C   0  0  2  0  0  0  0  0  0  0  0  0
   18.8003  -28.0881  -10.0333 C   0  0  0  0  0  0  0  0  0  0  0  0
   19.6442  -28.7910   -9.0335 C   0  0  0  0  0  0  0  0  0  0  0  0
   20.9525  -29.2064   -9.5695 C   0  0  0  0  0  0  0  0  0  0  0  0
   21.3772  -29.1944  -10.8848 N   0  0  0  0  0  0  0  0  0  0  0  0
   22.6272  -29.6706  -10.9647 C   0  0  0  0  0  0  0  0  0  0  0  0
   23.0188  -29.9905   -9.7284 N   0  0  0  0  0  0  0  0  0  0  0  0
   22.0127  -29.7139   -8.8740 C   0  0  0  0  0  0  0  0  0  0  0  0
   17.4512  -27.8081   -9.5074 O   0  0  0  0  0  0  0  0  0  0  0  0
   17.1475  -26.7122   -8.9223 O   0  0  0  0  0  0  0  0  0  0  0  0
  2  1  1  1
  3  2  1  0
  4  5  2  0
  4  2  1  0
  7  9  1  0
  7  6  1  0
  8  7  2  0
 10  9  1  0
 11 10  1  0
 11 12  1  0
 13 12  1  6
 13 14  1  0
 14  4  1  0
 15 13  1  0
 16 15  2  0
 17 15  1  0
 18 25  1  0
 18 17  1  0
 18 19  1  6
 20 19  1  0
 20 24  1  0
 21 20  2  0
 22 21  1  0
 22 23  1  0
 23 24  2  0
 25 27  1  0
 26 25  2  0
M  END
$$$$
