ARH.pdb
     RDKit          3D

 27 27  0  0  1  0  0  0  0  0999 V2000
   28.2945  -19.4626  -19.3831 C   0  0  0  0  0  0  0  0  0  0  0  0
   27.4392  -18.6757  -18.4306 C   0  0  2  0  0  0  0  0  0  0  0  0
   28.2627  -17.6997  -17.7435 N   0  0  0  0  0  0  0  0  0  0  0  0
   26.7582  -19.5744  -17.4626 C   0  0  0  0  0  0  0  0  0  0  0  0
   26.0107  -20.4785  -17.8997 O   0  0  0  0  0  0  0  0  0  0  0  0
   26.2954  -19.1525   -9.4276 N   0  0  0  0  0  0  0  0  0  0  0  0
   25.8472  -20.5124   -9.3952 C   0  0  0  0  0  0  0  0  0  0  0  0
   25.0247  -20.8809   -8.4732 N   0  0  0  0  0  0  0  0  0  0  0  0
   26.2923  -21.4436  -10.3524 N   0  0  0  0  0  0  0  0  0  0  0  0
   27.1337  -21.0775  -11.4674 C   0  0  0  0  0  0  0  0  0  0  0  0
   26.2916  -20.8898  -12.6738 C   0  0  0  0  0  0  0  0  0  0  0  0
   27.0277  -20.4007  -13.8856 C   0  0  0  0  0  0  0  0  0  0  0  0
   26.1797  -20.2852  -15.1115 C   0  0  2  0  0  0  0  0  0  0  0  0
   26.9185  -19.4522  -16.0620 N   0  0  0  0  0  0  0  0  0  0  0  0
   24.9008  -19.5751  -14.8210 C   0  0  0  0  0  0  0  0  0  0  0  0
   24.9010  -18.4698  -14.1917 O   0  0  0  0  0  0  0  0  0  0  0  0
   24.6736  -21.8583   -8.4458 N   0  0  0  0  0  0  0  0  0  0  0  0
   23.6450  -20.0749  -15.2173 C   0  0  2  0  0  0  0  0  0  0  0  0
   22.3685  -19.4201  -14.9904 C   0  0  0  0  0  0  0  0  0  0  0  0
   21.5645  -19.3030  -16.2337 C   0  0  0  0  0  0  0  0  0  0  0  0
   20.3319  -18.5156  -16.0544 C   0  0  0  0  0  0  0  0  0  0  0  0
   20.0370  -17.6109  -15.0517 N   0  0  0  0  0  0  0  0  0  0  0  0
   18.8033  -17.1193  -15.2296 C   0  0  0  0  0  0  0  0  0  0  0  0
   18.2947  -17.6877  -16.3261 N   0  0  0  0  0  0  0  0  0  0  0  0
   19.2114  -18.5359  -16.8349 C   0  0  0  0  0  0  0  0  0  0  0  0
   21.6665  -20.2072  -13.9595 O   0  0  0  0  0  0  0  0  0  0  0  0
   21.7831  -21.4765  -13.8557 O   0  0  0  0  0  0  0  0  0  0  0  0
  2  1  1  6
  3  2  1  0
  4  5  2  0
  4  2  1  0
  7  9  1  0
  7  6  1  0
  8  7  2  0
 10  9  1  0
 11 10  1  0
 11 12  1  0
 13 12  1  1
 13 14  1  0
 14  4  1  0
 15 13  1  0
 16 15  2  0
 17 15  1  0
 18 25  1  0
 18 17  1  0
 18 19  1  6
 20 19  1  0
 20 24  1  0
 21 20  2  0
 22 21  1  0
 22 23  1  0
 23 24  2  0
 25 27  1  0
 26 25  2  0
M  END
$$$$
