ARH.pdb
     RDKit          3D

 27 27  0  0  1  0  0  0  0  0999 V2000
   28.4660  -22.4415  -16.9814 C   0  0  0  0  0  0  0  0  0  0  0  0
   27.1447  -22.9459  -16.4735 C   0  0  2  0  0  0  0  0  0  0  0  0
   26.4435  -23.6173  -17.5507 N   0  0  0  0  0  0  0  0  0  0  0  0
   26.3299  -21.8336  -15.9190 C   0  0  0  0  0  0  0  0  0  0  0  0
   26.7866  -21.1684  -14.9619 O   0  0  0  0  0  0  0  0  0  0  0  0
   26.6099  -16.7455  -18.9840 N   0  0  0  0  0  0  0  0  0  0  0  0
   26.2888  -17.5621  -20.1160 C   0  0  0  0  0  0  0  0  0  0  0  0
   27.1173  -17.6226  -21.1021 N   0  0  0  0  0  0  0  0  0  0  0  0
   25.0871  -18.2936  -20.1624 N   0  0  0  0  0  0  0  0  0  0  0  0
   24.1362  -18.3054  -19.0759 C   0  0  0  0  0  0  0  0  0  0  0  0
   24.6912  -19.0946  -17.9495 C   0  0  0  0  0  0  0  0  0  0  0  0
   23.6670  -19.6510  -17.0057 C   0  0  0  0  0  0  0  0  0  0  0  0
   24.2440  -20.4149  -15.8572 C   0  0  2  0  0  0  0  0  0  0  0  0
   25.0545  -21.4922  -16.4280 N   0  0  0  0  0  0  0  0  0  0  0  0
   23.1743  -21.0649  -15.0465 C   0  0  0  0  0  0  0  0  0  0  0  0
   22.1107  -21.4912  -15.5983 O   0  0  0  0  0  0  0  0  0  0  0  0
   26.8805  -18.1725  -21.9510 N   0  0  0  0  0  0  0  0  0  0  0  0
   23.2760  -21.2414  -13.6528 C   0  0  2  0  0  0  0  0  0  0  0  0
   22.1652  -21.2130  -12.7173 C   0  0  0  0  0  0  0  0  0  0  0  0
   22.5013  -20.4926  -11.4627 C   0  0  0  0  0  0  0  0  0  0  0  0
   23.8135  -20.8727  -10.9103 C   0  0  0  0  0  0  0  0  0  0  0  0
   24.7002  -21.8168  -11.3931 N   0  0  0  0  0  0  0  0  0  0  0  0
   25.7751  -21.8827  -10.5957 C   0  0  0  0  0  0  0  0  0  0  0  0
   25.6012  -21.0011   -9.6075 N   0  0  0  0  0  0  0  0  0  0  0  0
   24.4162  -20.3828   -9.7869 C   0  0  0  0  0  0  0  0  0  0  0  0
   21.0343  -20.5812  -13.4223 O   0  0  0  0  0  0  0  0  0  0  0  0
   21.1864  -19.8303  -14.4461 O   0  0  0  0  0  0  0  0  0  0  0  0
  2  1  1  6
  3  2  1  0
  4  5  2  0
  4  2  1  0
  7  9  1  0
  7  6  1  0
  8  7  2  0
 10  9  1  0
 11 10  1  0
 11 12  1  0
 13 12  1  6
 13 14  1  0
 14  4  1  0
 15 13  1  0
 16 15  2  0
 17 15  1  0
 18 25  1  0
 18 17  1  0
 18 19  1  6
 20 19  1  0
 20 24  1  0
 21 20  2  0
 22 21  1  0
 22 23  1  0
 23 24  2  0
 25 27  1  0
 26 25  2  0
M  END
$$$$
