ARH.pdb
     RDKit          3D

 27 27  0  0  1  0  0  0  0  0999 V2000
   25.2874  -22.4441  -15.6140 C   0  0  0  0  0  0  0  0  0  0  0  0
   24.6808  -23.6376  -14.9316 C   0  0  2  0  0  0  0  0  0  0  0  0
   24.8537  -24.8072  -15.7711 N   0  0  0  0  0  0  0  0  0  0  0  0
   23.2440  -23.4041  -14.6321 C   0  0  0  0  0  0  0  0  0  0  0  0
   22.3923  -23.6713  -15.5098 O   0  0  0  0  0  0  0  0  0  0  0  0
   18.5914  -25.1540   -7.7988 N   0  0  0  0  0  0  0  0  0  0  0  0
   18.2823  -25.5130   -9.1504 C   0  0  0  0  0  0  0  0  0  0  0  0
   17.6345  -26.6044   -9.3780 N   0  0  0  0  0  0  0  0  0  0  0  0
   18.6755  -24.6926  -10.2245 N   0  0  0  0  0  0  0  0  0  0  0  0
   19.2753  -23.3927  -10.0370 C   0  0  0  0  0  0  0  0  0  0  0  0
   19.6408  -22.8280  -11.3588 C   0  0  0  0  0  0  0  0  0  0  0  0
   21.0419  -23.1240  -11.8043 C   0  0  0  0  0  0  0  0  0  0  0  0
   21.3911  -22.5573  -13.1432 C   0  0  2  0  0  0  0  0  0  0  0  0
   22.7946  -22.8906  -13.3925 N   0  0  0  0  0  0  0  0  0  0  0  0
   21.2959  -21.0690  -13.1433 C   0  0  0  0  0  0  0  0  0  0  0  0
   21.9762  -20.3754  -12.3225 O   0  0  0  0  0  0  0  0  0  0  0  0
   17.3818  -26.8694  -10.3502 N   0  0  0  0  0  0  0  0  0  0  0  0
   20.4657  -20.3589  -14.0324 C   0  0  2  0  0  0  0  0  0  0  0  0
   20.3970  -18.9126  -14.1469 C   0  0  0  0  0  0  0  0  0  0  0  0
   20.1569  -18.4670  -15.5432 C   0  0  0  0  0  0  0  0  0  0  0  0
   21.3549  -18.5628  -16.3959 C   0  0  0  0  0  0  0  0  0  0  0  0
   22.6393  -18.9134  -16.0244 N   0  0  0  0  0  0  0  0  0  0  0  0
   23.4519  -18.8617  -17.0887 C   0  0  0  0  0  0  0  0  0  0  0  0
   22.7194  -18.4846  -18.1399 N   0  0  0  0  0  0  0  0  0  0  0  0
   21.4469  -18.3003  -17.7330 C   0  0  0  0  0  0  0  0  0  0  0  0
   19.3226  -18.4669  -13.2402 O   0  0  0  0  0  0  0  0  0  0  0  0
   18.3738  -19.2342  -12.8576 O   0  0  0  0  0  0  0  0  0  0  0  0
  2  1  1  6
  3  2  1  0
  4  5  2  0
  4  2  1  0
  7  9  1  0
  7  6  1  0
  8  7  2  0
 10  9  1  0
 11 10  1  0
 11 12  1  0
 13 12  1  1
 13 14  1  0
 14  4  1  0
 15 13  1  0
 16 15  2  0
 17 15  1  0
 18 25  1  0
 18 17  1  0
 18 19  1  1
 20 19  1  0
 20 24  1  0
 21 20  2  0
 22 21  1  0
 22 23  1  0
 23 24  2  0
 25 27  1  0
 26 25  2  0
M  END
$$$$
