ARH.pdb
     RDKit          3D

 27 27  0  0  1  0  0  0  0  0999 V2000
   19.0679  -29.3300  -12.5499 C   0  0  0  0  0  0  0  0  0  0  0  0
   20.2358  -28.4406  -12.2288 C   0  0  2  0  0  0  0  0  0  0  0  0
   20.9752  -29.0059  -11.1168 N   0  0  0  0  0  0  0  0  0  0  0  0
   19.7819  -27.0596  -11.9200 C   0  0  0  0  0  0  0  0  0  0  0  0
   19.5536  -26.7504  -10.7286 O   0  0  0  0  0  0  0  0  0  0  0  0
   22.4887  -19.3005  -15.0153 N   0  0  0  0  0  0  0  0  0  0  0  0
   21.3245  -19.0497  -14.2196 C   0  0  0  0  0  0  0  0  0  0  0  0
   20.9033  -17.8383  -14.0870 N   0  0  0  0  0  0  0  0  0  0  0  0
   20.6408  -20.1044  -13.5859 N   0  0  0  0  0  0  0  0  0  0  0  0
   21.0842  -21.4768  -13.6544 C   0  0  0  0  0  0  0  0  0  0  0  0
   20.0628  -22.3520  -13.0292 C   0  0  0  0  0  0  0  0  0  0  0  0
   20.2937  -23.8220  -13.2161 C   0  0  0  0  0  0  0  0  0  0  0  0
   19.2439  -24.6897  -12.5993 C   0  0  2  0  0  0  0  0  0  0  0  0
   19.5959  -26.0744  -12.9185 N   0  0  0  0  0  0  0  0  0  0  0  0
   17.9055  -24.4355  -13.2060 C   0  0  0  0  0  0  0  0  0  0  0  0
   17.6929  -24.6828  -14.4353 O   0  0  0  0  0  0  0  0  0  0  0  0
   20.1370  -17.6213  -13.4200 N   0  0  0  0  0  0  0  0  0  0  0  0
   16.8215  -23.9180  -12.4702 C   0  0  2  0  0  0  0  0  0  0  0  0
   15.4806  -23.7031  -12.9852 C   0  0  0  0  0  0  0  0  0  0  0  0
   14.4330  -24.2130  -12.0641 C   0  0  0  0  0  0  0  0  0  0  0  0
   14.3268  -25.6828  -12.0646 C   0  0  0  0  0  0  0  0  0  0  0  0
   14.8981  -26.5780  -12.9494 N   0  0  0  0  0  0  0  0  0  0  0  0
   14.5457  -27.8291  -12.6233 C   0  0  0  0  0  0  0  0  0  0  0  0
   13.7584  -27.7608  -11.5466 N   0  0  0  0  0  0  0  0  0  0  0  0
   13.6181  -26.4654  -11.1984 C   0  0  0  0  0  0  0  0  0  0  0  0
   15.3437  -22.2530  -13.2169 O   0  0  0  0  0  0  0  0  0  0  0  0
   14.2736  -21.7203  -13.6715 O   0  0  0  0  0  0  0  0  0  0  0  0
  2  1  1  1
  3  2  1  0
  4  5  2  0
  4  2  1  0
  7  9  1  0
  7  6  1  0
  8  7  2  0
 10  9  1  0
 11 10  1  0
 11 12  1  0
 13 12  1  6
 13 14  1  0
 14  4  1  0
 15 13  1  0
 16 15  2  0
 17 15  1  0
 18 25  1  0
 18 17  1  0
 18 19  1  1
 20 19  1  0
 20 24  1  0
 21 20  2  0
 22 21  1  0
 22 23  1  0
 23 24  2  0
 25 27  1  0
 26 25  2  0
M  END
$$$$
