ARH.pdb
     RDKit          3D

 27 27  0  0  1  0  0  0  0  0999 V2000
   25.6586  -20.8581  -17.6240 C   0  0  0  0  0  0  0  0  0  0  0  0
   26.3469  -21.7203  -16.6038 C   0  0  2  0  0  0  0  0  0  0  0  0
   26.6198  -23.0212  -17.1835 N   0  0  0  0  0  0  0  0  0  0  0  0
   25.5228  -21.8473  -15.3736 C   0  0  0  0  0  0  0  0  0  0  0  0
   24.6174  -22.7112  -15.3389 O   0  0  0  0  0  0  0  0  0  0  0  0
   29.3909  -21.8839   -9.0305 N   0  0  0  0  0  0  0  0  0  0  0  0
   29.1803  -20.9028  -10.0525 C   0  0  0  0  0  0  0  0  0  0  0  0
   30.1568  -20.5907  -10.8345 N   0  0  0  0  0  0  0  0  0  0  0  0
   27.9275  -20.2807  -10.2106 N   0  0  0  0  0  0  0  0  0  0  0  0
   26.7004  -20.8557   -9.7123 C   0  0  0  0  0  0  0  0  0  0  0  0
   25.9409  -21.4418  -10.8434 C   0  0  0  0  0  0  0  0  0  0  0  0
   25.5793  -20.4719  -11.9287 C   0  0  0  0  0  0  0  0  0  0  0  0
   24.8315  -21.0821  -13.0706 C   0  0  2  0  0  0  0  0  0  0  0  0
   25.7178  -21.0307  -14.2347 N   0  0  0  0  0  0  0  0  0  0  0  0
   23.6216  -20.2814  -13.4158 C   0  0  0  0  0  0  0  0  0  0  0  0
   23.7111  -19.0315  -13.6332 O   0  0  0  0  0  0  0  0  0  0  0  0
   30.0239  -19.8773  -11.5778 N   0  0  0  0  0  0  0  0  0  0  0  0
   22.3366  -20.8490  -13.5192 C   0  0  2  0  0  0  0  0  0  0  0  0
   21.1263  -20.1323  -13.8811 C   0  0  0  0  0  0  0  0  0  0  0  0
   20.2395  -20.9310  -14.7652 C   0  0  0  0  0  0  0  0  0  0  0  0
   18.9931  -20.2302  -15.1211 C   0  0  0  0  0  0  0  0  0  0  0  0
   18.7746  -19.3617  -16.1740 N   0  0  0  0  0  0  0  0  0  0  0  0
   17.5109  -18.9170  -16.1436 C   0  0  0  0  0  0  0  0  0  0  0  0
   16.9084  -19.4798  -15.0928 N   0  0  0  0  0  0  0  0  0  0  0  0
   17.7961  -20.2777  -14.4650 C   0  0  0  0  0  0  0  0  0  0  0  0
   20.4549  -19.7709  -12.6186 O   0  0  0  0  0  0  0  0  0  0  0  0
   20.5686  -20.4625  -11.5490 O   0  0  0  0  0  0  0  0  0  0  0  0
  2  1  1  6
  3  2  1  0
  4  5  2  0
  4  2  1  0
  7  9  1  0
  7  6  1  0
  8  7  2  0
 10  9  1  0
 11 10  1  0
 11 12  1  0
 13 12  1  1
 13 14  1  0
 14  4  1  0
 15 13  1  0
 16 15  2  0
 17 15  1  0
 18 25  1  0
 18 17  1  0
 18 19  1  1
 20 19  1  0
 20 24  1  0
 21 20  2  0
 22 21  1  0
 22 23  1  0
 23 24  2  0
 25 27  1  0
 26 25  2  0
M  END
$$$$
