ARH.pdb
     RDKit          3D

 27 27  0  0  1  0  0  0  0  0999 V2000
   26.0258  -10.9582  -17.8430 C   0  0  0  0  0  0  0  0  0  0  0  0
   27.0962   -9.9038  -17.8187 C   0  0  2  0  0  0  0  0  0  0  0  0
   27.0703   -9.1677  -19.0678 N   0  0  0  0  0  0  0  0  0  0  0  0
   28.4328  -10.5100  -17.5849 C   0  0  0  0  0  0  0  0  0  0  0  0
   28.6471  -11.1024  -16.5031 O   0  0  0  0  0  0  0  0  0  0  0  0
   33.8812  -16.1617  -20.5066 N   0  0  0  0  0  0  0  0  0  0  0  0
   34.7537  -15.1612  -19.9689 C   0  0  0  0  0  0  0  0  0  0  0  0
   35.9982  -15.4450  -19.7869 N   0  0  0  0  0  0  0  0  0  0  0  0
   34.2698  -13.8810  -19.6397 N   0  0  0  0  0  0  0  0  0  0  0  0
   32.8984  -13.4839  -19.8553 C   0  0  0  0  0  0  0  0  0  0  0  0
   32.7351  -12.0614  -19.4686 C   0  0  0  0  0  0  0  0  0  0  0  0
   31.3288  -11.5457  -19.5443 C   0  0  0  0  0  0  0  0  0  0  0  0
   30.8200  -10.9653  -18.2639 C   0  0  2  0  0  0  0  0  0  0  0  0
   29.4784  -10.4466  -18.5361 N   0  0  0  0  0  0  0  0  0  0  0  0
   31.6492   -9.8050  -17.8275 C   0  0  0  0  0  0  0  0  0  0  0  0
   31.4400   -8.6435  -18.3013 O   0  0  0  0  0  0  0  0  0  0  0  0
   36.6188  -14.7785  -19.2870 N   0  0  0  0  0  0  0  0  0  0  0  0
   32.6900   -9.9240  -16.8858 C   0  0  2  0  0  0  0  0  0  0  0  0
   33.5433   -8.8394  -16.4327 C   0  0  0  0  0  0  0  0  0  0  0  0
   34.4495   -9.2555  -15.3320 C   0  0  0  0  0  0  0  0  0  0  0  0
   35.2857   -8.1542  -14.8226 C   0  0  0  0  0  0  0  0  0  0  0  0
   35.3320   -6.8452  -15.2639 N   0  0  0  0  0  0  0  0  0  0  0  0
   36.2380   -6.1571  -14.5559 C   0  0  0  0  0  0  0  0  0  0  0  0
   36.7783   -6.9944  -13.6665 N   0  0  0  0  0  0  0  0  0  0  0  0
   36.2095   -8.2078  -13.8182 C   0  0  0  0  0  0  0  0  0  0  0  0
   34.2963   -8.3726  -17.6117 O   0  0  0  0  0  0  0  0  0  0  0  0
   34.8814   -9.1700  -18.4224 O   0  0  0  0  0  0  0  0  0  0  0  0
  2  1  1  6
  3  2  1  0
  4  5  2  0
  4  2  1  0
  7  9  1  0
  7  6  1  0
  8  7  2  0
 10  9  1  0
 11 10  1  0
 11 12  1  0
 13 12  1  6
 13 14  1  0
 14  4  1  0
 15 13  1  0
 16 15  2  0
 17 15  1  0
 18 25  1  0
 18 17  1  0
 18 19  1  1
 20 19  1  0
 20 24  1  0
 21 20  2  0
 22 21  1  0
 22 23  1  0
 23 24  2  0
 25 27  1  0
 26 25  2  0
M  END
$$$$
