ARH.pdb
     RDKit          3D

 27 27  0  0  1  0  0  0  0  0999 V2000
   11.5795  -11.6588  -10.8926 C   0  0  0  0  0  0  0  0  0  0  0  0
   12.9285  -12.3088  -11.0178 C   0  0  2  0  0  0  0  0  0  0  0  0
   12.9007  -13.5985  -10.3556 N   0  0  0  0  0  0  0  0  0  0  0  0
   13.9910  -11.4399  -10.4480 C   0  0  0  0  0  0  0  0  0  0  0  0
   14.3158  -11.5898   -9.2483 O   0  0  0  0  0  0  0  0  0  0  0  0
   21.3662   -8.1420  -14.1774 N   0  0  0  0  0  0  0  0  0  0  0  0
   21.1851   -7.4892  -12.9155 C   0  0  0  0  0  0  0  0  0  0  0  0
   22.0846   -6.6640  -12.5003 N   0  0  0  0  0  0  0  0  0  0  0  0
   20.0436   -7.7375  -12.1301 N   0  0  0  0  0  0  0  0  0  0  0  0
   19.0089   -8.6639  -12.5251 C   0  0  0  0  0  0  0  0  0  0  0  0
   17.9535   -8.6907  -11.4833 C   0  0  0  0  0  0  0  0  0  0  0  0
   16.8097   -9.6175  -11.7695 C   0  0  0  0  0  0  0  0  0  0  0  0
   15.7884   -9.6841  -10.6796 C   0  0  2  0  0  0  0  0  0  0  0  0
   14.6546  -10.4462  -11.2058 N   0  0  0  0  0  0  0  0  0  0  0  0
   15.2726   -8.3275  -10.3366 C   0  0  0  0  0  0  0  0  0  0  0  0
   14.6512   -7.6320  -11.2013 O   0  0  0  0  0  0  0  0  0  0  0  0
   21.9933   -6.2171  -11.5669 N   0  0  0  0  0  0  0  0  0  0  0  0
   15.4390   -7.7488   -9.0633 C   0  0  2  0  0  0  0  0  0  0  0  0
   15.0117   -6.4137   -8.6829 C   0  0  0  0  0  0  0  0  0  0  0  0
   14.4528   -6.3697   -7.3075 C   0  0  0  0  0  0  0  0  0  0  0  0
   14.0011   -5.0249   -6.9086 C   0  0  0  0  0  0  0  0  0  0  0  0
   14.0868   -3.8487   -7.6295 N   0  0  0  0  0  0  0  0  0  0  0  0
   13.5833   -2.8358   -6.9109 C   0  0  0  0  0  0  0  0  0  0  0  0
   13.1744   -3.3332   -5.7407 N   0  0  0  0  0  0  0  0  0  0  0  0
   13.4223   -4.6588   -5.7271 C   0  0  0  0  0  0  0  0  0  0  0  0
   16.1895   -5.5370   -8.8209 O   0  0  0  0  0  0  0  0  0  0  0  0
   17.3560   -5.8724   -8.4181 O   0  0  0  0  0  0  0  0  0  0  0  0
  2  1  1  1
  3  2  1  0
  4  5  2  0
  4  2  1  0
  7  9  1  0
  7  6  1  0
  8  7  2  0
 10  9  1  0
 11 10  1  0
 11 12  1  0
 13 12  1  6
 13 14  1  0
 14  4  1  0
 15 13  1  0
 16 15  2  0
 17 15  1  0
 18 25  1  0
 18 17  1  0
 18 19  1  1
 20 19  1  0
 20 24  1  0
 21 20  2  0
 22 21  1  0
 22 23  1  0
 23 24  2  0
 25 27  1  0
 26 25  2  0
M  END
$$$$
