ARH.pdb
     RDKit          3D

 27 27  0  0  1  0  0  0  0  0999 V2000
   20.2549  -22.3031  -14.2465 C   0  0  0  0  0  0  0  0  0  0  0  0
   20.9485  -21.6521  -13.0832 C   0  0  2  0  0  0  0  0  0  0  0  0
   19.9884  -21.4255  -12.0204 N   0  0  0  0  0  0  0  0  0  0  0  0
   21.5966  -20.3801  -13.4961 C   0  0  0  0  0  0  0  0  0  0  0  0
   20.9394  -19.3168  -13.4281 O   0  0  0  0  0  0  0  0  0  0  0  0
   28.2184  -21.0850  -14.1496 N   0  0  0  0  0  0  0  0  0  0  0  0
   28.0232  -20.5069  -15.4454 C   0  0  0  0  0  0  0  0  0  0  0  0
   28.2725  -21.2154  -16.4934 N   0  0  0  0  0  0  0  0  0  0  0  0
   27.5656  -19.1831  -15.5851 N   0  0  0  0  0  0  0  0  0  0  0  0
   27.2956  -18.3255  -14.4553 C   0  0  0  0  0  0  0  0  0  0  0  0
   25.8327  -18.1068  -14.3466 C   0  0  0  0  0  0  0  0  0  0  0  0
   24.9936  -19.3238  -14.5994 C   0  0  0  0  0  0  0  0  0  0  0  0
   23.5216  -19.0860  -14.4895 C   0  0  2  0  0  0  0  0  0  0  0  0
   22.9302  -20.3182  -13.9649 N   0  0  0  0  0  0  0  0  0  0  0  0
   22.9091  -18.8514  -15.8289 C   0  0  0  0  0  0  0  0  0  0  0  0
   22.3764  -19.8084  -16.4753 O   0  0  0  0  0  0  0  0  0  0  0  0
   28.1290  -20.8153  -17.4413 N   0  0  0  0  0  0  0  0  0  0  0  0
   22.8846  -17.5844  -16.4439 C   0  0  1  0  0  0  0  0  0  0  0  0
   21.8705  -17.1194  -17.3739 C   0  0  0  0  0  0  0  0  0  0  0  0
   20.4982  -17.2343  -16.8176 C   0  0  0  0  0  0  0  0  0  0  0  0
   19.4563  -16.7540  -17.7424 C   0  0  0  0  0  0  0  0  0  0  0  0
   19.6163  -16.2561  -19.0218 N   0  0  0  0  0  0  0  0  0  0  0  0
   18.4257  -15.9053  -19.5268 C   0  0  0  0  0  0  0  0  0  0  0  0
   17.4998  -16.1659  -18.6001 N   0  0  0  0  0  0  0  0  0  0  0  0
   18.1118  -16.6805  -17.5140 C   0  0  0  0  0  0  0  0  0  0  0  0
   22.2090  -15.7228  -17.7056 O   0  0  0  0  0  0  0  0  0  0  0  0
   22.6441  -14.8891  -16.8391 O   0  0  0  0  0  0  0  0  0  0  0  0
  2  1  1  6
  3  2  1  0
  4  5  2  0
  4  2  1  0
  7  9  1  0
  7  6  1  0
  8  7  2  0
 10  9  1  0
 11 10  1  0
 11 12  1  0
 13 12  1  6
 13 14  1  0
 14  4  1  0
 15 13  1  0
 16 15  2  0
 17 15  1  0
 18 25  1  0
 18 17  1  0
 18 19  1  6
 20 19  1  0
 20 24  1  0
 21 20  2  0
 22 21  1  0
 22 23  1  0
 23 24  2  0
 25 27  1  0
 26 25  2  0
M  END
$$$$
