ARH.pdb
     RDKit          3D

 27 27  0  0  1  0  0  0  0  0999 V2000
   25.3953  -15.9942  -18.9684 C   0  0  0  0  0  0  0  0  0  0  0  0
   26.0122  -16.8921  -17.9334 C   0  0  2  0  0  0  0  0  0  0  0  0
   27.4132  -17.0928  -18.2490 N   0  0  0  0  0  0  0  0  0  0  0  0
   25.2915  -18.1896  -17.8591 C   0  0  0  0  0  0  0  0  0  0  0  0
   24.3004  -18.3740  -18.6013 O   0  0  0  0  0  0  0  0  0  0  0  0
   29.4897  -25.3155  -16.5220 N   0  0  0  0  0  0  0  0  0  0  0  0
   28.0601  -25.2415  -16.4762 C   0  0  0  0  0  0  0  0  0  0  0  0
   27.3872  -26.2898  -16.1434 N   0  0  0  0  0  0  0  0  0  0  0  0
   27.3876  -24.0450  -16.7883 N   0  0  0  0  0  0  0  0  0  0  0  0
   28.0802  -22.8216  -17.1177 C   0  0  0  0  0  0  0  0  0  0  0  0
   27.0901  -21.7926  -17.5188 C   0  0  0  0  0  0  0  0  0  0  0  0
   26.0052  -21.5377  -16.5152 C   0  0  0  0  0  0  0  0  0  0  0  0
   24.9951  -20.5247  -16.9498 C   0  0  2  0  0  0  0  0  0  0  0  0
   25.6784  -19.2304  -16.9820 N   0  0  0  0  0  0  0  0  0  0  0  0
   23.8887  -20.4022  -15.9573 C   0  0  0  0  0  0  0  0  0  0  0  0
   24.0976  -19.8874  -14.8132 O   0  0  0  0  0  0  0  0  0  0  0  0
   26.3505  -26.2503  -16.0894 N   0  0  0  0  0  0  0  0  0  0  0  0
   22.5762  -20.8394  -16.2220 C   0  0  1  0  0  0  0  0  0  0  0  0
   21.4373  -20.6686  -15.3369 C   0  0  0  0  0  0  0  0  0  0  0  0
   20.4965  -19.6264  -15.8213 C   0  0  0  0  0  0  0  0  0  0  0  0
   20.4016  -18.4665  -14.9173 C   0  0  0  0  0  0  0  0  0  0  0  0
   20.9580  -18.3177  -13.6608 N   0  0  0  0  0  0  0  0  0  0  0  0
   20.6233  -17.1240  -13.1523 C   0  0  0  0  0  0  0  0  0  0  0  0
   19.8618  -16.4985  -14.0540 N   0  0  0  0  0  0  0  0  0  0  0  0
   19.7201  -17.3019  -15.1279 C   0  0  0  0  0  0  0  0  0  0  0  0
   20.7832  -21.9861  -15.2298 O   0  0  0  0  0  0  0  0  0  0  0  0
   19.9481  -22.2737  -14.3051 O   0  0  0  0  0  0  0  0  0  0  0  0
  2  1  1  6
  3  2  1  0
  4  5  2  0
  4  2  1  0
  7  9  1  0
  7  6  1  0
  8  7  2  0
 10  9  1  0
 11 10  1  0
 11 12  1  0
 13 12  1  1
 13 14  1  0
 14  4  1  0
 15 13  1  0
 16 15  2  0
 17 15  1  0
 18 25  1  0
 18 17  1  0
 18 19  1  6
 20 19  1  0
 20 24  1  0
 21 20  2  0
 22 21  1  0
 22 23  1  0
 23 24  2  0
 25 27  1  0
 26 25  2  0
M  END
$$$$
