ARH.pdb
     RDKit          3D

 27 27  0  0  1  0  0  0  0  0999 V2000
   27.5771  -10.3545  -15.2294 C   0  0  0  0  0  0  0  0  0  0  0  0
   26.8026  -11.3995  -15.9818 C   0  0  2  0  0  0  0  0  0  0  0  0
   27.6501  -11.9764  -17.0073 N   0  0  0  0  0  0  0  0  0  0  0  0
   25.5681  -10.8213  -16.5737 C   0  0  0  0  0  0  0  0  0  0  0  0
   25.6378  -10.2635  -17.6922 O   0  0  0  0  0  0  0  0  0  0  0  0
   17.1700  -13.5598  -16.9243 N   0  0  0  0  0  0  0  0  0  0  0  0
   17.1900  -12.1829  -17.3183 C   0  0  0  0  0  0  0  0  0  0  0  0
   16.0953  -11.6259  -17.7106 N   0  0  0  0  0  0  0  0  0  0  0  0
   18.3834  -11.4375  -17.2817 N   0  0  0  0  0  0  0  0  0  0  0  0
   19.6317  -11.9827  -16.8028 C   0  0  0  0  0  0  0  0  0  0  0  0
   20.6802  -10.9358  -16.8708 C   0  0  0  0  0  0  0  0  0  0  0  0
   22.0268  -11.3595  -16.3643 C   0  0  0  0  0  0  0  0  0  0  0  0
   23.0944  -10.3254  -16.5256 C   0  0  2  0  0  0  0  0  0  0  0  0
   24.3116  -10.8742  -15.9252 N   0  0  0  0  0  0  0  0  0  0  0  0
   22.7644   -9.0831  -15.7694 C   0  0  0  0  0  0  0  0  0  0  0  0
   22.7096   -9.0924  -14.4988 O   0  0  0  0  0  0  0  0  0  0  0  0
   16.0989  -10.6408  -18.0405 N   0  0  0  0  0  0  0  0  0  0  0  0
   22.4996   -7.8533  -16.4030 C   0  0  2  0  0  0  0  0  0  0  0  0
   22.0214   -6.6515  -15.7422 C   0  0  0  0  0  0  0  0  0  0  0  0
   22.9852   -5.5265  -15.8485 C   0  0  0  0  0  0  0  0  0  0  0  0
   22.4508   -4.2550  -15.3296 C   0  0  0  0  0  0  0  0  0  0  0  0
   22.3584   -3.8435  -14.0133 N   0  0  0  0  0  0  0  0  0  0  0  0
   21.7935   -2.6298  -13.9535 C   0  0  0  0  0  0  0  0  0  0  0  0
   21.5186   -2.2488  -15.2039 N   0  0  0  0  0  0  0  0  0  0  0  0
   21.9121   -3.2252  -16.0469 C   0  0  0  0  0  0  0  0  0  0  0  0
   20.7238   -6.3176  -16.3586 O   0  0  0  0  0  0  0  0  0  0  0  0
   20.5129   -6.3935  -17.6176 O   0  0  0  0  0  0  0  0  0  0  0  0
  2  1  1  6
  3  2  1  0
  4  5  2  0
  4  2  1  0
  7  9  1  0
  7  6  1  0
  8  7  2  0
 10  9  1  0
 11 10  1  0
 11 12  1  0
 13 12  1  1
 13 14  1  0
 14  4  1  0
 15 13  1  0
 16 15  2  0
 17 15  1  0
 18 25  1  0
 18 17  1  0
 18 19  1  6
 20 19  1  0
 20 24  1  0
 21 20  2  0
 22 21  1  0
 22 23  1  0
 23 24  2  0
 25 27  1  0
 26 25  2  0
M  END
$$$$
