ARH.pdb
     RDKit          3D

 27 27  0  0  1  0  0  0  0  0999 V2000
   21.9692   -4.7003  -16.0899 C   0  0  0  0  0  0  0  0  0  0  0  0
   21.5244   -4.4432  -14.6777 C   0  0  2  0  0  0  0  0  0  0  0  0
   22.6581   -3.9913  -13.8945 N   0  0  0  0  0  0  0  0  0  0  0  0
   20.9173   -5.6620  -14.0824 C   0  0  0  0  0  0  0  0  0  0  0  0
   21.6697   -6.5825  -13.6903 O   0  0  0  0  0  0  0  0  0  0  0  0
   14.0755   -6.6877   -8.5567 N   0  0  0  0  0  0  0  0  0  0  0  0
   14.5637   -7.9632   -8.9882 C   0  0  0  0  0  0  0  0  0  0  0  0
   13.9447   -9.0314   -8.6163 N   0  0  0  0  0  0  0  0  0  0  0  0
   15.7039   -8.0615   -9.8078 N   0  0  0  0  0  0  0  0  0  0  0  0
   16.0439   -7.0664  -10.7973 C   0  0  0  0  0  0  0  0  0  0  0  0
   17.2804   -7.4820  -11.5032 C   0  0  0  0  0  0  0  0  0  0  0  0
   17.6786   -6.5991  -12.6483 C   0  0  0  0  0  0  0  0  0  0  0  0
   18.9283   -7.0297  -13.3472 C   0  0  2  0  0  0  0  0  0  0  0  0
   19.5194   -5.8282  -13.9390 N   0  0  0  0  0  0  0  0  0  0  0  0
   18.6265   -7.9597  -14.4733 C   0  0  0  0  0  0  0  0  0  0  0  0
   18.0385   -7.5413  -15.5205 O   0  0  0  0  0  0  0  0  0  0  0  0
   14.2919   -9.9657   -8.9092 N   0  0  0  0  0  0  0  0  0  0  0  0
   18.9671   -9.3262  -14.4446 C   0  0  2  0  0  0  0  0  0  0  0  0
   18.7150  -10.2792  -15.5114 C   0  0  0  0  0  0  0  0  0  0  0  0
   19.9517  -10.9722  -15.9540 C   0  0  0  0  0  0  0  0  0  0  0  0
   19.7147  -11.9474  -17.0330 C   0  0  0  0  0  0  0  0  0  0  0  0
   18.5347  -12.2039  -17.7056 N   0  0  0  0  0  0  0  0  0  0  0  0
   18.7248  -13.1796  -18.6042 C   0  0  0  0  0  0  0  0  0  0  0  0
   20.0030  -13.5593  -18.5258 N   0  0  0  0  0  0  0  0  0  0  0  0
   20.6133  -12.8200  -17.5773 C   0  0  0  0  0  0  0  0  0  0  0  0
   17.7103  -11.2303  -15.0004 O   0  0  0  0  0  0  0  0  0  0  0  0
   17.7472  -11.7095  -13.8153 O   0  0  0  0  0  0  0  0  0  0  0  0
  2  1  1  6
  3  2  1  0
  4  5  2  0
  4  2  1  0
  7  9  1  0
  7  6  1  0
  8  7  2  0
 10  9  1  0
 11 10  1  0
 11 12  1  0
 13 12  1  6
 13 14  1  0
 14  4  1  0
 15 13  1  0
 16 15  2  0
 17 15  1  0
 18 25  1  0
 18 17  1  0
 18 19  1  1
 20 19  1  0
 20 24  1  0
 21 20  2  0
 22 21  1  0
 22 23  1  0
 23 24  2  0
 25 27  1  0
 26 25  2  0
M  END
$$$$
