ARH.pdb
     RDKit          3D

 27 27  0  0  1  0  0  0  0  0999 V2000
   13.0790  -21.6102   -1.9805 C   0  0  0  0  0  0  0  0  0  0  0  0
   12.9048  -21.9622   -3.4309 C   0  0  2  0  0  0  0  0  0  0  0  0
   11.4905  -21.9887   -3.7497 N   0  0  0  0  0  0  0  0  0  0  0  0
   13.5456  -23.2667   -3.7410 C   0  0  0  0  0  0  0  0  0  0  0  0
   13.2831  -24.2558   -3.0198 O   0  0  0  0  0  0  0  0  0  0  0  0
   18.3303  -24.8600  -10.7393 N   0  0  0  0  0  0  0  0  0  0  0  0
   17.8298  -23.9002   -9.8015 C   0  0  0  0  0  0  0  0  0  0  0  0
   17.8717  -22.6471  -10.1023 N   0  0  0  0  0  0  0  0  0  0  0  0
   17.2969  -24.3080   -8.5642 N   0  0  0  0  0  0  0  0  0  0  0  0
   17.1836  -25.6954   -8.1805 C   0  0  0  0  0  0  0  0  0  0  0  0
   16.5791  -25.7808   -6.8288 C   0  0  0  0  0  0  0  0  0  0  0  0
   15.7259  -24.6083   -6.4455 C   0  0  0  0  0  0  0  0  0  0  0  0
   15.1194  -24.7123   -5.0829 C   0  0  2  0  0  0  0  0  0  0  0  0
   14.4435  -23.4404   -4.8207 N   0  0  0  0  0  0  0  0  0  0  0  0
   16.1676  -24.8666   -4.0334 C   0  0  0  0  0  0  0  0  0  0  0  0
   16.9339  -23.8966   -3.7343 O   0  0  0  0  0  0  0  0  0  0  0  0
   17.4695  -21.9404   -9.4557 N   0  0  0  0  0  0  0  0  0  0  0  0
   16.3669  -26.0688   -3.3269 C   0  0  1  0  0  0  0  0  0  0  0  0
   17.3440  -26.2731   -2.2719 C   0  0  0  0  0  0  0  0  0  0  0  0
   16.7890  -27.0418   -1.1287 C   0  0  0  0  0  0  0  0  0  0  0  0
   15.9940  -26.2132   -0.2051 C   0  0  0  0  0  0  0  0  0  0  0  0
   15.7348  -24.8578   -0.2846 N   0  0  0  0  0  0  0  0  0  0  0  0
   14.9893  -24.4740    0.7606 C   0  0  0  0  0  0  0  0  0  0  0  0
   14.7617  -25.5531    1.5140 N   0  0  0  0  0  0  0  0  0  0  0  0
   15.3654  -26.6134    0.9395 C   0  0  0  0  0  0  0  0  0  0  0  0
   18.4926  -26.9643   -2.8870 O   0  0  0  0  0  0  0  0  0  0  0  0
   18.4533  -27.4647   -4.0631 O   0  0  0  0  0  0  0  0  0  0  0  0
  2  1  1  1
  3  2  1  0
  4  5  2  0
  4  2  1  0
  7  9  1  0
  7  6  1  0
  8  7  2  0
 10  9  1  0
 11 10  1  0
 11 12  1  0
 13 12  1  6
 13 14  1  0
 14  4  1  0
 15 13  1  0
 16 15  2  0
 17 15  1  0
 18 25  1  0
 18 17  1  0
 18 19  1  1
 20 19  1  0
 20 24  1  0
 21 20  2  0
 22 21  1  0
 22 23  1  0
 23 24  2  0
 25 27  1  0
 26 25  2  0
M  END
$$$$
