ARH.pdb
     RDKit          3D

 27 27  0  0  1  0  0  0  0  0999 V2000
   30.6985  -28.6049  -20.0544 C   0  0  0  0  0  0  0  0  0  0  0  0
   31.0632  -28.8990  -18.6266 C   0  0  2  0  0  0  0  0  0  0  0  0
   30.2347  -29.9831  -18.1354 N   0  0  0  0  0  0  0  0  0  0  0  0
   30.9121  -27.6870  -17.7799 C   0  0  0  0  0  0  0  0  0  0  0  0
   29.8978  -27.5790  -17.0543 O   0  0  0  0  0  0  0  0  0  0  0  0
   34.7365  -25.0338  -12.9342 N   0  0  0  0  0  0  0  0  0  0  0  0
   35.8596  -25.6987  -13.5240 C   0  0  0  0  0  0  0  0  0  0  0  0
   36.5549  -26.5137  -12.8065 N   0  0  0  0  0  0  0  0  0  0  0  0
   36.2093  -25.4731  -14.8687 N   0  0  0  0  0  0  0  0  0  0  0  0
   35.3614  -24.7493  -15.7864 C   0  0  0  0  0  0  0  0  0  0  0  0
   34.0282  -25.3974  -15.8344 C   0  0  0  0  0  0  0  0  0  0  0  0
   33.0822  -24.8174  -16.8433 C   0  0  0  0  0  0  0  0  0  0  0  0
   31.7430  -25.4813  -16.8791 C   0  0  2  0  0  0  0  0  0  0  0  0
   31.8692  -26.6451  -17.7582 N   0  0  0  0  0  0  0  0  0  0  0  0
   30.7131  -24.5915  -17.4888 C   0  0  0  0  0  0  0  0  0  0  0  0
   30.7262  -24.3440  -18.7363 O   0  0  0  0  0  0  0  0  0  0  0  0
   37.3855  -26.9887  -13.2112 N   0  0  0  0  0  0  0  0  0  0  0  0
   29.6877  -23.9861  -16.7365 C   0  0  2  0  0  0  0  0  0  0  0  0
   28.6018  -23.1900  -17.2810 C   0  0  0  0  0  0  0  0  0  0  0  0
   27.4646  -23.0627  -16.3342 C   0  0  0  0  0  0  0  0  0  0  0  0
   26.6332  -24.2772  -16.2610 C   0  0  0  0  0  0  0  0  0  0  0  0
   26.7864  -25.4582  -16.9625 N   0  0  0  0  0  0  0  0  0  0  0  0
   25.8120  -26.3159  -16.6299 C   0  0  0  0  0  0  0  0  0  0  0  0
   25.0323  -25.7134  -15.7282 N   0  0  0  0  0  0  0  0  0  0  0  0
   25.5194  -24.4774  -15.4963 C   0  0  0  0  0  0  0  0  0  0  0  0
   29.1732  -21.8749  -17.6265 O   0  0  0  0  0  0  0  0  0  0  0  0
   30.2073  -21.3936  -17.0485 O   0  0  0  0  0  0  0  0  0  0  0  0
  2  1  1  6
  3  2  1  0
  4  5  2  0
  4  2  1  0
  7  9  1  0
  7  6  1  0
  8  7  2  0
 10  9  1  0
 11 10  1  0
 11 12  1  0
 13 12  1  6
 13 14  1  0
 14  4  1  0
 15 13  1  0
 16 15  2  0
 17 15  1  0
 18 25  1  0
 18 17  1  0
 18 19  1  6
 20 19  1  0
 20 24  1  0
 21 20  2  0
 22 21  1  0
 22 23  1  0
 23 24  2  0
 25 27  1  0
 26 25  2  0
M  END
$$$$
