ARH.pdb
     RDKit          3D

 27 27  0  0  1  0  0  0  0  0999 V2000
   44.8648   -7.4249  -12.7722 C   0  0  0  0  0  0  0  0  0  0  0  0
   44.9566   -8.3697  -11.6073 C   0  0  2  0  0  0  0  0  0  0  0  0
   46.0155   -9.3295  -11.8528 N   0  0  0  0  0  0  0  0  0  0  0  0
   43.6585   -9.0555  -11.3768 C   0  0  0  0  0  0  0  0  0  0  0  0
   43.4857  -10.1993  -11.8555 O   0  0  0  0  0  0  0  0  0  0  0  0
   36.6893   -7.6369   -5.6376 N   0  0  0  0  0  0  0  0  0  0  0  0
   36.8744   -9.0021   -6.0293 C   0  0  0  0  0  0  0  0  0  0  0  0
   36.2968   -9.9341   -5.3508 N   0  0  0  0  0  0  0  0  0  0  0  0
   37.6743   -9.3339   -7.1390 N   0  0  0  0  0  0  0  0  0  0  0  0
   38.9403   -8.6944   -7.4097 C   0  0  0  0  0  0  0  0  0  0  0  0
   39.5171   -9.2599   -8.6536 C   0  0  0  0  0  0  0  0  0  0  0  0
   40.8224   -8.6532   -9.0749 C   0  0  0  0  0  0  0  0  0  0  0  0
   41.3437   -9.1671  -10.3785 C   0  0  2  0  0  0  0  0  0  0  0  0
   42.6046   -8.4695  -10.6365 N   0  0  0  0  0  0  0  0  0  0  0  0
   40.4251   -8.8247  -11.5024 C   0  0  0  0  0  0  0  0  0  0  0  0
   40.3601   -7.6351  -11.9477 O   0  0  0  0  0  0  0  0  0  0  0  0
   36.4624  -10.9321   -5.5871 N   0  0  0  0  0  0  0  0  0  0  0  0
   39.5936   -9.7769  -12.1237 C   0  0  2  0  0  0  0  0  0  0  0  0
   38.6535   -9.5016  -13.1960 C   0  0  0  0  0  0  0  0  0  0  0  0
   37.9762  -10.7304  -13.6831 C   0  0  0  0  0  0  0  0  0  0  0  0
   36.9716  -10.4628  -14.7274 C   0  0  0  0  0  0  0  0  0  0  0  0
   36.5968   -9.2420  -15.2564 N   0  0  0  0  0  0  0  0  0  0  0  0
   35.6342   -9.4179  -16.1719 C   0  0  0  0  0  0  0  0  0  0  0  0
   35.3789  -10.7269  -16.2451 N   0  0  0  0  0  0  0  0  0  0  0  0
   36.1829  -11.3708  -15.3746 C   0  0  0  0  0  0  0  0  0  0  0  0
   37.6876   -8.5189  -12.6701 O   0  0  0  0  0  0  0  0  0  0  0  0
   37.2189   -8.5734  -11.4816 O   0  0  0  0  0  0  0  0  0  0  0  0
  2  1  1  6
  3  2  1  0
  4  5  2  0
  4  2  1  0
  7  9  1  0
  7  6  1  0
  8  7  2  0
 10  9  1  0
 11 10  1  0
 11 12  1  0
 13 12  1  1
 13 14  1  0
 14  4  1  0
 15 13  1  0
 16 15  2  0
 17 15  1  0
 18 25  1  0
 18 17  1  0
 18 19  1  1
 20 19  1  0
 20 24  1  0
 21 20  2  0
 22 21  1  0
 22 23  1  0
 23 24  2  0
 25 27  1  0
 26 25  2  0
M  END
$$$$
