FCE.pdb
     RDKit          3D

 27 27  0  0  1  0  0  0  0  0999 V2000
   25.7177  -21.2369  -10.7577 N   0  0  0  0  0  0  0  0  0  0  0  0
   25.1242  -20.7557  -11.9641 C   0  0  1  0  0  0  0  0  0  0  0  0
   25.6503  -21.5927  -13.1400 C   0  0  0  0  0  0  0  0  0  0  0  0
   26.5434  -20.6971  -13.9223 C   0  0  0  0  0  0  0  0  0  0  0  0
   25.9995  -19.7760  -14.8135 C   0  0  0  0  0  0  0  0  0  0  0  0
   26.8173  -18.9389  -15.5377 C   0  0  0  0  0  0  0  0  0  0  0  0
   28.1920  -18.9717  -15.4174 C   0  0  0  0  0  0  0  0  0  0  0  0
   28.7455  -19.8751  -14.5420 C   0  0  0  0  0  0  0  0  0  0  0  0
   27.9131  -20.7217  -13.8100 C   0  0  0  0  0  0  0  0  0  0  0  0
   23.6608  -20.7773  -11.8607 C   0  0  0  0  0  0  0  0  0  0  0  0
   23.0815  -21.5444  -11.0479 O   0  0  0  0  0  0  0  0  0  0  0  0
   22.8400  -19.9627  -12.6468 N   0  0  0  0  0  0  0  0  0  0  0  0
   21.4064  -19.8608  -12.5139 C   0  0  1  0  0  0  0  0  0  0  0  0
   20.8645  -18.4857  -12.4192 C   0  0  0  0  0  0  0  0  0  0  0  0
   19.7849  -18.2099  -10.9972 S   0  0  0  0  0  0  0  0  0  0  0  0
   20.8263  -20.5070  -13.7422 C   0  0  0  0  0  0  0  0  0  0  0  0
   21.3593  -20.3372  -14.8923 O   0  0  0  0  0  0  0  0  0  0  0  0
   19.6804  -21.3343  -13.7218 N   0  0  0  0  0  0  0  0  0  0  0  0
   19.3622  -22.2101  -14.8686 C   0  0  1  0  0  0  0  0  0  0  0  0
   19.9925  -23.5685  -14.6460 C   0  0  0  0  0  0  0  0  0  0  0  0
   19.6978  -24.5697  -15.7161 C   0  0  0  0  0  0  0  0  0  0  0  0
   18.6854  -25.5724  -15.2908 C   0  0  0  0  0  0  0  0  0  0  0  0
   17.5859  -25.6047  -15.9205 O   0  0  0  0  0  0  0  0  0  0  0  0
   17.9090  -22.2372  -15.0080 C   0  0  0  0  0  0  0  0  0  0  0  0
   17.2479  -22.4187  -16.2255 O   0  0  0  0  0  0  0  0  0  0  0  0
   18.8725  -26.4759  -14.2488 O   0  0  0  0  0  0  0  0  0  0  0  0
   17.1758  -22.0928  -14.0030 O   0  0  0  0  0  0  0  0  0  0  0  0
  2  1  1  1
  2 10  1  0
  3  2  1  0
  4  3  1  0
  5  4  2  0
  6  5  1  0
  7  8  1  0
  7  6  2  0
  8  9  2  0
  9  4  1  0
 10 11  2  0
 10 12  1  0
 12 13  1  0
 13 14  1  6
 15 14  1  0
 16 13  1  0
 16 17  2  0
 18 16  1  0
 19 18  1  0
 19 20  1  1
 21 20  1  0
 22 23  2  0
 22 21  1  0
 24 19  1  0
 25 24  1  0
 26 22  1  0
 27 24  2  0
M  END
$$$$
