FCE.pdb
     RDKit          3D

 27 27  0  0  1  0  0  0  0  0999 V2000
   19.6859  -11.2092  -14.9696 N   0  0  0  0  0  0  0  0  0  0  0  0
   19.6205  -10.1975  -13.9640 C   0  0  1  0  0  0  0  0  0  0  0  0
   20.5215   -9.0263  -14.3841 C   0  0  0  0  0  0  0  0  0  0  0  0
   21.9143   -9.5475  -14.3740 C   0  0  0  0  0  0  0  0  0  0  0  0
   22.6161   -9.6837  -15.5686 C   0  0  0  0  0  0  0  0  0  0  0  0
   23.9074  -10.1597  -15.5690 C   0  0  0  0  0  0  0  0  0  0  0  0
   24.5574  -10.5185  -14.4054 C   0  0  0  0  0  0  0  0  0  0  0  0
   23.8791  -10.3902  -13.2171 C   0  0  0  0  0  0  0  0  0  0  0  0
   22.5704   -9.9075  -13.2211 C   0  0  0  0  0  0  0  0  0  0  0  0
   18.2296   -9.7907  -13.7343 C   0  0  0  0  0  0  0  0  0  0  0  0
   17.3542   -9.9499  -14.6248 O   0  0  0  0  0  0  0  0  0  0  0  0
   17.8046   -9.2114  -12.5348 N   0  0  0  0  0  0  0  0  0  0  0  0
   16.4610   -8.7570  -12.2672 C   0  0  1  0  0  0  0  0  0  0  0  0
   15.8451   -9.2665  -11.0203 C   0  0  0  0  0  0  0  0  0  0  0  0
   17.0317   -9.8755   -9.8018 S   0  0  0  0  0  0  0  0  0  0  0  0
   16.5389   -7.2579  -12.1701 C   0  0  0  0  0  0  0  0  0  0  0  0
   17.6118   -6.6754  -11.7887 O   0  0  0  0  0  0  0  0  0  0  0  0
   15.4633   -6.3980  -12.4886 N   0  0  0  0  0  0  0  0  0  0  0  0
   15.6895   -4.9528  -12.6974 C   0  0  1  0  0  0  0  0  0  0  0  0
   16.7773   -4.7650  -13.7335 C   0  0  0  0  0  0  0  0  0  0  0  0
   17.0119   -3.3438  -14.1330 C   0  0  0  0  0  0  0  0  0  0  0  0
   17.9530   -3.2249  -15.2782 C   0  0  0  0  0  0  0  0  0  0  0  0
   18.3711   -4.2957  -15.8122 O   0  0  0  0  0  0  0  0  0  0  0  0
   14.4063   -4.3570  -13.0581 C   0  0  0  0  0  0  0  0  0  0  0  0
   14.1202   -2.9946  -12.9376 O   0  0  0  0  0  0  0  0  0  0  0  0
   18.3988   -2.0136  -15.7989 O   0  0  0  0  0  0  0  0  0  0  0  0
   13.4813   -5.0733  -13.5049 O   0  0  0  0  0  0  0  0  0  0  0  0
  2  1  1  6
  2 10  1  0
  3  2  1  0
  4  3  1  0
  5  4  2  0
  6  5  1  0
  7  8  1  0
  7  6  2  0
  8  9  2  0
  9  4  1  0
 10 11  2  0
 10 12  1  0
 12 13  1  0
 13 14  1  1
 15 14  1  0
 16 13  1  0
 16 17  2  0
 18 16  1  0
 19 18  1  0
 19 20  1  6
 21 20  1  0
 22 23  2  0
 22 21  1  0
 24 19  1  0
 25 24  1  0
 26 22  1  0
 27 24  2  0
M  END
$$$$
