FCE.pdb
     RDKit          3D

 27 27  0  0  1  0  0  0  0  0999 V2000
   27.8993  -21.4986  -15.6422 N   0  0  0  0  0  0  0  0  0  0  0  0
   27.2438  -20.4390  -14.9444 C   0  0  1  0  0  0  0  0  0  0  0  0
   26.5846  -19.5063  -15.9718 C   0  0  0  0  0  0  0  0  0  0  0  0
   27.6907  -18.7536  -16.6212 C   0  0  0  0  0  0  0  0  0  0  0  0
   28.3661  -17.7610  -15.9163 C   0  0  0  0  0  0  0  0  0  0  0  0
   29.3948  -17.0629  -16.5066 C   0  0  0  0  0  0  0  0  0  0  0  0
   29.7994  -17.3091  -17.8031 C   0  0  0  0  0  0  0  0  0  0  0  0
   29.1433  -18.2859  -18.5133 C   0  0  0  0  0  0  0  0  0  0  0  0
   28.1012  -18.9909  -17.9113 C   0  0  0  0  0  0  0  0  0  0  0  0
   26.2877  -20.9791  -13.9712 C   0  0  0  0  0  0  0  0  0  0  0  0
   25.5553  -21.9610  -14.2612 O   0  0  0  0  0  0  0  0  0  0  0  0
   26.1367  -20.4423  -12.6890 N   0  0  0  0  0  0  0  0  0  0  0  0
   25.2260  -20.9411  -11.6865 C   0  0  1  0  0  0  0  0  0  0  0  0
   25.4704  -20.4711  -10.3033 C   0  0  0  0  0  0  0  0  0  0  0  0
   26.9776  -21.1257   -9.5526 S   0  0  0  0  0  0  0  0  0  0  0  0
   23.8556  -20.4794  -12.1005 C   0  0  0  0  0  0  0  0  0  0  0  0
   23.6338  -19.2567  -12.4030 O   0  0  0  0  0  0  0  0  0  0  0  0
   22.7364  -21.3381  -12.1902 N   0  0  0  0  0  0  0  0  0  0  0  0
   21.4444  -20.8414  -12.7072 C   0  0  1  0  0  0  0  0  0  0  0  0
   20.7646  -21.9456  -13.4886 C   0  0  0  0  0  0  0  0  0  0  0  0
   19.3972  -21.6008  -13.9843 C   0  0  0  0  0  0  0  0  0  0  0  0
   18.8008  -22.6882  -14.8047 C   0  0  0  0  0  0  0  0  0  0  0  0
   19.5118  -23.7121  -15.0343 O   0  0  0  0  0  0  0  0  0  0  0  0
   20.6761  -20.3516  -11.5663 C   0  0  0  0  0  0  0  0  0  0  0  0
   19.7658  -19.2941  -11.6382 O   0  0  0  0  0  0  0  0  0  0  0  0
   17.5130  -22.6510  -15.3315 O   0  0  0  0  0  0  0  0  0  0  0  0
   20.8116  -20.8820  -10.4398 O   0  0  0  0  0  0  0  0  0  0  0  0
  2  1  1  6
  2 10  1  0
  3  2  1  0
  4  3  1  0
  5  4  2  0
  6  5  1  0
  7  8  1  0
  7  6  2  0
  8  9  2  0
  9  4  1  0
 10 11  2  0
 10 12  1  0
 12 13  1  0
 13 14  1  1
 15 14  1  0
 16 13  1  0
 16 17  2  0
 18 16  1  0
 19 18  1  0
 19 20  1  1
 21 20  1  0
 22 23  2  0
 22 21  1  0
 24 19  1  0
 25 24  1  0
 26 22  1  0
 27 24  2  0
M  END
$$$$
