FCE.pdb
     RDKit          3D

 27 27  0  0  1  0  0  0  0  0999 V2000
   20.8301  -12.0939  -17.8084 N   0  0  0  0  0  0  0  0  0  0  0  0
   21.6287  -10.9248  -17.6223 C   0  0  1  0  0  0  0  0  0  0  0  0
   21.9566  -10.3278  -18.9993 C   0  0  0  0  0  0  0  0  0  0  0  0
   22.7560  -11.3547  -19.7190 C   0  0  0  0  0  0  0  0  0  0  0  0
   22.2159  -12.0120  -20.8210 C   0  0  0  0  0  0  0  0  0  0  0  0
   22.9498  -12.9597  -21.4972 C   0  0  0  0  0  0  0  0  0  0  0  0
   24.2343  -13.2981  -21.1219 C   0  0  0  0  0  0  0  0  0  0  0  0
   24.7828  -12.6587  -20.0360 C   0  0  0  0  0  0  0  0  0  0  0  0
   24.0355  -11.6989  -19.3535 C   0  0  0  0  0  0  0  0  0  0  0  0
   20.9474   -9.9729  -16.7376 C   0  0  0  0  0  0  0  0  0  0  0  0
   19.7541   -9.6331  -16.9501 O   0  0  0  0  0  0  0  0  0  0  0  0
   21.5743   -9.3973  -15.6282 N   0  0  0  0  0  0  0  0  0  0  0  0
   20.9590   -8.4481  -14.7317 C   0  0  1  0  0  0  0  0  0  0  0  0
   21.4598   -8.4605  -13.3379 C   0  0  0  0  0  0  0  0  0  0  0  0
   20.4821   -9.4751  -12.2072 S   0  0  0  0  0  0  0  0  0  0  0  0
   21.2314   -7.0877  -15.3129 C   0  0  0  0  0  0  0  0  0  0  0  0
   22.3629   -6.8089  -15.8399 O   0  0  0  0  0  0  0  0  0  0  0  0
   20.2825   -6.0402  -15.3264 N   0  0  0  0  0  0  0  0  0  0  0  0
   20.5938   -4.7490  -15.9738 C   0  0  1  0  0  0  0  0  0  0  0  0
   19.3051   -4.0991  -16.4312 C   0  0  0  0  0  0  0  0  0  0  0  0
   19.4849   -2.7789  -17.1087 C   0  0  0  0  0  0  0  0  0  0  0  0
   18.1916   -2.1754  -17.5263 C   0  0  0  0  0  0  0  0  0  0  0  0
   17.8902   -1.0390  -17.0526 O   0  0  0  0  0  0  0  0  0  0  0  0
   21.3616   -3.9549  -15.0189 C   0  0  0  0  0  0  0  0  0  0  0  0
   22.3502   -3.0386  -15.3867 O   0  0  0  0  0  0  0  0  0  0  0  0
   17.2966   -2.7795  -18.4045 O   0  0  0  0  0  0  0  0  0  0  0  0
   21.1536   -4.0720  -13.7894 O   0  0  0  0  0  0  0  0  0  0  0  0
  2  1  1  6
  2 10  1  0
  3  2  1  0
  4  3  1  0
  5  4  2  0
  6  5  1  0
  7  8  1  0
  7  6  2  0
  8  9  2  0
  9  4  1  0
 10 11  2  0
 10 12  1  0
 12 13  1  0
 13 14  1  1
 15 14  1  0
 16 13  1  0
 16 17  2  0
 18 16  1  0
 19 18  1  0
 19 20  1  1
 21 20  1  0
 22 23  2  0
 22 21  1  0
 24 19  1  0
 25 24  1  0
 26 22  1  0
 27 24  2  0
M  END
$$$$
