FCE.pdb
     RDKit          3D

 27 27  0  0  1  0  0  0  0  0999 V2000
   25.3592  -20.7468  -10.0206 N   0  0  0  0  0  0  0  0  0  0  0  0
   25.2699  -20.5964  -11.4379 C   0  0  1  0  0  0  0  0  0  0  0  0
   26.1688  -21.6500  -12.1028 C   0  0  0  0  0  0  0  0  0  0  0  0
   27.5426  -21.0804  -12.1108 C   0  0  0  0  0  0  0  0  0  0  0  0
   28.5261  -21.6214  -11.2873 C   0  0  0  0  0  0  0  0  0  0  0  0
   29.8018  -21.1050  -11.2918 C   0  0  0  0  0  0  0  0  0  0  0  0
   30.1611  -20.0446  -12.0990 C   0  0  0  0  0  0  0  0  0  0  0  0
   29.2023  -19.4986  -12.9184 C   0  0  0  0  0  0  0  0  0  0  0  0
   27.9106  -20.0249  -12.9106 C   0  0  0  0  0  0  0  0  0  0  0  0
   23.8724  -20.6831  -11.8765 C   0  0  0  0  0  0  0  0  0  0  0  0
   23.1817  -21.7076  -11.6357 O   0  0  0  0  0  0  0  0  0  0  0  0
   23.2394  -19.6513  -12.5764 N   0  0  0  0  0  0  0  0  0  0  0  0
   21.8732  -19.6850  -13.0410 C   0  0  1  0  0  0  0  0  0  0  0  0
   21.0212  -18.5494  -12.6191 C   0  0  0  0  0  0  0  0  0  0  0  0
   20.6716  -18.5022  -10.8473 S   0  0  0  0  0  0  0  0  0  0  0  0
   21.9431  -19.6824  -14.5436 C   0  0  0  0  0  0  0  0  0  0  0  0
   22.6658  -18.8331  -15.1699 O   0  0  0  0  0  0  0  0  0  0  0  0
   21.2385  -20.5966  -15.3595 N   0  0  0  0  0  0  0  0  0  0  0  0
   21.3959  -20.5727  -16.8285 C   0  0  1  0  0  0  0  0  0  0  0  0
   20.8742  -21.8717  -17.4051 C   0  0  0  0  0  0  0  0  0  0  0  0
   19.3890  -21.9241  -17.5669 C   0  0  0  0  0  0  0  0  0  0  0  0
   18.9228  -23.2316  -18.1001 C   0  0  0  0  0  0  0  0  0  0  0  0
   17.6855  -23.3632  -18.3414 O   0  0  0  0  0  0  0  0  0  0  0  0
   20.7145  -19.3794  -17.3219 C   0  0  0  0  0  0  0  0  0  0  0  0
   19.7296  -18.6942  -16.6057 O   0  0  0  0  0  0  0  0  0  0  0  0
   19.7601  -24.3146  -18.3517 O   0  0  0  0  0  0  0  0  0  0  0  0
   20.9992  -18.9102  -18.4477 O   0  0  0  0  0  0  0  0  0  0  0  0
  2  1  1  1
  2 10  1  0
  3  2  1  0
  4  3  1  0
  5  4  2  0
  6  5  1  0
  7  8  1  0
  7  6  2  0
  8  9  2  0
  9  4  1  0
 10 11  2  0
 10 12  1  0
 12 13  1  0
 13 14  1  1
 15 14  1  0
 16 13  1  0
 16 17  2  0
 18 16  1  0
 19 18  1  0
 19 20  1  6
 21 20  1  0
 22 23  2  0
 22 21  1  0
 24 19  1  0
 25 24  1  0
 26 22  1  0
 27 24  2  0
M  END
$$$$
