FCE.pdb
     RDKit          3D

 27 27  0  0  1  0  0  0  0  0999 V2000
   30.5573  -11.1948  -17.7390 N   0  0  0  0  0  0  0  0  0  0  0  0
   30.7732   -9.9795  -18.4572 C   0  0  1  0  0  0  0  0  0  0  0  0
   29.6192   -9.7837  -19.4522 C   0  0  0  0  0  0  0  0  0  0  0  0
   29.8490  -10.7563  -20.5536 C   0  0  0  0  0  0  0  0  0  0  0  0
   30.7475  -10.4547  -21.5734 C   0  0  0  0  0  0  0  0  0  0  0  0
   30.9713  -11.3506  -22.5939 C   0  0  0  0  0  0  0  0  0  0  0  0
   30.3271  -12.5699  -22.6541 C   0  0  0  0  0  0  0  0  0  0  0  0
   29.4368  -12.8836  -21.6553 C   0  0  0  0  0  0  0  0  0  0  0  0
   29.2128  -11.9727  -20.6229 C   0  0  0  0  0  0  0  0  0  0  0  0
   30.9203   -8.8532  -17.5285 C   0  0  0  0  0  0  0  0  0  0  0  0
   30.2237   -8.7828  -16.4824 O   0  0  0  0  0  0  0  0  0  0  0  0
   31.8257   -7.8108  -17.7493 N   0  0  0  0  0  0  0  0  0  0  0  0
   32.0234   -6.6870  -16.8654 C   0  0  1  0  0  0  0  0  0  0  0  0
   33.3836   -6.5468  -16.2963 C   0  0  0  0  0  0  0  0  0  0  0  0
   33.5250   -5.2810  -15.0150 S   0  0  0  0  0  0  0  0  0  0  0  0
   31.7303   -5.4577  -17.6811 C   0  0  0  0  0  0  0  0  0  0  0  0
   32.0325   -5.4010  -18.9226 O   0  0  0  0  0  0  0  0  0  0  0  0
   31.1102   -4.3014  -17.1553 N   0  0  0  0  0  0  0  0  0  0  0  0
   30.7496   -3.1720  -18.0372 C   0  0  1  0  0  0  0  0  0  0  0  0
   29.2549   -3.1871  -18.2776 C   0  0  0  0  0  0  0  0  0  0  0  0
   28.7661   -2.1171  -19.1998 C   0  0  0  0  0  0  0  0  0  0  0  0
   27.2883   -2.1416  -19.3637 C   0  0  0  0  0  0  0  0  0  0  0  0
   26.7674   -1.2940  -20.1489 O   0  0  0  0  0  0  0  0  0  0  0  0
   31.2451   -1.9509  -17.4085 C   0  0  0  0  0  0  0  0  0  0  0  0
   31.3571   -0.7256  -18.0707 O   0  0  0  0  0  0  0  0  0  0  0  0
   26.4461   -3.0374  -18.7115 O   0  0  0  0  0  0  0  0  0  0  0  0
   31.6013   -1.9590  -16.2079 O   0  0  0  0  0  0  0  0  0  0  0  0
  2  1  1  1
  2 10  1  0
  3  2  1  0
  4  3  1  0
  5  4  2  0
  6  5  1  0
  7  8  1  0
  7  6  2  0
  8  9  2  0
  9  4  1  0
 10 11  2  0
 10 12  1  0
 12 13  1  0
 13 14  1  6
 15 14  1  0
 16 13  1  0
 16 17  2  0
 18 16  1  0
 19 18  1  0
 19 20  1  1
 21 20  1  0
 22 23  2  0
 22 21  1  0
 24 19  1  0
 25 24  1  0
 26 22  1  0
 27 24  2  0
M  END
$$$$
