FCE.pdb
     RDKit          3D

 27 27  0  0  1  0  0  0  0  0999 V2000
   26.3241  -19.0636   -9.1673 N   0  0  0  0  0  0  0  0  0  0  0  0
   26.4293  -20.4731   -9.3706 C   0  0  1  0  0  0  0  0  0  0  0  0
   26.6167  -21.1549   -8.0067 C   0  0  0  0  0  0  0  0  0  0  0  0
   27.6264  -20.3470   -7.2722 C   0  0  0  0  0  0  0  0  0  0  0  0
   28.9771  -20.6728   -7.3598 C   0  0  0  0  0  0  0  0  0  0  0  0
   29.9197  -19.9278   -6.6885 C   0  0  0  0  0  0  0  0  0  0  0  0
   29.5771  -18.8408   -5.9098 C   0  0  0  0  0  0  0  0  0  0  0  0
   28.2479  -18.5054   -5.8124 C   0  0  0  0  0  0  0  0  0  0  0  0
   27.2958  -19.2631   -6.4943 C   0  0  0  0  0  0  0  0  0  0  0  0
   25.2603  -20.9754  -10.1014 C   0  0  0  0  0  0  0  0  0  0  0  0
   25.2273  -22.1570  -10.5342 O   0  0  0  0  0  0  0  0  0  0  0  0
   24.1365  -20.1835  -10.3561 N   0  0  0  0  0  0  0  0  0  0  0  0
   22.8906  -20.6680  -10.9004 C   0  0  1  0  0  0  0  0  0  0  0  0
   21.6781  -20.3597  -10.1075 C   0  0  0  0  0  0  0  0  0  0  0  0
   20.1260  -20.7764  -10.9327 S   0  0  0  0  0  0  0  0  0  0  0  0
   22.7434  -20.0183  -12.2490 C   0  0  0  0  0  0  0  0  0  0  0  0
   22.9196  -18.7604  -12.3991 O   0  0  0  0  0  0  0  0  0  0  0  0
   22.4125  -20.7281  -13.4257 N   0  0  0  0  0  0  0  0  0  0  0  0
   22.3341  -20.0345  -14.7280 C   0  0  1  0  0  0  0  0  0  0  0  0
   23.6686  -20.1502  -15.4335 C   0  0  0  0  0  0  0  0  0  0  0  0
   23.7034  -19.5353  -16.7955 C   0  0  0  0  0  0  0  0  0  0  0  0
   25.0463  -19.6317  -17.4268 C   0  0  0  0  0  0  0  0  0  0  0  0
   26.0575  -19.3837  -16.7039 O   0  0  0  0  0  0  0  0  0  0  0  0
   21.2129  -20.6115  -15.4640 C   0  0  0  0  0  0  0  0  0  0  0  0
   20.5519  -21.7818  -15.0821 O   0  0  0  0  0  0  0  0  0  0  0  0
   25.2594  -19.9790  -18.7577 O   0  0  0  0  0  0  0  0  0  0  0  0
   20.7882  -20.0571  -16.5036 O   0  0  0  0  0  0  0  0  0  0  0  0
  2  1  1  1
  2 10  1  0
  3  2  1  0
  4  3  1  0
  5  4  2  0
  6  5  1  0
  7  8  1  0
  7  6  2  0
  8  9  2  0
  9  4  1  0
 10 11  2  0
 10 12  1  0
 12 13  1  0
 13 14  1  1
 15 14  1  0
 16 13  1  0
 16 17  2  0
 18 16  1  0
 19 18  1  0
 19 20  1  6
 21 20  1  0
 22 23  2  0
 22 21  1  0
 24 19  1  0
 25 24  1  0
 26 22  1  0
 27 24  2  0
M  END
$$$$
