FCE.pdb
     RDKit          3D

 27 27  0  0  1  0  0  0  0  0999 V2000
   21.6146  -11.1778  -18.9210 N   0  0  0  0  0  0  0  0  0  0  0  0
   22.3253  -10.4569  -17.9138 C   0  0  1  0  0  0  0  0  0  0  0  0
   23.4382   -9.6387  -18.5861 C   0  0  0  0  0  0  0  0  0  0  0  0
   22.7944   -8.8999  -19.7047 C   0  0  0  0  0  0  0  0  0  0  0  0
   22.6802   -9.4946  -20.9583 C   0  0  0  0  0  0  0  0  0  0  0  0
   22.0808   -8.8212  -21.9982 C   0  0  0  0  0  0  0  0  0  0  0  0
   21.5730   -7.5462  -21.8508 C   0  0  0  0  0  0  0  0  0  0  0  0
   21.6774   -6.9443  -20.6197 C   0  0  0  0  0  0  0  0  0  0  0  0
   22.2856   -7.6303  -19.5685 C   0  0  0  0  0  0  0  0  0  0  0  0
   21.4040   -9.6268  -17.1296 C   0  0  0  0  0  0  0  0  0  0  0  0
   20.2999   -9.2574  -17.6084 O   0  0  0  0  0  0  0  0  0  0  0  0
   21.6954   -9.2042  -15.8290 N   0  0  0  0  0  0  0  0  0  0  0  0
   20.8496   -8.3517  -15.0283 C   0  0  1  0  0  0  0  0  0  0  0  0
   20.7170   -8.7316  -13.6029 C   0  0  0  0  0  0  0  0  0  0  0  0
   19.6207   -7.6592  -12.6480 S   0  0  0  0  0  0  0  0  0  0  0  0
   21.4620   -6.9792  -15.0901 C   0  0  0  0  0  0  0  0  0  0  0  0
   22.7283   -6.8168  -15.0139 O   0  0  0  0  0  0  0  0  0  0  0  0
   20.7071   -5.7934  -15.2380 N   0  0  0  0  0  0  0  0  0  0  0  0
   21.3767   -4.4790  -15.3242 C   0  0  1  0  0  0  0  0  0  0  0  0
   20.5677   -3.5674  -16.2222 C   0  0  0  0  0  0  0  0  0  0  0  0
   21.1223   -2.1864  -16.3624 C   0  0  0  0  0  0  0  0  0  0  0  0
   20.2283   -1.2934  -17.1463 C   0  0  0  0  0  0  0  0  0  0  0  0
   20.5719   -0.0803  -17.2759 O   0  0  0  0  0  0  0  0  0  0  0  0
   21.5459   -3.9843  -13.9609 C   0  0  0  0  0  0  0  0  0  0  0  0
   20.8565   -4.4938  -12.8575 O   0  0  0  0  0  0  0  0  0  0  0  0
   19.0428   -1.7081  -17.7461 O   0  0  0  0  0  0  0  0  0  0  0  0
   22.3451   -3.0498  -13.7234 O   0  0  0  0  0  0  0  0  0  0  0  0
  2  1  1  6
  2 10  1  0
  3  2  1  0
  4  3  1  0
  5  4  2  0
  6  5  1  0
  7  8  1  0
  7  6  2  0
  8  9  2  0
  9  4  1  0
 10 11  2  0
 10 12  1  0
 12 13  1  0
 13 14  1  1
 15 14  1  0
 16 13  1  0
 16 17  2  0
 18 16  1  0
 19 18  1  0
 19 20  1  6
 21 20  1  0
 22 23  2  0
 22 21  1  0
 24 19  1  0
 25 24  1  0
 26 22  1  0
 27 24  2  0
M  END
$$$$
