FCE.pdb
     RDKit          3D

 27 27  0  0  1  0  0  0  0  0999 V2000
   27.0063  -11.5839  -15.7765 N   0  0  0  0  0  0  0  0  0  0  0  0
   26.2913  -10.4408  -16.2470 C   0  0  1  0  0  0  0  0  0  0  0  0
   26.4212  -10.3734  -17.7762 C   0  0  0  0  0  0  0  0  0  0  0  0
   27.8630  -10.1478  -18.0624 C   0  0  0  0  0  0  0  0  0  0  0  0
   28.3773   -8.8541  -18.0724 C   0  0  0  0  0  0  0  0  0  0  0  0
   29.7113   -8.6354  -18.3305 C   0  0  0  0  0  0  0  0  0  0  0  0
   30.5881   -9.6701  -18.5872 C   0  0  0  0  0  0  0  0  0  0  0  0
   30.0969  -10.9536  -18.5811 C   0  0  0  0  0  0  0  0  0  0  0  0
   28.7443  -11.1709  -18.3192 C   0  0  0  0  0  0  0  0  0  0  0  0
   24.8956  -10.4868  -15.7965 C   0  0  0  0  0  0  0  0  0  0  0  0
   24.3316  -11.5850  -15.5507 O   0  0  0  0  0  0  0  0  0  0  0  0
   24.1251   -9.3336  -15.6193 N   0  0  0  0  0  0  0  0  0  0  0  0
   22.7608   -9.3158  -15.1483 C   0  0  1  0  0  0  0  0  0  0  0  0
   22.5827   -9.4606  -13.6851 C   0  0  0  0  0  0  0  0  0  0  0  0
   20.8600   -9.4363  -13.1414 S   0  0  0  0  0  0  0  0  0  0  0  0
   22.1953   -7.9832  -15.5572 C   0  0  0  0  0  0  0  0  0  0  0  0
   22.8331   -6.8977  -15.3321 O   0  0  0  0  0  0  0  0  0  0  0  0
   20.9505   -7.8302  -16.2091 N   0  0  0  0  0  0  0  0  0  0  0  0
   20.4043   -6.4854  -16.4854 C   0  0  1  0  0  0  0  0  0  0  0  0
   19.3595   -6.5882  -17.5763 C   0  0  0  0  0  0  0  0  0  0  0  0
   19.8941   -7.0110  -18.9067 C   0  0  0  0  0  0  0  0  0  0  0  0
   18.9152   -7.8209  -19.6794 C   0  0  0  0  0  0  0  0  0  0  0  0
   18.6323   -7.4409  -20.8550 O   0  0  0  0  0  0  0  0  0  0  0  0
   19.9044   -5.9487  -15.2229 C   0  0  0  0  0  0  0  0  0  0  0  0
   19.7634   -4.5837  -14.9597 O   0  0  0  0  0  0  0  0  0  0  0  0
   18.2953   -8.9680  -19.1927 O   0  0  0  0  0  0  0  0  0  0  0  0
   19.5722   -6.7223  -14.2957 O   0  0  0  0  0  0  0  0  0  0  0  0
  2  1  1  6
  2 10  1  0
  3  2  1  0
  4  3  1  0
  5  4  2  0
  6  5  1  0
  7  8  1  0
  7  6  2  0
  8  9  2  0
  9  4  1  0
 10 11  2  0
 10 12  1  0
 12 13  1  0
 13 14  1  1
 15 14  1  0
 16 13  1  0
 16 17  2  0
 18 16  1  0
 19 18  1  0
 19 20  1  6
 21 20  1  0
 22 23  2  0
 22 21  1  0
 24 19  1  0
 25 24  1  0
 26 22  1  0
 27 24  2  0
M  END
$$$$
