FCE.pdb
     RDKit          3D

 27 27  0  0  1  0  0  0  0  0999 V2000
   25.8884  -21.1955   -7.8392 N   0  0  0  0  0  0  0  0  0  0  0  0
   26.6811  -20.1500   -8.4030 C   0  0  1  0  0  0  0  0  0  0  0  0
   28.1491  -20.3798   -8.0130 C   0  0  0  0  0  0  0  0  0  0  0  0
   28.2704  -19.9720   -6.5880 C   0  0  0  0  0  0  0  0  0  0  0  0
   28.7923  -20.8597   -5.6511 C   0  0  0  0  0  0  0  0  0  0  0  0
   28.9140  -20.4895   -4.3311 C   0  0  0  0  0  0  0  0  0  0  0  0
   28.5312  -19.2422   -3.8807 C   0  0  0  0  0  0  0  0  0  0  0  0
   28.0140  -18.3535   -4.7925 C   0  0  0  0  0  0  0  0  0  0  0  0
   27.8923  -18.7327   -6.1293 C   0  0  0  0  0  0  0  0  0  0  0  0
   26.4828  -20.0813   -9.8552 C   0  0  0  0  0  0  0  0  0  0  0  0
   27.0509  -19.1939  -10.5439 O   0  0  0  0  0  0  0  0  0  0  0  0
   25.6642  -20.9809  -10.5450 N   0  0  0  0  0  0  0  0  0  0  0  0
   25.5718  -21.0792  -11.9820 C   0  0  1  0  0  0  0  0  0  0  0  0
   26.1878  -22.2830  -12.5862 C   0  0  0  0  0  0  0  0  0  0  0  0
   27.9918  -22.3181  -12.4959 S   0  0  0  0  0  0  0  0  0  0  0  0
   24.1030  -21.0946  -12.3059 C   0  0  0  0  0  0  0  0  0  0  0  0
   23.2735  -21.7449  -11.5814 O   0  0  0  0  0  0  0  0  0  0  0  0
   23.5383  -20.4064  -13.4039 N   0  0  0  0  0  0  0  0  0  0  0  0
   22.0809  -20.4383  -13.6451 C   0  0  1  0  0  0  0  0  0  0  0  0
   21.7208  -19.3677  -14.6531 C   0  0  0  0  0  0  0  0  0  0  0  0
   20.2578  -19.2537  -14.9381 C   0  0  0  0  0  0  0  0  0  0  0  0
   19.9499  -18.1538  -15.8904 C   0  0  0  0  0  0  0  0  0  0  0  0
   19.3298  -17.1427  -15.4436 O   0  0  0  0  0  0  0  0  0  0  0  0
   21.7360  -21.7950  -14.0599 C   0  0  0  0  0  0  0  0  0  0  0  0
   20.5287  -22.4223  -13.7416 O   0  0  0  0  0  0  0  0  0  0  0  0
   20.3024  -18.1663  -17.2368 O   0  0  0  0  0  0  0  0  0  0  0  0
   22.5410  -22.4705  -14.7413 O   0  0  0  0  0  0  0  0  0  0  0  0
  2  1  1  6
  2 10  1  0
  3  2  1  0
  4  3  1  0
  5  4  2  0
  6  5  1  0
  7  8  1  0
  7  6  2  0
  8  9  2  0
  9  4  1  0
 10 11  2  0
 10 12  1  0
 12 13  1  0
 13 14  1  1
 15 14  1  0
 16 13  1  0
 16 17  2  0
 18 16  1  0
 19 18  1  0
 19 20  1  6
 21 20  1  0
 22 23  2  0
 22 21  1  0
 24 19  1  0
 25 24  1  0
 26 22  1  0
 27 24  2  0
M  END
$$$$
