FCE.pdb
     RDKit          3D

 27 27  0  0  1  0  0  0  0  0999 V2000
   23.7354  -13.1851  -18.1338 N   0  0  0  0  0  0  0  0  0  0  0  0
   23.7227  -12.2289  -17.0732 C   0  0  1  0  0  0  0  0  0  0  0  0
   25.0770  -11.5041  -17.0473 C   0  0  0  0  0  0  0  0  0  0  0  0
   26.0942  -12.5338  -16.7056 C   0  0  0  0  0  0  0  0  0  0  0  0
   26.0756  -13.1434  -15.4541 C   0  0  0  0  0  0  0  0  0  0  0  0
   27.0091  -14.1015  -15.1305 C   0  0  0  0  0  0  0  0  0  0  0  0
   27.9914  -14.4972  -16.0158 C   0  0  0  0  0  0  0  0  0  0  0  0
   28.0242  -13.9055  -17.2558 C   0  0  0  0  0  0  0  0  0  0  0  0
   27.0763  -12.9348  -17.5797 C   0  0  0  0  0  0  0  0  0  0  0  0
   22.5889  -11.3099  -17.2238 C   0  0  0  0  0  0  0  0  0  0  0  0
   22.3392  -10.7676  -18.3320 O   0  0  0  0  0  0  0  0  0  0  0  0
   21.7368  -10.9880  -16.1629 N   0  0  0  0  0  0  0  0  0  0  0  0
   20.5381  -10.1923  -16.2782 C   0  0  1  0  0  0  0  0  0  0  0  0
   19.2941  -10.8265  -15.7843 C   0  0  0  0  0  0  0  0  0  0  0  0
   19.5419  -11.9799  -14.4161 S   0  0  0  0  0  0  0  0  0  0  0  0
   20.7822   -8.9498  -15.4662 C   0  0  0  0  0  0  0  0  0  0  0  0
   21.5465   -8.9701  -14.4409 O   0  0  0  0  0  0  0  0  0  0  0  0
   20.2056   -7.6948  -15.7671 N   0  0  0  0  0  0  0  0  0  0  0  0
   20.4399   -6.5279  -14.8915 C   0  0  1  0  0  0  0  0  0  0  0  0
   21.2846   -5.5129  -15.6320 C   0  0  0  0  0  0  0  0  0  0  0  0
   21.5092   -4.2354  -14.8891 C   0  0  0  0  0  0  0  0  0  0  0  0
   22.3112   -3.2580  -15.6719 C   0  0  0  0  0  0  0  0  0  0  0  0
   22.8998   -3.6770  -16.7133 O   0  0  0  0  0  0  0  0  0  0  0  0
   19.1344   -6.0294  -14.4684 C   0  0  0  0  0  0  0  0  0  0  0  0
   18.9250   -5.2912  -13.3008 O   0  0  0  0  0  0  0  0  0  0  0  0
   22.4520   -1.9154  -15.3329 O   0  0  0  0  0  0  0  0  0  0  0  0
   18.1173   -6.2551  -15.1635 O   0  0  0  0  0  0  0  0  0  0  0  0
  2  1  1  6
  2 10  1  0
  3  2  1  0
  4  3  1  0
  5  4  2  0
  6  5  1  0
  7  8  1  0
  7  6  2  0
  8  9  2  0
  9  4  1  0
 10 11  2  0
 10 12  1  0
 12 13  1  0
 13 14  1  1
 15 14  1  0
 16 13  1  0
 16 17  2  0
 18 16  1  0
 19 18  1  0
 19 20  1  6
 21 20  1  0
 22 23  2  0
 22 21  1  0
 24 19  1  0
 25 24  1  0
 26 22  1  0
 27 24  2  0
M  END
$$$$
