FCE.pdb
     RDKit          3D

 27 27  0  0  1  0  0  0  0  0999 V2000
   26.9917  -17.2767  -19.8811 N   0  0  0  0  0  0  0  0  0  0  0  0
   26.3986  -17.5229  -18.6056 C   0  0  1  0  0  0  0  0  0  0  0  0
   26.8269  -16.4077  -17.6397 C   0  0  0  0  0  0  0  0  0  0  0  0
   28.2900  -16.5753  -17.4321 C   0  0  0  0  0  0  0  0  0  0  0  0
   29.1842  -15.6891  -18.0265 C   0  0  0  0  0  0  0  0  0  0  0  0
   30.5396  -15.8324  -17.8358 C   0  0  0  0  0  0  0  0  0  0  0  0
   31.0683  -16.8439  -17.0596 C   0  0  0  0  0  0  0  0  0  0  0  0
   30.1996  -17.7276  -16.4653 C   0  0  0  0  0  0  0  0  0  0  0  0
   28.8266  -17.5789  -16.6613 C   0  0  0  0  0  0  0  0  0  0  0  0
   24.9412  -17.6382  -18.7304 C   0  0  0  0  0  0  0  0  0  0  0  0
   24.2926  -16.8576  -19.4750 O   0  0  0  0  0  0  0  0  0  0  0  0
   24.2022  -18.6037  -18.0400 N   0  0  0  0  0  0  0  0  0  0  0  0
   22.7746  -18.7863  -18.1504 C   0  0  1  0  0  0  0  0  0  0  0  0
   22.3322  -20.0931  -18.6892 C   0  0  0  0  0  0  0  0  0  0  0  0
   20.5652  -20.4156  -18.4959 S   0  0  0  0  0  0  0  0  0  0  0  0
   22.2270  -18.6473  -16.7563 C   0  0  0  0  0  0  0  0  0  0  0  0
   22.7942  -19.2204  -15.7635 O   0  0  0  0  0  0  0  0  0  0  0  0
   21.0765  -17.8890  -16.4415 N   0  0  0  0  0  0  0  0  0  0  0  0
   20.5428  -17.8650  -15.0638 C   0  0  1  0  0  0  0  0  0  0  0  0
   19.5267  -16.7491  -14.9441 C   0  0  0  0  0  0  0  0  0  0  0  0
   18.8872  -16.6369  -13.5976 C   0  0  0  0  0  0  0  0  0  0  0  0
   17.7903  -15.6332  -13.5730 C   0  0  0  0  0  0  0  0  0  0  0  0
   17.5491  -14.9961  -14.6419 O   0  0  0  0  0  0  0  0  0  0  0  0
   20.0120  -19.1947  -14.7774 C   0  0  0  0  0  0  0  0  0  0  0  0
   20.0894  -19.8097  -13.5251 O   0  0  0  0  0  0  0  0  0  0  0  0
   17.0137  -15.3539  -12.4523 O   0  0  0  0  0  0  0  0  0  0  0  0
   19.4475  -19.8564  -15.6784 O   0  0  0  0  0  0  0  0  0  0  0  0
  2  1  1  6
  2 10  1  0
  3  2  1  0
  4  3  1  0
  5  4  2  0
  6  5  1  0
  7  8  1  0
  7  6  2  0
  8  9  2  0
  9  4  1  0
 10 11  2  0
 10 12  1  0
 12 13  1  0
 13 14  1  1
 15 14  1  0
 16 13  1  0
 16 17  2  0
 18 16  1  0
 19 18  1  0
 19 20  1  6
 21 20  1  0
 22 23  2  0
 22 21  1  0
 24 19  1  0
 25 24  1  0
 26 22  1  0
 27 24  2  0
M  END
$$$$
