IYY.pdb
     RDKit          3D

 33 34  0  0  1  0  0  0  0  0999 V2000
   28.0084  -18.9549  -20.5624 C   0  0  0  0  0  0  0  0  0  0  0  0
   28.7222  -19.8183  -19.5564 C   0  0  0  0  0  0  0  0  0  0  0  0
   27.8959  -20.1067  -18.3343 C   0  0  2  0  0  0  0  0  0  0  0  0
   27.3446  -18.8809  -17.6850 C   0  0  0  0  0  0  0  0  0  0  0  0
   28.6057  -20.9981  -17.3509 C   0  0  2  0  0  0  0  0  0  0  0  0
   28.9740  -22.2672  -17.9097 N   0  0  0  0  0  0  0  0  0  0  0  0
   27.7546  -21.2089  -16.1435 C   0  0  0  0  0  0  0  0  0  0  0  0
   26.7849  -22.0153  -16.1543 O   0  0  0  0  0  0  0  0  0  0  0  0
   24.2064  -20.5583   -8.1022 O   0  0  0  0  0  0  0  0  0  0  0  0
   25.0940  -20.5120   -9.1940 C   0  0  0  0  0  0  0  0  0  0  0  0
   25.4506  -19.3226   -9.7827 C   0  0  0  0  0  0  0  0  0  0  0  0
   26.3109  -19.2558  -10.8435 C   0  0  0  0  0  0  0  0  0  0  0  0
   26.8548  -20.4372  -11.3574 C   0  0  0  0  0  0  0  0  0  0  0  0
   27.7710  -20.4038  -12.4959 C   0  0  0  0  0  0  0  0  0  0  0  0
   27.0879  -20.7025  -13.7953 C   0  0  2  0  0  0  0  0  0  0  0  0
   28.0010  -20.5094  -14.9295 N   0  0  0  0  0  0  0  0  0  0  0  0
   25.8653  -19.9681  -14.0711 C   0  0  0  0  0  0  0  0  0  0  0  0
   25.9185  -18.7774  -14.4547 O   0  0  0  0  0  0  0  0  0  0  0  0
   26.5112  -21.6374  -10.7835 C   0  0  0  0  0  0  0  0  0  0  0  0
   25.6398  -21.6601   -9.7147 C   0  0  0  0  0  0  0  0  0  0  0  0
   18.2609  -17.1413  -16.7546 O   0  0  0  0  0  0  0  0  0  0  0  0
   19.4745  -17.7579  -16.4533 C   0  0  0  0  0  0  0  0  0  0  0  0
   20.5701  -16.9969  -16.1324 C   0  0  0  0  0  0  0  0  0  0  0  0
   21.7852  -17.6228  -15.8311 C   0  0  0  0  0  0  0  0  0  0  0  0
   21.9032  -18.9873  -15.8505 C   0  0  0  0  0  0  0  0  0  0  0  0
   23.1692  -19.6476  -15.5395 C   0  0  0  0  0  0  0  0  0  0  0  0
   23.3477  -19.8707  -14.0533 C   0  0  2  0  0  0  0  0  0  0  0  0
   24.6066  -20.5791  -13.9126 N   0  0  0  0  0  0  0  0  0  0  0  0
   22.2683  -20.6502  -13.4327 C   0  0  0  0  0  0  0  0  0  0  0  0
   21.1637  -20.0455  -12.8508 O   0  0  0  0  0  0  0  0  0  0  0  0
   20.8031  -19.7364  -16.1721 C   0  0  0  0  0  0  0  0  0  0  0  0
   19.5795  -19.1360  -16.4766 C   0  0  0  0  0  0  0  0  0  0  0  0
   22.3080  -21.9135  -13.4060 O   0  0  0  0  0  0  0  0  0  0  0  0
  2  1  1  0
  3  2  1  0
  3  4  1  1
  5  3  1  0
  5  6  1  6
  7  5  1  0
  8  7  2  0
  9 10  1  0
 10 11  2  0
 10 20  1  0
 11 12  1  0
 12 13  2  0
 13 14  1  0
 15 14  1  1
 15 16  1  0
 16  7  1  0
 17 15  1  0
 17 28  1  0
 18 17  2  0
 19 13  1  0
 20 19  2  0
 21 22  1  0
 22 32  2  0
 23 24  2  0
 23 22  1  0
 24 25  1  0
 25 26  1  0
 25 31  2  0
 27 29  1  0
 27 28  1  0
 27 26  1  6
 29 30  1  0
 32 31  1  0
 33 29  2  0
M  END
$$$$
