IYY.pdb
     RDKit          3D

 33 34  0  0  1  0  0  0  0  0999 V2000
   25.9858  -15.5690  -22.0578 C   0  0  0  0  0  0  0  0  0  0  0  0
   25.4082  -16.8870  -21.6146 C   0  0  0  0  0  0  0  0  0  0  0  0
   25.3308  -17.0246  -20.1197 C   0  0  2  0  0  0  0  0  0  0  0  0
   26.6592  -16.9415  -19.4441 C   0  0  0  0  0  0  0  0  0  0  0  0
   24.5507  -18.2373  -19.6881 C   0  0  2  0  0  0  0  0  0  0  0  0
   23.2160  -18.2613  -20.2142 N   0  0  0  0  0  0  0  0  0  0  0  0
   24.5048  -18.3137  -18.1987 C   0  0  0  0  0  0  0  0  0  0  0  0
   25.5594  -18.3146  -17.5068 O   0  0  0  0  0  0  0  0  0  0  0  0
   17.3694  -16.4231  -17.4902 O   0  0  0  0  0  0  0  0  0  0  0  0
   18.6725  -16.6067  -16.9900 C   0  0  0  0  0  0  0  0  0  0  0  0
   18.9148  -17.3711  -15.8740 C   0  0  0  0  0  0  0  0  0  0  0  0
   20.1724  -17.5621  -15.3723 C   0  0  0  0  0  0  0  0  0  0  0  0
   21.2615  -16.9610  -16.0114 C   0  0  0  0  0  0  0  0  0  0  0  0
   22.6186  -17.1369  -15.4976 C   0  0  0  0  0  0  0  0  0  0  0  0
   23.2809  -18.3717  -16.0276 C   0  0  2  0  0  0  0  0  0  0  0  0
   23.2700  -18.3888  -17.4962 N   0  0  0  0  0  0  0  0  0  0  0  0
   22.7573  -19.6428  -15.5582 C   0  0  0  0  0  0  0  0  0  0  0  0
   21.9567  -20.2947  -16.2667 O   0  0  0  0  0  0  0  0  0  0  0  0
   21.0412  -16.1925  -17.1288 C   0  0  0  0  0  0  0  0  0  0  0  0
   19.7565  -16.0257  -17.6020 C   0  0  0  0  0  0  0  0  0  0  0  0
   26.1597  -19.8580   -8.6971 O   0  0  0  0  0  0  0  0  0  0  0  0
   25.5761  -20.4317   -9.8259 C   0  0  0  0  0  0  0  0  0  0  0  0
   26.3317  -20.6614  -10.9478 C   0  0  0  0  0  0  0  0  0  0  0  0
   25.7390  -21.2377  -12.0772 C   0  0  0  0  0  0  0  0  0  0  0  0
   24.4124  -21.5788  -12.0850 C   0  0  0  0  0  0  0  0  0  0  0  0
   23.7862  -22.1784  -13.2613 C   0  0  0  0  0  0  0  0  0  0  0  0
   22.5928  -21.3817  -13.7425 C   0  0  2  0  0  0  0  0  0  0  0  0
   23.1390  -20.1608  -14.3057 N   0  0  0  0  0  0  0  0  0  0  0  0
   21.6293  -21.0517  -12.6839 C   0  0  0  0  0  0  0  0  0  0  0  0
   20.6818  -21.9625  -12.2401 O   0  0  0  0  0  0  0  0  0  0  0  0
   23.6683  -21.3449  -10.9596 C   0  0  0  0  0  0  0  0  0  0  0  0
   24.2361  -20.7711   -9.8200 C   0  0  0  0  0  0  0  0  0  0  0  0
   21.6289  -19.9134  -12.1338 O   0  0  0  0  0  0  0  0  0  0  0  0
  2  1  1  0
  3  2  1  0
  3  4  1  6
  5  3  1  0
  5  6  1  1
  7  5  1  0
  8  7  2  0
  9 10  1  0
 10 11  2  0
 10 20  1  0
 11 12  1  0
 12 13  2  0
 13 14  1  0
 15 14  1  1
 15 16  1  0
 16  7  1  0
 17 15  1  0
 17 28  1  0
 18 17  2  0
 19 13  1  0
 20 19  2  0
 21 22  1  0
 22 32  2  0
 23 24  2  0
 23 22  1  0
 24 25  1  0
 25 26  1  0
 25 31  2  0
 27 29  1  0
 27 28  1  0
 27 26  1  1
 29 30  1  0
 32 31  1  0
 33 29  2  0
M  END
$$$$
