IYY.pdb
     RDKit          3D

 33 34  0  0  1  0  0  0  0  0999 V2000
   22.6365  -26.3961  -17.5427 C   0  0  0  0  0  0  0  0  0  0  0  0
   24.0404  -26.3077  -17.0056 C   0  0  0  0  0  0  0  0  0  0  0  0
   24.8015  -25.1246  -17.5353 C   0  0  2  0  0  0  0  0  0  0  0  0
   24.7511  -25.0008  -19.0220 C   0  0  0  0  0  0  0  0  0  0  0  0
   26.2099  -25.0575  -17.0087 C   0  0  2  0  0  0  0  0  0  0  0  0
   26.9326  -23.9137  -17.4864 N   0  0  0  0  0  0  0  0  0  0  0  0
   26.9498  -26.3035  -17.3642 C   0  0  0  0  0  0  0  0  0  0  0  0
   27.4408  -26.4723  -18.5137 O   0  0  0  0  0  0  0  0  0  0  0  0
   32.3177  -33.1803  -17.0656 O   0  0  0  0  0  0  0  0  0  0  0  0
   31.5034  -32.0752  -16.7527 C   0  0  0  0  0  0  0  0  0  0  0  0
   31.6466  -30.8696  -17.3963 C   0  0  0  0  0  0  0  0  0  0  0  0
   30.8662  -29.7845  -17.1076 C   0  0  0  0  0  0  0  0  0  0  0  0
   29.8812  -29.8945  -16.1210 C   0  0  0  0  0  0  0  0  0  0  0  0
   29.0346  -28.7525  -15.7807 C   0  0  0  0  0  0  0  0  0  0  0  0
   27.9568  -28.5113  -16.7928 C   0  0  2  0  0  0  0  0  0  0  0  0
   27.1325  -27.3536  -16.4219 N   0  0  0  0  0  0  0  0  0  0  0  0
   27.0682  -29.6254  -17.0744 C   0  0  0  0  0  0  0  0  0  0  0  0
   26.1114  -29.8777  -16.3072 O   0  0  0  0  0  0  0  0  0  0  0  0
   29.7215  -31.0912  -15.4651 C   0  0  0  0  0  0  0  0  0  0  0  0
   30.5300  -32.1611  -15.7871 C   0  0  0  0  0  0  0  0  0  0  0  0
   20.7933  -29.1269  -17.4027 O   0  0  0  0  0  0  0  0  0  0  0  0
   21.9643  -29.6712  -17.9284 C   0  0  0  0  0  0  0  0  0  0  0  0
   22.8593  -28.8671  -18.5879 C   0  0  0  0  0  0  0  0  0  0  0  0
   24.0327  -29.4205  -19.1130 C   0  0  0  0  0  0  0  0  0  0  0  0
   24.3071  -30.7559  -18.9810 C   0  0  0  0  0  0  0  0  0  0  0  0
   25.5290  -31.3411  -19.5287 C   0  0  0  0  0  0  0  0  0  0  0  0
   26.5393  -31.6686  -18.4505 C   0  0  2  0  0  0  0  0  0  0  0  0
   27.2664  -30.4361  -18.2086 N   0  0  0  0  0  0  0  0  0  0  0  0
   27.4801  -32.7351  -18.8181 C   0  0  0  0  0  0  0  0  0  0  0  0
   27.0554  -34.0220  -19.1149 O   0  0  0  0  0  0  0  0  0  0  0  0
   23.4066  -31.5485  -18.3208 C   0  0  0  0  0  0  0  0  0  0  0  0
   22.2287  -31.0206  -17.7879 C   0  0  0  0  0  0  0  0  0  0  0  0
   28.7238  -32.5163  -18.8773 O   0  0  0  0  0  0  0  0  0  0  0  0
  2  1  1  0
  3  2  1  0
  3  4  1  6
  5  3  1  0
  5  6  1  6
  7  5  1  0
  8  7  2  0
  9 10  1  0
 10 11  2  0
 10 20  1  0
 11 12  1  0
 12 13  2  0
 13 14  1  0
 15 14  1  1
 15 16  1  0
 16  7  1  0
 17 15  1  0
 17 28  1  0
 18 17  2  0
 19 13  1  0
 20 19  2  0
 21 22  1  0
 22 32  2  0
 23 24  2  0
 23 22  1  0
 24 25  1  0
 25 26  1  0
 25 31  2  0
 27 29  1  0
 27 28  1  0
 27 26  1  6
 29 30  1  0
 32 31  1  0
 33 29  2  0
M  END
$$$$
