IYY.pdb
     RDKit          3D

 33 34  0  0  1  0  0  0  0  0999 V2000
   27.6803  -17.1527  -17.5020 C   0  0  0  0  0  0  0  0  0  0  0  0
   28.4556  -18.0063  -16.5338 C   0  0  0  0  0  0  0  0  0  0  0  0
   27.6351  -18.4595  -15.3587 C   0  0  2  0  0  0  0  0  0  0  0  0
   28.4566  -18.8962  -14.1914 C   0  0  0  0  0  0  0  0  0  0  0  0
   26.5974  -19.4827  -15.7355 C   0  0  2  0  0  0  0  0  0  0  0  0
   25.6741  -19.0060  -16.7248 N   0  0  0  0  0  0  0  0  0  0  0  0
   25.8497  -19.9249  -14.5223 C   0  0  0  0  0  0  0  0  0  0  0  0
   24.9322  -19.2194  -14.0210 O   0  0  0  0  0  0  0  0  0  0  0  0
   20.4499  -22.6013  -16.6410 O   0  0  0  0  0  0  0  0  0  0  0  0
   21.5090  -22.6658  -15.7157 C   0  0  0  0  0  0  0  0  0  0  0  0
   22.8161  -22.7815  -16.1237 C   0  0  0  0  0  0  0  0  0  0  0  0
   23.8590  -22.8454  -15.2416 C   0  0  0  0  0  0  0  0  0  0  0  0
   23.5970  -22.7919  -13.8689 C   0  0  0  0  0  0  0  0  0  0  0  0
   24.6867  -22.8661  -12.8975 C   0  0  0  0  0  0  0  0  0  0  0  0
   25.3675  -21.5475  -12.6922 C   0  0  2  0  0  0  0  0  0  0  0  0
   26.1401  -21.1605  -13.8799 N   0  0  0  0  0  0  0  0  0  0  0  0
   26.2371  -21.4382  -11.5337 C   0  0  0  0  0  0  0  0  0  0  0  0
   27.3097  -22.0826  -11.4879 O   0  0  0  0  0  0  0  0  0  0  0  0
   22.2969  -22.6764  -13.4396 C   0  0  0  0  0  0  0  0  0  0  0  0
   21.2744  -22.6150  -14.3631 C   0  0  0  0  0  0  0  0  0  0  0  0
   29.2617  -19.3377   -3.5952 O   0  0  0  0  0  0  0  0  0  0  0  0
   28.8193  -19.4339   -4.9139 C   0  0  0  0  0  0  0  0  0  0  0  0
   27.6089  -18.8968   -5.2729 C   0  0  0  0  0  0  0  0  0  0  0  0
   27.1714  -18.9972   -6.5985 C   0  0  0  0  0  0  0  0  0  0  0  0
   27.9314  -19.6244   -7.5499 C   0  0  0  0  0  0  0  0  0  0  0  0
   27.4799  -19.7353   -8.9353 C   0  0  0  0  0  0  0  0  0  0  0  0
   26.4086  -20.7908   -9.1048 C   0  0  2  0  0  0  0  0  0  0  0  0
   25.8908  -20.6103  -10.4485 N   0  0  0  0  0  0  0  0  0  0  0  0
   25.3116  -20.6894   -8.1331 C   0  0  0  0  0  0  0  0  0  0  0  0
   25.3871  -21.2668   -6.8740 O   0  0  0  0  0  0  0  0  0  0  0  0
   29.1375  -20.1566   -7.1800 C   0  0  0  0  0  0  0  0  0  0  0  0
   29.5965  -20.0696   -5.8639 C   0  0  0  0  0  0  0  0  0  0  0  0
   24.2478  -20.0661   -8.4127 O   0  0  0  0  0  0  0  0  0  0  0  0
  2  1  1  0
  3  2  1  0
  3  4  1  1
  5  3  1  0
  5  6  1  6
  7  5  1  0
  8  7  2  0
  9 10  1  0
 10 11  2  0
 10 20  1  0
 11 12  1  0
 12 13  2  0
 13 14  1  0
 15 14  1  6
 15 16  1  0
 16  7  1  0
 17 15  1  0
 17 28  1  0
 18 17  2  0
 19 13  1  0
 20 19  2  0
 21 22  1  0
 22 32  2  0
 23 24  2  0
 23 22  1  0
 24 25  1  0
 25 26  1  0
 25 31  2  0
 27 29  1  0
 27 28  1  0
 27 26  1  1
 29 30  1  0
 32 31  1  0
 33 29  2  0
M  END
$$$$
