IYY.pdb
     RDKit          3D

 33 34  0  0  1  0  0  0  0  0999 V2000
   29.8495  -16.5422  -19.3528 C   0  0  0  0  0  0  0  0  0  0  0  0
   28.6307  -16.8711  -20.1735 C   0  0  0  0  0  0  0  0  0  0  0  0
   27.3432  -16.6754  -19.4227 C   0  0  2  0  0  0  0  0  0  0  0  0
   27.3077  -17.3795  -18.1070 C   0  0  0  0  0  0  0  0  0  0  0  0
   26.1306  -16.9795  -20.2608 C   0  0  2  0  0  0  0  0  0  0  0  0
   26.0326  -16.1488  -21.4266 N   0  0  0  0  0  0  0  0  0  0  0  0
   24.8924  -16.8409  -19.4398 C   0  0  0  0  0  0  0  0  0  0  0  0
   24.3385  -15.7208  -19.2680 O   0  0  0  0  0  0  0  0  0  0  0  0
   16.9167  -17.2696  -16.2745 O   0  0  0  0  0  0  0  0  0  0  0  0
   18.1465  -17.3829  -16.9503 C   0  0  0  0  0  0  0  0  0  0  0  0
   18.9013  -16.2779  -17.2627 C   0  0  0  0  0  0  0  0  0  0  0  0
   20.0981  -16.3662  -17.9182 C   0  0  0  0  0  0  0  0  0  0  0  0
   20.5824  -17.6244  -18.2898 C   0  0  0  0  0  0  0  0  0  0  0  0
   21.8537  -17.7554  -18.9991 C   0  0  0  0  0  0  0  0  0  0  0  0
   23.0312  -17.7806  -18.0732 C   0  0  2  0  0  0  0  0  0  0  0  0
   24.2845  -17.9658  -18.8163 N   0  0  0  0  0  0  0  0  0  0  0  0
   22.9942  -18.7598  -17.0009 C   0  0  0  0  0  0  0  0  0  0  0  0
   23.2871  -19.9556  -17.2291 O   0  0  0  0  0  0  0  0  0  0  0  0
   19.8430  -18.7423  -17.9871 C   0  0  0  0  0  0  0  0  0  0  0  0
   18.6408  -18.6087  -17.3246 C   0  0  0  0  0  0  0  0  0  0  0  0
   22.9535  -21.4740   -8.5904 O   0  0  0  0  0  0  0  0  0  0  0  0
   23.0179  -20.7520   -9.7814 C   0  0  0  0  0  0  0  0  0  0  0  0
   24.1244  -20.8528  -10.5863 C   0  0  0  0  0  0  0  0  0  0  0  0
   24.1819  -20.1251  -11.7805 C   0  0  0  0  0  0  0  0  0  0  0  0
   23.1502  -19.3098  -12.1638 C   0  0  0  0  0  0  0  0  0  0  0  0
   23.2044  -18.5451  -13.4078 C   0  0  0  0  0  0  0  0  0  0  0  0
   22.6041  -19.3036  -14.5718 C   0  0  2  0  0  0  0  0  0  0  0  0
   22.6304  -18.3833  -15.6937 N   0  0  0  0  0  0  0  0  0  0  0  0
   21.2282  -19.7626  -14.3394 C   0  0  0  0  0  0  0  0  0  0  0  0
   20.1270  -18.9863  -14.6695 O   0  0  0  0  0  0  0  0  0  0  0  0
   22.0511  -19.2172  -11.3525 C   0  0  0  0  0  0  0  0  0  0  0  0
   21.9693  -19.9330  -10.1561 C   0  0  0  0  0  0  0  0  0  0  0  0
   20.9959  -20.8935  -13.8242 O   0  0  0  0  0  0  0  0  0  0  0  0
  2  1  1  0
  3  2  1  0
  3  4  1  1
  5  3  1  0
  5  6  1  6
  7  5  1  0
  8  7  2  0
  9 10  1  0
 10 11  2  0
 10 20  1  0
 11 12  1  0
 12 13  2  0
 13 14  1  0
 15 14  1  6
 15 16  1  0
 16  7  1  0
 17 15  1  0
 17 28  1  0
 18 17  2  0
 19 13  1  0
 20 19  2  0
 21 22  1  0
 22 32  2  0
 23 24  2  0
 23 22  1  0
 24 25  1  0
 25 26  1  0
 25 31  2  0
 27 29  1  0
 27 28  1  0
 27 26  1  1
 29 30  1  0
 32 31  1  0
 33 29  2  0
M  END
$$$$
