IYY.pdb
     RDKit          3D

 33 34  0  0  1  0  0  0  0  0999 V2000
   21.0239  -13.4166  -22.1592 C   0  0  0  0  0  0  0  0  0  0  0  0
   21.7070  -12.2872  -21.4346 C   0  0  0  0  0  0  0  0  0  0  0  0
   20.7612  -11.4537  -20.6159 C   0  0  2  0  0  0  0  0  0  0  0  0
   19.6033  -10.9264  -21.3965 C   0  0  0  0  0  0  0  0  0  0  0  0
   21.4634  -10.3700  -19.8424 C   0  0  2  0  0  0  0  0  0  0  0  0
   22.4974  -10.8741  -18.9849 N   0  0  0  0  0  0  0  0  0  0  0  0
   20.4762   -9.5941  -19.0363 C   0  0  0  0  0  0  0  0  0  0  0  0
   19.4389   -9.1037  -19.5601 O   0  0  0  0  0  0  0  0  0  0  0  0
   16.3706  -14.0781  -16.2349 O   0  0  0  0  0  0  0  0  0  0  0  0
   17.1023  -12.8863  -16.0733 C   0  0  0  0  0  0  0  0  0  0  0  0
   16.5149  -11.6537  -16.2277 C   0  0  0  0  0  0  0  0  0  0  0  0
   17.2074  -10.4845  -16.0750 C   0  0  0  0  0  0  0  0  0  0  0  0
   18.5666  -10.5332  -15.7492 C   0  0  0  0  0  0  0  0  0  0  0  0
   19.3397   -9.3034  -15.5867 C   0  0  0  0  0  0  0  0  0  0  0  0
   19.6408   -8.6341  -16.8927 C   0  0  2  0  0  0  0  0  0  0  0  0
   20.6633   -9.3747  -17.6432 N   0  0  0  0  0  0  0  0  0  0  0  0
   20.0480   -7.2410  -16.8307 C   0  0  0  0  0  0  0  0  0  0  0  0
   21.1288   -6.9242  -16.2836 O   0  0  0  0  0  0  0  0  0  0  0  0
   19.1735  -11.7556  -15.5904 C   0  0  0  0  0  0  0  0  0  0  0  0
   18.4381  -12.9109  -15.7534 C   0  0  0  0  0  0  0  0  0  0  0  0
   20.3305    1.1913  -19.2810 O   0  0  0  0  0  0  0  0  0  0  0  0
   20.2537   -0.1927  -19.1305 C   0  0  0  0  0  0  0  0  0  0  0  0
   21.3174   -0.8869  -18.6120 C   0  0  0  0  0  0  0  0  0  0  0  0
   21.2332   -2.2761  -18.4638 C   0  0  0  0  0  0  0  0  0  0  0  0
   20.1039   -2.9603  -18.8282 C   0  0  0  0  0  0  0  0  0  0  0  0
   20.0097   -4.4109  -18.6787 C   0  0  0  0  0  0  0  0  0  0  0  0
   19.5524   -4.8145  -17.2936 C   0  0  2  0  0  0  0  0  0  0  0  0
   19.2390   -6.2288  -17.3818 N   0  0  0  0  0  0  0  0  0  0  0  0
   18.3771   -4.0753  -16.8140 C   0  0  0  0  0  0  0  0  0  0  0  0
   18.4900   -2.8627  -16.1498 O   0  0  0  0  0  0  0  0  0  0  0  0
   19.0486   -2.2569  -19.3444 C   0  0  0  0  0  0  0  0  0  0  0  0
   19.1078   -0.8706  -19.5023 C   0  0  0  0  0  0  0  0  0  0  0  0
   17.2080   -4.5228  -16.9909 O   0  0  0  0  0  0  0  0  0  0  0  0
  2  1  1  0
  3  2  1  0
  3  4  1  6
  5  3  1  0
  5  6  1  1
  7  5  1  0
  8  7  2  0
  9 10  1  0
 10 11  2  0
 10 20  1  0
 11 12  1  0
 12 13  2  0
 13 14  1  0
 15 14  1  1
 15 16  1  0
 16  7  1  0
 17 15  1  0
 17 28  1  0
 18 17  2  0
 19 13  1  0
 20 19  2  0
 21 22  1  0
 22 32  2  0
 23 24  2  0
 23 22  1  0
 24 25  1  0
 25 26  1  0
 25 31  2  0
 27 29  1  0
 27 28  1  0
 27 26  1  6
 29 30  1  0
 32 31  1  0
 33 29  2  0
M  END
$$$$
