IYY.pdb
     RDKit          3D

 33 34  0  0  1  0  0  0  0  0999 V2000
   37.6011  -11.7991   -7.6679 C   0  0  0  0  0  0  0  0  0  0  0  0
   37.8030  -10.3731   -7.2286 C   0  0  0  0  0  0  0  0  0  0  0  0
   39.0526   -9.7541   -7.7895 C   0  0  2  0  0  0  0  0  0  0  0  0
   40.2388  -10.6590   -7.7422 C   0  0  0  0  0  0  0  0  0  0  0  0
   39.3473   -8.4024   -7.1964 C   0  0  2  0  0  0  0  0  0  0  0  0
   38.2310   -7.5038   -7.2678 N   0  0  0  0  0  0  0  0  0  0  0  0
   40.5278   -7.7917   -7.8745 C   0  0  0  0  0  0  0  0  0  0  0  0
   40.4355   -7.2817   -9.0244 O   0  0  0  0  0  0  0  0  0  0  0  0
   39.6844   -1.6320   -8.0972 O   0  0  0  0  0  0  0  0  0  0  0  0
   40.6008   -2.6825   -7.9008 C   0  0  0  0  0  0  0  0  0  0  0  0
   41.4182   -3.1242   -8.9133 C   0  0  0  0  0  0  0  0  0  0  0  0
   42.3148   -4.1425   -8.7434 C   0  0  0  0  0  0  0  0  0  0  0  0
   42.4122   -4.7659   -7.4953 C   0  0  0  0  0  0  0  0  0  0  0  0
   43.3536   -5.8632   -7.2803 C   0  0  0  0  0  0  0  0  0  0  0  0
   42.9296   -7.1290   -7.9603 C   0  0  2  0  0  0  0  0  0  0  0  0
   41.8071   -7.7589   -7.2529 N   0  0  0  0  0  0  0  0  0  0  0  0
   43.9577   -8.1354   -8.1606 C   0  0  0  0  0  0  0  0  0  0  0  0
   44.1928   -8.9822   -7.2686 O   0  0  0  0  0  0  0  0  0  0  0  0
   41.6038   -4.3396   -6.4693 C   0  0  0  0  0  0  0  0  0  0  0  0
   40.7129   -3.3088   -6.6833 C   0  0  0  0  0  0  0  0  0  0  0  0
   40.6898  -12.0773  -12.3219 O   0  0  0  0  0  0  0  0  0  0  0  0
   41.8916  -11.4346  -12.0279 C   0  0  0  0  0  0  0  0  0  0  0  0
   42.2470  -10.2982  -12.7095 C   0  0  0  0  0  0  0  0  0  0  0  0
   43.4549   -9.6583  -12.4090 C   0  0  0  0  0  0  0  0  0  0  0  0
   44.2940  -10.1466  -11.4427 C   0  0  0  0  0  0  0  0  0  0  0  0
   45.5579   -9.4853  -11.1252 C   0  0  0  0  0  0  0  0  0  0  0  0
   45.6953   -9.1943   -9.6464 C   0  0  2  0  0  0  0  0  0  0  0  0
   44.7034   -8.1759   -9.3544 N   0  0  0  0  0  0  0  0  0  0  0  0
   47.0274   -8.7160   -9.2534 C   0  0  0  0  0  0  0  0  0  0  0  0
   47.2296   -7.4476   -8.7292 O   0  0  0  0  0  0  0  0  0  0  0  0
   43.9288  -11.2813  -10.7690 C   0  0  0  0  0  0  0  0  0  0  0  0
   42.7289  -11.9382  -11.0502 C   0  0  0  0  0  0  0  0  0  0  0  0
   48.0483   -9.4508   -9.3805 O   0  0  0  0  0  0  0  0  0  0  0  0
  2  1  1  0
  3  2  1  0
  3  4  1  1
  5  3  1  0
  5  6  1  6
  7  5  1  0
  8  7  2  0
  9 10  1  0
 10 11  2  0
 10 20  1  0
 11 12  1  0
 12 13  2  0
 13 14  1  0
 15 14  1  1
 15 16  1  0
 16  7  1  0
 17 15  1  0
 17 28  1  0
 18 17  2  0
 19 13  1  0
 20 19  2  0
 21 22  1  0
 22 32  2  0
 23 24  2  0
 23 22  1  0
 24 25  1  0
 25 26  1  0
 25 31  2  0
 27 29  1  0
 27 28  1  0
 27 26  1  6
 29 30  1  0
 32 31  1  0
 33 29  2  0
M  END
$$$$
