IYY.pdb
     RDKit          3D

 33 34  0  0  1  0  0  0  0  0999 V2000
   28.3615  -20.2948  -18.4128 C   0  0  0  0  0  0  0  0  0  0  0  0
   27.1003  -19.6736  -18.9518 C   0  0  0  0  0  0  0  0  0  0  0  0
   26.0262  -19.5210  -17.9115 C   0  0  2  0  0  0  0  0  0  0  0  0
   25.7120  -20.7889  -17.1891 C   0  0  0  0  0  0  0  0  0  0  0  0
   24.7886  -18.8535  -18.4485 C   0  0  2  0  0  0  0  0  0  0  0  0
   25.0515  -17.5654  -19.0233 N   0  0  0  0  0  0  0  0  0  0  0  0
   23.7674  -18.7225  -17.3685 C   0  0  0  0  0  0  0  0  0  0  0  0
   23.8764  -17.8529  -16.4614 O   0  0  0  0  0  0  0  0  0  0  0  0
   20.2894  -13.5816  -18.8197 O   0  0  0  0  0  0  0  0  0  0  0  0
   20.2956  -14.9130  -18.3622 C   0  0  0  0  0  0  0  0  0  0  0  0
   20.6946  -15.9505  -19.1701 C   0  0  0  0  0  0  0  0  0  0  0  0
   20.7082  -17.2502  -18.7453 C   0  0  0  0  0  0  0  0  0  0  0  0
   20.3024  -17.5466  -17.4402 C   0  0  0  0  0  0  0  0  0  0  0  0
   20.2962  -18.9256  -16.9554 C   0  0  0  0  0  0  0  0  0  0  0  0
   21.5902  -19.3159  -16.3092 C   0  0  2  0  0  0  0  0  0  0  0  0
   22.6280  -19.5727  -17.3163 N   0  0  0  0  0  0  0  0  0  0  0  0
   21.5487  -20.4522  -15.4051 C   0  0  0  0  0  0  0  0  0  0  0  0
   21.5531  -21.6191  -15.8590 O   0  0  0  0  0  0  0  0  0  0  0  0
   19.8995  -16.5238  -16.6159 C   0  0  0  0  0  0  0  0  0  0  0  0
   19.9010  -15.2267  -17.0843 C   0  0  0  0  0  0  0  0  0  0  0  0
   27.8926  -21.0621  -13.4184 O   0  0  0  0  0  0  0  0  0  0  0  0
   26.5483  -21.0200  -13.0509 C   0  0  0  0  0  0  0  0  0  0  0  0
   25.9503  -22.1284  -12.5068 C   0  0  0  0  0  0  0  0  0  0  0  0
   24.6004  -22.0787  -12.1402 C   0  0  0  0  0  0  0  0  0  0  0  0
   23.8604  -20.9394  -12.3148 C   0  0  0  0  0  0  0  0  0  0  0  0
   22.4500  -20.8809  -11.9368 C   0  0  0  0  0  0  0  0  0  0  0  0
   21.5395  -21.3501  -13.0510 C   0  0  2  0  0  0  0  0  0  0  0  0
   21.5030  -20.2619  -14.0106 N   0  0  0  0  0  0  0  0  0  0  0  0
   20.1747  -21.6697  -12.6119 C   0  0  0  0  0  0  0  0  0  0  0  0
   19.8183  -22.9385  -12.1789 O   0  0  0  0  0  0  0  0  0  0  0  0
   24.4679  -19.8394  -12.8587 C   0  0  0  0  0  0  0  0  0  0  0  0
   25.8132  -19.8635  -13.2326 C   0  0  0  0  0  0  0  0  0  0  0  0
   19.2660  -20.7907  -12.6134 O   0  0  0  0  0  0  0  0  0  0  0  0
  2  1  1  0
  3  2  1  0
  3  4  1  6
  5  3  1  0
  5  6  1  1
  7  5  1  0
  8  7  2  0
  9 10  1  0
 10 11  2  0
 10 20  1  0
 11 12  1  0
 12 13  2  0
 13 14  1  0
 15 14  1  6
 15 16  1  0
 16  7  1  0
 17 15  1  0
 17 28  1  0
 18 17  2  0
 19 13  1  0
 20 19  2  0
 21 22  1  0
 22 32  2  0
 23 24  2  0
 23 22  1  0
 24 25  1  0
 25 26  1  0
 25 31  2  0
 27 29  1  0
 27 28  1  0
 27 26  1  1
 29 30  1  0
 32 31  1  0
 33 29  2  0
M  END
$$$$
