IYY.pdb
     RDKit          3D

 33 34  0  0  1  0  0  0  0  0999 V2000
   36.7200  -28.1552  -19.2934 C   0  0  0  0  0  0  0  0  0  0  0  0
   35.8068  -27.0445  -19.7400 C   0  0  0  0  0  0  0  0  0  0  0  0
   34.3902  -27.4970  -19.9585 C   0  0  2  0  0  0  0  0  0  0  0  0
   33.7196  -27.9774  -18.7144 C   0  0  0  0  0  0  0  0  0  0  0  0
   34.2638  -28.4844  -21.0875 C   0  0  2  0  0  0  0  0  0  0  0  0
   34.5539  -27.9094  -22.3696 N   0  0  0  0  0  0  0  0  0  0  0  0
   32.8938  -29.0754  -21.1004 C   0  0  0  0  0  0  0  0  0  0  0  0
   32.0340  -28.7253  -21.9543 O   0  0  0  0  0  0  0  0  0  0  0  0
   25.8160  -33.7753  -21.8112 O   0  0  0  0  0  0  0  0  0  0  0  0
   27.0949  -33.1938  -21.7199 C   0  0  0  0  0  0  0  0  0  0  0  0
   27.3234  -31.8926  -22.0981 C   0  0  0  0  0  0  0  0  0  0  0  0
   28.5574  -31.3091  -22.0172 C   0  0  0  0  0  0  0  0  0  0  0  0
   29.6358  -32.0560  -21.5325 C   0  0  0  0  0  0  0  0  0  0  0  0
   30.9704  -31.4669  -21.4403 C   0  0  0  0  0  0  0  0  0  0  0  0
   31.1424  -30.6154  -20.2198 C   0  0  2  0  0  0  0  0  0  0  0  0
   32.4996  -30.0582  -20.1505 N   0  0  0  0  0  0  0  0  0  0  0  0
   30.8468  -31.2420  -18.9430 C   0  0  0  0  0  0  0  0  0  0  0  0
   31.5670  -32.1732  -18.5163 O   0  0  0  0  0  0  0  0  0  0  0  0
   29.4290  -33.3591  -21.1490 C   0  0  0  0  0  0  0  0  0  0  0  0
   28.1681  -33.9091  -21.2468 C   0  0  0  0  0  0  0  0  0  0  0  0
   25.6134  -34.0441  -12.4687 O   0  0  0  0  0  0  0  0  0  0  0  0
   26.1592  -33.3738  -13.5626 C   0  0  0  0  0  0  0  0  0  0  0  0
   25.6860  -33.6227  -14.8261 C   0  0  0  0  0  0  0  0  0  0  0  0
   26.2387  -32.9460  -15.9195 C   0  0  0  0  0  0  0  0  0  0  0  0
   27.2481  -32.0352  -15.7525 C   0  0  0  0  0  0  0  0  0  0  0  0
   27.8317  -31.3268  -16.8896 C   0  0  0  0  0  0  0  0  0  0  0  0
   29.3381  -31.4652  -16.9375 C   0  0  2  0  0  0  0  0  0  0  0  0
   29.7516  -30.8153  -18.1675 N   0  0  0  0  0  0  0  0  0  0  0  0
   29.8104  -32.8561  -16.9287 C   0  0  0  0  0  0  0  0  0  0  0  0
   29.6305  -33.7019  -18.0134 O   0  0  0  0  0  0  0  0  0  0  0  0
   27.7121  -31.7950  -14.4869 C   0  0  0  0  0  0  0  0  0  0  0  0
   27.1775  -32.4571  -13.3796 C   0  0  0  0  0  0  0  0  0  0  0  0
   30.4036  -33.3373  -15.9213 O   0  0  0  0  0  0  0  0  0  0  0  0
  2  1  1  0
  3  2  1  0
  3  4  1  1
  5  3  1  0
  5  6  1  6
  7  5  1  0
  8  7  2  0
  9 10  1  0
 10 11  2  0
 10 20  1  0
 11 12  1  0
 12 13  2  0
 13 14  1  0
 15 14  1  6
 15 16  1  0
 16  7  1  0
 17 15  1  0
 17 28  1  0
 18 17  2  0
 19 13  1  0
 20 19  2  0
 21 22  1  0
 22 32  2  0
 23 24  2  0
 23 22  1  0
 24 25  1  0
 25 26  1  0
 25 31  2  0
 27 29  1  0
 27 28  1  0
 27 26  1  6
 29 30  1  0
 32 31  1  0
 33 29  2  0
M  END
$$$$
