IYY.pdb
     RDKit          3D

 33 34  0  0  1  0  0  0  0  0999 V2000
   29.4559  -17.3153  -16.5479 C   0  0  0  0  0  0  0  0  0  0  0  0
   28.5318  -18.5031  -16.4980 C   0  0  0  0  0  0  0  0  0  0  0  0
   27.8203  -18.6423  -15.1813 C   0  0  2  0  0  0  0  0  0  0  0  0
   28.7390  -18.6448  -14.0048 C   0  0  0  0  0  0  0  0  0  0  0  0
   26.8662  -19.8063  -15.1573 C   0  0  2  0  0  0  0  0  0  0  0  0
   25.9649  -19.8149  -16.2737 N   0  0  0  0  0  0  0  0  0  0  0  0
   26.0885  -19.8052  -13.8840 C   0  0  0  0  0  0  0  0  0  0  0  0
   25.4059  -18.8053  -13.5304 O   0  0  0  0  0  0  0  0  0  0  0  0
   20.2111  -19.7860  -15.5338 O   0  0  0  0  0  0  0  0  0  0  0  0
   21.1677  -20.2816  -14.6276 C   0  0  0  0  0  0  0  0  0  0  0  0
   21.1925  -19.8785  -13.3141 C   0  0  0  0  0  0  0  0  0  0  0  0
   22.1127  -20.3476  -12.4180 C   0  0  0  0  0  0  0  0  0  0  0  0
   23.0703  -21.2736  -12.8437 C   0  0  0  0  0  0  0  0  0  0  0  0
   24.0742  -21.7898  -11.9150 C   0  0  0  0  0  0  0  0  0  0  0  0
   25.2664  -20.8906  -11.7957 C   0  0  2  0  0  0  0  0  0  0  0  0
   26.0841  -20.9317  -13.0151 N   0  0  0  0  0  0  0  0  0  0  0  0
   26.1414  -21.1183  -10.6586 C   0  0  0  0  0  0  0  0  0  0  0  0
   27.3209  -21.4987  -10.8374 O   0  0  0  0  0  0  0  0  0  0  0  0
   23.0633  -21.6898  -14.1531 C   0  0  0  0  0  0  0  0  0  0  0  0
   22.1173  -21.1916  -15.0243 C   0  0  0  0  0  0  0  0  0  0  0  0
   30.2712  -19.3656   -3.3193 O   0  0  0  0  0  0  0  0  0  0  0  0
   29.5868  -19.5055   -4.5259 C   0  0  0  0  0  0  0  0  0  0  0  0
   28.4533  -18.7692   -4.7615 C   0  0  0  0  0  0  0  0  0  0  0  0
   27.7714  -18.9148   -5.9751 C   0  0  0  0  0  0  0  0  0  0  0  0
   28.2155  -19.7824   -6.9375 C   0  0  0  0  0  0  0  0  0  0  0  0
   27.5074  -19.9415   -8.2059 C   0  0  0  0  0  0  0  0  0  0  0  0
   26.5144  -21.0831   -8.1671 C   0  0  2  0  0  0  0  0  0  0  0  0
   25.6808  -20.9164   -9.3434 N   0  0  0  0  0  0  0  0  0  0  0  0
   25.6739  -21.1025   -6.9626 C   0  0  0  0  0  0  0  0  0  0  0  0
   24.3398  -20.7230   -6.9890 O   0  0  0  0  0  0  0  0  0  0  0  0
   29.3478  -20.5118   -6.6913 C   0  0  0  0  0  0  0  0  0  0  0  0
   30.0461  -20.3847   -5.4886 C   0  0  0  0  0  0  0  0  0  0  0  0
   26.1413  -21.4691   -5.8466 O   0  0  0  0  0  0  0  0  0  0  0  0
  2  1  1  0
  3  2  1  0
  3  4  1  1
  5  3  1  0
  5  6  1  6
  7  5  1  0
  8  7  2  0
  9 10  1  0
 10 11  2  0
 10 20  1  0
 11 12  1  0
 12 13  2  0
 13 14  1  0
 15 14  1  6
 15 16  1  0
 16  7  1  0
 17 15  1  0
 17 28  1  0
 18 17  2  0
 19 13  1  0
 20 19  2  0
 21 22  1  0
 22 32  2  0
 23 24  2  0
 23 22  1  0
 24 25  1  0
 25 26  1  0
 25 31  2  0
 27 29  1  0
 27 28  1  0
 27 26  1  1
 29 30  1  0
 32 31  1  0
 33 29  2  0
M  END
$$$$
