KVC.pdb
     RDKit          3D

 23 22  0  0  1  0  0  0  0  0999 V2000
   11.6260  -16.9806   19.3665 N   0  0  0  0  0  0  0  0  0  0  0  0
   11.2007  -17.4812   20.6476 C   0  0  1  0  0  0  0  0  0  0  0  0
   12.2607  -18.3289   21.2879 C   0  0  0  0  0  0  0  0  0  0  0  0
   12.2075  -19.7295   20.7652 C   0  0  0  0  0  0  0  0  0  0  0  0
   13.2574  -20.6453   21.3445 C   0  0  0  0  0  0  0  0  0  0  0  0
   13.0168  -22.0236   20.7247 C   0  0  0  0  0  0  0  0  0  0  0  0
   14.0107  -22.9220   21.3087 N   0  0  0  0  0  0  0  0  0  0  0  0
   10.7485  -16.3874   21.5521 C   0  0  0  0  0  0  0  0  0  0  0  0
   11.4630  -15.3545   21.5861 O   0  0  0  0  0  0  0  0  0  0  0  0
    7.3274  -14.7455   21.6438 C   0  0  0  0  0  0  0  0  0  0  0  0
    7.7002  -15.1121   23.0264 C   0  0  2  0  0  0  0  0  0  0  0  0
    7.1259  -14.0959   23.9901 C   0  0  0  0  0  0  0  0  0  0  0  0
    9.1765  -15.2909   23.1870 C   0  0  2  0  0  0  0  0  0  0  0  0
    9.6050  -16.4426   22.3443 N   0  0  0  0  0  0  0  0  0  0  0  0
    9.6270  -15.5761   24.5700 C   0  0  0  0  0  0  0  0  0  0  0  0
    9.7162  -16.7964   24.9800 O   0  0  0  0  0  0  0  0  0  0  0  0
    9.9889  -14.6215   25.5279 N   0  0  0  0  0  0  0  0  0  0  0  0
   10.4304  -14.9610   26.8707 C   0  0  1  0  0  0  0  0  0  0  0  0
   10.3256  -13.6524   27.6693 C   0  0  0  0  0  0  0  0  0  0  0  0
   10.7953  -13.8810   29.3846 S   0  0  0  0  0  0  0  0  0  0  0  0
    9.4522  -15.8846   27.4664 C   0  0  0  0  0  0  0  0  0  0  0  0
    8.1990  -15.7336   27.3477 O   0  0  0  0  0  0  0  0  0  0  0  0
    9.8752  -16.9738   28.1924 O   0  0  0  0  0  0  0  0  0  0  0  0
  2  1  1  6
  2  3  1  0
  3  4  1  0
  4  5  1  0
  5  6  1  0
  6  7  1  0
  8  2  1  0
  8 14  1  0
  9  8  2  0
 11 10  1  6
 11 13  1  0
 11 12  1  0
 13 14  1  6
 15 17  1  0
 15 13  1  0
 16 15  2  0
 18 17  1  0
 18 21  1  0
 18 19  1  1
 20 19  1  0
 21 23  1  0
 22 21  2  0
M  END
$$$$
