KVC.pdb
     RDKit          3D

 23 22  0  0  1  0  0  0  0  0999 V2000
   10.4110  -18.6011   18.4979 N   0  0  0  0  0  0  0  0  0  0  0  0
    9.3800  -18.3526   19.4715 C   0  0  1  0  0  0  0  0  0  0  0  0
    9.3373  -19.4289   20.5164 C   0  0  0  0  0  0  0  0  0  0  0  0
    8.8466  -20.7159   19.9326 C   0  0  0  0  0  0  0  0  0  0  0  0
    8.5616  -21.7888   20.9545 C   0  0  0  0  0  0  0  0  0  0  0  0
    8.1213  -23.0262   20.1693 C   0  0  0  0  0  0  0  0  0  0  0  0
    7.8178  -24.0599   21.1570 N   0  0  0  0  0  0  0  0  0  0  0  0
    9.5014  -16.9983   20.0797 C   0  0  0  0  0  0  0  0  0  0  0  0
   10.6669  -16.5618   20.2521 O   0  0  0  0  0  0  0  0  0  0  0  0
    7.6098  -13.7806   19.0673 C   0  0  0  0  0  0  0  0  0  0  0  0
    7.5345  -13.9539   20.5334 C   0  0  2  0  0  0  0  0  0  0  0  0
    7.5319  -12.5960   21.2024 C   0  0  0  0  0  0  0  0  0  0  0  0
    8.6108  -14.8526   21.0541 C   0  0  2  0  0  0  0  0  0  0  0  0
    8.4217  -16.2058   20.4598 N   0  0  0  0  0  0  0  0  0  0  0  0
    8.6260  -15.0255   22.5261 C   0  0  0  0  0  0  0  0  0  0  0  0
    7.8299  -15.8742   23.0837 O   0  0  0  0  0  0  0  0  0  0  0  0
    9.4524  -14.3392   23.4239 N   0  0  0  0  0  0  0  0  0  0  0  0
    9.3703  -14.4933   24.8671 C   0  0  1  0  0  0  0  0  0  0  0  0
    7.8681  -14.4571   25.1886 C   0  0  0  0  0  0  0  0  0  0  0  0
    7.2694  -12.7777   25.3789 S   0  0  0  0  0  0  0  0  0  0  0  0
    9.8332  -15.8442   25.2214 C   0  0  0  0  0  0  0  0  0  0  0  0
    9.8449  -16.8080   24.3979 O   0  0  0  0  0  0  0  0  0  0  0  0
   10.2819  -16.1155   26.4932 O   0  0  0  0  0  0  0  0  0  0  0  0
  2  1  1  6
  2  3  1  0
  3  4  1  0
  4  5  1  0
  5  6  1  0
  6  7  1  0
  8  2  1  0
  8 14  1  0
  9  8  2  0
 11 10  1  6
 11 13  1  0
 11 12  1  0
 13 14  1  6
 15 17  1  0
 15 13  1  0
 16 15  2  0
 18 17  1  0
 18 21  1  0
 18 19  1  6
 20 19  1  0
 21 23  1  0
 22 21  2  0
M  END
$$$$
