KVC.pdb
     RDKit          3D

 23 22  0  0  1  0  0  0  0  0999 V2000
    6.9588  -17.1934   21.9540 N   0  0  0  0  0  0  0  0  0  0  0  0
    6.4764  -16.9493   23.2884 C   0  0  1  0  0  0  0  0  0  0  0  0
    6.2379  -18.2310   24.0316 C   0  0  0  0  0  0  0  0  0  0  0  0
    5.0351  -18.9399   23.4944 C   0  0  0  0  0  0  0  0  0  0  0  0
    5.3110  -19.7907   22.2793 C   0  0  0  0  0  0  0  0  0  0  0  0
    3.9764  -20.4288   21.8876 C   0  0  0  0  0  0  0  0  0  0  0  0
    4.2539  -21.3150   20.7590 N   0  0  0  0  0  0  0  0  0  0  0  0
    7.3716  -16.0309   24.0461 C   0  0  0  0  0  0  0  0  0  0  0  0
    8.6065  -16.1699   23.8608 O   0  0  0  0  0  0  0  0  0  0  0  0
    6.0141  -13.1359   26.9157 C   0  0  0  0  0  0  0  0  0  0  0  0
    7.1741  -12.9062   26.0287 C   0  0  2  0  0  0  0  0  0  0  0  0
    6.7305  -12.1254   24.8101 C   0  0  0  0  0  0  0  0  0  0  0  0
    7.8782  -14.1777   25.6756 C   0  0  2  0  0  0  0  0  0  0  0  0
    6.9285  -15.0492   24.9282 N   0  0  0  0  0  0  0  0  0  0  0  0
    8.3686  -14.9650   26.8317 C   0  0  0  0  0  0  0  0  0  0  0  0
    7.6019  -15.8427   27.3856 O   0  0  0  0  0  0  0  0  0  0  0  0
    9.6362  -14.8604   27.4167 N   0  0  0  0  0  0  0  0  0  0  0  0
   10.0466  -15.6259   28.5824 C   0  0  1  0  0  0  0  0  0  0  0  0
   11.1802  -16.5361   28.0847 C   0  0  0  0  0  0  0  0  0  0  0  0
   12.4429  -15.6087   27.2125 S   0  0  0  0  0  0  0  0  0  0  0  0
   10.6561  -14.7066   29.5562 C   0  0  0  0  0  0  0  0  0  0  0  0
   10.7899  -13.4642   29.3425 O   0  0  0  0  0  0  0  0  0  0  0  0
   11.1142  -15.1764   30.7652 O   0  0  0  0  0  0  0  0  0  0  0  0
  2  1  1  6
  2  3  1  0
  3  4  1  0
  4  5  1  0
  5  6  1  0
  6  7  1  0
  8  2  1  0
  8 14  1  0
  9  8  2  0
 11 10  1  1
 11 13  1  0
 11 12  1  0
 13 14  1  1
 15 17  1  0
 15 13  1  0
 16 15  2  0
 18 17  1  0
 18 21  1  0
 18 19  1  6
 20 19  1  0
 21 23  1  0
 22 21  2  0
M  END
$$$$
