KVC.pdb
     RDKit          3D

 23 22  0  0  1  0  0  0  0  0999 V2000
    9.7849  -15.9884   20.9762 N   0  0  0  0  0  0  0  0  0  0  0  0
    8.8719  -16.3583   22.0262 C   0  0  1  0  0  0  0  0  0  0  0  0
    8.9788  -17.8171   22.3613 C   0  0  0  0  0  0  0  0  0  0  0  0
    8.5851  -18.6608   21.1904 C   0  0  0  0  0  0  0  0  0  0  0  0
    8.5968  -20.1441   21.4659 C   0  0  0  0  0  0  0  0  0  0  0  0
    8.2426  -20.8309   20.1452 C   0  0  0  0  0  0  0  0  0  0  0  0
    8.2567  -22.2689   20.4066 N   0  0  0  0  0  0  0  0  0  0  0  0
    9.0340  -15.5017   23.2341 C   0  0  0  0  0  0  0  0  0  0  0  0
   10.2066  -15.1583   23.5265 O   0  0  0  0  0  0  0  0  0  0  0  0
    6.6099  -12.5113   24.3537 C   0  0  0  0  0  0  0  0  0  0  0  0
    6.9541  -13.4123   25.4739 C   0  0  2  0  0  0  0  0  0  0  0  0
    7.0093  -12.6181   26.7614 C   0  0  0  0  0  0  0  0  0  0  0  0
    8.2097  -14.1832   25.2160 C   0  0  2  0  0  0  0  0  0  0  0  0
    7.9841  -15.0694   24.0398 N   0  0  0  0  0  0  0  0  0  0  0  0
    8.6531  -15.0514   26.3325 C   0  0  0  0  0  0  0  0  0  0  0  0
    7.9889  -16.1193   26.6214 O   0  0  0  0  0  0  0  0  0  0  0  0
    9.7708  -14.8335   27.1469 N   0  0  0  0  0  0  0  0  0  0  0  0
   10.1692  -15.7318   28.2182 C   0  0  1  0  0  0  0  0  0  0  0  0
   11.6792  -15.9404   28.0248 C   0  0  0  0  0  0  0  0  0  0  0  0
   12.0908  -17.6745   27.8278 S   0  0  0  0  0  0  0  0  0  0  0  0
   10.0132  -15.0292   29.5015 C   0  0  0  0  0  0  0  0  0  0  0  0
    9.8168  -13.7795   29.5849 O   0  0  0  0  0  0  0  0  0  0  0  0
   10.0767  -15.7230   30.6876 O   0  0  0  0  0  0  0  0  0  0  0  0
  2  1  1  6
  2  3  1  0
  3  4  1  0
  4  5  1  0
  5  6  1  0
  6  7  1  0
  8  2  1  0
  8 14  1  0
  9  8  2  0
 11 10  1  6
 11 13  1  0
 11 12  1  0
 13 14  1  6
 15 17  1  0
 15 13  1  0
 16 15  2  0
 18 17  1  0
 18 21  1  0
 18 19  1  6
 20 19  1  0
 21 23  1  0
 22 21  2  0
M  END
$$$$
