KVC.pdb
     RDKit          3D

 23 22  0  0  1  0  0  0  0  0999 V2000
    8.7899  -16.6176   16.0008 N   0  0  0  0  0  0  0  0  0  0  0  0
    8.3152  -17.0085   17.3026 C   0  0  1  0  0  0  0  0  0  0  0  0
    8.5175  -18.4754   17.5457 C   0  0  0  0  0  0  0  0  0  0  0  0
    7.4895  -19.2809   16.8163 C   0  0  0  0  0  0  0  0  0  0  0  0
    7.6289  -20.7720   16.9996 C   0  0  0  0  0  0  0  0  0  0  0  0
    7.3228  -21.0561   18.4718 C   0  0  0  0  0  0  0  0  0  0  0  0
    7.4172  -22.5043   18.6448 N   0  0  0  0  0  0  0  0  0  0  0  0
    8.9153  -16.1819   18.3868 C   0  0  0  0  0  0  0  0  0  0  0  0
   10.0988  -15.7982   18.2116 O   0  0  0  0  0  0  0  0  0  0  0  0
    6.6649  -14.5504   21.5999 C   0  0  0  0  0  0  0  0  0  0  0  0
    7.8481  -13.9084   20.9893 C   0  0  2  0  0  0  0  0  0  0  0  0
    7.4044  -13.0021   19.8611 C   0  0  0  0  0  0  0  0  0  0  0  0
    8.8757  -14.9064   20.5589 C   0  0  2  0  0  0  0  0  0  0  0  0
    8.2549  -15.8182   19.5572 N   0  0  0  0  0  0  0  0  0  0  0  0
    9.4146  -15.7597   21.6444 C   0  0  0  0  0  0  0  0  0  0  0  0
    8.7970  -16.8417   21.9805 O   0  0  0  0  0  0  0  0  0  0  0  0
   10.5799  -15.5126   22.3800 N   0  0  0  0  0  0  0  0  0  0  0  0
   11.0955  -16.4189   23.3929 C   0  0  1  0  0  0  0  0  0  0  0  0
   12.5400  -15.9587   23.6437 C   0  0  0  0  0  0  0  0  0  0  0  0
   13.5286  -16.0279   22.1494 S   0  0  0  0  0  0  0  0  0  0  0  0
   10.3658  -16.1828   24.6485 C   0  0  0  0  0  0  0  0  0  0  0  0
    9.4903  -15.2750   24.7779 O   0  0  0  0  0  0  0  0  0  0  0  0
   10.6150  -16.9602   25.7556 O   0  0  0  0  0  0  0  0  0  0  0  0
  2  1  1  6
  2  3  1  0
  3  4  1  0
  4  5  1  0
  5  6  1  0
  6  7  1  0
  8  2  1  0
  8 14  1  0
  9  8  2  0
 11 10  1  6
 11 13  1  0
 11 12  1  0
 13 14  1  6
 15 17  1  0
 15 13  1  0
 16 15  2  0
 18 17  1  0
 18 21  1  0
 18 19  1  1
 20 19  1  0
 21 23  1  0
 22 21  2  0
M  END
$$$$
