KVC.pdb
     RDKit          3D

 23 22  0  0  1  0  0  0  0  0999 V2000
    7.0280  -16.0322   21.1216 N   0  0  0  0  0  0  0  0  0  0  0  0
    6.7562  -16.3336   22.5030 C   0  0  1  0  0  0  0  0  0  0  0  0
    6.9766  -17.7872   22.8039 C   0  0  0  0  0  0  0  0  0  0  0  0
    5.8937  -18.6241   22.1999 C   0  0  0  0  0  0  0  0  0  0  0  0
    6.0435  -20.1041   22.4522 C   0  0  0  0  0  0  0  0  0  0  0  0
    5.4589  -20.3661   23.8418 C   0  0  0  0  0  0  0  0  0  0  0  0
    5.5216  -21.8107   24.0545 N   0  0  0  0  0  0  0  0  0  0  0  0
    7.5268  -15.4561   23.4277 C   0  0  0  0  0  0  0  0  0  0  0  0
    8.6825  -15.1287   23.0595 O   0  0  0  0  0  0  0  0  0  0  0  0
    6.3143  -12.2347   25.3903 C   0  0  0  0  0  0  0  0  0  0  0  0
    6.9782  -13.2052   26.2862 C   0  0  2  0  0  0  0  0  0  0  0  0
    7.6877  -12.4621   27.3978 C   0  0  0  0  0  0  0  0  0  0  0  0
    7.8836  -14.1353   25.5430 C   0  0  2  0  0  0  0  0  0  0  0  0
    7.0506  -14.9883   24.6494 N   0  0  0  0  0  0  0  0  0  0  0  0
    8.6792  -15.0504   26.3953 C   0  0  0  0  0  0  0  0  0  0  0  0
    8.0909  -15.9874   27.0593 O   0  0  0  0  0  0  0  0  0  0  0  0
   10.0683  -15.0124   26.5656 N   0  0  0  0  0  0  0  0  0  0  0  0
   10.7987  -15.9475   27.4056 C   0  0  1  0  0  0  0  0  0  0  0  0
   12.2809  -15.6021   27.1939 C   0  0  0  0  0  0  0  0  0  0  0  0
   13.3484  -16.5743   28.2572 S   0  0  0  0  0  0  0  0  0  0  0  0
   10.5032  -15.6418   28.8141 C   0  0  0  0  0  0  0  0  0  0  0  0
   10.5249  -16.5182   29.7300 O   0  0  0  0  0  0  0  0  0  0  0  0
   10.1847  -14.3593   29.1964 O   0  0  0  0  0  0  0  0  0  0  0  0
  2  1  1  6
  2  3  1  0
  3  4  1  0
  4  5  1  0
  5  6  1  0
  6  7  1  0
  8  2  1  0
  8 14  1  0
  9  8  2  0
 11 10  1  6
 11 13  1  0
 11 12  1  0
 13 14  1  6
 15 17  1  0
 15 13  1  0
 16 15  2  0
 18 17  1  0
 18 21  1  0
 18 19  1  1
 20 19  1  0
 21 23  1  0
 22 21  2  0
M  END
$$$$
