KVC.pdb
     RDKit          3D

 23 22  0  0  1  0  0  0  0  0999 V2000
    8.5858  -15.2341   20.7736 N   0  0  0  0  0  0  0  0  0  0  0  0
    8.0099  -15.7569   21.9851 C   0  0  1  0  0  0  0  0  0  0  0  0
    8.2856  -17.2240   22.1383 C   0  0  0  0  0  0  0  0  0  0  0  0
    7.5728  -18.0107   21.0844 C   0  0  0  0  0  0  0  0  0  0  0  0
    7.7781  -19.5023   21.1821 C   0  0  0  0  0  0  0  0  0  0  0  0
    6.9813  -20.1235   20.0328 C   0  0  0  0  0  0  0  0  0  0  0  0
    7.9587  -20.5707   19.0424 N   0  0  0  0  0  0  0  0  0  0  0  0
    8.4404  -14.9867   23.1853 C   0  0  0  0  0  0  0  0  0  0  0  0
    9.6245  -14.5668   23.1888 O   0  0  0  0  0  0  0  0  0  0  0  0
    6.5943  -12.0958   25.1606 C   0  0  0  0  0  0  0  0  0  0  0  0
    7.0206  -13.1875   26.0615 C   0  0  2  0  0  0  0  0  0  0  0  0
    7.3576  -12.6162   27.4221 C   0  0  0  0  0  0  0  0  0  0  0  0
    8.1368  -13.9973   25.4821 C   0  0  2  0  0  0  0  0  0  0  0  0
    7.6242  -14.7115   24.2791 N   0  0  0  0  0  0  0  0  0  0  0  0
    8.7009  -15.0261   26.3877 C   0  0  0  0  0  0  0  0  0  0  0  0
    7.9554  -15.9901   26.8118 O   0  0  0  0  0  0  0  0  0  0  0  0
   10.0200  -15.0735   26.8544 N   0  0  0  0  0  0  0  0  0  0  0  0
   10.5145  -16.1006   27.7566 C   0  0  1  0  0  0  0  0  0  0  0  0
   12.0305  -16.1524   27.5114 C   0  0  0  0  0  0  0  0  0  0  0  0
   12.4159  -16.3701   25.7739 S   0  0  0  0  0  0  0  0  0  0  0  0
   10.3384  -15.6334   29.1405 C   0  0  0  0  0  0  0  0  0  0  0  0
    9.9247  -14.4703   29.4291 O   0  0  0  0  0  0  0  0  0  0  0  0
   10.6242  -16.4653   30.1982 O   0  0  0  0  0  0  0  0  0  0  0  0
  2  1  1  6
  2  3  1  0
  3  4  1  0
  4  5  1  0
  5  6  1  0
  6  7  1  0
  8  2  1  0
  8 14  1  0
  9  8  2  0
 11 10  1  6
 11 13  1  0
 11 12  1  0
 13 14  1  6
 15 17  1  0
 15 13  1  0
 16 15  2  0
 18 17  1  0
 18 21  1  0
 18 19  1  6
 20 19  1  0
 21 23  1  0
 22 21  2  0
M  END
$$$$
