KVC.pdb
     RDKit          3D

 23 22  0  0  1  0  0  0  0  0999 V2000
    6.4735  -18.3546   23.0124 N   0  0  0  0  0  0  0  0  0  0  0  0
    6.4530  -17.8541   24.3622 C   0  0  1  0  0  0  0  0  0  0  0  0
    6.9744  -18.8707   25.3352 C   0  0  0  0  0  0  0  0  0  0  0  0
    6.5578  -20.2506   24.9351 C   0  0  0  0  0  0  0  0  0  0  0  0
    7.6436  -21.2888   25.0755 C   0  0  0  0  0  0  0  0  0  0  0  0
    7.0187  -22.6244   24.6666 C   0  0  0  0  0  0  0  0  0  0  0  0
    8.0169  -23.6545   24.9473 N   0  0  0  0  0  0  0  0  0  0  0  0
    7.1694  -16.5540   24.4862 C   0  0  0  0  0  0  0  0  0  0  0  0
    7.9496  -16.2504   23.5494 O   0  0  0  0  0  0  0  0  0  0  0  0
    5.3954  -13.1861   25.6751 C   0  0  0  0  0  0  0  0  0  0  0  0
    6.7055  -13.4016   26.3250 C   0  0  2  0  0  0  0  0  0  0  0  0
    7.3443  -12.0633   26.6284 C   0  0  0  0  0  0  0  0  0  0  0  0
    7.5950  -14.2982   25.5237 C   0  0  2  0  0  0  0  0  0  0  0  0
    7.0272  -15.6753   25.5567 N   0  0  0  0  0  0  0  0  0  0  0  0
    8.9914  -14.3948   26.0113 C   0  0  0  0  0  0  0  0  0  0  0  0
    9.7045  -13.3271   26.1399 O   0  0  0  0  0  0  0  0  0  0  0  0
    9.6551  -15.5741   26.3701 N   0  0  0  0  0  0  0  0  0  0  0  0
   10.2532  -15.7913   27.6772 C   0  0  1  0  0  0  0  0  0  0  0  0
    9.5977  -14.7482   28.5955 C   0  0  0  0  0  0  0  0  0  0  0  0
   10.7982  -13.9594   29.6687 S   0  0  0  0  0  0  0  0  0  0  0  0
    9.8225  -17.1064   28.1770 C   0  0  0  0  0  0  0  0  0  0  0  0
    8.7272  -17.6484   27.8395 O   0  0  0  0  0  0  0  0  0  0  0  0
   10.6153  -17.8128   29.0516 O   0  0  0  0  0  0  0  0  0  0  0  0
  2  1  1  6
  2  3  1  0
  3  4  1  0
  4  5  1  0
  5  6  1  0
  6  7  1  0
  8  2  1  0
  8 14  1  0
  9  8  2  0
 11 10  1  6
 11 13  1  0
 11 12  1  0
 13 14  1  1
 15 17  1  0
 15 13  1  0
 16 15  2  0
 18 17  1  0
 18 21  1  0
 18 19  1  1
 20 19  1  0
 21 23  1  0
 22 21  2  0
M  END
$$$$
