KVC.pdb
     RDKit          3D

 23 22  0  0  1  0  0  0  0  0999 V2000
   10.7653  -16.1795   20.2150 N   0  0  0  0  0  0  0  0  0  0  0  0
   10.0745  -16.8561   21.2817 C   0  0  1  0  0  0  0  0  0  0  0  0
   10.6799  -18.1994   21.5660 C   0  0  0  0  0  0  0  0  0  0  0  0
   10.0693  -19.2516   20.6955 C   0  0  0  0  0  0  0  0  0  0  0  0
   10.5906  -20.6441   20.9514 C   0  0  0  0  0  0  0  0  0  0  0  0
    9.4221  -21.4417   21.5346 C   0  0  0  0  0  0  0  0  0  0  0  0
    9.9268  -22.7879   21.7977 N   0  0  0  0  0  0  0  0  0  0  0  0
    9.9888  -16.0187   22.5106 C   0  0  0  0  0  0  0  0  0  0  0  0
   11.0134  -15.3573   22.8128 O   0  0  0  0  0  0  0  0  0  0  0  0
    6.8626  -13.7849   23.5972 C   0  0  0  0  0  0  0  0  0  0  0  0
    7.3892  -14.5996   24.7125 C   0  0  2  0  0  0  0  0  0  0  0  0
    7.1854  -13.8602   26.0175 C   0  0  0  0  0  0  0  0  0  0  0  0
    8.8120  -15.0065   24.4948 C   0  0  2  0  0  0  0  0  0  0  0  0
    8.8637  -15.9286   23.3257 N   0  0  0  0  0  0  0  0  0  0  0  0
    9.4426  -15.7161   25.6331 C   0  0  0  0  0  0  0  0  0  0  0  0
    9.3426  -16.9991   25.7279 O   0  0  0  0  0  0  0  0  0  0  0  0
   10.1751  -15.1202   26.6667 N   0  0  0  0  0  0  0  0  0  0  0  0
   10.9018  -15.8766   27.6733 C   0  0  1  0  0  0  0  0  0  0  0  0
   11.3990  -14.8278   28.6803 C   0  0  0  0  0  0  0  0  0  0  0  0
   10.0591  -13.8046   29.2907 S   0  0  0  0  0  0  0  0  0  0  0  0
    9.9462  -16.7249   28.4027 C   0  0  0  0  0  0  0  0  0  0  0  0
    8.6912  -16.6483   28.2402 O   0  0  0  0  0  0  0  0  0  0  0  0
   10.3939  -17.6562   29.3108 O   0  0  0  0  0  0  0  0  0  0  0  0
  2  1  1  6
  2  3  1  0
  3  4  1  0
  4  5  1  0
  5  6  1  0
  6  7  1  0
  8  2  1  0
  8 14  1  0
  9  8  2  0
 11 10  1  6
 11 13  1  0
 11 12  1  0
 13 14  1  6
 15 17  1  0
 15 13  1  0
 16 15  2  0
 18 17  1  0
 18 21  1  0
 18 19  1  1
 20 19  1  0
 21 23  1  0
 22 21  2  0
M  END
$$$$
