KVC.pdb
     RDKit          3D

 23 22  0  0  1  0  0  0  0  0999 V2000
    8.5723  -18.3514   16.9386 N   0  0  0  0  0  0  0  0  0  0  0  0
    7.6684  -17.8778   17.9542 C   0  0  1  0  0  0  0  0  0  0  0  0
    6.9777  -19.0135   18.6507 C   0  0  0  0  0  0  0  0  0  0  0  0
    5.9631  -19.6481   17.7530 C   0  0  0  0  0  0  0  0  0  0  0  0
    5.6839  -21.0978   18.0639 C   0  0  0  0  0  0  0  0  0  0  0  0
    4.7225  -21.5936   16.9815 C   0  0  0  0  0  0  0  0  0  0  0  0
    4.5318  -23.0234   17.2170 N   0  0  0  0  0  0  0  0  0  0  0  0
    8.3429  -16.9668   18.9207 C   0  0  0  0  0  0  0  0  0  0  0  0
    9.5828  -17.1134   19.0601 O   0  0  0  0  0  0  0  0  0  0  0  0
    7.1186  -13.1595   19.6116 C   0  0  0  0  0  0  0  0  0  0  0  0
    7.5481  -13.8702   20.8345 C   0  0  2  0  0  0  0  0  0  0  0  0
    8.1778  -12.8848   21.7957 C   0  0  0  0  0  0  0  0  0  0  0  0
    8.4398  -15.0321   20.5313 C   0  0  2  0  0  0  0  0  0  0  0  0
    7.6926  -15.9839   19.6619 N   0  0  0  0  0  0  0  0  0  0  0  0
    8.8979  -15.7969   21.7154 C   0  0  0  0  0  0  0  0  0  0  0  0
    8.0564  -16.5045   22.3908 O   0  0  0  0  0  0  0  0  0  0  0  0
   10.2087  -15.8431   22.2051 N   0  0  0  0  0  0  0  0  0  0  0  0
   10.5938  -16.5824   23.3961 C   0  0  1  0  0  0  0  0  0  0  0  0
   11.8058  -17.4250   22.9696 C   0  0  0  0  0  0  0  0  0  0  0  0
   12.5225  -18.3079   24.3560 S   0  0  0  0  0  0  0  0  0  0  0  0
   11.0902  -15.6282   24.4000 C   0  0  0  0  0  0  0  0  0  0  0  0
   11.5032  -14.4668   24.1037 O   0  0  0  0  0  0  0  0  0  0  0  0
   11.1243  -15.9728   25.7314 O   0  0  0  0  0  0  0  0  0  0  0  0
  2  1  1  6
  2  3  1  0
  3  4  1  0
  4  5  1  0
  5  6  1  0
  6  7  1  0
  8  2  1  0
  8 14  1  0
  9  8  2  0
 11 10  1  6
 11 13  1  0
 11 12  1  0
 13 14  1  6
 15 17  1  0
 15 13  1  0
 16 15  2  0
 18 17  1  0
 18 21  1  0
 18 19  1  6
 20 19  1  0
 21 23  1  0
 22 21  2  0
M  END
$$$$
