KVC.pdb
     RDKit          3D

 23 22  0  0  1  0  0  0  0  0999 V2000
    8.9651  -15.7204   20.8120 N   0  0  0  0  0  0  0  0  0  0  0  0
    8.0407  -15.9947   21.8812 C   0  0  1  0  0  0  0  0  0  0  0  0
    7.8511  -17.4698   22.0813 C   0  0  0  0  0  0  0  0  0  0  0  0
    7.3682  -18.1182   20.8227 C   0  0  0  0  0  0  0  0  0  0  0  0
    5.9327  -17.8062   20.4785 C   0  0  0  0  0  0  0  0  0  0  0  0
    5.6067  -18.6108   19.2183 C   0  0  0  0  0  0  0  0  0  0  0  0
    4.9477  -19.8363   19.6655 N   0  0  0  0  0  0  0  0  0  0  0  0
    8.4323  -15.3125   23.1462 C   0  0  0  0  0  0  0  0  0  0  0  0
    9.6610  -15.2706   23.4053 O   0  0  0  0  0  0  0  0  0  0  0  0
    6.6853  -12.0590   24.8978 C   0  0  0  0  0  0  0  0  0  0  0  0
    6.9080  -13.2023   25.8079 C   0  0  2  0  0  0  0  0  0  0  0  0
    7.1679  -12.6893   27.2081 C   0  0  0  0  0  0  0  0  0  0  0  0
    7.9864  -14.1154   25.3175 C   0  0  2  0  0  0  0  0  0  0  0  0
    7.5350  -14.7315   24.0382 N   0  0  0  0  0  0  0  0  0  0  0  0
    8.3316  -15.2276   26.2345 C   0  0  0  0  0  0  0  0  0  0  0  0
    7.5638  -16.2618   26.3111 O   0  0  0  0  0  0  0  0  0  0  0  0
    9.4567  -15.2860   27.0656 N   0  0  0  0  0  0  0  0  0  0  0  0
    9.7927  -16.4428   27.8794 C   0  0  1  0  0  0  0  0  0  0  0  0
   10.8933  -17.1764   27.0972 C   0  0  0  0  0  0  0  0  0  0  0  0
   11.5558  -18.5619   28.0227 S   0  0  0  0  0  0  0  0  0  0  0  0
   10.4184  -15.9735   29.1256 C   0  0  0  0  0  0  0  0  0  0  0  0
   10.8388  -14.7879   29.2831 O   0  0  0  0  0  0  0  0  0  0  0  0
   10.5730  -16.8285   30.1922 O   0  0  0  0  0  0  0  0  0  0  0  0
  2  1  1  6
  2  3  1  0
  3  4  1  0
  4  5  1  0
  5  6  1  0
  6  7  1  0
  8  2  1  0
  8 14  1  0
  9  8  2  0
 11 10  1  6
 11 13  1  0
 11 12  1  0
 13 14  1  6
 15 17  1  0
 15 13  1  0
 16 15  2  0
 18 17  1  0
 18 21  1  0
 18 19  1  6
 20 19  1  0
 21 23  1  0
 22 21  2  0
M  END
$$$$
