KVC.pdb
     RDKit          3D

 23 22  0  0  1  0  0  0  0  0999 V2000
    5.6571  -18.8870   19.2319 N   0  0  0  0  0  0  0  0  0  0  0  0
    5.5542  -17.9712   20.3381 C   0  0  1  0  0  0  0  0  0  0  0  0
    5.3674  -18.6962   21.6386 C   0  0  0  0  0  0  0  0  0  0  0  0
    4.6422  -19.9874   21.4270 C   0  0  0  0  0  0  0  0  0  0  0  0
    4.4488  -20.8004   22.6831 C   0  0  0  0  0  0  0  0  0  0  0  0
    3.6864  -22.0606   22.2681 C   0  0  0  0  0  0  0  0  0  0  0  0
    3.4374  -22.8189   23.4925 N   0  0  0  0  0  0  0  0  0  0  0  0
    6.7073  -17.0298   20.3922 C   0  0  0  0  0  0  0  0  0  0  0  0
    7.8147  -17.4739   19.9987 O   0  0  0  0  0  0  0  0  0  0  0  0
    6.6436  -13.1661   19.4989 C   0  0  0  0  0  0  0  0  0  0  0  0
    7.3685  -13.4103   20.7638 C   0  0  2  0  0  0  0  0  0  0  0  0
    8.5018  -12.4155   20.8959 C   0  0  0  0  0  0  0  0  0  0  0  0
    7.8268  -14.8285   20.8897 C   0  0  2  0  0  0  0  0  0  0  0  0
    6.6302  -15.7151   20.8439 N   0  0  0  0  0  0  0  0  0  0  0  0
    8.5510  -15.1446   22.1438 C   0  0  0  0  0  0  0  0  0  0  0  0
    7.8996  -15.2668   23.2509 O   0  0  0  0  0  0  0  0  0  0  0  0
    9.9319  -15.3395   22.2665 N   0  0  0  0  0  0  0  0  0  0  0  0
   10.5756  -15.7588   23.5007 C   0  0  1  0  0  0  0  0  0  0  0  0
   10.0287  -17.1677   23.7786 C   0  0  0  0  0  0  0  0  0  0  0  0
    9.9812  -17.5279   25.5345 S   0  0  0  0  0  0  0  0  0  0  0  0
   12.0158  -15.9204   23.2469 C   0  0  0  0  0  0  0  0  0  0  0  0
   12.4955  -16.1123   22.0892 O   0  0  0  0  0  0  0  0  0  0  0  0
   12.9162  -15.8671   24.2855 O   0  0  0  0  0  0  0  0  0  0  0  0
  2  1  1  6
  2  3  1  0
  3  4  1  0
  4  5  1  0
  5  6  1  0
  6  7  1  0
  8  2  1  0
  8 14  1  0
  9  8  2  0
 11 10  1  6
 11 13  1  0
 11 12  1  0
 13 14  1  1
 15 17  1  0
 15 13  1  0
 16 15  2  0
 18 17  1  0
 18 21  1  0
 18 19  1  6
 20 19  1  0
 21 23  1  0
 22 21  2  0
M  END
$$$$
