KVC.pdb
     RDKit          3D

 23 22  0  0  1  0  0  0  0  0999 V2000
    9.6084  -17.4094   16.2334 N   0  0  0  0  0  0  0  0  0  0  0  0
    8.5021  -17.1034   17.1024 C   0  0  1  0  0  0  0  0  0  0  0  0
    7.7297  -18.3373   17.4670 C   0  0  0  0  0  0  0  0  0  0  0  0
    8.5802  -19.2820   18.2557 C   0  0  0  0  0  0  0  0  0  0  0  0
    7.8893  -20.5701   18.6294 C   0  0  0  0  0  0  0  0  0  0  0  0
    8.8943  -21.3741   19.4573 C   0  0  0  0  0  0  0  0  0  0  0  0
    8.2313  -22.6263   19.8158 N   0  0  0  0  0  0  0  0  0  0  0  0
    8.9341  -16.3463   18.3103 C   0  0  0  0  0  0  0  0  0  0  0  0
   10.1698  -16.2996   18.5324 O   0  0  0  0  0  0  0  0  0  0  0  0
    7.2327  -12.9141   19.5203 C   0  0  0  0  0  0  0  0  0  0  0  0
    7.5048  -13.8443   20.6364 C   0  0  2  0  0  0  0  0  0  0  0  0
    7.8239  -13.0526   21.8865 C   0  0  0  0  0  0  0  0  0  0  0  0
    8.5665  -14.8416   20.2971 C   0  0  2  0  0  0  0  0  0  0  0  0
    8.0665  -15.7016   19.1879 N   0  0  0  0  0  0  0  0  0  0  0  0
    8.9537  -15.7470   21.4050 C   0  0  0  0  0  0  0  0  0  0  0  0
    8.1635  -16.7024   21.7626 O   0  0  0  0  0  0  0  0  0  0  0  0
   10.1428  -15.6806   22.1409 N   0  0  0  0  0  0  0  0  0  0  0  0
   10.4757  -16.6065   23.2111 C   0  0  1  0  0  0  0  0  0  0  0  0
   12.0054  -16.7428   23.1608 C   0  0  0  0  0  0  0  0  0  0  0  0
   12.5568  -17.4810   21.6226 S   0  0  0  0  0  0  0  0  0  0  0  0
   10.1629  -15.9668   24.4986 C   0  0  0  0  0  0  0  0  0  0  0  0
    9.7325  -14.7780   24.5922 O   0  0  0  0  0  0  0  0  0  0  0  0
   10.3312  -16.6554   25.6775 O   0  0  0  0  0  0  0  0  0  0  0  0
  2  1  1  1
  2  3  1  0
  3  4  1  0
  4  5  1  0
  5  6  1  0
  6  7  1  0
  8  2  1  0
  8 14  1  0
  9  8  2  0
 11 10  1  6
 11 13  1  0
 11 12  1  0
 13 14  1  6
 15 17  1  0
 15 13  1  0
 16 15  2  0
 18 17  1  0
 18 21  1  0
 18 19  1  1
 20 19  1  0
 21 23  1  0
 22 21  2  0
M  END
$$$$
