QFE.pdb
     RDKit          3D

 30 30  0  0  1  0  0  0  0  0999 V2000
   23.4587  -37.3447   -4.2476 N   0  0  0  0  0  0  0  0  0  0  0  0
   24.3724  -37.6635   -5.2805 C   0  0  0  0  0  0  0  0  0  0  0  0
   24.4524  -36.9049   -6.2685 O   0  0  0  0  0  0  0  0  0  0  0  0
   25.2316  -38.8696   -5.2175 C   0  0  0  0  0  0  0  0  0  0  0  0
   26.4063  -38.6267   -4.3284 C   0  0  0  0  0  0  0  0  0  0  0  0
   27.3952  -37.6563   -4.8779 C   0  0  2  0  0  0  0  0  0  0  0  0
   28.2524  -38.2240   -5.8947 N   0  0  0  0  0  0  0  0  0  0  0  0
   28.1986  -37.1375   -3.7226 C   0  0  0  0  0  0  0  0  0  0  0  0
   29.1175  -37.9228   -3.3184 O   0  0  0  0  0  0  0  0  0  0  0  0
   27.9666  -35.8814   -3.1210 N   0  0  0  0  0  0  0  0  0  0  0  0
   28.8095  -35.3927   -2.0781 C   0  0  1  0  0  0  0  0  0  0  0  0
   28.9733  -33.8915   -2.1036 C   0  0  0  0  0  0  0  0  0  0  0  0
   27.6935  -33.1752   -2.1664 C   0  0  0  0  0  0  0  0  0  0  0  0
   27.1537  -32.6472   -1.0231 C   0  0  0  0  0  0  0  0  0  0  0  0
   25.9420  -31.9768   -1.1199 C   0  0  0  0  0  0  0  0  0  0  0  0
   25.2779  -31.8307   -2.3177 C   0  0  0  0  0  0  0  0  0  0  0  0
   25.8241  -32.3631   -3.4646 C   0  0  0  0  0  0  0  0  0  0  0  0
   27.0456  -33.0395   -3.3700 C   0  0  0  0  0  0  0  0  0  0  0  0
   28.2953  -35.7521   -0.7210 C   0  0  0  0  0  0  0  0  0  0  0  0
   27.1023  -36.0665   -0.5821 O   0  0  0  0  0  0  0  0  0  0  0  0
   29.1339  -35.7406    0.3935 N   0  0  0  0  0  0  0  0  0  0  0  0
   28.7287  -36.0905    1.7540 C   0  0  1  0  0  0  0  0  0  0  0  0
   29.8807  -36.4508    2.6038 C   0  0  0  0  0  0  0  0  0  0  0  0
   29.4308  -36.9188    3.9589 C   0  0  0  0  0  0  0  0  0  0  0  0
   30.5947  -37.2395    4.8377 C   0  0  0  0  0  0  0  0  0  0  0  0
   30.5499  -38.2963    5.5072 O   0  0  0  0  0  0  0  0  0  0  0  0
   27.8995  -34.9771    2.2354 C   0  0  0  0  0  0  0  0  0  0  0  0
   28.0831  -33.6754    1.7755 O   0  0  0  0  0  0  0  0  0  0  0  0
   31.7006  -36.4281    4.9386 O   0  0  0  0  0  0  0  0  0  0  0  0
   26.9928  -35.1369    3.0761 O   0  0  0  0  0  0  0  0  0  0  0  0
  2  1  1  0
  3  2  2  0
  4  2  1  0
  5  4  1  0
  6  5  1  0
  6  7  1  6
  8  6  1  0
  8  9  2  0
 10  8  1  0
 11 10  1  0
 11 12  1  1
 13 14  2  0
 13 12  1  0
 15 14  1  0
 16 15  2  0
 17 16  1  0
 17 18  2  0
 18 13  1  0
 19 11  1  0
 20 19  2  0
 21 19  1  0
 22 23  1  1
 22 21  1  0
 24 25  1  0
 24 23  1  0
 25 29  1  0
 26 25  2  0
 27 22  1  0
 27 28  1  0
 30 27  2  0
M  END
$$$$
