QFE.pdb
     RDKit          3D

 30 30  0  0  1  0  0  0  0  0999 V2000
   22.7020  -11.3077  -23.1414 N   0  0  0  0  0  0  0  0  0  0  0  0
   21.6025  -11.1342  -22.2672 C   0  0  0  0  0  0  0  0  0  0  0  0
   20.5484  -11.7633  -22.4939 O   0  0  0  0  0  0  0  0  0  0  0  0
   21.6722  -10.2288  -21.0958 C   0  0  0  0  0  0  0  0  0  0  0  0
   23.0006   -9.5493  -21.0407 C   0  0  0  0  0  0  0  0  0  0  0  0
   23.8379   -9.9433  -19.8724 C   0  0  2  0  0  0  0  0  0  0  0  0
   23.9056  -11.3736  -19.6711 N   0  0  0  0  0  0  0  0  0  0  0  0
   23.2714   -9.2547  -18.6665 C   0  0  0  0  0  0  0  0  0  0  0  0
   22.4622   -9.9618  -17.9812 O   0  0  0  0  0  0  0  0  0  0  0  0
   23.5996   -7.9293  -18.3072 N   0  0  0  0  0  0  0  0  0  0  0  0
   23.1878   -7.3774  -17.0570 C   0  0  1  0  0  0  0  0  0  0  0  0
   24.3468   -7.0205  -16.1568 C   0  0  0  0  0  0  0  0  0  0  0  0
   25.1452   -8.1863  -15.7592 C   0  0  0  0  0  0  0  0  0  0  0  0
   26.3085   -8.4719  -16.4243 C   0  0  0  0  0  0  0  0  0  0  0  0
   27.0377   -9.5824  -16.0216 C   0  0  0  0  0  0  0  0  0  0  0  0
   26.6282  -10.3929  -14.9859 C   0  0  0  0  0  0  0  0  0  0  0  0
   25.4581  -10.1021  -14.3200 C   0  0  0  0  0  0  0  0  0  0  0  0
   24.7210   -8.9832  -14.7239 C   0  0  0  0  0  0  0  0  0  0  0  0
   22.3712   -6.1368  -17.2287 C   0  0  0  0  0  0  0  0  0  0  0  0
   22.6462   -5.3450  -18.1446 O   0  0  0  0  0  0  0  0  0  0  0  0
   21.3038   -5.8532  -16.3769 N   0  0  0  0  0  0  0  0  0  0  0  0
   20.3685   -4.7417  -16.5424 C   0  0  1  0  0  0  0  0  0  0  0  0
   19.0052   -5.0885  -16.0948 C   0  0  0  0  0  0  0  0  0  0  0  0
   18.0664   -3.9275  -16.2631 C   0  0  0  0  0  0  0  0  0  0  0  0
   16.6792   -4.2841  -15.8410 C   0  0  0  0  0  0  0  0  0  0  0  0
   16.0829   -5.1783  -16.4829 O   0  0  0  0  0  0  0  0  0  0  0  0
   20.9855   -3.5832  -15.8820 C   0  0  0  0  0  0  0  0  0  0  0  0
   20.7482   -2.2812  -16.3157 O   0  0  0  0  0  0  0  0  0  0  0  0
   16.0392   -3.6751  -14.7870 O   0  0  0  0  0  0  0  0  0  0  0  0
   21.7496   -3.7028  -14.9042 O   0  0  0  0  0  0  0  0  0  0  0  0
  2  1  1  0
  3  2  2  0
  4  2  1  0
  5  4  1  0
  6  5  1  0
  6  7  1  1
  8  6  1  0
  8  9  2  0
 10  8  1  0
 11 10  1  0
 11 12  1  1
 13 14  2  0
 13 12  1  0
 15 14  1  0
 16 15  2  0
 17 16  1  0
 17 18  2  0
 18 13  1  0
 19 11  1  0
 20 19  2  0
 21 19  1  0
 22 23  1  1
 22 21  1  0
 24 25  1  0
 24 23  1  0
 25 29  1  0
 26 25  2  0
 27 22  1  0
 27 28  1  0
 30 27  2  0
M  END
$$$$
