QFE.pdb
     RDKit          3D

 30 30  0  0  1  0  0  0  0  0999 V2000
   26.3231  -16.2979  -13.9802 N   0  0  0  0  0  0  0  0  0  0  0  0
   26.4869  -16.5589  -15.3616 C   0  0  0  0  0  0  0  0  0  0  0  0
   25.8465  -15.8720  -16.1839 O   0  0  0  0  0  0  0  0  0  0  0  0
   27.3954  -17.6222  -15.8525 C   0  0  0  0  0  0  0  0  0  0  0  0
   28.0206  -18.3443  -14.7049 C   0  0  0  0  0  0  0  0  0  0  0  0
   28.2042  -19.8057  -14.9325 C   0  0  2  0  0  0  0  0  0  0  0  0
   28.4759  -20.1420  -16.3124 N   0  0  0  0  0  0  0  0  0  0  0  0
   26.9631  -20.4916  -14.4440 C   0  0  0  0  0  0  0  0  0  0  0  0
   26.0644  -20.6609  -15.3317 O   0  0  0  0  0  0  0  0  0  0  0  0
   26.7905  -20.9208  -13.1100 N   0  0  0  0  0  0  0  0  0  0  0  0
   25.6489  -21.6830  -12.7191 C   0  0  1  0  0  0  0  0  0  0  0  0
   25.8074  -22.3351  -11.3661 C   0  0  0  0  0  0  0  0  0  0  0  0
   25.9418  -21.3645  -10.2731 C   0  0  0  0  0  0  0  0  0  0  0  0
   24.8193  -20.8293   -9.6979 C   0  0  0  0  0  0  0  0  0  0  0  0
   24.9842  -19.9141   -8.6672 C   0  0  0  0  0  0  0  0  0  0  0  0
   26.2288  -19.5356   -8.2142 C   0  0  0  0  0  0  0  0  0  0  0  0
   27.3545  -20.0762   -8.7953 C   0  0  0  0  0  0  0  0  0  0  0  0
   27.1911  -20.9990   -9.8346 C   0  0  0  0  0  0  0  0  0  0  0  0
   24.4078  -20.8515  -12.6596 C   0  0  0  0  0  0  0  0  0  0  0  0
   24.4265  -19.7664  -12.0564 O   0  0  0  0  0  0  0  0  0  0  0  0
   23.2276  -21.2739  -13.2711 N   0  0  0  0  0  0  0  0  0  0  0  0
   22.0148  -20.4683  -13.4042 C   0  0  1  0  0  0  0  0  0  0  0  0
   21.8349  -19.9534  -14.7760 C   0  0  0  0  0  0  0  0  0  0  0  0
   20.5356  -19.2110  -14.9115 C   0  0  0  0  0  0  0  0  0  0  0  0
   20.7618  -17.7805  -15.2751 C   0  0  0  0  0  0  0  0  0  0  0  0
   20.3279  -16.9021  -14.4958 O   0  0  0  0  0  0  0  0  0  0  0  0
   20.9159  -21.2893  -12.8776 C   0  0  0  0  0  0  0  0  0  0  0  0
   19.8237  -20.7204  -12.2270 O   0  0  0  0  0  0  0  0  0  0  0  0
   21.4206  -17.3958  -16.4194 O   0  0  0  0  0  0  0  0  0  0  0  0
   20.9022  -22.5314  -12.9843 O   0  0  0  0  0  0  0  0  0  0  0  0
  2  1  1  0
  3  2  2  0
  4  2  1  0
  5  4  1  0
  6  5  1  0
  6  7  1  6
  8  6  1  0
  8  9  2  0
 10  8  1  0
 11 10  1  0
 11 12  1  1
 13 14  2  0
 13 12  1  0
 15 14  1  0
 16 15  2  0
 17 16  1  0
 17 18  2  0
 18 13  1  0
 19 11  1  0
 20 19  2  0
 21 19  1  0
 22 23  1  6
 22 21  1  0
 24 25  1  0
 24 23  1  0
 25 29  1  0
 26 25  2  0
 27 22  1  0
 27 28  1  0
 30 27  2  0
M  END
$$$$
