QFE.pdb
     RDKit          3D

 30 30  0  0  1  0  0  0  0  0999 V2000
   29.1419  -17.6404  -17.3350 N   0  0  0  0  0  0  0  0  0  0  0  0
   28.4549  -17.4076  -18.5503 C   0  0  0  0  0  0  0  0  0  0  0  0
   29.0461  -16.8053  -19.4699 O   0  0  0  0  0  0  0  0  0  0  0  0
   27.0582  -17.8592  -18.7561 C   0  0  0  0  0  0  0  0  0  0  0  0
   26.5752  -18.6184  -17.5646 C   0  0  0  0  0  0  0  0  0  0  0  0
   27.2566  -19.9281  -17.3602 C   0  0  2  0  0  0  0  0  0  0  0  0
   27.1224  -20.8267  -18.4851 N   0  0  0  0  0  0  0  0  0  0  0  0
   26.6873  -20.5360  -16.1129 C   0  0  0  0  0  0  0  0  0  0  0  0
   25.6886  -21.3045  -16.3037 O   0  0  0  0  0  0  0  0  0  0  0  0
   27.2062  -20.2857  -14.8239 N   0  0  0  0  0  0  0  0  0  0  0  0
   26.4982  -20.6841  -13.6503 C   0  0  1  0  0  0  0  0  0  0  0  0
   27.2266  -20.3381  -12.3733 C   0  0  0  0  0  0  0  0  0  0  0  0
   26.4021  -20.5247  -11.1733 C   0  0  0  0  0  0  0  0  0  0  0  0
   26.0586  -19.4402  -10.4096 C   0  0  0  0  0  0  0  0  0  0  0  0
   25.2784  -19.6541   -9.2816 C   0  0  0  0  0  0  0  0  0  0  0  0
   24.8468  -20.9098   -8.9152 C   0  0  0  0  0  0  0  0  0  0  0  0
   25.1945  -21.9972   -9.6858 C   0  0  0  0  0  0  0  0  0  0  0  0
   25.9810  -21.7845  -10.8236 C   0  0  0  0  0  0  0  0  0  0  0  0
   25.1454  -20.0533  -13.5652 C   0  0  0  0  0  0  0  0  0  0  0  0
   25.0301  -18.8281  -13.7296 O   0  0  0  0  0  0  0  0  0  0  0  0
   24.0088  -20.8184  -13.3043 N   0  0  0  0  0  0  0  0  0  0  0  0
   22.6316  -20.3367  -13.3977 C   0  0  1  0  0  0  0  0  0  0  0  0
   22.0860  -20.4682  -14.7630 C   0  0  0  0  0  0  0  0  0  0  0  0
   20.6845  -19.9324  -14.8420 C   0  0  0  0  0  0  0  0  0  0  0  0
   20.1239  -20.0760  -16.2185 C   0  0  0  0  0  0  0  0  0  0  0  0
   19.8018  -19.0333  -16.8319 O   0  0  0  0  0  0  0  0  0  0  0  0
   21.8821  -21.0257  -12.3381 C   0  0  0  0  0  0  0  0  0  0  0  0
   21.0418  -20.3353  -11.4682 O   0  0  0  0  0  0  0  0  0  0  0  0
   19.9500  -21.2950  -16.8309 O   0  0  0  0  0  0  0  0  0  0  0  0
   21.9578  -22.2577  -12.1620 O   0  0  0  0  0  0  0  0  0  0  0  0
  2  1  1  0
  3  2  2  0
  4  2  1  0
  5  4  1  0
  6  5  1  0
  6  7  1  6
  8  6  1  0
  8  9  2  0
 10  8  1  0
 11 10  1  0
 11 12  1  1
 13 14  2  0
 13 12  1  0
 15 14  1  0
 16 15  2  0
 17 16  1  0
 17 18  2  0
 18 13  1  0
 19 11  1  0
 20 19  2  0
 21 19  1  0
 22 23  1  6
 22 21  1  0
 24 25  1  0
 24 23  1  0
 25 29  1  0
 26 25  2  0
 27 22  1  0
 27 28  1  0
 30 27  2  0
M  END
$$$$
