QFE.pdb
     RDKit          3D

 30 30  0  0  1  0  0  0  0  0999 V2000
   27.3095  -18.7225  -18.5895 N   0  0  0  0  0  0  0  0  0  0  0  0
   26.1006  -19.4584  -18.5680 C   0  0  0  0  0  0  0  0  0  0  0  0
   25.1141  -19.0133  -19.1898 O   0  0  0  0  0  0  0  0  0  0  0  0
   25.9788  -20.7374  -17.8289 C   0  0  0  0  0  0  0  0  0  0  0  0
   27.2245  -21.0115  -17.0528 C   0  0  0  0  0  0  0  0  0  0  0  0
   27.1877  -22.2796  -16.2705 C   0  0  2  0  0  0  0  0  0  0  0  0
   26.8822  -23.4417  -17.0751 N   0  0  0  0  0  0  0  0  0  0  0  0
   26.1769  -22.0990  -15.1775 C   0  0  0  0  0  0  0  0  0  0  0  0
   25.1053  -22.7726  -15.3272 O   0  0  0  0  0  0  0  0  0  0  0  0
   26.3826  -21.2535  -14.0655 N   0  0  0  0  0  0  0  0  0  0  0  0
   25.4103  -21.1472  -13.0261 C   0  0  1  0  0  0  0  0  0  0  0  0
   25.8958  -20.3468  -11.8409 C   0  0  0  0  0  0  0  0  0  0  0  0
   24.9457  -20.3440  -10.7219 C   0  0  0  0  0  0  0  0  0  0  0  0
   25.2839  -20.9530   -9.5420 C   0  0  0  0  0  0  0  0  0  0  0  0
   24.3608  -20.9313   -8.5055 C   0  0  0  0  0  0  0  0  0  0  0  0
   23.1316  -20.3223   -8.6303 C   0  0  0  0  0  0  0  0  0  0  0  0
   22.7958  -19.7113   -9.8181 C   0  0  0  0  0  0  0  0  0  0  0  0
   23.7245  -19.7317  -10.8648 C   0  0  0  0  0  0  0  0  0  0  0  0
   24.1463  -20.5034  -13.4986 C   0  0  0  0  0  0  0  0  0  0  0  0
   24.2054  -19.4764  -14.1938 O   0  0  0  0  0  0  0  0  0  0  0  0
   22.9000  -21.0374  -13.1719 N   0  0  0  0  0  0  0  0  0  0  0  0
   21.6202  -20.5714  -13.7034 C   0  0  1  0  0  0  0  0  0  0  0  0
   21.4626  -20.8886  -15.1364 C   0  0  0  0  0  0  0  0  0  0  0  0
   20.1074  -20.4772  -15.6381 C   0  0  0  0  0  0  0  0  0  0  0  0
   19.9555  -20.7671  -17.0950 C   0  0  0  0  0  0  0  0  0  0  0  0
   20.5967  -20.0584  -17.9036 O   0  0  0  0  0  0  0  0  0  0  0  0
   20.5841  -21.1073  -12.8099 C   0  0  0  0  0  0  0  0  0  0  0  0
   19.3731  -20.4477  -12.6146 O   0  0  0  0  0  0  0  0  0  0  0  0
   19.1480  -21.7707  -17.5767 O   0  0  0  0  0  0  0  0  0  0  0  0
   20.7325  -22.1745  -12.1825 O   0  0  0  0  0  0  0  0  0  0  0  0
  2  1  1  0
  3  2  2  0
  4  2  1  0
  5  4  1  0
  6  5  1  0
  6  7  1  6
  8  6  1  0
  8  9  2  0
 10  8  1  0
 11 10  1  0
 11 12  1  1
 13 14  2  0
 13 12  1  0
 15 14  1  0
 16 15  2  0
 17 16  1  0
 17 18  2  0
 18 13  1  0
 19 11  1  0
 20 19  2  0
 21 19  1  0
 22 23  1  6
 22 21  1  0
 24 25  1  0
 24 23  1  0
 25 29  1  0
 26 25  2  0
 27 22  1  0
 27 28  1  0
 30 27  2  0
M  END
$$$$
