QFE.pdb
     RDKit          3D

 30 30  0  0  1  0  0  0  0  0999 V2000
   26.3463  -23.6039  -18.8878 N   0  0  0  0  0  0  0  0  0  0  0  0
   27.0991  -22.6611  -19.6278 C   0  0  0  0  0  0  0  0  0  0  0  0
   27.4458  -22.9484  -20.7920 O   0  0  0  0  0  0  0  0  0  0  0  0
   27.4835  -21.3484  -19.0569 C   0  0  0  0  0  0  0  0  0  0  0  0
   26.9018  -21.1835  -17.6917 C   0  0  0  0  0  0  0  0  0  0  0  0
   27.7468  -21.7422  -16.5984 C   0  0  2  0  0  0  0  0  0  0  0  0
   28.2813  -23.0519  -16.8983 N   0  0  0  0  0  0  0  0  0  0  0  0
   26.9052  -21.7739  -15.3575 C   0  0  0  0  0  0  0  0  0  0  0  0
   25.8397  -22.4664  -15.4549 O   0  0  0  0  0  0  0  0  0  0  0  0
   27.2534  -21.0956  -14.1691 N   0  0  0  0  0  0  0  0  0  0  0  0
   26.4104  -21.1378  -13.0181 C   0  0  1  0  0  0  0  0  0  0  0  0
   27.0120  -20.4458  -11.8180 C   0  0  0  0  0  0  0  0  0  0  0  0
   26.1443  -20.4902  -10.6348 C   0  0  0  0  0  0  0  0  0  0  0  0
   26.5112  -19.8195   -9.4978 C   0  0  0  0  0  0  0  0  0  0  0  0
   25.6666  -19.8839   -8.3980 C   0  0  0  0  0  0  0  0  0  0  0  0
   24.4866  -20.5941   -8.4196 C   0  0  0  0  0  0  0  0  0  0  0  0
   24.1217  -21.2669   -9.5647 C   0  0  0  0  0  0  0  0  0  0  0  0
   24.9713  -21.2037  -10.6750 C   0  0  0  0  0  0  0  0  0  0  0  0
   25.0812  -20.5007  -13.2678 C   0  0  0  0  0  0  0  0  0  0  0  0
   25.0314  -19.3379  -13.7002 O   0  0  0  0  0  0  0  0  0  0  0  0
   23.8941  -21.1909  -13.0233 N   0  0  0  0  0  0  0  0  0  0  0  0
   22.5532  -20.6877  -13.3174 C   0  0  1  0  0  0  0  0  0  0  0  0
   21.8751  -21.4833  -14.3598 C   0  0  0  0  0  0  0  0  0  0  0  0
   20.4847  -20.9735  -14.6136 C   0  0  0  0  0  0  0  0  0  0  0  0
   19.7872  -21.7895  -15.6516 C   0  0  0  0  0  0  0  0  0  0  0  0
   18.6150  -22.1602  -15.4157 O   0  0  0  0  0  0  0  0  0  0  0  0
   21.8568  -20.5942  -12.0270 C   0  0  0  0  0  0  0  0  0  0  0  0
   21.0004  -19.5362  -11.7323 O   0  0  0  0  0  0  0  0  0  0  0  0
   20.3762  -22.1451  -16.8425 O   0  0  0  0  0  0  0  0  0  0  0  0
   21.9944  -21.4514  -11.1322 O   0  0  0  0  0  0  0  0  0  0  0  0
  2  1  1  0
  3  2  2  0
  4  2  1  0
  5  4  1  0
  6  5  1  0
  6  7  1  6
  8  6  1  0
  8  9  2  0
 10  8  1  0
 11 10  1  0
 11 12  1  1
 13 14  2  0
 13 12  1  0
 15 14  1  0
 16 15  2  0
 17 16  1  0
 17 18  2  0
 18 13  1  0
 19 11  1  0
 20 19  2  0
 21 19  1  0
 22 23  1  6
 22 21  1  0
 24 25  1  0
 24 23  1  0
 25 29  1  0
 26 25  2  0
 27 22  1  0
 27 28  1  0
 30 27  2  0
M  END
$$$$
