QFE.pdb
     RDKit          3D

 30 30  0  0  1  0  0  0  0  0999 V2000
   28.3099  -17.9514  -17.7894 N   0  0  0  0  0  0  0  0  0  0  0  0
   27.5902  -18.1502  -18.9919 C   0  0  0  0  0  0  0  0  0  0  0  0
   28.0490  -17.6787  -20.0527 O   0  0  0  0  0  0  0  0  0  0  0  0
   26.3123  -18.9004  -19.0216 C   0  0  0  0  0  0  0  0  0  0  0  0
   25.9689  -19.3989  -17.6567 C   0  0  0  0  0  0  0  0  0  0  0  0
   26.8388  -20.5104  -17.1779 C   0  0  2  0  0  0  0  0  0  0  0  0
   27.0440  -21.5454  -18.1666 N   0  0  0  0  0  0  0  0  0  0  0  0
   26.2069  -21.0671  -15.9369 C   0  0  0  0  0  0  0  0  0  0  0  0
   25.0472  -21.5671  -16.1088 O   0  0  0  0  0  0  0  0  0  0  0  0
   26.8350  -21.0457  -14.6725 N   0  0  0  0  0  0  0  0  0  0  0  0
   26.0755  -21.1262  -13.4668 C   0  0  1  0  0  0  0  0  0  0  0  0
   26.8642  -20.7264  -12.2424 C   0  0  0  0  0  0  0  0  0  0  0  0
   26.0495  -20.6872  -11.0220 C   0  0  0  0  0  0  0  0  0  0  0  0
   24.7201  -21.0131  -11.0819 C   0  0  0  0  0  0  0  0  0  0  0  0
   23.9802  -20.9646   -9.9084 C   0  0  0  0  0  0  0  0  0  0  0  0
   24.5395  -20.6026   -8.7028 C   0  0  0  0  0  0  0  0  0  0  0  0
   25.8764  -20.2758   -8.6471 C   0  0  0  0  0  0  0  0  0  0  0  0
   26.6247  -20.3238   -9.8288 C   0  0  0  0  0  0  0  0  0  0  0  0
   24.8601  -20.2564  -13.5056 C   0  0  0  0  0  0  0  0  0  0  0  0
   24.9881  -19.0332  -13.6755 O   0  0  0  0  0  0  0  0  0  0  0  0
   23.5829  -20.7959  -13.3544 N   0  0  0  0  0  0  0  0  0  0  0  0
   22.3349  -20.0392  -13.4408 C   0  0  1  0  0  0  0  0  0  0  0  0
   21.8317  -19.9494  -14.8256 C   0  0  0  0  0  0  0  0  0  0  0  0
   20.5048  -19.2463  -14.8770 C   0  0  0  0  0  0  0  0  0  0  0  0
   19.9302  -19.2688  -16.2550 C   0  0  0  0  0  0  0  0  0  0  0  0
   18.8105  -18.7376  -16.4318 O   0  0  0  0  0  0  0  0  0  0  0  0
   21.4192  -20.6431  -12.4632 C   0  0  0  0  0  0  0  0  0  0  0  0
   21.2497  -22.0225  -12.3737 O   0  0  0  0  0  0  0  0  0  0  0  0
   20.5761  -19.8438  -17.3244 O   0  0  0  0  0  0  0  0  0  0  0  0
   20.7490  -19.9573  -11.6663 O   0  0  0  0  0  0  0  0  0  0  0  0
  2  1  1  0
  3  2  2  0
  4  2  1  0
  5  4  1  0
  6  5  1  0
  6  7  1  6
  8  6  1  0
  8  9  2  0
 10  8  1  0
 11 10  1  0
 11 12  1  1
 13 14  2  0
 13 12  1  0
 15 14  1  0
 16 15  2  0
 17 16  1  0
 17 18  2  0
 18 13  1  0
 19 11  1  0
 20 19  2  0
 21 19  1  0
 22 23  1  6
 22 21  1  0
 24 25  1  0
 24 23  1  0
 25 29  1  0
 26 25  2  0
 27 22  1  0
 27 28  1  0
 30 27  2  0
M  END
$$$$
