QFE.pdb
     RDKit          3D

 30 30  0  0  1  0  0  0  0  0999 V2000
   26.0328  -19.1173  -19.2432 N   0  0  0  0  0  0  0  0  0  0  0  0
   25.4884  -20.4139  -19.4038 C   0  0  0  0  0  0  0  0  0  0  0  0
   25.2414  -20.8244  -20.5564 O   0  0  0  0  0  0  0  0  0  0  0  0
   25.2062  -21.2910  -18.2427 C   0  0  0  0  0  0  0  0  0  0  0  0
   25.4958  -20.5740  -16.9655 C   0  0  0  0  0  0  0  0  0  0  0  0
   26.0036  -21.4540  -15.8750 C   0  0  2  0  0  0  0  0  0  0  0  0
   26.4810  -22.7350  -16.3466 N   0  0  0  0  0  0  0  0  0  0  0  0
   24.8897  -21.6242  -14.8854 C   0  0  0  0  0  0  0  0  0  0  0  0
   24.4634  -22.8192  -14.7645 O   0  0  0  0  0  0  0  0  0  0  0  0
   24.3469  -20.5548  -14.1401 N   0  0  0  0  0  0  0  0  0  0  0  0
   23.2983  -20.7675  -13.1955 C   0  0  1  0  0  0  0  0  0  0  0  0
   23.4041  -19.8740  -11.9824 C   0  0  0  0  0  0  0  0  0  0  0  0
   24.4568  -20.2943  -11.0497 C   0  0  0  0  0  0  0  0  0  0  0  0
   24.1506  -20.5095   -9.7317 C   0  0  0  0  0  0  0  0  0  0  0  0
   25.1712  -20.9056   -8.8783 C   0  0  0  0  0  0  0  0  0  0  0  0
   26.4650  -21.0852   -9.3155 C   0  0  0  0  0  0  0  0  0  0  0  0
   26.7685  -20.8677  -10.6413 C   0  0  0  0  0  0  0  0  0  0  0  0
   25.7414  -20.4683  -11.5039 C   0  0  0  0  0  0  0  0  0  0  0  0
   21.9464  -20.5363  -13.7907 C   0  0  0  0  0  0  0  0  0  0  0  0
   21.7459  -19.5224  -14.4786 O   0  0  0  0  0  0  0  0  0  0  0  0
   20.9050  -21.4413  -13.5864 N   0  0  0  0  0  0  0  0  0  0  0  0
   19.5278  -21.2545  -14.0403 C   0  0  1  0  0  0  0  0  0  0  0  0
   18.9498  -22.4950  -14.5937 C   0  0  0  0  0  0  0  0  0  0  0  0
   19.5887  -22.8540  -15.9054 C   0  0  0  0  0  0  0  0  0  0  0  0
   19.0088  -22.0590  -17.0286 C   0  0  0  0  0  0  0  0  0  0  0  0
   19.6728  -21.0922  -17.4662 O   0  0  0  0  0  0  0  0  0  0  0  0
   18.8008  -20.6552  -12.9128 C   0  0  0  0  0  0  0  0  0  0  0  0
   17.7643  -19.7462  -13.1102 O   0  0  0  0  0  0  0  0  0  0  0  0
   17.7881  -22.3449  -17.5938 O   0  0  0  0  0  0  0  0  0  0  0  0
   19.0712  -20.9264  -11.7263 O   0  0  0  0  0  0  0  0  0  0  0  0
  2  1  1  0
  3  2  2  0
  4  2  1  0
  5  4  1  0
  6  5  1  0
  6  7  1  6
  8  6  1  0
  8  9  2  0
 10  8  1  0
 11 10  1  0
 11 12  1  1
 13 14  2  0
 13 12  1  0
 15 14  1  0
 16 15  2  0
 17 16  1  0
 17 18  2  0
 18 13  1  0
 19 11  1  0
 20 19  2  0
 21 19  1  0
 22 23  1  1
 22 21  1  0
 24 25  1  0
 24 23  1  0
 25 29  1  0
 26 25  2  0
 27 22  1  0
 27 28  1  0
 30 27  2  0
M  END
$$$$
