QFE.pdb
     RDKit          3D

 30 30  0  0  1  0  0  0  0  0999 V2000
   26.5661  -17.0970  -16.7751 N   0  0  0  0  0  0  0  0  0  0  0  0
   26.6108  -18.0975  -17.7753 C   0  0  0  0  0  0  0  0  0  0  0  0
   26.0957  -17.8602  -18.8872 O   0  0  0  0  0  0  0  0  0  0  0  0
   27.2509  -19.4127  -17.5354 C   0  0  0  0  0  0  0  0  0  0  0  0
   27.7568  -19.4980  -16.1332 C   0  0  0  0  0  0  0  0  0  0  0  0
   27.9240  -20.8909  -15.6300 C   0  0  2  0  0  0  0  0  0  0  0  0
   27.9083  -21.8859  -16.6792 N   0  0  0  0  0  0  0  0  0  0  0  0
   26.8299  -21.1388  -14.6347 C   0  0  0  0  0  0  0  0  0  0  0  0
   26.0846  -22.1378  -14.9011 O   0  0  0  0  0  0  0  0  0  0  0  0
   26.6298  -20.3376  -13.4894 N   0  0  0  0  0  0  0  0  0  0  0  0
   25.6357  -20.6669  -12.5197 C   0  0  1  0  0  0  0  0  0  0  0  0
   25.7984  -19.9083  -11.2239 C   0  0  0  0  0  0  0  0  0  0  0  0
   24.8203  -20.3007  -10.2020 C   0  0  0  0  0  0  0  0  0  0  0  0
   25.1819  -21.1844   -9.2193 C   0  0  0  0  0  0  0  0  0  0  0  0
   24.2311  -21.5332   -8.2699 C   0  0  0  0  0  0  0  0  0  0  0  0
   22.9523  -21.0216   -8.2897 C   0  0  0  0  0  0  0  0  0  0  0  0
   22.5932  -20.1336   -9.2794 C   0  0  0  0  0  0  0  0  0  0  0  0
   23.5497  -19.7801  -10.2378 C   0  0  0  0  0  0  0  0  0  0  0  0
   24.2516  -20.3932  -13.0142 C   0  0  0  0  0  0  0  0  0  0  0  0
   23.9914  -19.2929  -13.5272 O   0  0  0  0  0  0  0  0  0  0  0  0
   23.2459  -21.3539  -12.9094 N   0  0  0  0  0  0  0  0  0  0  0  0
   21.9232  -21.2569  -13.5247 C   0  0  1  0  0  0  0  0  0  0  0  0
   21.5998  -22.4428  -14.3420 C   0  0  0  0  0  0  0  0  0  0  0  0
   20.2200  -22.3391  -14.9278 C   0  0  0  0  0  0  0  0  0  0  0  0
   19.9091  -23.5117  -15.7985 C   0  0  0  0  0  0  0  0  0  0  0  0
   20.0665  -24.6568  -15.3177 O   0  0  0  0  0  0  0  0  0  0  0  0
   20.9845  -20.9525  -12.4360 C   0  0  0  0  0  0  0  0  0  0  0  0
   20.9195  -21.7343  -11.2853 O   0  0  0  0  0  0  0  0  0  0  0  0
   19.4620  -23.3834  -17.0927 O   0  0  0  0  0  0  0  0  0  0  0  0
   20.2007  -19.9841  -12.4837 O   0  0  0  0  0  0  0  0  0  0  0  0
  2  1  1  0
  3  2  2  0
  4  2  1  0
  5  4  1  0
  6  5  1  0
  6  7  1  6
  8  6  1  0
  8  9  2  0
 10  8  1  0
 11 10  1  0
 11 12  1  1
 13 14  2  0
 13 12  1  0
 15 14  1  0
 16 15  2  0
 17 16  1  0
 17 18  2  0
 18 13  1  0
 19 11  1  0
 20 19  2  0
 21 19  1  0
 22 23  1  1
 22 21  1  0
 24 25  1  0
 24 23  1  0
 25 29  1  0
 26 25  2  0
 27 22  1  0
 27 28  1  0
 30 27  2  0
M  END
$$$$
