QFE.pdb
     RDKit          3D

 30 30  0  0  1  0  0  0  0  0999 V2000
   29.8996  -22.8959  -14.7199 N   0  0  0  0  0  0  0  0  0  0  0  0
   29.0864  -22.2064  -15.6508 C   0  0  0  0  0  0  0  0  0  0  0  0
   29.4593  -22.1368  -16.8400 O   0  0  0  0  0  0  0  0  0  0  0  0
   27.8100  -21.5685  -15.2498 C   0  0  0  0  0  0  0  0  0  0  0  0
   27.5087  -21.8615  -13.8170 C   0  0  0  0  0  0  0  0  0  0  0  0
   26.8020  -20.7587  -13.1058 C   0  0  2  0  0  0  0  0  0  0  0  0
   27.3519  -19.4508  -13.3848 N   0  0  0  0  0  0  0  0  0  0  0  0
   26.8593  -21.0666  -11.6391 C   0  0  0  0  0  0  0  0  0  0  0  0
   26.4633  -22.2367  -11.3253 O   0  0  0  0  0  0  0  0  0  0  0  0
   27.3134  -20.1436  -10.6720 N   0  0  0  0  0  0  0  0  0  0  0  0
   27.2442  -20.4380   -9.2772 C   0  0  1  0  0  0  0  0  0  0  0  0
   28.3812  -19.8343   -8.4874 C   0  0  0  0  0  0  0  0  0  0  0  0
   28.2064  -19.9670   -7.0360 C   0  0  0  0  0  0  0  0  0  0  0  0
   28.5699  -21.1312   -6.4116 C   0  0  0  0  0  0  0  0  0  0  0  0
   28.3900  -21.2216   -5.0381 C   0  0  0  0  0  0  0  0  0  0  0  0
   27.8632  -20.1866   -4.2974 C   0  0  0  0  0  0  0  0  0  0  0  0
   27.4992  -19.0182   -4.9292 C   0  0  0  0  0  0  0  0  0  0  0  0
   27.6795  -18.9242   -6.3138 C   0  0  0  0  0  0  0  0  0  0  0  0
   25.9747  -19.9471   -8.6585 C   0  0  0  0  0  0  0  0  0  0  0  0
   25.6940  -18.7390   -8.7143 O   0  0  0  0  0  0  0  0  0  0  0  0
   25.0987  -20.8240   -8.0189 N   0  0  0  0  0  0  0  0  0  0  0  0
   23.6430  -20.6909   -7.9971 C   0  0  1  0  0  0  0  0  0  0  0  0
   23.0668  -20.6426   -9.3554 C   0  0  0  0  0  0  0  0  0  0  0  0
   21.8694  -21.5430   -9.4699 C   0  0  0  0  0  0  0  0  0  0  0  0
   20.8662  -20.9944  -10.4302 C   0  0  0  0  0  0  0  0  0  0  0  0
   19.8150  -20.5015   -9.9619 O   0  0  0  0  0  0  0  0  0  0  0  0
   23.1448  -21.7647   -7.1266 C   0  0  0  0  0  0  0  0  0  0  0  0
   21.8877  -21.7001   -6.5307 O   0  0  0  0  0  0  0  0  0  0  0  0
   21.0503  -21.0099  -11.7930 O   0  0  0  0  0  0  0  0  0  0  0  0
   23.8165  -22.7847   -6.8761 O   0  0  0  0  0  0  0  0  0  0  0  0
  2  1  1  0
  3  2  2  0
  4  2  1  0
  5  4  1  0
  6  5  1  0
  6  7  1  1
  8  6  1  0
  8  9  2  0
 10  8  1  0
 11 10  1  0
 11 12  1  1
 13 14  2  0
 13 12  1  0
 15 14  1  0
 16 15  2  0
 17 16  1  0
 17 18  2  0
 18 13  1  0
 19 11  1  0
 20 19  2  0
 21 19  1  0
 22 23  1  6
 22 21  1  0
 24 25  1  0
 24 23  1  0
 25 29  1  0
 26 25  2  0
 27 22  1  0
 27 28  1  0
 30 27  2  0
M  END
$$$$
