QFE.pdb
     RDKit          3D

 30 30  0  0  1  0  0  0  0  0999 V2000
   24.5823  -12.9918  -22.1238 N   0  0  0  0  0  0  0  0  0  0  0  0
   25.2027  -11.9465  -22.8490 C   0  0  0  0  0  0  0  0  0  0  0  0
   25.6652  -12.1923  -23.9821 O   0  0  0  0  0  0  0  0  0  0  0  0
   25.3157  -10.5750  -22.2985 C   0  0  0  0  0  0  0  0  0  0  0  0
   24.6849  -10.5023  -20.9472 C   0  0  0  0  0  0  0  0  0  0  0  0
   25.6450  -10.2252  -19.8414 C   0  0  2  0  0  0  0  0  0  0  0  0
   26.6593  -11.2450  -19.6929 N   0  0  0  0  0  0  0  0  0  0  0  0
   24.8430  -10.0742  -18.5831 C   0  0  0  0  0  0  0  0  0  0  0  0
   23.8622  -10.8812  -18.4774 O   0  0  0  0  0  0  0  0  0  0  0  0
   25.1395   -9.1188  -17.5867 N   0  0  0  0  0  0  0  0  0  0  0  0
   24.4334   -9.0987  -16.3465 C   0  0  1  0  0  0  0  0  0  0  0  0
   25.3352   -9.2808  -15.1487 C   0  0  0  0  0  0  0  0  0  0  0  0
   25.9947  -10.5919  -15.1205 C   0  0  0  0  0  0  0  0  0  0  0  0
   25.3199  -11.6816  -14.6364 C   0  0  0  0  0  0  0  0  0  0  0  0
   25.9749  -12.9055  -14.6243 C   0  0  0  0  0  0  0  0  0  0  0  0
   27.2667  -13.0509  -15.0798 C   0  0  0  0  0  0  0  0  0  0  0  0
   27.9413  -11.9527  -15.5656 C   0  0  0  0  0  0  0  0  0  0  0  0
   27.2834  -10.7176  -15.5789 C   0  0  0  0  0  0  0  0  0  0  0  0
   23.6889   -7.8185  -16.1410 C   0  0  0  0  0  0  0  0  0  0  0  0
   24.3110   -6.7441  -16.1278 O   0  0  0  0  0  0  0  0  0  0  0  0
   22.3055   -7.8100  -15.9639 N   0  0  0  0  0  0  0  0  0  0  0  0
   21.4764   -6.6089  -15.8778 C   0  0  1  0  0  0  0  0  0  0  0  0
   21.0586   -6.1229  -17.2076 C   0  0  0  0  0  0  0  0  0  0  0  0
   20.1466   -4.9347  -17.0900 C   0  0  0  0  0  0  0  0  0  0  0  0
   19.7760   -4.3982  -18.4333 C   0  0  0  0  0  0  0  0  0  0  0  0
   18.8417   -4.9579  -19.0505 O   0  0  0  0  0  0  0  0  0  0  0  0
   20.3904   -6.9251  -14.9399 C   0  0  0  0  0  0  0  0  0  0  0  0
   20.1623   -8.2251  -14.4954 O   0  0  0  0  0  0  0  0  0  0  0  0
   20.4141   -3.3258  -19.0115 O   0  0  0  0  0  0  0  0  0  0  0  0
   19.6196   -6.0522  -14.4945 O   0  0  0  0  0  0  0  0  0  0  0  0
  2  1  1  0
  3  2  2  0
  4  2  1  0
  5  4  1  0
  6  5  1  0
  6  7  1  1
  8  6  1  0
  8  9  2  0
 10  8  1  0
 11 10  1  0
 11 12  1  1
 13 14  2  0
 13 12  1  0
 15 14  1  0
 16 15  2  0
 17 16  1  0
 17 18  2  0
 18 13  1  0
 19 11  1  0
 20 19  2  0
 21 19  1  0
 22 23  1  6
 22 21  1  0
 24 25  1  0
 24 23  1  0
 25 29  1  0
 26 25  2  0
 27 22  1  0
 27 28  1  0
 30 27  2  0
M  END
$$$$
