QFE.pdb
     RDKit          3D

 30 30  0  0  1  0  0  0  0  0999 V2000
   17.9499  -13.1666  -15.9668 N   0  0  0  0  0  0  0  0  0  0  0  0
   18.8370  -13.7609  -16.8960 C   0  0  0  0  0  0  0  0  0  0  0  0
   18.6056  -14.9222  -17.2907 O   0  0  0  0  0  0  0  0  0  0  0  0
   20.0272  -13.0415  -17.4085 C   0  0  0  0  0  0  0  0  0  0  0  0
   20.1023  -11.6719  -16.8187 C   0  0  0  0  0  0  0  0  0  0  0  0
   20.3906  -10.5972  -17.8103 C   0  0  2  0  0  0  0  0  0  0  0  0
   21.6030  -10.8230  -18.5653 N   0  0  0  0  0  0  0  0  0  0  0  0
   20.4575   -9.3024  -17.0564 C   0  0  0  0  0  0  0  0  0  0  0  0
   19.3840   -8.9858  -16.4466 O   0  0  0  0  0  0  0  0  0  0  0  0
   21.6111   -8.4892  -17.0165 N   0  0  0  0  0  0  0  0  0  0  0  0
   21.6503   -7.2976  -16.2319 C   0  0  1  0  0  0  0  0  0  0  0  0
   22.7761   -7.2884  -15.2251 C   0  0  0  0  0  0  0  0  0  0  0  0
   22.5607   -8.2234  -14.1142 C   0  0  0  0  0  0  0  0  0  0  0  0
   21.7662   -7.8550  -13.0605 C   0  0  0  0  0  0  0  0  0  0  0  0
   21.5852   -8.7642  -12.0274 C   0  0  0  0  0  0  0  0  0  0  0  0
   22.1748  -10.0091  -12.0337 C   0  0  0  0  0  0  0  0  0  0  0  0
   22.9728  -10.3753  -13.0950 C   0  0  0  0  0  0  0  0  0  0  0  0
   23.1570   -9.4605  -14.1380 C   0  0  0  0  0  0  0  0  0  0  0  0
   21.8082   -6.0720  -17.0736 C   0  0  0  0  0  0  0  0  0  0  0  0
   22.4232   -6.1437  -18.1497 O   0  0  0  0  0  0  0  0  0  0  0  0
   21.2755   -4.8476  -16.6704 N   0  0  0  0  0  0  0  0  0  0  0  0
   20.8172   -3.7923  -17.5725 C   0  0  1  0  0  0  0  0  0  0  0  0
   19.9409   -4.3129  -18.6404 C   0  0  0  0  0  0  0  0  0  0  0  0
   19.4373   -3.2031  -19.5192 C   0  0  0  0  0  0  0  0  0  0  0  0
   18.0838   -3.5149  -20.0673 C   0  0  0  0  0  0  0  0  0  0  0  0
   17.5585   -4.6051  -19.7469 O   0  0  0  0  0  0  0  0  0  0  0  0
   20.2374   -2.7455  -16.7200 C   0  0  0  0  0  0  0  0  0  0  0  0
   20.2218   -1.4087  -17.1103 O   0  0  0  0  0  0  0  0  0  0  0  0
   17.4004   -2.6605  -20.9007 O   0  0  0  0  0  0  0  0  0  0  0  0
   19.7315   -2.9961  -15.6084 O   0  0  0  0  0  0  0  0  0  0  0  0
  2  1  1  0
  3  2  2  0
  4  2  1  0
  5  4  1  0
  6  5  1  0
  6  7  1  1
  8  6  1  0
  8  9  2  0
 10  8  1  0
 11 10  1  0
 11 12  1  1
 13 14  2  0
 13 12  1  0
 15 14  1  0
 16 15  2  0
 17 16  1  0
 17 18  2  0
 18 13  1  0
 19 11  1  0
 20 19  2  0
 21 19  1  0
 22 23  1  6
 22 21  1  0
 24 25  1  0
 24 23  1  0
 25 29  1  0
 26 25  2  0
 27 22  1  0
 27 28  1  0
 30 27  2  0
M  END
$$$$
