SNV.pdb
     RDKit          3D

 22 21  0  0  1  0  0  0  0  0999 V2000
   13.7859   -9.6740   -7.4225 O   0  0  0  0  0  0  0  0  0  0  0  0
   14.7088   -9.0874   -8.2849 C   0  0  0  0  0  0  0  0  0  0  0  0
   14.0386   -7.9028   -8.9314 C   0  0  2  0  0  0  0  0  0  0  0  0
   12.9242   -8.3748   -9.7072 N   0  0  0  0  0  0  0  0  0  0  0  0
   14.9507   -7.1766   -9.8501 C   0  0  0  0  0  0  0  0  0  0  0  0
   14.9827   -7.3814  -11.0957 O   0  0  0  0  0  0  0  0  0  0  0  0
   14.5920   -3.7650  -10.7448 N   0  0  0  0  0  0  0  0  0  0  0  0
   15.5883   -3.1984   -9.9061 C   0  0  0  0  0  0  0  0  0  0  0  0
   15.4802   -2.0330   -9.5039 O   0  0  0  0  0  0  0  0  0  0  0  0
   16.7424   -4.0153   -9.5267 C   0  0  0  0  0  0  0  0  0  0  0  0
   16.7209   -5.4005  -10.0811 C   0  0  2  0  0  0  0  0  0  0  0  0
   15.8291   -6.2050   -9.3013 N   0  0  0  0  0  0  0  0  0  0  0  0
   18.1328   -5.9306  -10.0060 C   0  0  0  0  0  0  0  0  0  0  0  0
   18.7048   -6.0571   -8.8958 O   0  0  0  0  0  0  0  0  0  0  0  0
   19.7270   -7.9101  -13.3647 C   0  0  0  0  0  0  0  0  0  0  0  0
   20.2544   -8.1180  -11.9663 C   0  0  2  0  0  0  0  0  0  0  0  0
   19.3020   -9.0984  -11.2858 C   0  0  0  0  0  0  0  0  0  0  0  0
   20.1671   -6.8249  -11.2344 C   0  0  2  0  0  0  0  0  0  0  0  0
   18.8231   -6.2901  -11.1944 N   0  0  0  0  0  0  0  0  0  0  0  0
   21.0948   -5.7803  -11.7358 C   0  0  0  0  0  0  0  0  0  0  0  0
   22.4647   -5.8483  -11.5848 O   0  0  0  0  0  0  0  0  0  0  0  0
   20.6239   -4.7856  -12.3254 O   0  0  0  0  0  0  0  0  0  0  0  0
  1  2  1  0
  3  4  1  6
  3  2  1  0
  3  5  1  0
  5 12  1  0
  5  6  2  0
  8  9  2  0
  8  7  1  0
 10  8  1  0
 11 10  1  1
 11 13  1  0
 12 11  1  0
 13 14  2  0
 13 19  1  0
 16 15  1  6
 16 17  1  0
 18 20  1  0
 18 16  1  0
 18 19  1  6
 20 21  1  0
 22 20  2  0
M  END
$$$$
