SNV.pdb
     RDKit          3D

 22 21  0  0  1  0  0  0  0  0999 V2000
   15.7907  -12.6952  -11.6141 O   0  0  0  0  0  0  0  0  0  0  0  0
   15.9815  -11.3731  -12.0083 C   0  0  0  0  0  0  0  0  0  0  0  0
   15.2802  -10.4936  -11.0058 C   0  0  2  0  0  0  0  0  0  0  0  0
   13.8614  -10.6175  -11.2020 N   0  0  0  0  0  0  0  0  0  0  0  0
   15.6339   -9.0618  -11.1736 C   0  0  0  0  0  0  0  0  0  0  0  0
   15.1880   -8.3459  -12.1133 O   0  0  0  0  0  0  0  0  0  0  0  0
   17.6055   -4.3992  -10.0855 N   0  0  0  0  0  0  0  0  0  0  0  0
   17.2019   -5.0733   -8.9024 C   0  0  0  0  0  0  0  0  0  0  0  0
   17.3107   -4.5227   -7.7995 O   0  0  0  0  0  0  0  0  0  0  0  0
   16.6563   -6.4276   -9.0105 C   0  0  0  0  0  0  0  0  0  0  0  0
   16.9660   -7.1114  -10.3001 C   0  0  2  0  0  0  0  0  0  0  0  0
   16.5164   -8.4693  -10.2318 N   0  0  0  0  0  0  0  0  0  0  0  0
   18.4627   -7.0465  -10.4887 C   0  0  0  0  0  0  0  0  0  0  0  0
   19.2347   -7.3941   -9.5619 O   0  0  0  0  0  0  0  0  0  0  0  0
   20.1217   -7.3324  -14.2507 C   0  0  0  0  0  0  0  0  0  0  0  0
   20.9088   -7.4841  -12.9721 C   0  0  2  0  0  0  0  0  0  0  0  0
   20.5650   -8.8629  -12.4133 C   0  0  0  0  0  0  0  0  0  0  0  0
   20.4217   -6.4698  -11.9978 C   0  0  2  0  0  0  0  0  0  0  0  0
   19.0068   -6.5905  -11.7192 N   0  0  0  0  0  0  0  0  0  0  0  0
   20.7279   -5.0679  -12.3775 C   0  0  0  0  0  0  0  0  0  0  0  0
   22.0029   -4.5406  -12.3625 O   0  0  0  0  0  0  0  0  0  0  0  0
   19.7933   -4.3188  -12.7299 O   0  0  0  0  0  0  0  0  0  0  0  0
  1  2  1  0
  3  4  1  6
  3  2  1  0
  3  5  1  0
  5 12  1  0
  5  6  2  0
  8  9  2  0
  8  7  1  0
 10  8  1  0
 11 10  1  1
 11 13  1  0
 12 11  1  0
 13 14  2  0
 13 19  1  0
 16 15  1  6
 16 17  1  0
 18 20  1  0
 18 16  1  0
 18 19  1  6
 20 21  1  0
 22 20  2  0
M  END
$$$$
