SNV.pdb
     RDKit          3D

 22 21  0  0  1  0  0  0  0  0999 V2000
   21.8132  -18.9109  -10.5526 O   0  0  0  0  0  0  0  0  0  0  0  0
   21.4797  -20.1938  -10.9800 C   0  0  0  0  0  0  0  0  0  0  0  0
   22.7438  -21.0138  -10.9885 C   0  0  2  0  0  0  0  0  0  0  0  0
   23.5289  -20.6559   -9.8386 N   0  0  0  0  0  0  0  0  0  0  0  0
   23.5696  -20.7562  -12.1947 C   0  0  0  0  0  0  0  0  0  0  0  0
   24.7733  -20.3787  -12.1397 O   0  0  0  0  0  0  0  0  0  0  0  0
   22.6384  -20.8415  -18.2745 N   0  0  0  0  0  0  0  0  0  0  0  0
   23.4623  -21.1081  -17.1489 C   0  0  0  0  0  0  0  0  0  0  0  0
   24.6874  -21.2222  -17.2821 O   0  0  0  0  0  0  0  0  0  0  0  0
   22.8384  -21.2451  -15.8316 C   0  0  0  0  0  0  0  0  0  0  0  0
   23.6439  -20.6782  -14.7107 C   0  0  2  0  0  0  0  0  0  0  0  0
   22.9768  -20.9436  -13.4716 N   0  0  0  0  0  0  0  0  0  0  0  0
   23.7599  -19.1926  -14.9546 C   0  0  0  0  0  0  0  0  0  0  0  0
   22.8261  -18.4208  -14.6262 O   0  0  0  0  0  0  0  0  0  0  0  0
   26.4628  -15.2532  -15.2693 C   0  0  0  0  0  0  0  0  0  0  0  0
   26.3268  -16.7309  -14.9954 C   0  0  2  0  0  0  0  0  0  0  0  0
   27.5893  -17.3909  -15.5446 C   0  0  0  0  0  0  0  0  0  0  0  0
   25.1715  -17.2491  -15.7779 C   0  0  2  0  0  0  0  0  0  0  0  0
   24.9298  -18.6589  -15.5585 N   0  0  0  0  0  0  0  0  0  0  0  0
   25.2614  -16.9891  -17.2364 C   0  0  0  0  0  0  0  0  0  0  0  0
   24.9851  -15.7628  -17.8055 O   0  0  0  0  0  0  0  0  0  0  0  0
   25.6031  -17.9187  -17.9967 O   0  0  0  0  0  0  0  0  0  0  0  0
  1  2  1  0
  3  4  1  1
  3  2  1  0
  3  5  1  0
  5 12  1  0
  5  6  2  0
  8  9  2  0
  8  7  1  0
 10  8  1  0
 11 10  1  6
 11 13  1  0
 12 11  1  0
 13 14  2  0
 13 19  1  0
 16 15  1  6
 16 17  1  0
 18 20  1  0
 18 16  1  0
 18 19  1  6
 20 21  1  0
 22 20  2  0
M  END
$$$$
