SNV.pdb
     RDKit          3D

 22 21  0  0  1  0  0  0  0  0999 V2000
   14.8264  -10.9688  -14.5376 O   0  0  0  0  0  0  0  0  0  0  0  0
   14.9538  -10.3372  -15.7722 C   0  0  0  0  0  0  0  0  0  0  0  0
   15.8798  -11.1728  -16.6176 C   0  0  2  0  0  0  0  0  0  0  0  0
   15.8273  -12.5306  -16.1483 N   0  0  0  0  0  0  0  0  0  0  0  0
   17.2894  -10.7177  -16.5207 C   0  0  0  0  0  0  0  0  0  0  0  0
   18.1695  -11.3333  -15.8568 O   0  0  0  0  0  0  0  0  0  0  0  0
   20.7285   -6.4065  -19.2546 N   0  0  0  0  0  0  0  0  0  0  0  0
   20.5449   -7.6635  -18.6195 C   0  0  0  0  0  0  0  0  0  0  0  0
   21.5203   -8.3128  -18.2214 O   0  0  0  0  0  0  0  0  0  0  0  0
   19.1847   -8.1761  -18.4445 C   0  0  0  0  0  0  0  0  0  0  0  0
   18.9940   -8.9988  -17.2144 C   0  0  2  0  0  0  0  0  0  0  0  0
   17.6653   -9.5330  -17.2077 N   0  0  0  0  0  0  0  0  0  0  0  0
   19.2157   -8.0867  -16.0316 C   0  0  0  0  0  0  0  0  0  0  0  0
   18.3149   -7.2933  -15.6646 O   0  0  0  0  0  0  0  0  0  0  0  0
   22.6370   -8.8174  -13.6383 C   0  0  0  0  0  0  0  0  0  0  0  0
   21.3624   -8.2531  -13.0604 C   0  0  2  0  0  0  0  0  0  0  0  0
   20.4435   -9.4433  -12.7948 C   0  0  0  0  0  0  0  0  0  0  0  0
   20.7121   -7.4053  -14.0967 C   0  0  2  0  0  0  0  0  0  0  0  0
   20.4481   -8.1217  -15.3260 N   0  0  0  0  0  0  0  0  0  0  0  0
   21.4490   -6.1549  -14.4074 C   0  0  0  0  0  0  0  0  0  0  0  0
   21.6028   -5.1224  -13.5051 O   0  0  0  0  0  0  0  0  0  0  0  0
   21.9597   -6.0190  -15.5385 O   0  0  0  0  0  0  0  0  0  0  0  0
  1  2  1  0
  3  4  1  1
  3  2  1  0
  3  5  1  0
  5 12  1  0
  5  6  2  0
  8  9  2  0
  8  7  1  0
 10  8  1  0
 11 10  1  6
 11 13  1  0
 12 11  1  0
 13 14  2  0
 13 19  1  0
 16 15  1  6
 16 17  1  0
 18 20  1  0
 18 16  1  0
 18 19  1  6
 20 21  1  0
 22 20  2  0
M  END
$$$$
