SNV.pdb
     RDKit          3D

 22 21  0  0  1  0  0  0  0  0999 V2000
   42.7322  -10.8171   -8.4876 O   0  0  0  0  0  0  0  0  0  0  0  0
   43.7166   -9.8524   -8.6872 C   0  0  0  0  0  0  0  0  0  0  0  0
   43.9895   -9.1986   -7.3574 C   0  0  2  0  0  0  0  0  0  0  0  0
   44.3924  -10.2138   -6.4226 N   0  0  0  0  0  0  0  0  0  0  0  0
   42.7847   -8.5308   -6.8045 C   0  0  0  0  0  0  0  0  0  0  0  0
   41.7577   -9.1613   -6.4275 O   0  0  0  0  0  0  0  0  0  0  0  0
   39.8159   -4.7042   -4.9934 N   0  0  0  0  0  0  0  0  0  0  0  0
   41.1615   -4.2497   -4.9885 C   0  0  0  0  0  0  0  0  0  0  0  0
   41.4631   -3.1909   -4.4234 O   0  0  0  0  0  0  0  0  0  0  0  0
   42.1827   -5.0540   -5.6621 C   0  0  0  0  0  0  0  0  0  0  0  0
   41.6798   -6.3469   -6.2116 C   0  0  2  0  0  0  0  0  0  0  0  0
   42.7879   -7.1149   -6.6945 N   0  0  0  0  0  0  0  0  0  0  0  0
   40.7253   -6.0115   -7.3325 C   0  0  0  0  0  0  0  0  0  0  0  0
   41.1594   -5.7760   -8.4865 O   0  0  0  0  0  0  0  0  0  0  0  0
   36.5134   -6.0008   -6.4994 C   0  0  0  0  0  0  0  0  0  0  0  0
   37.0512   -6.4605   -7.8323 C   0  0  2  0  0  0  0  0  0  0  0  0
   37.3913   -7.9406   -7.6746 C   0  0  0  0  0  0  0  0  0  0  0  0
   38.3216   -5.7333   -8.1020 C   0  0  2  0  0  0  0  0  0  0  0  0
   39.3271   -5.9606   -7.0865 N   0  0  0  0  0  0  0  0  0  0  0  0
   38.1530   -4.2728   -8.3056 C   0  0  0  0  0  0  0  0  0  0  0  0
   38.6543   -3.3244   -7.4379 O   0  0  0  0  0  0  0  0  0  0  0  0
   37.5281   -3.8701   -9.3088 O   0  0  0  0  0  0  0  0  0  0  0  0
  1  2  1  0
  3  4  1  1
  3  2  1  0
  3  5  1  0
  5 12  1  0
  5  6  2  0
  8  9  2  0
  8  7  1  0
 10  8  1  0
 11 10  1  6
 11 13  1  0
 12 11  1  0
 13 14  2  0
 13 19  1  0
 16 15  1  1
 16 17  1  0
 18 20  1  0
 18 16  1  0
 18 19  1  1
 20 21  1  0
 22 20  2  0
M  END
$$$$
