SNV.pdb
     RDKit          3D

 22 21  0  0  1  0  0  0  0  0999 V2000
   17.6737  -13.2698  -14.6914 O   0  0  0  0  0  0  0  0  0  0  0  0
   18.4125  -12.2487  -15.2841 C   0  0  0  0  0  0  0  0  0  0  0  0
   17.4961  -11.5114  -16.2259 C   0  0  2  0  0  0  0  0  0  0  0  0
   17.5164  -12.1781  -17.4994 N   0  0  0  0  0  0  0  0  0  0  0  0
   17.9301  -10.1091  -16.4455 C   0  0  0  0  0  0  0  0  0  0  0  0
   18.4760   -9.7145  -17.5135 O   0  0  0  0  0  0  0  0  0  0  0  0
   18.2819   -5.0397  -15.8356 N   0  0  0  0  0  0  0  0  0  0  0  0
   17.0240   -5.5245  -15.3887 C   0  0  0  0  0  0  0  0  0  0  0  0
   16.0775   -4.7459  -15.2171 O   0  0  0  0  0  0  0  0  0  0  0  0
   16.8672   -6.9579  -15.1352 C   0  0  0  0  0  0  0  0  0  0  0  0
   18.0588   -7.7782  -15.5010 C   0  0  2  0  0  0  0  0  0  0  0  0
   17.7212   -9.1665  -15.4040 N   0  0  0  0  0  0  0  0  0  0  0  0
   19.1589   -7.4204  -14.5305 C   0  0  0  0  0  0  0  0  0  0  0  0
   18.9943   -7.5829  -13.2968 O   0  0  0  0  0  0  0  0  0  0  0  0
   23.0238   -6.7284  -16.0996 C   0  0  0  0  0  0  0  0  0  0  0  0
   22.7934   -7.2202  -14.6916 C   0  0  2  0  0  0  0  0  0  0  0  0
   22.5629   -8.7263  -14.7917 C   0  0  0  0  0  0  0  0  0  0  0  0
   21.5382   -6.6062  -14.1792 C   0  0  2  0  0  0  0  0  0  0  0  0
   20.3893   -6.8966  -15.0098 N   0  0  0  0  0  0  0  0  0  0  0  0
   21.6254   -5.1408  -13.9596 C   0  0  0  0  0  0  0  0  0  0  0  0
   22.3151   -4.5724  -12.9083 O   0  0  0  0  0  0  0  0  0  0  0  0
   21.0501   -4.3740  -14.7595 O   0  0  0  0  0  0  0  0  0  0  0  0
  1  2  1  0
  3  4  1  6
  3  2  1  0
  3  5  1  0
  5 12  1  0
  5  6  2  0
  8  9  2  0
  8  7  1  0
 10  8  1  0
 11 10  1  1
 11 13  1  0
 12 11  1  0
 13 14  2  0
 13 19  1  0
 16 15  1  6
 16 17  1  0
 18 20  1  0
 18 16  1  0
 18 19  1  6
 20 21  1  0
 22 20  2  0
M  END
$$$$
