SNV.pdb
     RDKit          3D

 22 21  0  0  1  0  0  0  0  0999 V2000
   14.5297  -11.1294  -14.7752 O   0  0  0  0  0  0  0  0  0  0  0  0
   15.0821   -9.8843  -15.0650 C   0  0  0  0  0  0  0  0  0  0  0  0
   16.4943   -9.8793  -14.5395 C   0  0  2  0  0  0  0  0  0  0  0  0
   16.5722  -10.7885  -13.4287 N   0  0  0  0  0  0  0  0  0  0  0  0
   16.9055   -8.5387  -14.0530 C   0  0  0  0  0  0  0  0  0  0  0  0
   16.9984   -7.5294  -14.8061 O   0  0  0  0  0  0  0  0  0  0  0  0
   17.6091   -4.7252  -10.4700 N   0  0  0  0  0  0  0  0  0  0  0  0
   17.6425   -6.0068   -9.8589 C   0  0  0  0  0  0  0  0  0  0  0  0
   18.0504   -6.1367   -8.6977 O   0  0  0  0  0  0  0  0  0  0  0  0
   17.1869   -7.1683  -10.6248 C   0  0  0  0  0  0  0  0  0  0  0  0
   17.5659   -7.1372  -12.0677 C   0  0  2  0  0  0  0  0  0  0  0  0
   17.2090   -8.3844  -12.6742 N   0  0  0  0  0  0  0  0  0  0  0  0
   19.0579   -6.9132  -12.1300 C   0  0  0  0  0  0  0  0  0  0  0  0
   19.8303   -7.5770  -11.3963 O   0  0  0  0  0  0  0  0  0  0  0  0
   20.7999   -5.9090  -15.6077 C   0  0  0  0  0  0  0  0  0  0  0  0
   21.5786   -6.3593  -14.3961 C   0  0  2  0  0  0  0  0  0  0  0  0
   21.3238   -7.8577  -14.2504 C   0  0  0  0  0  0  0  0  0  0  0  0
   21.0096   -5.6876  -13.1959 C   0  0  2  0  0  0  0  0  0  0  0  0
   19.5968   -5.9476  -13.0218 N   0  0  0  0  0  0  0  0  0  0  0  0
   21.2470   -4.2232  -13.1508 C   0  0  0  0  0  0  0  0  0  0  0  0
   20.2334   -3.2893  -13.2167 O   0  0  0  0  0  0  0  0  0  0  0  0
   22.4183   -3.8031  -13.0481 O   0  0  0  0  0  0  0  0  0  0  0  0
  1  2  1  0
  3  4  1  1
  3  2  1  0
  3  5  1  0
  5 12  1  0
  5  6  2  0
  8  9  2  0
  8  7  1  0
 10  8  1  0
 11 10  1  1
 11 13  1  0
 12 11  1  0
 13 14  2  0
 13 19  1  0
 16 15  1  6
 16 17  1  0
 18 20  1  0
 18 16  1  0
 18 19  1  6
 20 21  1  0
 22 20  2  0
M  END
$$$$
