SNV.pdb
     RDKit          3D

 22 21  0  0  1  0  0  0  0  0999 V2000
   20.4131   -6.0372  -14.4360 O   0  0  0  0  0  0  0  0  0  0  0  0
   19.1380   -6.4026  -14.0116 C   0  0  0  0  0  0  0  0  0  0  0  0
   19.0247   -7.8990  -14.1467 C   0  0  2  0  0  0  0  0  0  0  0  0
   18.9948   -8.2311  -15.5451 N   0  0  0  0  0  0  0  0  0  0  0  0
   17.7790   -8.4235  -13.5332 C   0  0  0  0  0  0  0  0  0  0  0  0
   16.7033   -8.5754  -14.1768 O   0  0  0  0  0  0  0  0  0  0  0  0
   14.5363  -10.2919   -9.9967 N   0  0  0  0  0  0  0  0  0  0  0  0
   15.5859  -11.1663  -10.3849 C   0  0  0  0  0  0  0  0  0  0  0  0
   15.4951  -12.3835  -10.1808 O   0  0  0  0  0  0  0  0  0  0  0  0
   16.7741  -10.6036  -11.0291 C   0  0  0  0  0  0  0  0  0  0  0  0
   16.6400   -9.1683  -11.4143 C   0  0  2  0  0  0  0  0  0  0  0  0
   17.7985   -8.7707  -12.1563 N   0  0  0  0  0  0  0  0  0  0  0  0
   16.5188   -8.3749  -10.1353 C   0  0  0  0  0  0  0  0  0  0  0  0
   17.4068   -8.4558   -9.2519 O   0  0  0  0  0  0  0  0  0  0  0  0
   14.4545   -4.8458  -10.1042 C   0  0  0  0  0  0  0  0  0  0  0  0
   15.3837   -5.2682   -8.9927 C   0  0  2  0  0  0  0  0  0  0  0  0
   16.8039   -5.0797   -9.5208 C   0  0  0  0  0  0  0  0  0  0  0  0
   15.1861   -6.7221   -8.7426 C   0  0  2  0  0  0  0  0  0  0  0  0
   15.3961   -7.5304   -9.9244 N   0  0  0  0  0  0  0  0  0  0  0  0
   13.8706   -7.0615   -8.1450 C   0  0  0  0  0  0  0  0  0  0  0  0
   13.5169   -6.7283   -6.8535 O   0  0  0  0  0  0  0  0  0  0  0  0
   13.0337   -7.6793   -8.8356 O   0  0  0  0  0  0  0  0  0  0  0  0
  1  2  1  0
  3  4  1  6
  3  2  1  0
  3  5  1  0
  5 12  1  0
  5  6  2  0
  8  9  2  0
  8  7  1  0
 10  8  1  0
 11 10  1  1
 11 13  1  0
 12 11  1  0
 13 14  2  0
 13 19  1  0
 16 15  1  6
 16 17  1  0
 18 20  1  0
 18 16  1  0
 18 19  1  6
 20 21  1  0
 22 20  2  0
M  END
$$$$
