SNV.pdb
     RDKit          3D

 22 21  0  0  1  0  0  0  0  0999 V2000
   19.3889  -20.7491  -11.8734 O   0  0  0  0  0  0  0  0  0  0  0  0
   20.5061  -19.9226  -11.9652 C   0  0  0  0  0  0  0  0  0  0  0  0
   21.7101  -20.7397  -11.5737 C   0  0  2  0  0  0  0  0  0  0  0  0
   21.6485  -20.9968  -10.1606 N   0  0  0  0  0  0  0  0  0  0  0  0
   22.9829  -20.0262  -11.8458 C   0  0  0  0  0  0  0  0  0  0  0  0
   23.3725  -19.0292  -11.1760 O   0  0  0  0  0  0  0  0  0  0  0  0
   27.7210  -21.0721  -11.5482 N   0  0  0  0  0  0  0  0  0  0  0  0
   26.5541  -21.6230  -12.1414 C   0  0  0  0  0  0  0  0  0  0  0  0
   25.9632  -22.5673  -11.6023 O   0  0  0  0  0  0  0  0  0  0  0  0
   26.0638  -21.0555  -13.3988 C   0  0  0  0  0  0  0  0  0  0  0  0
   25.0865  -19.9410  -13.2276 C   0  0  2  0  0  0  0  0  0  0  0  0
   23.8013  -20.4875  -12.9108 N   0  0  0  0  0  0  0  0  0  0  0  0
   25.0447  -19.1829  -14.5328 C   0  0  0  0  0  0  0  0  0  0  0  0
   24.3891  -19.6299  -15.5054 O   0  0  0  0  0  0  0  0  0  0  0  0
   25.7736  -14.7905  -16.6687 C   0  0  0  0  0  0  0  0  0  0  0  0
   25.8722  -15.6317  -15.4198 C   0  0  2  0  0  0  0  0  0  0  0  0
   27.3199  -15.5330  -14.9447 C   0  0  0  0  0  0  0  0  0  0  0  0
   25.6156  -17.0509  -15.7881 C   0  0  2  0  0  0  0  0  0  0  0  0
   25.7489  -17.9565  -14.6674 N   0  0  0  0  0  0  0  0  0  0  0  0
   26.4437  -17.5438  -16.9169 C   0  0  0  0  0  0  0  0  0  0  0  0
   26.0616  -17.4395  -18.2386 O   0  0  0  0  0  0  0  0  0  0  0  0
   27.5432  -18.0817  -16.6707 O   0  0  0  0  0  0  0  0  0  0  0  0
  1  2  1  0
  3  4  1  1
  3  2  1  0
  3  5  1  0
  5 12  1  0
  5  6  2  0
  8  9  2  0
  8  7  1  0
 10  8  1  0
 11 10  1  6
 11 13  1  0
 12 11  1  0
 13 14  2  0
 13 19  1  0
 16 15  1  6
 16 17  1  0
 18 20  1  0
 18 16  1  0
 18 19  1  1
 20 21  1  0
 22 20  2  0
M  END
$$$$
