SNV.pdb
     RDKit          3D

 22 21  0  0  1  0  0  0  0  0999 V2000
   22.9865  -25.9672  -15.7985 O   0  0  0  0  0  0  0  0  0  0  0  0
   22.8064  -24.9220  -14.8959 C   0  0  0  0  0  0  0  0  0  0  0  0
   24.0242  -24.0381  -14.9739 C   0  0  2  0  0  0  0  0  0  0  0  0
   25.1510  -24.7651  -14.4557 N   0  0  0  0  0  0  0  0  0  0  0  0
   23.8731  -22.8045  -14.1623 C   0  0  0  0  0  0  0  0  0  0  0  0
   22.9185  -21.9918  -14.3125 O   0  0  0  0  0  0  0  0  0  0  0  0
   26.0954  -20.5565   -8.9076 N   0  0  0  0  0  0  0  0  0  0  0  0
   25.1915  -20.6421   -9.9997 C   0  0  0  0  0  0  0  0  0  0  0  0
   24.2472  -19.8480  -10.0950 O   0  0  0  0  0  0  0  0  0  0  0  0
   25.3962  -21.6836  -11.0080 C   0  0  0  0  0  0  0  0  0  0  0  0
   24.8493  -21.3476  -12.3551 C   0  0  2  0  0  0  0  0  0  0  0  0
   24.8495  -22.5256  -13.1694 N   0  0  0  0  0  0  0  0  0  0  0  0
   25.7436  -20.2831  -12.9443 C   0  0  0  0  0  0  0  0  0  0  0  0
   26.6161  -19.7239  -12.2359 O   0  0  0  0  0  0  0  0  0  0  0  0
   27.8940  -20.6163  -16.0064 C   0  0  0  0  0  0  0  0  0  0  0  0
   27.8586  -19.4049  -15.1073 C   0  0  2  0  0  0  0  0  0  0  0  0
   28.3096  -19.8771  -13.7271 C   0  0  0  0  0  0  0  0  0  0  0  0
   26.4465  -18.9499  -14.9878 C   0  0  2  0  0  0  0  0  0  0  0  0
   25.6020  -19.9077  -14.3070 N   0  0  0  0  0  0  0  0  0  0  0  0
   25.8187  -18.5749  -16.2794 C   0  0  0  0  0  0  0  0  0  0  0  0
   24.6561  -19.1491  -16.7513 O   0  0  0  0  0  0  0  0  0  0  0  0
   26.3604  -17.6972  -16.9829 O   0  0  0  0  0  0  0  0  0  0  0  0
  1  2  1  0
  3  4  1  1
  3  2  1  0
  3  5  1  0
  5 12  1  0
  5  6  2  0
  8  9  2  0
  8  7  1  0
 10  8  1  0
 11 10  1  1
 11 13  1  0
 12 11  1  0
 13 14  2  0
 13 19  1  0
 16 15  1  6
 16 17  1  0
 18 20  1  0
 18 16  1  0
 18 19  1  6
 20 21  1  0
 22 20  2  0
M  END
$$$$
