SNV.pdb
     RDKit          3D

 22 21  0  0  1  0  0  0  0  0999 V2000
   23.1741  -14.1264  -21.1502 O   0  0  0  0  0  0  0  0  0  0  0  0
   22.9645  -13.7825  -19.8171 C   0  0  0  0  0  0  0  0  0  0  0  0
   24.3003  -13.8225  -19.1212 C   0  0  2  0  0  0  0  0  0  0  0  0
   24.5507  -15.1705  -18.6888 N   0  0  0  0  0  0  0  0  0  0  0  0
   24.3314  -12.9518  -17.9195 C   0  0  0  0  0  0  0  0  0  0  0  0
   23.7862  -13.2660  -16.8248 O   0  0  0  0  0  0  0  0  0  0  0  0
   27.0370  -12.2402  -15.6914 N   0  0  0  0  0  0  0  0  0  0  0  0
   27.4394  -10.9978  -16.2495 C   0  0  0  0  0  0  0  0  0  0  0  0
   28.6220  -10.6380  -16.1902 O   0  0  0  0  0  0  0  0  0  0  0  0
   26.4331  -10.1526  -16.8947 C   0  0  0  0  0  0  0  0  0  0  0  0
   25.0673  -10.7520  -16.9390 C   0  0  2  0  0  0  0  0  0  0  0  0
   25.0071  -11.7056  -18.0057 N   0  0  0  0  0  0  0  0  0  0  0  0
   24.0936   -9.6212  -17.1694 C   0  0  0  0  0  0  0  0  0  0  0  0
   24.1017   -8.9876  -18.2530 O   0  0  0  0  0  0  0  0  0  0  0  0
   19.7046   -8.0356  -16.9140 C   0  0  0  0  0  0  0  0  0  0  0  0
   20.8089   -9.0577  -16.8002 C   0  0  2  0  0  0  0  0  0  0  0  0
   20.3917  -10.0242  -15.6943 C   0  0  0  0  0  0  0  0  0  0  0  0
   22.0459   -8.3641  -16.3482 C   0  0  2  0  0  0  0  0  0  0  0  0
   23.1605   -9.2672  -16.1583 N   0  0  0  0  0  0  0  0  0  0  0  0
   21.8680   -7.5422  -15.1252 C   0  0  0  0  0  0  0  0  0  0  0  0
   21.3788   -6.2522  -15.1442 O   0  0  0  0  0  0  0  0  0  0  0  0
   22.1728   -8.0318  -14.0178 O   0  0  0  0  0  0  0  0  0  0  0  0
  1  2  1  0
  3  4  1  1
  3  2  1  0
  3  5  1  0
  5 12  1  0
  5  6  2  0
  8  9  2  0
  8  7  1  0
 10  8  1  0
 11 10  1  6
 11 13  1  0
 12 11  1  0
 13 14  2  0
 13 19  1  0
 16 15  1  1
 16 17  1  0
 18 20  1  0
 18 16  1  0
 18 19  1  1
 20 21  1  0
 22 20  2  0
M  END
$$$$
