TKT.pdb
     RDKit          3D

 24 23  0  0  1  0  0  0  0  0999 V2000
   24.2554  -27.0669  -20.9910 C   0  0  0  0  0  0  0  0  0  0  0  0
   24.8687  -28.3979  -20.6220 C   0  0  1  0  0  0  0  0  0  0  0  0
   24.0298  -29.4194  -21.0267 O   0  0  0  0  0  0  0  0  0  0  0  0
   26.2512  -28.5134  -21.2290 C   0  0  2  0  0  0  0  0  0  0  0  0
   26.0957  -28.6027  -22.6529 N   0  0  0  0  0  0  0  0  0  0  0  0
   26.9263  -29.6828  -20.6520 C   0  0  0  0  0  0  0  0  0  0  0  0
   26.8840  -30.7750  -21.2641 O   0  0  0  0  0  0  0  0  0  0  0  0
   27.6276  -29.6199  -19.4211 N   0  0  0  0  0  0  0  0  0  0  0  0
   28.3940  -30.7858  -18.9063 C   0  0  1  0  0  0  0  0  0  0  0  0
   29.8288  -30.3677  -18.9546 C   0  0  0  0  0  0  0  0  0  0  0  0
   30.7827  -31.3408  -18.3355 C   0  0  0  0  0  0  0  0  0  0  0  0
   32.2174  -30.8022  -18.3920 C   0  0  0  0  0  0  0  0  0  0  0  0
   33.1452  -31.8411  -17.7954 C   0  0  0  0  0  0  0  0  0  0  0  0
   34.5121  -31.3201  -17.7115 N   0  0  0  0  0  0  0  0  0  0  0  0
   27.8824  -31.1200  -17.5715 C   0  0  0  0  0  0  0  0  0  0  0  0
   27.7692  -30.1783  -16.7392 O   0  0  0  0  0  0  0  0  0  0  0  0
   25.5992  -33.8780  -14.2096 C   0  0  0  0  0  0  0  0  0  0  0  0
   25.8887  -33.6137  -15.6732 C   0  0  1  0  0  0  0  0  0  0  0  0
   24.7540  -33.3474  -16.3969 O   0  0  0  0  0  0  0  0  0  0  0  0
   26.9674  -32.5989  -15.8162 C   0  0  2  0  0  0  0  0  0  0  0  0
   27.4949  -32.4057  -17.1189 N   0  0  0  0  0  0  0  0  0  0  0  0
   27.9970  -32.7544  -14.7414 C   0  0  0  0  0  0  0  0  0  0  0  0
   29.0727  -33.6034  -14.9186 O   0  0  0  0  0  0  0  0  0  0  0  0
   27.9053  -32.1249  -13.6716 O   0  0  0  0  0  0  0  0  0  0  0  0
  2  1  1  6
  2  3  1  0
  4  2  1  0
  4  5  1  6
  6  4  1  0
  7  6  2  0
  8  6  1  0
  9  8  1  0
  9 10  1  1
 10 11  1  0
 11 12  1  0
 12 13  1  0
 13 14  1  0
 15 21  1  0
 15  9  1  0
 16 15  2  0
 18 20  1  0
 18 17  1  1
 19 18  1  0
 20 22  1  0
 20 21  1  6
 22 23  1  0
 24 22  2  0
M  END
$$$$
