TKT.pdb
     RDKit          3D

 24 23  0  0  1  0  0  0  0  0999 V2000
   15.6362   -9.7122  -15.6388 C   0  0  0  0  0  0  0  0  0  0  0  0
   15.6851  -11.1344  -15.1304 C   0  0  1  0  0  0  0  0  0  0  0  0
   14.3973  -11.6000  -14.9407 O   0  0  0  0  0  0  0  0  0  0  0  0
   16.4738  -11.9980  -16.0923 C   0  0  2  0  0  0  0  0  0  0  0  0
   16.3861  -13.3545  -15.6321 N   0  0  0  0  0  0  0  0  0  0  0  0
   17.8543  -11.5016  -16.1527 C   0  0  0  0  0  0  0  0  0  0  0  0
   18.6332  -11.7484  -15.2030 O   0  0  0  0  0  0  0  0  0  0  0  0
   18.3399  -10.7495  -17.2524 N   0  0  0  0  0  0  0  0  0  0  0  0
   19.7444  -10.2626  -17.2976 C   0  0  1  0  0  0  0  0  0  0  0  0
   20.0907  -10.1901  -18.7504 C   0  0  0  0  0  0  0  0  0  0  0  0
   21.4147   -9.5570  -19.0447 C   0  0  0  0  0  0  0  0  0  0  0  0
   22.4797  -10.6283  -19.3085 C   0  0  0  0  0  0  0  0  0  0  0  0
   23.7901   -9.9364  -19.6250 C   0  0  0  0  0  0  0  0  0  0  0  0
   24.7991  -10.9143  -20.0402 N   0  0  0  0  0  0  0  0  0  0  0  0
   19.8138   -8.9886  -16.5717 C   0  0  0  0  0  0  0  0  0  0  0  0
   18.8922   -8.1512  -16.7766 O   0  0  0  0  0  0  0  0  0  0  0  0
   21.5504   -5.6656  -13.3866 C   0  0  0  0  0  0  0  0  0  0  0  0
   21.6079   -7.1108  -13.8382 C   0  0  1  0  0  0  0  0  0  0  0  0
   21.2682   -7.9901  -12.8413 O   0  0  0  0  0  0  0  0  0  0  0  0
   20.8524   -7.2908  -15.1072 C   0  0  2  0  0  0  0  0  0  0  0  0
   20.8189   -8.6006  -15.6512 N   0  0  0  0  0  0  0  0  0  0  0  0
   21.1893   -6.2140  -16.0903 C   0  0  0  0  0  0  0  0  0  0  0  0
   20.4202   -5.0685  -16.1663 O   0  0  0  0  0  0  0  0  0  0  0  0
   22.1644   -6.3282  -16.8553 O   0  0  0  0  0  0  0  0  0  0  0  0
  2  1  1  6
  2  3  1  0
  4  2  1  0
  4  5  1  1
  6  4  1  0
  7  6  2  0
  8  6  1  0
  9  8  1  0
  9 10  1  6
 10 11  1  0
 11 12  1  0
 12 13  1  0
 13 14  1  0
 15 21  1  0
 15  9  1  0
 16 15  2  0
 18 20  1  0
 18 17  1  1
 19 18  1  0
 20 22  1  0
 20 21  1  6
 22 23  1  0
 24 22  2  0
M  END
$$$$
