TKT.pdb
     RDKit          3D

 24 23  0  0  1  0  0  0  0  0999 V2000
   28.6201  -26.4751  -19.4393 C   0  0  0  0  0  0  0  0  0  0  0  0
   29.7182  -26.6420  -18.4146 C   0  0  1  0  0  0  0  0  0  0  0  0
   30.9453  -26.4364  -19.0172 O   0  0  0  0  0  0  0  0  0  0  0  0
   29.4834  -25.7019  -17.2509 C   0  0  2  0  0  0  0  0  0  0  0  0
   30.5291  -25.9244  -16.2934 N   0  0  0  0  0  0  0  0  0  0  0  0
   28.1435  -25.9496  -16.7039 C   0  0  0  0  0  0  0  0  0  0  0  0
   27.9627  -26.9399  -15.9582 O   0  0  0  0  0  0  0  0  0  0  0  0
   27.0417  -25.1043  -16.9907 N   0  0  0  0  0  0  0  0  0  0  0  0
   25.7233  -25.3001  -16.3309 C   0  0  1  0  0  0  0  0  0  0  0  0
   25.3274  -23.9479  -15.8304 C   0  0  0  0  0  0  0  0  0  0  0  0
   23.9508  -23.8776  -15.2472 C   0  0  0  0  0  0  0  0  0  0  0  0
   23.5941  -22.4334  -14.8752 C   0  0  0  0  0  0  0  0  0  0  0  0
   22.2460  -22.4336  -14.1834 C   0  0  0  0  0  0  0  0  0  0  0  0
   21.8936  -21.0802  -13.7465 N   0  0  0  0  0  0  0  0  0  0  0  0
   24.8054  -25.9018  -17.3058 C   0  0  0  0  0  0  0  0  0  0  0  0
   24.7528  -25.3809  -18.4540 O   0  0  0  0  0  0  0  0  0  0  0  0
   24.9266  -29.0780  -19.0305 C   0  0  0  0  0  0  0  0  0  0  0  0
   23.4967  -28.9714  -18.5407 C   0  0  1  0  0  0  0  0  0  0  0  0
   23.1885  -29.9197  -17.5984 O   0  0  0  0  0  0  0  0  0  0  0  0
   23.1866  -27.5732  -18.1373 C   0  0  2  0  0  0  0  0  0  0  0  0
   23.9663  -27.0227  -17.0878 N   0  0  0  0  0  0  0  0  0  0  0  0
   21.7110  -27.3707  -17.9925 C   0  0  0  0  0  0  0  0  0  0  0  0
   21.1794  -26.9156  -16.8009 O   0  0  0  0  0  0  0  0  0  0  0  0
   20.9368  -27.6070  -18.9380 O   0  0  0  0  0  0  0  0  0  0  0  0
  2  1  1  6
  2  3  1  0
  4  2  1  0
  4  5  1  1
  6  4  1  0
  7  6  2  0
  8  6  1  0
  9  8  1  0
  9 10  1  6
 10 11  1  0
 11 12  1  0
 12 13  1  0
 13 14  1  0
 15 21  1  0
 15  9  1  0
 16 15  2  0
 18 20  1  0
 18 17  1  1
 19 18  1  0
 20 22  1  0
 20 21  1  1
 22 23  1  0
 24 22  2  0
M  END
$$$$
