TKT.pdb
     RDKit          3D

 24 23  0  0  1  0  0  0  0  0999 V2000
   22.3947  -12.3974  -22.6655 C   0  0  0  0  0  0  0  0  0  0  0  0
   21.0973  -12.2135  -21.9127 C   0  0  1  0  0  0  0  0  0  0  0  0
   20.5717  -13.4512  -21.5919 O   0  0  0  0  0  0  0  0  0  0  0  0
   21.3299  -11.3519  -20.6893 C   0  0  2  0  0  0  0  0  0  0  0  0
   22.2469  -12.0492  -19.8334 N   0  0  0  0  0  0  0  0  0  0  0  0
   20.0377  -11.0828  -20.0461 C   0  0  0  0  0  0  0  0  0  0  0  0
   19.1641  -10.4434  -20.6764 O   0  0  0  0  0  0  0  0  0  0  0  0
   19.7418  -11.5228  -18.7309 N   0  0  0  0  0  0  0  0  0  0  0  0
   18.4349  -11.2199  -18.0889 C   0  0  1  0  0  0  0  0  0  0  0  0
   18.1688  -12.3712  -17.1726 C   0  0  0  0  0  0  0  0  0  0  0  0
   16.9094  -12.2528  -16.3725 C   0  0  0  0  0  0  0  0  0  0  0  0
   16.7365  -13.4679  -15.4532 C   0  0  0  0  0  0  0  0  0  0  0  0
   15.5365  -13.2282  -14.5594 C   0  0  0  0  0  0  0  0  0  0  0  0
   15.2939  -14.3924  -13.7035 N   0  0  0  0  0  0  0  0  0  0  0  0
   18.5353   -9.9088  -17.4362 C   0  0  0  0  0  0  0  0  0  0  0  0
   19.6034   -9.6473  -16.8172 O   0  0  0  0  0  0  0  0  0  0  0  0
   15.4906   -6.7954  -17.1154 C   0  0  0  0  0  0  0  0  0  0  0  0
   16.9544   -6.4914  -17.3618 C   0  0  1  0  0  0  0  0  0  0  0  0
   17.3232   -5.2547  -16.8963 O   0  0  0  0  0  0  0  0  0  0  0  0
   17.8073   -7.6130  -16.8840 C   0  0  2  0  0  0  0  0  0  0  0  0
   17.5460   -8.8944  -17.4340 N   0  0  0  0  0  0  0  0  0  0  0  0
   17.9424   -7.5880  -15.3939 C   0  0  0  0  0  0  0  0  0  0  0  0
   17.5724   -8.6839  -14.6378 O   0  0  0  0  0  0  0  0  0  0  0  0
   18.3887   -6.5843  -14.8086 O   0  0  0  0  0  0  0  0  0  0  0  0
  2  1  1  1
  2  3  1  0
  4  2  1  0
  4  5  1  1
  6  4  1  0
  7  6  2  0
  8  6  1  0
  9  8  1  0
  9 10  1  1
 10 11  1  0
 11 12  1  0
 12 13  1  0
 13 14  1  0
 15 21  1  0
 15  9  1  0
 16 15  2  0
 18 20  1  0
 18 17  1  1
 19 18  1  0
 20 22  1  0
 20 21  1  1
 22 23  1  0
 24 22  2  0
M  END
$$$$
