TKT.pdb
     RDKit          3D

 24 23  0  0  1  0  0  0  0  0999 V2000
   23.1103   -9.6763  -18.9700 C   0  0  0  0  0  0  0  0  0  0  0  0
   21.9919  -10.5609  -19.4704 C   0  0  1  0  0  0  0  0  0  0  0  0
   22.5196  -11.5756  -20.2469 O   0  0  0  0  0  0  0  0  0  0  0  0
   21.1907  -11.0894  -18.2992 C   0  0  2  0  0  0  0  0  0  0  0  0
   20.2811  -12.0780  -18.8044 N   0  0  0  0  0  0  0  0  0  0  0  0
   20.5093   -9.9653  -17.6448 C   0  0  0  0  0  0  0  0  0  0  0  0
   19.9653   -9.0864  -18.3524 O   0  0  0  0  0  0  0  0  0  0  0  0
   20.4447   -9.8384  -16.2339 N   0  0  0  0  0  0  0  0  0  0  0  0
   19.7943   -8.6656  -15.5910 C   0  0  1  0  0  0  0  0  0  0  0  0
   18.8104   -9.2409  -14.6232 C   0  0  0  0  0  0  0  0  0  0  0  0
   17.5355   -9.7220  -15.2423 C   0  0  0  0  0  0  0  0  0  0  0  0
   16.6035  -10.3083  -14.1750 C   0  0  0  0  0  0  0  0  0  0  0  0
   15.3713  -10.8603  -14.8629 C   0  0  0  0  0  0  0  0  0  0  0  0
   14.5025  -11.5348  -13.8949 N   0  0  0  0  0  0  0  0  0  0  0  0
   20.8420   -7.8265  -14.9965 C   0  0  0  0  0  0  0  0  0  0  0  0
   21.7786   -8.4110  -14.3854 O   0  0  0  0  0  0  0  0  0  0  0  0
   23.5070   -5.9156  -16.4711 C   0  0  0  0  0  0  0  0  0  0  0  0
   22.8730   -4.9649  -15.4761 C   0  0  1  0  0  0  0  0  0  0  0  0
   22.2499   -3.9034  -16.0822 O   0  0  0  0  0  0  0  0  0  0  0  0
   22.0241   -5.7121  -14.5093 C   0  0  2  0  0  0  0  0  0  0  0  0
   20.9115   -6.4120  -15.0429 N   0  0  0  0  0  0  0  0  0  0  0  0
   21.7186   -4.8771  -13.3055 C   0  0  0  0  0  0  0  0  0  0  0  0
   20.4099   -4.6326  -12.9356 O   0  0  0  0  0  0  0  0  0  0  0  0
   22.6331   -4.3885  -12.6169 O   0  0  0  0  0  0  0  0  0  0  0  0
  2  1  1  1
  2  3  1  0
  4  2  1  0
  4  5  1  6
  6  4  1  0
  7  6  2  0
  8  6  1  0
  9  8  1  0
  9 10  1  1
 10 11  1  0
 11 12  1  0
 12 13  1  0
 13 14  1  0
 15 21  1  0
 15  9  1  0
 16 15  2  0
 18 20  1  0
 18 17  1  6
 19 18  1  0
 20 22  1  0
 20 21  1  6
 22 23  1  0
 24 22  2  0
M  END
$$$$
