TKT.pdb
     RDKit          3D

 24 23  0  0  1  0  0  0  0  0999 V2000
   26.7148  -10.6105  -15.2166 C   0  0  0  0  0  0  0  0  0  0  0  0
   26.7568  -11.2787  -16.5714 C   0  0  1  0  0  0  0  0  0  0  0  0
   27.8304  -12.1480  -16.6230 O   0  0  0  0  0  0  0  0  0  0  0  0
   25.4393  -11.9739  -16.8433 C   0  0  2  0  0  0  0  0  0  0  0  0
   25.5971  -12.7547  -18.0372 N   0  0  0  0  0  0  0  0  0  0  0  0
   24.3828  -10.9606  -16.9571 C   0  0  0  0  0  0  0  0  0  0  0  0
   24.4285  -10.1349  -17.8980 O   0  0  0  0  0  0  0  0  0  0  0  0
   23.3077  -10.8827  -16.0357 N   0  0  0  0  0  0  0  0  0  0  0  0
   22.2061   -9.8993  -16.2127 C   0  0  1  0  0  0  0  0  0  0  0  0
   20.9827  -10.5774  -15.6843 C   0  0  0  0  0  0  0  0  0  0  0  0
   19.7454   -9.7355  -15.7049 C   0  0  0  0  0  0  0  0  0  0  0  0
   18.5224  -10.5611  -15.2873 C   0  0  0  0  0  0  0  0  0  0  0  0
   17.3062   -9.6574  -15.2956 C   0  0  0  0  0  0  0  0  0  0  0  0
   16.0863  -10.4373  -15.0711 N   0  0  0  0  0  0  0  0  0  0  0  0
   22.5819   -8.6580  -15.5250 C   0  0  0  0  0  0  0  0  0  0  0  0
   23.1357   -8.7631  -14.3960 O   0  0  0  0  0  0  0  0  0  0  0  0
   22.4064   -4.5710  -17.0636 C   0  0  0  0  0  0  0  0  0  0  0  0
   23.4212   -5.0907  -16.0657 C   0  0  1  0  0  0  0  0  0  0  0  0
   23.9820   -4.0906  -15.3123 O   0  0  0  0  0  0  0  0  0  0  0  0
   22.8480   -6.2141  -15.2763 C   0  0  2  0  0  0  0  0  0  0  0  0
   22.3878   -7.3397  -16.0069 N   0  0  0  0  0  0  0  0  0  0  0  0
   21.8947   -5.7099  -14.2387 C   0  0  0  0  0  0  0  0  0  0  0  0
   22.3214   -4.8284  -13.2638 O   0  0  0  0  0  0  0  0  0  0  0  0
   20.7041   -6.0728  -14.2333 O   0  0  0  0  0  0  0  0  0  0  0  0
  2  1  1  1
  2  3  1  0
  4  2  1  0
  4  5  1  6
  6  4  1  0
  7  6  2  0
  8  6  1  0
  9  8  1  0
  9 10  1  1
 10 11  1  0
 11 12  1  0
 12 13  1  0
 13 14  1  0
 15 21  1  0
 15  9  1  0
 16 15  2  0
 18 20  1  0
 18 17  1  1
 19 18  1  0
 20 22  1  0
 20 21  1  6
 22 23  1  0
 24 22  2  0
M  END
$$$$
