TKT.pdb
     RDKit          3D

 24 23  0  0  1  0  0  0  0  0999 V2000
   27.0202  -19.0168  -16.8695 C   0  0  0  0  0  0  0  0  0  0  0  0
   27.6499  -20.3377  -17.2467 C   0  0  1  0  0  0  0  0  0  0  0  0
   28.7478  -20.1102  -18.0553 O   0  0  0  0  0  0  0  0  0  0  0  0
   28.0066  -21.1135  -15.9961 C   0  0  2  0  0  0  0  0  0  0  0  0
   28.6437  -22.3323  -16.4065 N   0  0  0  0  0  0  0  0  0  0  0  0
   26.7847  -21.3410  -15.2143 C   0  0  0  0  0  0  0  0  0  0  0  0
   25.9751  -22.2200  -15.5900 O   0  0  0  0  0  0  0  0  0  0  0  0
   26.4869  -20.5980  -14.0438 N   0  0  0  0  0  0  0  0  0  0  0  0
   25.2948  -20.9099  -13.2111 C   0  0  1  0  0  0  0  0  0  0  0  0
   25.5458  -20.2432  -11.8965 C   0  0  0  0  0  0  0  0  0  0  0  0
   24.3879  -20.2784  -10.9487 C   0  0  0  0  0  0  0  0  0  0  0  0
   24.8008  -20.9100   -9.6137 C   0  0  0  0  0  0  0  0  0  0  0  0
   23.5852  -20.9644   -8.7107 C   0  0  0  0  0  0  0  0  0  0  0  0
   23.9417  -21.5232   -7.4040 N   0  0  0  0  0  0  0  0  0  0  0  0
   24.0990  -20.4517  -13.9289 C   0  0  0  0  0  0  0  0  0  0  0  0
   24.0887  -19.2587  -14.3401 O   0  0  0  0  0  0  0  0  0  0  0  0
   22.7632  -21.2233  -17.1852 C   0  0  0  0  0  0  0  0  0  0  0  0
   21.5622  -21.3132  -16.2657 C   0  0  1  0  0  0  0  0  0  0  0  0
   21.0532  -22.5846  -16.1835 O   0  0  0  0  0  0  0  0  0  0  0  0
   21.8620  -20.6797  -14.9532 C   0  0  2  0  0  0  0  0  0  0  0  0
   22.9443  -21.2221  -14.2137 N   0  0  0  0  0  0  0  0  0  0  0  0
   20.6099  -20.4644  -14.1623 C   0  0  0  0  0  0  0  0  0  0  0  0
   20.4540  -21.0537  -12.9222 O   0  0  0  0  0  0  0  0  0  0  0  0
   19.6885  -19.7535  -14.6037 O   0  0  0  0  0  0  0  0  0  0  0  0
  2  1  1  1
  2  3  1  0
  4  2  1  0
  4  5  1  6
  6  4  1  0
  7  6  2  0
  8  6  1  0
  9  8  1  0
  9 10  1  1
 10 11  1  0
 11 12  1  0
 12 13  1  0
 13 14  1  0
 15 21  1  0
 15  9  1  0
 16 15  2  0
 18 20  1  0
 18 17  1  6
 19 18  1  0
 20 22  1  0
 20 21  1  1
 22 23  1  0
 24 22  2  0
M  END
$$$$
