TKT.pdb
     RDKit          3D

 24 23  0  0  1  0  0  0  0  0999 V2000
   24.6071  -13.0673  -14.8344 C   0  0  0  0  0  0  0  0  0  0  0  0
   24.6671  -13.8842  -16.1042 C   0  0  1  0  0  0  0  0  0  0  0  0
   25.6363  -14.8618  -15.9775 O   0  0  0  0  0  0  0  0  0  0  0  0
   23.3014  -14.4633  -16.4086 C   0  0  2  0  0  0  0  0  0  0  0  0
   23.4553  -15.3990  -17.4860 N   0  0  0  0  0  0  0  0  0  0  0  0
   22.3816  -13.3651  -16.7307 C   0  0  0  0  0  0  0  0  0  0  0  0
   22.4688  -12.8041  -17.8474 O   0  0  0  0  0  0  0  0  0  0  0  0
   21.3935  -12.9145  -15.8188 N   0  0  0  0  0  0  0  0  0  0  0  0
   20.3948  -11.8831  -16.2067 C   0  0  1  0  0  0  0  0  0  0  0  0
   19.0697  -12.4435  -15.7996 C   0  0  0  0  0  0  0  0  0  0  0  0
   18.5733  -13.5604  -16.6636 C   0  0  0  0  0  0  0  0  0  0  0  0
   17.2304  -14.0891  -16.1454 C   0  0  0  0  0  0  0  0  0  0  0  0
   16.8100  -15.2621  -17.0078 C   0  0  0  0  0  0  0  0  0  0  0  0
   15.6232  -15.9122  -16.4461 N   0  0  0  0  0  0  0  0  0  0  0  0
   20.7656  -10.6175  -15.5619 C   0  0  0  0  0  0  0  0  0  0  0  0
   21.1746  -10.6701  -14.3692 O   0  0  0  0  0  0  0  0  0  0  0  0
   21.8971   -6.9915  -17.4814 C   0  0  0  0  0  0  0  0  0  0  0  0
   22.2686   -7.4038  -16.0715 C   0  0  1  0  0  0  0  0  0  0  0  0
   22.7250   -6.3531  -15.3164 O   0  0  0  0  0  0  0  0  0  0  0  0
   21.1643   -8.1816  -15.4477 C   0  0  2  0  0  0  0  0  0  0  0  0
   20.7144   -9.3293  -16.1499 N   0  0  0  0  0  0  0  0  0  0  0  0
   20.0744   -7.2759  -14.9667 C   0  0  0  0  0  0  0  0  0  0  0  0
   20.3585   -6.2324  -14.1065 O   0  0  0  0  0  0  0  0  0  0  0  0
   18.8959   -7.4438  -15.3301 O   0  0  0  0  0  0  0  0  0  0  0  0
  2  1  1  1
  2  3  1  0
  4  2  1  0
  4  5  1  6
  6  4  1  0
  7  6  2  0
  8  6  1  0
  9  8  1  0
  9 10  1  1
 10 11  1  0
 11 12  1  0
 12 13  1  0
 13 14  1  0
 15 21  1  0
 15  9  1  0
 16 15  2  0
 18 20  1  0
 18 17  1  6
 19 18  1  0
 20 22  1  0
 20 21  1  6
 22 23  1  0
 24 22  2  0
M  END
$$$$
