TKT.pdb
     RDKit          3D

 24 23  0  0  1  0  0  0  0  0999 V2000
   23.8841  -16.6784  -15.5761 C   0  0  0  0  0  0  0  0  0  0  0  0
   24.8692  -17.5798  -16.2837 C   0  0  1  0  0  0  0  0  0  0  0  0
   26.0972  -16.9493  -16.3605 O   0  0  0  0  0  0  0  0  0  0  0  0
   24.9502  -18.9135  -15.5711 C   0  0  2  0  0  0  0  0  0  0  0  0
   26.0245  -19.6589  -16.1628 N   0  0  0  0  0  0  0  0  0  0  0  0
   23.6525  -19.5912  -15.6840 C   0  0  0  0  0  0  0  0  0  0  0  0
   23.3863  -20.2286  -16.7290 O   0  0  0  0  0  0  0  0  0  0  0  0
   22.6854  -19.5498  -14.6477 N   0  0  0  0  0  0  0  0  0  0  0  0
   21.3833  -20.2569  -14.7753 C   0  0  1  0  0  0  0  0  0  0  0  0
   21.1285  -20.8607  -13.4314 C   0  0  0  0  0  0  0  0  0  0  0  0
   19.8445  -21.6223  -13.3236 C   0  0  0  0  0  0  0  0  0  0  0  0
   19.7493  -22.3328  -11.9680 C   0  0  0  0  0  0  0  0  0  0  0  0
   18.4311  -23.0774  -11.9065 C   0  0  0  0  0  0  0  0  0  0  0  0
   18.3135  -23.8085  -10.6422 N   0  0  0  0  0  0  0  0  0  0  0  0
   20.3767  -19.2898  -15.2298 C   0  0  0  0  0  0  0  0  0  0  0  0
   20.2926  -18.1987  -14.6013 O   0  0  0  0  0  0  0  0  0  0  0  0
   17.3094  -17.0861  -18.2955 C   0  0  0  0  0  0  0  0  0  0  0  0
   18.2283  -18.2737  -18.0929 C   0  0  1  0  0  0  0  0  0  0  0  0
   19.3306  -18.2345  -18.9089 O   0  0  0  0  0  0  0  0  0  0  0  0
   18.5329  -18.4567  -16.6481 C   0  0  2  0  0  0  0  0  0  0  0  0
   19.4829  -19.4568  -16.3166 N   0  0  0  0  0  0  0  0  0  0  0  0
   17.2772  -18.4930  -15.8349 C   0  0  0  0  0  0  0  0  0  0  0  0
   16.6952  -19.6999  -15.4973 O   0  0  0  0  0  0  0  0  0  0  0  0
   16.7346  -17.4416  -15.4482 O   0  0  0  0  0  0  0  0  0  0  0  0
  2  1  1  1
  2  3  1  0
  4  2  1  0
  4  5  1  6
  6  4  1  0
  7  6  2  0
  8  6  1  0
  9  8  1  0
  9 10  1  1
 10 11  1  0
 11 12  1  0
 12 13  1  0
 13 14  1  0
 15 21  1  0
 15  9  1  0
 16 15  2  0
 18 20  1  0
 18 17  1  1
 19 18  1  0
 20 22  1  0
 20 21  1  6
 22 23  1  0
 24 22  2  0
M  END
$$$$
