TKT.pdb
     RDKit          3D

 24 23  0  0  1  0  0  0  0  0999 V2000
   23.6978  -14.5105  -20.4730 C   0  0  0  0  0  0  0  0  0  0  0  0
   22.6861  -13.4407  -20.1331 C   0  0  1  0  0  0  0  0  0  0  0  0
   21.4145  -13.9023  -20.4179 O   0  0  0  0  0  0  0  0  0  0  0  0
   22.8385  -13.0303  -18.6835 C   0  0  2  0  0  0  0  0  0  0  0  0
   22.6072  -14.1933  -17.8749 N   0  0  0  0  0  0  0  0  0  0  0  0
   21.8992  -11.9384  -18.3984 C   0  0  0  0  0  0  0  0  0  0  0  0
   22.0072  -10.8609  -19.0282 O   0  0  0  0  0  0  0  0  0  0  0  0
   20.8693  -12.0603  -17.4312 N   0  0  0  0  0  0  0  0  0  0  0  0
   20.0175  -10.9000  -17.0568 C   0  0  1  0  0  0  0  0  0  0  0  0
   18.7836  -11.4935  -16.4561 C   0  0  0  0  0  0  0  0  0  0  0  0
   17.7850  -10.4919  -15.9663 C   0  0  0  0  0  0  0  0  0  0  0  0
   16.5442  -11.1958  -15.4039 C   0  0  0  0  0  0  0  0  0  0  0  0
   15.5719  -10.1407  -14.9166 C   0  0  0  0  0  0  0  0  0  0  0  0
   14.3269  -10.7630  -14.4589 N   0  0  0  0  0  0  0  0  0  0  0  0
   20.7926  -10.0283  -16.1655 C   0  0  0  0  0  0  0  0  0  0  0  0
   21.4603  -10.5804  -15.2480 O   0  0  0  0  0  0  0  0  0  0  0  0
   23.7640   -7.9153  -16.6869 C   0  0  0  0  0  0  0  0  0  0  0  0
   22.7647   -7.0451  -15.9521 C   0  0  1  0  0  0  0  0  0  0  0  0
   22.3086   -6.0019  -16.7177 O   0  0  0  0  0  0  0  0  0  0  0  0
   21.6950   -7.8804  -15.3424 C   0  0  2  0  0  0  0  0  0  0  0  0
   20.8714   -8.6152  -16.2337 N   0  0  0  0  0  0  0  0  0  0  0  0
   20.9530   -7.1185  -14.2896 C   0  0  0  0  0  0  0  0  0  0  0  0
   21.6213   -6.6016  -13.1962 O   0  0  0  0  0  0  0  0  0  0  0  0
   19.7249   -6.9362  -14.3776 O   0  0  0  0  0  0  0  0  0  0  0  0
  2  1  1  1
  2  3  1  0
  4  2  1  0
  4  5  1  1
  6  4  1  0
  7  6  2  0
  8  6  1  0
  9  8  1  0
  9 10  1  1
 10 11  1  0
 11 12  1  0
 12 13  1  0
 13 14  1  0
 15 21  1  0
 15  9  1  0
 16 15  2  0
 18 20  1  0
 18 17  1  6
 19 18  1  0
 20 22  1  0
 20 21  1  6
 22 23  1  0
 24 22  2  0
M  END
$$$$
