TKT.pdb
     RDKit          3D

 24 23  0  0  1  0  0  0  0  0999 V2000
   29.3029  -20.5796  -16.8173 C   0  0  0  0  0  0  0  0  0  0  0  0
   28.1052  -21.0925  -16.0518 C   0  0  1  0  0  0  0  0  0  0  0  0
   28.5344  -21.7796  -14.9316 O   0  0  0  0  0  0  0  0  0  0  0  0
   27.1852  -19.9411  -15.7038 C   0  0  2  0  0  0  0  0  0  0  0  0
   27.9294  -19.0180  -14.8953 N   0  0  0  0  0  0  0  0  0  0  0  0
   25.9981  -20.4719  -15.0219 C   0  0  0  0  0  0  0  0  0  0  0  0
   25.2460  -21.2644  -15.6348 O   0  0  0  0  0  0  0  0  0  0  0  0
   25.6709  -20.1180  -13.6882 N   0  0  0  0  0  0  0  0  0  0  0  0
   24.4932  -20.7076  -12.9975 C   0  0  1  0  0  0  0  0  0  0  0  0
   24.7455  -20.4987  -11.5386 C   0  0  0  0  0  0  0  0  0  0  0  0
   23.6417  -20.9657  -10.6420 C   0  0  0  0  0  0  0  0  0  0  0  0
   23.9935  -20.7079   -9.1719 C   0  0  0  0  0  0  0  0  0  0  0  0
   22.8854  -21.2721   -8.3059 C   0  0  0  0  0  0  0  0  0  0  0  0
   23.2115  -21.1114   -6.8866 N   0  0  0  0  0  0  0  0  0  0  0  0
   23.2821  -20.0657  -13.5231 C   0  0  0  0  0  0  0  0  0  0  0  0
   23.2694  -18.8051  -13.5795 O   0  0  0  0  0  0  0  0  0  0  0  0
   19.3075  -19.5046  -16.1979 C   0  0  0  0  0  0  0  0  0  0  0  0
   20.4950  -20.3665  -15.8201 C   0  0  1  0  0  0  0  0  0  0  0  0
   21.4541  -20.4043  -16.8004 O   0  0  0  0  0  0  0  0  0  0  0  0
   21.0016  -19.9939  -14.4716 C   0  0  2  0  0  0  0  0  0  0  0  0
   22.1146  -20.7247  -13.9822 N   0  0  0  0  0  0  0  0  0  0  0  0
   19.8755  -19.8430  -13.4977 C   0  0  0  0  0  0  0  0  0  0  0  0
   19.0343  -18.7486  -13.5625 O   0  0  0  0  0  0  0  0  0  0  0  0
   19.6751  -20.6963  -12.6140 O   0  0  0  0  0  0  0  0  0  0  0  0
  2  1  1  1
  2  3  1  0
  4  2  1  0
  4  5  1  1
  6  4  1  0
  7  6  2  0
  8  6  1  0
  9  8  1  0
  9 10  1  1
 10 11  1  0
 11 12  1  0
 12 13  1  0
 13 14  1  0
 15 21  1  0
 15  9  1  0
 16 15  2  0
 18 20  1  0
 18 17  1  6
 19 18  1  0
 20 22  1  0
 20 21  1  1
 22 23  1  0
 24 22  2  0
M  END
$$$$
