WKQ.pdb
     RDKit          3D

 33 34  0  0  1  0  0  0  0  0999 V2000
    7.0879  -18.3374   24.9331 N   0  0  0  0  0  0  0  0  0  0  0  0
    7.2926  -16.9898   24.4892 C   0  0  1  0  0  0  0  0  0  0  0  0
    8.1142  -16.2306   25.4745 C   0  0  0  0  0  0  0  0  0  0  0  0
    7.3083  -15.1304   26.0516 C   0  0  0  0  0  0  0  0  0  0  0  0
    6.2248  -15.2872   26.9198 C   0  0  0  0  0  0  0  0  0  0  0  0
    5.7403  -14.0977   27.2829 N   0  0  0  0  0  0  0  0  0  0  0  0
    6.4778  -13.1442   26.6743 C   0  0  0  0  0  0  0  0  0  0  0  0
    6.3866  -11.7630   26.7091 C   0  0  0  0  0  0  0  0  0  0  0  0
    7.2802  -11.0221   25.9684 C   0  0  0  0  0  0  0  0  0  0  0  0
    8.2576  -11.6046   25.1969 C   0  0  0  0  0  0  0  0  0  0  0  0
    8.3269  -13.0013   25.1804 C   0  0  0  0  0  0  0  0  0  0  0  0
    7.4583  -13.7638   25.9030 C   0  0  0  0  0  0  0  0  0  0  0  0
    7.8982  -17.0018   23.1318 C   0  0  0  0  0  0  0  0  0  0  0  0
    8.5363  -18.0097   22.7731 O   0  0  0  0  0  0  0  0  0  0  0  0
    7.7650  -15.9061   22.2542 N   0  0  0  0  0  0  0  0  0  0  0  0
    8.1695  -15.9525   20.8374 C   0  0  1  0  0  0  0  0  0  0  0  0
    7.3893  -14.8930   20.1523 C   0  0  0  0  0  0  0  0  0  0  0  0
    7.3739  -14.8973   18.6691 C   0  0  0  0  0  0  0  0  0  0  0  0
    7.8779  -13.5463   18.1474 C   0  0  0  0  0  0  0  0  0  0  0  0
    7.8906  -13.4663   16.6559 C   0  0  0  0  0  0  0  0  0  0  0  0
    8.0994  -12.0803   16.2290 N   0  0  0  0  0  0  0  0  0  0  0  0
    9.6248  -15.8824   20.7599 C   0  0  0  0  0  0  0  0  0  0  0  0
   10.2634  -15.8361   19.6598 O   0  0  0  0  0  0  0  0  0  0  0  0
   13.4319  -17.0263   25.8095 N   0  0  0  0  0  0  0  0  0  0  0  0
   14.1976  -16.2408   24.9267 C   0  0  0  0  0  0  0  0  0  0  0  0
   15.2666  -15.7195   25.3569 O   0  0  0  0  0  0  0  0  0  0  0  0
   13.8173  -16.0019   23.5246 C   0  0  0  0  0  0  0  0  0  0  0  0
   12.3629  -15.9087   23.2572 C   0  0  0  0  0  0  0  0  0  0  0  0
   11.9155  -15.8064   21.8368 C   0  0  2  0  0  0  0  0  0  0  0  0
   10.4147  -15.8563   21.9218 N   0  0  0  0  0  0  0  0  0  0  0  0
   12.2928  -16.8871   20.9312 C   0  0  0  0  0  0  0  0  0  0  0  0
   13.1351  -16.7370   20.0078 O   0  0  0  0  0  0  0  0  0  0  0  0
   11.7196  -18.1673   21.0664 O   0  0  0  0  0  0  0  0  0  0  0  0
  2  1  1  1
  3  2  1  0
  4  5  2  0
  4  3  1  0
  6  5  1  0
  7 12  2  0
  7  6  1  0
  8  7  1  0
  9 10  1  0
  9  8  2  0
 10 11  2  0
 11 12  1  0
 12  4  1  0
 13  2  1  0
 14 13  2  0
 15 13  1  0
 16 22  1  0
 16 15  1  0
 16 17  1  6
 18 17  1  0
 19 18  1  0
 20 19  1  0
 21 20  1  0
 22 30  1  0
 23 22  2  0
 24 25  1  0
 25 27  1  0
 26 25  2  0
 27 28  1  0
 29 28  1  1
 29 31  1  0
 30 29  1  0
 31 32  2  0
 31 33  1  0
M  END
$$$$
