WKQ.pdb
     RDKit          3D

 33 34  0  0  1  0  0  0  0  0999 V2000
    9.2441  -15.7254   24.6692 N   0  0  0  0  0  0  0  0  0  0  0  0
    8.1669  -16.5288   24.1703 C   0  0  1  0  0  0  0  0  0  0  0  0
    7.0891  -16.6569   25.1922 C   0  0  0  0  0  0  0  0  0  0  0  0
    6.6990  -15.3125   25.6751 C   0  0  0  0  0  0  0  0  0  0  0  0
    5.3886  -14.8440   25.8010 C   0  0  0  0  0  0  0  0  0  0  0  0
    5.3804  -13.6049   26.2971 N   0  0  0  0  0  0  0  0  0  0  0  0
    6.6611  -13.2316   26.5064 C   0  0  0  0  0  0  0  0  0  0  0  0
    7.1965  -12.0521   26.9955 C   0  0  0  0  0  0  0  0  0  0  0  0
    8.5652  -11.9381   27.0953 C   0  0  0  0  0  0  0  0  0  0  0  0
    9.4169  -12.9523   26.7267 C   0  0  0  0  0  0  0  0  0  0  0  0
    8.8490  -14.1325   26.2363 C   0  0  0  0  0  0  0  0  0  0  0  0
    7.4981  -14.2779   26.1260 C   0  0  0  0  0  0  0  0  0  0  0  0
    7.6731  -15.9563   22.8906 C   0  0  0  0  0  0  0  0  0  0  0  0
    6.6426  -16.4364   22.3814 O   0  0  0  0  0  0  0  0  0  0  0  0
    8.3424  -14.8928   22.2505 N   0  0  0  0  0  0  0  0  0  0  0  0
    8.5113  -14.8081   20.7886 C   0  0  1  0  0  0  0  0  0  0  0  0
    8.5041  -13.3622   20.4570 C   0  0  0  0  0  0  0  0  0  0  0  0
    8.8127  -12.9732   19.0593 C   0  0  0  0  0  0  0  0  0  0  0  0
    7.9564  -13.8035   18.0954 C   0  0  0  0  0  0  0  0  0  0  0  0
    8.4636  -13.7711   16.6909 C   0  0  0  0  0  0  0  0  0  0  0  0
    7.5763  -14.5445   15.8184 N   0  0  0  0  0  0  0  0  0  0  0  0
    9.6828  -15.5878   20.4034 C   0  0  0  0  0  0  0  0  0  0  0  0
    9.8867  -16.0004   19.2166 O   0  0  0  0  0  0  0  0  0  0  0  0
   13.7928  -13.7915   18.1068 N   0  0  0  0  0  0  0  0  0  0  0  0
   14.5942  -14.7536   18.7508 C   0  0  0  0  0  0  0  0  0  0  0  0
   15.7842  -14.9108   18.3522 O   0  0  0  0  0  0  0  0  0  0  0  0
   14.1161  -15.5814   19.8705 C   0  0  0  0  0  0  0  0  0  0  0  0
   12.7017  -15.3806   20.2635 C   0  0  0  0  0  0  0  0  0  0  0  0
   11.9830  -16.5206   20.9054 C   0  0  2  0  0  0  0  0  0  0  0  0
   10.6719  -15.9268   21.3422 N   0  0  0  0  0  0  0  0  0  0  0  0
   12.5723  -17.0976   22.1096 C   0  0  0  0  0  0  0  0  0  0  0  0
   12.0624  -16.9542   23.2516 O   0  0  0  0  0  0  0  0  0  0  0  0
   13.7558  -17.8586   22.0333 O   0  0  0  0  0  0  0  0  0  0  0  0
  2  1  1  1
  3  2  1  0
  4  5  2  0
  4  3  1  0
  6  5  1  0
  7 12  2  0
  7  6  1  0
  8  7  1  0
  9 10  1  0
  9  8  2  0
 10 11  2  0
 11 12  1  0
 12  4  1  0
 13  2  1  0
 14 13  2  0
 15 13  1  0
 16 22  1  0
 16 15  1  0
 16 17  1  1
 18 17  1  0
 19 18  1  0
 20 19  1  0
 21 20  1  0
 22 30  1  0
 23 22  2  0
 24 25  1  0
 25 27  1  0
 26 25  2  0
 27 28  1  0
 29 28  1  1
 29 31  1  0
 30 29  1  0
 31 32  2  0
 31 33  1  0
M  END
$$$$
