WKQ.pdb
     RDKit          3D

 33 34  0  0  1  0  0  0  0  0999 V2000
    6.4132  -18.5812   24.6792 N   0  0  0  0  0  0  0  0  0  0  0  0
    6.6023  -17.1622   24.6041 C   0  0  1  0  0  0  0  0  0  0  0  0
    7.2232  -16.6472   25.8576 C   0  0  0  0  0  0  0  0  0  0  0  0
    6.6117  -15.3477   26.2184 C   0  0  0  0  0  0  0  0  0  0  0  0
    5.2724  -15.1490   26.5636 C   0  0  0  0  0  0  0  0  0  0  0  0
    5.0527  -13.8680   26.8674 N   0  0  0  0  0  0  0  0  0  0  0  0
    6.2195  -13.2018   26.7321 C   0  0  0  0  0  0  0  0  0  0  0  0
    6.5307  -11.8654   26.9171 C   0  0  0  0  0  0  0  0  0  0  0  0
    7.8246  -11.4504   26.6936 C   0  0  0  0  0  0  0  0  0  0  0  0
    8.8159  -12.3148   26.2937 C   0  0  0  0  0  0  0  0  0  0  0  0
    8.4736  -13.6589   26.1148 C   0  0  0  0  0  0  0  0  0  0  0  0
    7.2025  -14.1023   26.3287 C   0  0  0  0  0  0  0  0  0  0  0  0
    7.4018  -16.8321   23.3952 C   0  0  0  0  0  0  0  0  0  0  0  0
    8.4165  -17.5112   23.1484 O   0  0  0  0  0  0  0  0  0  0  0  0
    7.0368  -15.7769   22.5340 N   0  0  0  0  0  0  0  0  0  0  0  0
    7.9378  -15.2249   21.5061 C   0  0  1  0  0  0  0  0  0  0  0  0
    7.2557  -14.0246   20.9632 C   0  0  0  0  0  0  0  0  0  0  0  0
    7.9146  -13.3017   19.8482 C   0  0  0  0  0  0  0  0  0  0  0  0
    8.1033  -14.2536   18.6609 C   0  0  0  0  0  0  0  0  0  0  0  0
    8.7870  -13.6082   17.5003 C   0  0  0  0  0  0  0  0  0  0  0  0
    7.8113  -12.8833   16.6822 N   0  0  0  0  0  0  0  0  0  0  0  0
    9.2642  -15.0481   22.0875 C   0  0  0  0  0  0  0  0  0  0  0  0
    9.5379  -14.1413   22.9378 O   0  0  0  0  0  0  0  0  0  0  0  0
   12.7565  -18.1378   26.0092 N   0  0  0  0  0  0  0  0  0  0  0  0
   12.7361  -18.6082   24.6822 C   0  0  0  0  0  0  0  0  0  0  0  0
   12.6995  -19.8572   24.4863 O   0  0  0  0  0  0  0  0  0  0  0  0
   12.7488  -17.7162   23.5110 C   0  0  0  0  0  0  0  0  0  0  0  0
   11.7105  -16.6593   23.4933 C   0  0  0  0  0  0  0  0  0  0  0  0
   11.6954  -15.7094   22.3420 C   0  0  2  0  0  0  0  0  0  0  0  0
   10.3312  -15.8919   21.7354 N   0  0  0  0  0  0  0  0  0  0  0  0
   12.6419  -15.9492   21.2571 C   0  0  0  0  0  0  0  0  0  0  0  0
   13.8742  -15.7167   21.3665 O   0  0  0  0  0  0  0  0  0  0  0  0
   12.2003  -16.4678   20.0235 O   0  0  0  0  0  0  0  0  0  0  0  0
  2  1  1  1
  3  2  1  0
  4  5  2  0
  4  3  1  0
  6  5  1  0
  7 12  2  0
  7  6  1  0
  8  7  1  0
  9 10  1  0
  9  8  2  0
 10 11  2  0
 11 12  1  0
 12  4  1  0
 13  2  1  0
 14 13  2  0
 15 13  1  0
 16 22  1  0
 16 15  1  0
 16 17  1  1
 18 17  1  0
 19 18  1  0
 20 19  1  0
 21 20  1  0
 22 30  1  0
 23 22  2  0
 24 25  1  0
 25 27  1  0
 26 25  2  0
 27 28  1  0
 29 28  1  1
 29 31  1  0
 30 29  1  0
 31 32  2  0
 31 33  1  0
M  END
$$$$
