WKQ.pdb
     RDKit          3D

 33 34  0  0  1  0  0  0  0  0999 V2000
    6.4343  -17.9773   24.4887 N   0  0  0  0  0  0  0  0  0  0  0  0
    7.0502  -16.7107   24.2218 C   0  0  1  0  0  0  0  0  0  0  0  0
    7.7583  -16.2047   25.4321 C   0  0  0  0  0  0  0  0  0  0  0  0
    6.9655  -15.1205   26.0556 C   0  0  0  0  0  0  0  0  0  0  0  0
    5.8279  -15.2990   26.8472 C   0  0  0  0  0  0  0  0  0  0  0  0
    5.3718  -14.1227   27.2827 N   0  0  0  0  0  0  0  0  0  0  0  0
    6.1814  -13.1567   26.7981 C   0  0  0  0  0  0  0  0  0  0  0  0
    6.1443  -11.7804   26.9448 C   0  0  0  0  0  0  0  0  0  0  0  0
    7.1086  -11.0222   26.3192 C   0  0  0  0  0  0  0  0  0  0  0  0
    8.1048  -11.5828   25.5554 C   0  0  0  0  0  0  0  0  0  0  0  0
    8.1183  -12.9751   25.4245 C   0  0  0  0  0  0  0  0  0  0  0  0
    7.1790  -13.7544   26.0317 C   0  0  0  0  0  0  0  0  0  0  0  0
    7.9505  -16.8354   23.0457 C   0  0  0  0  0  0  0  0  0  0  0  0
    8.4871  -17.9367   22.8204 O   0  0  0  0  0  0  0  0  0  0  0  0
    8.2049  -15.7427   22.1914 N   0  0  0  0  0  0  0  0  0  0  0  0
    9.2507  -15.7561   21.1526 C   0  0  1  0  0  0  0  0  0  0  0  0
    8.9669  -14.5991   20.2685 C   0  0  0  0  0  0  0  0  0  0  0  0
    8.0613  -14.8185   19.1145 C   0  0  0  0  0  0  0  0  0  0  0  0
    8.2858  -13.7180   18.0704 C   0  0  0  0  0  0  0  0  0  0  0  0
    7.4393  -13.8902   16.8519 C   0  0  0  0  0  0  0  0  0  0  0  0
    7.7784  -12.8700   15.8564 N   0  0  0  0  0  0  0  0  0  0  0  0
   10.5572  -15.8125   21.7996 C   0  0  0  0  0  0  0  0  0  0  0  0
   10.8937  -15.0478   22.7600 O   0  0  0  0  0  0  0  0  0  0  0  0
   14.3631  -21.3416   23.2823 N   0  0  0  0  0  0  0  0  0  0  0  0
   13.8229  -20.1937   23.8931 C   0  0  0  0  0  0  0  0  0  0  0  0
   13.1918  -20.3305   24.9806 O   0  0  0  0  0  0  0  0  0  0  0  0
   13.9627  -18.8404   23.3305 C   0  0  0  0  0  0  0  0  0  0  0  0
   12.7328  -18.2527   22.7498 C   0  0  0  0  0  0  0  0  0  0  0  0
   12.8225  -16.8893   22.1486 C   0  0  2  0  0  0  0  0  0  0  0  0
   11.5321  -16.7383   21.3908 N   0  0  0  0  0  0  0  0  0  0  0  0
   13.8807  -16.6509   21.1720 C   0  0  0  0  0  0  0  0  0  0  0  0
   15.0725  -16.4189   21.5042 O   0  0  0  0  0  0  0  0  0  0  0  0
   13.6002  -16.6800   19.7913 O   0  0  0  0  0  0  0  0  0  0  0  0
  2  1  1  1
  3  2  1  0
  4  5  2  0
  4  3  1  0
  6  5  1  0
  7 12  2  0
  7  6  1  0
  8  7  1  0
  9 10  1  0
  9  8  2  0
 10 11  2  0
 11 12  1  0
 12  4  1  0
 13  2  1  0
 14 13  2  0
 15 13  1  0
 16 22  1  0
 16 15  1  0
 16 17  1  1
 18 17  1  0
 19 18  1  0
 20 19  1  0
 21 20  1  0
 22 30  1  0
 23 22  2  0
 24 25  1  0
 25 27  1  0
 26 25  2  0
 27 28  1  0
 29 28  1  6
 29 31  1  0
 30 29  1  0
 31 32  2  0
 31 33  1  0
M  END
$$$$
