WKQ.pdb
     RDKit          3D

 33 34  0  0  1  0  0  0  0  0999 V2000
    6.7006  -17.9199   24.7443 N   0  0  0  0  0  0  0  0  0  0  0  0
    7.0045  -16.5929   24.2954 C   0  0  1  0  0  0  0  0  0  0  0  0
    7.9886  -15.9418   25.2063 C   0  0  0  0  0  0  0  0  0  0  0  0
    7.3203  -14.8658   25.9735 C   0  0  0  0  0  0  0  0  0  0  0  0
    6.2376  -15.0388   26.8396 C   0  0  0  0  0  0  0  0  0  0  0  0
    5.8959  -13.8764   27.3995 N   0  0  0  0  0  0  0  0  0  0  0  0
    6.7286  -12.9250   26.9252 C   0  0  0  0  0  0  0  0  0  0  0  0
    6.7950  -11.5654   27.1789 C   0  0  0  0  0  0  0  0  0  0  0  0
    7.7570  -10.8187   26.5361 C   0  0  0  0  0  0  0  0  0  0  0  0
    8.6518  -11.3747   25.6528 C   0  0  0  0  0  0  0  0  0  0  0  0
    8.5620  -12.7500   25.4155 C   0  0  0  0  0  0  0  0  0  0  0  0
    7.6223  -13.5178   26.0363 C   0  0  0  0  0  0  0  0  0  0  0  0
    7.4780  -16.6424   22.8873 C   0  0  0  0  0  0  0  0  0  0  0  0
    7.5990  -17.7539   22.3382 O   0  0  0  0  0  0  0  0  0  0  0  0
    7.7890  -15.4681   22.1711 N   0  0  0  0  0  0  0  0  0  0  0  0
    7.9236  -15.4289   20.7037 C   0  0  1  0  0  0  0  0  0  0  0  0
    7.6756  -14.0215   20.3056 C   0  0  0  0  0  0  0  0  0  0  0  0
    7.3280  -13.7564   18.8882 C   0  0  0  0  0  0  0  0  0  0  0  0
    8.6000  -13.7959   18.0326 C   0  0  0  0  0  0  0  0  0  0  0  0
    8.3253  -13.6323   16.5735 C   0  0  0  0  0  0  0  0  0  0  0  0
    9.5702  -13.7571   15.8110 N   0  0  0  0  0  0  0  0  0  0  0  0
    9.2020  -16.0252   20.3313 C   0  0  0  0  0  0  0  0  0  0  0  0
    9.4098  -16.5845   19.2070 O   0  0  0  0  0  0  0  0  0  0  0  0
   13.5107  -13.0251   18.8432 N   0  0  0  0  0  0  0  0  0  0  0  0
   14.2506  -14.2044   19.0540 C   0  0  0  0  0  0  0  0  0  0  0  0
   15.4599  -14.2310   18.6845 O   0  0  0  0  0  0  0  0  0  0  0  0
   13.6864  -15.4065   19.6900 C   0  0  0  0  0  0  0  0  0  0  0  0
   12.2796  -15.2976   20.1418 C   0  0  0  0  0  0  0  0  0  0  0  0
   11.6508  -16.4948   20.7740 C   0  0  2  0  0  0  0  0  0  0  0  0
   10.2968  -16.0080   21.2121 N   0  0  0  0  0  0  0  0  0  0  0  0
   12.2814  -17.0328   21.9753 C   0  0  0  0  0  0  0  0  0  0  0  0
   11.7974  -16.8733   23.1264 O   0  0  0  0  0  0  0  0  0  0  0  0
   13.4775  -17.7725   21.8859 O   0  0  0  0  0  0  0  0  0  0  0  0
  2  1  1  1
  3  2  1  0
  4  5  2  0
  4  3  1  0
  6  5  1  0
  7 12  2  0
  7  6  1  0
  8  7  1  0
  9 10  1  0
  9  8  2  0
 10 11  2  0
 11 12  1  0
 12  4  1  0
 13  2  1  0
 14 13  2  0
 15 13  1  0
 16 22  1  0
 16 15  1  0
 16 17  1  1
 18 17  1  0
 19 18  1  0
 20 19  1  0
 21 20  1  0
 22 30  1  0
 23 22  2  0
 24 25  1  0
 25 27  1  0
 26 25  2  0
 27 28  1  0
 29 28  1  1
 29 31  1  0
 30 29  1  0
 31 32  2  0
 31 33  1  0
M  END
$$$$
