WKQ.pdb
     RDKit          3D

 33 34  0  0  1  0  0  0  0  0999 V2000
    6.4564  -18.4464   25.0102 N   0  0  0  0  0  0  0  0  0  0  0  0
    6.6743  -17.0421   24.8226 C   0  0  1  0  0  0  0  0  0  0  0  0
    7.3366  -16.4481   26.0187 C   0  0  0  0  0  0  0  0  0  0  0  0
    6.7167  -15.1404   26.3327 C   0  0  0  0  0  0  0  0  0  0  0  0
    5.3572  -14.9230   26.5709 C   0  0  0  0  0  0  0  0  0  0  0  0
    5.1321  -13.6394   26.8593 N   0  0  0  0  0  0  0  0  0  0  0  0
    6.3153  -12.9898   26.8187 C   0  0  0  0  0  0  0  0  0  0  0  0
    6.6297  -11.6581   27.0309 C   0  0  0  0  0  0  0  0  0  0  0  0
    7.9429  -11.2613   26.9119 C   0  0  0  0  0  0  0  0  0  0  0  0
    8.9506  -12.1393   26.5900 C   0  0  0  0  0  0  0  0  0  0  0  0
    8.6047  -13.4782   26.3813 C   0  0  0  0  0  0  0  0  0  0  0  0
    7.3145  -13.9037   26.4926 C   0  0  0  0  0  0  0  0  0  0  0  0
    7.4510  -16.8235   23.5742 C   0  0  0  0  0  0  0  0  0  0  0  0
    8.3554  -17.6302   23.2864 O   0  0  0  0  0  0  0  0  0  0  0  0
    7.1856  -15.7326   22.7209 N   0  0  0  0  0  0  0  0  0  0  0  0
    8.0778  -15.3353   21.6168 C   0  0  1  0  0  0  0  0  0  0  0  0
    7.5017  -14.0912   21.0502 C   0  0  0  0  0  0  0  0  0  0  0  0
    8.2105  -13.4591   19.9108 C   0  0  0  0  0  0  0  0  0  0  0  0
    7.7658  -14.1198   18.6004 C   0  0  0  0  0  0  0  0  0  0  0  0
    8.4640  -13.5647   17.4023 C   0  0  0  0  0  0  0  0  0  0  0  0
    7.9413  -14.1869   16.1832 N   0  0  0  0  0  0  0  0  0  0  0  0
    9.4487  -15.2846   22.1133 C   0  0  0  0  0  0  0  0  0  0  0  0
    9.7904  -14.6353   23.1535 O   0  0  0  0  0  0  0  0  0  0  0  0
   13.8794  -20.1268   23.4703 N   0  0  0  0  0  0  0  0  0  0  0  0
   13.3082  -18.9579   24.0087 C   0  0  0  0  0  0  0  0  0  0  0  0
   12.7958  -19.0146   25.1637 O   0  0  0  0  0  0  0  0  0  0  0  0
   13.2840  -17.6705   23.2947 C   0  0  0  0  0  0  0  0  0  0  0  0
   11.9538  -17.2186   22.8239 C   0  0  0  0  0  0  0  0  0  0  0  0
   11.8847  -15.9691   22.0101 C   0  0  2  0  0  0  0  0  0  0  0  0
   10.4857  -15.9697   21.4576 N   0  0  0  0  0  0  0  0  0  0  0  0
   12.7642  -15.8703   20.8495 C   0  0  0  0  0  0  0  0  0  0  0  0
   12.3966  -16.1907   19.6890 O   0  0  0  0  0  0  0  0  0  0  0  0
   14.0834  -15.3950   20.9896 O   0  0  0  0  0  0  0  0  0  0  0  0
  2  1  1  1
  3  2  1  0
  4  5  2  0
  4  3  1  0
  6  5  1  0
  7 12  2  0
  7  6  1  0
  8  7  1  0
  9 10  1  0
  9  8  2  0
 10 11  2  0
 11 12  1  0
 12  4  1  0
 13  2  1  0
 14 13  2  0
 15 13  1  0
 16 22  1  0
 16 15  1  0
 16 17  1  1
 18 17  1  0
 19 18  1  0
 20 19  1  0
 21 20  1  0
 22 30  1  0
 23 22  2  0
 24 25  1  0
 25 27  1  0
 26 25  2  0
 27 28  1  0
 29 28  1  6
 29 31  1  0
 30 29  1  0
 31 32  2  0
 31 33  1  0
M  END
$$$$
