WKQ.pdb
     RDKit          3D

 33 34  0  0  1  0  0  0  0  0999 V2000
    6.9670  -17.6132   25.4074 N   0  0  0  0  0  0  0  0  0  0  0  0
    7.5860  -16.4733   24.7972 C   0  0  1  0  0  0  0  0  0  0  0  0
    8.7037  -15.9660   25.6430 C   0  0  0  0  0  0  0  0  0  0  0  0
    8.1684  -15.0567   26.6820 C   0  0  0  0  0  0  0  0  0  0  0  0
    8.2420  -15.2676   28.0613 C   0  0  0  0  0  0  0  0  0  0  0  0
    7.6962  -14.2437   28.7210 N   0  0  0  0  0  0  0  0  0  0  0  0
    7.2566  -13.3486   27.8105 C   0  0  0  0  0  0  0  0  0  0  0  0
    6.6149  -12.1317   27.9675 C   0  0  0  0  0  0  0  0  0  0  0  0
    6.2645  -11.4186   26.8428 C   0  0  0  0  0  0  0  0  0  0  0  0
    6.5287  -11.8720   25.5721 C   0  0  0  0  0  0  0  0  0  0  0  0
    7.1779  -13.1039   25.4430 C   0  0  0  0  0  0  0  0  0  0  0  0
    7.5392  -13.8340   26.5359 C   0  0  0  0  0  0  0  0  0  0  0  0
    8.0269  -16.8256   23.4221 C   0  0  0  0  0  0  0  0  0  0  0  0
    8.2994  -18.0147   23.1702 O   0  0  0  0  0  0  0  0  0  0  0  0
    8.1411  -15.8498   22.4105 N   0  0  0  0  0  0  0  0  0  0  0  0
    8.6591  -16.1418   21.0616 C   0  0  1  0  0  0  0  0  0  0  0  0
    8.1150  -15.0845   20.1746 C   0  0  0  0  0  0  0  0  0  0  0  0
    8.4145  -15.1784   18.7249 C   0  0  0  0  0  0  0  0  0  0  0  0
    7.8168  -13.9673   17.9986 C   0  0  0  0  0  0  0  0  0  0  0  0
    7.9569  -14.0515   16.5139 C   0  0  0  0  0  0  0  0  0  0  0  0
    7.2871  -12.9127   15.8807 N   0  0  0  0  0  0  0  0  0  0  0  0
   10.1089  -16.2878   21.1346 C   0  0  0  0  0  0  0  0  0  0  0  0
   10.8507  -15.5371   21.8461 O   0  0  0  0  0  0  0  0  0  0  0  0
   15.2490  -19.4943   22.7920 N   0  0  0  0  0  0  0  0  0  0  0  0
   14.0872  -20.0263   22.2004 C   0  0  0  0  0  0  0  0  0  0  0  0
   13.3827  -20.8318   22.8746 O   0  0  0  0  0  0  0  0  0  0  0  0
   13.6490  -19.6853   20.8369 C   0  0  0  0  0  0  0  0  0  0  0  0
   12.3103  -19.0598   20.7266 C   0  0  0  0  0  0  0  0  0  0  0  0
   12.2358  -17.5713   20.6428 C   0  0  2  0  0  0  0  0  0  0  0  0
   10.7763  -17.2909   20.4114 N   0  0  0  0  0  0  0  0  0  0  0  0
   12.9391  -16.9216   19.5412 C   0  0  0  0  0  0  0  0  0  0  0  0
   12.3967  -16.6951   18.4281 O   0  0  0  0  0  0  0  0  0  0  0  0
   14.2783  -16.5093   19.6910 O   0  0  0  0  0  0  0  0  0  0  0  0
  2  1  1  1
  3  2  1  0
  4  5  2  0
  4  3  1  0
  6  5  1  0
  7 12  2  0
  7  6  1  0
  8  7  1  0
  9 10  1  0
  9  8  2  0
 10 11  2  0
 11 12  1  0
 12  4  1  0
 13  2  1  0
 14 13  2  0
 15 13  1  0
 16 22  1  0
 16 15  1  0
 16 17  1  6
 18 17  1  0
 19 18  1  0
 20 19  1  0
 21 20  1  0
 22 30  1  0
 23 22  2  0
 24 25  1  0
 25 27  1  0
 26 25  2  0
 27 28  1  0
 29 28  1  6
 29 31  1  0
 30 29  1  0
 31 32  2  0
 31 33  1  0
M  END
$$$$
