WKQ.pdb
     RDKit          3D

 33 34  0  0  1  0  0  0  0  0999 V2000
    6.6620  -18.5837   24.8618 N   0  0  0  0  0  0  0  0  0  0  0  0
    6.9908  -17.2139   24.5964 C   0  0  1  0  0  0  0  0  0  0  0  0
    7.6430  -16.5902   25.7829 C   0  0  0  0  0  0  0  0  0  0  0  0
    6.8402  -15.4334   26.2413 C   0  0  0  0  0  0  0  0  0  0  0  0
    5.5657  -15.5042   26.8096 C   0  0  0  0  0  0  0  0  0  0  0  0
    5.1347  -14.2863   27.1451 N   0  0  0  0  0  0  0  0  0  0  0  0
    6.0957  -13.3981   26.8122 C   0  0  0  0  0  0  0  0  0  0  0  0
    6.1447  -12.0202   26.9400 C   0  0  0  0  0  0  0  0  0  0  0  0
    7.2663  -11.3544   26.4986 C   0  0  0  0  0  0  0  0  0  0  0  0
    8.3369  -12.0085   25.9365 C   0  0  0  0  0  0  0  0  0  0  0  0
    8.2606  -13.4000   25.8199 C   0  0  0  0  0  0  0  0  0  0  0  0
    7.1652  -14.0893   26.2479 C   0  0  0  0  0  0  0  0  0  0  0  0
    7.8346  -17.1345   23.3753 C   0  0  0  0  0  0  0  0  0  0  0  0
    8.6567  -18.0450   23.1590 O   0  0  0  0  0  0  0  0  0  0  0  0
    7.7224  -16.0600   22.4689 N   0  0  0  0  0  0  0  0  0  0  0  0
    8.7345  -15.7632   21.4391 C   0  0  1  0  0  0  0  0  0  0  0  0
    8.1940  -14.6325   20.6453 C   0  0  0  0  0  0  0  0  0  0  0  0
    8.4442  -14.6341   19.1832 C   0  0  0  0  0  0  0  0  0  0  0  0
    7.7429  -13.4306   18.5420 C   0  0  0  0  0  0  0  0  0  0  0  0
    7.8813  -13.4006   17.0551 C   0  0  0  0  0  0  0  0  0  0  0  0
    7.1710  -12.2419   16.5077 N   0  0  0  0  0  0  0  0  0  0  0  0
   10.0282  -15.5804   22.0884 C   0  0  0  0  0  0  0  0  0  0  0  0
   10.1998  -14.8314   23.1032 O   0  0  0  0  0  0  0  0  0  0  0  0
   12.3393  -20.1786   24.6509 N   0  0  0  0  0  0  0  0  0  0  0  0
   13.1272  -19.0777   25.0380 C   0  0  0  0  0  0  0  0  0  0  0  0
   13.6461  -19.0843   26.1914 O   0  0  0  0  0  0  0  0  0  0  0  0
   13.3816  -17.9217   24.1626 C   0  0  0  0  0  0  0  0  0  0  0  0
   12.2407  -17.4826   23.3255 C   0  0  0  0  0  0  0  0  0  0  0  0
   12.4323  -16.2909   22.4472 C   0  0  2  0  0  0  0  0  0  0  0  0
   11.1769  -16.2407   21.6203 N   0  0  0  0  0  0  0  0  0  0  0  0
   13.5319  -16.3294   21.4882 C   0  0  0  0  0  0  0  0  0  0  0  0
   14.7231  -16.0796   21.8098 O   0  0  0  0  0  0  0  0  0  0  0  0
   13.2943  -16.6621   20.1397 O   0  0  0  0  0  0  0  0  0  0  0  0
  2  1  1  1
  3  2  1  0
  4  5  2  0
  4  3  1  0
  6  5  1  0
  7 12  2  0
  7  6  1  0
  8  7  1  0
  9 10  1  0
  9  8  2  0
 10 11  2  0
 11 12  1  0
 12  4  1  0
 13  2  1  0
 14 13  2  0
 15 13  1  0
 16 22  1  0
 16 15  1  0
 16 17  1  1
 18 17  1  0
 19 18  1  0
 20 19  1  0
 21 20  1  0
 22 30  1  0
 23 22  2  0
 24 25  1  0
 25 27  1  0
 26 25  2  0
 27 28  1  0
 29 28  1  6
 29 31  1  0
 30 29  1  0
 31 32  2  0
 31 33  1  0
M  END
$$$$
