WKQ.pdb
     RDKit          3D

 33 34  0  0  1  0  0  0  0  0999 V2000
    6.5297  -18.2540   24.8477 N   0  0  0  0  0  0  0  0  0  0  0  0
    6.9258  -16.9124   24.5346 C   0  0  1  0  0  0  0  0  0  0  0  0
    7.6926  -16.3133   25.6638 C   0  0  0  0  0  0  0  0  0  0  0  0
    6.9945  -15.1020   26.1521 C   0  0  0  0  0  0  0  0  0  0  0  0
    5.7090  -15.0710   26.6986 C   0  0  0  0  0  0  0  0  0  0  0  0
    5.3890  -13.8301   27.0718 N   0  0  0  0  0  0  0  0  0  0  0  0
    6.4356  -13.0262   26.7856 C   0  0  0  0  0  0  0  0  0  0  0  0
    6.6123  -11.6646   26.9641 C   0  0  0  0  0  0  0  0  0  0  0  0
    7.7997  -11.0935   26.5639 C   0  0  0  0  0  0  0  0  0  0  0  0
    8.8137  -11.8265   25.9942 C   0  0  0  0  0  0  0  0  0  0  0  0
    8.6083  -13.1996   25.8260 C   0  0  0  0  0  0  0  0  0  0  0  0
    7.4451  -13.7960   26.2124 C   0  0  0  0  0  0  0  0  0  0  0  0
    7.6907  -16.9062   23.2601 C   0  0  0  0  0  0  0  0  0  0  0  0
    8.4624  -17.8550   23.0238 O   0  0  0  0  0  0  0  0  0  0  0  0
    7.5600  -15.8581   22.3256 N   0  0  0  0  0  0  0  0  0  0  0  0
    8.4287  -15.7177   21.1430 C   0  0  1  0  0  0  0  0  0  0  0  0
    7.8357  -14.6322   20.3239 C   0  0  0  0  0  0  0  0  0  0  0  0
    8.5065  -14.2862   19.0470 C   0  0  0  0  0  0  0  0  0  0  0  0
    7.7364  -13.1562   18.3533 C   0  0  0  0  0  0  0  0  0  0  0  0
    8.3101  -12.7917   17.0233 C   0  0  0  0  0  0  0  0  0  0  0  0
    8.3622  -13.9729   16.1580 N   0  0  0  0  0  0  0  0  0  0  0  0
    9.8088  -15.5566   21.5880 C   0  0  0  0  0  0  0  0  0  0  0  0
   10.1786  -14.6482   22.3993 O   0  0  0  0  0  0  0  0  0  0  0  0
   12.3914  -21.2520   22.2904 N   0  0  0  0  0  0  0  0  0  0  0  0
   12.7320  -19.9242   22.6121 C   0  0  0  0  0  0  0  0  0  0  0  0
   13.4107  -19.7129   23.6583 O   0  0  0  0  0  0  0  0  0  0  0  0
   12.3418  -18.7697   21.7859 C   0  0  0  0  0  0  0  0  0  0  0  0
   12.5384  -17.4377   22.4044 C   0  0  0  0  0  0  0  0  0  0  0  0
   12.2501  -16.2298   21.5760 C   0  0  2  0  0  0  0  0  0  0  0  0
   10.8234  -16.4187   21.1385 N   0  0  0  0  0  0  0  0  0  0  0  0
   13.0172  -16.0561   20.3465 C   0  0  0  0  0  0  0  0  0  0  0  0
   14.2403  -15.7587   20.3450 O   0  0  0  0  0  0  0  0  0  0  0  0
   12.4031  -16.2262   19.0896 O   0  0  0  0  0  0  0  0  0  0  0  0
  2  1  1  1
  3  2  1  0
  4  5  2  0
  4  3  1  0
  6  5  1  0
  7 12  2  0
  7  6  1  0
  8  7  1  0
  9 10  1  0
  9  8  2  0
 10 11  2  0
 11 12  1  0
 12  4  1  0
 13  2  1  0
 14 13  2  0
 15 13  1  0
 16 22  1  0
 16 15  1  0
 16 17  1  1
 18 17  1  0
 19 18  1  0
 20 19  1  0
 21 20  1  0
 22 30  1  0
 23 22  2  0
 24 25  1  0
 25 27  1  0
 26 25  2  0
 27 28  1  0
 29 28  1  6
 29 31  1  0
 30 29  1  0
 31 32  2  0
 31 33  1  0
M  END
$$$$
