WKQ.pdb
     RDKit          3D

 33 34  0  0  1  0  0  0  0  0999 V2000
    6.5424  -18.5070   25.0399 N   0  0  0  0  0  0  0  0  0  0  0  0
    6.8854  -17.1581   24.6967 C   0  0  1  0  0  0  0  0  0  0  0  0
    7.5916  -16.4910   25.8274 C   0  0  0  0  0  0  0  0  0  0  0  0
    6.8402  -15.2837   26.2405 C   0  0  0  0  0  0  0  0  0  0  0  0
    5.5488  -15.2745   26.7740 C   0  0  0  0  0  0  0  0  0  0  0  0
    5.1752  -14.0286   27.0735 N   0  0  0  0  0  0  0  0  0  0  0  0
    6.1915  -13.2001   26.7507 C   0  0  0  0  0  0  0  0  0  0  0  0
    6.3112  -11.8245   26.8531 C   0  0  0  0  0  0  0  0  0  0  0  0
    7.4787  -11.2288   26.4308 C   0  0  0  0  0  0  0  0  0  0  0  0
    8.5273  -11.9507   25.9118 C   0  0  0  0  0  0  0  0  0  0  0  0
    8.3792  -13.3383   25.8201 C   0  0  0  0  0  0  0  0  0  0  0  0
    7.2370  -13.9591   26.2303 C   0  0  0  0  0  0  0  0  0  0  0  0
    7.6850  -17.1536   23.4437 C   0  0  0  0  0  0  0  0  0  0  0  0
    8.4648  -18.1014   23.2312 O   0  0  0  0  0  0  0  0  0  0  0  0
    7.5779  -16.1083   22.5032 N   0  0  0  0  0  0  0  0  0  0  0  0
    8.4660  -15.9802   21.3336 C   0  0  1  0  0  0  0  0  0  0  0  0
    7.9073  -14.8787   20.5119 C   0  0  0  0  0  0  0  0  0  0  0  0
    8.4456  -14.6987   19.1416 C   0  0  0  0  0  0  0  0  0  0  0  0
    7.6872  -13.5669   18.4376 C   0  0  0  0  0  0  0  0  0  0  0  0
    8.1310  -13.3584   17.0267 C   0  0  0  0  0  0  0  0  0  0  0  0
    7.4116  -12.2270   16.4359 N   0  0  0  0  0  0  0  0  0  0  0  0
    9.8427  -15.8500   21.7989 C   0  0  0  0  0  0  0  0  0  0  0  0
   10.1748  -15.1479   22.8073 O   0  0  0  0  0  0  0  0  0  0  0  0
   12.2535  -18.8283   25.1965 N   0  0  0  0  0  0  0  0  0  0  0  0
   13.4180  -18.9405   24.4129 C   0  0  0  0  0  0  0  0  0  0  0  0
   14.4491  -19.4532   24.9361 O   0  0  0  0  0  0  0  0  0  0  0  0
   13.4919  -18.4957   23.0114 C   0  0  0  0  0  0  0  0  0  0  0  0
   12.2299  -17.9806   22.4304 C   0  0  0  0  0  0  0  0  0  0  0  0
   12.2511  -16.6326   21.7895 C   0  0  2  0  0  0  0  0  0  0  0  0
   10.8967  -16.5122   21.1467 N   0  0  0  0  0  0  0  0  0  0  0  0
   13.2153  -16.4108   20.7164 C   0  0  0  0  0  0  0  0  0  0  0  0
   12.9890  -16.7362   19.5216 O   0  0  0  0  0  0  0  0  0  0  0  0
   14.4585  -15.8044   20.9852 O   0  0  0  0  0  0  0  0  0  0  0  0
  2  1  1  1
  3  2  1  0
  4  5  2  0
  4  3  1  0
  6  5  1  0
  7 12  2  0
  7  6  1  0
  8  7  1  0
  9 10  1  0
  9  8  2  0
 10 11  2  0
 11 12  1  0
 12  4  1  0
 13  2  1  0
 14 13  2  0
 15 13  1  0
 16 22  1  0
 16 15  1  0
 16 17  1  1
 18 17  1  0
 19 18  1  0
 20 19  1  0
 21 20  1  0
 22 30  1  0
 23 22  2  0
 24 25  1  0
 25 27  1  0
 26 25  2  0
 27 28  1  0
 29 28  1  6
 29 31  1  0
 30 29  1  0
 31 32  2  0
 31 33  1  0
M  END
$$$$
