MNR.pdb
     RDKit          3D

 28 27  0  0  1  0  0  0  0  0999 V2000
   27.1754  -18.6640   -4.1015 C   0  0  0  0  0  0  0  0  0  0  0  0
   28.7600  -19.0030   -4.8557 S   0  0  0  0  0  0  0  0  0  0  0  0
   28.6983  -19.8423   -6.4116 C   0  0  0  0  0  0  0  0  0  0  0  0
   27.5808  -19.6308   -7.3306 C   0  0  0  0  0  0  0  0  0  0  0  0
   26.8914  -20.7561   -8.0039 C   0  0  2  0  0  0  0  0  0  0  0  0
   27.5748  -21.9757   -8.1059 N   0  0  0  0  0  0  0  0  0  0  0  0
   26.3670  -20.3395   -9.3449 C   0  0  0  0  0  0  0  0  0  0  0  0
   25.7638  -19.2429   -9.4482 O   0  0  0  0  0  0  0  0  0  0  0  0
   27.1818  -19.0324  -14.7910 N   0  0  0  0  0  0  0  0  0  0  0  0
   26.5408  -20.1515  -14.1428 C   0  0  0  0  0  0  0  0  0  0  0  0
   25.4932  -20.5825  -14.7015 O   0  0  0  0  0  0  0  0  0  0  0  0
   27.0905  -20.7471  -12.9027 C   0  0  0  0  0  0  0  0  0  0  0  0
   26.0247  -20.6642  -11.7929 C   0  0  2  0  0  0  0  0  0  0  0  0
   26.5195  -21.1328  -10.5365 N   0  0  0  0  0  0  0  0  0  0  0  0
   24.7526  -21.2214  -12.2465 C   0  0  0  0  0  0  0  0  0  0  0  0
   24.5622  -22.4765  -12.0443 O   0  0  0  0  0  0  0  0  0  0  0  0
   20.1782  -22.9513   -9.0748 N   0  0  0  0  0  0  0  0  0  0  0  0
   18.8526  -22.5664   -9.5059 C   0  0  0  0  0  0  0  0  0  0  0  0
   17.8797  -23.3915   -9.6215 N   0  0  0  0  0  0  0  0  0  0  0  0
   18.5538  -21.2191   -9.8300 N   0  0  0  0  0  0  0  0  0  0  0  0
   19.2524  -20.4562  -10.7476 C   0  0  0  0  0  0  0  0  0  0  0  0
   20.1314  -21.1002  -11.7709 C   0  0  0  0  0  0  0  0  0  0  0  0
   21.5276  -20.5492  -11.7739 C   0  0  0  0  0  0  0  0  0  0  0  0
   22.3276  -21.1433  -12.8886 C   0  0  2  0  0  0  0  0  0  0  0  0
   23.6932  -20.5558  -12.8830 N   0  0  0  0  0  0  0  0  0  0  0  0
   21.7824  -20.8900  -14.2328 C   0  0  0  0  0  0  0  0  0  0  0  0
   20.7700  -21.7216  -14.7358 O   0  0  0  0  0  0  0  0  0  0  0  0
   22.1832  -19.9439  -14.9783 O   0  0  0  0  0  0  0  0  0  0  0  0
  2  1  1  0
  3  2  1  0
  4  3  1  0
  5  4  1  0
  5  6  1  6
  7  5  1  0
  8  7  2  0
  9 10  1  0
 10 12  1  0
 11 10  2  0
 13 12  1  6
 13 14  1  0
 14  7  1  0
 15 13  1  0
 15 16  2  0
 17 18  1  0
 18 19  2  0
 18 20  1  0
 20 21  1  0
 22 23  1  0
 22 21  1  0
 24 23  1  1
 24 25  1  0
 25 15  1  0
 26 24  1  0
 27 26  1  0
 28 26  2  0
M  END
$$$$
