MNR.pdb
     RDKit          3D

 28 27  0  0  1  0  0  0  0  0999 V2000
   21.6426  -14.8684  -15.7506 C   0  0  0  0  0  0  0  0  0  0  0  0
   22.4156  -14.0858  -17.1593 S   0  0  0  0  0  0  0  0  0  0  0  0
   23.8509  -14.9039  -17.7917 C   0  0  0  0  0  0  0  0  0  0  0  0
   24.2284  -16.2310  -17.3074 C   0  0  0  0  0  0  0  0  0  0  0  0
   25.5064  -16.8748  -17.6910 C   0  0  2  0  0  0  0  0  0  0  0  0
   25.7866  -17.0111  -19.0576 N   0  0  0  0  0  0  0  0  0  0  0  0
   25.6769  -18.1892  -16.9909 C   0  0  0  0  0  0  0  0  0  0  0  0
   24.8474  -19.1066  -17.2089 O   0  0  0  0  0  0  0  0  0  0  0  0
   26.8940  -22.4619  -15.2761 N   0  0  0  0  0  0  0  0  0  0  0  0
   28.1636  -21.7826  -15.3753 C   0  0  0  0  0  0  0  0  0  0  0  0
   29.1814  -22.5282  -15.4343 O   0  0  0  0  0  0  0  0  0  0  0  0
   28.2505  -20.3040  -15.4071 C   0  0  0  0  0  0  0  0  0  0  0  0
   26.8252  -19.7187  -15.3918 C   0  0  2  0  0  0  0  0  0  0  0  0
   26.7518  -18.4648  -16.0738 N   0  0  0  0  0  0  0  0  0  0  0  0
   26.2531  -19.7698  -14.0484 C   0  0  0  0  0  0  0  0  0  0  0  0
   26.9307  -19.2170  -13.1062 O   0  0  0  0  0  0  0  0  0  0  0  0
   18.3888  -21.6177  -10.5093 N   0  0  0  0  0  0  0  0  0  0  0  0
   19.2212  -21.9311  -11.6496 C   0  0  0  0  0  0  0  0  0  0  0  0
   18.8098  -22.5979  -12.6628 N   0  0  0  0  0  0  0  0  0  0  0  0
   20.5716  -21.5033  -11.7060 N   0  0  0  0  0  0  0  0  0  0  0  0
   21.2381  -20.8617  -10.6783 C   0  0  0  0  0  0  0  0  0  0  0  0
   22.6558  -20.4171  -10.8423 C   0  0  0  0  0  0  0  0  0  0  0  0
   23.3163  -21.0021  -12.0566 C   0  0  0  0  0  0  0  0  0  0  0  0
   24.7109  -20.4828  -12.2011 C   0  0  2  0  0  0  0  0  0  0  0  0
   25.0408  -20.3510  -13.6448 N   0  0  0  0  0  0  0  0  0  0  0  0
   25.7489  -21.3543  -11.6256 C   0  0  0  0  0  0  0  0  0  0  0  0
   26.0502  -22.5749  -12.2496 O   0  0  0  0  0  0  0  0  0  0  0  0
   26.4003  -21.0600  -10.5765 O   0  0  0  0  0  0  0  0  0  0  0  0
  2  1  1  0
  3  2  1  0
  4  3  1  0
  5  4  1  0
  5  6  1  6
  7  5  1  0
  8  7  2  0
  9 10  1  0
 10 12  1  0
 11 10  2  0
 13 12  1  1
 13 14  1  0
 14  7  1  0
 15 13  1  0
 15 16  2  0
 17 18  1  0
 18 19  2  0
 18 20  1  0
 20 21  1  0
 22 23  1  0
 22 21  1  0
 24 23  1  6
 24 25  1  0
 25 15  1  0
 26 24  1  0
 27 26  1  0
 28 26  2  0
M  END
$$$$
