MNR.pdb
     RDKit          3D

 28 27  0  0  1  0  0  0  0  0999 V2000
   11.8629  -29.7633   -9.5743 C   0  0  0  0  0  0  0  0  0  0  0  0
   12.2244  -28.0416   -9.8898 S   0  0  0  0  0  0  0  0  0  0  0  0
   13.8079  -27.4822   -9.3339 C   0  0  0  0  0  0  0  0  0  0  0  0
   14.5814  -28.2658   -8.3717 C   0  0  0  0  0  0  0  0  0  0  0  0
   16.0347  -28.5020   -8.5361 C   0  0  2  0  0  0  0  0  0  0  0  0
   16.4364  -29.6285   -9.2669 N   0  0  0  0  0  0  0  0  0  0  0  0
   16.7383  -28.4616   -7.2131 C   0  0  0  0  0  0  0  0  0  0  0  0
   17.9586  -28.7539   -7.1640 O   0  0  0  0  0  0  0  0  0  0  0  0
   18.2934  -25.1883   -3.0417 N   0  0  0  0  0  0  0  0  0  0  0  0
   18.6298  -26.2538   -3.9554 C   0  0  0  0  0  0  0  0  0  0  0  0
   19.6629  -26.9198   -3.6648 O   0  0  0  0  0  0  0  0  0  0  0  0
   17.8043  -26.5370   -5.1526 C   0  0  0  0  0  0  0  0  0  0  0  0
   16.8543  -27.7090   -4.8392 C   0  0  2  0  0  0  0  0  0  0  0  0
   16.0880  -28.0996   -5.9808 N   0  0  0  0  0  0  0  0  0  0  0  0
   16.1138  -27.4660   -3.6034 C   0  0  0  0  0  0  0  0  0  0  0  0
   15.1924  -26.5706   -3.6438 O   0  0  0  0  0  0  0  0  0  0  0  0
   14.9992  -21.1139    0.3472 N   0  0  0  0  0  0  0  0  0  0  0  0
   14.3771  -21.9965    1.3091 C   0  0  0  0  0  0  0  0  0  0  0  0
   13.8799  -21.5945    2.4189 N   0  0  0  0  0  0  0  0  0  0  0  0
   14.2823  -23.3898    1.0653 N   0  0  0  0  0  0  0  0  0  0  0  0
   15.2328  -24.1389    0.3963 C   0  0  0  0  0  0  0  0  0  0  0  0
   15.0546  -25.6105    0.2038 C   0  0  0  0  0  0  0  0  0  0  0  0
   15.7806  -26.1358   -1.0003 C   0  0  0  0  0  0  0  0  0  0  0  0
   15.5403  -27.6024   -1.1638 C   0  0  2  0  0  0  0  0  0  0  0  0
   16.2776  -28.0927   -2.3581 N   0  0  0  0  0  0  0  0  0  0  0  0
   14.1305  -27.9692   -1.3785 C   0  0  0  0  0  0  0  0  0  0  0  0
   13.4708  -28.7638   -0.4281 O   0  0  0  0  0  0  0  0  0  0  0  0
   13.4636  -27.6012   -2.3940 O   0  0  0  0  0  0  0  0  0  0  0  0
  2  1  1  0
  3  2  1  0
  4  3  1  0
  5  4  1  0
  5  6  1  1
  7  5  1  0
  8  7  2  0
  9 10  1  0
 10 12  1  0
 11 10  2  0
 13 12  1  6
 13 14  1  0
 14  7  1  0
 15 13  1  0
 15 16  2  0
 17 18  1  0
 18 19  2  0
 18 20  1  0
 20 21  1  0
 22 23  1  0
 22 21  1  0
 24 23  1  6
 24 25  1  0
 25 15  1  0
 26 24  1  0
 27 26  1  0
 28 26  2  0
M  END
$$$$
