MNR.pdb
     RDKit          3D

 28 27  0  0  1  0  0  0  0  0999 V2000
   25.5885  -14.9870  -16.5698 C   0  0  0  0  0  0  0  0  0  0  0  0
   27.3324  -15.2905  -16.3218 S   0  0  0  0  0  0  0  0  0  0  0  0
   27.7689  -16.9653  -15.9564 C   0  0  0  0  0  0  0  0  0  0  0  0
   26.7564  -17.9204  -15.5083 C   0  0  0  0  0  0  0  0  0  0  0  0
   27.1062  -19.2935  -15.0758 C   0  0  2  0  0  0  0  0  0  0  0  0
   27.9253  -20.0569  -15.9191 N   0  0  0  0  0  0  0  0  0  0  0  0
   25.8785  -20.0679  -14.7020 C   0  0  0  0  0  0  0  0  0  0  0  0
   25.3532  -20.8247  -15.5556 O   0  0  0  0  0  0  0  0  0  0  0  0
   26.5065  -22.2097  -11.0906 N   0  0  0  0  0  0  0  0  0  0  0  0
   25.2995  -22.4354  -11.8492 C   0  0  0  0  0  0  0  0  0  0  0  0
   25.2849  -23.4802  -12.5587 O   0  0  0  0  0  0  0  0  0  0  0  0
   24.1579  -21.4931  -11.7870 C   0  0  0  0  0  0  0  0  0  0  0  0
   24.0669  -20.7288  -13.1219 C   0  0  2  0  0  0  0  0  0  0  0  0
   25.2608  -19.9952  -13.4036 N   0  0  0  0  0  0  0  0  0  0  0  0
   22.8072  -19.9953  -13.2199 C   0  0  0  0  0  0  0  0  0  0  0  0
   22.6820  -18.9527  -12.4786 O   0  0  0  0  0  0  0  0  0  0  0  0
   20.7447  -14.3550  -15.9627 N   0  0  0  0  0  0  0  0  0  0  0  0
   19.3697  -14.4052  -16.4077 C   0  0  0  0  0  0  0  0  0  0  0  0
   18.6112  -13.3754  -16.4769 N   0  0  0  0  0  0  0  0  0  0  0  0
   18.7753  -15.6303  -16.8022 N   0  0  0  0  0  0  0  0  0  0  0  0
   19.3947  -16.8646  -16.7326 C   0  0  0  0  0  0  0  0  0  0  0  0
   19.4151  -17.6426  -15.4564 C   0  0  0  0  0  0  0  0  0  0  0  0
   20.6102  -18.5431  -15.3385 C   0  0  0  0  0  0  0  0  0  0  0  0
   20.5399  -19.3525  -14.0833 C   0  0  2  0  0  0  0  0  0  0  0  0
   21.6983  -20.2829  -14.0311 N   0  0  0  0  0  0  0  0  0  0  0  0
   19.3375  -20.1945  -13.9672 C   0  0  0  0  0  0  0  0  0  0  0  0
   18.0900  -19.5909  -13.7455 O   0  0  0  0  0  0  0  0  0  0  0  0
   19.3643  -21.4605  -14.0575 O   0  0  0  0  0  0  0  0  0  0  0  0
  2  1  1  0
  3  2  1  0
  4  3  1  0
  5  4  1  0
  5  6  1  6
  7  5  1  0
  8  7  2  0
  9 10  1  0
 10 12  1  0
 11 10  2  0
 13 12  1  1
 13 14  1  0
 14  7  1  0
 15 13  1  0
 15 16  2  0
 17 18  1  0
 18 19  2  0
 18 20  1  0
 20 21  1  0
 22 23  1  0
 22 21  1  0
 24 23  1  6
 24 25  1  0
 25 15  1  0
 26 24  1  0
 27 26  1  0
 28 26  2  0
M  END
$$$$
