MNR.pdb
     RDKit          3D

 28 27  0  0  1  0  0  0  0  0999 V2000
   30.4650  -21.1505   -6.1581 C   0  0  0  0  0  0  0  0  0  0  0  0
   29.3495  -19.8135   -5.7545 S   0  0  0  0  0  0  0  0  0  0  0  0
   27.7094  -19.9700   -6.3987 C   0  0  0  0  0  0  0  0  0  0  0  0
   27.4741  -20.0088   -7.8413 C   0  0  0  0  0  0  0  0  0  0  0  0
   26.1088  -20.0287   -8.4160 C   0  0  2  0  0  0  0  0  0  0  0  0
   25.1585  -20.8670   -7.8169 N   0  0  0  0  0  0  0  0  0  0  0  0
   26.1523  -20.2649   -9.8956 C   0  0  0  0  0  0  0  0  0  0  0  0
   26.8451  -19.5020  -10.6132 O   0  0  0  0  0  0  0  0  0  0  0  0
   24.9371  -23.7966  -14.7886 N   0  0  0  0  0  0  0  0  0  0  0  0
   25.5791  -22.7796  -13.9905 C   0  0  0  0  0  0  0  0  0  0  0  0
   26.1635  -21.8642  -14.6351 O   0  0  0  0  0  0  0  0  0  0  0  0
   25.5438  -22.8200  -12.5099 C   0  0  0  0  0  0  0  0  0  0  0  0
   25.3568  -21.3872  -11.9747 C   0  0  2  0  0  0  0  0  0  0  0  0
   25.4389  -21.3311  -10.5489 N   0  0  0  0  0  0  0  0  0  0  0  0
   24.1981  -20.7456  -12.5914 C   0  0  0  0  0  0  0  0  0  0  0  0
   23.0722  -20.8702  -11.9836 O   0  0  0  0  0  0  0  0  0  0  0  0
   20.7621  -14.4569  -16.2966 N   0  0  0  0  0  0  0  0  0  0  0  0
   20.2635  -15.2915  -17.3672 C   0  0  0  0  0  0  0  0  0  0  0  0
   19.1972  -15.0318  -18.0277 N   0  0  0  0  0  0  0  0  0  0  0  0
   20.9490  -16.4714  -17.7515 N   0  0  0  0  0  0  0  0  0  0  0  0
   22.0280  -17.0110  -17.0756 C   0  0  0  0  0  0  0  0  0  0  0  0
   21.8262  -17.9902  -15.9644 C   0  0  0  0  0  0  0  0  0  0  0  0
   23.1165  -18.4844  -15.3778 C   0  0  0  0  0  0  0  0  0  0  0  0
   22.8565  -19.4833  -14.2961 C   0  0  2  0  0  0  0  0  0  0  0  0
   24.1518  -19.9976  -13.7783 N   0  0  0  0  0  0  0  0  0  0  0  0
   22.0941  -20.6664  -14.7289 C   0  0  0  0  0  0  0  0  0  0  0  0
   20.7219  -20.7459  -14.4450 O   0  0  0  0  0  0  0  0  0  0  0  0
   22.6164  -21.6384  -15.3565 O   0  0  0  0  0  0  0  0  0  0  0  0
  2  1  1  0
  3  2  1  0
  4  3  1  0
  5  4  1  0
  5  6  1  1
  7  5  1  0
  8  7  2  0
  9 10  1  0
 10 12  1  0
 11 10  2  0
 13 12  1  1
 13 14  1  0
 14  7  1  0
 15 13  1  0
 15 16  2  0
 17 18  1  0
 18 19  2  0
 18 20  1  0
 20 21  1  0
 22 23  1  0
 22 21  1  0
 24 23  1  6
 24 25  1  0
 25 15  1  0
 26 24  1  0
 27 26  1  0
 28 26  2  0
M  END
$$$$
