MNR.pdb
     RDKit          3D

 28 27  0  0  1  0  0  0  0  0999 V2000
   31.5319  -21.8257   -8.4906 C   0  0  0  0  0  0  0  0  0  0  0  0
   32.2334  -21.9442  -10.1303 S   0  0  0  0  0  0  0  0  0  0  0  0
   31.1192  -21.6031  -11.4612 C   0  0  0  0  0  0  0  0  0  0  0  0
   29.6829  -21.8316  -11.3101 C   0  0  0  0  0  0  0  0  0  0  0  0
   28.7158  -21.4992  -12.3821 C   0  0  2  0  0  0  0  0  0  0  0  0
   28.8095  -20.2346  -12.9793 N   0  0  0  0  0  0  0  0  0  0  0  0
   27.3089  -21.7616  -11.9364 C   0  0  0  0  0  0  0  0  0  0  0  0
   27.0278  -22.8782  -11.4352 O   0  0  0  0  0  0  0  0  0  0  0  0
   23.3623  -21.6689   -8.6533 N   0  0  0  0  0  0  0  0  0  0  0  0
   23.3875  -20.6290   -9.6540 C   0  0  0  0  0  0  0  0  0  0  0  0
   22.2659  -20.1357   -9.9606 O   0  0  0  0  0  0  0  0  0  0  0  0
   24.6567  -20.1785  -10.2711 C   0  0  0  0  0  0  0  0  0  0  0  0
   24.9569  -21.0604  -11.4984 C   0  0  2  0  0  0  0  0  0  0  0  0
   26.2489  -20.7939  -12.0486 N   0  0  0  0  0  0  0  0  0  0  0  0
   23.8328  -21.0582  -12.4317 C   0  0  0  0  0  0  0  0  0  0  0  0
   23.3925  -19.9111  -12.8092 O   0  0  0  0  0  0  0  0  0  0  0  0
   19.5240  -23.8673   -9.1950 N   0  0  0  0  0  0  0  0  0  0  0  0
   18.2072  -23.9969   -9.7787 C   0  0  0  0  0  0  0  0  0  0  0  0
   17.2448  -24.6290   -9.2178 N   0  0  0  0  0  0  0  0  0  0  0  0
   17.9062  -23.4139  -11.0353 N   0  0  0  0  0  0  0  0  0  0  0  0
   18.7382  -23.4483  -12.1392 C   0  0  0  0  0  0  0  0  0  0  0  0
   19.4115  -22.2082  -12.6322 C   0  0  0  0  0  0  0  0  0  0  0  0
   20.8509  -22.1183  -12.2160 C   0  0  0  0  0  0  0  0  0  0  0  0
   21.7432  -22.0426  -13.4134 C   0  0  2  0  0  0  0  0  0  0  0  0
   23.1604  -22.1616  -12.9804 N   0  0  0  0  0  0  0  0  0  0  0  0
   21.6526  -20.7781  -14.1624 C   0  0  0  0  0  0  0  0  0  0  0  0
   21.9391  -20.7669  -15.5363 O   0  0  0  0  0  0  0  0  0  0  0  0
   21.3239  -19.6751  -13.6269 O   0  0  0  0  0  0  0  0  0  0  0  0
  2  1  1  0
  3  2  1  0
  4  3  1  0
  5  4  1  0
  5  6  1  1
  7  5  1  0
  8  7  2  0
  9 10  1  0
 10 12  1  0
 11 10  2  0
 13 12  1  1
 13 14  1  0
 14  7  1  0
 15 13  1  0
 15 16  2  0
 17 18  1  0
 18 19  2  0
 18 20  1  0
 20 21  1  0
 22 23  1  0
 22 21  1  0
 24 23  1  1
 24 25  1  0
 25 15  1  0
 26 24  1  0
 27 26  1  0
 28 26  2  0
M  END
$$$$
