MNR.pdb
     RDKit          3D

 28 27  0  0  1  0  0  0  0  0999 V2000
    9.0598  -23.3777   -1.1615 C   0  0  0  0  0  0  0  0  0  0  0  0
   10.7780  -23.7896   -1.4315 S   0  0  0  0  0  0  0  0  0  0  0  0
   11.7338  -22.5573   -2.2664 C   0  0  0  0  0  0  0  0  0  0  0  0
   13.1259  -22.8134   -2.6333 C   0  0  0  0  0  0  0  0  0  0  0  0
   14.1875  -22.9948   -1.6159 C   0  0  2  0  0  0  0  0  0  0  0  0
   14.5828  -21.8727   -0.8749 N   0  0  0  0  0  0  0  0  0  0  0  0
   15.3847  -23.6778   -2.2050 C   0  0  0  0  0  0  0  0  0  0  0  0
   16.2860  -22.9792   -2.7310 O   0  0  0  0  0  0  0  0  0  0  0  0
   18.9923  -26.8291   -3.8437 N   0  0  0  0  0  0  0  0  0  0  0  0
   18.3250  -27.5549   -2.7895 C   0  0  0  0  0  0  0  0  0  0  0  0
   18.8845  -28.6258   -2.4217 O   0  0  0  0  0  0  0  0  0  0  0  0
   17.0655  -27.0606   -2.1860 C   0  0  0  0  0  0  0  0  0  0  0  0
   16.7100  -25.6994   -2.8148 C   0  0  2  0  0  0  0  0  0  0  0  0
   15.5642  -25.1062   -2.1999 N   0  0  0  0  0  0  0  0  0  0  0  0
   16.7028  -25.7830   -4.2734 C   0  0  0  0  0  0  0  0  0  0  0  0
   15.6422  -26.2568   -4.8237 O   0  0  0  0  0  0  0  0  0  0  0  0
   19.7545  -21.2028  -11.0716 N   0  0  0  0  0  0  0  0  0  0  0  0
   19.0347  -22.2975  -11.6837 C   0  0  0  0  0  0  0  0  0  0  0  0
   18.7083  -22.3241  -12.9220 N   0  0  0  0  0  0  0  0  0  0  0  0
   18.6442  -23.4287  -10.9237 N   0  0  0  0  0  0  0  0  0  0  0  0
   18.7950  -23.5479   -9.5544 C   0  0  0  0  0  0  0  0  0  0  0  0
   18.3283  -24.7718   -8.8342 C   0  0  0  0  0  0  0  0  0  0  0  0
   18.5214  -24.6863   -7.3481 C   0  0  0  0  0  0  0  0  0  0  0  0
   17.5139  -25.5300   -6.6351 C   0  0  2  0  0  0  0  0  0  0  0  0
   17.7173  -25.4064   -5.1675 N   0  0  0  0  0  0  0  0  0  0  0  0
   17.6000  -26.9686   -6.9369 C   0  0  0  0  0  0  0  0  0  0  0  0
   16.9770  -27.4713   -8.0897 O   0  0  0  0  0  0  0  0  0  0  0  0
   18.2175  -27.7976   -6.1999 O   0  0  0  0  0  0  0  0  0  0  0  0
  2  1  1  0
  3  2  1  0
  4  3  1  0
  5  4  1  0
  5  6  1  6
  7  5  1  0
  8  7  2  0
  9 10  1  0
 10 12  1  0
 11 10  2  0
 13 12  1  1
 13 14  1  0
 14  7  1  0
 15 13  1  0
 15 16  2  0
 17 18  1  0
 18 19  2  0
 18 20  1  0
 20 21  1  0
 22 23  1  0
 22 21  1  0
 24 23  1  6
 24 25  1  0
 25 15  1  0
 26 24  1  0
 27 26  1  0
 28 26  2  0
M  END
$$$$
