MNR.pdb
     RDKit          3D

 28 27  0  0  1  0  0  0  0  0999 V2000
   27.6432  -18.6825   -6.8931 C   0  0  0  0  0  0  0  0  0  0  0  0
   27.1346  -20.3347   -6.4392 S   0  0  0  0  0  0  0  0  0  0  0  0
   27.0603  -21.5001   -7.7679 C   0  0  0  0  0  0  0  0  0  0  0  0
   27.1307  -21.0531   -9.1583 C   0  0  0  0  0  0  0  0  0  0  0  0
   25.9935  -20.3789   -9.8270 C   0  0  2  0  0  0  0  0  0  0  0  0
   24.7153  -20.5525   -9.2788 N   0  0  0  0  0  0  0  0  0  0  0  0
   25.9763  -20.6836  -11.2946 C   0  0  0  0  0  0  0  0  0  0  0  0
   26.9635  -20.3518  -11.9964 O   0  0  0  0  0  0  0  0  0  0  0  0
   26.4466  -21.2767  -16.2854 N   0  0  0  0  0  0  0  0  0  0  0  0
   26.0126  -22.3153  -15.3820 C   0  0  0  0  0  0  0  0  0  0  0  0
   25.5327  -23.3496  -15.9254 O   0  0  0  0  0  0  0  0  0  0  0  0
   26.1314  -22.1637  -13.9130 C   0  0  0  0  0  0  0  0  0  0  0  0
   24.8592  -21.4798  -13.3763 C   0  0  2  0  0  0  0  0  0  0  0  0
   24.8807  -21.3455  -11.9535 N   0  0  0  0  0  0  0  0  0  0  0  0
   23.6594  -22.0736  -13.9616 C   0  0  0  0  0  0  0  0  0  0  0  0
   22.9971  -22.8928  -13.2248 O   0  0  0  0  0  0  0  0  0  0  0  0
   17.4248  -23.7205  -11.2299 N   0  0  0  0  0  0  0  0  0  0  0  0
   16.8822  -24.2662  -12.4542 C   0  0  0  0  0  0  0  0  0  0  0  0
   15.6920  -24.7285  -12.5554 N   0  0  0  0  0  0  0  0  0  0  0  0
   17.6610  -24.3174  -13.6377 N   0  0  0  0  0  0  0  0  0  0  0  0
   19.0293  -24.1243  -13.6891 C   0  0  0  0  0  0  0  0  0  0  0  0
   19.6274  -23.1091  -14.6088 C   0  0  0  0  0  0  0  0  0  0  0  0
   21.1212  -23.0207  -14.4918 C   0  0  0  0  0  0  0  0  0  0  0  0
   21.6740  -22.0617  -15.4968 C   0  0  2  0  0  0  0  0  0  0  0  0
   23.1252  -21.8629  -15.2424 N   0  0  0  0  0  0  0  0  0  0  0  0
   21.0678  -20.7204  -15.4576 C   0  0  0  0  0  0  0  0  0  0  0  0
   21.7579  -19.6682  -14.8360 O   0  0  0  0  0  0  0  0  0  0  0  0
   19.9341  -20.4550  -15.9634 O   0  0  0  0  0  0  0  0  0  0  0  0
  2  1  1  0
  3  2  1  0
  4  3  1  0
  5  4  1  0
  5  6  1  1
  7  5  1  0
  8  7  2  0
  9 10  1  0
 10 12  1  0
 11 10  2  0
 13 12  1  1
 13 14  1  0
 14  7  1  0
 15 13  1  0
 15 16  2  0
 17 18  1  0
 18 19  2  0
 18 20  1  0
 20 21  1  0
 22 23  1  0
 22 21  1  0
 24 23  1  1
 24 25  1  0
 25 15  1  0
 26 24  1  0
 27 26  1  0
 28 26  2  0
M  END
$$$$
