MNR.pdb
     RDKit          3D

 28 27  0  0  1  0  0  0  0  0999 V2000
   30.6565  -22.5627   -8.3715 C   0  0  0  0  0  0  0  0  0  0  0  0
   31.8851  -21.7501   -9.3839 S   0  0  0  0  0  0  0  0  0  0  0  0
   31.4306  -21.4951  -11.0743 C   0  0  0  0  0  0  0  0  0  0  0  0
   30.1790  -20.8217  -11.4179 C   0  0  0  0  0  0  0  0  0  0  0  0
   29.0742  -21.5211  -12.1145 C   0  0  2  0  0  0  0  0  0  0  0  0
   29.4096  -22.5477  -13.0080 N   0  0  0  0  0  0  0  0  0  0  0  0
   28.1479  -20.5421  -12.7704 C   0  0  0  0  0  0  0  0  0  0  0  0
   27.7020  -19.5810  -12.0961 O   0  0  0  0  0  0  0  0  0  0  0  0
   29.5038  -19.0817  -16.9003 N   0  0  0  0  0  0  0  0  0  0  0  0
   28.3462  -18.5915  -16.1911 C   0  0  0  0  0  0  0  0  0  0  0  0
   28.4861  -17.4743  -15.6189 O   0  0  0  0  0  0  0  0  0  0  0  0
   27.0808  -19.3608  -16.1483 C   0  0  0  0  0  0  0  0  0  0  0  0
   26.7716  -19.7343  -14.6857 C   0  0  2  0  0  0  0  0  0  0  0  0
   27.7370  -20.6400  -14.1467 N   0  0  0  0  0  0  0  0  0  0  0  0
   25.3664  -20.1006  -14.5252 C   0  0  0  0  0  0  0  0  0  0  0  0
   25.0657  -21.3394  -14.6905 O   0  0  0  0  0  0  0  0  0  0  0  0
   21.9312  -20.9945   -7.5052 N   0  0  0  0  0  0  0  0  0  0  0  0
   21.1808  -21.5785   -8.5948 C   0  0  0  0  0  0  0  0  0  0  0  0
   20.0423  -22.1457   -8.4446 N   0  0  0  0  0  0  0  0  0  0  0  0
   21.6805  -21.5511   -9.9212 N   0  0  0  0  0  0  0  0  0  0  0  0
   22.9051  -21.0261  -10.2909 C   0  0  0  0  0  0  0  0  0  0  0  0
   23.3013  -20.9410  -11.7297 C   0  0  0  0  0  0  0  0  0  0  0  0
   22.6931  -19.7645  -12.4360 C   0  0  0  0  0  0  0  0  0  0  0  0
   22.9476  -19.8423  -13.9073 C   0  0  2  0  0  0  0  0  0  0  0  0
   24.2842  -19.2649  -14.2077 N   0  0  0  0  0  0  0  0  0  0  0  0
   21.9866  -19.0920  -14.7329 C   0  0  0  0  0  0  0  0  0  0  0  0
   20.6939  -19.6036  -14.9255 O   0  0  0  0  0  0  0  0  0  0  0  0
   22.2650  -17.9869  -15.2921 O   0  0  0  0  0  0  0  0  0  0  0  0
  2  1  1  0
  3  2  1  0
  4  3  1  0
  5  4  1  0
  5  6  1  6
  7  5  1  0
  8  7  2  0
  9 10  1  0
 10 12  1  0
 11 10  2  0
 13 12  1  6
 13 14  1  0
 14  7  1  0
 15 13  1  0
 15 16  2  0
 17 18  1  0
 18 19  2  0
 18 20  1  0
 20 21  1  0
 22 23  1  0
 22 21  1  0
 24 23  1  1
 24 25  1  0
 25 15  1  0
 26 24  1  0
 27 26  1  0
 28 26  2  0
M  END
$$$$
