MNR.pdb
     RDKit          3D

 28 27  0  0  1  0  0  0  0  0999 V2000
   25.9262  -18.9726  -19.2410 C   0  0  0  0  0  0  0  0  0  0  0  0
   27.1175  -17.8679  -18.4960 S   0  0  0  0  0  0  0  0  0  0  0  0
   28.1314  -18.5811  -17.2340 C   0  0  0  0  0  0  0  0  0  0  0  0
   27.5792  -19.5554  -16.2939 C   0  0  0  0  0  0  0  0  0  0  0  0
   26.5330  -19.1938  -15.3092 C   0  0  2  0  0  0  0  0  0  0  0  0
   26.7294  -18.0388  -14.5396 N   0  0  0  0  0  0  0  0  0  0  0  0
   26.2020  -20.3582  -14.4253 C   0  0  0  0  0  0  0  0  0  0  0  0
   26.0082  -21.4833  -14.9486 O   0  0  0  0  0  0  0  0  0  0  0  0
   28.0288  -20.4335  -11.9456 N   0  0  0  0  0  0  0  0  0  0  0  0
   27.3377  -20.8435  -10.7466 C   0  0  0  0  0  0  0  0  0  0  0  0
   27.9920  -20.7341   -9.6718 O   0  0  0  0  0  0  0  0  0  0  0  0
   25.9483  -21.3558  -10.7902 C   0  0  0  0  0  0  0  0  0  0  0  0
   25.4319  -21.2784  -12.2400 C   0  0  2  0  0  0  0  0  0  0  0  0
   26.0949  -20.2604  -12.9930 N   0  0  0  0  0  0  0  0  0  0  0  0
   23.9713  -21.2753  -12.2757 C   0  0  0  0  0  0  0  0  0  0  0  0
   23.3851  -20.1650  -11.9998 O   0  0  0  0  0  0  0  0  0  0  0  0
   18.6118  -24.2263   -7.4018 N   0  0  0  0  0  0  0  0  0  0  0  0
   17.7455  -23.8879   -8.5091 C   0  0  0  0  0  0  0  0  0  0  0  0
   16.4668  -23.9127   -8.4391 N   0  0  0  0  0  0  0  0  0  0  0  0
   18.2822  -23.4997   -9.7625 N   0  0  0  0  0  0  0  0  0  0  0  0
   19.6260  -23.2922  -10.0137 C   0  0  0  0  0  0  0  0  0  0  0  0
   20.1554  -21.9187  -10.2736 C   0  0  0  0  0  0  0  0  0  0  0  0
   21.5857  -21.9188  -10.7291 C   0  0  0  0  0  0  0  0  0  0  0  0
   21.6802  -22.2948  -12.1731 C   0  0  2  0  0  0  0  0  0  0  0  0
   23.1100  -22.3417  -12.5778 N   0  0  0  0  0  0  0  0  0  0  0  0
   21.0289  -21.3479  -13.0936 C   0  0  0  0  0  0  0  0  0  0  0  0
   21.5986  -20.0819  -13.2999 O   0  0  0  0  0  0  0  0  0  0  0  0
   19.9601  -21.6154  -13.7243 O   0  0  0  0  0  0  0  0  0  0  0  0
  2  1  1  0
  3  2  1  0
  4  3  1  0
  5  4  1  0
  5  6  1  1
  7  5  1  0
  8  7  2  0
  9 10  1  0
 10 12  1  0
 11 10  2  0
 13 12  1  1
 13 14  1  0
 14  7  1  0
 15 13  1  0
 15 16  2  0
 17 18  1  0
 18 19  2  0
 18 20  1  0
 20 21  1  0
 22 23  1  0
 22 21  1  0
 24 23  1  1
 24 25  1  0
 25 15  1  0
 26 24  1  0
 27 26  1  0
 28 26  2  0
M  END
$$$$
