MNR.pdb
     RDKit          3D

 28 27  0  0  1  0  0  0  0  0999 V2000
   16.5606  -12.5487  -18.4375 C   0  0  0  0  0  0  0  0  0  0  0  0
   17.1108  -11.8978  -16.8665 S   0  0  0  0  0  0  0  0  0  0  0  0
   18.6150  -10.9681  -16.9127 C   0  0  0  0  0  0  0  0  0  0  0  0
   19.1613  -10.3701  -15.6953 C   0  0  0  0  0  0  0  0  0  0  0  0
   20.4475   -9.6351  -15.6879 C   0  0  2  0  0  0  0  0  0  0  0  0
   21.5660  -10.2672  -16.2484 N   0  0  0  0  0  0  0  0  0  0  0  0
   20.7693   -9.1295  -14.3140 C   0  0  0  0  0  0  0  0  0  0  0  0
   21.8982   -9.3782  -13.8232 O   0  0  0  0  0  0  0  0  0  0  0  0
   21.1535   -4.9972  -11.4116 N   0  0  0  0  0  0  0  0  0  0  0  0
   21.6797   -5.1977  -12.7407 C   0  0  0  0  0  0  0  0  0  0  0  0
   22.5482   -4.3622  -13.1185 O   0  0  0  0  0  0  0  0  0  0  0  0
   21.2214   -6.3186  -13.5942 C   0  0  0  0  0  0  0  0  0  0  0  0
   20.2982   -7.2330  -12.7660 C   0  0  2  0  0  0  0  0  0  0  0  0
   19.8481   -8.3634  -13.5159 N   0  0  0  0  0  0  0  0  0  0  0  0
   19.2738   -6.4538  -12.0744 C   0  0  0  0  0  0  0  0  0  0  0  0
   18.6593   -5.5594  -12.7635 O   0  0  0  0  0  0  0  0  0  0  0  0
   12.8085  -10.3828   -8.1492 N   0  0  0  0  0  0  0  0  0  0  0  0
   12.3090   -9.0393   -8.3404 C   0  0  0  0  0  0  0  0  0  0  0  0
   11.0767   -8.7175   -8.2048 N   0  0  0  0  0  0  0  0  0  0  0  0
   13.1821   -7.9806   -8.6962 N   0  0  0  0  0  0  0  0  0  0  0  0
   14.4860   -8.1456   -9.1259 C   0  0  0  0  0  0  0  0  0  0  0  0
   15.3221   -6.9682   -9.5118 C   0  0  0  0  0  0  0  0  0  0  0  0
   16.7302   -7.3427   -9.8722 C   0  0  0  0  0  0  0  0  0  0  0  0
   17.4948   -6.1427  -10.3315 C   0  0  2  0  0  0  0  0  0  0  0  0
   18.8646   -6.5559  -10.7356 N   0  0  0  0  0  0  0  0  0  0  0  0
   17.6712   -5.1022   -9.3047 C   0  0  0  0  0  0  0  0  0  0  0  0
   16.6362   -4.1849   -9.0656 O   0  0  0  0  0  0  0  0  0  0  0  0
   18.7265   -4.9841   -8.6090 O   0  0  0  0  0  0  0  0  0  0  0  0
  2  1  1  0
  3  2  1  0
  4  3  1  0
  5  4  1  0
  5  6  1  1
  7  5  1  0
  8  7  2  0
  9 10  1  0
 10 12  1  0
 11 10  2  0
 13 12  1  6
 13 14  1  0
 14  7  1  0
 15 13  1  0
 15 16  2  0
 17 18  1  0
 18 19  2  0
 18 20  1  0
 20 21  1  0
 22 23  1  0
 22 21  1  0
 24 23  1  1
 24 25  1  0
 25 15  1  0
 26 24  1  0
 27 26  1  0
 28 26  2  0
M  END
$$$$
