MNR.pdb
     RDKit          3D

 28 27  0  0  1  0  0  0  0  0999 V2000
   28.4888  -13.9532  -17.7996 C   0  0  0  0  0  0  0  0  0  0  0  0
   28.1510  -15.5513  -17.0739 S   0  0  0  0  0  0  0  0  0  0  0  0
   26.6063  -16.2829  -17.5299 C   0  0  0  0  0  0  0  0  0  0  0  0
   26.2263  -17.6014  -17.0247 C   0  0  0  0  0  0  0  0  0  0  0  0
   27.2188  -18.5422  -16.4549 C   0  0  2  0  0  0  0  0  0  0  0  0
   28.0626  -19.2216  -17.3443 N   0  0  0  0  0  0  0  0  0  0  0  0
   26.5640  -19.5102  -15.5163 C   0  0  0  0  0  0  0  0  0  0  0  0
   26.3385  -20.6813  -15.9099 O   0  0  0  0  0  0  0  0  0  0  0  0
   25.8751  -22.7138  -11.4888 N   0  0  0  0  0  0  0  0  0  0  0  0
   25.7496  -21.3185  -11.1413 C   0  0  0  0  0  0  0  0  0  0  0  0
   25.0853  -21.0713  -10.0959 O   0  0  0  0  0  0  0  0  0  0  0  0
   26.3687  -20.2558  -11.9673 C   0  0  0  0  0  0  0  0  0  0  0  0
   25.6108  -20.1571  -13.3053 C   0  0  2  0  0  0  0  0  0  0  0  0
   26.1765  -19.1712  -14.1719 N   0  0  0  0  0  0  0  0  0  0  0  0
   24.1681  -20.0878  -13.0855 C   0  0  0  0  0  0  0  0  0  0  0  0
   23.6746  -18.9302  -12.8232 O   0  0  0  0  0  0  0  0  0  0  0  0
   18.3347  -23.7980   -9.8772 N   0  0  0  0  0  0  0  0  0  0  0  0
   17.2830  -23.5625  -10.8415 C   0  0  0  0  0  0  0  0  0  0  0  0
   16.0440  -23.4759  -10.5288 N   0  0  0  0  0  0  0  0  0  0  0  0
   17.5783  -23.4100  -12.2196 N   0  0  0  0  0  0  0  0  0  0  0  0
   18.8524  -23.2920  -12.7438 C   0  0  0  0  0  0  0  0  0  0  0  0
   19.6879  -22.0840  -12.4666 C   0  0  0  0  0  0  0  0  0  0  0  0
   21.0031  -22.1029  -13.1898 C   0  0  0  0  0  0  0  0  0  0  0  0
   21.7919  -20.8701  -12.8839 C   0  0  2  0  0  0  0  0  0  0  0  0
   23.2346  -21.1355  -13.1252 N   0  0  0  0  0  0  0  0  0  0  0  0
   21.6914  -20.4126  -11.4879 C   0  0  0  0  0  0  0  0  0  0  0  0
   20.7774  -19.4003  -11.1567 O   0  0  0  0  0  0  0  0  0  0  0  0
   22.3979  -20.8901  -10.5475 O   0  0  0  0  0  0  0  0  0  0  0  0
  2  1  1  0
  3  2  1  0
  4  3  1  0
  5  4  1  0
  5  6  1  6
  7  5  1  0
  8  7  2  0
  9 10  1  0
 10 12  1  0
 11 10  2  0
 13 12  1  1
 13 14  1  0
 14  7  1  0
 15 13  1  0
 15 16  2  0
 17 18  1  0
 18 19  2  0
 18 20  1  0
 20 21  1  0
 22 23  1  0
 22 21  1  0
 24 23  1  1
 24 25  1  0
 25 15  1  0
 26 24  1  0
 27 26  1  0
 28 26  2  0
M  END
$$$$
