LRD.pdb
     RDKit          3D

 28 27  0  0  1  0  0  0  0  0999 V2000
    8.0171  -12.3390   27.5105 C   0  0  0  0  0  0  0  0  0  0  0  0
    6.9375  -12.9012   26.6497 C   0  0  2  0  0  0  0  0  0  0  0  0
    5.8586  -11.8831   26.3566 C   0  0  0  0  0  0  0  0  0  0  0  0
    6.3995  -14.1948   27.1938 C   0  0  0  0  0  0  0  0  0  0  0  0
    7.3496  -15.2965   26.7799 C   0  0  2  0  0  0  0  0  0  0  0  0
    8.6851  -14.7886   27.0082 N   0  0  0  0  0  0  0  0  0  0  0  0
    7.2304  -15.6117   25.3315 C   0  0  0  0  0  0  0  0  0  0  0  0
    6.1985  -16.2048   24.9363 O   0  0  0  0  0  0  0  0  0  0  0  0
    9.6026  -13.2993   17.5791 N   0  0  0  0  0  0  0  0  0  0  0  0
    8.3715  -13.0303   18.3068 C   0  0  0  0  0  0  0  0  0  0  0  0
    8.1766  -11.8674   18.6941 N   0  0  0  0  0  0  0  0  0  0  0  0
    7.4520  -14.0723   18.5476 N   0  0  0  0  0  0  0  0  0  0  0  0
    7.1432  -14.6837   19.7921 C   0  0  0  0  0  0  0  0  0  0  0  0
    8.2365  -15.2966   20.5852 C   0  0  0  0  0  0  0  0  0  0  0  0
    8.0958  -14.8673   22.0245 C   0  0  0  0  0  0  0  0  0  0  0  0
    8.3752  -15.8880   23.0661 C   0  0  2  0  0  0  0  0  0  0  0  0
    8.2446  -15.2607   24.4017 N   0  0  0  0  0  0  0  0  0  0  0  0
    9.7012  -16.5455   22.9792 C   0  0  0  0  0  0  0  0  0  0  0  0
    9.8742  -17.2697   21.9221 O   0  0  0  0  0  0  0  0  0  0  0  0
    7.4631  -11.3134   19.0767 N   0  0  0  0  0  0  0  0  0  0  0  0
   10.7507  -16.4573   23.8996 C   0  0  1  0  0  0  0  0  0  0  0  0
   11.9247  -17.2973   23.6737 C   0  0  0  0  0  0  0  0  0  0  0  0
   13.1763  -16.5101   23.4410 C   0  0  0  0  0  0  0  0  0  0  0  0
   13.1974  -15.8454   22.1216 O   0  0  0  0  0  0  0  0  0  0  0  0
   12.2381  -15.8878   21.3020 C   0  0  0  0  0  0  0  0  0  0  0  0
   12.1541  -18.0899   24.9280 O   0  0  0  0  0  0  0  0  0  0  0  0
   11.3886  -17.9644   25.9078 O   0  0  0  0  0  0  0  0  0  0  0  0
   14.3238  -15.1247   21.7320 O   0  0  0  0  0  0  0  0  0  0  0  0
  2  1  1  1
  3  2  1  0
  4  5  1  0
  4  2  1  0
  5  6  1  6
  7  8  2  0
  7  5  1  0
  9 10  1  0
 10 11  2  0
 12 10  1  0
 12 13  1  0
 13 14  1  0
 14 15  1  0
 16 15  1  6
 16 17  1  0
 17  7  1  0
 18 16  1  0
 19 18  2  0
 20 18  1  0
 21 25  1  0
 21 20  1  0
 21 22  1  6
 23 24  2  0
 23 22  1  0
 25 28  1  0
 26 25  2  0
 27 23  1  0
M  END
$$$$
