LRD.pdb
     RDKit          3D

 28 27  0  0  1  0  0  0  0  0999 V2000
    6.0301  -12.5697   26.2140 C   0  0  0  0  0  0  0  0  0  0  0  0
    6.9866  -13.1894   27.1751 C   0  0  2  0  0  0  0  0  0  0  0  0
    7.8349  -12.1534   27.8778 C   0  0  0  0  0  0  0  0  0  0  0  0
    7.7952  -14.2844   26.5381 C   0  0  0  0  0  0  0  0  0  0  0  0
    6.8585  -15.1066   25.6812 C   0  0  2  0  0  0  0  0  0  0  0  0
    6.5592  -16.3027   26.4385 N   0  0  0  0  0  0  0  0  0  0  0  0
    7.5032  -15.5296   24.4096 C   0  0  0  0  0  0  0  0  0  0  0  0
    7.9222  -16.7083   24.3203 O   0  0  0  0  0  0  0  0  0  0  0  0
    8.7151  -15.5390   16.9763 N   0  0  0  0  0  0  0  0  0  0  0  0
    8.1540  -14.2988   16.4619 C   0  0  0  0  0  0  0  0  0  0  0  0
    7.8216  -14.2720   15.2664 N   0  0  0  0  0  0  0  0  0  0  0  0
    8.0045  -13.1850   17.3140 N   0  0  0  0  0  0  0  0  0  0  0  0
    7.6865  -13.1909   18.6985 C   0  0  0  0  0  0  0  0  0  0  0  0
    8.2073  -14.2855   19.5532 C   0  0  0  0  0  0  0  0  0  0  0  0
    7.7318  -14.0688   20.9683 C   0  0  0  0  0  0  0  0  0  0  0  0
    8.1541  -15.0652   21.9849 C   0  0  2  0  0  0  0  0  0  0  0  0
    7.6518  -14.6409   23.3123 N   0  0  0  0  0  0  0  0  0  0  0  0
    9.6147  -15.2997   22.0838 C   0  0  0  0  0  0  0  0  0  0  0  0
   10.1183  -15.9774   21.1046 O   0  0  0  0  0  0  0  0  0  0  0  0
    7.4709  -13.6445   14.5988 N   0  0  0  0  0  0  0  0  0  0  0  0
   10.4733  -14.8686   23.1004 C   0  0  2  0  0  0  0  0  0  0  0  0
   11.5642  -15.7587   23.4911 C   0  0  0  0  0  0  0  0  0  0  0  0
   11.0954  -17.1177   23.9076 C   0  0  0  0  0  0  0  0  0  0  0  0
   12.2092  -18.0361   24.2219 O   0  0  0  0  0  0  0  0  0  0  0  0
   13.4263  -17.7072   24.1559 C   0  0  0  0  0  0  0  0  0  0  0  0
   12.4270  -15.9649   22.2798 O   0  0  0  0  0  0  0  0  0  0  0  0
   13.4100  -16.7354   22.3235 O   0  0  0  0  0  0  0  0  0  0  0  0
   11.9333  -19.3433   24.6157 O   0  0  0  0  0  0  0  0  0  0  0  0
  2  1  1  6
  3  2  1  0
  4  5  1  0
  4  2  1  0
  5  6  1  1
  7  8  2  0
  7  5  1  0
  9 10  1  0
 10 11  2  0
 12 10  1  0
 12 13  1  0
 13 14  1  0
 14 15  1  0
 16 15  1  6
 16 17  1  0
 17  7  1  0
 18 16  1  0
 19 18  2  0
 20 18  1  0
 21 25  1  0
 21 20  1  0
 21 22  1  1
 23 24  2  0
 23 22  1  0
 25 28  1  0
 26 25  2  0
 27 23  1  0
M  END
$$$$
