LRD.pdb
     RDKit          3D

 28 27  0  0  1  0  0  0  0  0999 V2000
    5.7401  -12.4496   25.6657 C   0  0  0  0  0  0  0  0  0  0  0  0
    6.5769  -12.7603   26.8598 C   0  0  2  0  0  0  0  0  0  0  0  0
    7.2901  -11.5352   27.3863 C   0  0  0  0  0  0  0  0  0  0  0  0
    7.4976  -13.9227   26.6154 C   0  0  0  0  0  0  0  0  0  0  0  0
    6.7739  -14.8992   25.7151 C   0  0  2  0  0  0  0  0  0  0  0  0
    5.9571  -15.7218   26.5810 N   0  0  0  0  0  0  0  0  0  0  0  0
    7.7206  -15.7983   25.0033 C   0  0  0  0  0  0  0  0  0  0  0  0
    8.3976  -16.6054   25.6838 O   0  0  0  0  0  0  0  0  0  0  0  0
    8.6529  -12.3497   19.3621 N   0  0  0  0  0  0  0  0  0  0  0  0
    8.1034  -13.1615   18.2867 C   0  0  0  0  0  0  0  0  0  0  0  0
    8.2785  -12.7668   17.1231 N   0  0  0  0  0  0  0  0  0  0  0  0
    7.4031  -14.3486   18.5858 N   0  0  0  0  0  0  0  0  0  0  0  0
    7.8546  -15.4468   19.3657 C   0  0  0  0  0  0  0  0  0  0  0  0
    8.1797  -15.2298   20.7964 C   0  0  0  0  0  0  0  0  0  0  0  0
    8.5602  -16.5512   21.4167 C   0  0  0  0  0  0  0  0  0  0  0  0
    8.8939  -16.5491   22.8636 C   0  0  2  0  0  0  0  0  0  0  0  0
    7.8717  -15.7624   23.5919 N   0  0  0  0  0  0  0  0  0  0  0  0
   10.2348  -16.0203   23.2109 C   0  0  0  0  0  0  0  0  0  0  0  0
   10.2370  -15.1388   24.1567 O   0  0  0  0  0  0  0  0  0  0  0  0
    8.0496  -13.0181   16.2029 N   0  0  0  0  0  0  0  0  0  0  0  0
   11.4589  -16.3751   22.6345 C   0  0  2  0  0  0  0  0  0  0  0  0
   12.6283  -16.4377   23.5083 C   0  0  0  0  0  0  0  0  0  0  0  0
   12.4891  -17.4435   24.6078 C   0  0  0  0  0  0  0  0  0  0  0  0
   13.7049  -17.5539   25.4400 O   0  0  0  0  0  0  0  0  0  0  0  0
   14.7752  -16.9286   25.2005 C   0  0  0  0  0  0  0  0  0  0  0  0
   13.7882  -16.8904   22.6692 O   0  0  0  0  0  0  0  0  0  0  0  0
   14.9399  -16.9408   23.1516 O   0  0  0  0  0  0  0  0  0  0  0  0
   13.7011  -18.3855   26.5573 O   0  0  0  0  0  0  0  0  0  0  0  0
  2  1  1  6
  3  2  1  0
  4  5  1  0
  4  2  1  0
  5  6  1  1
  7  8  2  0
  7  5  1  0
  9 10  1  0
 10 11  2  0
 12 10  1  0
 12 13  1  0
 13 14  1  0
 14 15  1  0
 16 15  1  6
 16 17  1  0
 17  7  1  0
 18 16  1  0
 19 18  2  0
 20 18  1  0
 21 25  1  0
 21 20  1  0
 21 22  1  6
 23 24  2  0
 23 22  1  0
 25 28  1  0
 26 25  2  0
 27 23  1  0
M  END
$$$$
