LRD.pdb
     RDKit          3D

 28 27  0  0  1  0  0  0  0  0999 V2000
    7.9468  -12.4946   27.4286 C   0  0  0  0  0  0  0  0  0  0  0  0
    6.9866  -12.5438   26.2893 C   0  0  2  0  0  0  0  0  0  0  0  0
    5.6448  -11.9491   26.6531 C   0  0  0  0  0  0  0  0  0  0  0  0
    6.8835  -13.9219   25.6987 C   0  0  0  0  0  0  0  0  0  0  0  0
    8.2899  -14.4240   25.4585 C   0  0  2  0  0  0  0  0  0  0  0  0
    9.0513  -13.2887   24.9841 N   0  0  0  0  0  0  0  0  0  0  0  0
    8.3295  -15.4660   24.3983 C   0  0  0  0  0  0  0  0  0  0  0  0
    7.6190  -16.4890   24.5449 O   0  0  0  0  0  0  0  0  0  0  0  0
    8.7988  -11.9343   19.2661 N   0  0  0  0  0  0  0  0  0  0  0  0
    8.1172  -12.9878   18.5292 C   0  0  0  0  0  0  0  0  0  0  0  0
    8.4853  -13.2030   17.3636 N   0  0  0  0  0  0  0  0  0  0  0  0
    7.0806  -13.7212   19.1431 N   0  0  0  0  0  0  0  0  0  0  0  0
    7.0909  -15.0937   19.5092 C   0  0  0  0  0  0  0  0  0  0  0  0
    7.4244  -15.4648   20.9059 C   0  0  0  0  0  0  0  0  0  0  0  0
    8.8328  -16.0041   20.9450 C   0  0  0  0  0  0  0  0  0  0  0  0
    9.3610  -16.4233   22.2679 C   0  0  2  0  0  0  0  0  0  0  0  0
    9.1422  -15.3290   23.2420 N   0  0  0  0  0  0  0  0  0  0  0  0
   10.7942  -16.8018   22.2947 C   0  0  0  0  0  0  0  0  0  0  0  0
   11.0768  -17.8844   21.6468 O   0  0  0  0  0  0  0  0  0  0  0  0
    8.2391  -13.7506   16.5878 N   0  0  0  0  0  0  0  0  0  0  0  0
   11.8371  -16.1199   22.9301 C   0  0  1  0  0  0  0  0  0  0  0  0
   13.1811  -16.6836   22.8245 C   0  0  0  0  0  0  0  0  0  0  0  0
   14.1999  -15.6933   22.3540 C   0  0  0  0  0  0  0  0  0  0  0  0
   13.9174  -15.1823   20.9968 O   0  0  0  0  0  0  0  0  0  0  0  0
   13.2435  -15.8157   20.1375 C   0  0  0  0  0  0  0  0  0  0  0  0
   13.6018  -17.0952   24.2056 O   0  0  0  0  0  0  0  0  0  0  0  0
   14.7418  -17.5650   24.4091 O   0  0  0  0  0  0  0  0  0  0  0  0
   14.4080  -13.9359   20.6147 O   0  0  0  0  0  0  0  0  0  0  0  0
  2  1  1  1
  3  2  1  0
  4  5  1  0
  4  2  1  0
  5  6  1  6
  7  8  2  0
  7  5  1  0
  9 10  1  0
 10 11  2  0
 12 10  1  0
 12 13  1  0
 13 14  1  0
 14 15  1  0
 16 15  1  6
 16 17  1  0
 17  7  1  0
 18 16  1  0
 19 18  2  0
 20 18  1  0
 21 25  1  0
 21 20  1  0
 21 22  1  6
 23 24  2  0
 23 22  1  0
 25 28  1  0
 26 25  2  0
 27 23  1  0
M  END
$$$$
