LRD.pdb
     RDKit          3D

 28 27  0  0  1  0  0  0  0  0999 V2000
    6.3267  -11.9557   25.4070 C   0  0  0  0  0  0  0  0  0  0  0  0
    6.6216  -12.7993   26.6004 C   0  0  2  0  0  0  0  0  0  0  0  0
    7.1072  -11.9747   27.7712 C   0  0  0  0  0  0  0  0  0  0  0  0
    7.5312  -13.9483   26.2670 C   0  0  0  0  0  0  0  0  0  0  0  0
    6.9025  -14.7138   25.1240 C   0  0  2  0  0  0  0  0  0  0  0  0
    5.7795  -15.4331   25.6856 N   0  0  0  0  0  0  0  0  0  0  0  0
    7.8386  -15.7180   24.5524 C   0  0  0  0  0  0  0  0  0  0  0  0
    7.8856  -16.8540   25.0815 O   0  0  0  0  0  0  0  0  0  0  0  0
    7.4858  -12.3283   18.5539 N   0  0  0  0  0  0  0  0  0  0  0  0
    7.5954  -13.6112   17.8759 C   0  0  0  0  0  0  0  0  0  0  0  0
    7.3168  -13.6467   16.6670 N   0  0  0  0  0  0  0  0  0  0  0  0
    8.0062  -14.7548   18.5918 N   0  0  0  0  0  0  0  0  0  0  0  0
    8.7362  -14.7976   19.8097 C   0  0  0  0  0  0  0  0  0  0  0  0
    9.1844  -16.1098   20.3359 C   0  0  0  0  0  0  0  0  0  0  0  0
   10.0754  -15.8784   21.5310 C   0  0  0  0  0  0  0  0  0  0  0  0
    9.6038  -16.4005   22.8386 C   0  0  2  0  0  0  0  0  0  0  0  0
    8.6670  -15.4219   23.4378 N   0  0  0  0  0  0  0  0  0  0  0  0
   10.6658  -16.7062   23.8270 C   0  0  0  0  0  0  0  0  0  0  0  0
   11.2782  -15.6688   24.2966 O   0  0  0  0  0  0  0  0  0  0  0  0
    7.2523  -14.2913   15.9303 N   0  0  0  0  0  0  0  0  0  0  0  0
   11.0538  -17.9684   24.2880 C   0  0  2  0  0  0  0  0  0  0  0  0
   12.1564  -18.0327   25.2447 C   0  0  0  0  0  0  0  0  0  0  0  0
   12.0493  -19.1881   26.1902 C   0  0  0  0  0  0  0  0  0  0  0  0
   13.2670  -19.3750   27.0057 O   0  0  0  0  0  0  0  0  0  0  0  0
   14.3125  -18.6803   26.8706 C   0  0  0  0  0  0  0  0  0  0  0  0
   13.4170  -18.2487   24.4585 O   0  0  0  0  0  0  0  0  0  0  0  0
   14.5329  -18.1892   25.0179 O   0  0  0  0  0  0  0  0  0  0  0  0
   13.2938  -20.3642   27.9860 O   0  0  0  0  0  0  0  0  0  0  0  0
  2  1  1  6
  3  2  1  0
  4  5  1  0
  4  2  1  0
  5  6  1  1
  7  8  2  0
  7  5  1  0
  9 10  1  0
 10 11  2  0
 12 10  1  0
 12 13  1  0
 13 14  1  0
 14 15  1  0
 16 15  1  6
 16 17  1  0
 17  7  1  0
 18 16  1  0
 19 18  2  0
 20 18  1  0
 21 25  1  0
 21 20  1  0
 21 22  1  6
 23 24  2  0
 23 22  1  0
 25 28  1  0
 26 25  2  0
 27 23  1  0
M  END
$$$$
