LRD.pdb
     RDKit          3D

 28 27  0  0  1  0  0  0  0  0999 V2000
    7.8604  -12.4780   27.3812 C   0  0  0  0  0  0  0  0  0  0  0  0
    6.8399  -12.7209   26.3219 C   0  0  2  0  0  0  0  0  0  0  0  0
    5.7852  -11.6377   26.2920 C   0  0  0  0  0  0  0  0  0  0  0  0
    6.2640  -14.1067   26.4018 C   0  0  0  0  0  0  0  0  0  0  0  0
    7.3463  -15.0776   25.9848 C   0  0  2  0  0  0  0  0  0  0  0  0
    8.5958  -14.5202   26.4559 N   0  0  0  0  0  0  0  0  0  0  0  0
    7.4380  -15.1987   24.5055 C   0  0  0  0  0  0  0  0  0  0  0  0
    6.4827  -15.7334   23.8937 O   0  0  0  0  0  0  0  0  0  0  0  0
    9.8150  -14.4408   17.2312 N   0  0  0  0  0  0  0  0  0  0  0  0
    8.4572  -13.9211   17.1691 C   0  0  0  0  0  0  0  0  0  0  0  0
    8.1985  -13.0974   16.2775 N   0  0  0  0  0  0  0  0  0  0  0  0
    7.4918  -14.3562   18.1007 N   0  0  0  0  0  0  0  0  0  0  0  0
    7.5383  -14.2360   19.5154 C   0  0  0  0  0  0  0  0  0  0  0  0
    8.7115  -13.5828   20.1452 C   0  0  0  0  0  0  0  0  0  0  0  0
    8.5402  -13.6109   21.6438 C   0  0  0  0  0  0  0  0  0  0  0  0
    8.7328  -14.9171   22.3231 C   0  0  2  0  0  0  0  0  0  0  0  0
    8.5666  -14.7292   23.7831 N   0  0  0  0  0  0  0  0  0  0  0  0
   10.0350  -15.5816   22.0762 C   0  0  0  0  0  0  0  0  0  0  0  0
   10.9423  -15.3332   22.9632 O   0  0  0  0  0  0  0  0  0  0  0  0
    7.4610  -12.5256   15.9750 N   0  0  0  0  0  0  0  0  0  0  0  0
   10.3644  -16.4272   21.0119 C   0  0  2  0  0  0  0  0  0  0  0  0
   11.7743  -16.5407   20.6457 C   0  0  0  0  0  0  0  0  0  0  0  0
   12.4562  -15.2153   20.5097 C   0  0  0  0  0  0  0  0  0  0  0  0
   13.0797  -15.0258   19.1837 O   0  0  0  0  0  0  0  0  0  0  0  0
   12.9945  -15.8652   18.2446 C   0  0  0  0  0  0  0  0  0  0  0  0
   12.4698  -17.2580   21.7664 O   0  0  0  0  0  0  0  0  0  0  0  0
   12.6641  -18.4911   21.7079 O   0  0  0  0  0  0  0  0  0  0  0  0
   13.8082  -13.8671   18.9250 O   0  0  0  0  0  0  0  0  0  0  0  0
  2  1  1  1
  3  2  1  0
  4  5  1  0
  4  2  1  0
  5  6  1  6
  7  8  2  0
  7  5  1  0
  9 10  1  0
 10 11  2  0
 12 10  1  0
 12 13  1  0
 13 14  1  0
 14 15  1  0
 16 15  1  6
 16 17  1  0
 17  7  1  0
 18 16  1  0
 19 18  2  0
 20 18  1  0
 21 25  1  0
 21 20  1  0
 21 22  1  6
 23 24  2  0
 23 22  1  0
 25 28  1  0
 26 25  2  0
 27 23  1  0
M  END
$$$$
