LRD.pdb
     RDKit          3D

 28 27  0  0  1  0  0  0  0  0999 V2000
    5.3109  -11.6965   27.4354 C   0  0  0  0  0  0  0  0  0  0  0  0
    6.6752  -12.0558   26.9536 C   0  0  2  0  0  0  0  0  0  0  0  0
    7.1683  -11.1042   25.8869 C   0  0  0  0  0  0  0  0  0  0  0  0
    6.7671  -13.4999   26.5479 C   0  0  0  0  0  0  0  0  0  0  0  0
    8.1438  -13.7251   25.9632 C   0  0  2  0  0  0  0  0  0  0  0  0
    8.3477  -12.6758   24.9879 N   0  0  0  0  0  0  0  0  0  0  0  0
    8.2330  -15.0261   25.2485 C   0  0  0  0  0  0  0  0  0  0  0  0
    7.9760  -16.0735   25.8886 O   0  0  0  0  0  0  0  0  0  0  0  0
    9.4552  -14.0349   17.7619 N   0  0  0  0  0  0  0  0  0  0  0  0
    8.3419  -13.3636   18.4155 C   0  0  0  0  0  0  0  0  0  0  0  0
    8.3894  -12.1265   18.5030 N   0  0  0  0  0  0  0  0  0  0  0  0
    7.2619  -14.1170   18.9207 N   0  0  0  0  0  0  0  0  0  0  0  0
    7.3163  -15.1994   19.8391 C   0  0  0  0  0  0  0  0  0  0  0  0
    8.1423  -15.0651   21.0637 C   0  0  0  0  0  0  0  0  0  0  0  0
    8.0152  -16.3276   21.8796 C   0  0  0  0  0  0  0  0  0  0  0  0
    8.7704  -16.3876   23.1566 C   0  0  2  0  0  0  0  0  0  0  0  0
    8.5974  -15.1057   23.8785 N   0  0  0  0  0  0  0  0  0  0  0  0
   10.2207  -16.6684   23.0305 C   0  0  0  0  0  0  0  0  0  0  0  0
   10.9097  -15.7116   22.5000 O   0  0  0  0  0  0  0  0  0  0  0  0
    7.8577  -11.3775   18.8475 N   0  0  0  0  0  0  0  0  0  0  0  0
   10.8941  -17.8304   23.4214 C   0  0  1  0  0  0  0  0  0  0  0  0
   12.3308  -17.9018   23.1650 C   0  0  0  0  0  0  0  0  0  0  0  0
   13.1458  -17.1410   24.1636 C   0  0  0  0  0  0  0  0  0  0  0  0
   14.5997  -17.3222   23.9728 O   0  0  0  0  0  0  0  0  0  0  0  0
   15.1709  -17.2566   22.8489 C   0  0  0  0  0  0  0  0  0  0  0  0
   12.7370  -19.3408   23.3001 O   0  0  0  0  0  0  0  0  0  0  0  0
   11.9243  -20.1941   23.7164 O   0  0  0  0  0  0  0  0  0  0  0  0
   15.4116  -17.5808   25.0747 O   0  0  0  0  0  0  0  0  0  0  0  0
  2  1  1  6
  3  2  1  0
  4  5  1  0
  4  2  1  0
  5  6  1  6
  7  8  2  0
  7  5  1  0
  9 10  1  0
 10 11  2  0
 12 10  1  0
 12 13  1  0
 13 14  1  0
 14 15  1  0
 16 15  1  6
 16 17  1  0
 17  7  1  0
 18 16  1  0
 19 18  2  0
 20 18  1  0
 21 25  1  0
 21 20  1  0
 21 22  1  6
 23 24  2  0
 23 22  1  0
 25 28  1  0
 26 25  2  0
 27 23  1  0
M  END
$$$$
