LRD.pdb
     RDKit          3D

 28 27  0  0  1  0  0  0  0  0999 V2000
    7.6901  -12.3902   27.5582 C   0  0  0  0  0  0  0  0  0  0  0  0
    6.7548  -12.6205   26.4203 C   0  0  2  0  0  0  0  0  0  0  0  0
    5.7090  -11.5332   26.3175 C   0  0  0  0  0  0  0  0  0  0  0  0
    6.1701  -14.0048   26.4431 C   0  0  0  0  0  0  0  0  0  0  0  0
    7.3029  -14.9843   26.2307 C   0  0  2  0  0  0  0  0  0  0  0  0
    8.5171  -14.1984   26.1873 N   0  0  0  0  0  0  0  0  0  0  0  0
    7.1808  -15.6944   24.9298 C   0  0  0  0  0  0  0  0  0  0  0  0
    6.3140  -16.5946   24.8243 O   0  0  0  0  0  0  0  0  0  0  0  0
    8.2867  -13.1737   16.7227 N   0  0  0  0  0  0  0  0  0  0  0  0
    8.7565  -13.0583   18.0951 C   0  0  0  0  0  0  0  0  0  0  0  0
    8.9891  -11.9185   18.5278 N   0  0  0  0  0  0  0  0  0  0  0  0
    8.9308  -14.2164   18.8809 N   0  0  0  0  0  0  0  0  0  0  0  0
    8.0561  -15.3307   18.9862 C   0  0  0  0  0  0  0  0  0  0  0  0
    8.2239  -16.2746   20.1179 C   0  0  0  0  0  0  0  0  0  0  0  0
    8.0702  -15.5165   21.4131 C   0  0  0  0  0  0  0  0  0  0  0  0
    8.2132  -16.2907   22.6720 C   0  0  2  0  0  0  0  0  0  0  0  0
    8.0121  -15.3795   23.8226 N   0  0  0  0  0  0  0  0  0  0  0  0
    9.5053  -16.9964   22.8468 C   0  0  0  0  0  0  0  0  0  0  0  0
    9.7324  -17.9259   21.9774 O   0  0  0  0  0  0  0  0  0  0  0  0
    9.3354  -11.4776   19.3328 N   0  0  0  0  0  0  0  0  0  0  0  0
   10.4729  -16.7580   23.8284 C   0  0  2  0  0  0  0  0  0  0  0  0
   11.8373  -17.2070   23.5604 C   0  0  0  0  0  0  0  0  0  0  0  0
   12.7128  -16.1298   23.0010 C   0  0  0  0  0  0  0  0  0  0  0  0
   14.1061  -16.5750   22.7927 O   0  0  0  0  0  0  0  0  0  0  0  0
   14.4169  -17.7179   22.3557 C   0  0  0  0  0  0  0  0  0  0  0  0
   12.4438  -17.6004   24.8763 O   0  0  0  0  0  0  0  0  0  0  0  0
   11.8091  -17.4421   25.9411 O   0  0  0  0  0  0  0  0  0  0  0  0
   15.1567  -15.7086   23.0856 O   0  0  0  0  0  0  0  0  0  0  0  0
  2  1  1  1
  3  2  1  0
  4  5  1  0
  4  2  1  0
  5  6  1  6
  7  8  2  0
  7  5  1  0
  9 10  1  0
 10 11  2  0
 12 10  1  0
 12 13  1  0
 13 14  1  0
 14 15  1  0
 16 15  1  6
 16 17  1  0
 17  7  1  0
 18 16  1  0
 19 18  2  0
 20 18  1  0
 21 25  1  0
 21 20  1  0
 21 22  1  6
 23 24  2  0
 23 22  1  0
 25 28  1  0
 26 25  2  0
 27 23  1  0
M  END
$$$$
