LRD.pdb
     RDKit          3D

 28 27  0  0  1  0  0  0  0  0999 V2000
    7.3081  -12.1229   27.7193 C   0  0  0  0  0  0  0  0  0  0  0  0
    6.8441  -12.2495   26.3082 C   0  0  2  0  0  0  0  0  0  0  0  0
    5.9818  -11.0805   25.8882 C   0  0  0  0  0  0  0  0  0  0  0  0
    6.2041  -13.5832   26.0433 C   0  0  0  0  0  0  0  0  0  0  0  0
    7.2965  -14.6290   26.0690 C   0  0  2  0  0  0  0  0  0  0  0  0
    8.5004  -13.9705   25.6099 N   0  0  0  0  0  0  0  0  0  0  0  0
    7.0110  -15.7475   25.1315 C   0  0  0  0  0  0  0  0  0  0  0  0
    5.9547  -16.4036   25.2949 O   0  0  0  0  0  0  0  0  0  0  0  0
    7.8806  -11.9236   18.6606 N   0  0  0  0  0  0  0  0  0  0  0  0
    8.3036  -13.2887   18.9345 C   0  0  0  0  0  0  0  0  0  0  0  0
    9.5193  -13.5337   18.8838 N   0  0  0  0  0  0  0  0  0  0  0  0
    7.3450  -14.2758   19.2442 N   0  0  0  0  0  0  0  0  0  0  0  0
    7.5543  -15.4984   19.9368 C   0  0  0  0  0  0  0  0  0  0  0  0
    8.0764  -15.4606   21.3245 C   0  0  0  0  0  0  0  0  0  0  0  0
    8.2500  -16.8749   21.8198 C   0  0  0  0  0  0  0  0  0  0  0  0
    7.6563  -17.2081   23.1393 C   0  0  2  0  0  0  0  0  0  0  0  0
    7.8952  -16.0826   24.0723 N   0  0  0  0  0  0  0  0  0  0  0  0
    8.1506  -18.4570   23.7671 C   0  0  0  0  0  0  0  0  0  0  0  0
    7.8025  -19.5412   23.1547 O   0  0  0  0  0  0  0  0  0  0  0  0
   10.1327  -14.2986   18.9153 N   0  0  0  0  0  0  0  0  0  0  0  0
    8.9354  -18.5710   24.9194 C   0  0  1  0  0  0  0  0  0  0  0  0
   10.2309  -19.2353   24.7958 C   0  0  0  0  0  0  0  0  0  0  0  0
   11.1706  -18.5267   23.8713 C   0  0  0  0  0  0  0  0  0  0  0  0
   12.5390  -19.0826   23.9093 O   0  0  0  0  0  0  0  0  0  0  0  0
   12.8718  -20.0729   24.6181 C   0  0  0  0  0  0  0  0  0  0  0  0
   10.8762  -19.2098   26.1513 O   0  0  0  0  0  0  0  0  0  0  0  0
   10.4058  -18.4996   27.0657 O   0  0  0  0  0  0  0  0  0  0  0  0
   13.5389  -18.5041   23.1311 O   0  0  0  0  0  0  0  0  0  0  0  0
  2  1  1  1
  3  2  1  0
  4  5  1  0
  4  2  1  0
  5  6  1  6
  7  8  2  0
  7  5  1  0
  9 10  1  0
 10 11  2  0
 12 10  1  0
 12 13  1  0
 13 14  1  0
 14 15  1  0
 16 15  1  6
 16 17  1  0
 17  7  1  0
 18 16  1  0
 19 18  2  0
 20 18  1  0
 21 25  1  0
 21 20  1  0
 21 22  1  6
 23 24  2  0
 23 22  1  0
 25 28  1  0
 26 25  2  0
 27 23  1  0
M  END
$$$$
