LRD.pdb
     RDKit          3D

 28 27  0  0  1  0  0  0  0  0999 V2000
    5.5612  -12.0166   26.4495 C   0  0  0  0  0  0  0  0  0  0  0  0
    6.2901  -12.9690   27.3350 C   0  0  2  0  0  0  0  0  0  0  0  0
    7.1408  -12.2524   28.3594 C   0  0  0  0  0  0  0  0  0  0  0  0
    7.0512  -13.9992   26.5488 C   0  0  0  0  0  0  0  0  0  0  0  0
    6.1486  -14.4863   25.4372 C   0  0  2  0  0  0  0  0  0  0  0  0
    5.3334  -15.5374   26.0067 N   0  0  0  0  0  0  0  0  0  0  0  0
    6.9255  -15.0781   24.3158 C   0  0  0  0  0  0  0  0  0  0  0  0
    7.2591  -16.2843   24.3967 O   0  0  0  0  0  0  0  0  0  0  0  0
    7.3600  -13.3131   15.8173 N   0  0  0  0  0  0  0  0  0  0  0  0
    8.2478  -14.4267   16.1158 C   0  0  0  0  0  0  0  0  0  0  0  0
    8.5071  -15.2165   15.1942 N   0  0  0  0  0  0  0  0  0  0  0  0
    8.7794  -14.5772   17.4134 N   0  0  0  0  0  0  0  0  0  0  0  0
    8.4540  -13.8262   18.5745 C   0  0  0  0  0  0  0  0  0  0  0  0
    9.1500  -14.1304   19.8484 C   0  0  0  0  0  0  0  0  0  0  0  0
    8.2175  -13.8356   20.9971 C   0  0  0  0  0  0  0  0  0  0  0  0
    8.1248  -14.8548   22.0729 C   0  0  2  0  0  0  0  0  0  0  0  0
    7.2917  -14.3179   23.1738 N   0  0  0  0  0  0  0  0  0  0  0  0
    9.4181  -15.3107   22.6365 C   0  0  0  0  0  0  0  0  0  0  0  0
    9.9462  -14.5007   23.4948 O   0  0  0  0  0  0  0  0  0  0  0  0
    9.0533  -16.0124   15.0192 N   0  0  0  0  0  0  0  0  0  0  0  0
   10.0981  -16.4968   22.3410 C   0  0  2  0  0  0  0  0  0  0  0  0
   11.3918  -16.7162   22.9837 C   0  0  0  0  0  0  0  0  0  0  0  0
   11.5896  -18.1268   23.4433 C   0  0  0  0  0  0  0  0  0  0  0  0
   12.9501  -18.3738   23.9638 O   0  0  0  0  0  0  0  0  0  0  0  0
   13.8308  -17.4758   24.0727 C   0  0  0  0  0  0  0  0  0  0  0  0
   12.4517  -16.4580   21.9522 O   0  0  0  0  0  0  0  0  0  0  0  0
   13.6336  -16.2416   22.2959 O   0  0  0  0  0  0  0  0  0  0  0  0
   13.3111  -19.6580   24.3648 O   0  0  0  0  0  0  0  0  0  0  0  0
  2  1  1  6
  3  2  1  0
  4  5  1  0
  4  2  1  0
  5  6  1  1
  7  8  2  0
  7  5  1  0
  9 10  1  0
 10 11  2  0
 12 10  1  0
 12 13  1  0
 13 14  1  0
 14 15  1  0
 16 15  1  6
 16 17  1  0
 17  7  1  0
 18 16  1  0
 19 18  2  0
 20 18  1  0
 21 25  1  0
 21 20  1  0
 21 22  1  6
 23 24  2  0
 23 22  1  0
 25 28  1  0
 26 25  2  0
 27 23  1  0
M  END
$$$$
