LRD.pdb
     RDKit          3D

 28 27  0  0  1  0  0  0  0  0999 V2000
    7.3662  -13.1423   18.8323 C   0  0  0  0  0  0  0  0  0  0  0  0
    7.4074  -13.3545   20.3073 C   0  0  2  0  0  0  0  0  0  0  0  0
    7.5077  -12.0497   21.0649 C   0  0  0  0  0  0  0  0  0  0  0  0
    8.4591  -14.3522   20.7037 C   0  0  0  0  0  0  0  0  0  0  0  0
    8.1681  -15.6415   19.9683 C   0  0  2  0  0  0  0  0  0  0  0  0
    6.9105  -16.1318   20.4896 N   0  0  0  0  0  0  0  0  0  0  0  0
    9.2010  -16.6762   20.2401 C   0  0  0  0  0  0  0  0  0  0  0  0
    9.0194  -17.4568   21.2047 O   0  0  0  0  0  0  0  0  0  0  0  0
   16.5230  -20.7031   17.7002 N   0  0  0  0  0  0  0  0  0  0  0  0
   16.5365  -19.2940   17.3374 C   0  0  0  0  0  0  0  0  0  0  0  0
   17.6378  -18.7232   17.2948 N   0  0  0  0  0  0  0  0  0  0  0  0
   15.3273  -18.6279   17.0493 N   0  0  0  0  0  0  0  0  0  0  0  0
   14.0055  -19.1090   17.2480 C   0  0  0  0  0  0  0  0  0  0  0  0
   13.3839  -18.9766   18.5881 C   0  0  0  0  0  0  0  0  0  0  0  0
   12.2505  -17.9845   18.5049 C   0  0  0  0  0  0  0  0  0  0  0  0
   11.4626  -17.7510   19.7416 C   0  0  2  0  0  0  0  0  0  0  0  0
   10.3698  -16.7966   19.4429 N   0  0  0  0  0  0  0  0  0  0  0  0
   12.2304  -17.2434   20.9040 C   0  0  0  0  0  0  0  0  0  0  0  0
   11.8221  -16.1057   21.3629 O   0  0  0  0  0  0  0  0  0  0  0  0
   18.0158  -17.8327   17.1321 N   0  0  0  0  0  0  0  0  0  0  0  0
   13.3169  -17.8593   21.5338 C   0  0  1  0  0  0  0  0  0  0  0  0
   13.5253  -17.5827   22.9533 C   0  0  0  0  0  0  0  0  0  0  0  0
   12.4349  -18.1226   23.8249 C   0  0  0  0  0  0  0  0  0  0  0  0
   12.3253  -17.4078   25.1134 O   0  0  0  0  0  0  0  0  0  0  0  0
   13.0930  -16.4669   25.4584 C   0  0  0  0  0  0  0  0  0  0  0  0
   14.7828  -18.2917   23.3658 O   0  0  0  0  0  0  0  0  0  0  0  0
   15.0170  -19.4531   22.9684 O   0  0  0  0  0  0  0  0  0  0  0  0
   11.3299  -17.7689   26.0183 O   0  0  0  0  0  0  0  0  0  0  0  0
  2  1  1  6
  3  2  1  0
  4  5  1  0
  4  2  1  0
  5  6  1  1
  7  8  2  0
  7  5  1  0
  9 10  1  0
 10 11  2  0
 12 10  1  0
 12 13  1  0
 13 14  1  0
 14 15  1  0
 16 15  1  6
 16 17  1  0
 17  7  1  0
 18 16  1  0
 19 18  2  0
 20 18  1  0
 21 25  1  0
 21 20  1  0
 21 22  1  1
 23 24  2  0
 23 22  1  0
 25 28  1  0
 26 25  2  0
 27 23  1  0
M  END
$$$$
