LRD.pdb
     RDKit          3D

 28 27  0  0  1  0  0  0  0  0999 V2000
    5.1349  -11.5168   27.3666 C   0  0  0  0  0  0  0  0  0  0  0  0
    6.2072  -11.8854   26.3988 C   0  0  2  0  0  0  0  0  0  0  0  0
    6.5663  -10.7348   25.4856 C   0  0  0  0  0  0  0  0  0  0  0  0
    5.8854  -13.1523   25.6572 C   0  0  0  0  0  0  0  0  0  0  0  0
    6.8692  -14.2094   26.1075 C   0  0  2  0  0  0  0  0  0  0  0  0
    8.0481  -13.5018   26.5583 N   0  0  0  0  0  0  0  0  0  0  0  0
    7.2786  -15.0950   24.9852 C   0  0  0  0  0  0  0  0  0  0  0  0
    6.4546  -15.9434   24.5680 O   0  0  0  0  0  0  0  0  0  0  0  0
    9.4959  -12.4953   19.0564 N   0  0  0  0  0  0  0  0  0  0  0  0
    8.5448  -13.4428   18.4950 C   0  0  0  0  0  0  0  0  0  0  0  0
    8.1044  -13.2083   17.3586 N   0  0  0  0  0  0  0  0  0  0  0  0
    8.1570  -14.5773   19.2377 N   0  0  0  0  0  0  0  0  0  0  0  0
    7.3953  -14.6081   20.4365 C   0  0  0  0  0  0  0  0  0  0  0  0
    8.0238  -14.1567   21.7018 C   0  0  0  0  0  0  0  0  0  0  0  0
    9.1540  -15.0942   22.0474 C   0  0  0  0  0  0  0  0  0  0  0  0
    9.0158  -15.8917   23.2923 C   0  0  2  0  0  0  0  0  0  0  0  0
    8.5625  -15.0015   24.3861 N   0  0  0  0  0  0  0  0  0  0  0  0
   10.2385  -16.6030   23.7363 C   0  0  0  0  0  0  0  0  0  0  0  0
   11.2570  -15.8371   23.9547 O   0  0  0  0  0  0  0  0  0  0  0  0
    7.4557  -13.5675   16.7162 N   0  0  0  0  0  0  0  0  0  0  0  0
   10.3898  -17.9787   23.9388 C   0  0  1  0  0  0  0  0  0  0  0  0
   11.7172  -18.4699   24.3019 C   0  0  0  0  0  0  0  0  0  0  0  0
   11.6782  -19.7189   25.1255 C   0  0  0  0  0  0  0  0  0  0  0  0
   11.0445  -19.5152   26.4446 O   0  0  0  0  0  0  0  0  0  0  0  0
   10.6783  -18.3873   26.8776 C   0  0  0  0  0  0  0  0  0  0  0  0
   12.4238  -18.8293   23.0269 O   0  0  0  0  0  0  0  0  0  0  0  0
   11.8126  -18.8185   21.9369 O   0  0  0  0  0  0  0  0  0  0  0  0
   10.8255  -20.6086   27.2792 O   0  0  0  0  0  0  0  0  0  0  0  0
  2  1  1  6
  3  2  1  0
  4  5  1  0
  4  2  1  0
  5  6  1  6
  7  8  2  0
  7  5  1  0
  9 10  1  0
 10 11  2  0
 12 10  1  0
 12 13  1  0
 13 14  1  0
 14 15  1  0
 16 15  1  6
 16 17  1  0
 17  7  1  0
 18 16  1  0
 19 18  2  0
 20 18  1  0
 21 25  1  0
 21 20  1  0
 21 22  1  6
 23 24  2  0
 23 22  1  0
 25 28  1  0
 26 25  2  0
 27 23  1  0
M  END
$$$$
