LRD.pdb
     RDKit          3D

 28 27  0  0  1  0  0  0  0  0999 V2000
    7.7764  -12.4426   27.7215 C   0  0  0  0  0  0  0  0  0  0  0  0
    6.8147  -12.7883   26.6360 C   0  0  2  0  0  0  0  0  0  0  0  0
    5.8673  -11.6490   26.3344 C   0  0  0  0  0  0  0  0  0  0  0  0
    6.1113  -14.0898   26.9002 C   0  0  0  0  0  0  0  0  0  0  0  0
    7.0346  -15.2063   26.4655 C   0  0  2  0  0  0  0  0  0  0  0  0
    8.3671  -14.8121   26.8692 N   0  0  0  0  0  0  0  0  0  0  0  0
    7.0431  -15.3705   24.9876 C   0  0  0  0  0  0  0  0  0  0  0  0
    6.0577  -15.9264   24.4467 O   0  0  0  0  0  0  0  0  0  0  0  0
    9.0179  -15.2773   17.2788 N   0  0  0  0  0  0  0  0  0  0  0  0
    8.0960  -14.1564   17.3844 C   0  0  0  0  0  0  0  0  0  0  0  0
    8.1869  -13.2570   16.5341 N   0  0  0  0  0  0  0  0  0  0  0  0
    7.1445  -14.1209   18.4248 N   0  0  0  0  0  0  0  0  0  0  0  0
    7.2905  -13.5372   19.7117 C   0  0  0  0  0  0  0  0  0  0  0  0
    8.4632  -13.9055   20.5416 C   0  0  0  0  0  0  0  0  0  0  0  0
    8.0498  -13.9198   21.9924 C   0  0  0  0  0  0  0  0  0  0  0  0
    8.2355  -15.1909   22.7370 C   0  0  2  0  0  0  0  0  0  0  0  0
    8.1266  -14.9182   24.1890 N   0  0  0  0  0  0  0  0  0  0  0  0
    9.5116  -15.9016   22.4829 C   0  0  0  0  0  0  0  0  0  0  0  0
    9.7154  -16.2153   21.2453 O   0  0  0  0  0  0  0  0  0  0  0  0
    7.7515  -12.4143   16.2835 N   0  0  0  0  0  0  0  0  0  0  0  0
   10.4867  -16.2508   23.4230 C   0  0  1  0  0  0  0  0  0  0  0  0
   11.4134  -17.3251   23.0734 C   0  0  0  0  0  0  0  0  0  0  0  0
   12.7589  -16.8270   22.6472 C   0  0  0  0  0  0  0  0  0  0  0  0
   12.7355  -16.1808   21.3186 O   0  0  0  0  0  0  0  0  0  0  0  0
   11.7994  -16.3302   20.4849 C   0  0  0  0  0  0  0  0  0  0  0  0
   11.6406  -18.1394   24.3141 O   0  0  0  0  0  0  0  0  0  0  0  0
   11.0824  -17.8297   25.3885 O   0  0  0  0  0  0  0  0  0  0  0  0
   13.7903  -15.3555   20.9360 O   0  0  0  0  0  0  0  0  0  0  0  0
  2  1  1  1
  3  2  1  0
  4  5  1  0
  4  2  1  0
  5  6  1  6
  7  8  2  0
  7  5  1  0
  9 10  1  0
 10 11  2  0
 12 10  1  0
 12 13  1  0
 13 14  1  0
 14 15  1  0
 16 15  1  6
 16 17  1  0
 17  7  1  0
 18 16  1  0
 19 18  2  0
 20 18  1  0
 21 25  1  0
 21 20  1  0
 21 22  1  6
 23 24  2  0
 23 22  1  0
 25 28  1  0
 26 25  2  0
 27 23  1  0
M  END
$$$$
