LRD.pdb
     RDKit          3D

 28 27  0  0  1  0  0  0  0  0999 V2000
    9.5706  -13.2800   19.3508 C   0  0  0  0  0  0  0  0  0  0  0  0
    8.0936  -13.1125   19.4653 C   0  0  2  0  0  0  0  0  0  0  0  0
    7.6862  -11.6563   19.4574 C   0  0  0  0  0  0  0  0  0  0  0  0
    7.5283  -13.8796   20.6275 C   0  0  0  0  0  0  0  0  0  0  0  0
    7.9656  -15.3203   20.4819 C   0  0  2  0  0  0  0  0  0  0  0  0
    7.1516  -15.8877   19.4287 N   0  0  0  0  0  0  0  0  0  0  0  0
    7.7072  -16.1024   21.7200 C   0  0  0  0  0  0  0  0  0  0  0  0
    6.5595  -16.0547   22.2233 O   0  0  0  0  0  0  0  0  0  0  0  0
    9.0010  -21.3945   27.5524 N   0  0  0  0  0  0  0  0  0  0  0  0
    7.6563  -21.5008   27.0066 C   0  0  0  0  0  0  0  0  0  0  0  0
    6.7058  -21.3780   27.7952 N   0  0  0  0  0  0  0  0  0  0  0  0
    7.4706  -21.7344   25.6281 N   0  0  0  0  0  0  0  0  0  0  0  0
    7.6423  -20.8103   24.5629 C   0  0  0  0  0  0  0  0  0  0  0  0
    8.9008  -20.0298   24.4814 C   0  0  0  0  0  0  0  0  0  0  0  0
    8.8240  -19.1016   23.2946 C   0  0  0  0  0  0  0  0  0  0  0  0
    8.4939  -17.6798   23.5671 C   0  0  2  0  0  0  0  0  0  0  0  0
    8.7170  -16.8893   22.3343 N   0  0  0  0  0  0  0  0  0  0  0  0
    9.2472  -17.0487   24.6773 C   0  0  0  0  0  0  0  0  0  0  0  0
   10.4592  -16.7100   24.3806 O   0  0  0  0  0  0  0  0  0  0  0  0
    5.7263  -21.3238   27.7873 N   0  0  0  0  0  0  0  0  0  0  0  0
    8.7861  -16.7897   25.9721 C   0  0  2  0  0  0  0  0  0  0  0  0
    9.7130  -16.1605   26.9101 C   0  0  0  0  0  0  0  0  0  0  0  0
    9.0582  -15.1458   27.7943 C   0  0  0  0  0  0  0  0  0  0  0  0
   10.0111  -14.4834   28.7087 O   0  0  0  0  0  0  0  0  0  0  0  0
   11.2459  -14.7441   28.7405 C   0  0  0  0  0  0  0  0  0  0  0  0
   10.2288  -17.2389   27.8185 O   0  0  0  0  0  0  0  0  0  0  0  0
   11.4380  -17.2819   28.1312 O   0  0  0  0  0  0  0  0  0  0  0  0
    9.5520  -13.5133   29.5965 O   0  0  0  0  0  0  0  0  0  0  0  0
  2  1  1  1
  3  2  1  0
  4  5  1  0
  4  2  1  0
  5  6  1  6
  7  8  2  0
  7  5  1  0
  9 10  1  0
 10 11  2  0
 12 10  1  0
 12 13  1  0
 13 14  1  0
 14 15  1  0
 16 15  1  6
 16 17  1  0
 17  7  1  0
 18 16  1  0
 19 18  2  0
 20 18  1  0
 21 25  1  0
 21 20  1  0
 21 22  1  1
 23 24  2  0
 23 22  1  0
 25 28  1  0
 26 25  2  0
 27 23  1  0
M  END
$$$$
