LRD.pdb
     RDKit          3D

 28 27  0  0  1  0  0  0  0  0999 V2000
    7.2691  -12.1552   27.9570 C   0  0  0  0  0  0  0  0  0  0  0  0
    6.6468  -12.2661   26.6068 C   0  0  2  0  0  0  0  0  0  0  0  0
    5.6347  -11.1705   26.3577 C   0  0  0  0  0  0  0  0  0  0  0  0
    6.1047  -13.6437   26.3479 C   0  0  0  0  0  0  0  0  0  0  0  0
    7.2810  -14.5909   26.2649 C   0  0  2  0  0  0  0  0  0  0  0  0
    8.4688  -13.7777   26.4114 N   0  0  0  0  0  0  0  0  0  0  0  0
    7.3563  -15.2614   24.9397 C   0  0  0  0  0  0  0  0  0  0  0  0
    6.4672  -16.0955   24.6454 O   0  0  0  0  0  0  0  0  0  0  0  0
    8.1739  -12.2084   18.5135 N   0  0  0  0  0  0  0  0  0  0  0  0
    7.9066  -13.5492   18.0153 C   0  0  0  0  0  0  0  0  0  0  0  0
    8.3601  -13.8474   16.8991 N   0  0  0  0  0  0  0  0  0  0  0  0
    7.1575  -14.4552   18.7945 N   0  0  0  0  0  0  0  0  0  0  0  0
    7.6472  -15.5379   19.5730 C   0  0  0  0  0  0  0  0  0  0  0  0
    8.9531  -15.3976   20.2621 C   0  0  0  0  0  0  0  0  0  0  0  0
    8.7224  -14.8048   21.6300 C   0  0  0  0  0  0  0  0  0  0  0  0
    8.6055  -15.7517   22.7676 C   0  0  2  0  0  0  0  0  0  0  0  0
    8.3972  -14.9812   24.0155 N   0  0  0  0  0  0  0  0  0  0  0  0
    9.7569  -16.6653   22.9615 C   0  0  0  0  0  0  0  0  0  0  0  0
    9.9800  -17.4671   21.9721 O   0  0  0  0  0  0  0  0  0  0  0  0
    8.4006  -14.6115   16.2852 N   0  0  0  0  0  0  0  0  0  0  0  0
   10.6004  -16.7381   24.0750 C   0  0  1  0  0  0  0  0  0  0  0  0
   11.6911  -17.7097   24.0386 C   0  0  0  0  0  0  0  0  0  0  0  0
   13.0450  -17.0794   24.1368 C   0  0  0  0  0  0  0  0  0  0  0  0
   13.4307  -16.3571   22.9069 O   0  0  0  0  0  0  0  0  0  0  0  0
   12.6631  -16.2034   21.9165 C   0  0  0  0  0  0  0  0  0  0  0  0
   11.5474  -18.5871   25.2484 O   0  0  0  0  0  0  0  0  0  0  0  0
   12.3534  -19.5191   25.4568 O   0  0  0  0  0  0  0  0  0  0  0  0
   14.7049  -15.8039   22.8046 O   0  0  0  0  0  0  0  0  0  0  0  0
  2  1  1  1
  3  2  1  0
  4  5  1  0
  4  2  1  0
  5  6  1  6
  7  8  2  0
  7  5  1  0
  9 10  1  0
 10 11  2  0
 12 10  1  0
 12 13  1  0
 13 14  1  0
 14 15  1  0
 16 15  1  6
 16 17  1  0
 17  7  1  0
 18 16  1  0
 19 18  2  0
 20 18  1  0
 21 25  1  0
 21 20  1  0
 21 22  1  6
 23 24  2  0
 23 22  1  0
 25 28  1  0
 26 25  2  0
 27 23  1  0
M  END
$$$$
