LRD.pdb
     RDKit          3D

 28 27  0  0  1  0  0  0  0  0999 V2000
   16.7391  -15.6636   17.8745 C   0  0  0  0  0  0  0  0  0  0  0  0
   15.6053  -14.6987   17.7972 C   0  0  2  0  0  0  0  0  0  0  0  0
   16.0165  -13.3912   17.1586 C   0  0  0  0  0  0  0  0  0  0  0  0
   14.9251  -14.5214   19.1256 C   0  0  0  0  0  0  0  0  0  0  0  0
   14.2414  -15.8264   19.4683 C   0  0  2  0  0  0  0  0  0  0  0  0
   13.4446  -16.1831   18.3143 N   0  0  0  0  0  0  0  0  0  0  0  0
   13.3172  -15.6776   20.6237 C   0  0  0  0  0  0  0  0  0  0  0  0
   13.8042  -15.3671   21.7369 O   0  0  0  0  0  0  0  0  0  0  0  0
    9.4206  -13.2489   19.0709 N   0  0  0  0  0  0  0  0  0  0  0  0
    8.2415  -12.7928   19.7913 C   0  0  0  0  0  0  0  0  0  0  0  0
    8.1722  -11.5858   20.0721 N   0  0  0  0  0  0  0  0  0  0  0  0
    7.2306  -13.7110   20.1436 N   0  0  0  0  0  0  0  0  0  0  0  0
    7.2815  -14.7089   21.1533 C   0  0  0  0  0  0  0  0  0  0  0  0
    8.5331  -14.8866   21.9289 C   0  0  0  0  0  0  0  0  0  0  0  0
    9.6024  -15.4288   21.0132 C   0  0  0  0  0  0  0  0  0  0  0  0
   10.9556  -15.6232   21.5926 C   0  0  2  0  0  0  0  0  0  0  0  0
   11.9172  -15.8766   20.4947 N   0  0  0  0  0  0  0  0  0  0  0  0
   11.0752  -16.7149   22.5886 C   0  0  0  0  0  0  0  0  0  0  0  0
   11.0090  -17.9065   22.0911 O   0  0  0  0  0  0  0  0  0  0  0  0
    7.5400  -10.9386   20.4516 N   0  0  0  0  0  0  0  0  0  0  0  0
   11.2508  -16.5837   23.9701 C   0  0  1  0  0  0  0  0  0  0  0  0
   11.2872  -17.8063   24.7693 C   0  0  0  0  0  0  0  0  0  0  0  0
   12.6705  -18.1957   25.1876 C   0  0  0  0  0  0  0  0  0  0  0  0
   12.6867  -19.3569   26.1010 O   0  0  0  0  0  0  0  0  0  0  0  0
   12.0916  -20.4440   25.8605 C   0  0  0  0  0  0  0  0  0  0  0  0
   10.5265  -17.5345   26.0349 O   0  0  0  0  0  0  0  0  0  0  0  0
   10.0751  -16.3936   26.2723 O   0  0  0  0  0  0  0  0  0  0  0  0
   13.3888  -19.2785   27.3015 O   0  0  0  0  0  0  0  0  0  0  0  0
  2  1  1  1
  3  2  1  0
  4  5  1  0
  4  2  1  0
  5  6  1  6
  7  8  2  0
  7  5  1  0
  9 10  1  0
 10 11  2  0
 12 10  1  0
 12 13  1  0
 13 14  1  0
 14 15  1  0
 16 15  1  6
 16 17  1  0
 17  7  1  0
 18 16  1  0
 19 18  2  0
 20 18  1  0
 21 25  1  0
 21 20  1  0
 21 22  1  1
 23 24  2  0
 23 22  1  0
 25 28  1  0
 26 25  2  0
 27 23  1  0
M  END
$$$$
