EET.pdb
     RDKit          3D

 26 25  0  0  1  0  0  0  0  0999 V2000
   11.5297  -16.9767   16.5146 N   0  0  0  0  0  0  0  0  0  0  0  0
   11.0865  -18.2246   17.0955 C   0  0  1  0  0  0  0  0  0  0  0  0
   12.1453  -19.2685   17.1125 C   0  0  0  0  0  0  0  0  0  0  0  0
   13.3297  -18.8447   17.9282 C   0  0  0  0  0  0  0  0  0  0  0  0
   14.3971  -19.8443   17.9446 C   0  0  0  0  0  0  0  0  0  0  0  0
   14.3007  -20.8830   17.2344 O   0  0  0  0  0  0  0  0  0  0  0  0
   10.5438  -17.9429   18.4610 C   0  0  0  0  0  0  0  0  0  0  0  0
   10.9977  -16.9968   19.1625 O   0  0  0  0  0  0  0  0  0  0  0  0
   15.5520  -19.6954   18.7350 O   0  0  0  0  0  0  0  0  0  0  0  0
    9.5172  -18.7309   18.9837 N   0  0  0  0  0  0  0  0  0  0  0  0
    8.8401  -18.4839   20.2722 C   0  0  1  0  0  0  0  0  0  0  0  0
    7.5937  -19.3345   20.3197 C   0  0  0  0  0  0  0  0  0  0  0  0
    6.8902  -19.1185   21.6198 C   0  0  0  0  0  0  0  0  0  0  0  0
    5.5620  -19.8170   21.6446 C   0  0  0  0  0  0  0  0  0  0  0  0
    5.1894  -20.5306   20.7134 O   0  0  0  0  0  0  0  0  0  0  0  0
    9.7669  -18.9412   21.3018 C   0  0  0  0  0  0  0  0  0  0  0  0
   10.6767  -19.7505   20.9964 O   0  0  0  0  0  0  0  0  0  0  0  0
    4.7761  -19.6275   22.7515 O   0  0  0  0  0  0  0  0  0  0  0  0
   11.2877  -16.2084   22.7738 C   0  0  0  0  0  0  0  0  0  0  0  0
   11.9224  -17.5649   22.9119 C   0  0  1  0  0  0  0  0  0  0  0  0
   13.0397  -17.5315   23.7332 O   0  0  0  0  0  0  0  0  0  0  0  0
   10.8771  -18.5527   23.4609 C   0  0  2  0  0  0  0  0  0  0  0  0
    9.6884  -18.5014   22.6354 N   0  0  0  0  0  0  0  0  0  0  0  0
   10.5398  -18.1976   24.8366 C   0  0  0  0  0  0  0  0  0  0  0  0
   11.3841  -18.5012   25.8769 O   0  0  0  0  0  0  0  0  0  0  0  0
    9.4366  -17.5942   25.0680 O   0  0  0  0  0  0  0  0  0  0  0  0
  2  1  1  1
  2  7  1  0
  3  2  1  0
  4  5  1  0
  4  3  1  0
  5  6  2  0
  5  9  1  0
  7 10  1  0
  7  8  2  0
 10 11  1  0
 11 12  1  6
 12 13  1  0
 13 14  1  0
 14 15  2  0
 16 11  1  0
 16 17  2  0
 18 14  1  0
 20 19  1  1
 20 21  1  0
 20 22  1  0
 22 23  1  6
 23 16  1  0
 24 25  1  0
 24 22  1  0
 26 24  2  0
M  END
$$$$
