EET.pdb
     RDKit          3D

 26 25  0  0  1  0  0  0  0  0999 V2000
   11.4983  -19.6506   21.5162 N   0  0  0  0  0  0  0  0  0  0  0  0
   11.3372  -18.2313   21.7417 C   0  0  1  0  0  0  0  0  0  0  0  0
   10.8602  -17.5000   20.5380 C   0  0  0  0  0  0  0  0  0  0  0  0
    9.6680  -18.1663   19.9198 C   0  0  0  0  0  0  0  0  0  0  0  0
    9.1722  -17.4634   18.7370 C   0  0  0  0  0  0  0  0  0  0  0  0
    9.6867  -17.6882   17.6068 O   0  0  0  0  0  0  0  0  0  0  0  0
   10.4332  -18.0403   22.9184 C   0  0  0  0  0  0  0  0  0  0  0  0
    9.2008  -18.3031   22.8455 O   0  0  0  0  0  0  0  0  0  0  0  0
    8.1238  -16.5270   18.8056 O   0  0  0  0  0  0  0  0  0  0  0  0
   10.9456  -17.5635   24.1260 N   0  0  0  0  0  0  0  0  0  0  0  0
   10.1513  -17.3554   25.3530 C   0  0  1  0  0  0  0  0  0  0  0  0
   11.0335  -17.6542   26.5412 C   0  0  0  0  0  0  0  0  0  0  0  0
   11.2488  -19.1289   26.6457 C   0  0  0  0  0  0  0  0  0  0  0  0
   10.8746  -19.6402   28.0064 C   0  0  0  0  0  0  0  0  0  0  0  0
   10.9114  -20.8399   28.2788 O   0  0  0  0  0  0  0  0  0  0  0  0
    9.8023  -15.9390   25.3646 C   0  0  0  0  0  0  0  0  0  0  0  0
   10.6298  -15.0971   24.9377 O   0  0  0  0  0  0  0  0  0  0  0  0
   10.4881  -18.7126   28.9387 O   0  0  0  0  0  0  0  0  0  0  0  0
    6.4373  -12.4364   25.2506 C   0  0  0  0  0  0  0  0  0  0  0  0
    6.7667  -13.9022   25.3197 C   0  0  1  0  0  0  0  0  0  0  0  0
    6.5014  -14.5485   24.1213 O   0  0  0  0  0  0  0  0  0  0  0  0
    8.2483  -14.0643   25.7049 C   0  0  2  0  0  0  0  0  0  0  0  0
    8.5600  -15.4729   25.8310 N   0  0  0  0  0  0  0  0  0  0  0  0
    8.5041  -13.3856   26.9723 C   0  0  0  0  0  0  0  0  0  0  0  0
    8.8771  -14.0881   28.0925 O   0  0  0  0  0  0  0  0  0  0  0  0
    8.3754  -12.1150   27.0318 O   0  0  0  0  0  0  0  0  0  0  0  0
  2  1  1  6
  2  7  1  0
  3  2  1  0
  4  5  1  0
  4  3  1  0
  5  6  2  0
  5  9  1  0
  7 10  1  0
  7  8  2  0
 10 11  1  0
 11 12  1  1
 12 13  1  0
 13 14  1  0
 14 15  2  0
 16 11  1  0
 16 17  2  0
 18 14  1  0
 20 19  1  6
 20 21  1  0
 20 22  1  0
 22 23  1  1
 23 16  1  0
 24 25  1  0
 24 22  1  0
 26 24  2  0
M  END
$$$$
