EET.pdb
     RDKit          3D

 26 25  0  0  1  0  0  0  0  0999 V2000
    8.3470  -14.0714   19.1387 N   0  0  0  0  0  0  0  0  0  0  0  0
    8.9207  -15.1063   19.9701 C   0  0  1  0  0  0  0  0  0  0  0  0
   10.3937  -14.9785   20.1273 C   0  0  0  0  0  0  0  0  0  0  0  0
   10.9296  -13.7888   19.3889 C   0  0  0  0  0  0  0  0  0  0  0  0
   12.3516  -13.5562   19.6393 C   0  0  0  0  0  0  0  0  0  0  0  0
   12.7958  -13.5713   20.8204 O   0  0  0  0  0  0  0  0  0  0  0  0
    8.2063  -15.1054   21.2846 C   0  0  0  0  0  0  0  0  0  0  0  0
    7.4186  -14.1708   21.6000 O   0  0  0  0  0  0  0  0  0  0  0  0
   13.2662  -13.3108   18.5980 O   0  0  0  0  0  0  0  0  0  0  0  0
    8.4032  -16.1490   22.1904 N   0  0  0  0  0  0  0  0  0  0  0  0
    7.6883  -16.2949   23.4738 C   0  0  1  0  0  0  0  0  0  0  0  0
    7.9407  -17.6883   23.9975 C   0  0  0  0  0  0  0  0  0  0  0  0
    7.2084  -17.8785   25.2856 C   0  0  0  0  0  0  0  0  0  0  0  0
    7.4949  -19.2254   25.8828 C   0  0  0  0  0  0  0  0  0  0  0  0
    6.6621  -20.1315   25.8635 O   0  0  0  0  0  0  0  0  0  0  0  0
    8.2987  -15.3287   24.3804 C   0  0  0  0  0  0  0  0  0  0  0  0
    9.5188  -15.0579   24.2617 O   0  0  0  0  0  0  0  0  0  0  0  0
    8.7279  -19.4071   26.4536 O   0  0  0  0  0  0  0  0  0  0  0  0
    6.9942  -11.7133   25.3748 C   0  0  0  0  0  0  0  0  0  0  0  0
    7.2400  -12.5744   26.5830 C   0  0  1  0  0  0  0  0  0  0  0  0
    6.0640  -13.1190   27.0774 O   0  0  0  0  0  0  0  0  0  0  0  0
    8.2362  -13.6872   26.2098 C   0  0  2  0  0  0  0  0  0  0  0  0
    7.5673  -14.6740   25.3876 N   0  0  0  0  0  0  0  0  0  0  0  0
    8.7460  -14.3184   27.4239 C   0  0  0  0  0  0  0  0  0  0  0  0
    9.4618  -13.6011   28.3515 O   0  0  0  0  0  0  0  0  0  0  0  0
    8.5182  -15.5613   27.6186 O   0  0  0  0  0  0  0  0  0  0  0  0
  2  1  1  6
  2  7  1  0
  3  2  1  0
  4  5  1  0
  4  3  1  0
  5  6  2  0
  5  9  1  0
  7 10  1  0
  7  8  2  0
 10 11  1  0
 11 12  1  1
 12 13  1  0
 13 14  1  0
 14 15  2  0
 16 11  1  0
 16 17  2  0
 18 14  1  0
 20 19  1  6
 20 21  1  0
 20 22  1  0
 22 23  1  6
 23 16  1  0
 24 25  1  0
 24 22  1  0
 26 24  2  0
M  END
$$$$
