EET.pdb
     RDKit          3D

 26 25  0  0  1  0  0  0  0  0999 V2000
    9.5538  -16.6338   19.6732 N   0  0  0  0  0  0  0  0  0  0  0  0
    8.2240  -16.1960   20.0353 C   0  0  1  0  0  0  0  0  0  0  0  0
    7.1532  -16.8932   19.2748 C   0  0  0  0  0  0  0  0  0  0  0  0
    7.7139  -17.9402   18.3597 C   0  0  0  0  0  0  0  0  0  0  0  0
    6.6786  -18.6798   17.6386 C   0  0  0  0  0  0  0  0  0  0  0  0
    5.4633  -18.3754   17.7900 O   0  0  0  0  0  0  0  0  0  0  0  0
    8.0633  -16.3500   21.5147 C   0  0  0  0  0  0  0  0  0  0  0  0
    6.9682  -16.0861   22.0843 O   0  0  0  0  0  0  0  0  0  0  0  0
    6.9851  -19.7393   16.7643 O   0  0  0  0  0  0  0  0  0  0  0  0
    9.1335  -16.7922   22.2940 N   0  0  0  0  0  0  0  0  0  0  0  0
    9.0940  -16.9586   23.7604 C   0  0  1  0  0  0  0  0  0  0  0  0
   10.3782  -17.6238   24.1935 C   0  0  0  0  0  0  0  0  0  0  0  0
   10.3825  -17.7831   25.6789 C   0  0  0  0  0  0  0  0  0  0  0  0
   11.6623  -18.4043   26.1577 C   0  0  0  0  0  0  0  0  0  0  0  0
   11.9314  -19.5843   25.9337 O   0  0  0  0  0  0  0  0  0  0  0  0
    9.0485  -15.6089   24.3120 C   0  0  0  0  0  0  0  0  0  0  0  0
    9.7316  -14.7014   23.7774 O   0  0  0  0  0  0  0  0  0  0  0  0
   12.5240  -17.6007   26.8581 O   0  0  0  0  0  0  0  0  0  0  0  0
    6.6739  -11.9317   26.0342 C   0  0  0  0  0  0  0  0  0  0  0  0
    6.7785  -13.3383   25.5122 C   0  0  1  0  0  0  0  0  0  0  0  0
    6.5368  -13.4024   24.1478 O   0  0  0  0  0  0  0  0  0  0  0  0
    8.1774  -13.8908   25.8400 C   0  0  2  0  0  0  0  0  0  0  0  0
    8.2556  -15.2760   25.4249 N   0  0  0  0  0  0  0  0  0  0  0  0
    8.4219  -13.7901   27.2762 C   0  0  0  0  0  0  0  0  0  0  0  0
    8.5197  -12.5685   27.8970 O   0  0  0  0  0  0  0  0  0  0  0  0
    8.5466  -14.8631   27.9601 O   0  0  0  0  0  0  0  0  0  0  0  0
  2  1  1  6
  2  7  1  0
  3  2  1  0
  4  5  1  0
  4  3  1  0
  5  6  2  0
  5  9  1  0
  7 10  1  0
  7  8  2  0
 10 11  1  0
 11 12  1  1
 12 13  1  0
 13 14  1  0
 14 15  2  0
 16 11  1  0
 16 17  2  0
 18 14  1  0
 20 19  1  6
 20 21  1  0
 20 22  1  0
 22 23  1  1
 23 16  1  0
 24 25  1  0
 24 22  1  0
 26 24  2  0
M  END
$$$$
