EET.pdb
     RDKit          3D

 26 25  0  0  1  0  0  0  0  0999 V2000
    7.0550  -17.4071   19.8712 N   0  0  0  0  0  0  0  0  0  0  0  0
    8.0449  -17.2354   20.9113 C   0  0  1  0  0  0  0  0  0  0  0  0
    9.1167  -16.2727   20.5433 C   0  0  0  0  0  0  0  0  0  0  0  0
    9.5721  -16.4635   19.1277 C   0  0  0  0  0  0  0  0  0  0  0  0
   10.6229  -15.5247   18.7360 C   0  0  0  0  0  0  0  0  0  0  0  0
   11.0347  -14.6591   19.5568 O   0  0  0  0  0  0  0  0  0  0  0  0
    7.3409  -16.8476   22.1731 C   0  0  0  0  0  0  0  0  0  0  0  0
    6.2005  -16.3073   22.1459 O   0  0  0  0  0  0  0  0  0  0  0  0
   11.2076  -15.5449   17.4560 O   0  0  0  0  0  0  0  0  0  0  0  0
    7.9419  -17.0801   23.4112 N   0  0  0  0  0  0  0  0  0  0  0  0
    7.3109  -16.8052   24.7174 C   0  0  1  0  0  0  0  0  0  0  0  0
    7.6262  -17.9550   25.6437 C   0  0  0  0  0  0  0  0  0  0  0  0
    6.6540  -19.0653   25.4113 C   0  0  0  0  0  0  0  0  0  0  0  0
    6.8901  -20.2049   26.3591 C   0  0  0  0  0  0  0  0  0  0  0  0
    6.8444  -20.0508   27.5795 O   0  0  0  0  0  0  0  0  0  0  0  0
    7.9543  -15.5975   25.2229 C   0  0  0  0  0  0  0  0  0  0  0  0
    9.1676  -15.3948   24.9724 O   0  0  0  0  0  0  0  0  0  0  0  0
    7.1599  -21.4308   25.8085 O   0  0  0  0  0  0  0  0  0  0  0  0
    6.7757  -11.7553   25.1718 C   0  0  0  0  0  0  0  0  0  0  0  0
    7.0264  -12.2790   26.5592 C   0  0  1  0  0  0  0  0  0  0  0  0
    5.8480  -12.6383   27.1967 O   0  0  0  0  0  0  0  0  0  0  0  0
    7.9838  -13.4815   26.4745 C   0  0  2  0  0  0  0  0  0  0  0  0
    7.2621  -14.6355   25.9801 N   0  0  0  0  0  0  0  0  0  0  0  0
    8.5302  -13.7692   27.7978 C   0  0  0  0  0  0  0  0  0  0  0  0
    9.2542  -12.8278   28.4884 O   0  0  0  0  0  0  0  0  0  0  0  0
    8.3271  -14.9206   28.3150 O   0  0  0  0  0  0  0  0  0  0  0  0
  2  1  1  6
  2  7  1  0
  3  2  1  0
  4  5  1  0
  4  3  1  0
  5  6  2  0
  5  9  1  0
  7 10  1  0
  7  8  2  0
 10 11  1  0
 11 12  1  1
 12 13  1  0
 13 14  1  0
 14 15  2  0
 16 11  1  0
 16 17  2  0
 18 14  1  0
 20 19  1  6
 20 21  1  0
 20 22  1  0
 22 23  1  1
 23 16  1  0
 24 25  1  0
 24 22  1  0
 26 24  2  0
M  END
$$$$
