EET.pdb
     RDKit          3D

 26 25  0  0  1  0  0  0  0  0999 V2000
   12.2945  -19.7943   18.4285 N   0  0  0  0  0  0  0  0  0  0  0  0
   11.3930  -18.6658   18.4994 C   0  0  1  0  0  0  0  0  0  0  0  0
   10.3970  -18.6448   17.3956 C   0  0  0  0  0  0  0  0  0  0  0  0
    9.4364  -17.5022   17.5363 C   0  0  0  0  0  0  0  0  0  0  0  0
    8.5200  -17.3857   16.4025 C   0  0  0  0  0  0  0  0  0  0  0  0
    7.2793  -17.5390   16.5749 O   0  0  0  0  0  0  0  0  0  0  0  0
   10.7467  -18.6625   19.8487 C   0  0  0  0  0  0  0  0  0  0  0  0
    9.6190  -19.1983   20.0348 O   0  0  0  0  0  0  0  0  0  0  0  0
    8.9711  -17.1040   15.0995 O   0  0  0  0  0  0  0  0  0  0  0  0
   11.3884  -18.0602   20.9320 N   0  0  0  0  0  0  0  0  0  0  0  0
   10.9070  -18.1069   22.3269 C   0  0  1  0  0  0  0  0  0  0  0  0
   12.0865  -18.4005   23.2224 C   0  0  0  0  0  0  0  0  0  0  0  0
   11.6428  -18.4029   24.6489 C   0  0  0  0  0  0  0  0  0  0  0  0
   12.7918  -18.6672   25.5777 C   0  0  0  0  0  0  0  0  0  0  0  0
   13.9345  -18.8476   25.1573 O   0  0  0  0  0  0  0  0  0  0  0  0
   10.4095  -16.7673   22.6203 C   0  0  0  0  0  0  0  0  0  0  0  0
   11.0878  -15.7689   22.2754 O   0  0  0  0  0  0  0  0  0  0  0  0
   12.5164  -18.6999   26.9201 O   0  0  0  0  0  0  0  0  0  0  0  0
    6.9011  -13.5723   23.2711 C   0  0  0  0  0  0  0  0  0  0  0  0
    7.3933  -14.9378   22.8773 C   0  0  1  0  0  0  0  0  0  0  0  0
    7.4784  -15.0791   21.5000 O   0  0  0  0  0  0  0  0  0  0  0  0
    8.7649  -15.1830   23.5317 C   0  0  2  0  0  0  0  0  0  0  0  0
    9.1835  -16.5450   23.2727 N   0  0  0  0  0  0  0  0  0  0  0  0
    8.6697  -14.9601   24.9717 C   0  0  0  0  0  0  0  0  0  0  0  0
    8.4380  -13.7065   25.4835 O   0  0  0  0  0  0  0  0  0  0  0  0
    8.8065  -15.9549   25.7631 O   0  0  0  0  0  0  0  0  0  0  0  0
  2  1  1  6
  2  7  1  0
  3  2  1  0
  4  5  1  0
  4  3  1  0
  5  6  2  0
  5  9  1  0
  7 10  1  0
  7  8  2  0
 10 11  1  0
 11 12  1  1
 12 13  1  0
 13 14  1  0
 14 15  2  0
 16 11  1  0
 16 17  2  0
 18 14  1  0
 20 19  1  6
 20 21  1  0
 20 22  1  0
 22 23  1  1
 23 16  1  0
 24 25  1  0
 24 22  1  0
 26 24  2  0
M  END
$$$$
