EET.pdb
     RDKit          3D

 26 25  0  0  1  0  0  0  0  0999 V2000
   10.3644  -13.9098   19.5003 N   0  0  0  0  0  0  0  0  0  0  0  0
    8.9420  -13.7562   19.7113 C   0  0  1  0  0  0  0  0  0  0  0  0
    8.1274  -14.2285   18.5606 C   0  0  0  0  0  0  0  0  0  0  0  0
    8.9441  -14.3321   17.3076 C   0  0  0  0  0  0  0  0  0  0  0  0
    8.1925  -14.8861   16.1819 C   0  0  0  0  0  0  0  0  0  0  0  0
    6.9665  -15.1554   16.3124 O   0  0  0  0  0  0  0  0  0  0  0  0
    8.5773  -14.4465   20.9876 C   0  0  0  0  0  0  0  0  0  0  0  0
    7.3850  -14.4688   21.4012 O   0  0  0  0  0  0  0  0  0  0  0  0
    8.7897  -15.1376   14.9326 O   0  0  0  0  0  0  0  0  0  0  0  0
    9.5611  -15.0820   21.7469 N   0  0  0  0  0  0  0  0  0  0  0  0
    9.3031  -15.8671   22.9702 C   0  0  1  0  0  0  0  0  0  0  0  0
   10.4892  -16.7702   23.2089 C   0  0  0  0  0  0  0  0  0  0  0  0
   10.0729  -18.1957   23.0465 C   0  0  0  0  0  0  0  0  0  0  0  0
   11.2603  -19.0920   22.8476 C   0  0  0  0  0  0  0  0  0  0  0  0
   12.2795  -18.6985   22.2807 O   0  0  0  0  0  0  0  0  0  0  0  0
    9.2196  -14.8956   24.0553 C   0  0  0  0  0  0  0  0  0  0  0  0
   10.1819  -14.1158   24.2595 O   0  0  0  0  0  0  0  0  0  0  0  0
   11.1639  -20.3732   23.3252 O   0  0  0  0  0  0  0  0  0  0  0  0
    6.6676  -12.0744   27.0477 C   0  0  0  0  0  0  0  0  0  0  0  0
    6.6632  -13.1607   26.0076 C   0  0  1  0  0  0  0  0  0  0  0  0
    6.2579  -12.6878   24.7681 O   0  0  0  0  0  0  0  0  0  0  0  0
    8.0726  -13.7734   25.9181 C   0  0  2  0  0  0  0  0  0  0  0  0
    8.0896  -14.7890   24.8859 N   0  0  0  0  0  0  0  0  0  0  0  0
    8.4331  -14.3673   27.2025 C   0  0  0  0  0  0  0  0  0  0  0  0
    8.7069  -13.5831   28.2967 O   0  0  0  0  0  0  0  0  0  0  0  0
    8.4934  -15.6406   27.3012 O   0  0  0  0  0  0  0  0  0  0  0  0
  2  1  1  6
  2  7  1  0
  3  2  1  0
  4  5  1  0
  4  3  1  0
  5  6  2  0
  5  9  1  0
  7 10  1  0
  7  8  2  0
 10 11  1  0
 11 12  1  1
 12 13  1  0
 13 14  1  0
 14 15  2  0
 16 11  1  0
 16 17  2  0
 18 14  1  0
 20 19  1  1
 20 21  1  0
 20 22  1  0
 22 23  1  6
 23 16  1  0
 24 25  1  0
 24 22  1  0
 26 24  2  0
M  END
$$$$
