EET.pdb
     RDKit          3D

 26 25  0  0  1  0  0  0  0  0999 V2000
    9.4908  -16.1458   19.2489 N   0  0  0  0  0  0  0  0  0  0  0  0
    8.9323  -17.3166   19.8881 C   0  0  1  0  0  0  0  0  0  0  0  0
    8.7561  -18.4618   18.9561 C   0  0  0  0  0  0  0  0  0  0  0  0
    8.2174  -19.6716   19.6589 C   0  0  0  0  0  0  0  0  0  0  0  0
    8.0788  -20.8289   18.7755 C   0  0  0  0  0  0  0  0  0  0  0  0
    7.0315  -20.9761   18.0869 O   0  0  0  0  0  0  0  0  0  0  0  0
    9.7896  -17.6665   21.0632 C   0  0  0  0  0  0  0  0  0  0  0  0
    9.5495  -18.6864   21.7671 O   0  0  0  0  0  0  0  0  0  0  0  0
    9.0842  -21.8067   18.6571 O   0  0  0  0  0  0  0  0  0  0  0  0
   10.8784  -16.8612   21.4014 N   0  0  0  0  0  0  0  0  0  0  0  0
   11.8140  -17.1340   22.5104 C   0  0  1  0  0  0  0  0  0  0  0  0
   13.1113  -16.4189   22.2185 C   0  0  0  0  0  0  0  0  0  0  0  0
   14.0768  -16.6603   23.3326 C   0  0  0  0  0  0  0  0  0  0  0  0
   15.4040  -16.0172   23.0538 C   0  0  0  0  0  0  0  0  0  0  0  0
   16.3322  -16.0745   23.8602 O   0  0  0  0  0  0  0  0  0  0  0  0
   11.2041  -16.5460   23.6980 C   0  0  0  0  0  0  0  0  0  0  0  0
   10.8594  -15.3390   23.6802 O   0  0  0  0  0  0  0  0  0  0  0  0
   15.5419  -15.3599   21.8589 O   0  0  0  0  0  0  0  0  0  0  0  0
    9.0018  -15.1316   24.4561 C   0  0  0  0  0  0  0  0  0  0  0  0
    8.8442  -16.2509   25.4482 C   0  0  1  0  0  0  0  0  0  0  0  0
    8.1777  -17.3371   24.9004 O   0  0  0  0  0  0  0  0  0  0  0  0
   10.2362  -16.6700   25.9548 C   0  0  2  0  0  0  0  0  0  0  0  0
   10.9755  -17.2855   24.8723 N   0  0  0  0  0  0  0  0  0  0  0  0
   10.0938  -17.6165   27.0576 C   0  0  0  0  0  0  0  0  0  0  0  0
    9.5854  -17.2227   28.2716 O   0  0  0  0  0  0  0  0  0  0  0  0
   10.4519  -18.8311   26.8817 O   0  0  0  0  0  0  0  0  0  0  0  0
  2  1  1  6
  2  7  1  0
  3  2  1  0
  4  5  1  0
  4  3  1  0
  5  6  2  0
  5  9  1  0
  7 10  1  0
  7  8  2  0
 10 11  1  0
 11 12  1  6
 12 13  1  0
 13 14  1  0
 14 15  2  0
 16 11  1  0
 16 17  2  0
 18 14  1  0
 20 19  1  6
 20 21  1  0
 20 22  1  0
 22 23  1  6
 23 16  1  0
 24 25  1  0
 24 22  1  0
 26 24  2  0
M  END
$$$$
