EET.pdb
     RDKit          3D

 26 25  0  0  1  0  0  0  0  0999 V2000
    9.9113  -16.4519   20.0952 N   0  0  0  0  0  0  0  0  0  0  0  0
    8.5518  -15.9627   20.1578 C   0  0  1  0  0  0  0  0  0  0  0  0
    7.6318  -16.6769   19.2334 C   0  0  0  0  0  0  0  0  0  0  0  0
    7.7565  -18.1651   19.3662 C   0  0  0  0  0  0  0  0  0  0  0  0
    7.7316  -18.8560   18.0774 C   0  0  0  0  0  0  0  0  0  0  0  0
    6.8788  -19.7608   17.8621 O   0  0  0  0  0  0  0  0  0  0  0  0
    8.0922  -16.0275   21.5800 C   0  0  0  0  0  0  0  0  0  0  0  0
    6.9033  -15.7454   21.8964 O   0  0  0  0  0  0  0  0  0  0  0  0
    8.6370  -18.5491   17.0445 O   0  0  0  0  0  0  0  0  0  0  0  0
    8.9814  -16.4047   22.5877 N   0  0  0  0  0  0  0  0  0  0  0  0
    8.6051  -16.6449   23.9949 C   0  0  1  0  0  0  0  0  0  0  0  0
    9.5489  -17.6761   24.5652 C   0  0  0  0  0  0  0  0  0  0  0  0
    9.2600  -17.8690   26.0182 C   0  0  0  0  0  0  0  0  0  0  0  0
   10.1772  -18.8895   26.6265 C   0  0  0  0  0  0  0  0  0  0  0  0
   10.9746  -19.5311   25.9427 O   0  0  0  0  0  0  0  0  0  0  0  0
    8.8148  -15.3763   24.6840 C   0  0  0  0  0  0  0  0  0  0  0  0
    9.8568  -14.7151   24.4541 O   0  0  0  0  0  0  0  0  0  0  0  0
   10.0910  -19.0795   27.9812 O   0  0  0  0  0  0  0  0  0  0  0  0
    6.7710  -12.1489   24.8528 C   0  0  0  0  0  0  0  0  0  0  0  0
    6.9444  -12.6969   26.2426 C   0  0  1  0  0  0  0  0  0  0  0  0
    5.8220  -13.3922   26.6678 O   0  0  0  0  0  0  0  0  0  0  0  0
    8.1864  -13.6060   26.2704 C   0  0  2  0  0  0  0  0  0  0  0  0
    7.8835  -14.8528   25.5987 N   0  0  0  0  0  0  0  0  0  0  0  0
    8.5716  -13.8703   27.6539 C   0  0  0  0  0  0  0  0  0  0  0  0
    8.9995  -12.8584   28.4787 O   0  0  0  0  0  0  0  0  0  0  0  0
    8.5072  -15.0678   28.0971 O   0  0  0  0  0  0  0  0  0  0  0  0
  2  1  1  1
  2  7  1  0
  3  2  1  0
  4  5  1  0
  4  3  1  0
  5  6  2  0
  5  9  1  0
  7 10  1  0
  7  8  2  0
 10 11  1  0
 11 12  1  1
 12 13  1  0
 13 14  1  0
 14 15  2  0
 16 11  1  0
 16 17  2  0
 18 14  1  0
 20 19  1  6
 20 21  1  0
 20 22  1  0
 22 23  1  1
 23 16  1  0
 24 25  1  0
 24 22  1  0
 26 24  2  0
M  END
$$$$
