EET.pdb
     RDKit          3D

 26 25  0  0  1  0  0  0  0  0999 V2000
   11.0434  -17.8934   21.6876 N   0  0  0  0  0  0  0  0  0  0  0  0
   10.1118  -16.9315   21.1415 C   0  0  1  0  0  0  0  0  0  0  0  0
    9.4864  -17.3824   19.8700 C   0  0  0  0  0  0  0  0  0  0  0  0
   10.2233  -18.5417   19.2694 C   0  0  0  0  0  0  0  0  0  0  0  0
    9.6457  -18.9891   18.0025 C   0  0  0  0  0  0  0  0  0  0  0  0
    8.9214  -20.0219   17.9682 O   0  0  0  0  0  0  0  0  0  0  0  0
    9.0963  -16.6096   22.1919 C   0  0  0  0  0  0  0  0  0  0  0  0
    8.0851  -15.9015   21.9284 O   0  0  0  0  0  0  0  0  0  0  0  0
    9.8672  -18.3032   16.7936 O   0  0  0  0  0  0  0  0  0  0  0  0
    9.2547  -17.0927   23.4917 N   0  0  0  0  0  0  0  0  0  0  0  0
    8.2536  -16.9551   24.5681 C   0  0  1  0  0  0  0  0  0  0  0  0
    8.5393  -18.0059   25.6138 C   0  0  0  0  0  0  0  0  0  0  0  0
    7.8416  -19.2759   25.2501 C   0  0  0  0  0  0  0  0  0  0  0  0
    8.0802  -20.3435   26.2777 C   0  0  0  0  0  0  0  0  0  0  0  0
    7.5698  -21.4594   26.1811 O   0  0  0  0  0  0  0  0  0  0  0  0
    8.4735  -15.6350   25.1485 C   0  0  0  0  0  0  0  0  0  0  0  0
    9.6198  -15.1252   25.1032 O   0  0  0  0  0  0  0  0  0  0  0  0
    8.8938  -20.0246   27.3338 O   0  0  0  0  0  0  0  0  0  0  0  0
    6.7171  -11.2681   26.3644 C   0  0  0  0  0  0  0  0  0  0  0  0
    6.4427  -12.6795   25.9233 C   0  0  1  0  0  0  0  0  0  0  0  0
    6.0594  -12.7394   24.5915 O   0  0  0  0  0  0  0  0  0  0  0  0
    7.7019  -13.5321   26.1623 C   0  0  2  0  0  0  0  0  0  0  0  0
    7.4414  -14.8973   25.7556 N   0  0  0  0  0  0  0  0  0  0  0  0
    8.0582  -13.4970   27.5780 C   0  0  0  0  0  0  0  0  0  0  0  0
    8.1161  -14.6482   28.3255 O   0  0  0  0  0  0  0  0  0  0  0  0
    8.3186  -12.3705   28.1237 O   0  0  0  0  0  0  0  0  0  0  0  0
  2  1  1  1
  2  7  1  0
  3  2  1  0
  4  5  1  0
  4  3  1  0
  5  6  2  0
  5  9  1  0
  7 10  1  0
  7  8  2  0
 10 11  1  0
 11 12  1  1
 12 13  1  0
 13 14  1  0
 14 15  2  0
 16 11  1  0
 16 17  2  0
 18 14  1  0
 20 19  1  6
 20 21  1  0
 20 22  1  0
 22 23  1  1
 23 16  1  0
 24 25  1  0
 24 22  1  0
 26 24  2  0
M  END
$$$$
