EET.pdb
     RDKit          3D

 26 25  0  0  1  0  0  0  0  0999 V2000
   10.2177  -15.9857   20.3015 N   0  0  0  0  0  0  0  0  0  0  0  0
    8.8655  -15.4743   20.3377 C   0  0  1  0  0  0  0  0  0  0  0  0
    7.9662  -16.1333   19.3538 C   0  0  0  0  0  0  0  0  0  0  0  0
    8.1193  -17.6246   19.3738 C   0  0  0  0  0  0  0  0  0  0  0  0
    7.2556  -18.2987   18.4050 C   0  0  0  0  0  0  0  0  0  0  0  0
    6.6729  -17.6313   17.5064 O   0  0  0  0  0  0  0  0  0  0  0  0
    8.3555  -15.5882   21.7396 C   0  0  0  0  0  0  0  0  0  0  0  0
    7.1575  -15.3104   22.0240 O   0  0  0  0  0  0  0  0  0  0  0  0
    7.0413  -19.6895   18.4318 O   0  0  0  0  0  0  0  0  0  0  0  0
    9.2065  -16.0076   22.7633 N   0  0  0  0  0  0  0  0  0  0  0  0
    8.7877  -16.2534   24.1576 C   0  0  1  0  0  0  0  0  0  0  0  0
    9.8122  -17.1538   24.8051 C   0  0  0  0  0  0  0  0  0  0  0  0
    9.3540  -18.5733   24.7217 C   0  0  0  0  0  0  0  0  0  0  0  0
   10.4187  -19.5193   25.1954 C   0  0  0  0  0  0  0  0  0  0  0  0
   10.6509  -19.6839   26.3929 O   0  0  0  0  0  0  0  0  0  0  0  0
    8.8154  -14.9518   24.8157 C   0  0  0  0  0  0  0  0  0  0  0  0
    9.7664  -14.1653   24.5859 O   0  0  0  0  0  0  0  0  0  0  0  0
   11.1259  -20.1963   24.2360 O   0  0  0  0  0  0  0  0  0  0  0  0
    6.6339  -11.8899   24.7637 C   0  0  0  0  0  0  0  0  0  0  0  0
    6.6545  -12.4345   26.1655 C   0  0  1  0  0  0  0  0  0  0  0  0
    5.5367  -13.2105   26.4349 O   0  0  0  0  0  0  0  0  0  0  0  0
    7.9424  -13.2539   26.3650 C   0  0  2  0  0  0  0  0  0  0  0  0
    7.8051  -14.5330   25.7001 N   0  0  0  0  0  0  0  0  0  0  0  0
    8.1780  -13.4604   27.7912 C   0  0  0  0  0  0  0  0  0  0  0  0
    8.3714  -12.3985   28.6411 O   0  0  0  0  0  0  0  0  0  0  0  0
    8.2039  -14.6541   28.2484 O   0  0  0  0  0  0  0  0  0  0  0  0
  2  1  1  1
  2  7  1  0
  3  2  1  0
  4  5  1  0
  4  3  1  0
  5  6  2  0
  5  9  1  0
  7 10  1  0
  7  8  2  0
 10 11  1  0
 11 12  1  1
 12 13  1  0
 13 14  1  0
 14 15  2  0
 16 11  1  0
 16 17  2  0
 18 14  1  0
 20 19  1  6
 20 21  1  0
 20 22  1  0
 22 23  1  6
 23 16  1  0
 24 25  1  0
 24 22  1  0
 26 24  2  0
M  END
$$$$
