EET.pdb
     RDKit          3D

 26 25  0  0  1  0  0  0  0  0999 V2000
   11.6322  -20.5349   18.5746 N   0  0  0  0  0  0  0  0  0  0  0  0
   12.3277  -20.0871   19.7608 C   0  0  1  0  0  0  0  0  0  0  0  0
   13.4385  -19.1440   19.4646 C   0  0  0  0  0  0  0  0  0  0  0  0
   13.2541  -18.4680   18.1391 C   0  0  0  0  0  0  0  0  0  0  0  0
   14.2943  -17.4802   17.8540 C   0  0  0  0  0  0  0  0  0  0  0  0
   15.3328  -17.8206   17.2231 O   0  0  0  0  0  0  0  0  0  0  0  0
   11.3236  -19.5046   20.7047 C   0  0  0  0  0  0  0  0  0  0  0  0
   10.1576  -19.2120   20.3200 O   0  0  0  0  0  0  0  0  0  0  0  0
   14.1852  -16.1375   18.2614 O   0  0  0  0  0  0  0  0  0  0  0  0
   11.6661  -19.2740   22.0380 N   0  0  0  0  0  0  0  0  0  0  0  0
   10.7146  -18.8745   23.0938 C   0  0  1  0  0  0  0  0  0  0  0  0
   11.3855  -19.0728   24.4317 C   0  0  0  0  0  0  0  0  0  0  0  0
   10.4527  -18.6633   25.5244 C   0  0  0  0  0  0  0  0  0  0  0  0
   11.0866  -18.8302   26.8746 C   0  0  0  0  0  0  0  0  0  0  0  0
   10.8499  -19.8082   27.5835 O   0  0  0  0  0  0  0  0  0  0  0  0
   10.4710  -17.4506   22.8907 C   0  0  0  0  0  0  0  0  0  0  0  0
   11.4266  -16.7013   22.5728 O   0  0  0  0  0  0  0  0  0  0  0  0
   11.9444  -17.8446   27.2890 O   0  0  0  0  0  0  0  0  0  0  0  0
    7.6446  -13.8464   21.4745 C   0  0  0  0  0  0  0  0  0  0  0  0
    8.0038  -15.3015   21.5996 C   0  0  1  0  0  0  0  0  0  0  0  0
    8.5108  -15.8124   20.4138 O   0  0  0  0  0  0  0  0  0  0  0  0
    9.0239  -15.4686   22.7403 C   0  0  2  0  0  0  0  0  0  0  0  0
    9.1942  -16.8774   23.0292 N   0  0  0  0  0  0  0  0  0  0  0  0
    8.5469  -14.7732   23.9325 C   0  0  0  0  0  0  0  0  0  0  0  0
    8.4866  -13.4016   23.9794 O   0  0  0  0  0  0  0  0  0  0  0  0
    8.1816  -15.4611   24.9464 O   0  0  0  0  0  0  0  0  0  0  0  0
  2  1  1  6
  2  7  1  0
  3  2  1  0
  4  5  1  0
  4  3  1  0
  5  6  2  0
  5  9  1  0
  7 10  1  0
  7  8  2  0
 10 11  1  0
 11 12  1  1
 12 13  1  0
 13 14  1  0
 14 15  2  0
 16 11  1  0
 16 17  2  0
 18 14  1  0
 20 19  1  6
 20 21  1  0
 20 22  1  0
 22 23  1  1
 23 16  1  0
 24 25  1  0
 24 22  1  0
 26 24  2  0
M  END
$$$$
