NKG.pdb
     RDKit          3D

 22 21  0  0  1  0  0  0  0  0999 V2000
   29.9577  -26.0938  -16.8490 N   0  0  0  0  0  0  0  0  0  0  0  0
   29.0503  -26.6305  -17.7964 C   0  0  0  0  0  0  0  0  0  0  0  0
   29.5274  -27.4356  -18.6373 O   0  0  0  0  0  0  0  0  0  0  0  0
   27.6081  -26.2767  -17.8162 C   0  0  0  0  0  0  0  0  0  0  0  0
   27.3090  -25.4162  -16.6341 C   0  0  2  0  0  0  0  0  0  0  0  0
   27.4142  -26.2317  -15.4451 N   0  0  0  0  0  0  0  0  0  0  0  0
   25.9392  -24.8279  -16.6893 C   0  0  0  0  0  0  0  0  0  0  0  0
   25.5873  -24.2762  -17.7524 O   0  0  0  0  0  0  0  0  0  0  0  0
   25.0503  -24.8755  -15.6005 N   0  0  0  0  0  0  0  0  0  0  0  0
   23.6857  -24.4095  -15.6276 C   0  0  1  0  0  0  0  0  0  0  0  0
   22.8383  -25.2344  -14.7184 C   0  0  0  0  0  0  0  0  0  0  0  0
   22.5200  -26.6080  -15.2595 C   0  0  0  0  0  0  0  0  0  0  0  0
   21.6195  -27.3694  -14.2898 C   0  0  0  0  0  0  0  0  0  0  0  0
   21.3587  -28.7712  -14.7333 C   0  0  0  0  0  0  0  0  0  0  0  0
   20.5779  -29.4078  -13.6643 N   0  0  0  0  0  0  0  0  0  0  0  0
   23.6706  -22.9543  -15.3790 C   0  0  0  0  0  0  0  0  0  0  0  0
   24.2934  -22.4081  -14.4155 O   0  0  0  0  0  0  0  0  0  0  0  0
   22.9534  -22.0110  -16.1944 N   0  0  0  0  0  0  0  0  0  0  0  0
   22.9992  -20.5967  -15.9529 C   0  0  0  0  0  0  0  0  0  0  0  0
   21.8863  -20.0920  -15.1592 C   0  0  0  0  0  0  0  0  0  0  0  0
   21.0081  -20.8673  -14.7261 O   0  0  0  0  0  0  0  0  0  0  0  0
   21.7842  -18.7469  -14.8726 O   0  0  0  0  0  0  0  0  0  0  0  0
  2  1  1  0
  3  2  2  0
  4  5  1  0
  4  2  1  0
  5  6  1  1
  7  9  1  0
  7  5  1  0
  8  7  2  0
 10  9  1  0
 10 11  1  1
 11 12  1  0
 12 13  1  0
 13 14  1  0
 14 15  1  0
 16 10  1  0
 17 16  2  0
 18 16  1  0
 19 18  1  0
 20 22  1  0
 20 19  1  0
 21 20  2  0
M  END
$$$$
