NKG.pdb
     RDKit          3D

 22 21  0  0  1  0  0  0  0  0999 V2000
   25.3283  -24.4688  -12.5080 N   0  0  0  0  0  0  0  0  0  0  0  0
   23.9932  -24.1340  -12.8463 C   0  0  0  0  0  0  0  0  0  0  0  0
   23.1573  -25.0741  -12.8293 O   0  0  0  0  0  0  0  0  0  0  0  0
   23.5781  -22.7541  -13.2053 C   0  0  0  0  0  0  0  0  0  0  0  0
   24.7906  -21.8853  -13.2520 C   0  0  2  0  0  0  0  0  0  0  0  0
   25.3475  -21.8168  -11.9197 N   0  0  0  0  0  0  0  0  0  0  0  0
   24.4819  -20.5000  -13.7115 C   0  0  0  0  0  0  0  0  0  0  0  0
   24.1587  -19.6603  -12.8461 O   0  0  0  0  0  0  0  0  0  0  0  0
   24.5431  -20.1196  -15.0641 N   0  0  0  0  0  0  0  0  0  0  0  0
   24.3209  -18.7825  -15.5568 C   0  0  1  0  0  0  0  0  0  0  0  0
   25.2060  -18.5070  -16.7254 C   0  0  0  0  0  0  0  0  0  0  0  0
   26.6801  -18.5967  -16.4094 C   0  0  0  0  0  0  0  0  0  0  0  0
   27.5114  -18.3958  -17.6742 C   0  0  0  0  0  0  0  0  0  0  0  0
   28.9758  -18.5492  -17.4256 C   0  0  0  0  0  0  0  0  0  0  0  0
   29.6476  -18.2502  -18.6971 N   0  0  0  0  0  0  0  0  0  0  0  0
   22.8749  -18.5888  -15.7836 C   0  0  0  0  0  0  0  0  0  0  0  0
   22.1145  -19.5014  -16.2348 O   0  0  0  0  0  0  0  0  0  0  0  0
   22.1822  -17.3559  -15.5208 N   0  0  0  0  0  0  0  0  0  0  0  0
   20.7703  -17.2082  -15.7334 C   0  0  0  0  0  0  0  0  0  0  0  0
   20.4225  -16.2613  -16.7851 C   0  0  0  0  0  0  0  0  0  0  0  0
   21.1688  -16.1037  -17.7741 O   0  0  0  0  0  0  0  0  0  0  0  0
   19.2611  -15.5221  -16.7053 O   0  0  0  0  0  0  0  0  0  0  0  0
  2  1  1  0
  3  2  2  0
  4  5  1  0
  4  2  1  0
  5  6  1  1
  7  9  1  0
  7  5  1  0
  8  7  2  0
 10  9  1  0
 10 11  1  6
 11 12  1  0
 12 13  1  0
 13 14  1  0
 14 15  1  0
 16 10  1  0
 17 16  2  0
 18 16  1  0
 19 18  1  0
 20 22  1  0
 20 19  1  0
 21 20  2  0
M  END
$$$$
