NKG.pdb
     RDKit          3D

 22 21  0  0  1  0  0  0  0  0999 V2000
   25.2929  -20.7391   -7.6460 N   0  0  0  0  0  0  0  0  0  0  0  0
   25.9587  -19.6681   -8.2930 C   0  0  0  0  0  0  0  0  0  0  0  0
   26.5407  -18.8373   -7.5487 O   0  0  0  0  0  0  0  0  0  0  0  0
   25.9825  -19.5129   -9.7698 C   0  0  0  0  0  0  0  0  0  0  0  0
   25.2029  -20.6285  -10.3819 C   0  0  2  0  0  0  0  0  0  0  0  0
   25.9539  -21.8515  -10.2082 N   0  0  0  0  0  0  0  0  0  0  0  0
   24.9595  -20.4214  -11.8391 C   0  0  0  0  0  0  0  0  0  0  0  0
   24.7093  -19.2613  -12.2263 O   0  0  0  0  0  0  0  0  0  0  0  0
   25.0027  -21.4738  -12.7711 N   0  0  0  0  0  0  0  0  0  0  0  0
   24.7708  -21.3325  -14.1876 C   0  0  1  0  0  0  0  0  0  0  0  0
   25.6537  -22.2601  -14.9524 C   0  0  0  0  0  0  0  0  0  0  0  0
   25.6042  -22.0560  -16.4480 C   0  0  0  0  0  0  0  0  0  0  0  0
   26.7916  -21.2162  -16.9127 C   0  0  0  0  0  0  0  0  0  0  0  0
   26.7458  -20.9227  -18.3760 C   0  0  0  0  0  0  0  0  0  0  0  0
   27.9441  -20.1292  -18.6794 N   0  0  0  0  0  0  0  0  0  0  0  0
   23.3234  -21.4561  -14.4514 C   0  0  0  0  0  0  0  0  0  0  0  0
   22.6389  -22.4695  -14.1065 O   0  0  0  0  0  0  0  0  0  0  0  0
   22.5440  -20.4505  -15.1225 N   0  0  0  0  0  0  0  0  0  0  0  0
   21.1582  -20.6413  -15.4444 C   0  0  0  0  0  0  0  0  0  0  0  0
   20.2486  -20.3854  -14.3350 C   0  0  0  0  0  0  0  0  0  0  0  0
   20.4313  -19.4142  -13.5712 O   0  0  0  0  0  0  0  0  0  0  0  0
   19.1689  -21.2131  -14.1097 O   0  0  0  0  0  0  0  0  0  0  0  0
  2  1  1  0
  3  2  2  0
  4  5  1  0
  4  2  1  0
  5  6  1  6
  7  9  1  0
  7  5  1  0
  8  7  2  0
 10  9  1  0
 10 11  1  6
 11 12  1  0
 12 13  1  0
 13 14  1  0
 14 15  1  0
 16 10  1  0
 17 16  2  0
 18 16  1  0
 19 18  1  0
 20 22  1  0
 20 19  1  0
 21 20  2  0
M  END
$$$$
