NKG.pdb
     RDKit          3D

 22 21  0  0  1  0  0  0  0  0999 V2000
   24.1439  -12.6279  -17.1331 N   0  0  0  0  0  0  0  0  0  0  0  0
   24.4031  -11.6680  -16.1230 C   0  0  0  0  0  0  0  0  0  0  0  0
   25.4133  -11.8715  -15.4012 O   0  0  0  0  0  0  0  0  0  0  0  0
   23.5428  -10.4768  -15.9081 C   0  0  0  0  0  0  0  0  0  0  0  0
   22.3378  -10.5916  -16.7809 C   0  0  2  0  0  0  0  0  0  0  0  0
   22.7756  -10.5714  -18.1585 N   0  0  0  0  0  0  0  0  0  0  0  0
   21.3730   -9.4733  -16.5708 C   0  0  0  0  0  0  0  0  0  0  0  0
   21.3727   -8.5433  -17.4036 O   0  0  0  0  0  0  0  0  0  0  0  0
   20.4815   -9.4365  -15.4837 N   0  0  0  0  0  0  0  0  0  0  0  0
   19.4459   -8.4501  -15.2980 C   0  0  1  0  0  0  0  0  0  0  0  0
   18.2088   -9.0913  -14.7656 C   0  0  0  0  0  0  0  0  0  0  0  0
   17.3228   -9.6886  -15.8330 C   0  0  0  0  0  0  0  0  0  0  0  0
   16.7626  -11.0322  -15.3729 C   0  0  0  0  0  0  0  0  0  0  0  0
   15.8576  -11.6511  -16.3867 C   0  0  0  0  0  0  0  0  0  0  0  0
   15.3250  -12.8766  -15.7767 N   0  0  0  0  0  0  0  0  0  0  0  0
   19.9864   -7.3314  -14.5004 C   0  0  0  0  0  0  0  0  0  0  0  0
   19.2565   -6.4211  -13.9973 O   0  0  0  0  0  0  0  0  0  0  0  0
   21.3850   -7.1561  -14.2135 N   0  0  0  0  0  0  0  0  0  0  0  0
   21.8724   -6.0804  -13.3975 C   0  0  0  0  0  0  0  0  0  0  0  0
   22.0593   -4.8261  -14.1154 C   0  0  0  0  0  0  0  0  0  0  0  0
   21.6361   -4.6898  -15.2826 O   0  0  0  0  0  0  0  0  0  0  0  0
   22.7078   -3.7667  -13.5164 O   0  0  0  0  0  0  0  0  0  0  0  0
  2  1  1  0
  3  2  2  0
  4  5  1  0
  4  2  1  0
  5  6  1  6
  7  9  1  0
  7  5  1  0
  8  7  2  0
 10  9  1  0
 10 11  1  1
 11 12  1  0
 12 13  1  0
 13 14  1  0
 14 15  1  0
 16 10  1  0
 17 16  2  0
 18 16  1  0
 19 18  1  0
 20 22  1  0
 20 19  1  0
 21 20  2  0
M  END
$$$$
