NKG.pdb
     RDKit          3D

 22 21  0  0  1  0  0  0  0  0999 V2000
   25.6953  -20.6618   -8.3907 N   0  0  0  0  0  0  0  0  0  0  0  0
   26.6137  -20.4456   -9.4484 C   0  0  0  0  0  0  0  0  0  0  0  0
   27.8308  -20.6158   -9.1786 O   0  0  0  0  0  0  0  0  0  0  0  0
   26.1869  -20.0391  -10.8114 C   0  0  0  0  0  0  0  0  0  0  0  0
   25.0298  -20.8863  -11.2244 C   0  0  2  0  0  0  0  0  0  0  0  0
   25.4444  -22.2703  -11.1753 N   0  0  0  0  0  0  0  0  0  0  0  0
   24.5618  -20.5775  -12.6068 C   0  0  0  0  0  0  0  0  0  0  0  0
   24.9964  -19.5399  -13.1481 O   0  0  0  0  0  0  0  0  0  0  0  0
   23.6631  -21.4043  -13.3044 N   0  0  0  0  0  0  0  0  0  0  0  0
   23.1902  -21.1635  -14.6454 C   0  0  1  0  0  0  0  0  0  0  0  0
   23.2041  -22.4290  -15.4349 C   0  0  0  0  0  0  0  0  0  0  0  0
   24.5848  -23.0061  -15.6392 C   0  0  0  0  0  0  0  0  0  0  0  0
   24.5016  -24.3500  -16.3588 C   0  0  0  0  0  0  0  0  0  0  0  0
   25.8420  -24.9802  -16.5487 C   0  0  0  0  0  0  0  0  0  0  0  0
   25.5977  -26.3234  -17.0907 N   0  0  0  0  0  0  0  0  0  0  0  0
   21.8939  -20.4601  -14.5780 C   0  0  0  0  0  0  0  0  0  0  0  0
   20.9763  -20.7726  -13.7564 O   0  0  0  0  0  0  0  0  0  0  0  0
   21.5369  -19.3574  -15.4298 N   0  0  0  0  0  0  0  0  0  0  0  0
   20.2920  -18.6555  -15.2960 C   0  0  0  0  0  0  0  0  0  0  0  0
   19.2042  -19.2166  -16.0869 C   0  0  0  0  0  0  0  0  0  0  0  0
   19.2645  -20.3889  -16.5137 O   0  0  0  0  0  0  0  0  0  0  0  0
   18.0880  -18.4609  -16.3776 O   0  0  0  0  0  0  0  0  0  0  0  0
  2  1  1  0
  3  2  2  0
  4  5  1  0
  4  2  1  0
  5  6  1  6
  7  9  1  0
  7  5  1  0
  8  7  2  0
 10  9  1  0
 10 11  1  1
 11 12  1  0
 12 13  1  0
 13 14  1  0
 14 15  1  0
 16 10  1  0
 17 16  2  0
 18 16  1  0
 19 18  1  0
 20 22  1  0
 20 19  1  0
 21 20  2  0
M  END
$$$$
