NKG.pdb
     RDKit          3D

 22 21  0  0  1  0  0  0  0  0999 V2000
   13.7965   -7.9594   -8.0900 N   0  0  0  0  0  0  0  0  0  0  0  0
   13.5349   -8.8872   -9.1291 C   0  0  0  0  0  0  0  0  0  0  0  0
   12.4488   -9.5182   -9.0580 O   0  0  0  0  0  0  0  0  0  0  0  0
   14.4771   -9.1201  -10.2530 C   0  0  0  0  0  0  0  0  0  0  0  0
   15.7110   -8.3138  -10.0196 C   0  0  2  0  0  0  0  0  0  0  0  0
   15.3420   -6.9160  -10.0164 N   0  0  0  0  0  0  0  0  0  0  0  0
   16.7428   -8.5321  -11.0746 C   0  0  0  0  0  0  0  0  0  0  0  0
   17.2230   -9.6789  -11.1878 O   0  0  0  0  0  0  0  0  0  0  0  0
   17.1819   -7.5046  -11.9286 N   0  0  0  0  0  0  0  0  0  0  0  0
   18.1413   -7.6688  -12.9928 C   0  0  1  0  0  0  0  0  0  0  0  0
   17.4708   -7.5414  -14.3192 C   0  0  0  0  0  0  0  0  0  0  0  0
   18.3691   -7.8606  -15.4906 C   0  0  0  0  0  0  0  0  0  0  0  0
   18.4944   -9.3713  -15.6725 C   0  0  0  0  0  0  0  0  0  0  0  0
   19.4136   -9.7378  -16.7907 C   0  0  0  0  0  0  0  0  0  0  0  0
   19.5354  -11.2014  -16.7671 N   0  0  0  0  0  0  0  0  0  0  0  0
   19.2803   -6.7596  -12.7564 C   0  0  0  0  0  0  0  0  0  0  0  0
   19.1409   -5.5612  -12.3577 O   0  0  0  0  0  0  0  0  0  0  0  0
   20.6555   -7.1326  -12.9529 N   0  0  0  0  0  0  0  0  0  0  0  0
   21.7361   -6.2055  -12.7699 C   0  0  0  0  0  0  0  0  0  0  0  0
   21.7604   -5.1202  -13.7420 C   0  0  0  0  0  0  0  0  0  0  0  0
   22.6146   -4.2123  -13.6634 O   0  0  0  0  0  0  0  0  0  0  0  0
   20.8388   -5.0777  -14.7669 O   0  0  0  0  0  0  0  0  0  0  0  0
  2  1  1  0
  3  2  2  0
  4  5  1  0
  4  2  1  0
  5  6  1  6
  7  9  1  0
  7  5  1  0
  8  7  2  0
 10  9  1  0
 10 11  1  6
 11 12  1  0
 12 13  1  0
 13 14  1  0
 14 15  1  0
 16 10  1  0
 17 16  2  0
 18 16  1  0
 19 18  1  0
 20 22  1  0
 20 19  1  0
 21 20  2  0
M  END
$$$$
