NKG.pdb
     RDKit          3D

 22 21  0  0  1  0  0  0  0  0999 V2000
   23.9723  -18.6546  -15.1989 N   0  0  0  0  0  0  0  0  0  0  0  0
   23.9890  -20.0114  -15.6083 C   0  0  0  0  0  0  0  0  0  0  0  0
   24.9184  -20.3521  -16.3849 O   0  0  0  0  0  0  0  0  0  0  0  0
   22.9746  -20.9981  -15.1581 C   0  0  0  0  0  0  0  0  0  0  0  0
   22.0199  -20.3173  -14.2349 C   0  0  2  0  0  0  0  0  0  0  0  0
   22.7406  -19.9391  -13.0401 N   0  0  0  0  0  0  0  0  0  0  0  0
   20.8789  -21.1959  -13.8454 C   0  0  0  0  0  0  0  0  0  0  0  0
   20.1707  -21.6663  -14.7596 O   0  0  0  0  0  0  0  0  0  0  0  0
   20.5834  -21.5038  -12.5054 N   0  0  0  0  0  0  0  0  0  0  0  0
   19.4960  -22.3463  -12.0721 C   0  0  1  0  0  0  0  0  0  0  0  0
   19.7322  -22.8215  -10.6780 C   0  0  0  0  0  0  0  0  0  0  0  0
   18.6712  -23.7671  -10.1671 C   0  0  0  0  0  0  0  0  0  0  0  0
   18.9264  -24.1168   -8.7031 C   0  0  0  0  0  0  0  0  0  0  0  0
   17.7950  -24.8753   -8.0913 C   0  0  0  0  0  0  0  0  0  0  0  0
   18.1286  -25.0474   -6.6712 N   0  0  0  0  0  0  0  0  0  0  0  0
   18.2202  -21.6408  -12.3051 C   0  0  0  0  0  0  0  0  0  0  0  0
   18.0175  -20.4375  -11.9509 O   0  0  0  0  0  0  0  0  0  0  0  0
   17.0821  -22.2382  -12.9509 N   0  0  0  0  0  0  0  0  0  0  0  0
   15.8343  -21.5453  -13.1030 C   0  0  0  0  0  0  0  0  0  0  0  0
   14.7849  -22.3392  -13.7291 C   0  0  0  0  0  0  0  0  0  0  0  0
   15.0242  -23.4869  -14.1599 O   0  0  0  0  0  0  0  0  0  0  0  0
   13.5076  -21.8353  -13.8566 O   0  0  0  0  0  0  0  0  0  0  0  0
  2  1  1  0
  3  2  2  0
  4  5  1  0
  4  2  1  0
  5  6  1  1
  7  9  1  0
  7  5  1  0
  8  7  2  0
 10  9  1  0
 10 11  1  1
 11 12  1  0
 12 13  1  0
 13 14  1  0
 14 15  1  0
 16 10  1  0
 17 16  2  0
 18 16  1  0
 19 18  1  0
 20 22  1  0
 20 19  1  0
 21 20  2  0
M  END
$$$$
