NKG.pdb
     RDKit          3D

 22 21  0  0  1  0  0  0  0  0999 V2000
   15.3951  -11.9539  -16.4450 N   0  0  0  0  0  0  0  0  0  0  0  0
   15.6670  -11.1679  -15.2973 C   0  0  0  0  0  0  0  0  0  0  0  0
   14.6731  -10.8090  -14.6144 O   0  0  0  0  0  0  0  0  0  0  0  0
   17.0433  -10.7756  -14.9009 C   0  0  0  0  0  0  0  0  0  0  0  0
   17.9955  -11.2368  -15.9534 C   0  0  2  0  0  0  0  0  0  0  0  0
   18.2161  -12.6539  -15.7719 N   0  0  0  0  0  0  0  0  0  0  0  0
   19.3104  -10.5361  -15.8791 C   0  0  0  0  0  0  0  0  0  0  0  0
   20.2565  -11.1352  -15.3272 O   0  0  0  0  0  0  0  0  0  0  0  0
   19.5118   -9.2462  -16.4020 N   0  0  0  0  0  0  0  0  0  0  0  0
   20.7868   -8.5768  -16.4809 C   0  0  1  0  0  0  0  0  0  0  0  0
   21.0078   -8.0434  -17.8563 C   0  0  0  0  0  0  0  0  0  0  0  0
   22.3387   -7.3526  -18.0367 C   0  0  0  0  0  0  0  0  0  0  0  0
   22.4610   -6.7879  -19.4499 C   0  0  0  0  0  0  0  0  0  0  0  0
   23.8153   -6.2217  -19.7235 C   0  0  0  0  0  0  0  0  0  0  0  0
   23.8287   -5.8412  -21.1422 N   0  0  0  0  0  0  0  0  0  0  0  0
   20.8803   -7.5920  -15.3849 C   0  0  0  0  0  0  0  0  0  0  0  0
   19.9635   -6.7508  -15.1272 O   0  0  0  0  0  0  0  0  0  0  0  0
   22.0111   -7.4823  -14.5026 N   0  0  0  0  0  0  0  0  0  0  0  0
   22.0676   -6.5147  -13.4438 C   0  0  0  0  0  0  0  0  0  0  0  0
   22.3097   -5.1507  -13.8961 C   0  0  0  0  0  0  0  0  0  0  0  0
   22.4231   -4.8927  -15.1128 O   0  0  0  0  0  0  0  0  0  0  0  0
   22.4178   -4.1203  -12.9860 O   0  0  0  0  0  0  0  0  0  0  0  0
  2  1  1  0
  3  2  2  0
  4  5  1  0
  4  2  1  0
  5  6  1  1
  7  9  1  0
  7  5  1  0
  8  7  2  0
 10  9  1  0
 10 11  1  6
 11 12  1  0
 12 13  1  0
 13 14  1  0
 14 15  1  0
 16 10  1  0
 17 16  2  0
 18 16  1  0
 19 18  1  0
 20 22  1  0
 20 19  1  0
 21 20  2  0
M  END
$$$$
