NKG.pdb
     RDKit          3D

 22 21  0  0  1  0  0  0  0  0999 V2000
   18.9441  -18.0257  -14.2123 N   0  0  0  0  0  0  0  0  0  0  0  0
   20.0518  -17.4968  -13.5036 C   0  0  0  0  0  0  0  0  0  0  0  0
   20.5053  -18.2006  -12.5645 O   0  0  0  0  0  0  0  0  0  0  0  0
   20.6626  -16.1838  -13.8329 C   0  0  0  0  0  0  0  0  0  0  0  0
   19.8139  -15.5026  -14.8540 C   0  0  2  0  0  0  0  0  0  0  0  0
   19.8314  -16.3004  -16.0594 N   0  0  0  0  0  0  0  0  0  0  0  0
   20.3054  -14.1327  -15.1817 C   0  0  0  0  0  0  0  0  0  0  0  0
   20.7622  -13.4415  -14.2479 O   0  0  0  0  0  0  0  0  0  0  0  0
   20.2701  -13.6074  -16.4859 N   0  0  0  0  0  0  0  0  0  0  0  0
   20.8510  -12.3492  -16.8853 C   0  0  1  0  0  0  0  0  0  0  0  0
   21.0431  -12.3134  -18.3641 C   0  0  0  0  0  0  0  0  0  0  0  0
   22.4910  -12.3421  -18.7927 C   0  0  0  0  0  0  0  0  0  0  0  0
   22.9164  -13.7654  -19.1451 C   0  0  0  0  0  0  0  0  0  0  0  0
   24.3669  -13.8600  -19.4868 C   0  0  0  0  0  0  0  0  0  0  0  0
   24.6482  -15.2829  -19.7185 N   0  0  0  0  0  0  0  0  0  0  0  0
   20.0514  -11.2482  -16.3123 C   0  0  0  0  0  0  0  0  0  0  0  0
   18.7840  -11.1983  -16.3878 O   0  0  0  0  0  0  0  0  0  0  0  0
   20.6199  -10.1254  -15.6158 N   0  0  0  0  0  0  0  0  0  0  0  0
   19.8188   -9.0382  -15.1292 C   0  0  0  0  0  0  0  0  0  0  0  0
   20.5769   -8.0024  -14.4394 C   0  0  0  0  0  0  0  0  0  0  0  0
   21.8135   -8.1049  -14.2966 O   0  0  0  0  0  0  0  0  0  0  0  0
   19.9400   -6.8895  -13.9319 O   0  0  0  0  0  0  0  0  0  0  0  0
  2  1  1  0
  3  2  2  0
  4  5  1  0
  4  2  1  0
  5  6  1  6
  7  9  1  0
  7  5  1  0
  8  7  2  0
 10  9  1  0
 10 11  1  6
 11 12  1  0
 12 13  1  0
 13 14  1  0
 14 15  1  0
 16 10  1  0
 17 16  2  0
 18 16  1  0
 19 18  1  0
 20 22  1  0
 20 19  1  0
 21 20  2  0
M  END
$$$$
