NKG.pdb
     RDKit          3D

 22 21  0  0  1  0  0  0  0  0999 V2000
   15.7637  -21.4653    2.5343 N   0  0  0  0  0  0  0  0  0  0  0  0
   15.7675  -20.2348    3.2377 C   0  0  0  0  0  0  0  0  0  0  0  0
   14.9706  -20.1395    4.2066 O   0  0  0  0  0  0  0  0  0  0  0  0
   16.6557  -19.1029    2.8699 C   0  0  0  0  0  0  0  0  0  0  0  0
   16.4053  -17.9715    3.8104 C   0  0  2  0  0  0  0  0  0  0  0  0
   15.6107  -16.9799    3.1211 N   0  0  0  0  0  0  0  0  0  0  0  0
   17.6679  -17.3294    4.2787 C   0  0  0  0  0  0  0  0  0  0  0  0
   18.6022  -17.2204    3.4579 O   0  0  0  0  0  0  0  0  0  0  0  0
   17.8333  -16.8527    5.5914 N   0  0  0  0  0  0  0  0  0  0  0  0
   19.0457  -16.2703    6.1118 C   0  0  1  0  0  0  0  0  0  0  0  0
   18.8496  -14.8154    6.3766 C   0  0  0  0  0  0  0  0  0  0  0  0
   20.1026  -14.1024    6.8266 C   0  0  0  0  0  0  0  0  0  0  0  0
   19.8325  -12.6110    7.0103 C   0  0  0  0  0  0  0  0  0  0  0  0
   21.0361  -11.8670    7.4871 C   0  0  0  0  0  0  0  0  0  0  0  0
   20.6104  -10.4769    7.6972 N   0  0  0  0  0  0  0  0  0  0  0  0
   19.5122  -17.0767    7.2572 C   0  0  0  0  0  0  0  0  0  0  0  0
   18.7586  -17.4101    8.2244 O   0  0  0  0  0  0  0  0  0  0  0  0
   20.8584  -17.5637    7.3969 N   0  0  0  0  0  0  0  0  0  0  0  0
   21.2611  -18.4050    8.4881 C   0  0  0  0  0  0  0  0  0  0  0  0
   21.7964  -17.6796    9.6329 C   0  0  0  0  0  0  0  0  0  0  0  0
   21.8096  -16.4307    9.6476 O   0  0  0  0  0  0  0  0  0  0  0  0
   22.2983  -18.3616   10.7214 O   0  0  0  0  0  0  0  0  0  0  0  0
  2  1  1  0
  3  2  2  0
  4  5  1  0
  4  2  1  0
  5  6  1  6
  7  9  1  0
  7  5  1  0
  8  7  2  0
 10  9  1  0
 10 11  1  1
 11 12  1  0
 12 13  1  0
 13 14  1  0
 14 15  1  0
 16 10  1  0
 17 16  2  0
 18 16  1  0
 19 18  1  0
 20 22  1  0
 20 19  1  0
 21 20  2  0
M  END
$$$$
