NKG.pdb
     RDKit          3D

 22 21  0  0  1  0  0  0  0  0999 V2000
   36.9328   -9.8041   -7.8890 N   0  0  0  0  0  0  0  0  0  0  0  0
   37.2607   -8.8680   -6.8765 C   0  0  0  0  0  0  0  0  0  0  0  0
   36.4018   -7.9819   -6.6317 O   0  0  0  0  0  0  0  0  0  0  0  0
   38.5438   -8.9098   -6.1300 C   0  0  0  0  0  0  0  0  0  0  0  0
   39.4009   -9.9855   -6.7091 C   0  0  2  0  0  0  0  0  0  0  0  0
   38.7477  -11.2546   -6.4800 N   0  0  0  0  0  0  0  0  0  0  0  0
   40.7575  -10.0288   -6.0899 C   0  0  0  0  0  0  0  0  0  0  0  0
   40.8471   -9.7745   -4.8710 O   0  0  0  0  0  0  0  0  0  0  0  0
   41.9154  -10.3414   -6.8243 N   0  0  0  0  0  0  0  0  0  0  0  0
   43.2486  -10.4026   -6.2776 C   0  0  1  0  0  0  0  0  0  0  0  0
   43.9794  -11.5824   -6.8245 C   0  0  0  0  0  0  0  0  0  0  0  0
   45.3853  -11.7300   -6.2928 C   0  0  0  0  0  0  0  0  0  0  0  0
   46.0453  -12.9816   -6.8664 C   0  0  0  0  0  0  0  0  0  0  0  0
   47.4540  -13.1490   -6.4004 C   0  0  0  0  0  0  0  0  0  0  0  0
   47.9729  -14.3511   -7.0663 N   0  0  0  0  0  0  0  0  0  0  0  0
   43.9050   -9.0937   -6.4663 C   0  0  0  0  0  0  0  0  0  0  0  0
   44.1971   -8.6218   -7.6094 O   0  0  0  0  0  0  0  0  0  0  0  0
   44.2807   -8.2239   -5.3840 N   0  0  0  0  0  0  0  0  0  0  0  0
   45.1071   -7.0667   -5.5805 C   0  0  0  0  0  0  0  0  0  0  0  0
   44.3741   -5.8727   -5.9808 C   0  0  0  0  0  0  0  0  0  0  0  0
   44.9348   -4.7568   -6.0018 O   0  0  0  0  0  0  0  0  0  0  0  0
   43.0463   -5.9553   -6.3438 O   0  0  0  0  0  0  0  0  0  0  0  0
  2  1  1  0
  3  2  2  0
  4  5  1  0
  4  2  1  0
  5  6  1  1
  7  9  1  0
  7  5  1  0
  8  7  2  0
 10  9  1  0
 10 11  1  6
 11 12  1  0
 12 13  1  0
 13 14  1  0
 14 15  1  0
 16 10  1  0
 17 16  2  0
 18 16  1  0
 19 18  1  0
 20 22  1  0
 20 19  1  0
 21 20  2  0
M  END
$$$$
