NKG.pdb
     RDKit          3D

 22 21  0  0  1  0  0  0  0  0999 V2000
   23.8106  -12.5119  -19.7102 N   0  0  0  0  0  0  0  0  0  0  0  0
   22.9238  -12.3009  -18.6248 C   0  0  0  0  0  0  0  0  0  0  0  0
   22.5158  -13.3290  -18.0252 O   0  0  0  0  0  0  0  0  0  0  0  0
   22.4847  -10.9479  -18.1985 C   0  0  0  0  0  0  0  0  0  0  0  0
   21.0550  -11.0183  -17.7765 C   0  0  2  0  0  0  0  0  0  0  0  0
   20.2526  -11.2935  -18.9470 N   0  0  0  0  0  0  0  0  0  0  0  0
   20.5791   -9.7457  -17.1606 C   0  0  0  0  0  0  0  0  0  0  0  0
   20.6557   -8.7053  -17.8463 O   0  0  0  0  0  0  0  0  0  0  0  0
   20.0570   -9.6846  -15.8561 N   0  0  0  0  0  0  0  0  0  0  0  0
   19.4552   -8.5166  -15.2614 C   0  0  1  0  0  0  0  0  0  0  0  0
   18.1571   -8.8729  -14.6186 C   0  0  0  0  0  0  0  0  0  0  0  0
   17.0684   -9.2347  -15.6008 C   0  0  0  0  0  0  0  0  0  0  0  0
   15.7465   -9.4658  -14.8728 C   0  0  0  0  0  0  0  0  0  0  0  0
   14.6775   -9.9806  -15.7794 C   0  0  0  0  0  0  0  0  0  0  0  0
   13.4704  -10.1318  -14.9562 N   0  0  0  0  0  0  0  0  0  0  0  0
   20.4471   -7.8575  -14.3887 C   0  0  0  0  0  0  0  0  0  0  0  0
   21.0482   -8.4578  -13.4439 O   0  0  0  0  0  0  0  0  0  0  0  0
   20.8319   -6.4773  -14.5155 N   0  0  0  0  0  0  0  0  0  0  0  0
   21.7968   -5.8663  -13.6459 C   0  0  0  0  0  0  0  0  0  0  0  0
   22.0359   -4.4552  -13.9198 C   0  0  0  0  0  0  0  0  0  0  0  0
   21.4969   -3.8948  -14.8973 O   0  0  0  0  0  0  0  0  0  0  0  0
   22.8628   -3.7138  -13.1025 O   0  0  0  0  0  0  0  0  0  0  0  0
  2  1  1  0
  3  2  2  0
  4  5  1  0
  4  2  1  0
  5  6  1  6
  7  9  1  0
  7  5  1  0
  8  7  2  0
 10  9  1  0
 10 11  1  1
 11 12  1  0
 12 13  1  0
 13 14  1  0
 14 15  1  0
 16 10  1  0
 17 16  2  0
 18 16  1  0
 19 18  1  0
 20 22  1  0
 20 19  1  0
 21 20  2  0
M  END
$$$$
