NKG.pdb
     RDKit          3D

 22 21  0  0  1  0  0  0  0  0999 V2000
   20.9913   -9.6083  -22.3446 N   0  0  0  0  0  0  0  0  0  0  0  0
   21.4413   -8.3492  -21.8744 C   0  0  0  0  0  0  0  0  0  0  0  0
   22.3409   -7.7864  -22.5504 O   0  0  0  0  0  0  0  0  0  0  0  0
   20.8958   -7.7075  -20.6514 C   0  0  0  0  0  0  0  0  0  0  0  0
   19.9382   -8.6498  -20.0016 C   0  0  2  0  0  0  0  0  0  0  0  0
   18.6739   -8.5578  -20.6964 N   0  0  0  0  0  0  0  0  0  0  0  0
   19.7148   -8.3324  -18.5611 C   0  0  0  0  0  0  0  0  0  0  0  0
   19.0504   -7.3114  -18.2884 O   0  0  0  0  0  0  0  0  0  0  0  0
   20.2208   -9.1337  -17.5220 N   0  0  0  0  0  0  0  0  0  0  0  0
   19.9650   -8.9240  -16.1181 C   0  0  1  0  0  0  0  0  0  0  0  0
   19.6223  -10.2155  -15.4552 C   0  0  0  0  0  0  0  0  0  0  0  0
   18.2271  -10.7069  -15.7600 C   0  0  0  0  0  0  0  0  0  0  0  0
   17.9021  -11.9445  -14.9270 C   0  0  0  0  0  0  0  0  0  0  0  0
   16.5803  -12.5413  -15.2826 C   0  0  0  0  0  0  0  0  0  0  0  0
   16.3633  -13.6571  -14.3522 N   0  0  0  0  0  0  0  0  0  0  0  0
   21.0956   -8.1780  -15.5307 C   0  0  0  0  0  0  0  0  0  0  0  0
   22.3116   -8.4559  -15.7732 O   0  0  0  0  0  0  0  0  0  0  0  0
   20.9394   -7.0687  -14.6285 N   0  0  0  0  0  0  0  0  0  0  0  0
   22.0603   -6.3375  -14.1094 C   0  0  0  0  0  0  0  0  0  0  0  0
   21.6953   -5.1511  -13.3461 C   0  0  0  0  0  0  0  0  0  0  0  0
   20.5025   -4.7911  -13.2580 O   0  0  0  0  0  0  0  0  0  0  0  0
   22.6628   -4.4048  -12.7070 O   0  0  0  0  0  0  0  0  0  0  0  0
  2  1  1  0
  3  2  2  0
  4  5  1  0
  4  2  1  0
  5  6  1  6
  7  9  1  0
  7  5  1  0
  8  7  2  0
 10  9  1  0
 10 11  1  1
 11 12  1  0
 12 13  1  0
 13 14  1  0
 14 15  1  0
 16 10  1  0
 17 16  2  0
 18 16  1  0
 19 18  1  0
 20 22  1  0
 20 19  1  0
 21 20  2  0
M  END
$$$$
