INH.pdb
     RDKit          3D

 27 27  0  0  1  0  0  0  0  0999 V2000
   27.4665  -15.7309  -21.3068 C   0  0  0  0  0  0  0  0  0  0  0  0
   28.5584  -14.9894  -20.6170 C   0  0  0  0  0  0  0  0  0  0  0  0
   28.5139  -13.5109  -20.8814 C   0  0  2  0  0  0  0  0  0  0  0  0
   28.3965  -13.2513  -22.3782 C   0  0  0  0  0  0  0  0  0  0  0  0
   29.6837  -12.7734  -20.3005 C   0  0  2  0  0  0  0  0  0  0  0  0
   29.7934  -13.2857  -18.9077 N   0  0  0  0  0  0  0  0  0  0  0  0
   29.4980  -11.3171  -20.1583 C   0  0  0  0  0  0  0  0  0  0  0  0
   29.5151  -10.5340  -21.1784 O   0  0  0  0  0  0  0  0  0  0  0  0
   25.8399   -8.3818  -19.2841 N   0  0  0  0  0  0  0  0  0  0  0  0
   26.5729   -9.3739  -18.5047 C   0  0  0  0  0  0  0  0  0  0  0  0
   25.9975  -10.4723  -18.3455 O   0  0  0  0  0  0  0  0  0  0  0  0
   27.8727   -9.0637  -17.9729 C   0  0  0  0  0  0  0  0  0  0  0  0
   29.0455   -9.1580  -18.8856 C   0  0  2  0  0  0  0  0  0  0  0  0
   29.2875  -10.6499  -18.9387 N   0  0  0  0  0  0  0  0  0  0  0  0
   30.2886   -8.5307  -18.4173 C   0  0  0  0  0  0  0  0  0  0  0  0
   30.3644   -8.2866  -17.1596 O   0  0  0  0  0  0  0  0  0  0  0  0
   31.4236   -8.1603  -19.1569 N   0  0  0  0  0  0  0  0  0  0  0  0
   32.5739   -7.4605  -18.5722 C   0  0  1  0  0  0  0  0  0  0  0  0
   33.8582   -8.0954  -18.9950 C   0  0  0  0  0  0  0  0  0  0  0  0
   34.0937   -9.3775  -18.3035 C   0  0  0  0  0  0  0  0  0  0  0  0
   33.2408   -9.9454  -17.3599 C   0  0  0  0  0  0  0  0  0  0  0  0
   33.8094  -11.1080  -16.9297 N   0  0  0  0  0  0  0  0  0  0  0  0
   34.9682  -11.2703  -17.5694 C   0  0  0  0  0  0  0  0  0  0  0  0
   35.1419  -10.2343  -18.3941 N   0  0  0  0  0  0  0  0  0  0  0  0
   32.5647   -6.0388  -18.8779 C   0  0  0  0  0  0  0  0  0  0  0  0
   33.4812   -5.3094  -18.3593 O   0  0  0  0  0  0  0  0  0  0  0  0
   31.6558   -5.4078  -19.6801 O   0  0  0  0  0  0  0  0  0  0  0  0
  2  1  1  0
  2  3  1  0
  3  4  1  6
  5  3  1  0
  5  6  1  1
  7  5  1  0
  8  7  2  0
 10 11  2  0
 10  9  1  0
 12 10  1  0
 13 12  1  1
 13 14  1  0
 14  7  1  0
 15 16  2  0
 15 13  1  0
 17 15  1  0
 18 25  1  0
 18 17  1  0
 18 19  1  6
 20 21  2  0
 20 19  1  0
 22 21  1  0
 23 24  2  0
 23 22  1  0
 24 20  1  0
 25 27  1  0
 26 25  2  0
M  END
$$$$
