INH.pdb
     RDKit          3D

 27 27  0  0  1  0  0  0  0  0999 V2000
   17.5725  -17.1772  -17.6107 C   0  0  0  0  0  0  0  0  0  0  0  0
   18.2575  -16.0546  -16.9118 C   0  0  0  0  0  0  0  0  0  0  0  0
   18.7325  -14.9861  -17.8555 C   0  0  2  0  0  0  0  0  0  0  0  0
   19.7756  -15.5568  -18.8082 C   0  0  0  0  0  0  0  0  0  0  0  0
   19.2585  -13.7705  -17.1518 C   0  0  2  0  0  0  0  0  0  0  0  0
   19.4178  -14.1987  -15.7357 N   0  0  0  0  0  0  0  0  0  0  0  0
   18.3309  -12.6248  -17.1024 C   0  0  0  0  0  0  0  0  0  0  0  0
   18.0802  -11.9166  -18.1463 O   0  0  0  0  0  0  0  0  0  0  0  0
   14.6841   -9.0487  -15.4754 N   0  0  0  0  0  0  0  0  0  0  0  0
   14.5314  -10.4231  -15.0099 C   0  0  0  0  0  0  0  0  0  0  0  0
   13.4402  -10.6930  -14.4628 O   0  0  0  0  0  0  0  0  0  0  0  0
   15.5957  -11.3735  -15.1908 C   0  0  0  0  0  0  0  0  0  0  0  0
   16.7976  -10.9439  -15.9580 C   0  0  2  0  0  0  0  0  0  0  0  0
   17.6426  -12.1981  -15.9530 N   0  0  0  0  0  0  0  0  0  0  0  0
   17.6044   -9.8719  -15.3596 C   0  0  0  0  0  0  0  0  0  0  0  0
   18.6311  -10.2414  -14.6841 O   0  0  0  0  0  0  0  0  0  0  0  0
   17.4144   -8.4819  -15.4265 N   0  0  0  0  0  0  0  0  0  0  0  0
   18.4080   -7.5089  -14.9564 C   0  0  1  0  0  0  0  0  0  0  0  0
   19.7441   -7.7684  -15.5716 C   0  0  0  0  0  0  0  0  0  0  0  0
   20.7526   -6.7829  -15.1364 C   0  0  0  0  0  0  0  0  0  0  0  0
   20.9585   -6.3780  -13.8197 C   0  0  0  0  0  0  0  0  0  0  0  0
   21.9498   -5.4413  -13.8213 N   0  0  0  0  0  0  0  0  0  0  0  0
   22.3538   -5.2600  -15.0792 C   0  0  0  0  0  0  0  0  0  0  0  0
   21.6379   -6.0630  -15.8706 N   0  0  0  0  0  0  0  0  0  0  0  0
   17.9823   -6.1369  -15.1832 C   0  0  0  0  0  0  0  0  0  0  0  0
   17.3541   -5.8770  -16.2688 O   0  0  0  0  0  0  0  0  0  0  0  0
   18.1945   -5.0913  -14.3290 O   0  0  0  0  0  0  0  0  0  0  0  0
  2  1  1  0
  2  3  1  0
  3  4  1  1
  5  3  1  0
  5  6  1  1
  7  5  1  0
  8  7  2  0
 10 11  2  0
 10  9  1  0
 12 10  1  0
 13 12  1  1
 13 14  1  0
 14  7  1  0
 15 16  2  0
 15 13  1  0
 17 15  1  0
 18 25  1  0
 18 17  1  0
 18 19  1  6
 20 21  2  0
 20 19  1  0
 22 21  1  0
 23 24  2  0
 23 22  1  0
 24 20  1  0
 25 27  1  0
 26 25  2  0
M  END
$$$$
