INH.pdb
     RDKit          3D

 27 27  0  0  1  0  0  0  0  0999 V2000
   18.0170  -16.7800  -18.3936 C   0  0  0  0  0  0  0  0  0  0  0  0
   18.6444  -15.8582  -17.4065 C   0  0  0  0  0  0  0  0  0  0  0  0
   18.6096  -14.4224  -17.8485 C   0  0  2  0  0  0  0  0  0  0  0  0
   19.3062  -14.2736  -19.1954 C   0  0  0  0  0  0  0  0  0  0  0  0
   19.1928  -13.4807  -16.8373 C   0  0  2  0  0  0  0  0  0  0  0  0
   18.3856  -13.7065  -15.6079 N   0  0  0  0  0  0  0  0  0  0  0  0
   19.0259  -12.0481  -17.1462 C   0  0  0  0  0  0  0  0  0  0  0  0
   19.6678  -11.4884  -18.1099 O   0  0  0  0  0  0  0  0  0  0  0  0
   17.0684   -7.0405  -17.2239 N   0  0  0  0  0  0  0  0  0  0  0  0
   16.1678   -8.0701  -16.7161 C   0  0  0  0  0  0  0  0  0  0  0  0
   14.9961   -7.7006  -16.4849 O   0  0  0  0  0  0  0  0  0  0  0  0
   16.6419   -9.4123  -16.5102 C   0  0  0  0  0  0  0  0  0  0  0  0
   18.0655   -9.7107  -16.8295 C   0  0  2  0  0  0  0  0  0  0  0  0
   18.1771  -11.1701  -16.4492 N   0  0  0  0  0  0  0  0  0  0  0  0
   19.0753   -8.9790  -16.0528 C   0  0  0  0  0  0  0  0  0  0  0  0
   18.9975   -9.0839  -14.7761 O   0  0  0  0  0  0  0  0  0  0  0  0
   20.1312   -8.1754  -16.5129 N   0  0  0  0  0  0  0  0  0  0  0  0
   21.0173   -7.4193  -15.6197 C   0  0  1  0  0  0  0  0  0  0  0  0
   22.4522   -7.6857  -15.9379 C   0  0  0  0  0  0  0  0  0  0  0  0
   22.8742   -9.0301  -15.4997 C   0  0  0  0  0  0  0  0  0  0  0  0
   22.1182   -9.8843  -14.7003 C   0  0  0  0  0  0  0  0  0  0  0  0
   22.8508  -11.0150  -14.4887 N   0  0  0  0  0  0  0  0  0  0  0  0
   24.0164  -10.8848  -15.1232 C   0  0  0  0  0  0  0  0  0  0  0  0
   24.0339   -9.6955  -15.7306 N   0  0  0  0  0  0  0  0  0  0  0  0
   20.7303   -5.9938  -15.6397 C   0  0  0  0  0  0  0  0  0  0  0  0
   21.4222   -5.2334  -14.8757 O   0  0  0  0  0  0  0  0  0  0  0  0
   19.7788   -5.3891  -16.4123 O   0  0  0  0  0  0  0  0  0  0  0  0
  2  1  1  0
  2  3  1  0
  3  4  1  6
  5  3  1  0
  5  6  1  1
  7  5  1  0
  8  7  2  0
 10 11  2  0
 10  9  1  0
 12 10  1  0
 13 12  1  1
 13 14  1  0
 14  7  1  0
 15 16  2  0
 15 13  1  0
 17 15  1  0
 18 25  1  0
 18 17  1  0
 18 19  1  6
 20 21  2  0
 20 19  1  0
 22 21  1  0
 23 24  2  0
 23 22  1  0
 24 20  1  0
 25 27  1  0
 26 25  2  0
M  END
$$$$
