INH.pdb
     RDKit          3D

 27 27  0  0  1  0  0  0  0  0999 V2000
   28.3552  -16.5978  -15.9251 C   0  0  0  0  0  0  0  0  0  0  0  0
   27.5244  -17.7931  -15.6106 C   0  0  0  0  0  0  0  0  0  0  0  0
   26.0750  -17.6007  -15.9570 C   0  0  2  0  0  0  0  0  0  0  0  0
   25.5376  -16.3471  -15.2776 C   0  0  0  0  0  0  0  0  0  0  0  0
   25.2274  -18.7933  -15.6270 C   0  0  2  0  0  0  0  0  0  0  0  0
   25.8909  -19.9274  -16.3255 N   0  0  0  0  0  0  0  0  0  0  0  0
   23.8573  -18.7581  -16.1719 C   0  0  0  0  0  0  0  0  0  0  0  0
   23.6220  -18.9832  -17.4161 O   0  0  0  0  0  0  0  0  0  0  0  0
   22.2566  -19.2650  -13.5246 N   0  0  0  0  0  0  0  0  0  0  0  0
   20.9773  -19.7292  -14.0507 C   0  0  0  0  0  0  0  0  0  0  0  0
   20.3601  -20.5469  -13.3343 O   0  0  0  0  0  0  0  0  0  0  0  0
   20.4961  -19.2488  -15.3181 C   0  0  0  0  0  0  0  0  0  0  0  0
   21.3537  -18.2999  -16.0807 C   0  0  2  0  0  0  0  0  0  0  0  0
   22.7007  -18.4873  -15.4194 N   0  0  0  0  0  0  0  0  0  0  0  0
   21.0082  -16.8762  -15.9712 C   0  0  0  0  0  0  0  0  0  0  0  0
   20.7816  -16.4348  -14.7876 O   0  0  0  0  0  0  0  0  0  0  0  0
   20.8947  -15.9145  -16.9885 N   0  0  0  0  0  0  0  0  0  0  0  0
   20.5368  -14.5133  -16.7370 C   0  0  1  0  0  0  0  0  0  0  0  0
   21.4280  -13.5881  -17.4991 C   0  0  0  0  0  0  0  0  0  0  0  0
   22.8066  -13.5921  -16.9730 C   0  0  0  0  0  0  0  0  0  0  0  0
   23.1566  -13.8497  -15.6496 C   0  0  0  0  0  0  0  0  0  0  0  0
   24.5116  -13.7348  -15.5464 N   0  0  0  0  0  0  0  0  0  0  0  0
   24.9987  -13.4191  -16.7469 C   0  0  0  0  0  0  0  0  0  0  0  0
   23.9789  -13.3327  -17.6050 N   0  0  0  0  0  0  0  0  0  0  0  0
   19.1356  -14.2455  -17.0201 C   0  0  0  0  0  0  0  0  0  0  0  0
   18.5223  -15.0433  -17.8127 O   0  0  0  0  0  0  0  0  0  0  0  0
   18.4090  -13.2080  -16.5069 O   0  0  0  0  0  0  0  0  0  0  0  0
  2  1  1  0
  2  3  1  0
  3  4  1  1
  5  3  1  0
  5  6  1  6
  7  5  1  0
  8  7  2  0
 10 11  2  0
 10  9  1  0
 12 10  1  0
 13 12  1  1
 13 14  1  0
 14  7  1  0
 15 16  2  0
 15 13  1  0
 17 15  1  0
 18 25  1  0
 18 17  1  0
 18 19  1  6
 20 21  2  0
 20 19  1  0
 22 21  1  0
 23 24  2  0
 23 22  1  0
 24 20  1  0
 25 27  1  0
 26 25  2  0
M  END
$$$$
