INH.pdb
     RDKit          3D

 27 27  0  0  1  0  0  0  0  0999 V2000
   30.3356  -20.4810  -11.7378 C   0  0  0  0  0  0  0  0  0  0  0  0
   28.9311  -20.8588  -12.0581 C   0  0  0  0  0  0  0  0  0  0  0  0
   28.0136  -20.7426  -10.8737 C   0  0  2  0  0  0  0  0  0  0  0  0
   28.4780  -21.6730   -9.7601 C   0  0  0  0  0  0  0  0  0  0  0  0
   26.5752  -20.9941  -11.2163 C   0  0  2  0  0  0  0  0  0  0  0  0
   26.5802  -22.3151  -11.9012 N   0  0  0  0  0  0  0  0  0  0  0  0
   25.9916  -20.0583  -12.1956 C   0  0  0  0  0  0  0  0  0  0  0  0
   25.5392  -18.9080  -11.8401 O   0  0  0  0  0  0  0  0  0  0  0  0
   26.7918  -16.9737  -15.1549 N   0  0  0  0  0  0  0  0  0  0  0  0
   26.9316  -18.1740  -15.9726 C   0  0  0  0  0  0  0  0  0  0  0  0
   27.7561  -18.0997  -16.9094 O   0  0  0  0  0  0  0  0  0  0  0  0
   26.1497  -19.3457  -15.6820 C   0  0  0  0  0  0  0  0  0  0  0  0
   25.2347  -19.3057  -14.5079 C   0  0  2  0  0  0  0  0  0  0  0  0
   25.8722  -20.3097  -13.5738 N   0  0  0  0  0  0  0  0  0  0  0  0
   23.8526  -19.7448  -14.7429 C   0  0  0  0  0  0  0  0  0  0  0  0
   23.6882  -20.9893  -15.0099 O   0  0  0  0  0  0  0  0  0  0  0  0
   22.6688  -18.9895  -14.7110 N   0  0  0  0  0  0  0  0  0  0  0  0
   21.3361  -19.5705  -14.9137 C   0  0  1  0  0  0  0  0  0  0  0  0
   20.2666  -18.6178  -14.4898 C   0  0  0  0  0  0  0  0  0  0  0  0
   18.9176  -19.1903  -14.6628 C   0  0  0  0  0  0  0  0  0  0  0  0
   18.5857  -20.5287  -14.4655 C   0  0  0  0  0  0  0  0  0  0  0  0
   17.2598  -20.6759  -14.7488 N   0  0  0  0  0  0  0  0  0  0  0  0
   16.7732  -19.4878  -15.1090 C   0  0  0  0  0  0  0  0  0  0  0  0
   17.7647  -18.5944  -15.0586 N   0  0  0  0  0  0  0  0  0  0  0  0
   21.1330  -20.0130  -16.2841 C   0  0  0  0  0  0  0  0  0  0  0  0
   21.5886  -19.2733  -17.2253 O   0  0  0  0  0  0  0  0  0  0  0  0
   20.4942  -21.1619  -16.6581 O   0  0  0  0  0  0  0  0  0  0  0  0
  2  1  1  0
  2  3  1  0
  3  4  1  1
  5  3  1  0
  5  6  1  6
  7  5  1  0
  8  7  2  0
 10 11  2  0
 10  9  1  0
 12 10  1  0
 13 12  1  6
 13 14  1  0
 14  7  1  0
 15 16  2  0
 15 13  1  0
 17 15  1  0
 18 25  1  0
 18 17  1  0
 18 19  1  6
 20 21  2  0
 20 19  1  0
 22 21  1  0
 23 24  2  0
 23 22  1  0
 24 20  1  0
 25 27  1  0
 26 25  2  0
M  END
$$$$
