INH.pdb
     RDKit          3D

 27 27  0  0  1  0  0  0  0  0999 V2000
   28.3088  -20.9706   -6.0984 C   0  0  0  0  0  0  0  0  0  0  0  0
   27.0847  -20.4522   -6.7697 C   0  0  0  0  0  0  0  0  0  0  0  0
   27.0123  -20.8337   -8.2214 C   0  0  2  0  0  0  0  0  0  0  0  0
   28.2988  -20.4314   -8.9318 C   0  0  0  0  0  0  0  0  0  0  0  0
   25.8141  -20.2639   -8.9208 C   0  0  2  0  0  0  0  0  0  0  0  0
   24.6658  -21.0507   -8.3949 N   0  0  0  0  0  0  0  0  0  0  0  0
   25.7831  -20.4721  -10.3806 C   0  0  0  0  0  0  0  0  0  0  0  0
   26.4838  -19.7467  -11.1787 O   0  0  0  0  0  0  0  0  0  0  0  0
   24.9101  -22.6560  -15.2090 N   0  0  0  0  0  0  0  0  0  0  0  0
   25.0443  -23.5641  -14.0749 C   0  0  0  0  0  0  0  0  0  0  0  0
   25.0682  -24.7823  -14.3546 O   0  0  0  0  0  0  0  0  0  0  0  0
   25.1402  -23.0454  -12.7368 C   0  0  0  0  0  0  0  0  0  0  0  0
   25.0121  -21.5745  -12.5431 C   0  0  2  0  0  0  0  0  0  0  0  0
   25.0154  -21.4510  -11.0359 N   0  0  0  0  0  0  0  0  0  0  0  0
   23.7699  -20.9585  -13.0287 C   0  0  0  0  0  0  0  0  0  0  0  0
   23.6836  -20.7735  -14.2957 O   0  0  0  0  0  0  0  0  0  0  0  0
   22.6459  -20.5427  -12.2964 N   0  0  0  0  0  0  0  0  0  0  0  0
   21.4894  -19.8742  -12.9050 C   0  0  1  0  0  0  0  0  0  0  0  0
   21.9263  -18.8106  -13.8583 C   0  0  0  0  0  0  0  0  0  0  0  0
   20.7841  -18.0396  -14.3860 C   0  0  0  0  0  0  0  0  0  0  0  0
   19.6432  -17.7034  -13.6611 C   0  0  0  0  0  0  0  0  0  0  0  0
   18.8071  -17.0186  -14.4929 N   0  0  0  0  0  0  0  0  0  0  0  0
   19.3892  -16.9248  -15.6889 C   0  0  0  0  0  0  0  0  0  0  0  0
   20.5751  -17.5361  -15.6285 N   0  0  0  0  0  0  0  0  0  0  0  0
   20.5859  -20.8162  -13.5464 C   0  0  0  0  0  0  0  0  0  0  0  0
   21.0125  -21.4481  -14.5757 O   0  0  0  0  0  0  0  0  0  0  0  0
   19.3099  -21.0901  -13.1407 O   0  0  0  0  0  0  0  0  0  0  0  0
  2  1  1  0
  2  3  1  0
  3  4  1  6
  5  3  1  0
  5  6  1  1
  7  5  1  0
  8  7  2  0
 10 11  2  0
 10  9  1  0
 12 10  1  0
 13 12  1  1
 13 14  1  0
 14  7  1  0
 15 16  2  0
 15 13  1  0
 17 15  1  0
 18 25  1  0
 18 17  1  0
 18 19  1  6
 20 21  2  0
 20 19  1  0
 22 21  1  0
 23 24  2  0
 23 22  1  0
 24 20  1  0
 25 27  1  0
 26 25  2  0
M  END
$$$$
