INH.pdb
     RDKit          3D

 27 27  0  0  1  0  0  0  0  0999 V2000
   28.9563  -13.8722  -16.2335 C   0  0  0  0  0  0  0  0  0  0  0  0
   27.6837  -13.3264  -15.6854 C   0  0  0  0  0  0  0  0  0  0  0  0
   27.2019  -12.1146  -16.4320 C   0  0  2  0  0  0  0  0  0  0  0  0
   28.2930  -11.0515  -16.4617 C   0  0  0  0  0  0  0  0  0  0  0  0
   25.9236  -11.5543  -15.8827 C   0  0  2  0  0  0  0  0  0  0  0  0
   24.9942  -12.7157  -15.8421 N   0  0  0  0  0  0  0  0  0  0  0  0
   25.2550  -10.5600  -16.7428 C   0  0  0  0  0  0  0  0  0  0  0  0
   25.6977   -9.3572  -16.8502 O   0  0  0  0  0  0  0  0  0  0  0  0
   22.7507   -9.5448  -21.8685 N   0  0  0  0  0  0  0  0  0  0  0  0
   22.2244   -9.7634  -20.5253 C   0  0  0  0  0  0  0  0  0  0  0  0
   21.0813   -9.3057  -20.3089 O   0  0  0  0  0  0  0  0  0  0  0  0
   23.0067  -10.4667  -19.5445 C   0  0  0  0  0  0  0  0  0  0  0  0
   23.4557   -9.7194  -18.3372 C   0  0  2  0  0  0  0  0  0  0  0  0
   24.1050  -10.8083  -17.5128 N   0  0  0  0  0  0  0  0  0  0  0  0
   22.3994   -9.1184  -17.5119 C   0  0  0  0  0  0  0  0  0  0  0  0
   21.8298   -9.8941  -16.6628 O   0  0  0  0  0  0  0  0  0  0  0  0
   21.9210   -7.7979  -17.5144 N   0  0  0  0  0  0  0  0  0  0  0  0
   20.8711   -7.3191  -16.6071 C   0  0  1  0  0  0  0  0  0  0  0  0
   21.4599   -6.7758  -15.3464 C   0  0  0  0  0  0  0  0  0  0  0  0
   22.2327   -5.5417  -15.5854 C   0  0  0  0  0  0  0  0  0  0  0  0
   22.4015   -4.9318  -16.8263 C   0  0  0  0  0  0  0  0  0  0  0  0
   23.1957   -3.8374  -16.6488 N   0  0  0  0  0  0  0  0  0  0  0  0
   23.5161   -3.7565  -15.3569 C   0  0  0  0  0  0  0  0  0  0  0  0
   22.9403   -4.7770  -14.7162 N   0  0  0  0  0  0  0  0  0  0  0  0
   19.9991   -6.3442  -17.2428 C   0  0  0  0  0  0  0  0  0  0  0  0
   20.2727   -5.9895  -18.4428 O   0  0  0  0  0  0  0  0  0  0  0  0
   18.9011   -5.7700  -16.6661 O   0  0  0  0  0  0  0  0  0  0  0  0
  2  1  1  0
  2  3  1  0
  3  4  1  1
  5  3  1  0
  5  6  1  6
  7  5  1  0
  8  7  2  0
 10 11  2  0
 10  9  1  0
 12 10  1  0
 13 12  1  6
 13 14  1  0
 14  7  1  0
 15 16  2  0
 15 13  1  0
 17 15  1  0
 18 25  1  0
 18 17  1  0
 18 19  1  1
 20 21  2  0
 20 19  1  0
 22 21  1  0
 23 24  2  0
 23 22  1  0
 24 20  1  0
 25 27  1  0
 26 25  2  0
M  END
$$$$
