INH.pdb
     RDKit          3D

 27 27  0  0  1  0  0  0  0  0999 V2000
   26.7290  -38.4460  -12.4794 C   0  0  0  0  0  0  0  0  0  0  0  0
   25.9447  -37.1806  -12.4374 C   0  0  0  0  0  0  0  0  0  0  0  0
   26.4550  -36.2147  -11.4056 C   0  0  2  0  0  0  0  0  0  0  0  0
   26.4664  -36.8751  -10.0325 C   0  0  0  0  0  0  0  0  0  0  0  0
   25.6868  -34.9269  -11.3738 C   0  0  2  0  0  0  0  0  0  0  0  0
   26.0499  -34.2443  -12.6451 N   0  0  0  0  0  0  0  0  0  0  0  0
   26.0836  -33.9870  -10.3087 C   0  0  0  0  0  0  0  0  0  0  0  0
   27.0568  -33.1614  -10.4681 O   0  0  0  0  0  0  0  0  0  0  0  0
   24.5203  -29.7251   -7.6614 N   0  0  0  0  0  0  0  0  0  0  0  0
   24.7198  -30.9735   -6.9330 C   0  0  0  0  0  0  0  0  0  0  0  0
   24.9473  -30.8576   -5.7092 O   0  0  0  0  0  0  0  0  0  0  0  0
   24.6499  -32.2347   -7.6209 C   0  0  0  0  0  0  0  0  0  0  0  0
   25.9271  -32.8912   -8.0150 C   0  0  2  0  0  0  0  0  0  0  0  0
   25.4639  -33.8916   -9.0501 N   0  0  0  0  0  0  0  0  0  0  0  0
   26.6256  -33.6428   -6.9636 C   0  0  0  0  0  0  0  0  0  0  0  0
   26.1706  -34.8143   -6.7033 O   0  0  0  0  0  0  0  0  0  0  0  0
   27.7383  -33.2610   -6.1963 N   0  0  0  0  0  0  0  0  0  0  0  0
   28.3614  -34.1309   -5.1914 C   0  0  1  0  0  0  0  0  0  0  0  0
   29.7590  -33.6934   -4.8973 C   0  0  0  0  0  0  0  0  0  0  0  0
   30.7272  -34.2571   -5.8577 C   0  0  0  0  0  0  0  0  0  0  0  0
   30.4182  -35.1749   -6.8589 C   0  0  0  0  0  0  0  0  0  0  0  0
   31.5730  -35.4775   -7.5183 N   0  0  0  0  0  0  0  0  0  0  0  0
   32.5677  -34.7851   -6.9622 C   0  0  0  0  0  0  0  0  0  0  0  0
   32.0641  -34.0521   -5.9659 N   0  0  0  0  0  0  0  0  0  0  0  0
   27.5704  -34.2172   -3.9741 C   0  0  0  0  0  0  0  0  0  0  0  0
   26.5258  -33.4812   -3.8860 O   0  0  0  0  0  0  0  0  0  0  0  0
   27.8463  -35.0252   -2.9070 O   0  0  0  0  0  0  0  0  0  0  0  0
  2  1  1  0
  2  3  1  0
  3  4  1  1
  5  3  1  0
  5  6  1  6
  7  5  1  0
  8  7  2  0
 10 11  2  0
 10  9  1  0
 12 10  1  0
 13 12  1  1
 13 14  1  0
 14  7  1  0
 15 16  2  0
 15 13  1  0
 17 15  1  0
 18 25  1  0
 18 17  1  0
 18 19  1  1
 20 21  2  0
 20 19  1  0
 22 21  1  0
 23 24  2  0
 23 22  1  0
 24 20  1  0
 25 27  1  0
 26 25  2  0
M  END
$$$$
