INH.pdb
     RDKit          3D

 27 27  0  0  1  0  0  0  0  0999 V2000
   22.7501  -14.1742  -19.0413 C   0  0  0  0  0  0  0  0  0  0  0  0
   22.4916  -13.1150  -18.0268 C   0  0  0  0  0  0  0  0  0  0  0  0
   23.5271  -13.0881  -16.9382 C   0  0  2  0  0  0  0  0  0  0  0  0
   23.5874  -14.4416  -16.2411 C   0  0  0  0  0  0  0  0  0  0  0  0
   23.3097  -11.9844  -15.9461 C   0  0  2  0  0  0  0  0  0  0  0  0
   21.9215  -12.1939  -15.4530 N   0  0  0  0  0  0  0  0  0  0  0  0
   23.3123  -10.6229  -16.5132 C   0  0  0  0  0  0  0  0  0  0  0  0
   24.3782  -10.1035  -17.0114 O   0  0  0  0  0  0  0  0  0  0  0  0
   19.5270   -8.5797  -17.6826 N   0  0  0  0  0  0  0  0  0  0  0  0
   20.5176   -8.5364  -18.7530 C   0  0  0  0  0  0  0  0  0  0  0  0
   20.0648   -8.6179  -19.9154 O   0  0  0  0  0  0  0  0  0  0  0  0
   21.9161   -8.4070  -18.4432 C   0  0  0  0  0  0  0  0  0  0  0  0
   22.3139   -8.3332  -17.0101 C   0  0  2  0  0  0  0  0  0  0  0  0
   22.1918   -9.7754  -16.5719 N   0  0  0  0  0  0  0  0  0  0  0  0
   21.4464   -7.5358  -16.1327 C   0  0  0  0  0  0  0  0  0  0  0  0
   20.3977   -8.1229  -15.6827 O   0  0  0  0  0  0  0  0  0  0  0  0
   21.6050   -6.2074  -15.7051 N   0  0  0  0  0  0  0  0  0  0  0  0
   21.1580   -5.7239  -14.3932 C   0  0  1  0  0  0  0  0  0  0  0  0
   21.6870   -6.5879  -13.2955 C   0  0  0  0  0  0  0  0  0  0  0  0
   21.2289   -6.1354  -11.9678 C   0  0  0  0  0  0  0  0  0  0  0  0
   20.4077   -5.0340  -11.7379 C   0  0  0  0  0  0  0  0  0  0  0  0
   20.2292   -4.9206  -10.3906 N   0  0  0  0  0  0  0  0  0  0  0  0
   20.9049   -5.9030   -9.7936 C   0  0  0  0  0  0  0  0  0  0  0  0
   21.5058   -6.6335  -10.7364 N   0  0  0  0  0  0  0  0  0  0  0  0
   21.5030   -4.3280  -14.1760 C   0  0  0  0  0  0  0  0  0  0  0  0
   21.1419   -3.7871  -13.0725 O   0  0  0  0  0  0  0  0  0  0  0  0
   22.1879   -3.5363  -15.0547 O   0  0  0  0  0  0  0  0  0  0  0  0
  2  1  1  0
  2  3  1  0
  3  4  1  1
  5  3  1  0
  5  6  1  6
  7  5  1  0
  8  7  2  0
 10 11  2  0
 10  9  1  0
 12 10  1  0
 13 12  1  6
 13 14  1  0
 14  7  1  0
 15 16  2  0
 15 13  1  0
 17 15  1  0
 18 25  1  0
 18 17  1  0
 18 19  1  1
 20 21  2  0
 20 19  1  0
 22 21  1  0
 23 24  2  0
 23 22  1  0
 24 20  1  0
 25 27  1  0
 26 25  2  0
M  END
$$$$
