INH.pdb
     RDKit          3D

 27 27  0  0  1  0  0  0  0  0999 V2000
   27.4735  -15.3800  -15.6617 C   0  0  0  0  0  0  0  0  0  0  0  0
   26.3143  -16.3110  -15.5742 C   0  0  0  0  0  0  0  0  0  0  0  0
   25.0053  -15.6394  -15.8797 C   0  0  2  0  0  0  0  0  0  0  0  0
   24.7626  -14.4981  -14.8998 C   0  0  0  0  0  0  0  0  0  0  0  0
   23.8449  -16.5896  -15.8927 C   0  0  2  0  0  0  0  0  0  0  0  0
   24.2628  -17.6762  -16.8194 N   0  0  0  0  0  0  0  0  0  0  0  0
   22.6004  -16.0506  -16.4725 C   0  0  0  0  0  0  0  0  0  0  0  0
   22.5043  -15.7802  -17.7262 O   0  0  0  0  0  0  0  0  0  0  0  0
   18.9391  -17.2786  -17.8546 N   0  0  0  0  0  0  0  0  0  0  0  0
   18.4811  -16.9597  -16.5065 C   0  0  0  0  0  0  0  0  0  0  0  0
   17.5487  -17.6678  -16.0681 O   0  0  0  0  0  0  0  0  0  0  0  0
   19.0935  -15.8897  -15.7656 C   0  0  0  0  0  0  0  0  0  0  0  0
   20.2191  -15.1503  -16.4011 C   0  0  2  0  0  0  0  0  0  0  0  0
   21.4257  -15.7852  -15.7468 N   0  0  0  0  0  0  0  0  0  0  0  0
   20.2859  -13.7075  -16.1325 C   0  0  0  0  0  0  0  0  0  0  0  0
   21.3895  -13.2696  -15.6454 O   0  0  0  0  0  0  0  0  0  0  0  0
   19.3045  -12.7245  -16.3404 N   0  0  0  0  0  0  0  0  0  0  0  0
   19.5945  -11.4042  -16.9125 C   0  0  1  0  0  0  0  0  0  0  0  0
   20.4351  -11.5260  -18.1413 C   0  0  0  0  0  0  0  0  0  0  0  0
   20.8075  -10.2069  -18.6879 C   0  0  0  0  0  0  0  0  0  0  0  0
   21.0538   -9.0666  -17.9268 C   0  0  0  0  0  0  0  0  0  0  0  0
   21.3389   -8.0457  -18.7849 N   0  0  0  0  0  0  0  0  0  0  0  0
   21.2763   -8.5153  -20.0314 C   0  0  0  0  0  0  0  0  0  0  0  0
   20.9578   -9.8112  -19.9770 N   0  0  0  0  0  0  0  0  0  0  0  0
   18.3840  -10.6428  -17.1770 C   0  0  0  0  0  0  0  0  0  0  0  0
   17.4817  -11.1876  -17.9049 O   0  0  0  0  0  0  0  0  0  0  0  0
   18.1222   -9.3854  -16.7098 O   0  0  0  0  0  0  0  0  0  0  0  0
  2  1  1  0
  2  3  1  0
  3  4  1  1
  5  3  1  0
  5  6  1  6
  7  5  1  0
  8  7  2  0
 10 11  2  0
 10  9  1  0
 12 10  1  0
 13 12  1  1
 13 14  1  0
 14  7  1  0
 15 16  2  0
 15 13  1  0
 17 15  1  0
 18 25  1  0
 18 17  1  0
 18 19  1  6
 20 21  2  0
 20 19  1  0
 22 21  1  0
 23 24  2  0
 23 22  1  0
 24 20  1  0
 25 27  1  0
 26 25  2  0
M  END
$$$$
