INH.pdb
     RDKit          3D

 27 27  0  0  1  0  0  0  0  0999 V2000
   15.5550  -13.1086  -12.7713 C   0  0  0  0  0  0  0  0  0  0  0  0
   15.4996  -12.2526  -11.5539 C   0  0  0  0  0  0  0  0  0  0  0  0
   15.7797  -10.8059  -11.8476 C   0  0  2  0  0  0  0  0  0  0  0  0
   17.0950  -10.6719  -12.6051 C   0  0  0  0  0  0  0  0  0  0  0  0
   15.7793   -9.9449  -10.6194 C   0  0  2  0  0  0  0  0  0  0  0  0
   14.3951  -10.0575  -10.0852 N   0  0  0  0  0  0  0  0  0  0  0  0
   15.9783   -8.5042  -10.8644 C   0  0  0  0  0  0  0  0  0  0  0  0
   15.3201   -7.8795  -11.7758 O   0  0  0  0  0  0  0  0  0  0  0  0
   14.3709   -6.0413   -9.4398 N   0  0  0  0  0  0  0  0  0  0  0  0
   15.4808   -5.4991   -8.6633 C   0  0  0  0  0  0  0  0  0  0  0  0
   15.1761   -4.9905   -7.5627 O   0  0  0  0  0  0  0  0  0  0  0  0
   16.8246   -5.5677   -9.1716 C   0  0  0  0  0  0  0  0  0  0  0  0
   17.0431   -6.2208  -10.4920 C   0  0  2  0  0  0  0  0  0  0  0  0
   16.8736   -7.6851  -10.1540 N   0  0  0  0  0  0  0  0  0  0  0  0
   18.3776   -6.0617  -11.0853 C   0  0  0  0  0  0  0  0  0  0  0  0
   19.3754   -6.3095  -10.3172 O   0  0  0  0  0  0  0  0  0  0  0  0
   18.7229   -5.6780  -12.3915 N   0  0  0  0  0  0  0  0  0  0  0  0
   20.1097   -5.5088  -12.8421 C   0  0  1  0  0  0  0  0  0  0  0  0
   20.3507   -6.2431  -14.1203 C   0  0  0  0  0  0  0  0  0  0  0  0
   20.0073   -7.6738  -14.0077 C   0  0  0  0  0  0  0  0  0  0  0  0
   20.5179   -8.5455  -13.0487 C   0  0  0  0  0  0  0  0  0  0  0  0
   19.9903   -9.7808  -13.2846 N   0  0  0  0  0  0  0  0  0  0  0  0
   19.1835   -9.6974  -14.3430 C   0  0  0  0  0  0  0  0  0  0  0  0
   19.1913   -8.4352  -14.7793 N   0  0  0  0  0  0  0  0  0  0  0  0
   20.4804   -4.1077  -12.9628 C   0  0  0  0  0  0  0  0  0  0  0  0
   21.7031   -3.8331  -13.2280 O   0  0  0  0  0  0  0  0  0  0  0  0
   19.6286   -3.0487  -12.8188 O   0  0  0  0  0  0  0  0  0  0  0  0
  2  1  1  0
  2  3  1  0
  3  4  1  1
  5  3  1  0
  5  6  1  6
  7  5  1  0
  8  7  2  0
 10 11  2  0
 10  9  1  0
 12 10  1  0
 13 12  1  1
 13 14  1  0
 14  7  1  0
 15 16  2  0
 15 13  1  0
 17 15  1  0
 18 25  1  0
 18 17  1  0
 18 19  1  6
 20 21  2  0
 20 19  1  0
 22 21  1  0
 23 24  2  0
 23 22  1  0
 24 20  1  0
 25 27  1  0
 26 25  2  0
M  END
$$$$
