INH.pdb
     RDKit          3D

 27 27  0  0  1  0  0  0  0  0999 V2000
   26.2836  -14.8297  -17.9060 C   0  0  0  0  0  0  0  0  0  0  0  0
   25.8308  -13.8419  -16.8875 C   0  0  0  0  0  0  0  0  0  0  0  0
   24.5994  -13.0926  -17.3120 C   0  0  2  0  0  0  0  0  0  0  0  0
   24.8107  -12.4792  -18.6907 C   0  0  0  0  0  0  0  0  0  0  0  0
   24.1741  -12.0496  -16.3217 C   0  0  2  0  0  0  0  0  0  0  0  0
   23.9780  -12.7992  -15.0513 N   0  0  0  0  0  0  0  0  0  0  0  0
   22.8701  -11.4182  -16.5979 C   0  0  0  0  0  0  0  0  0  0  0  0
   22.7259  -10.5579  -17.5430 O   0  0  0  0  0  0  0  0  0  0  0  0
   18.8421  -12.5884  -18.0835 N   0  0  0  0  0  0  0  0  0  0  0  0
   18.6297  -12.7502  -16.6491 C   0  0  0  0  0  0  0  0  0  0  0  0
   17.7803  -13.6062  -16.3192 O   0  0  0  0  0  0  0  0  0  0  0  0
   19.3735  -11.9537  -15.7104 C   0  0  0  0  0  0  0  0  0  0  0  0
   20.3830  -10.9985  -16.2452 C   0  0  2  0  0  0  0  0  0  0  0  0
   21.6852  -11.6791  -15.8874 N   0  0  0  0  0  0  0  0  0  0  0  0
   20.4060   -9.6633  -15.6330 C   0  0  0  0  0  0  0  0  0  0  0  0
   21.0473   -9.5552  -14.5266 O   0  0  0  0  0  0  0  0  0  0  0  0
   19.8243   -8.4708  -16.0936 N   0  0  0  0  0  0  0  0  0  0  0  0
   20.1656   -7.1476  -15.5574 C   0  0  1  0  0  0  0  0  0  0  0  0
   21.6460   -6.9531  -15.5142 C   0  0  0  0  0  0  0  0  0  0  0  0
   22.0105   -5.5797  -15.1161 C   0  0  0  0  0  0  0  0  0  0  0  0
   21.6725   -4.9823  -13.9040 C   0  0  0  0  0  0  0  0  0  0  0  0
   22.1592   -3.7084  -13.9167 N   0  0  0  0  0  0  0  0  0  0  0  0
   22.7765   -3.5065  -15.0814 C   0  0  0  0  0  0  0  0  0  0  0  0
   22.6892   -4.6267  -15.8032 N   0  0  0  0  0  0  0  0  0  0  0  0
   19.5155   -6.0736  -16.2915 C   0  0  0  0  0  0  0  0  0  0  0  0
   19.3584   -6.2216  -17.5541 O   0  0  0  0  0  0  0  0  0  0  0  0
   19.0510   -4.9101  -15.7453 O   0  0  0  0  0  0  0  0  0  0  0  0
  2  1  1  0
  2  3  1  0
  3  4  1  6
  5  3  1  0
  5  6  1  1
  7  5  1  0
  8  7  2  0
 10 11  2  0
 10  9  1  0
 12 10  1  0
 13 12  1  1
 13 14  1  0
 14  7  1  0
 15 16  2  0
 15 13  1  0
 17 15  1  0
 18 25  1  0
 18 17  1  0
 18 19  1  6
 20 21  2  0
 20 19  1  0
 22 21  1  0
 23 24  2  0
 23 22  1  0
 24 20  1  0
 25 27  1  0
 26 25  2  0
M  END
$$$$
