VMQ.pdb
     RDKit          3D

 25 24  0  0  1  0  0  0  0  0999 V2000
   20.9778  -19.5126  -10.1270 C   0  0  0  0  0  0  0  0  0  0  0  0
   21.3704  -20.2208   -8.8719 C   0  0  1  0  0  0  0  0  0  0  0  0
   20.1427  -20.9415   -8.3425 C   0  0  0  0  0  0  0  0  0  0  0  0
   22.4475  -21.2388   -9.0566 C   0  0  2  0  0  0  0  0  0  0  0  0
   22.5633  -22.0220   -7.8499 N   0  0  0  0  0  0  0  0  0  0  0  0
   23.7498  -20.6400   -9.4548 C   0  0  0  0  0  0  0  0  0  0  0  0
   23.8373  -20.0351  -10.5541 O   0  0  0  0  0  0  0  0  0  0  0  0
   28.0712  -20.6867   -4.6849 C   0  0  0  0  0  0  0  0  0  0  0  0
   28.2243  -19.1846   -5.7073 S   0  0  0  0  0  0  0  0  0  0  0  0
   26.8733  -19.1617   -6.9391 C   0  0  0  0  0  0  0  0  0  0  0  0
   27.2318  -20.1567   -7.9977 C   0  0  0  0  0  0  0  0  0  0  0  0
   26.2188  -20.2707   -9.0969 C   0  0  2  0  0  0  0  0  0  0  0  0
   24.9219  -20.7124   -8.6518 N   0  0  0  0  0  0  0  0  0  0  0  0
   26.7180  -21.0617  -10.2504 C   0  0  0  0  0  0  0  0  0  0  0  0
   26.8067  -22.3123  -10.1613 O   0  0  0  0  0  0  0  0  0  0  0  0
   23.0767  -21.3430  -15.1029 N   0  0  0  0  0  0  0  0  0  0  0  0
   23.8974  -22.3523  -14.5493 C   0  0  0  0  0  0  0  0  0  0  0  0
   23.3893  -23.4395  -14.2151 O   0  0  0  0  0  0  0  0  0  0  0  0
   25.3577  -22.1455  -14.3562 C   0  0  0  0  0  0  0  0  0  0  0  0
   25.6048  -21.5046  -13.0209 C   0  0  0  0  0  0  0  0  0  0  0  0
   27.0384  -21.2043  -12.7513 C   0  0  2  0  0  0  0  0  0  0  0  0
   27.1084  -20.4631  -11.4749 N   0  0  0  0  0  0  0  0  0  0  0  0
   27.6102  -20.3090  -13.7784 C   0  0  0  0  0  0  0  0  0  0  0  0
   27.4658  -19.0458  -13.6852 O   0  0  0  0  0  0  0  0  0  0  0  0
   28.3153  -20.7517  -14.8694 O   0  0  0  0  0  0  0  0  0  0  0  0
  2  1  1  6
  3  2  1  0
  4  2  1  0
  4  5  1  1
  6  4  1  0
  7  6  2  0
  9 10  1  0
  9  8  1  0
 11 10  1  0
 12 11  1  1
 12 13  1  0
 13  6  1  0
 14 12  1  0
 14 15  2  0
 17 16  1  0
 17 19  1  0
 18 17  2  0
 19 20  1  0
 21 20  1  6
 21 22  1  0
 22 14  1  0
 23 21  1  0
 24 23  2  0
 25 23  1  0
M  END
$$$$
