VMQ.pdb
     RDKit          3D

 25 24  0  0  1  0  0  0  0  0999 V2000
   18.9465  -14.2926  -16.8636 C   0  0  0  0  0  0  0  0  0  0  0  0
   19.8406  -13.3551  -16.1202 C   0  0  1  0  0  0  0  0  0  0  0  0
   21.2307  -13.9663  -16.0894 C   0  0  0  0  0  0  0  0  0  0  0  0
   19.9559  -12.0010  -16.7397 C   0  0  2  0  0  0  0  0  0  0  0  0
   20.3105  -12.1512  -18.1306 N   0  0  0  0  0  0  0  0  0  0  0  0
   20.9068  -11.1123  -16.0191 C   0  0  0  0  0  0  0  0  0  0  0  0
   20.6450  -10.7595  -14.8405 O   0  0  0  0  0  0  0  0  0  0  0  0
   27.4200  -12.7395  -15.2261 C   0  0  0  0  0  0  0  0  0  0  0  0
   26.7038  -11.2671  -16.0288 S   0  0  0  0  0  0  0  0  0  0  0  0
   24.9542  -11.1042  -15.5232 C   0  0  0  0  0  0  0  0  0  0  0  0
   24.4230   -9.8705  -16.1826 C   0  0  0  0  0  0  0  0  0  0  0  0
   22.9571   -9.6447  -15.9650 C   0  0  2  0  0  0  0  0  0  0  0  0
   22.1151  -10.6297  -16.5943 N   0  0  0  0  0  0  0  0  0  0  0  0
   22.5409   -8.2569  -16.2912 C   0  0  0  0  0  0  0  0  0  0  0  0
   22.3486   -7.9253  -17.4882 O   0  0  0  0  0  0  0  0  0  0  0  0
   17.8485   -6.1106  -16.9097 N   0  0  0  0  0  0  0  0  0  0  0  0
   18.4956   -4.8540  -16.8733 C   0  0  0  0  0  0  0  0  0  0  0  0
   18.0046   -3.8944  -17.4978 O   0  0  0  0  0  0  0  0  0  0  0  0
   19.7525   -4.6509  -16.1044 C   0  0  0  0  0  0  0  0  0  0  0  0
   20.3956   -5.9793  -15.8277 C   0  0  0  0  0  0  0  0  0  0  0  0
   21.8720   -5.9090  -15.6451 C   0  0  2  0  0  0  0  0  0  0  0  0
   22.3453   -7.2650  -15.2973 N   0  0  0  0  0  0  0  0  0  0  0  0
   22.2398   -5.0409  -14.5073 C   0  0  0  0  0  0  0  0  0  0  0  0
   22.6127   -5.5521  -13.4005 O   0  0  0  0  0  0  0  0  0  0  0  0
   22.2106   -3.6696  -14.5533 O   0  0  0  0  0  0  0  0  0  0  0  0
  2  1  1  6
  3  2  1  0
  4  2  1  0
  4  5  1  6
  6  4  1  0
  7  6  2  0
  9 10  1  0
  9  8  1  0
 11 10  1  0
 12 11  1  6
 12 13  1  0
 13  6  1  0
 14 12  1  0
 14 15  2  0
 17 16  1  0
 17 19  1  0
 18 17  2  0
 19 20  1  0
 21 20  1  1
 21 22  1  0
 22 14  1  0
 23 21  1  0
 24 23  2  0
 25 23  1  0
M  END
$$$$
