VMQ.pdb
     RDKit          3D

 25 24  0  0  1  0  0  0  0  0999 V2000
   20.7625  -14.7034  -21.5209 C   0  0  0  0  0  0  0  0  0  0  0  0
   21.4031  -13.6640  -20.6604 C   0  0  1  0  0  0  0  0  0  0  0  0
   20.5339  -13.4817  -19.4283 C   0  0  0  0  0  0  0  0  0  0  0  0
   22.7775  -14.0184  -20.1956 C   0  0  2  0  0  0  0  0  0  0  0  0
   22.7360  -15.3104  -19.5538 N   0  0  0  0  0  0  0  0  0  0  0  0
   23.3771  -12.9813  -19.3136 C   0  0  0  0  0  0  0  0  0  0  0  0
   23.1751  -13.0380  -18.0735 O   0  0  0  0  0  0  0  0  0  0  0  0
   29.0714   -7.6261  -18.1681 C   0  0  0  0  0  0  0  0  0  0  0  0
   28.2597   -8.8457  -19.2540 S   0  0  0  0  0  0  0  0  0  0  0  0
   26.7083   -9.4065  -18.4654 C   0  0  0  0  0  0  0  0  0  0  0  0
   26.0964  -10.4207  -19.3798 C   0  0  0  0  0  0  0  0  0  0  0  0
   24.7388  -10.8898  -18.9505 C   0  0  2  0  0  0  0  0  0  0  0  0
   24.1791  -11.9110  -19.7984 N   0  0  0  0  0  0  0  0  0  0  0  0
   23.7945   -9.7663  -18.7234 C   0  0  0  0  0  0  0  0  0  0  0  0
   23.2181   -9.2249  -19.7003 O   0  0  0  0  0  0  0  0  0  0  0  0
   20.1025   -9.3701  -13.9496 N   0  0  0  0  0  0  0  0  0  0  0  0
   19.9400   -8.0490  -14.4265 C   0  0  0  0  0  0  0  0  0  0  0  0
   19.1461   -7.2829  -13.8481 O   0  0  0  0  0  0  0  0  0  0  0  0
   20.6972   -7.5516  -15.6062 C   0  0  0  0  0  0  0  0  0  0  0  0
   21.5987   -8.6362  -16.1217 C   0  0  0  0  0  0  0  0  0  0  0  0
   22.4979   -8.1999  -17.2258 C   0  0  2  0  0  0  0  0  0  0  0  0
   23.5042   -9.2625  -17.4303 N   0  0  0  0  0  0  0  0  0  0  0  0
   23.2535   -6.9825  -16.8646 C   0  0  0  0  0  0  0  0  0  0  0  0
   22.6853   -5.8414  -16.8843 O   0  0  0  0  0  0  0  0  0  0  0  0
   24.5745   -6.9867  -16.4928 O   0  0  0  0  0  0  0  0  0  0  0  0
  2  1  1  6
  3  2  1  0
  4  2  1  0
  4  5  1  1
  6  4  1  0
  7  6  2  0
  9 10  1  0
  9  8  1  0
 11 10  1  0
 12 11  1  6
 12 13  1  0
 13  6  1  0
 14 12  1  0
 14 15  2  0
 17 16  1  0
 17 19  1  0
 18 17  2  0
 19 20  1  0
 21 20  1  1
 21 22  1  0
 22 14  1  0
 23 21  1  0
 24 23  2  0
 25 23  1  0
M  END
$$$$
