VMQ.pdb
     RDKit          3D

 25 24  0  0  1  0  0  0  0  0999 V2000
   19.3824  -10.2642  -20.5411 C   0  0  0  0  0  0  0  0  0  0  0  0
   18.4654  -11.1545  -19.7681 C   0  0  1  0  0  0  0  0  0  0  0  0
   17.6507  -11.9595  -20.7656 C   0  0  0  0  0  0  0  0  0  0  0  0
   19.1659  -12.1218  -18.8713 C   0  0  2  0  0  0  0  0  0  0  0  0
   18.1831  -12.9627  -18.2310 N   0  0  0  0  0  0  0  0  0  0  0  0
   20.0543  -11.4562  -17.8810 C   0  0  0  0  0  0  0  0  0  0  0  0
   19.5434  -10.8859  -16.8832 O   0  0  0  0  0  0  0  0  0  0  0  0
   27.2501  -10.7672  -14.6860 C   0  0  0  0  0  0  0  0  0  0  0  0
   26.2077  -11.4406  -16.0221 S   0  0  0  0  0  0  0  0  0  0  0  0
   24.6068  -10.5573  -16.0319 C   0  0  0  0  0  0  0  0  0  0  0  0
   23.7226  -11.2685  -17.0073 C   0  0  0  0  0  0  0  0  0  0  0  0
   22.3301  -10.7182  -17.0831 C   0  0  2  0  0  0  0  0  0  0  0  0
   21.4718  -11.4262  -17.9980 N   0  0  0  0  0  0  0  0  0  0  0  0
   22.3103   -9.2511  -17.3130 C   0  0  0  0  0  0  0  0  0  0  0  0
   22.3554   -8.7998  -18.4852 O   0  0  0  0  0  0  0  0  0  0  0  0
   18.3913   -3.9414  -18.2538 N   0  0  0  0  0  0  0  0  0  0  0  0
   18.9896   -5.1787  -17.9222 C   0  0  0  0  0  0  0  0  0  0  0  0
   18.3091   -6.2209  -17.9736 O   0  0  0  0  0  0  0  0  0  0  0  0
   20.4168   -5.2650  -17.5124 C   0  0  0  0  0  0  0  0  0  0  0  0
   20.7811   -6.6978  -17.2495 C   0  0  0  0  0  0  0  0  0  0  0  0
   22.0633   -6.8691  -16.5115 C   0  0  2  0  0  0  0  0  0  0  0  0
   22.2414   -8.3130  -16.2523 N   0  0  0  0  0  0  0  0  0  0  0  0
   22.0212   -6.2159  -15.1867 C   0  0  0  0  0  0  0  0  0  0  0  0
   21.7648   -6.8969  -14.1399 O   0  0  0  0  0  0  0  0  0  0  0  0
   22.2477   -4.8769  -14.9887 O   0  0  0  0  0  0  0  0  0  0  0  0
  2  1  1  6
  3  2  1  0
  4  2  1  0
  4  5  1  1
  6  4  1  0
  7  6  2  0
  9 10  1  0
  9  8  1  0
 11 10  1  0
 12 11  1  6
 12 13  1  0
 13  6  1  0
 14 12  1  0
 14 15  2  0
 17 16  1  0
 17 19  1  0
 18 17  2  0
 19 20  1  0
 21 20  1  1
 21 22  1  0
 22 14  1  0
 23 21  1  0
 24 23  2  0
 25 23  1  0
M  END
$$$$
