VMQ.pdb
     RDKit          3D

 25 24  0  0  1  0  0  0  0  0999 V2000
   20.1214  -10.2868  -19.5440 C   0  0  0  0  0  0  0  0  0  0  0  0
   19.6699  -11.4714  -18.7541 C   0  0  1  0  0  0  0  0  0  0  0  0
   19.1541  -12.5122  -19.7326 C   0  0  0  0  0  0  0  0  0  0  0  0
   20.7479  -12.1101  -17.9414 C   0  0  2  0  0  0  0  0  0  0  0  0
   20.2195  -13.2973  -17.3132 N   0  0  0  0  0  0  0  0  0  0  0  0
   21.3536  -11.1820  -16.9491 C   0  0  0  0  0  0  0  0  0  0  0  0
   20.6880  -10.8458  -15.9361 O   0  0  0  0  0  0  0  0  0  0  0  0
   27.7535  -12.5631  -14.8114 C   0  0  0  0  0  0  0  0  0  0  0  0
   27.0710  -11.0776  -15.6192 S   0  0  0  0  0  0  0  0  0  0  0  0
   25.2457  -11.1349  -15.5279 C   0  0  0  0  0  0  0  0  0  0  0  0
   24.7422   -9.8229  -16.0418 C   0  0  0  0  0  0  0  0  0  0  0  0
   23.2482   -9.7336  -16.1284 C   0  0  2  0  0  0  0  0  0  0  0  0
   22.6636  -10.6429  -17.0806 N   0  0  0  0  0  0  0  0  0  0  0  0
   22.7717   -8.3395  -16.3151 C   0  0  0  0  0  0  0  0  0  0  0  0
   22.7602   -7.8296  -17.4638 O   0  0  0  0  0  0  0  0  0  0  0  0
   17.5838   -3.9278  -16.5800 N   0  0  0  0  0  0  0  0  0  0  0  0
   18.3316   -5.0662  -16.2006 C   0  0  0  0  0  0  0  0  0  0  0  0
   17.9254   -6.1997  -16.5202 O   0  0  0  0  0  0  0  0  0  0  0  0
   19.5956   -4.9412  -15.4266 C   0  0  0  0  0  0  0  0  0  0  0  0
   20.2901   -6.2716  -15.3754 C   0  0  0  0  0  0  0  0  0  0  0  0
   21.7741   -6.1818  -15.4628 C   0  0  2  0  0  0  0  0  0  0  0  0
   22.3189   -7.5368  -15.2377 N   0  0  0  0  0  0  0  0  0  0  0  0
   22.3327   -5.3311  -14.3915 C   0  0  0  0  0  0  0  0  0  0  0  0
   22.8412   -5.8588  -13.3483 O   0  0  0  0  0  0  0  0  0  0  0  0
   22.3479   -3.9595  -14.4362 O   0  0  0  0  0  0  0  0  0  0  0  0
  2  1  1  6
  3  2  1  0
  4  2  1  0
  4  5  1  1
  6  4  1  0
  7  6  2  0
  9 10  1  0
  9  8  1  0
 11 10  1  0
 12 11  1  6
 12 13  1  0
 13  6  1  0
 14 12  1  0
 14 15  2  0
 17 16  1  0
 17 19  1  0
 18 17  2  0
 19 20  1  0
 21 20  1  1
 21 22  1  0
 22 14  1  0
 23 21  1  0
 24 23  2  0
 25 23  1  0
M  END
$$$$
