VMQ.pdb
     RDKit          3D

 25 24  0  0  1  0  0  0  0  0999 V2000
   18.1554  -13.2648  -18.9108 C   0  0  0  0  0  0  0  0  0  0  0  0
   18.9855  -12.2910  -18.1404 C   0  0  1  0  0  0  0  0  0  0  0  0
   18.1290  -11.7416  -17.0127 C   0  0  0  0  0  0  0  0  0  0  0  0
   20.2121  -12.8840  -17.5286 C   0  0  2  0  0  0  0  0  0  0  0  0
   19.8312  -14.0180  -16.7212 N   0  0  0  0  0  0  0  0  0  0  0  0
   21.0098  -11.8959  -16.7537 C   0  0  0  0  0  0  0  0  0  0  0  0
   20.6643  -11.6144  -15.5775 O   0  0  0  0  0  0  0  0  0  0  0  0
   27.0610  -11.4690  -14.5685 C   0  0  0  0  0  0  0  0  0  0  0  0
   26.8968  -10.0467  -15.6979 S   0  0  0  0  0  0  0  0  0  0  0  0
   25.1539   -9.4943  -15.7112 C   0  0  0  0  0  0  0  0  0  0  0  0
   24.3781  -10.5179  -16.4790 C   0  0  0  0  0  0  0  0  0  0  0  0
   22.9054  -10.2456  -16.5442 C   0  0  2  0  0  0  0  0  0  0  0  0
   22.1599  -11.2393  -17.2735 N   0  0  0  0  0  0  0  0  0  0  0  0
   22.6020   -8.8657  -17.0018 C   0  0  0  0  0  0  0  0  0  0  0  0
   22.7179   -8.5689  -18.2176 O   0  0  0  0  0  0  0  0  0  0  0  0
   17.1840   -7.3164  -16.3909 N   0  0  0  0  0  0  0  0  0  0  0  0
   18.1202   -6.2620  -16.4937 C   0  0  0  0  0  0  0  0  0  0  0  0
   17.7913   -5.2050  -17.0650 O   0  0  0  0  0  0  0  0  0  0  0  0
   19.4926   -6.3860  -15.9337 C   0  0  0  0  0  0  0  0  0  0  0  0
   20.4933   -6.4228  -17.0527 C   0  0  0  0  0  0  0  0  0  0  0  0
   21.9096   -6.4715  -16.5947 C   0  0  2  0  0  0  0  0  0  0  0  0
   22.1785   -7.8432  -16.1156 N   0  0  0  0  0  0  0  0  0  0  0  0
   22.1397   -5.5800  -15.4389 C   0  0  0  0  0  0  0  0  0  0  0  0
   22.4366   -6.0665  -14.2986 O   0  0  0  0  0  0  0  0  0  0  0  0
   22.0560   -4.2117  -15.5023 O   0  0  0  0  0  0  0  0  0  0  0  0
  2  1  1  1
  3  2  1  0
  4  2  1  0
  4  5  1  1
  6  4  1  0
  7  6  2  0
  9 10  1  0
  9  8  1  0
 11 10  1  0
 12 11  1  6
 12 13  1  0
 13  6  1  0
 14 12  1  0
 14 15  2  0
 17 16  1  0
 17 19  1  0
 18 17  2  0
 19 20  1  0
 21 20  1  1
 21 22  1  0
 22 14  1  0
 23 21  1  0
 24 23  2  0
 25 23  1  0
M  END
$$$$
