VMQ.pdb
     RDKit          3D

 25 24  0  0  1  0  0  0  0  0999 V2000
   19.6629   -9.6080  -22.3238 C   0  0  0  0  0  0  0  0  0  0  0  0
   19.9033   -9.2452  -20.8949 C   0  0  1  0  0  0  0  0  0  0  0  0
   18.8624   -8.2132  -20.4969 C   0  0  0  0  0  0  0  0  0  0  0  0
   19.7880  -10.3927  -19.9460 C   0  0  2  0  0  0  0  0  0  0  0  0
   18.4868  -10.9981  -20.0992 N   0  0  0  0  0  0  0  0  0  0  0  0
   20.0562  -10.0074  -18.5343 C   0  0  0  0  0  0  0  0  0  0  0  0
   19.0931   -9.6885  -17.7909 O   0  0  0  0  0  0  0  0  0  0  0  0
   23.5930  -13.1445  -14.3412 C   0  0  0  0  0  0  0  0  0  0  0  0
   24.0865  -11.4522  -13.8746 S   0  0  0  0  0  0  0  0  0  0  0  0
   22.8191  -10.2762  -14.4698 C   0  0  0  0  0  0  0  0  0  0  0  0
   22.6185  -10.5523  -15.9268 C   0  0  0  0  0  0  0  0  0  0  0  0
   21.6189   -9.6510  -16.5871 C   0  0  2  0  0  0  0  0  0  0  0  0
   21.3601   -9.9777  -17.9660 N   0  0  0  0  0  0  0  0  0  0  0  0
   21.9388   -8.2130  -16.3995 C   0  0  0  0  0  0  0  0  0  0  0  0
   22.7555   -7.6470  -17.1692 O   0  0  0  0  0  0  0  0  0  0  0  0
   17.9119   -4.0359  -16.0238 N   0  0  0  0  0  0  0  0  0  0  0  0
   18.9964   -3.2248  -15.6176 C   0  0  0  0  0  0  0  0  0  0  0  0
   18.8231   -2.0000  -15.4702 O   0  0  0  0  0  0  0  0  0  0  0  0
   20.3432   -3.8019  -15.3615 C   0  0  0  0  0  0  0  0  0  0  0  0
   20.3078   -5.2861  -15.5863 C   0  0  0  0  0  0  0  0  0  0  0  0
   21.5943   -5.9732  -15.2849 C   0  0  2  0  0  0  0  0  0  0  0  0
   21.3557   -7.4290  -15.3721 N   0  0  0  0  0  0  0  0  0  0  0  0
   22.0405   -5.7122  -13.9006 C   0  0  0  0  0  0  0  0  0  0  0  0
   21.7629   -6.5355  -12.9677 O   0  0  0  0  0  0  0  0  0  0  0  0
   22.7619   -4.6060  -13.5274 O   0  0  0  0  0  0  0  0  0  0  0  0
  2  1  1  6
  3  2  1  0
  4  2  1  0
  4  5  1  1
  6  4  1  0
  7  6  2  0
  9 10  1  0
  9  8  1  0
 11 10  1  0
 12 11  1  6
 12 13  1  0
 13  6  1  0
 14 12  1  0
 14 15  2  0
 17 16  1  0
 17 19  1  0
 18 17  2  0
 19 20  1  0
 21 20  1  1
 21 22  1  0
 22 14  1  0
 23 21  1  0
 24 23  2  0
 25 23  1  0
M  END
$$$$
