VMQ.pdb
     RDKit          3D

 25 24  0  0  1  0  0  0  0  0999 V2000
   28.5084  -17.7985  -16.2258 C   0  0  0  0  0  0  0  0  0  0  0  0
   27.5150  -18.5614  -15.4122 C   0  0  1  0  0  0  0  0  0  0  0  0
   26.2591  -18.7278  -16.2500 C   0  0  0  0  0  0  0  0  0  0  0  0
   27.9735  -19.9245  -15.0096 C   0  0  2  0  0  0  0  0  0  0  0  0
   28.2683  -20.6892  -16.1976 N   0  0  0  0  0  0  0  0  0  0  0  0
   27.0032  -20.6259  -14.1266 C   0  0  0  0  0  0  0  0  0  0  0  0
   26.1150  -21.3511  -14.6437 O   0  0  0  0  0  0  0  0  0  0  0  0
   27.1968  -20.0531   -7.7964 C   0  0  0  0  0  0  0  0  0  0  0  0
   25.5487  -20.8334   -7.8010 S   0  0  0  0  0  0  0  0  0  0  0  0
   25.1167  -21.3037   -9.5144 C   0  0  0  0  0  0  0  0  0  0  0  0
   26.1616  -20.7099  -10.4058 C   0  0  0  0  0  0  0  0  0  0  0  0
   25.9489  -20.9857  -11.8640 C   0  0  2  0  0  0  0  0  0  0  0  0
   27.0207  -20.5229  -12.7079 N   0  0  0  0  0  0  0  0  0  0  0  0
   24.6189  -20.5286  -12.3410 C   0  0  0  0  0  0  0  0  0  0  0  0
   24.4037  -19.3029  -12.5174 O   0  0  0  0  0  0  0  0  0  0  0  0
   21.1011  -23.7934  -16.1096 N   0  0  0  0  0  0  0  0  0  0  0  0
   20.2807  -22.6530  -15.9504 C   0  0  0  0  0  0  0  0  0  0  0  0
   19.2640  -22.5267  -16.6591 O   0  0  0  0  0  0  0  0  0  0  0  0
   20.6044  -21.5977  -14.9534 C   0  0  0  0  0  0  0  0  0  0  0  0
   21.8762  -21.9519  -14.2379 C   0  0  0  0  0  0  0  0  0  0  0  0
   22.2860  -20.9581  -13.2072 C   0  0  2  0  0  0  0  0  0  0  0  0
   23.5557  -21.4260  -12.6136 N   0  0  0  0  0  0  0  0  0  0  0  0
   21.3132  -20.8918  -12.0968 C   0  0  0  0  0  0  0  0  0  0  0  0
   21.4920  -21.5834  -11.0409 O   0  0  0  0  0  0  0  0  0  0  0  0
   20.1860  -20.1092  -12.1158 O   0  0  0  0  0  0  0  0  0  0  0  0
  2  1  1  6
  3  2  1  0
  4  2  1  0
  4  5  1  6
  6  4  1  0
  7  6  2  0
  9 10  1  0
  9  8  1  0
 11 10  1  0
 12 11  1  1
 12 13  1  0
 13  6  1  0
 14 12  1  0
 14 15  2  0
 17 16  1  0
 17 19  1  0
 18 17  2  0
 19 20  1  0
 21 20  1  6
 21 22  1  0
 22 14  1  0
 23 21  1  0
 24 23  2  0
 25 23  1  0
M  END
$$$$
