VMQ.pdb
     RDKit          3D

 25 24  0  0  1  0  0  0  0  0999 V2000
   42.7986  -14.6701   -9.8951 C   0  0  0  0  0  0  0  0  0  0  0  0
   43.2051  -15.6508   -8.8445 C   0  0  1  0  0  0  0  0  0  0  0  0
   43.5943  -16.9429   -9.5416 C   0  0  0  0  0  0  0  0  0  0  0  0
   44.3707  -15.2136   -8.0193 C   0  0  2  0  0  0  0  0  0  0  0  0
   44.7730  -16.3034   -7.1629 N   0  0  0  0  0  0  0  0  0  0  0  0
   44.1006  -13.9722   -7.2453 C   0  0  0  0  0  0  0  0  0  0  0  0
   43.4217  -14.0424   -6.1888 O   0  0  0  0  0  0  0  0  0  0  0  0
   48.7491  -10.4870   -4.0379 C   0  0  0  0  0  0  0  0  0  0  0  0
   47.6666   -9.9394   -5.3993 S   0  0  0  0  0  0  0  0  0  0  0  0
   46.2463  -11.0837   -5.5286 C   0  0  0  0  0  0  0  0  0  0  0  0
   45.3839  -10.5836   -6.6445 C   0  0  0  0  0  0  0  0  0  0  0  0
   44.2156  -11.4693   -6.9574 C   0  0  2  0  0  0  0  0  0  0  0  0
   44.5728  -12.6885   -7.6364 N   0  0  0  0  0  0  0  0  0  0  0  0
   43.1188  -10.7419   -7.6455 C   0  0  0  0  0  0  0  0  0  0  0  0
   43.0820  -10.7059   -8.9014 O   0  0  0  0  0  0  0  0  0  0  0  0
   37.3189  -10.4623   -5.9629 N   0  0  0  0  0  0  0  0  0  0  0  0
   37.2908   -9.4776   -6.9770 C   0  0  0  0  0  0  0  0  0  0  0  0
   36.1989   -8.9917   -7.3283 O   0  0  0  0  0  0  0  0  0  0  0  0
   38.5386   -9.0070   -7.6359 C   0  0  0  0  0  0  0  0  0  0  0  0
   39.7211   -9.7205   -7.0464 C   0  0  0  0  0  0  0  0  0  0  0  0
   41.0248   -9.3304   -7.6515 C   0  0  2  0  0  0  0  0  0  0  0  0
   42.0879  -10.0708   -6.9407 N   0  0  0  0  0  0  0  0  0  0  0  0
   41.3142   -7.8962   -7.4447 C   0  0  0  0  0  0  0  0  0  0  0  0
   42.0985   -7.5249   -6.5107 O   0  0  0  0  0  0  0  0  0  0  0  0
   40.7824   -6.8919   -8.2140 O   0  0  0  0  0  0  0  0  0  0  0  0
  2  1  1  6
  3  2  1  0
  4  2  1  0
  4  5  1  1
  6  4  1  0
  7  6  2  0
  9 10  1  0
  9  8  1  0
 11 10  1  0
 12 11  1  6
 12 13  1  0
 13  6  1  0
 14 12  1  0
 14 15  2  0
 17 16  1  0
 17 19  1  0
 18 17  2  0
 19 20  1  0
 21 20  1  1
 21 22  1  0
 22 14  1  0
 23 21  1  0
 24 23  2  0
 25 23  1  0
M  END
$$$$
