VMQ.pdb
     RDKit          3D

 25 24  0  0  1  0  0  0  0  0999 V2000
   18.3627  -12.2198  -18.8744 C   0  0  0  0  0  0  0  0  0  0  0  0
   17.9945  -13.3109  -17.9231 C   0  0  1  0  0  0  0  0  0  0  0  0
   17.1645  -14.3298  -18.6845 C   0  0  0  0  0  0  0  0  0  0  0  0
   19.1646  -14.0293  -17.3355 C   0  0  2  0  0  0  0  0  0  0  0  0
   18.6836  -15.1152  -16.5155 N   0  0  0  0  0  0  0  0  0  0  0  0
   20.0791  -13.1299  -16.5821 C   0  0  0  0  0  0  0  0  0  0  0  0
   19.6821  -12.6099  -15.5078 O   0  0  0  0  0  0  0  0  0  0  0  0
   27.4834  -10.7084  -15.1457 C   0  0  0  0  0  0  0  0  0  0  0  0
   26.3332  -11.8512  -15.9801 S   0  0  0  0  0  0  0  0  0  0  0  0
   24.6231  -11.2437  -15.7573 C   0  0  0  0  0  0  0  0  0  0  0  0
   23.7212  -12.2175  -16.4482 C   0  0  0  0  0  0  0  0  0  0  0  0
   22.2626  -11.8949  -16.3215 C   0  0  2  0  0  0  0  0  0  0  0  0
   21.3987  -12.8178  -17.0123 N   0  0  0  0  0  0  0  0  0  0  0  0
   21.9615  -10.4806  -16.6599 C   0  0  0  0  0  0  0  0  0  0  0  0
   22.0977  -10.0764  -17.8422 O   0  0  0  0  0  0  0  0  0  0  0  0
   17.0443   -7.8305  -16.6302 N   0  0  0  0  0  0  0  0  0  0  0  0
   17.7958   -6.6353  -16.7058 C   0  0  0  0  0  0  0  0  0  0  0  0
   17.2136   -5.5603  -16.9449 O   0  0  0  0  0  0  0  0  0  0  0  0
   19.2698   -6.6320  -16.5060 C   0  0  0  0  0  0  0  0  0  0  0  0
   19.7535   -8.0372  -16.2913 C   0  0  0  0  0  0  0  0  0  0  0  0
   21.2211   -8.1419  -16.0604 C   0  0  2  0  0  0  0  0  0  0  0  0
   21.5181   -9.5423  -15.6940 N   0  0  0  0  0  0  0  0  0  0  0  0
   21.6526   -7.3166  -14.9131 C   0  0  0  0  0  0  0  0  0  0  0  0
   21.6448   -6.0444  -14.9949 O   0  0  0  0  0  0  0  0  0  0  0  0
   22.0774   -7.8366  -13.7162 O   0  0  0  0  0  0  0  0  0  0  0  0
  2  1  1  6
  3  2  1  0
  4  2  1  0
  4  5  1  1
  6  4  1  0
  7  6  2  0
  9 10  1  0
  9  8  1  0
 11 10  1  0
 12 11  1  6
 12 13  1  0
 13  6  1  0
 14 12  1  0
 14 15  2  0
 17 16  1  0
 17 19  1  0
 18 17  2  0
 19 20  1  0
 21 20  1  1
 21 22  1  0
 22 14  1  0
 23 21  1  0
 24 23  2  0
 25 23  1  0
M  END
$$$$
