VMQ.pdb
     RDKit          3D

 25 24  0  0  1  0  0  0  0  0999 V2000
   28.3634  -17.6610  -16.3091 C   0  0  0  0  0  0  0  0  0  0  0  0
   27.3600  -18.3770  -15.4656 C   0  0  1  0  0  0  0  0  0  0  0  0
   26.0783  -18.4979  -16.2715 C   0  0  0  0  0  0  0  0  0  0  0  0
   27.7725  -19.7549  -15.0633 C   0  0  2  0  0  0  0  0  0  0  0  0
   28.0327  -20.5315  -16.2516 N   0  0  0  0  0  0  0  0  0  0  0  0
   26.7834  -20.4200  -14.1731 C   0  0  0  0  0  0  0  0  0  0  0  0
   25.8908  -21.1462  -14.6809 O   0  0  0  0  0  0  0  0  0  0  0  0
   25.9384  -19.3096   -7.6034 C   0  0  0  0  0  0  0  0  0  0  0  0
   25.5817  -21.0830   -7.8334 S   0  0  0  0  0  0  0  0  0  0  0  0
   25.0484  -21.3648   -9.5594 C   0  0  0  0  0  0  0  0  0  0  0  0
   26.0553  -20.6961  -10.4414 C   0  0  0  0  0  0  0  0  0  0  0  0
   25.7458  -20.7938  -11.9050 C   0  0  2  0  0  0  0  0  0  0  0  0
   26.7875  -20.2806  -12.7573 N   0  0  0  0  0  0  0  0  0  0  0  0
   24.4134  -20.2319  -12.2432 C   0  0  0  0  0  0  0  0  0  0  0  0
   24.3261  -19.0786  -12.7351 O   0  0  0  0  0  0  0  0  0  0  0  0
   22.1666  -21.1732  -17.2294 N   0  0  0  0  0  0  0  0  0  0  0  0
   21.3891  -20.2880  -16.4479 C   0  0  0  0  0  0  0  0  0  0  0  0
   21.0345  -19.1957  -16.9306 O   0  0  0  0  0  0  0  0  0  0  0  0
   20.9838  -20.6318  -15.0586 C   0  0  0  0  0  0  0  0  0  0  0  0
   22.2064  -20.8113  -14.2055 C   0  0  0  0  0  0  0  0  0  0  0  0
   21.9661  -20.5915  -12.7523 C   0  0  2  0  0  0  0  0  0  0  0  0
   23.2075  -20.9477  -12.0342 N   0  0  0  0  0  0  0  0  0  0  0  0
   20.9170  -21.4920  -12.2309 C   0  0  0  0  0  0  0  0  0  0  0  0
   21.2073  -22.6804  -11.8720 O   0  0  0  0  0  0  0  0  0  0  0  0
   19.5996  -21.1315  -12.0967 O   0  0  0  0  0  0  0  0  0  0  0  0
  2  1  1  6
  3  2  1  0
  4  2  1  0
  4  5  1  6
  6  4  1  0
  7  6  2  0
  9 10  1  0
  9  8  1  0
 11 10  1  0
 12 11  1  1
 12 13  1  0
 13  6  1  0
 14 12  1  0
 14 15  2  0
 17 16  1  0
 17 19  1  0
 18 17  2  0
 19 20  1  0
 21 20  1  6
 21 22  1  0
 22 14  1  0
 23 21  1  0
 24 23  2  0
 25 23  1  0
M  END
$$$$
