VMQ.pdb
     RDKit          3D

 25 24  0  0  1  0  0  0  0  0999 V2000
   25.7962  -20.5444  -16.8129 C   0  0  0  0  0  0  0  0  0  0  0  0
   26.3924  -21.9029  -16.9854 C   0  0  1  0  0  0  0  0  0  0  0  0
   27.4734  -21.8037  -18.0477 C   0  0  0  0  0  0  0  0  0  0  0  0
   27.0231  -22.4543  -15.7490 C   0  0  2  0  0  0  0  0  0  0  0  0
   27.5174  -23.7814  -16.0274 N   0  0  0  0  0  0  0  0  0  0  0  0
   26.1093  -22.4392  -14.5751 C   0  0  0  0  0  0  0  0  0  0  0  0
   25.2055  -23.3096  -14.4889 O   0  0  0  0  0  0  0  0  0  0  0  0
   27.5536  -20.4312   -8.7757 C   0  0  0  0  0  0  0  0  0  0  0  0
   25.7766  -20.0552   -8.6143 S   0  0  0  0  0  0  0  0  0  0  0  0
   24.8811  -20.7895  -10.0293 C   0  0  0  0  0  0  0  0  0  0  0  0
   25.8354  -20.8181  -11.1815 C   0  0  0  0  0  0  0  0  0  0  0  0
   25.2624  -21.4091  -12.4345 C   0  0  2  0  0  0  0  0  0  0  0  0
   26.1989  -21.4818  -13.5267 N   0  0  0  0  0  0  0  0  0  0  0  0
   23.9825  -20.7690  -12.8315 C   0  0  0  0  0  0  0  0  0  0  0  0
   23.9786  -19.5856  -13.2551 O   0  0  0  0  0  0  0  0  0  0  0  0
   20.2418  -24.8280  -15.9911 N   0  0  0  0  0  0  0  0  0  0  0  0
   20.0546  -23.8854  -14.9541 C   0  0  0  0  0  0  0  0  0  0  0  0
   19.0246  -23.9404  -14.2556 O   0  0  0  0  0  0  0  0  0  0  0  0
   21.0621  -22.8267  -14.6770 C   0  0  0  0  0  0  0  0  0  0  0  0
   20.5475  -21.9074  -13.6070 C   0  0  0  0  0  0  0  0  0  0  0  0
   21.4917  -20.8140  -13.2451 C   0  0  2  0  0  0  0  0  0  0  0  0
   22.7366  -21.4413  -12.7549 N   0  0  0  0  0  0  0  0  0  0  0  0
   20.9760  -19.9963  -12.1276 C   0  0  0  0  0  0  0  0  0  0  0  0
   21.4174  -20.1700  -10.9442 O   0  0  0  0  0  0  0  0  0  0  0  0
   20.0196  -19.0228  -12.2725 O   0  0  0  0  0  0  0  0  0  0  0  0
  2  1  1  1
  3  2  1  0
  4  2  1  0
  4  5  1  6
  6  4  1  0
  7  6  2  0
  9 10  1  0
  9  8  1  0
 11 10  1  0
 12 11  1  1
 12 13  1  0
 13  6  1  0
 14 12  1  0
 14 15  2  0
 17 16  1  0
 17 19  1  0
 18 17  2  0
 19 20  1  0
 21 20  1  1
 21 22  1  0
 22 14  1  0
 23 21  1  0
 24 23  2  0
 25 23  1  0
M  END
$$$$
