VMQ.pdb
     RDKit          3D

 25 24  0  0  1  0  0  0  0  0999 V2000
   17.4854   -8.0825  -18.0461 C   0  0  0  0  0  0  0  0  0  0  0  0
   16.9823   -9.4028  -17.5616 C   0  0  1  0  0  0  0  0  0  0  0  0
   16.1485  -10.0175  -18.6724 C   0  0  0  0  0  0  0  0  0  0  0  0
   18.0598  -10.3765  -17.2136 C   0  0  2  0  0  0  0  0  0  0  0  0
   17.4527  -11.6214  -16.8078 N   0  0  0  0  0  0  0  0  0  0  0  0
   19.0001   -9.8579  -16.1840 C   0  0  0  0  0  0  0  0  0  0  0  0
   18.6659   -9.8958  -14.9720 O   0  0  0  0  0  0  0  0  0  0  0  0
   23.8519  -13.3859  -14.2801 C   0  0  0  0  0  0  0  0  0  0  0  0
   23.9819  -11.6531  -14.8328 S   0  0  0  0  0  0  0  0  0  0  0  0
   22.3143  -10.9031  -14.8403 C   0  0  0  0  0  0  0  0  0  0  0  0
   22.4635   -9.5143  -15.3769 C   0  0  0  0  0  0  0  0  0  0  0  0
   21.1703   -8.7669  -15.5051 C   0  0  2  0  0  0  0  0  0  0  0  0
   20.2767   -9.3124  -16.4947 N   0  0  0  0  0  0  0  0  0  0  0  0
   21.3724   -7.3053  -15.6733 C   0  0  0  0  0  0  0  0  0  0  0  0
   21.7828   -6.8517  -16.7713 O   0  0  0  0  0  0  0  0  0  0  0  0
   16.7189   -5.5104  -15.9420 N   0  0  0  0  0  0  0  0  0  0  0  0
   17.6686   -4.9023  -15.0893 C   0  0  0  0  0  0  0  0  0  0  0  0
   17.4334   -4.8238  -13.8685 O   0  0  0  0  0  0  0  0  0  0  0  0
   18.9457   -4.3524  -15.6177 C   0  0  0  0  0  0  0  0  0  0  0  0
   19.9608   -4.2827  -14.5135 C   0  0  0  0  0  0  0  0  0  0  0  0
   21.2639   -4.9204  -14.8501 C   0  0  2  0  0  0  0  0  0  0  0  0
   21.1198   -6.3750  -14.6337 N   0  0  0  0  0  0  0  0  0  0  0  0
   22.3400   -4.4743  -13.9410 C   0  0  0  0  0  0  0  0  0  0  0  0
   22.7368   -5.2283  -12.9927 O   0  0  0  0  0  0  0  0  0  0  0  0
   22.9721   -3.2606  -14.0446 O   0  0  0  0  0  0  0  0  0  0  0  0
  2  1  1  6
  3  2  1  0
  4  2  1  0
  4  5  1  1
  6  4  1  0
  7  6  2  0
  9 10  1  0
  9  8  1  0
 11 10  1  0
 12 11  1  6
 12 13  1  0
 13  6  1  0
 14 12  1  0
 14 15  2  0
 17 16  1  0
 17 19  1  0
 18 17  2  0
 19 20  1  0
 21 20  1  1
 21 22  1  0
 22 14  1  0
 23 21  1  0
 24 23  2  0
 25 23  1  0
M  END
$$$$
