VMQ.pdb
     RDKit          3D

 25 24  0  0  1  0  0  0  0  0999 V2000
   28.8836  -17.6227  -16.8821 C   0  0  0  0  0  0  0  0  0  0  0  0
   28.3485  -18.7243  -16.0269 C   0  0  1  0  0  0  0  0  0  0  0  0
   28.9715  -18.5858  -14.6486 C   0  0  0  0  0  0  0  0  0  0  0  0
   26.8650  -18.6995  -15.8569 C   0  0  2  0  0  0  0  0  0  0  0  0
   26.4582  -17.3650  -15.4873 N   0  0  0  0  0  0  0  0  0  0  0  0
   26.3750  -19.7158  -14.8872 C   0  0  0  0  0  0  0  0  0  0  0  0
   26.3726  -20.9293  -15.2177 O   0  0  0  0  0  0  0  0  0  0  0  0
   27.3808  -20.4470   -8.6132 C   0  0  0  0  0  0  0  0  0  0  0  0
   25.5748  -20.6981   -8.6362 S   0  0  0  0  0  0  0  0  0  0  0  0
   25.0582  -21.1567  -10.3291 C   0  0  0  0  0  0  0  0  0  0  0  0
   25.5848  -20.0987  -11.2470 C   0  0  0  0  0  0  0  0  0  0  0  0
   25.2975  -20.3498  -12.6968 C   0  0  2  0  0  0  0  0  0  0  0  0
   25.9009  -19.3904  -13.5860 N   0  0  0  0  0  0  0  0  0  0  0  0
   23.8487  -20.5338  -12.9659 C   0  0  0  0  0  0  0  0  0  0  0  0
   23.0992  -19.5307  -13.0747 O   0  0  0  0  0  0  0  0  0  0  0  0
   21.3249  -26.0304  -14.6258 N   0  0  0  0  0  0  0  0  0  0  0  0
   20.2136  -25.1713  -14.7868 C   0  0  0  0  0  0  0  0  0  0  0  0
   19.1363  -25.6362  -15.2053 O   0  0  0  0  0  0  0  0  0  0  0  0
   20.3014  -23.7214  -14.4670 C   0  0  0  0  0  0  0  0  0  0  0  0
   21.6942  -23.3870  -14.0163 C   0  0  0  0  0  0  0  0  0  0  0  0
   21.8685  -21.9690  -13.5954 C   0  0  2  0  0  0  0  0  0  0  0  0
   23.2552  -21.8134  -13.1093 N   0  0  0  0  0  0  0  0  0  0  0  0
   20.9926  -21.6272  -12.4555 C   0  0  0  0  0  0  0  0  0  0  0  0
   21.4050  -21.7757  -11.2583 O   0  0  0  0  0  0  0  0  0  0  0  0
   19.7168  -21.1405  -12.5927 O   0  0  0  0  0  0  0  0  0  0  0  0
  2  1  1  6
  3  2  1  0
  4  2  1  0
  4  5  1  1
  6  4  1  0
  7  6  2  0
  9 10  1  0
  9  8  1  0
 11 10  1  0
 12 11  1  1
 12 13  1  0
 13  6  1  0
 14 12  1  0
 14 15  2  0
 17 16  1  0
 17 19  1  0
 18 17  2  0
 19 20  1  0
 21 20  1  1
 21 22  1  0
 22 14  1  0
 23 21  1  0
 24 23  2  0
 25 23  1  0
M  END
$$$$
