HKV.pdb
     RDKit          3D

 27 27  0  0  1  0  0  0  0  0999 V2000
   28.1331  -20.4805  -17.8122 N   0  0  0  0  0  0  0  0  0  0  0  0
   27.5469  -19.5258  -16.9084 C   0  0  1  0  0  0  0  0  0  0  0  0
   26.9151  -18.3658  -17.6732 C   0  0  0  0  0  0  0  0  0  0  0  0
   27.9980  -17.5982  -18.3444 C   0  0  0  0  0  0  0  0  0  0  0  0
   28.7663  -16.6217  -17.7551 C   0  0  0  0  0  0  0  0  0  0  0  0
   29.6507  -16.1321  -18.6419 N   0  0  0  0  0  0  0  0  0  0  0  0
   29.4168  -16.8232  -19.7930 C   0  0  0  0  0  0  0  0  0  0  0  0
   28.4214  -17.7003  -19.5993 N   0  0  0  0  0  0  0  0  0  0  0  0
   26.4643  -20.1508  -16.1186 C   0  0  0  0  0  0  0  0  0  0  0  0
   25.7354  -21.0056  -16.6659 O   0  0  0  0  0  0  0  0  0  0  0  0
   26.2814  -19.7646  -14.7622 N   0  0  0  0  0  0  0  0  0  0  0  0
   25.2997  -20.3715  -13.9349 C   0  0  1  0  0  0  0  0  0  0  0  0
   25.6048  -20.2600  -12.4800 C   0  0  0  0  0  0  0  0  0  0  0  0
   24.6768  -20.8551  -11.5056 C   0  0  0  0  0  0  0  0  0  0  0  0
   25.0642  -20.6796  -10.0683 C   0  0  0  0  0  0  0  0  0  0  0  0
   23.9960  -21.2832   -9.1477 C   0  0  0  0  0  0  0  0  0  0  0  0
   24.4843  -21.1801   -7.8020 N   0  0  0  0  0  0  0  0  0  0  0  0
   23.9592  -19.7209  -14.2085 C   0  0  0  0  0  0  0  0  0  0  0  0
   23.8134  -18.4724  -14.0650 O   0  0  0  0  0  0  0  0  0  0  0  0
   21.9939  -19.6496  -17.1832 C   0  0  0  0  0  0  0  0  0  0  0  0
   20.9853  -20.1206  -16.1566 C   0  0  1  0  0  0  0  0  0  0  0  0
   20.6542  -21.5814  -16.3491 C   0  0  0  0  0  0  0  0  0  0  0  0
   21.5415  -19.8384  -14.7775 C   0  0  2  0  0  0  0  0  0  0  0  0
   22.8478  -20.4757  -14.6257 N   0  0  0  0  0  0  0  0  0  0  0  0
   20.5666  -20.3826  -13.7971 C   0  0  0  0  0  0  0  0  0  0  0  0
   20.7521  -21.4046  -13.1276 O   0  0  0  0  0  0  0  0  0  0  0  0
   19.3742  -19.6966  -13.6258 O   0  0  0  0  0  0  0  0  0  0  0  0
  2  1  1  6
  2  3  1  0
  4  5  2  0
  4  3  1  0
  6  5  1  0
  7  8  2  0
  7  6  1  0
  8  4  1  0
  9  2  1  0
  9 11  1  0
 10  9  2  0
 12 11  1  0
 12 13  1  1
 13 14  1  0
 14 15  1  0
 16 15  1  0
 16 17  1  0
 18 12  1  0
 19 18  2  0
 21 20  1  6
 21 23  1  0
 22 21  1  0
 23 25  1  0
 23 24  1  6
 24 18  1  0
 25 27  1  0
 26 25  2  0
M  END
$$$$
