HKV.pdb
     RDKit          3D

 27 27  0  0  1  0  0  0  0  0999 V2000
   21.1088  -11.5483  -20.2811 N   0  0  0  0  0  0  0  0  0  0  0  0
   21.8904  -10.5589  -19.5865 C   0  0  1  0  0  0  0  0  0  0  0  0
   22.5858   -9.6222  -20.5707 C   0  0  0  0  0  0  0  0  0  0  0  0
   23.5925  -10.4055  -21.3359 C   0  0  0  0  0  0  0  0  0  0  0  0
   24.9563  -10.2536  -21.2472 C   0  0  0  0  0  0  0  0  0  0  0  0
   25.5719  -11.1181  -22.0729 N   0  0  0  0  0  0  0  0  0  0  0  0
   24.5643  -11.8098  -22.6760 C   0  0  0  0  0  0  0  0  0  0  0  0
   23.3809  -11.3709  -22.2235 N   0  0  0  0  0  0  0  0  0  0  0  0
   21.0257   -9.7126  -18.7366 C   0  0  0  0  0  0  0  0  0  0  0  0
   20.0123   -9.1859  -19.2437 O   0  0  0  0  0  0  0  0  0  0  0  0
   21.3681   -9.5206  -17.3698 N   0  0  0  0  0  0  0  0  0  0  0  0
   20.5633   -8.7421  -16.4965 C   0  0  1  0  0  0  0  0  0  0  0  0
   19.8167   -9.5594  -15.4981 C   0  0  0  0  0  0  0  0  0  0  0  0
   18.3566   -9.6876  -15.6250 C   0  0  0  0  0  0  0  0  0  0  0  0
   17.6954  -10.5144  -14.5638 C   0  0  0  0  0  0  0  0  0  0  0  0
   16.1945  -10.6517  -14.8487 C   0  0  0  0  0  0  0  0  0  0  0  0
   15.6182  -11.3854  -13.7580 N   0  0  0  0  0  0  0  0  0  0  0  0
   21.4494   -7.7565  -15.7628 C   0  0  0  0  0  0  0  0  0  0  0  0
   22.5377   -8.1391  -15.2434 O   0  0  0  0  0  0  0  0  0  0  0  0
   22.2985   -4.0742  -16.9492 C   0  0  0  0  0  0  0  0  0  0  0  0
   21.8086   -4.0744  -15.5162 C   0  0  1  0  0  0  0  0  0  0  0  0
   20.3765   -3.6030  -15.4305 C   0  0  0  0  0  0  0  0  0  0  0  0
   21.9855   -5.4678  -14.9522 C   0  0  2  0  0  0  0  0  0  0  0  0
   21.0942   -6.4011  -15.6377 N   0  0  0  0  0  0  0  0  0  0  0  0
   21.6654   -5.3928  -13.5032 C   0  0  0  0  0  0  0  0  0  0  0  0
   20.6819   -5.9286  -12.9807 O   0  0  0  0  0  0  0  0  0  0  0  0
   22.5278   -4.6750  -12.6893 O   0  0  0  0  0  0  0  0  0  0  0  0
  2  1  1  6
  2  3  1  0
  4  5  2  0
  4  3  1  0
  6  5  1  0
  7  8  2  0
  7  6  1  0
  8  4  1  0
  9  2  1  0
  9 11  1  0
 10  9  2  0
 12 11  1  0
 12 13  1  1
 13 14  1  0
 14 15  1  0
 16 15  1  0
 16 17  1  0
 18 12  1  0
 19 18  2  0
 21 20  1  6
 21 23  1  0
 22 21  1  0
 23 25  1  0
 23 24  1  6
 24 18  1  0
 25 27  1  0
 26 25  2  0
M  END
$$$$
