HKV.pdb
     RDKit          3D

 27 27  0  0  1  0  0  0  0  0999 V2000
   28.4440  -21.0726  -16.8226 N   0  0  0  0  0  0  0  0  0  0  0  0
   27.9924  -20.1264  -15.8363 C   0  0  1  0  0  0  0  0  0  0  0  0
   27.3664  -18.9026  -16.4996 C   0  0  0  0  0  0  0  0  0  0  0  0
   28.4437  -18.1275  -17.1711 C   0  0  0  0  0  0  0  0  0  0  0  0
   29.7909  -18.3863  -17.0749 C   0  0  0  0  0  0  0  0  0  0  0  0
   30.4854  -17.4961  -17.8053 N   0  0  0  0  0  0  0  0  0  0  0  0
   29.5438  -16.6797  -18.3568 C   0  0  0  0  0  0  0  0  0  0  0  0
   28.3220  -17.0709  -17.9670 N   0  0  0  0  0  0  0  0  0  0  0  0
   26.9462  -20.7243  -14.9795 C   0  0  0  0  0  0  0  0  0  0  0  0
   26.2586  -21.6634  -15.4345 O   0  0  0  0  0  0  0  0  0  0  0  0
   26.7502  -20.2175  -13.6653 N   0  0  0  0  0  0  0  0  0  0  0  0
   25.7666  -20.7539  -12.7928 C   0  0  1  0  0  0  0  0  0  0  0  0
   26.0417  -20.4774  -11.3540 C   0  0  0  0  0  0  0  0  0  0  0  0
   25.1108  -20.9881  -10.3355 C   0  0  0  0  0  0  0  0  0  0  0  0
   25.4671  -20.6483   -8.9198 C   0  0  0  0  0  0  0  0  0  0  0  0
   24.4671  -21.2864   -7.9474 C   0  0  0  0  0  0  0  0  0  0  0  0
   24.9208  -20.9964   -6.6169 N   0  0  0  0  0  0  0  0  0  0  0  0
   24.4176  -20.1693  -13.1578 C   0  0  0  0  0  0  0  0  0  0  0  0
   24.2459  -18.9159  -13.1685 O   0  0  0  0  0  0  0  0  0  0  0  0
   22.3418  -20.4324  -16.1979 C   0  0  0  0  0  0  0  0  0  0  0  0
   21.4691  -20.9395  -15.0690 C   0  0  1  0  0  0  0  0  0  0  0  0
   21.3917  -22.4476  -15.0761 C   0  0  0  0  0  0  0  0  0  0  0  0
   22.0175  -20.4024  -13.7645 C   0  0  2  0  0  0  0  0  0  0  0  0
   23.3266  -20.9920  -13.4923 N   0  0  0  0  0  0  0  0  0  0  0  0
   21.0412  -20.7610  -12.7033 C   0  0  0  0  0  0  0  0  0  0  0  0
   21.2467  -21.6096  -11.8288 O   0  0  0  0  0  0  0  0  0  0  0  0
   19.8234  -20.0988  -12.6980 O   0  0  0  0  0  0  0  0  0  0  0  0
  2  1  1  6
  2  3  1  0
  4  5  2  0
  4  3  1  0
  6  5  1  0
  7  8  2  0
  7  6  1  0
  8  4  1  0
  9  2  1  0
  9 11  1  0
 10  9  2  0
 12 11  1  0
 12 13  1  1
 13 14  1  0
 14 15  1  0
 16 15  1  0
 16 17  1  0
 18 12  1  0
 19 18  2  0
 21 20  1  6
 21 23  1  0
 22 21  1  0
 23 25  1  0
 23 24  1  1
 24 18  1  0
 25 27  1  0
 26 25  2  0
M  END
$$$$
