HKV.pdb
     RDKit          3D

 27 27  0  0  1  0  0  0  0  0999 V2000
   22.2984  -12.3338  -18.4400 N   0  0  0  0  0  0  0  0  0  0  0  0
   22.4015  -11.7397  -17.1329 C   0  0  1  0  0  0  0  0  0  0  0  0
   23.8620  -11.5786  -16.7196 C   0  0  0  0  0  0  0  0  0  0  0  0
   24.4571  -12.9317  -16.5540 C   0  0  0  0  0  0  0  0  0  0  0  0
   24.4176  -13.6850  -15.4042 C   0  0  0  0  0  0  0  0  0  0  0  0
   25.0503  -14.8557  -15.5972 N   0  0  0  0  0  0  0  0  0  0  0  0
   25.4835  -14.8150  -16.8887 C   0  0  0  0  0  0  0  0  0  0  0  0
   25.1199  -13.6534  -17.4510 N   0  0  0  0  0  0  0  0  0  0  0  0
   21.8086  -10.3852  -17.1266 C   0  0  0  0  0  0  0  0  0  0  0  0
   22.1382   -9.5789  -18.0227 O   0  0  0  0  0  0  0  0  0  0  0  0
   20.8825  -10.0364  -16.1053 N   0  0  0  0  0  0  0  0  0  0  0  0
   20.1604   -8.8140  -16.1325 C   0  0  1  0  0  0  0  0  0  0  0  0
   18.7567   -8.9482  -15.6489 C   0  0  0  0  0  0  0  0  0  0  0  0
   17.8573   -7.7866  -15.7284 C   0  0  0  0  0  0  0  0  0  0  0  0
   16.4393   -8.0502  -15.3200 C   0  0  0  0  0  0  0  0  0  0  0  0
   15.5632   -6.8233  -15.6025 C   0  0  0  0  0  0  0  0  0  0  0  0
   14.2338   -7.1372  -15.1616 N   0  0  0  0  0  0  0  0  0  0  0  0
   20.8835   -7.7992  -15.2709 C   0  0  0  0  0  0  0  0  0  0  0  0
   21.2707   -8.1091  -14.1070 O   0  0  0  0  0  0  0  0  0  0  0  0
   24.0242   -6.0145  -16.0684 C   0  0  0  0  0  0  0  0  0  0  0  0
   23.0168   -4.9368  -15.7262 C   0  0  1  0  0  0  0  0  0  0  0  0
   22.4935   -4.2651  -16.9734 C   0  0  0  0  0  0  0  0  0  0  0  0
   21.9084   -5.5631  -14.9075 C   0  0  2  0  0  0  0  0  0  0  0  0
   21.1440   -6.4962  -15.7325 N   0  0  0  0  0  0  0  0  0  0  0  0
   21.0477   -4.4534  -14.4222 C   0  0  0  0  0  0  0  0  0  0  0  0
   19.9229   -4.2013  -14.8677 O   0  0  0  0  0  0  0  0  0  0  0  0
   21.5423   -3.6522  -13.4048 O   0  0  0  0  0  0  0  0  0  0  0  0
  2  1  1  6
  2  3  1  0
  4  5  2  0
  4  3  1  0
  6  5  1  0
  7  8  2  0
  7  6  1  0
  8  4  1  0
  9  2  1  0
  9 11  1  0
 10  9  2  0
 12 11  1  0
 12 13  1  1
 13 14  1  0
 14 15  1  0
 16 15  1  0
 16 17  1  0
 18 12  1  0
 19 18  2  0
 21 20  1  6
 21 23  1  0
 22 21  1  0
 23 25  1  0
 23 24  1  6
 24 18  1  0
 25 27  1  0
 26 25  2  0
M  END
$$$$
