HKV.pdb
     RDKit          3D

 27 27  0  0  1  0  0  0  0  0999 V2000
   28.0887  -32.0769  -17.6339 N   0  0  0  0  0  0  0  0  0  0  0  0
   27.9354  -30.6551  -17.7981 C   0  0  1  0  0  0  0  0  0  0  0  0
   27.1928  -30.0450  -16.6124 C   0  0  0  0  0  0  0  0  0  0  0  0
   25.7701  -30.4740  -16.6758 C   0  0  0  0  0  0  0  0  0  0  0  0
   24.7543  -29.7795  -17.2897 C   0  0  0  0  0  0  0  0  0  0  0  0
   23.5944  -30.4474  -17.1606 N   0  0  0  0  0  0  0  0  0  0  0  0
   23.9093  -31.5700  -16.4549 C   0  0  0  0  0  0  0  0  0  0  0  0
   25.2196  -31.5724  -16.1706 N   0  0  0  0  0  0  0  0  0  0  0  0
   29.2551  -29.9909  -17.8575 C   0  0  0  0  0  0  0  0  0  0  0  0
   30.1881  -30.4408  -17.1584 O   0  0  0  0  0  0  0  0  0  0  0  0
   29.4278  -28.8620  -18.7049 N   0  0  0  0  0  0  0  0  0  0  0  0
   30.6944  -28.2459  -18.8855 C   0  0  1  0  0  0  0  0  0  0  0  0
   30.9576  -27.8430  -20.2964 C   0  0  0  0  0  0  0  0  0  0  0  0
   32.2495  -27.2266  -20.6365 C   0  0  0  0  0  0  0  0  0  0  0  0
   32.4315  -26.8877  -22.0852 C   0  0  0  0  0  0  0  0  0  0  0  0
   33.8497  -26.3611  -22.3384 C   0  0  0  0  0  0  0  0  0  0  0  0
   33.9495  -26.0591  -23.7381 N   0  0  0  0  0  0  0  0  0  0  0  0
   30.7725  -27.0191  -18.0001 C   0  0  0  0  0  0  0  0  0  0  0  0
   29.8223  -26.1840  -17.9797 O   0  0  0  0  0  0  0  0  0  0  0  0
   34.3580  -25.3431  -16.6713 C   0  0  0  0  0  0  0  0  0  0  0  0
   33.2707  -25.5001  -15.6291 C   0  0  1  0  0  0  0  0  0  0  0  0
   33.3136  -24.3740  -14.6238 C   0  0  0  0  0  0  0  0  0  0  0  0
   31.9369  -25.5800  -16.3401 C   0  0  2  0  0  0  0  0  0  0  0  0
   31.8905  -26.7731  -17.1825 N   0  0  0  0  0  0  0  0  0  0  0  0
   31.8066  -24.3459  -17.1573 C   0  0  0  0  0  0  0  0  0  0  0  0
   32.2592  -24.2190  -18.3002 O   0  0  0  0  0  0  0  0  0  0  0  0
   31.1336  -23.2710  -16.5978 O   0  0  0  0  0  0  0  0  0  0  0  0
  2  1  1  1
  2  3  1  0
  4  5  2  0
  4  3  1  0
  6  5  1  0
  7  8  2  0
  7  6  1  0
  8  4  1  0
  9  2  1  0
  9 11  1  0
 10  9  2  0
 12 11  1  0
 12 13  1  6
 13 14  1  0
 14 15  1  0
 16 15  1  0
 16 17  1  0
 18 12  1  0
 19 18  2  0
 21 20  1  6
 21 23  1  0
 22 21  1  0
 23 25  1  0
 23 24  1  6
 24 18  1  0
 25 27  1  0
 26 25  2  0
M  END
$$$$
