HKV.pdb
     RDKit          3D

 27 27  0  0  1  0  0  0  0  0999 V2000
   22.5129  -21.5438  -13.8906 N   0  0  0  0  0  0  0  0  0  0  0  0
   22.3222  -20.1657  -13.5214 C   0  0  1  0  0  0  0  0  0  0  0  0
   23.3800  -19.7179  -12.5163 C   0  0  0  0  0  0  0  0  0  0  0  0
   23.1152  -20.3965  -11.2194 C   0  0  0  0  0  0  0  0  0  0  0  0
   22.1270  -21.3256  -10.9927 C   0  0  0  0  0  0  0  0  0  0  0  0
   22.1651  -21.7374   -9.7132 N   0  0  0  0  0  0  0  0  0  0  0  0
   23.1958  -21.0464   -9.1498 C   0  0  0  0  0  0  0  0  0  0  0  0
   23.7572  -20.2448  -10.0664 N   0  0  0  0  0  0  0  0  0  0  0  0
   22.4605  -19.2850  -14.7011 C   0  0  0  0  0  0  0  0  0  0  0  0
   23.5122  -19.3396  -15.3739 O   0  0  0  0  0  0  0  0  0  0  0  0
   21.3978  -18.4023  -15.0381 N   0  0  0  0  0  0  0  0  0  0  0  0
   21.3881  -17.6690  -16.2541 C   0  0  1  0  0  0  0  0  0  0  0  0
   20.0544  -17.6497  -16.9198 C   0  0  0  0  0  0  0  0  0  0  0  0
   19.6953  -18.7429  -17.8366 C   0  0  0  0  0  0  0  0  0  0  0  0
   19.1214  -19.9620  -17.1799 C   0  0  0  0  0  0  0  0  0  0  0  0
   18.7769  -21.0250  -18.2306 C   0  0  0  0  0  0  0  0  0  0  0  0
   18.2887  -22.1774  -17.5281 N   0  0  0  0  0  0  0  0  0  0  0  0
   21.8175  -16.2443  -15.9698 C   0  0  0  0  0  0  0  0  0  0  0  0
   21.1994  -15.5495  -15.1119 O   0  0  0  0  0  0  0  0  0  0  0  0
   25.1450  -14.7969  -14.9152 C   0  0  0  0  0  0  0  0  0  0  0  0
   24.7548  -14.1291  -16.2171 C   0  0  1  0  0  0  0  0  0  0  0  0
   25.5164  -14.7180  -17.3806 C   0  0  0  0  0  0  0  0  0  0  0  0
   23.2569  -14.2609  -16.3902 C   0  0  2  0  0  0  0  0  0  0  0  0
   22.9040  -15.6563  -16.6426 N   0  0  0  0  0  0  0  0  0  0  0  0
   22.8758  -13.3992  -17.5392 C   0  0  0  0  0  0  0  0  0  0  0  0
   22.8962  -12.1638  -17.5174 O   0  0  0  0  0  0  0  0  0  0  0  0
   22.4722  -14.0256  -18.7081 O   0  0  0  0  0  0  0  0  0  0  0  0
  2  1  1  6
  2  3  1  0
  4  5  2  0
  4  3  1  0
  6  5  1  0
  7  8  2  0
  7  6  1  0
  8  4  1  0
  9  2  1  0
  9 11  1  0
 10  9  2  0
 12 11  1  0
 12 13  1  1
 13 14  1  0
 14 15  1  0
 16 15  1  0
 16 17  1  0
 18 12  1  0
 19 18  2  0
 21 20  1  1
 21 23  1  0
 22 21  1  0
 23 25  1  0
 23 24  1  6
 24 18  1  0
 25 27  1  0
 26 25  2  0
M  END
$$$$
