HKV.pdb
     RDKit          3D

 27 27  0  0  1  0  0  0  0  0999 V2000
   18.2061  -23.0968  -13.2297 N   0  0  0  0  0  0  0  0  0  0  0  0
   18.7284  -22.8982  -11.9032 C   0  0  1  0  0  0  0  0  0  0  0  0
   18.3564  -21.5170  -11.3706 C   0  0  0  0  0  0  0  0  0  0  0  0
   19.0737  -20.4924  -12.1756 C   0  0  0  0  0  0  0  0  0  0  0  0
   18.4897  -19.6354  -13.0786 C   0  0  0  0  0  0  0  0  0  0  0  0
   19.4230  -18.8400  -13.6305 N   0  0  0  0  0  0  0  0  0  0  0  0
   20.5976  -19.2195  -13.0530 C   0  0  0  0  0  0  0  0  0  0  0  0
   20.3724  -20.2130  -12.1812 N   0  0  0  0  0  0  0  0  0  0  0  0
   18.1530  -23.8831  -10.9623 C   0  0  0  0  0  0  0  0  0  0  0  0
   16.9107  -24.0049  -10.9026 O   0  0  0  0  0  0  0  0  0  0  0  0
   19.0243  -24.6629  -10.1531 N   0  0  0  0  0  0  0  0  0  0  0  0
   18.5478  -25.7374   -9.3564 C   0  0  1  0  0  0  0  0  0  0  0  0
   19.3635  -26.9779   -9.4915 C   0  0  0  0  0  0  0  0  0  0  0  0
   19.5717  -27.5565  -10.8281 C   0  0  0  0  0  0  0  0  0  0  0  0
   20.4266  -28.7872  -10.8629 C   0  0  0  0  0  0  0  0  0  0  0  0
   20.5185  -29.3358  -12.2923 C   0  0  0  0  0  0  0  0  0  0  0  0
   21.4036  -30.4652  -12.2602 N   0  0  0  0  0  0  0  0  0  0  0  0
   18.5441  -25.3058   -7.9043 C   0  0  0  0  0  0  0  0  0  0  0  0
   19.5003  -24.6204   -7.4387 O   0  0  0  0  0  0  0  0  0  0  0  0
   15.4898  -23.8076   -6.0186 C   0  0  0  0  0  0  0  0  0  0  0  0
   16.0739  -24.9321   -5.1894 C   0  0  1  0  0  0  0  0  0  0  0  0
   15.2202  -26.1745   -5.2788 C   0  0  0  0  0  0  0  0  0  0  0  0
   17.4928  -25.1800   -5.6545 C   0  0  2  0  0  0  0  0  0  0  0  0
   17.4901  -25.6494   -7.0384 N   0  0  0  0  0  0  0  0  0  0  0  0
   18.0743  -26.2025   -4.7466 C   0  0  0  0  0  0  0  0  0  0  0  0
   18.2694  -27.3812   -5.0627 O   0  0  0  0  0  0  0  0  0  0  0  0
   18.4183  -25.8043   -3.4642 O   0  0  0  0  0  0  0  0  0  0  0  0
  2  1  1  6
  2  3  1  0
  4  5  2  0
  4  3  1  0
  6  5  1  0
  7  8  2  0
  7  6  1  0
  8  4  1  0
  9  2  1  0
  9 11  1  0
 10  9  2  0
 12 11  1  0
 12 13  1  1
 13 14  1  0
 14 15  1  0
 16 15  1  0
 16 17  1  0
 18 12  1  0
 19 18  2  0
 21 20  1  6
 21 23  1  0
 22 21  1  0
 23 25  1  0
 23 24  1  6
 24 18  1  0
 25 27  1  0
 26 25  2  0
M  END
$$$$
