HKV.pdb
     RDKit          3D

 27 27  0  0  1  0  0  0  0  0999 V2000
   28.3376  -21.2943  -15.6467 N   0  0  0  0  0  0  0  0  0  0  0  0
   27.4731  -20.2904  -15.0840 C   0  0  1  0  0  0  0  0  0  0  0  0
   26.8319  -19.4443  -16.1807 C   0  0  0  0  0  0  0  0  0  0  0  0
   27.8917  -18.6197  -16.8202 C   0  0  0  0  0  0  0  0  0  0  0  0
   28.3437  -17.4052  -16.3600 C   0  0  0  0  0  0  0  0  0  0  0  0
   29.3046  -16.9318  -17.1729 N   0  0  0  0  0  0  0  0  0  0  0  0
   29.4406  -17.8755  -18.1467 C   0  0  0  0  0  0  0  0  0  0  0  0
   28.5856  -18.8836  -17.9219 N   0  0  0  0  0  0  0  0  0  0  0  0
   26.3652  -20.9172  -14.3316 C   0  0  0  0  0  0  0  0  0  0  0  0
   25.8162  -21.9355  -14.8042 O   0  0  0  0  0  0  0  0  0  0  0  0
   25.9548  -20.3476  -13.0950 N   0  0  0  0  0  0  0  0  0  0  0  0
   24.9193  -20.9218  -12.3110 C   0  0  1  0  0  0  0  0  0  0  0  0
   24.9702  -20.5139  -10.8781 C   0  0  0  0  0  0  0  0  0  0  0  0
   26.1524  -20.8635  -10.0751 C   0  0  0  0  0  0  0  0  0  0  0  0
   26.1641  -20.3064   -8.6835 C   0  0  0  0  0  0  0  0  0  0  0  0
   27.5010  -20.6105   -7.9957 C   0  0  0  0  0  0  0  0  0  0  0  0
   27.4512  -20.0232   -6.6870 N   0  0  0  0  0  0  0  0  0  0  0  0
   23.5815  -20.5132  -12.8925 C   0  0  0  0  0  0  0  0  0  0  0  0
   23.3536  -19.3032  -13.1832 O   0  0  0  0  0  0  0  0  0  0  0  0
   19.6103  -22.0868  -15.2020 C   0  0  0  0  0  0  0  0  0  0  0  0
   21.0997  -21.8762  -15.0275 C   0  0  1  0  0  0  0  0  0  0  0  0
   21.7057  -21.2329  -16.2520 C   0  0  0  0  0  0  0  0  0  0  0  0
   21.3212  -21.0490  -13.7795 C   0  0  2  0  0  0  0  0  0  0  0  0
   22.5628  -21.4552  -13.1247 N   0  0  0  0  0  0  0  0  0  0  0  0
   20.1515  -21.2802  -12.8928 C   0  0  0  0  0  0  0  0  0  0  0  0
   20.1432  -22.0764  -11.9477 O   0  0  0  0  0  0  0  0  0  0  0  0
   18.9980  -20.5542  -13.1458 O   0  0  0  0  0  0  0  0  0  0  0  0
  2  1  1  6
  2  3  1  0
  4  5  2  0
  4  3  1  0
  6  5  1  0
  7  8  2  0
  7  6  1  0
  8  4  1  0
  9  2  1  0
  9 11  1  0
 10  9  2  0
 12 11  1  0
 12 13  1  1
 13 14  1  0
 14 15  1  0
 16 15  1  0
 16 17  1  0
 18 12  1  0
 19 18  2  0
 21 20  1  6
 21 23  1  0
 22 21  1  0
 23 25  1  0
 23 24  1  1
 24 18  1  0
 25 27  1  0
 26 25  2  0
M  END
$$$$
