HKV.pdb
     RDKit          3D

 27 27  0  0  1  0  0  0  0  0999 V2000
   26.8372  -19.2812  -18.4396 N   0  0  0  0  0  0  0  0  0  0  0  0
   25.8942  -18.5818  -17.6068 C   0  0  1  0  0  0  0  0  0  0  0  0
   24.7293  -18.0436  -18.4334 C   0  0  0  0  0  0  0  0  0  0  0  0
   25.2374  -16.9562  -19.3119 C   0  0  0  0  0  0  0  0  0  0  0  0
   24.7607  -16.6562  -20.5664 C   0  0  0  0  0  0  0  0  0  0  0  0
   25.4418  -15.6183  -21.0832 N   0  0  0  0  0  0  0  0  0  0  0  0
   26.3505  -15.2796  -20.1257 C   0  0  0  0  0  0  0  0  0  0  0  0
   26.2160  -16.0918  -19.0674 N   0  0  0  0  0  0  0  0  0  0  0  0
   25.3115  -19.4929  -16.5985 C   0  0  0  0  0  0  0  0  0  0  0  0
   24.8159  -20.5751  -16.9791 O   0  0  0  0  0  0  0  0  0  0  0  0
   25.3300  -19.1158  -15.2275 N   0  0  0  0  0  0  0  0  0  0  0  0
   24.8201  -19.9637  -14.2088 C   0  0  1  0  0  0  0  0  0  0  0  0
   25.4120  -19.6945  -12.8674 C   0  0  0  0  0  0  0  0  0  0  0  0
   25.0226  -20.5418  -11.7293 C   0  0  0  0  0  0  0  0  0  0  0  0
   25.7017  -20.2179  -10.4328 C   0  0  0  0  0  0  0  0  0  0  0  0
   25.3095  -21.2348   -9.3536 C   0  0  0  0  0  0  0  0  0  0  0  0
   26.0075  -20.8736   -8.1526 N   0  0  0  0  0  0  0  0  0  0  0  0
   23.3179  -19.7847  -14.1295 C   0  0  0  0  0  0  0  0  0  0  0  0
   22.8187  -18.6322  -13.9770 O   0  0  0  0  0  0  0  0  0  0  0  0
   20.7791  -21.0882  -16.5069 C   0  0  0  0  0  0  0  0  0  0  0  0
   20.2707  -21.4991  -15.1409 C   0  0  1  0  0  0  0  0  0  0  0  0
   20.4382  -22.9838  -14.9218 C   0  0  0  0  0  0  0  0  0  0  0  0
   20.9993  -20.6822  -14.0956 C   0  0  2  0  0  0  0  0  0  0  0  0
   22.4415  -20.8811  -14.2219 N   0  0  0  0  0  0  0  0  0  0  0  0
   20.5127  -21.1422  -12.7691 C   0  0  0  0  0  0  0  0  0  0  0  0
   21.1734  -21.8377  -11.9902 O   0  0  0  0  0  0  0  0  0  0  0  0
   19.2354  -20.7645  -12.3852 O   0  0  0  0  0  0  0  0  0  0  0  0
  2  1  1  6
  2  3  1  0
  4  5  2  0
  4  3  1  0
  6  5  1  0
  7  8  2  0
  7  6  1  0
  8  4  1  0
  9  2  1  0
  9 11  1  0
 10  9  2  0
 12 11  1  0
 12 13  1  1
 13 14  1  0
 14 15  1  0
 16 15  1  0
 16 17  1  0
 18 12  1  0
 19 18  2  0
 21 20  1  6
 21 23  1  0
 22 21  1  0
 23 25  1  0
 23 24  1  1
 24 18  1  0
 25 27  1  0
 26 25  2  0
M  END
$$$$
