HKV.pdb
     RDKit          3D

 27 27  0  0  1  0  0  0  0  0999 V2000
   28.6155  -21.5013  -16.9930 N   0  0  0  0  0  0  0  0  0  0  0  0
   28.0233  -20.4416  -16.2195 C   0  0  1  0  0  0  0  0  0  0  0  0
   27.3674  -19.4038  -17.1265 C   0  0  0  0  0  0  0  0  0  0  0  0
   28.4360  -18.6881  -17.8736 C   0  0  0  0  0  0  0  0  0  0  0  0
   29.2193  -17.6757  -17.3712 C   0  0  0  0  0  0  0  0  0  0  0  0
   30.0840  -17.2516  -18.3096 N   0  0  0  0  0  0  0  0  0  0  0  0
   29.8227  -18.0201  -19.4044 C   0  0  0  0  0  0  0  0  0  0  0  0
   28.8305  -18.8784  -19.1278 N   0  0  0  0  0  0  0  0  0  0  0  0
   26.9574  -20.9691  -15.3409 C   0  0  0  0  0  0  0  0  0  0  0  0
   26.1343  -21.7820  -15.8135 O   0  0  0  0  0  0  0  0  0  0  0  0
   26.8966  -20.5396  -13.9867 N   0  0  0  0  0  0  0  0  0  0  0  0
   25.8893  -20.9997  -13.0978 C   0  0  1  0  0  0  0  0  0  0  0  0
   26.1590  -20.6551  -11.6727 C   0  0  0  0  0  0  0  0  0  0  0  0
   25.2224  -21.1138  -10.6349 C   0  0  0  0  0  0  0  0  0  0  0  0
   25.5726  -20.7054   -9.2358 C   0  0  0  0  0  0  0  0  0  0  0  0
   24.5705  -21.2987   -8.2376 C   0  0  0  0  0  0  0  0  0  0  0  0
   24.8977  -20.7753   -6.9418 N   0  0  0  0  0  0  0  0  0  0  0  0
   24.5618  -20.3961  -13.5079 C   0  0  0  0  0  0  0  0  0  0  0  0
   24.4373  -19.1421  -13.6206 O   0  0  0  0  0  0  0  0  0  0  0  0
   22.7459  -21.5551  -16.2189 C   0  0  0  0  0  0  0  0  0  0  0  0
   21.5866  -21.1074  -15.3536 C   0  0  1  0  0  0  0  0  0  0  0  0
   20.5969  -22.2291  -15.1466 C   0  0  0  0  0  0  0  0  0  0  0  0
   22.1415  -20.5871  -14.0451 C   0  0  2  0  0  0  0  0  0  0  0  0
   23.4393  -21.2014  -13.7733 N   0  0  0  0  0  0  0  0  0  0  0  0
   21.1566  -20.9340  -12.9880 C   0  0  0  0  0  0  0  0  0  0  0  0
   21.3500  -21.7819  -12.1100 O   0  0  0  0  0  0  0  0  0  0  0  0
   19.9448  -20.2609  -12.9908 O   0  0  0  0  0  0  0  0  0  0  0  0
  2  1  1  6
  2  3  1  0
  4  5  2  0
  4  3  1  0
  6  5  1  0
  7  8  2  0
  7  6  1  0
  8  4  1  0
  9  2  1  0
  9 11  1  0
 10  9  2  0
 12 11  1  0
 12 13  1  1
 13 14  1  0
 14 15  1  0
 16 15  1  0
 16 17  1  0
 18 12  1  0
 19 18  2  0
 21 20  1  6
 21 23  1  0
 22 21  1  0
 23 25  1  0
 23 24  1  1
 24 18  1  0
 25 27  1  0
 26 25  2  0
M  END
$$$$
