HKV.pdb
     RDKit          3D

 27 27  0  0  1  0  0  0  0  0999 V2000
   24.1523  -16.4741  -17.9652 N   0  0  0  0  0  0  0  0  0  0  0  0
   24.8018  -16.5440  -16.6825 C   0  0  1  0  0  0  0  0  0  0  0  0
   23.9520  -15.8793  -15.6028 C   0  0  0  0  0  0  0  0  0  0  0  0
   24.0881  -14.4042  -15.7374 C   0  0  0  0  0  0  0  0  0  0  0  0
   25.1297  -13.6515  -15.2480 C   0  0  0  0  0  0  0  0  0  0  0  0
   24.9404  -12.3535  -15.5437 N   0  0  0  0  0  0  0  0  0  0  0  0
   23.7613  -12.3146  -16.2261 C   0  0  0  0  0  0  0  0  0  0  0  0
   23.2608  -13.5537  -16.3348 N   0  0  0  0  0  0  0  0  0  0  0  0
   24.9881  -17.9508  -16.2673 C   0  0  0  0  0  0  0  0  0  0  0  0
   23.9802  -18.6759  -16.1261 O   0  0  0  0  0  0  0  0  0  0  0  0
   26.3039  -18.4403  -16.0402 N   0  0  0  0  0  0  0  0  0  0  0  0
   26.5469  -19.7788  -15.6332 C   0  0  1  0  0  0  0  0  0  0  0  0
   27.9552  -20.2150  -15.8537 C   0  0  0  0  0  0  0  0  0  0  0  0
   28.3204  -21.6163  -15.5934 C   0  0  0  0  0  0  0  0  0  0  0  0
   27.5656  -22.6309  -16.3982 C   0  0  0  0  0  0  0  0  0  0  0  0
   28.0559  -24.0470  -16.0712 C   0  0  0  0  0  0  0  0  0  0  0  0
   27.2632  -24.9621  -16.8420 N   0  0  0  0  0  0  0  0  0  0  0  0
   26.2152  -19.9104  -14.1609 C   0  0  0  0  0  0  0  0  0  0  0  0
   26.6921  -19.0917  -13.3225 O   0  0  0  0  0  0  0  0  0  0  0  0
   22.9763  -19.8936  -12.5728 C   0  0  0  0  0  0  0  0  0  0  0  0
   23.6198  -21.1432  -12.0094 C   0  0  1  0  0  0  0  0  0  0  0  0
   23.0103  -22.3875  -12.6099 C   0  0  0  0  0  0  0  0  0  0  0  0
   25.1113  -21.0631  -12.2542 C   0  0  2  0  0  0  0  0  0  0  0  0
   25.3765  -20.9348  -13.6855 N   0  0  0  0  0  0  0  0  0  0  0  0
   25.7074  -22.3116  -11.7122 C   0  0  0  0  0  0  0  0  0  0  0  0
   26.1020  -23.2523  -12.4097 O   0  0  0  0  0  0  0  0  0  0  0  0
   25.8263  -22.4239  -10.3357 O   0  0  0  0  0  0  0  0  0  0  0  0
  2  1  1  6
  2  3  1  0
  4  5  2  0
  4  3  1  0
  6  5  1  0
  7  8  2  0
  7  6  1  0
  8  4  1  0
  9  2  1  0
  9 11  1  0
 10  9  2  0
 12 11  1  0
 12 13  1  1
 13 14  1  0
 14 15  1  0
 16 15  1  0
 16 17  1  0
 18 12  1  0
 19 18  2  0
 21 20  1  6
 21 23  1  0
 22 21  1  0
 23 25  1  0
 23 24  1  6
 24 18  1  0
 25 27  1  0
 26 25  2  0
M  END
$$$$
