HKV.pdb
     RDKit          3D

 27 27  0  0  1  0  0  0  0  0999 V2000
   26.4950  -19.3626  -19.0245 N   0  0  0  0  0  0  0  0  0  0  0  0
   25.3118  -18.6888  -18.5575 C   0  0  1  0  0  0  0  0  0  0  0  0
   24.3087  -18.4968  -19.6918 C   0  0  0  0  0  0  0  0  0  0  0  0
   24.8854  -17.5404  -20.6742 C   0  0  0  0  0  0  0  0  0  0  0  0
   25.2262  -16.2345  -20.4103 C   0  0  0  0  0  0  0  0  0  0  0  0
   25.7188  -15.6529  -21.5181 N   0  0  0  0  0  0  0  0  0  0  0  0
   25.6773  -16.6225  -22.4749 C   0  0  0  0  0  0  0  0  0  0  0  0
   25.1744  -17.7508  -21.9536 N   0  0  0  0  0  0  0  0  0  0  0  0
   24.6286  -19.4913  -17.5204 C   0  0  0  0  0  0  0  0  0  0  0  0
   23.8533  -20.4037  -17.8782 O   0  0  0  0  0  0  0  0  0  0  0  0
   24.8705  -19.2054  -16.1486 N   0  0  0  0  0  0  0  0  0  0  0  0
   24.2672  -19.9589  -15.1071 C   0  0  1  0  0  0  0  0  0  0  0  0
   24.9898  -19.8517  -13.8077 C   0  0  0  0  0  0  0  0  0  0  0  0
   24.5050  -20.6229  -12.6523 C   0  0  0  0  0  0  0  0  0  0  0  0
   25.3181  -20.4752  -11.4018 C   0  0  0  0  0  0  0  0  0  0  0  0
   24.7091  -21.3058  -10.2652 C   0  0  0  0  0  0  0  0  0  0  0  0
   25.5605  -21.1517   -9.1200 N   0  0  0  0  0  0  0  0  0  0  0  0
   22.8421  -19.4806  -14.9193 C   0  0  0  0  0  0  0  0  0  0  0  0
   22.6035  -18.2617  -14.6781 O   0  0  0  0  0  0  0  0  0  0  0  0
   20.0190  -19.6769  -17.1950 C   0  0  0  0  0  0  0  0  0  0  0  0
   19.4943  -20.3039  -15.9203 C   0  0  1  0  0  0  0  0  0  0  0  0
   19.4036  -21.8058  -16.0498 C   0  0  0  0  0  0  0  0  0  0  0  0
   20.3925  -19.8829  -14.7771 C   0  0  2  0  0  0  0  0  0  0  0  0
   21.7524  -20.3660  -15.0062 N   0  0  0  0  0  0  0  0  0  0  0  0
   19.8207  -20.4699  -13.5376 C   0  0  0  0  0  0  0  0  0  0  0  0
   20.3010  -21.4414  -12.9438 O   0  0  0  0  0  0  0  0  0  0  0  0
   18.6753  -19.8872  -13.0178 O   0  0  0  0  0  0  0  0  0  0  0  0
  2  1  1  6
  2  3  1  0
  4  5  2  0
  4  3  1  0
  6  5  1  0
  7  8  2  0
  7  6  1  0
  8  4  1  0
  9  2  1  0
  9 11  1  0
 10  9  2  0
 12 11  1  0
 12 13  1  1
 13 14  1  0
 14 15  1  0
 16 15  1  0
 16 17  1  0
 18 12  1  0
 19 18  2  0
 21 20  1  6
 21 23  1  0
 22 21  1  0
 23 25  1  0
 23 24  1  6
 24 18  1  0
 25 27  1  0
 26 25  2  0
M  END
$$$$
