HKV.pdb
     RDKit          3D

 27 27  0  0  1  0  0  0  0  0999 V2000
   15.8708  -13.7157  -17.6972 N   0  0  0  0  0  0  0  0  0  0  0  0
   16.4401  -13.2088  -16.4762 C   0  0  1  0  0  0  0  0  0  0  0  0
   17.3250  -14.2583  -15.8089 C   0  0  0  0  0  0  0  0  0  0  0  0
   16.4613  -15.3763  -15.3435 C   0  0  0  0  0  0  0  0  0  0  0  0
   15.8779  -15.4696  -14.1018 C   0  0  0  0  0  0  0  0  0  0  0  0
   15.1632  -16.6051  -14.0115 N   0  0  0  0  0  0  0  0  0  0  0  0
   15.3140  -17.2150  -15.2209 C   0  0  0  0  0  0  0  0  0  0  0  0
   16.0962  -16.4654  -16.0108 N   0  0  0  0  0  0  0  0  0  0  0  0
   17.3032  -12.0394  -16.7482 C   0  0  0  0  0  0  0  0  0  0  0  0
   18.1314  -12.1059  -17.6817 O   0  0  0  0  0  0  0  0  0  0  0  0
   17.1691  -10.8743  -15.9440 N   0  0  0  0  0  0  0  0  0  0  0  0
   17.8576   -9.6699  -16.2470 C   0  0  1  0  0  0  0  0  0  0  0  0
   16.9558   -8.4881  -16.3587 C   0  0  0  0  0  0  0  0  0  0  0  0
   17.5299   -7.1792  -16.7081 C   0  0  0  0  0  0  0  0  0  0  0  0
   16.5328   -6.0752  -16.8918 C   0  0  0  0  0  0  0  0  0  0  0  0
   17.2489   -4.7436  -17.1501 C   0  0  0  0  0  0  0  0  0  0  0  0
   17.5860   -4.1850  -15.8717 N   0  0  0  0  0  0  0  0  0  0  0  0
   18.8831   -9.4065  -15.1635 C   0  0  0  0  0  0  0  0  0  0  0  0
   18.5300   -9.3476  -13.9500 O   0  0  0  0  0  0  0  0  0  0  0  0
   22.4020  -11.0795  -14.6388 C   0  0  0  0  0  0  0  0  0  0  0  0
   22.5420   -9.5750  -14.7398 C   0  0  1  0  0  0  0  0  0  0  0  0
   23.0355   -9.1647  -16.1067 C   0  0  0  0  0  0  0  0  0  0  0  0
   21.2058   -8.9483  -14.4036 C   0  0  2  0  0  0  0  0  0  0  0  0
   20.2437   -9.2216  -15.4690 N   0  0  0  0  0  0  0  0  0  0  0  0
   21.4367   -7.4879  -14.2565 C   0  0  0  0  0  0  0  0  0  0  0  0
   22.0451   -6.9728  -13.3122 O   0  0  0  0  0  0  0  0  0  0  0  0
   20.9357   -6.6539  -15.2439 O   0  0  0  0  0  0  0  0  0  0  0  0
  2  1  1  6
  2  3  1  0
  4  5  2  0
  4  3  1  0
  6  5  1  0
  7  8  2  0
  7  6  1  0
  8  4  1  0
  9  2  1  0
  9 11  1  0
 10  9  2  0
 12 11  1  0
 12 13  1  1
 13 14  1  0
 14 15  1  0
 16 15  1  0
 16 17  1  0
 18 12  1  0
 19 18  2  0
 21 20  1  6
 21 23  1  0
 22 21  1  0
 23 25  1  0
 23 24  1  6
 24 18  1  0
 25 27  1  0
 26 25  2  0
M  END
$$$$
