FRH.pdb
     RDKit          3D

 33 34  0  0  1  0  0  0  0  0999 V2000
    6.9952  -17.7120   26.1005 N   0  0  0  0  0  0  0  0  0  0  0  0
    7.1436  -16.3726   25.5873 C   0  0  1  0  0  0  0  0  0  0  0  0
    8.1056  -15.5188   26.3558 C   0  0  0  0  0  0  0  0  0  0  0  0
    7.5779  -14.1974   26.7540 C   0  0  0  0  0  0  0  0  0  0  0  0
    6.3739  -13.6788   26.3299 C   0  0  0  0  0  0  0  0  0  0  0  0
    5.9244  -12.4283   26.7371 C   0  0  0  0  0  0  0  0  0  0  0  0
    6.6908  -11.6600   27.5940 C   0  0  0  0  0  0  0  0  0  0  0  0
    7.8944  -12.1641   28.0240 C   0  0  0  0  0  0  0  0  0  0  0  0
    8.3337  -13.4041   27.6178 C   0  0  0  0  0  0  0  0  0  0  0  0
    7.6512  -16.4726   24.1963 C   0  0  0  0  0  0  0  0  0  0  0  0
    8.2288  -17.5262   23.8237 O   0  0  0  0  0  0  0  0  0  0  0  0
    9.1077  -12.7463   17.2686 N   0  0  0  0  0  0  0  0  0  0  0  0
    8.4976  -13.8475   16.6130 C   0  0  0  0  0  0  0  0  0  0  0  0
    8.9418  -14.1820   15.4313 N   0  0  0  0  0  0  0  0  0  0  0  0
    7.4474  -14.5347   17.2459 N   0  0  0  0  0  0  0  0  0  0  0  0
    7.0300  -14.1327   18.5534 C   0  0  0  0  0  0  0  0  0  0  0  0
    8.1295  -14.3662   19.5926 C   0  0  0  0  0  0  0  0  0  0  0  0
    7.4560  -14.5884   20.8829 C   0  0  0  0  0  0  0  0  0  0  0  0
    7.9419  -15.5347   21.8595 C   0  0  2  0  0  0  0  0  0  0  0  0
    7.5313  -15.4359   23.2354 N   0  0  0  0  0  0  0  0  0  0  0  0
    9.3607  -16.0176   21.7467 C   0  0  0  0  0  0  0  0  0  0  0  0
    9.9346  -16.0939   20.6260 O   0  0  0  0  0  0  0  0  0  0  0  0
    8.5290  -14.9861   14.9225 N   0  0  0  0  0  0  0  0  0  0  0  0
   10.1243  -16.4047   22.8591 C   0  0  1  0  0  0  0  0  0  0  0  0
   11.6050  -16.5735   22.7892 C   0  0  0  0  0  0  0  0  0  0  0  0
   12.2242  -15.2761   22.4136 C   0  0  0  0  0  0  0  0  0  0  0  0
   12.2983  -15.1063   20.9534 C   0  0  0  0  0  0  0  0  0  0  0  0
   11.9855  -13.8869   20.3221 N   0  0  0  0  0  0  0  0  0  0  0  0
   12.1404  -14.0670   19.0048 C   0  0  0  0  0  0  0  0  0  0  0  0
   12.5336  -15.3300   18.7573 N   0  0  0  0  0  0  0  0  0  0  0  0
   12.6153  -15.9178   19.9596 C   0  0  0  0  0  0  0  0  0  0  0  0
   12.0641  -17.1970   24.0307 O   0  0  0  0  0  0  0  0  0  0  0  0
   13.3125  -17.4169   24.1926 O   0  0  0  0  0  0  0  0  0  0  0  0
  2  1  1  1
  2 10  1  0
  2  3  1  0
  3  4  1  0
  4  5  2  0
  5  6  1  0
  7  6  2  0
  8  7  1  0
  9  4  1  0
  9  8  2  0
 10 11  2  0
 13 15  1  0
 13 12  1  0
 14 13  2  0
 16 15  1  0
 16 17  1  0
 18 17  1  0
 19 18  1  1
 20 19  1  0
 20 10  1  0
 21 19  1  0
 22 21  2  0
 23 21  1  0
 24 31  1  0
 24 23  1  0
 24 25  1  6
 25 26  1  0
 26 30  1  0
 26 27  2  0
 27 28  1  0
 29 28  1  0
 30 29  2  0
 31 33  1  0
 32 31  2  0
M  END
$$$$
