FRH.pdb
     RDKit          3D

 33 34  0  0  1  0  0  0  0  0999 V2000
    6.6656  -16.2461   26.3443 N   0  0  0  0  0  0  0  0  0  0  0  0
    6.9525  -15.4811   25.1562 C   0  0  1  0  0  0  0  0  0  0  0  0
    7.6440  -14.1769   25.4122 C   0  0  0  0  0  0  0  0  0  0  0  0
    6.8634  -13.2093   26.2107 C   0  0  0  0  0  0  0  0  0  0  0  0
    7.3620  -12.5004   27.2817 C   0  0  0  0  0  0  0  0  0  0  0  0
    6.5825  -11.6004   27.9985 C   0  0  0  0  0  0  0  0  0  0  0  0
    5.2616  -11.3917   27.6466 C   0  0  0  0  0  0  0  0  0  0  0  0
    4.7506  -12.0928   26.5812 C   0  0  0  0  0  0  0  0  0  0  0  0
    5.5283  -12.9824   25.8745 C   0  0  0  0  0  0  0  0  0  0  0  0
    7.8454  -16.2963   24.2954 C   0  0  0  0  0  0  0  0  0  0  0  0
    8.4975  -17.2440   24.8044 O   0  0  0  0  0  0  0  0  0  0  0  0
    8.8764  -13.2358   16.6212 N   0  0  0  0  0  0  0  0  0  0  0  0
    8.6358  -13.2869   18.0192 C   0  0  0  0  0  0  0  0  0  0  0  0
    9.3288  -12.4935   18.7912 N   0  0  0  0  0  0  0  0  0  0  0  0
    7.6731  -14.1781   18.5238 N   0  0  0  0  0  0  0  0  0  0  0  0
    7.7815  -14.6422   19.8721 C   0  0  0  0  0  0  0  0  0  0  0  0
    7.8566  -16.1697   19.9381 C   0  0  0  0  0  0  0  0  0  0  0  0
    9.0829  -16.5042   20.6814 C   0  0  0  0  0  0  0  0  0  0  0  0
    9.1225  -16.5721   22.1234 C   0  0  2  0  0  0  0  0  0  0  0  0
    8.0223  -16.0730   22.9057 N   0  0  0  0  0  0  0  0  0  0  0  0
   10.4354  -16.3390   22.8170 C   0  0  0  0  0  0  0  0  0  0  0  0
   10.7425  -15.1993   23.2618 O   0  0  0  0  0  0  0  0  0  0  0  0
    9.2805  -12.5896   19.8229 N   0  0  0  0  0  0  0  0  0  0  0  0
   11.3844  -17.3545   23.0127 C   0  0  1  0  0  0  0  0  0  0  0  0
   12.0931  -17.5430   24.3119 C   0  0  0  0  0  0  0  0  0  0  0  0
   11.1045  -17.4712   25.4189 C   0  0  0  0  0  0  0  0  0  0  0  0
   11.4160  -16.3852   26.3624 C   0  0  0  0  0  0  0  0  0  0  0  0
   12.0897  -15.2144   25.9642 N   0  0  0  0  0  0  0  0  0  0  0  0
   12.2255  -14.4423   27.0492 C   0  0  0  0  0  0  0  0  0  0  0  0
   11.6784  -15.0512   28.1173 N   0  0  0  0  0  0  0  0  0  0  0  0
   11.2037  -16.2172   27.6559 C   0  0  0  0  0  0  0  0  0  0  0  0
   12.9124  -18.7523   24.2270 O   0  0  0  0  0  0  0  0  0  0  0  0
   14.1541  -18.6852   24.5208 O   0  0  0  0  0  0  0  0  0  0  0  0
  2  1  1  1
  2 10  1  0
  2  3  1  0
  3  4  1  0
  4  5  2  0
  5  6  1  0
  7  6  2  0
  8  7  1  0
  9  4  1  0
  9  8  2  0
 10 11  2  0
 13 15  1  0
 13 12  1  0
 14 13  2  0
 16 15  1  0
 16 17  1  0
 18 17  1  0
 19 18  1  6
 20 19  1  0
 20 10  1  0
 21 19  1  0
 22 21  2  0
 23 21  1  0
 24 31  1  0
 24 23  1  0
 24 25  1  6
 25 26  1  0
 26 30  1  0
 26 27  2  0
 27 28  1  0
 29 28  1  0
 30 29  2  0
 31 33  1  0
 32 31  2  0
M  END
$$$$
