FRH.pdb
     RDKit          3D

 33 34  0  0  1  0  0  0  0  0999 V2000
    5.8178  -18.2045   25.0985 N   0  0  0  0  0  0  0  0  0  0  0  0
    6.3446  -16.8703   24.9507 C   0  0  1  0  0  0  0  0  0  0  0  0
    6.6303  -16.1712   26.2448 C   0  0  0  0  0  0  0  0  0  0  0  0
    6.8951  -14.7230   26.1199 C   0  0  0  0  0  0  0  0  0  0  0  0
    5.9876  -13.7347   26.4330 C   0  0  0  0  0  0  0  0  0  0  0  0
    6.2899  -12.3850   26.2974 C   0  0  0  0  0  0  0  0  0  0  0  0
    7.5334  -11.9948   25.8354 C   0  0  0  0  0  0  0  0  0  0  0  0
    8.4481  -12.9697   25.5182 C   0  0  0  0  0  0  0  0  0  0  0  0
    8.1428  -14.3053   25.6556 C   0  0  0  0  0  0  0  0  0  0  0  0
    7.6245  -16.9669   24.2056 C   0  0  0  0  0  0  0  0  0  0  0  0
    8.4345  -17.8875   24.4863 O   0  0  0  0  0  0  0  0  0  0  0  0
    8.7782  -14.1414   16.9341 N   0  0  0  0  0  0  0  0  0  0  0  0
    8.4028  -13.3021   18.0156 C   0  0  0  0  0  0  0  0  0  0  0  0
    9.1407  -12.2536   18.2644 N   0  0  0  0  0  0  0  0  0  0  0  0
    7.2646  -13.6207   18.7763 N   0  0  0  0  0  0  0  0  0  0  0  0
    7.3998  -14.4547   19.9301 C   0  0  0  0  0  0  0  0  0  0  0  0
    8.8694  -14.6717   20.2996 C   0  0  0  0  0  0  0  0  0  0  0  0
    8.9704  -16.0264   20.8676 C   0  0  0  0  0  0  0  0  0  0  0  0
    9.1208  -16.2652   22.2839 C   0  0  2  0  0  0  0  0  0  0  0  0
    8.0091  -16.0692   23.1768 N   0  0  0  0  0  0  0  0  0  0  0  0
   10.4204  -15.8924   22.9404 C   0  0  0  0  0  0  0  0  0  0  0  0
   11.0065  -14.8123   22.6558 O   0  0  0  0  0  0  0  0  0  0  0  0
    8.9228  -11.6361   19.0688 N   0  0  0  0  0  0  0  0  0  0  0  0
   11.0519  -16.7045   23.8953 C   0  0  1  0  0  0  0  0  0  0  0  0
   11.2888  -16.2500   25.2964 C   0  0  0  0  0  0  0  0  0  0  0  0
   10.0181  -15.7211   25.8564 C   0  0  0  0  0  0  0  0  0  0  0  0
   10.1610  -15.3335   27.2691 C   0  0  0  0  0  0  0  0  0  0  0  0
   11.3814  -15.4541   27.9614 N   0  0  0  0  0  0  0  0  0  0  0  0
   11.1739  -15.0326   29.2147 C   0  0  0  0  0  0  0  0  0  0  0  0
    9.8924  -14.6499   29.3641 N   0  0  0  0  0  0  0  0  0  0  0  0
    9.3215  -14.8486   28.1673 C   0  0  0  0  0  0  0  0  0  0  0  0
   11.9442  -17.3301   26.0344 O   0  0  0  0  0  0  0  0  0  0  0  0
   12.9333  -17.0539   26.7949 O   0  0  0  0  0  0  0  0  0  0  0  0
  2  1  1  1
  2 10  1  0
  2  3  1  0
  3  4  1  0
  4  5  2  0
  5  6  1  0
  7  6  2  0
  8  7  1  0
  9  4  1  0
  9  8  2  0
 10 11  2  0
 13 15  1  0
 13 12  1  0
 14 13  2  0
 16 15  1  0
 16 17  1  0
 18 17  1  0
 19 18  1  6
 20 19  1  0
 20 10  1  0
 21 19  1  0
 22 21  2  0
 23 21  1  0
 24 31  1  0
 24 23  1  0
 24 25  1  1
 25 26  1  0
 26 30  1  0
 26 27  2  0
 27 28  1  0
 29 28  1  0
 30 29  2  0
 31 33  1  0
 32 31  2  0
M  END
$$$$
