FRH.pdb
     RDKit          3D

 33 34  0  0  1  0  0  0  0  0999 V2000
    7.5561  -16.4596   26.0710 N   0  0  0  0  0  0  0  0  0  0  0  0
    7.3796  -15.3551   25.1610 C   0  0  1  0  0  0  0  0  0  0  0  0
    8.1132  -14.1084   25.5515 C   0  0  0  0  0  0  0  0  0  0  0  0
    7.4461  -13.2985   26.5918 C   0  0  0  0  0  0  0  0  0  0  0  0
    7.8405  -13.2459   27.9109 C   0  0  0  0  0  0  0  0  0  0  0  0
    7.1763  -12.4650   28.8493 C   0  0  0  0  0  0  0  0  0  0  0  0
    6.0820  -11.7079   28.4734 C   0  0  0  0  0  0  0  0  0  0  0  0
    5.6768  -11.7516   27.1613 C   0  0  0  0  0  0  0  0  0  0  0  0
    6.3396  -12.5266   26.2362 C   0  0  0  0  0  0  0  0  0  0  0  0
    7.8915  -15.7744   23.8325 C   0  0  0  0  0  0  0  0  0  0  0  0
    8.6096  -16.8035   23.7441 O   0  0  0  0  0  0  0  0  0  0  0  0
    9.4323  -13.0864   17.2303 N   0  0  0  0  0  0  0  0  0  0  0  0
    8.8734  -13.9305   16.2354 C   0  0  0  0  0  0  0  0  0  0  0  0
    9.5436  -14.1017   15.1276 N   0  0  0  0  0  0  0  0  0  0  0  0
    7.6320  -14.5473   16.4686 N   0  0  0  0  0  0  0  0  0  0  0  0
    7.0861  -14.5533   17.7903 C   0  0  0  0  0  0  0  0  0  0  0  0
    8.0255  -15.2401   18.7850 C   0  0  0  0  0  0  0  0  0  0  0  0
    7.5459  -14.8931   20.1332 C   0  0  0  0  0  0  0  0  0  0  0  0
    8.1367  -15.4401   21.3320 C   0  0  2  0  0  0  0  0  0  0  0  0
    7.6244  -15.0763   22.6268 N   0  0  0  0  0  0  0  0  0  0  0  0
    9.6257  -15.6410   21.3709 C   0  0  0  0  0  0  0  0  0  0  0  0
   10.4070  -14.8244   20.8108 O   0  0  0  0  0  0  0  0  0  0  0  0
    9.1681  -14.7077   14.3741 N   0  0  0  0  0  0  0  0  0  0  0  0
   10.2310  -16.7273   22.0221 C   0  0  1  0  0  0  0  0  0  0  0  0
   11.6945  -17.0001   21.9239 C   0  0  0  0  0  0  0  0  0  0  0  0
   12.4398  -15.7319   22.1344 C   0  0  0  0  0  0  0  0  0  0  0  0
   12.9301  -15.1673   20.8666 C   0  0  0  0  0  0  0  0  0  0  0  0
   12.4730  -15.6228   19.6149 N   0  0  0  0  0  0  0  0  0  0  0  0
   13.1160  -14.9204   18.6743 C   0  0  0  0  0  0  0  0  0  0  0  0
   13.9573  -14.0429   19.2515 N   0  0  0  0  0  0  0  0  0  0  0  0
   13.8112  -14.2275   20.5714 C   0  0  0  0  0  0  0  0  0  0  0  0
   12.0220  -18.1204   22.8062 O   0  0  0  0  0  0  0  0  0  0  0  0
   13.2286  -18.5374   22.8616 O   0  0  0  0  0  0  0  0  0  0  0  0
  2  1  1  1
  2 10  1  0
  2  3  1  0
  3  4  1  0
  4  5  2  0
  5  6  1  0
  7  6  2  0
  8  7  1  0
  9  4  1  0
  9  8  2  0
 10 11  2  0
 13 15  1  0
 13 12  1  0
 14 13  2  0
 16 15  1  0
 16 17  1  0
 18 17  1  0
 19 18  1  6
 20 19  1  0
 20 10  1  0
 21 19  1  0
 22 21  2  0
 23 21  1  0
 24 31  1  0
 24 23  1  0
 24 25  1  6
 25 26  1  0
 26 30  1  0
 26 27  2  0
 27 28  1  0
 29 28  1  0
 30 29  2  0
 31 33  1  0
 32 31  2  0
M  END
$$$$
