FRH.pdb
     RDKit          3D

 33 34  0  0  1  0  0  0  0  0999 V2000
    5.8281  -17.8762   25.5460 N   0  0  0  0  0  0  0  0  0  0  0  0
    6.3320  -16.5375   25.3637 C   0  0  1  0  0  0  0  0  0  0  0  0
    6.9805  -15.9497   26.5798 C   0  0  0  0  0  0  0  0  0  0  0  0
    7.0559  -14.4741   26.5883 C   0  0  0  0  0  0  0  0  0  0  0  0
    5.9997  -13.6379   26.2993 C   0  0  0  0  0  0  0  0  0  0  0  0
    6.1259  -12.2540   26.3232 C   0  0  0  0  0  0  0  0  0  0  0  0
    7.3389  -11.6726   26.6435 C   0  0  0  0  0  0  0  0  0  0  0  0
    8.4013  -12.4945   26.9327 C   0  0  0  0  0  0  0  0  0  0  0  0
    8.2696  -13.8648   26.9082 C   0  0  0  0  0  0  0  0  0  0  0  0
    7.3560  -16.5794   24.2902 C   0  0  0  0  0  0  0  0  0  0  0  0
    8.0604  -17.6120   24.1487 O   0  0  0  0  0  0  0  0  0  0  0  0
    7.1573  -12.8641   16.6218 N   0  0  0  0  0  0  0  0  0  0  0  0
    8.2697  -13.7374   16.4999 C   0  0  0  0  0  0  0  0  0  0  0  0
    8.5425  -14.2236   15.3188 N   0  0  0  0  0  0  0  0  0  0  0  0
    9.0328  -14.0493   17.6383 N   0  0  0  0  0  0  0  0  0  0  0  0
    8.4798  -13.8292   18.9386 C   0  0  0  0  0  0  0  0  0  0  0  0
    9.2490  -14.5983   20.0158 C   0  0  0  0  0  0  0  0  0  0  0  0
    8.4372  -14.5396   21.2428 C   0  0  0  0  0  0  0  0  0  0  0  0
    8.4709  -15.5776   22.2463 C   0  0  2  0  0  0  0  0  0  0  0  0
    7.6045  -15.5087   23.3935 N   0  0  0  0  0  0  0  0  0  0  0  0
    9.7965  -16.1915   22.5995 C   0  0  0  0  0  0  0  0  0  0  0  0
    9.9947  -17.4304   22.4696 O   0  0  0  0  0  0  0  0  0  0  0  0
    9.3440  -14.8687   15.1880 N   0  0  0  0  0  0  0  0  0  0  0  0
   10.8786  -15.4406   23.0847 C   0  0  1  0  0  0  0  0  0  0  0  0
   11.3681  -15.5639   24.4887 C   0  0  0  0  0  0  0  0  0  0  0  0
   10.2867  -15.1462   25.4181 C   0  0  0  0  0  0  0  0  0  0  0  0
   10.7182  -15.2073   26.8240 C   0  0  0  0  0  0  0  0  0  0  0  0
   12.0091  -15.6300   27.1958 N   0  0  0  0  0  0  0  0  0  0  0  0
   12.0765  -15.5820   28.5318 C   0  0  0  0  0  0  0  0  0  0  0  0
   10.9045  -15.1535   29.0355 N   0  0  0  0  0  0  0  0  0  0  0  0
   10.1179  -14.9404   27.9708 C   0  0  0  0  0  0  0  0  0  0  0  0
   11.9259  -16.9039   24.6739 O   0  0  0  0  0  0  0  0  0  0  0  0
   12.4696  -17.2032   25.7909 O   0  0  0  0  0  0  0  0  0  0  0  0
  2  1  1  1
  2 10  1  0
  2  3  1  0
  3  4  1  0
  4  5  2  0
  5  6  1  0
  7  6  2  0
  8  7  1  0
  9  4  1  0
  9  8  2  0
 10 11  2  0
 13 15  1  0
 13 12  1  0
 14 13  2  0
 16 15  1  0
 16 17  1  0
 18 17  1  0
 19 18  1  1
 20 19  1  0
 20 10  1  0
 21 19  1  0
 22 21  2  0
 23 21  1  0
 24 31  1  0
 24 23  1  0
 24 25  1  6
 25 26  1  0
 26 30  1  0
 26 27  2  0
 27 28  1  0
 29 28  1  0
 30 29  2  0
 31 33  1  0
 32 31  2  0
M  END
$$$$
