FRH.pdb
     RDKit          3D

 33 34  0  0  1  0  0  0  0  0999 V2000
    5.6378  -15.3953   24.0308 N   0  0  0  0  0  0  0  0  0  0  0  0
    6.7578  -15.0259   23.2011 C   0  0  1  0  0  0  0  0  0  0  0  0
    7.1808  -13.5948   23.3340 C   0  0  0  0  0  0  0  0  0  0  0  0
    7.2846  -13.1072   24.7250 C   0  0  0  0  0  0  0  0  0  0  0  0
    8.1950  -12.1670   25.1556 C   0  0  0  0  0  0  0  0  0  0  0  0
    8.2484  -11.7427   26.4780 C   0  0  0  0  0  0  0  0  0  0  0  0
    7.3718  -12.2652   27.4110 C   0  0  0  0  0  0  0  0  0  0  0  0
    6.4593  -13.2047   26.9959 C   0  0  0  0  0  0  0  0  0  0  0  0
    6.4107  -13.6203   25.6841 C   0  0  0  0  0  0  0  0  0  0  0  0
    7.9134  -15.8695   23.5957 C   0  0  0  0  0  0  0  0  0  0  0  0
    7.7563  -16.7645   24.4656 O   0  0  0  0  0  0  0  0  0  0  0  0
   11.5820  -18.1468   18.0282 N   0  0  0  0  0  0  0  0  0  0  0  0
   12.4113  -19.2024   18.4893 C   0  0  0  0  0  0  0  0  0  0  0  0
   12.5661  -20.2443   17.7172 N   0  0  0  0  0  0  0  0  0  0  0  0
   13.0316  -19.0968   19.7463 N   0  0  0  0  0  0  0  0  0  0  0  0
   12.7346  -17.9780   20.5861 C   0  0  0  0  0  0  0  0  0  0  0  0
   11.7069  -18.3382   21.6620 C   0  0  0  0  0  0  0  0  0  0  0  0
   10.7787  -17.1996   21.7627 C   0  0  0  0  0  0  0  0  0  0  0  0
   10.2120  -16.7687   23.0192 C   0  0  2  0  0  0  0  0  0  0  0  0
    9.2154  -15.7308   23.0499 N   0  0  0  0  0  0  0  0  0  0  0  0
   11.1072  -16.7017   24.2247 C   0  0  0  0  0  0  0  0  0  0  0  0
   12.0976  -15.9211   24.2567 O   0  0  0  0  0  0  0  0  0  0  0  0
   13.2173  -21.0057   17.9856 N   0  0  0  0  0  0  0  0  0  0  0  0
   10.9017  -17.4858   25.3706 C   0  0  1  0  0  0  0  0  0  0  0  0
   11.9108  -17.5758   26.4658 C   0  0  0  0  0  0  0  0  0  0  0  0
   11.2146  -17.4882   27.7756 C   0  0  0  0  0  0  0  0  0  0  0  0
   10.8548  -16.1015   28.1134 C   0  0  0  0  0  0  0  0  0  0  0  0
   11.1241  -15.0235   27.2482 N   0  0  0  0  0  0  0  0  0  0  0  0
   10.6877  -13.9097   27.8488 C   0  0  0  0  0  0  0  0  0  0  0  0
   10.1557  -14.2127   29.0472 N   0  0  0  0  0  0  0  0  0  0  0  0
   10.2782  -15.5428   29.1632 C   0  0  0  0  0  0  0  0  0  0  0  0
   12.7496  -18.7520   26.2338 O   0  0  0  0  0  0  0  0  0  0  0  0
   12.3704  -19.6301   25.3865 O   0  0  0  0  0  0  0  0  0  0  0  0
  2  1  1  1
  2 10  1  0
  2  3  1  0
  3  4  1  0
  4  5  2  0
  5  6  1  0
  7  6  2  0
  8  7  1  0
  9  4  1  0
  9  8  2  0
 10 11  2  0
 13 15  1  0
 13 12  1  0
 14 13  2  0
 16 15  1  0
 16 17  1  0
 18 17  1  0
 19 18  1  6
 20 19  1  0
 20 10  1  0
 21 19  1  0
 22 21  2  0
 23 21  1  0
 24 31  1  0
 24 23  1  0
 24 25  1  1
 25 26  1  0
 26 30  1  0
 26 27  2  0
 27 28  1  0
 29 28  1  0
 30 29  2  0
 31 33  1  0
 32 31  2  0
M  END
$$$$
