FRH.pdb
     RDKit          3D

 33 34  0  0  1  0  0  0  0  0999 V2000
    7.7258  -13.6350   23.6006 N   0  0  0  0  0  0  0  0  0  0  0  0
    8.2956  -14.3438   24.7197 C   0  0  1  0  0  0  0  0  0  0  0  0
    7.3749  -14.4903   25.8926 C   0  0  0  0  0  0  0  0  0  0  0  0
    6.8222  -13.2204   26.4074 C   0  0  0  0  0  0  0  0  0  0  0  0
    5.4927  -13.0118   26.7028 C   0  0  0  0  0  0  0  0  0  0  0  0
    5.0261  -11.7952   27.1864 C   0  0  0  0  0  0  0  0  0  0  0  0
    5.9029  -10.7448   27.3858 C   0  0  0  0  0  0  0  0  0  0  0  0
    7.2315  -10.9383   27.0943 C   0  0  0  0  0  0  0  0  0  0  0  0
    7.6878  -12.1462   26.6163 C   0  0  0  0  0  0  0  0  0  0  0  0
    8.6504  -15.7095   24.2597 C   0  0  0  0  0  0  0  0  0  0  0  0
    8.7532  -16.6378   25.1025 O   0  0  0  0  0  0  0  0  0  0  0  0
    9.2739  -13.2739   18.9229 N   0  0  0  0  0  0  0  0  0  0  0  0
    8.6566  -14.2235   18.0672 C   0  0  0  0  0  0  0  0  0  0  0  0
    7.5126  -13.9072   17.5223 N   0  0  0  0  0  0  0  0  0  0  0  0
    9.2859  -15.4589   17.8362 N   0  0  0  0  0  0  0  0  0  0  0  0
    9.3146  -16.4398   18.8765 C   0  0  0  0  0  0  0  0  0  0  0  0
   10.1368  -15.9643   20.0770 C   0  0  0  0  0  0  0  0  0  0  0  0
   10.1860  -17.0851   21.0306 C   0  0  0  0  0  0  0  0  0  0  0  0
    9.9469  -16.9126   22.4443 C   0  0  2  0  0  0  0  0  0  0  0  0
    8.8917  -16.0484   22.9035 N   0  0  0  0  0  0  0  0  0  0  0  0
   11.1286  -16.8717   23.3722 C   0  0  0  0  0  0  0  0  0  0  0  0
   11.5999  -15.7740   23.7769 O   0  0  0  0  0  0  0  0  0  0  0  0
    7.0550  -14.5503   16.8494 N   0  0  0  0  0  0  0  0  0  0  0  0
   11.7697  -18.0292   23.8407 C   0  0  1  0  0  0  0  0  0  0  0  0
   12.5492  -18.0487   25.1126 C   0  0  0  0  0  0  0  0  0  0  0  0
   11.6351  -18.3770   26.2371 C   0  0  0  0  0  0  0  0  0  0  0  0
   11.4270  -17.2245   27.1287 C   0  0  0  0  0  0  0  0  0  0  0  0
   11.9967  -15.9628   26.8708 N   0  0  0  0  0  0  0  0  0  0  0  0
   11.6287  -15.1466   27.8659 C   0  0  0  0  0  0  0  0  0  0  0  0
   10.8574  -15.8128   28.7446 N   0  0  0  0  0  0  0  0  0  0  0  0
   10.7634  -17.0593   28.2596 C   0  0  0  0  0  0  0  0  0  0  0  0
   13.7191  -18.9086   24.9314 O   0  0  0  0  0  0  0  0  0  0  0  0
   13.6290  -19.9304   24.1695 O   0  0  0  0  0  0  0  0  0  0  0  0
  2  1  1  6
  2 10  1  0
  2  3  1  0
  3  4  1  0
  4  5  2  0
  5  6  1  0
  7  6  2  0
  8  7  1  0
  9  4  1  0
  9  8  2  0
 10 11  2  0
 13 15  1  0
 13 12  1  0
 14 13  2  0
 16 15  1  0
 16 17  1  0
 18 17  1  0
 19 18  1  6
 20 19  1  0
 20 10  1  0
 21 19  1  0
 22 21  2  0
 23 21  1  0
 24 31  1  0
 24 23  1  0
 24 25  1  6
 25 26  1  0
 26 30  1  0
 26 27  2  0
 27 28  1  0
 29 28  1  0
 30 29  2  0
 31 33  1  0
 32 31  2  0
M  END
$$$$
