FRH.pdb
     RDKit          3D

 33 34  0  0  1  0  0  0  0  0999 V2000
    6.1438  -16.7901   25.5794 N   0  0  0  0  0  0  0  0  0  0  0  0
    6.6866  -15.6178   24.9386 C   0  0  1  0  0  0  0  0  0  0  0  0
    7.6686  -14.8549   25.7742 C   0  0  0  0  0  0  0  0  0  0  0  0
    7.1055  -13.6814   26.4735 C   0  0  0  0  0  0  0  0  0  0  0  0
    7.6118  -13.1524   27.6406 C   0  0  0  0  0  0  0  0  0  0  0  0
    7.0424  -12.0444   28.2568 C   0  0  0  0  0  0  0  0  0  0  0  0
    5.9319  -11.4354   27.7020 C   0  0  0  0  0  0  0  0  0  0  0  0
    5.4155  -11.9531   26.5388 C   0  0  0  0  0  0  0  0  0  0  0  0
    5.9847  -13.0505   25.9327 C   0  0  0  0  0  0  0  0  0  0  0  0
    7.3948  -16.0578   23.7108 C   0  0  0  0  0  0  0  0  0  0  0  0
    7.6451  -17.2796   23.5464 O   0  0  0  0  0  0  0  0  0  0  0  0
    7.9020  -12.6285   15.7101 N   0  0  0  0  0  0  0  0  0  0  0  0
    8.4520  -13.9185   15.4910 C   0  0  0  0  0  0  0  0  0  0  0  0
    8.6549  -14.2986   14.2581 N   0  0  0  0  0  0  0  0  0  0  0  0
    8.7566  -14.7373   16.5922 N   0  0  0  0  0  0  0  0  0  0  0  0
    8.4335  -14.2912   17.9119 C   0  0  0  0  0  0  0  0  0  0  0  0
    8.8837  -15.2983   18.9733 C   0  0  0  0  0  0  0  0  0  0  0  0
    8.3072  -14.8545   20.2534 C   0  0  0  0  0  0  0  0  0  0  0  0
    8.5136  -15.5736   21.4886 C   0  0  2  0  0  0  0  0  0  0  0  0
    7.8233  -15.1745   22.6868 N   0  0  0  0  0  0  0  0  0  0  0  0
    9.8918  -16.0873   21.7981 C   0  0  0  0  0  0  0  0  0  0  0  0
   10.5590  -16.7201   20.9347 O   0  0  0  0  0  0  0  0  0  0  0  0
    9.0901  -15.2182   14.0561 N   0  0  0  0  0  0  0  0  0  0  0  0
   10.5138  -15.8980   23.0421 C   0  0  1  0  0  0  0  0  0  0  0  0
   11.9391  -16.2659   23.2844 C   0  0  0  0  0  0  0  0  0  0  0  0
   12.5188  -15.3305   24.2829 C   0  0  0  0  0  0  0  0  0  0  0  0
   11.9443  -15.5339   25.6227 C   0  0  0  0  0  0  0  0  0  0  0  0
   10.8537  -16.3954   25.8494 N   0  0  0  0  0  0  0  0  0  0  0  0
   10.5708  -16.3473   27.1569 C   0  0  0  0  0  0  0  0  0  0  0  0
   11.4166  -15.5054   27.7788 N   0  0  0  0  0  0  0  0  0  0  0  0
   12.2251  -15.0398   26.8158 C   0  0  0  0  0  0  0  0  0  0  0  0
   12.0081  -17.6950   23.5907 O   0  0  0  0  0  0  0  0  0  0  0  0
   13.1492  -18.2354   23.7874 O   0  0  0  0  0  0  0  0  0  0  0  0
  2  1  1  1
  2 10  1  0
  2  3  1  0
  3  4  1  0
  4  5  2  0
  5  6  1  0
  7  6  2  0
  8  7  1  0
  9  4  1  0
  9  8  2  0
 10 11  2  0
 13 15  1  0
 13 12  1  0
 14 13  2  0
 16 15  1  0
 16 17  1  0
 18 17  1  0
 19 18  1  6
 20 19  1  0
 20 10  1  0
 21 19  1  0
 22 21  2  0
 23 21  1  0
 24 31  1  0
 24 23  1  0
 24 25  1  6
 25 26  1  0
 26 30  1  0
 26 27  2  0
 27 28  1  0
 29 28  1  0
 30 29  2  0
 31 33  1  0
 32 31  2  0
M  END
$$$$
