FRH.pdb
     RDKit          3D

 33 34  0  0  1  0  0  0  0  0999 V2000
    6.8915  -16.0255   26.3441 N   0  0  0  0  0  0  0  0  0  0  0  0
    7.1640  -15.5603   25.0067 C   0  0  1  0  0  0  0  0  0  0  0  0
    7.7062  -14.1654   24.9353 C   0  0  0  0  0  0  0  0  0  0  0  0
    6.9256  -13.1594   25.6847 C   0  0  0  0  0  0  0  0  0  0  0  0
    5.5590  -13.0082   25.5951 C   0  0  0  0  0  0  0  0  0  0  0  0
    4.8736  -12.0441   26.3248 C   0  0  0  0  0  0  0  0  0  0  0  0
    5.5612  -11.1969   27.1741 C   0  0  0  0  0  0  0  0  0  0  0  0
    6.9246  -11.3355   27.2725 C   0  0  0  0  0  0  0  0  0  0  0  0
    7.5977  -12.2932   26.5477 C   0  0  0  0  0  0  0  0  0  0  0  0
    8.1795  -16.4631   24.4095 C   0  0  0  0  0  0  0  0  0  0  0  0
    8.7284  -17.3369   25.1290 O   0  0  0  0  0  0  0  0  0  0  0  0
    7.3376  -13.3670   18.9936 N   0  0  0  0  0  0  0  0  0  0  0  0
    8.7106  -13.6319   18.7495 C   0  0  0  0  0  0  0  0  0  0  0  0
    9.5700  -12.6737   18.9708 N   0  0  0  0  0  0  0  0  0  0  0  0
    9.0985  -14.8996   18.2823 N   0  0  0  0  0  0  0  0  0  0  0  0
    8.9963  -16.0314   19.1504 C   0  0  0  0  0  0  0  0  0  0  0  0
   10.0929  -16.0233   20.2185 C   0  0  0  0  0  0  0  0  0  0  0  0
    9.8737  -17.2093   21.0631 C   0  0  0  0  0  0  0  0  0  0  0  0
    9.7035  -17.1223   22.4945 C   0  0  2  0  0  0  0  0  0  0  0  0
    8.5871  -16.4051   23.0520 N   0  0  0  0  0  0  0  0  0  0  0  0
   10.9274  -16.9816   23.3555 C   0  0  0  0  0  0  0  0  0  0  0  0
   11.7412  -16.0342   23.1792 O   0  0  0  0  0  0  0  0  0  0  0  0
   10.5720  -12.8013   18.7353 N   0  0  0  0  0  0  0  0  0  0  0  0
   11.2364  -17.8762   24.3921 C   0  0  1  0  0  0  0  0  0  0  0  0
   12.4729  -17.7441   25.2163 C   0  0  0  0  0  0  0  0  0  0  0  0
   12.1310  -17.9716   26.6443 C   0  0  0  0  0  0  0  0  0  0  0  0
   11.2162  -16.9402   27.1600 C   0  0  0  0  0  0  0  0  0  0  0  0
   10.9906  -15.7280   26.4795 N   0  0  0  0  0  0  0  0  0  0  0  0
   10.1258  -15.0139   27.2102 C   0  0  0  0  0  0  0  0  0  0  0  0
    9.7857  -15.6984   28.3177 N   0  0  0  0  0  0  0  0  0  0  0  0
   10.4661  -16.8515   28.2445 C   0  0  0  0  0  0  0  0  0  0  0  0
   13.5146  -18.5925   24.6367 O   0  0  0  0  0  0  0  0  0  0  0  0
   14.6709  -18.6181   25.1801 O   0  0  0  0  0  0  0  0  0  0  0  0
  2  1  1  1
  2 10  1  0
  2  3  1  0
  3  4  1  0
  4  5  2  0
  5  6  1  0
  7  6  2  0
  8  7  1  0
  9  4  1  0
  9  8  2  0
 10 11  2  0
 13 15  1  0
 13 12  1  0
 14 13  2  0
 16 15  1  0
 16 17  1  0
 18 17  1  0
 19 18  1  6
 20 19  1  0
 20 10  1  0
 21 19  1  0
 22 21  2  0
 23 21  1  0
 24 31  1  0
 24 23  1  0
 24 25  1  1
 25 26  1  0
 26 30  1  0
 26 27  2  0
 27 28  1  0
 29 28  1  0
 30 29  2  0
 31 33  1  0
 32 31  2  0
M  END
$$$$
