FRH.pdb
     RDKit          3D

 33 34  0  0  1  0  0  0  0  0999 V2000
    6.5801  -16.2191   25.8409 N   0  0  0  0  0  0  0  0  0  0  0  0
    6.7801  -15.4171   24.6594 C   0  0  1  0  0  0  0  0  0  0  0  0
    7.6824  -14.2375   24.8579 C   0  0  0  0  0  0  0  0  0  0  0  0
    7.2169  -13.2661   25.8693 C   0  0  0  0  0  0  0  0  0  0  0  0
    7.9179  -12.9282   27.0062 C   0  0  0  0  0  0  0  0  0  0  0  0
    7.4329  -12.0057   27.9256 C   0  0  0  0  0  0  0  0  0  0  0  0
    6.2107  -11.3937   27.7166 C   0  0  0  0  0  0  0  0  0  0  0  0
    5.5001  -11.7220   26.5875 C   0  0  0  0  0  0  0  0  0  0  0  0
    5.9864  -12.6360   25.6799 C   0  0  0  0  0  0  0  0  0  0  0  0
    7.3990  -16.2808   23.6232 C   0  0  0  0  0  0  0  0  0  0  0  0
    8.2821  -17.1116   23.9586 O   0  0  0  0  0  0  0  0  0  0  0  0
    7.7183  -15.6251   15.5394 N   0  0  0  0  0  0  0  0  0  0  0  0
    8.2619  -14.4030   16.0147 C   0  0  0  0  0  0  0  0  0  0  0  0
    7.9918  -13.3111   15.3509 N   0  0  0  0  0  0  0  0  0  0  0  0
    9.0643  -14.4047   17.1688 N   0  0  0  0  0  0  0  0  0  0  0  0
    8.5516  -14.9622   18.3819 C   0  0  0  0  0  0  0  0  0  0  0  0
    8.6412  -13.9670   19.5415 C   0  0  0  0  0  0  0  0  0  0  0  0
    7.7641  -14.4765   20.6089 C   0  0  0  0  0  0  0  0  0  0  0  0
    7.9354  -15.7846   21.1962 C   0  0  2  0  0  0  0  0  0  0  0  0
    7.0588  -16.2307   22.2470 N   0  0  0  0  0  0  0  0  0  0  0  0
    9.3313  -16.3063   21.3917 C   0  0  0  0  0  0  0  0  0  0  0  0
    9.7837  -17.2388   20.6728 O   0  0  0  0  0  0  0  0  0  0  0  0
    8.4173  -12.4073   15.6299 N   0  0  0  0  0  0  0  0  0  0  0  0
   10.2050  -15.7980   22.3656 C   0  0  2  0  0  0  0  0  0  0  0  0
   11.5533  -16.3873   22.6117 C   0  0  0  0  0  0  0  0  0  0  0  0
   11.5564  -17.8006   22.1530 C   0  0  0  0  0  0  0  0  0  0  0  0
   11.1997  -18.7297   23.2376 C   0  0  0  0  0  0  0  0  0  0  0  0
   10.8692  -18.2826   24.5314 N   0  0  0  0  0  0  0  0  0  0  0  0
   10.6096  -19.3651   25.2747 C   0  0  0  0  0  0  0  0  0  0  0  0
   10.7551  -20.4777   24.5318 N   0  0  0  0  0  0  0  0  0  0  0  0
   11.1106  -20.0461   23.3132 C   0  0  0  0  0  0  0  0  0  0  0  0
   12.5644  -15.4982   22.0391 O   0  0  0  0  0  0  0  0  0  0  0  0
   12.2014  -14.5900   21.2167 O   0  0  0  0  0  0  0  0  0  0  0  0
  2  1  1  1
  2 10  1  0
  2  3  1  0
  3  4  1  0
  4  5  2  0
  5  6  1  0
  7  6  2  0
  8  7  1  0
  9  4  1  0
  9  8  2  0
 10 11  2  0
 13 15  1  0
 13 12  1  0
 14 13  2  0
 16 15  1  0
 16 17  1  0
 18 17  1  0
 19 18  1  1
 20 19  1  0
 20 10  1  0
 21 19  1  0
 22 21  2  0
 23 21  1  0
 24 31  1  0
 24 23  1  0
 24 25  1  1
 25 26  1  0
 26 30  1  0
 26 27  2  0
 27 28  1  0
 29 28  1  0
 30 29  2  0
 31 33  1  0
 32 31  2  0
M  END
$$$$
