QFC.pdb
     RDKit          3D

 27 27  0  0  1  0  0  0  0  0999 V2000
   11.1090  -21.5262   22.9064 N   0  0  0  0  0  0  0  0  0  0  0  0
   11.8385  -20.4397   22.3698 C   0  0  0  0  0  0  0  0  0  0  0  0
   13.0800  -20.5526   22.2771 O   0  0  0  0  0  0  0  0  0  0  0  0
   11.1068  -19.2458   21.9514 C   0  0  0  0  0  0  0  0  0  0  0  0
    9.6211  -19.2778   22.1868 C   0  0  0  0  0  0  0  0  0  0  0  0
    8.9996  -18.0706   21.5366 C   0  0  2  0  0  0  0  0  0  0  0  0
    9.7716  -17.8099   20.3360 N   0  0  0  0  0  0  0  0  0  0  0  0
    9.0778  -16.8628   22.3941 C   0  0  0  0  0  0  0  0  0  0  0  0
   10.0444  -16.0900   22.2251 O   0  0  0  0  0  0  0  0  0  0  0  0
    8.1153  -16.5523   23.3834 N   0  0  0  0  0  0  0  0  0  0  0  0
    8.1573  -15.3146   24.1244 C   0  0  1  0  0  0  0  0  0  0  0  0
    6.8116  -14.9838   24.7357 C   0  0  0  0  0  0  0  0  0  0  0  0
    6.8338  -13.6657   25.4082 C   0  0  0  0  0  0  0  0  0  0  0  0
    7.6690  -12.6875   24.9273 C   0  0  0  0  0  0  0  0  0  0  0  0
    7.6782  -11.4568   25.5818 C   0  0  0  0  0  0  0  0  0  0  0  0
    6.8772  -11.2252   26.6751 C   0  0  0  0  0  0  0  0  0  0  0  0
    6.0462  -12.2139   27.1447 C   0  0  0  0  0  0  0  0  0  0  0  0
    6.0269  -13.4419   26.5041 C   0  0  0  0  0  0  0  0  0  0  0  0
    9.2463  -15.2865   25.1385 C   0  0  0  0  0  0  0  0  0  0  0  0
   10.2148  -14.4740   25.0251 O   0  0  0  0  0  0  0  0  0  0  0  0
    9.2805  -16.1408   26.2695 N   0  0  0  0  0  0  0  0  0  0  0  0
   10.3353  -16.0632   27.2705 C   0  0  1  0  0  0  0  0  0  0  0  0
   10.0008  -15.0265   28.3229 C   0  0  0  0  0  0  0  0  0  0  0  0
    9.9068  -13.3803   27.5732 S   0  0  0  0  0  0  0  0  0  0  0  0
   10.5635  -17.3899   27.8928 C   0  0  0  0  0  0  0  0  0  0  0  0
   11.4151  -17.4731   28.8108 O   0  0  0  0  0  0  0  0  0  0  0  0
    9.8875  -18.5253   27.5108 O   0  0  0  0  0  0  0  0  0  0  0  0
  2  4  1  0
  2  1  1  0
  3  2  2  0
  5  4  1  0
  6  5  1  0
  6  8  1  0
  6  7  1  6
  8  9  2  0
 10  8  1  0
 10 11  1  0
 11 12  1  1
 12 13  1  0
 13 14  2  0
 14 15  1  0
 16 15  2  0
 17 16  1  0
 18 13  1  0
 18 17  2  0
 19 21  1  0
 19 11  1  0
 20 19  2  0
 22 25  1  0
 22 23  1  1
 22 21  1  0
 23 24  1  0
 25 27  1  0
 26 25  2  0
M  END
$$$$
