QFC.pdb
     RDKit          3D

 27 27  0  0  1  0  0  0  0  0999 V2000
   10.6591  -18.9888   18.5701 N   0  0  0  0  0  0  0  0  0  0  0  0
   10.5369  -17.8956   17.6808 C   0  0  0  0  0  0  0  0  0  0  0  0
   10.4489  -18.1385   16.4578 O   0  0  0  0  0  0  0  0  0  0  0  0
   10.5183  -16.5433   18.2348 C   0  0  0  0  0  0  0  0  0  0  0  0
   10.7063  -16.4482   19.7245 C   0  0  0  0  0  0  0  0  0  0  0  0
    9.3538  -16.4349   20.3855 C   0  0  2  0  0  0  0  0  0  0  0  0
    8.4740  -15.6934   19.5015 N   0  0  0  0  0  0  0  0  0  0  0  0
    9.3705  -15.7371   21.6944 C   0  0  0  0  0  0  0  0  0  0  0  0
   10.4588  -15.2710   22.0922 O   0  0  0  0  0  0  0  0  0  0  0  0
    8.2195  -15.5786   22.5017 N   0  0  0  0  0  0  0  0  0  0  0  0
    8.2819  -15.6627   23.9411 C   0  0  1  0  0  0  0  0  0  0  0  0
    6.9443  -15.3467   24.5773 C   0  0  0  0  0  0  0  0  0  0  0  0
    6.9383  -13.9938   25.1774 C   0  0  0  0  0  0  0  0  0  0  0  0
    7.3503  -12.9271   24.4171 C   0  0  0  0  0  0  0  0  0  0  0  0
    7.3432  -11.6638   25.0062 C   0  0  0  0  0  0  0  0  0  0  0  0
    6.9368  -11.4868   26.3078 C   0  0  0  0  0  0  0  0  0  0  0  0
    6.5269  -12.5641   27.0562 C   0  0  0  0  0  0  0  0  0  0  0  0
    6.5290  -13.8254   26.4836 C   0  0  0  0  0  0  0  0  0  0  0  0
    8.8279  -16.9620   24.4195 C   0  0  0  0  0  0  0  0  0  0  0  0
    8.7544  -18.0008   23.6938 O   0  0  0  0  0  0  0  0  0  0  0  0
    9.4493  -17.1286   25.6829 N   0  0  0  0  0  0  0  0  0  0  0  0
   10.6583  -17.9220   25.8558 C   0  0  1  0  0  0  0  0  0  0  0  0
   11.7345  -17.4774   24.8872 C   0  0  0  0  0  0  0  0  0  0  0  0
   13.2651  -18.3992   25.1846 S   0  0  0  0  0  0  0  0  0  0  0  0
   11.1425  -17.8380   27.2550 C   0  0  0  0  0  0  0  0  0  0  0  0
   11.2037  -16.7053   27.7919 O   0  0  0  0  0  0  0  0  0  0  0  0
   11.5247  -18.9392   27.9853 O   0  0  0  0  0  0  0  0  0  0  0  0
  2  4  1  0
  2  1  1  0
  3  2  2  0
  5  4  1  0
  6  5  1  0
  6  8  1  0
  6  7  1  6
  8  9  2  0
 10  8  1  0
 10 11  1  0
 11 12  1  1
 12 13  1  0
 13 14  2  0
 14 15  1  0
 16 15  2  0
 17 16  1  0
 18 13  1  0
 18 17  2  0
 19 21  1  0
 19 11  1  0
 20 19  2  0
 22 25  1  0
 22 23  1  6
 22 21  1  0
 23 24  1  0
 25 27  1  0
 26 25  2  0
M  END
$$$$
