QFC.pdb
     RDKit          3D

 27 27  0  0  1  0  0  0  0  0999 V2000
    8.5095  -13.0059   16.8759 N   0  0  0  0  0  0  0  0  0  0  0  0
    8.2644  -14.3672   16.5803 C   0  0  0  0  0  0  0  0  0  0  0  0
    8.2314  -14.7123   15.3793 O   0  0  0  0  0  0  0  0  0  0  0  0
    8.0643  -15.2976   17.6894 C   0  0  0  0  0  0  0  0  0  0  0  0
    8.1171  -14.6907   19.0651 C   0  0  0  0  0  0  0  0  0  0  0  0
    9.0451  -15.5092   19.9225 C   0  0  2  0  0  0  0  0  0  0  0  0
    8.4779  -16.8435   19.9804 N   0  0  0  0  0  0  0  0  0  0  0  0
    9.1327  -14.9958   21.3114 C   0  0  0  0  0  0  0  0  0  0  0  0
    9.8887  -14.0253   21.5270 O   0  0  0  0  0  0  0  0  0  0  0  0
    8.4047  -15.5519   22.3895 N   0  0  0  0  0  0  0  0  0  0  0  0
    8.4087  -14.9504   23.7013 C   0  0  1  0  0  0  0  0  0  0  0  0
    7.0023  -14.7266   24.2172 C   0  0  0  0  0  0  0  0  0  0  0  0
    6.9986  -13.8542   25.4127 C   0  0  0  0  0  0  0  0  0  0  0  0
    7.3149  -12.5258   25.2678 C   0  0  0  0  0  0  0  0  0  0  0  0
    7.3121  -11.7256   26.4092 C   0  0  0  0  0  0  0  0  0  0  0  0
    7.0026  -12.2461   27.6436 C   0  0  0  0  0  0  0  0  0  0  0  0
    6.6877  -13.5775   27.7728 C   0  0  0  0  0  0  0  0  0  0  0  0
    6.6867  -14.3846   26.6470 C   0  0  0  0  0  0  0  0  0  0  0  0
    9.2419  -15.7032   24.6781 C   0  0  0  0  0  0  0  0  0  0  0  0
    9.2900  -16.9711   24.6452 O   0  0  0  0  0  0  0  0  0  0  0  0
   10.0175  -15.0774   25.6866 N   0  0  0  0  0  0  0  0  0  0  0  0
   10.9329  -15.8238   26.5384 C   0  0  1  0  0  0  0  0  0  0  0  0
   11.6259  -14.9008   27.5193 C   0  0  0  0  0  0  0  0  0  0  0  0
   10.4424  -14.2864   28.7451 S   0  0  0  0  0  0  0  0  0  0  0  0
   10.2156  -16.9076   27.2526 C   0  0  0  0  0  0  0  0  0  0  0  0
   10.8989  -17.7804   27.8410 O   0  0  0  0  0  0  0  0  0  0  0  0
    8.8438  -16.9978   27.2984 O   0  0  0  0  0  0  0  0  0  0  0  0
  2  4  1  0
  2  1  1  0
  3  2  2  0
  5  4  1  0
  6  5  1  0
  6  8  1  0
  6  7  1  1
  8  9  2  0
 10  8  1  0
 10 11  1  0
 11 12  1  1
 12 13  1  0
 13 14  2  0
 14 15  1  0
 16 15  2  0
 17 16  1  0
 18 13  1  0
 18 17  2  0
 19 21  1  0
 19 11  1  0
 20 19  2  0
 22 25  1  0
 22 23  1  1
 22 21  1  0
 23 24  1  0
 25 27  1  0
 26 25  2  0
M  END
$$$$
