QFC.pdb
     RDKit          3D

 27 27  0  0  1  0  0  0  0  0999 V2000
   10.8622  -20.1688   18.4780 N   0  0  0  0  0  0  0  0  0  0  0  0
   11.4963  -18.9046   18.4633 C   0  0  0  0  0  0  0  0  0  0  0  0
   12.7439  -18.8725   18.3914 O   0  0  0  0  0  0  0  0  0  0  0  0
   10.6643  -17.7050   18.5312 C   0  0  0  0  0  0  0  0  0  0  0  0
   10.9374  -16.7890   19.6930 C   0  0  0  0  0  0  0  0  0  0  0  0
   10.3469  -17.3940   20.9386 C   0  0  2  0  0  0  0  0  0  0  0  0
    9.0533  -17.9306   20.5589 N   0  0  0  0  0  0  0  0  0  0  0  0
   10.1223  -16.3876   22.0049 C   0  0  0  0  0  0  0  0  0  0  0  0
   11.0669  -15.6226   22.2922 O   0  0  0  0  0  0  0  0  0  0  0  0
    8.8979  -16.2586   22.7020 N   0  0  0  0  0  0  0  0  0  0  0  0
    8.7483  -15.3545   23.8169 C   0  0  1  0  0  0  0  0  0  0  0  0
    7.3446  -14.7911   23.8944 C   0  0  0  0  0  0  0  0  0  0  0  0
    7.2055  -13.8422   25.0216 C   0  0  0  0  0  0  0  0  0  0  0  0
    6.6445  -14.2814   26.1955 C   0  0  0  0  0  0  0  0  0  0  0  0
    6.5171  -13.3676   27.2404 C   0  0  0  0  0  0  0  0  0  0  0  0
    6.9389  -12.0661   27.1042 C   0  0  0  0  0  0  0  0  0  0  0  0
    7.4987  -11.6412   25.9233 C   0  0  0  0  0  0  0  0  0  0  0  0
    7.6315  -12.5385   24.8764 C   0  0  0  0  0  0  0  0  0  0  0  0
    9.1734  -15.9579   25.1094 C   0  0  0  0  0  0  0  0  0  0  0  0
    8.7865  -17.1212   25.4382 O   0  0  0  0  0  0  0  0  0  0  0  0
   10.0146  -15.2963   26.0393 N   0  0  0  0  0  0  0  0  0  0  0  0
   10.8119  -16.0213   27.0188 C   0  0  1  0  0  0  0  0  0  0  0  0
   11.9178  -15.1428   27.5661 C   0  0  0  0  0  0  0  0  0  0  0  0
   11.2148  -13.6968   28.4001 S   0  0  0  0  0  0  0  0  0  0  0  0
    9.9542  -16.5319   28.1156 C   0  0  0  0  0  0  0  0  0  0  0  0
    8.7492  -16.1818   28.1349 O   0  0  0  0  0  0  0  0  0  0  0  0
   10.4179  -17.3665   29.1058 O   0  0  0  0  0  0  0  0  0  0  0  0
  2  4  1  0
  2  1  1  0
  3  2  2  0
  5  4  1  0
  6  5  1  0
  6  8  1  0
  6  7  1  6
  8  9  2  0
 10  8  1  0
 10 11  1  0
 11 12  1  1
 12 13  1  0
 13 14  2  0
 14 15  1  0
 16 15  2  0
 17 16  1  0
 18 13  1  0
 18 17  2  0
 19 21  1  0
 19 11  1  0
 20 19  2  0
 22 25  1  0
 22 23  1  1
 22 21  1  0
 23 24  1  0
 25 27  1  0
 26 25  2  0
M  END
$$$$
