QFC.pdb
     RDKit          3D

 27 27  0  0  1  0  0  0  0  0999 V2000
   11.1697  -21.0209   21.7003 N   0  0  0  0  0  0  0  0  0  0  0  0
   10.8918  -20.7452   20.3411 C   0  0  0  0  0  0  0  0  0  0  0  0
   10.9231  -21.6953   19.5293 O   0  0  0  0  0  0  0  0  0  0  0  0
   10.5823  -19.3697   19.9566 C   0  0  0  0  0  0  0  0  0  0  0  0
   10.4691  -18.3873   21.0905 C   0  0  0  0  0  0  0  0  0  0  0  0
    9.8293  -17.1246   20.5779 C   0  0  2  0  0  0  0  0  0  0  0  0
   10.7114  -16.6083   19.5480 N   0  0  0  0  0  0  0  0  0  0  0  0
    9.7065  -16.0854   21.6291 C   0  0  0  0  0  0  0  0  0  0  0  0
   10.7464  -15.4935   21.9874 O   0  0  0  0  0  0  0  0  0  0  0  0
    8.4761  -15.7399   22.2360 N   0  0  0  0  0  0  0  0  0  0  0  0
    8.4191  -15.0552   23.5052 C   0  0  1  0  0  0  0  0  0  0  0  0
    7.0965  -14.3423   23.6960 C   0  0  0  0  0  0  0  0  0  0  0  0
    7.0731  -13.5786   24.9635 C   0  0  0  0  0  0  0  0  0  0  0  0
    6.4471  -14.1239   26.0573 C   0  0  0  0  0  0  0  0  0  0  0  0
    6.4314  -13.3827   27.2377 C   0  0  0  0  0  0  0  0  0  0  0  0
    7.0234  -12.1439   27.3091 C   0  0  0  0  0  0  0  0  0  0  0  0
    7.6465  -11.6112   26.2061 C   0  0  0  0  0  0  0  0  0  0  0  0
    7.6696  -12.3367   25.0263 C   0  0  0  0  0  0  0  0  0  0  0  0
    8.7378  -15.9449   24.6549 C   0  0  0  0  0  0  0  0  0  0  0  0
    8.0586  -16.9960   24.8670 O   0  0  0  0  0  0  0  0  0  0  0  0
    9.7904  -15.6896   25.5698 N   0  0  0  0  0  0  0  0  0  0  0  0
   10.1519  -16.6304   26.6210 C   0  0  1  0  0  0  0  0  0  0  0  0
   11.6043  -17.0415   26.4966 C   0  0  0  0  0  0  0  0  0  0  0  0
   12.0401  -17.2839   24.7553 S   0  0  0  0  0  0  0  0  0  0  0  0
    9.8825  -16.0483   27.9581 C   0  0  0  0  0  0  0  0  0  0  0  0
    9.4594  -14.8681   28.0142 O   0  0  0  0  0  0  0  0  0  0  0  0
   10.0745  -16.7401   29.1314 O   0  0  0  0  0  0  0  0  0  0  0  0
  2  4  1  0
  2  1  1  0
  3  2  2  0
  5  4  1  0
  6  5  1  0
  6  8  1  0
  6  7  1  6
  8  9  2  0
 10  8  1  0
 10 11  1  0
 11 12  1  1
 12 13  1  0
 13 14  2  0
 14 15  1  0
 16 15  2  0
 17 16  1  0
 18 13  1  0
 18 17  2  0
 19 21  1  0
 19 11  1  0
 20 19  2  0
 22 25  1  0
 22 23  1  1
 22 21  1  0
 23 24  1  0
 25 27  1  0
 26 25  2  0
M  END
$$$$
