QFC.pdb
     RDKit          3D

 27 27  0  0  1  0  0  0  0  0999 V2000
    8.8746  -17.0654   17.2851 N   0  0  0  0  0  0  0  0  0  0  0  0
    9.6606  -18.0859   17.8696 C   0  0  0  0  0  0  0  0  0  0  0  0
   10.3778  -18.7804   17.1173 O   0  0  0  0  0  0  0  0  0  0  0  0
    9.5958  -18.2747   19.3173 C   0  0  0  0  0  0  0  0  0  0  0  0
   10.6070  -17.5020   20.1199 C   0  0  0  0  0  0  0  0  0  0  0  0
   10.3575  -17.7492   21.5838 C   0  0  2  0  0  0  0  0  0  0  0  0
    9.1552  -18.5576   21.6629 N   0  0  0  0  0  0  0  0  0  0  0  0
   10.1076  -16.4947   22.3349 C   0  0  0  0  0  0  0  0  0  0  0  0
   11.0099  -15.6312   22.3432 O   0  0  0  0  0  0  0  0  0  0  0  0
    8.9047  -16.2376   23.0339 N   0  0  0  0  0  0  0  0  0  0  0  0
    8.7234  -15.0432   23.8235 C   0  0  1  0  0  0  0  0  0  0  0  0
    7.2566  -14.7282   24.0307 C   0  0  0  0  0  0  0  0  0  0  0  0
    7.0761  -13.5631   24.9254 C   0  0  0  0  0  0  0  0  0  0  0  0
    7.5517  -12.3382   24.5265 C   0  0  0  0  0  0  0  0  0  0  0  0
    7.3768  -11.2573   25.3891 C   0  0  0  0  0  0  0  0  0  0  0  0
    6.7480  -11.4085   26.6025 C   0  0  0  0  0  0  0  0  0  0  0  0
    6.2771  -12.6406   26.9879 C   0  0  0  0  0  0  0  0  0  0  0  0
    6.4441  -13.7237   26.1406 C   0  0  0  0  0  0  0  0  0  0  0  0
    9.4665  -15.0861   25.1123 C   0  0  0  0  0  0  0  0  0  0  0  0
    9.5776  -14.0448   25.8297 O   0  0  0  0  0  0  0  0  0  0  0  0
   10.0867  -16.2573   25.6160 N   0  0  0  0  0  0  0  0  0  0  0  0
   10.7726  -16.2826   26.9004 C   0  0  1  0  0  0  0  0  0  0  0  0
    9.8231  -15.9178   28.0226 C   0  0  0  0  0  0  0  0  0  0  0  0
   10.7054  -15.8842   29.6042 S   0  0  0  0  0  0  0  0  0  0  0  0
   11.3841  -17.6123   27.1399 C   0  0  0  0  0  0  0  0  0  0  0  0
   12.0656  -17.7699   28.1819 O   0  0  0  0  0  0  0  0  0  0  0  0
   11.2383  -18.6730   26.2764 O   0  0  0  0  0  0  0  0  0  0  0  0
  2  4  1  0
  2  1  1  0
  3  2  2  0
  5  4  1  0
  6  5  1  0
  6  8  1  0
  6  7  1  6
  8  9  2  0
 10  8  1  0
 10 11  1  0
 11 12  1  1
 12 13  1  0
 13 14  2  0
 14 15  1  0
 16 15  2  0
 17 16  1  0
 18 13  1  0
 18 17  2  0
 19 21  1  0
 19 11  1  0
 20 19  2  0
 22 25  1  0
 22 23  1  1
 22 21  1  0
 23 24  1  0
 25 27  1  0
 26 25  2  0
M  END
$$$$
