QFC.pdb
     RDKit          3D

 27 27  0  0  1  0  0  0  0  0999 V2000
   12.9465  -18.9165   18.9319 N   0  0  0  0  0  0  0  0  0  0  0  0
   11.6609  -18.9808   18.3455 C   0  0  0  0  0  0  0  0  0  0  0  0
   11.5033  -19.7233   17.3523 O   0  0  0  0  0  0  0  0  0  0  0  0
   10.5863  -18.1803   18.9290 C   0  0  0  0  0  0  0  0  0  0  0  0
   10.9556  -17.3914   20.1557 C   0  0  0  0  0  0  0  0  0  0  0  0
    9.9238  -17.6412   21.2232 C   0  0  2  0  0  0  0  0  0  0  0  0
    8.6426  -17.7089   20.5457 N   0  0  0  0  0  0  0  0  0  0  0  0
    9.8535  -16.5373   22.2115 C   0  0  0  0  0  0  0  0  0  0  0  0
   10.9292  -16.0466   22.6143 O   0  0  0  0  0  0  0  0  0  0  0  0
    8.6342  -16.0223   22.7112 N   0  0  0  0  0  0  0  0  0  0  0  0
    8.5840  -15.1991   23.8956 C   0  0  1  0  0  0  0  0  0  0  0  0
    7.3052  -14.3900   23.9594 C   0  0  0  0  0  0  0  0  0  0  0  0
    7.2887  -13.4992   25.1411 C   0  0  0  0  0  0  0  0  0  0  0  0
    6.4354  -13.7856   26.1781 C   0  0  0  0  0  0  0  0  0  0  0  0
    6.4321  -12.9281   27.2770 C   0  0  0  0  0  0  0  0  0  0  0  0
    7.2563  -11.8286   27.3253 C   0  0  0  0  0  0  0  0  0  0  0  0
    8.1052  -11.5550   26.2798 C   0  0  0  0  0  0  0  0  0  0  0  0
    8.1189  -12.3987   25.1813 C   0  0  0  0  0  0  0  0  0  0  0  0
    8.8103  -15.9738   25.1460 C   0  0  0  0  0  0  0  0  0  0  0  0
    7.9613  -16.8323   25.5375 O   0  0  0  0  0  0  0  0  0  0  0  0
    9.9553  -15.8126   25.9665 N   0  0  0  0  0  0  0  0  0  0  0  0
   10.2350  -16.6931   27.0923 C   0  0  1  0  0  0  0  0  0  0  0  0
   11.5421  -17.4297   26.8851 C   0  0  0  0  0  0  0  0  0  0  0  0
   12.7583  -16.3399   26.1015 S   0  0  0  0  0  0  0  0  0  0  0  0
   10.2584  -15.9265   28.3616 C   0  0  0  0  0  0  0  0  0  0  0  0
   10.3267  -16.5682   29.4379 O   0  0  0  0  0  0  0  0  0  0  0  0
   10.2090  -14.5528   28.4108 O   0  0  0  0  0  0  0  0  0  0  0  0
  2  4  1  0
  2  1  1  0
  3  2  2  0
  5  4  1  0
  6  5  1  0
  6  8  1  0
  6  7  1  6
  8  9  2  0
 10  8  1  0
 10 11  1  0
 11 12  1  1
 12 13  1  0
 13 14  2  0
 14 15  1  0
 16 15  2  0
 17 16  1  0
 18 13  1  0
 18 17  2  0
 19 21  1  0
 19 11  1  0
 20 19  2  0
 22 25  1  0
 22 23  1  6
 22 21  1  0
 23 24  1  0
 25 27  1  0
 26 25  2  0
M  END
$$$$
