QFC.pdb
     RDKit          3D

 27 27  0  0  1  0  0  0  0  0999 V2000
    7.1672  -18.3225   16.9433 N   0  0  0  0  0  0  0  0  0  0  0  0
    8.3825  -17.7928   17.4364 C   0  0  0  0  0  0  0  0  0  0  0  0
    9.0875  -17.1141   16.6586 O   0  0  0  0  0  0  0  0  0  0  0  0
    8.7500  -18.0635   18.8248 C   0  0  0  0  0  0  0  0  0  0  0  0
    9.2667  -16.8838   19.6025 C   0  0  0  0  0  0  0  0  0  0  0  0
    9.6001  -17.3315   21.0007 C   0  0  2  0  0  0  0  0  0  0  0  0
    8.6062  -18.3259   21.3595 N   0  0  0  0  0  0  0  0  0  0  0  0
    9.5083  -16.2263   21.9858 C   0  0  0  0  0  0  0  0  0  0  0  0
   10.2188  -15.2167   21.7964 O   0  0  0  0  0  0  0  0  0  0  0  0
    8.6598  -16.2664   23.1172 N   0  0  0  0  0  0  0  0  0  0  0  0
    8.6622  -15.2171   24.1080 C   0  0  1  0  0  0  0  0  0  0  0  0
    7.3564  -15.1695   24.8740 C   0  0  0  0  0  0  0  0  0  0  0  0
    7.2179  -13.9024   25.6260 C   0  0  0  0  0  0  0  0  0  0  0  0
    8.0036  -13.6966   26.7332 C   0  0  0  0  0  0  0  0  0  0  0  0
    7.8499  -12.4990   27.4297 C   0  0  0  0  0  0  0  0  0  0  0  0
    6.9412  -11.5503   27.0239 C   0  0  0  0  0  0  0  0  0  0  0  0
    6.1619  -11.7703   25.9135 C   0  0  0  0  0  0  0  0  0  0  0  0
    6.3039  -12.9562   25.2118 C   0  0  0  0  0  0  0  0  0  0  0  0
    9.8356  -15.2888   25.0208 C   0  0  0  0  0  0  0  0  0  0  0  0
   10.6908  -14.3514   25.0494 O   0  0  0  0  0  0  0  0  0  0  0  0
   10.0764  -16.3773   25.8967 N   0  0  0  0  0  0  0  0  0  0  0  0
   10.7041  -16.2027   27.1992 C   0  0  1  0  0  0  0  0  0  0  0  0
    9.8609  -15.3094   28.0853 C   0  0  0  0  0  0  0  0  0  0  0  0
   10.9161  -14.3970   29.2408 S   0  0  0  0  0  0  0  0  0  0  0  0
   10.9380  -17.5162   27.8466 C   0  0  0  0  0  0  0  0  0  0  0  0
   11.6816  -17.5527   28.8569 O   0  0  0  0  0  0  0  0  0  0  0  0
   10.3797  -18.6882   27.3917 O   0  0  0  0  0  0  0  0  0  0  0  0
  2  4  1  0
  2  1  1  0
  3  2  2  0
  5  4  1  0
  6  5  1  0
  6  8  1  0
  6  7  1  1
  8  9  2  0
 10  8  1  0
 10 11  1  0
 11 12  1  1
 12 13  1  0
 13 14  2  0
 14 15  1  0
 16 15  2  0
 17 16  1  0
 18 13  1  0
 18 17  2  0
 19 21  1  0
 19 11  1  0
 20 19  2  0
 22 25  1  0
 22 23  1  1
 22 21  1  0
 23 24  1  0
 25 27  1  0
 26 25  2  0
M  END
$$$$
