QFC.pdb
     RDKit          3D

 27 27  0  0  1  0  0  0  0  0999 V2000
    8.5051  -13.2017   17.2510 N   0  0  0  0  0  0  0  0  0  0  0  0
    8.5940  -14.6133   17.2673 C   0  0  0  0  0  0  0  0  0  0  0  0
    7.6617  -15.2680   16.7527 O   0  0  0  0  0  0  0  0  0  0  0  0
    9.7670  -15.2321   17.8812 C   0  0  0  0  0  0  0  0  0  0  0  0
   10.2023  -14.6405   19.1942 C   0  0  0  0  0  0  0  0  0  0  0  0
   10.1948  -15.7221   20.2413 C   0  0  2  0  0  0  0  0  0  0  0  0
    9.0657  -16.5802   19.9346 N   0  0  0  0  0  0  0  0  0  0  0  0
    9.9940  -15.1842   21.6090 C   0  0  0  0  0  0  0  0  0  0  0  0
   10.8763  -14.4328   22.0748 O   0  0  0  0  0  0  0  0  0  0  0  0
    8.8589  -15.4824   22.3991 N   0  0  0  0  0  0  0  0  0  0  0  0
    8.6723  -14.9093   23.7104 C   0  0  1  0  0  0  0  0  0  0  0  0
    7.2227  -14.5493   23.9613 C   0  0  0  0  0  0  0  0  0  0  0  0
    7.0735  -13.7349   25.1880 C   0  0  0  0  0  0  0  0  0  0  0  0
    6.4195  -14.2736   26.2686 C   0  0  0  0  0  0  0  0  0  0  0  0
    6.2847  -13.4850   27.4101 C   0  0  0  0  0  0  0  0  0  0  0  0
    6.7896  -12.2069   27.4568 C   0  0  0  0  0  0  0  0  0  0  0  0
    7.4420  -11.6815   26.3674 C   0  0  0  0  0  0  0  0  0  0  0  0
    7.5832  -12.4540   25.2263 C   0  0  0  0  0  0  0  0  0  0  0  0
    9.2252  -15.7634   24.7967 C   0  0  0  0  0  0  0  0  0  0  0  0
    9.0779  -17.0237   24.7668 O   0  0  0  0  0  0  0  0  0  0  0  0
    9.9338  -15.2464   25.9106 N   0  0  0  0  0  0  0  0  0  0  0  0
   10.6181  -16.1081   26.8645 C   0  0  1  0  0  0  0  0  0  0  0  0
   11.3044  -15.2847   27.9346 C   0  0  0  0  0  0  0  0  0  0  0  0
   10.0923  -14.2680   28.8167 S   0  0  0  0  0  0  0  0  0  0  0  0
    9.6693  -17.0731   27.4709 C   0  0  0  0  0  0  0  0  0  0  0  0
    8.4429  -16.9046   27.2646 O   0  0  0  0  0  0  0  0  0  0  0  0
   10.0712  -18.1374   28.2441 O   0  0  0  0  0  0  0  0  0  0  0  0
  2  4  1  0
  2  1  1  0
  3  2  2  0
  5  4  1  0
  6  5  1  0
  6  8  1  0
  6  7  1  6
  8  9  2  0
 10  8  1  0
 10 11  1  0
 11 12  1  1
 12 13  1  0
 13 14  2  0
 14 15  1  0
 16 15  2  0
 17 16  1  0
 18 13  1  0
 18 17  2  0
 19 21  1  0
 19 11  1  0
 20 19  2  0
 22 25  1  0
 22 23  1  1
 22 21  1  0
 23 24  1  0
 25 27  1  0
 26 25  2  0
M  END
$$$$
