QFC.pdb
     RDKit          3D

 27 27  0  0  1  0  0  0  0  0999 V2000
    9.8050  -21.1011   20.4558 N   0  0  0  0  0  0  0  0  0  0  0  0
    9.6067  -20.5472   19.1694 C   0  0  0  0  0  0  0  0  0  0  0  0
    9.6932  -21.3078   18.1812 O   0  0  0  0  0  0  0  0  0  0  0  0
    9.3106  -19.1202   19.0616 C   0  0  0  0  0  0  0  0  0  0  0  0
    9.2443  -18.3695   20.3637 C   0  0  0  0  0  0  0  0  0  0  0  0
    8.7648  -16.9683   20.0934 C   0  0  2  0  0  0  0  0  0  0  0  0
    9.5731  -16.4635   18.9992 N   0  0  0  0  0  0  0  0  0  0  0  0
    8.9651  -16.0677   21.2549 C   0  0  0  0  0  0  0  0  0  0  0  0
   10.1351  -15.8730   21.6460 O   0  0  0  0  0  0  0  0  0  0  0  0
    7.8997  -15.4271   21.9304 N   0  0  0  0  0  0  0  0  0  0  0  0
    8.0827  -14.7971   23.2158 C   0  0  1  0  0  0  0  0  0  0  0  0
    6.8659  -13.9914   23.6210 C   0  0  0  0  0  0  0  0  0  0  0  0
    7.0402  -13.3876   24.9609 C   0  0  0  0  0  0  0  0  0  0  0  0
    6.2765  -13.8511   26.0038 C   0  0  0  0  0  0  0  0  0  0  0  0
    6.4529  -13.2619   27.2547 C   0  0  0  0  0  0  0  0  0  0  0  0
    7.3624  -12.2481   27.4430 C   0  0  0  0  0  0  0  0  0  0  0  0
    8.1199  -11.7950   26.3896 C   0  0  0  0  0  0  0  0  0  0  0  0
    7.9550  -12.3713   25.1408 C   0  0  0  0  0  0  0  0  0  0  0  0
    8.4864  -15.7593   24.2771 C   0  0  0  0  0  0  0  0  0  0  0  0
    7.7653  -16.7696   24.5422 O   0  0  0  0  0  0  0  0  0  0  0  0
    9.6690  -15.6202   25.0466 N   0  0  0  0  0  0  0  0  0  0  0  0
   10.1437  -16.6688   25.9386 C   0  0  1  0  0  0  0  0  0  0  0  0
   11.6405  -16.8545   25.7993 C   0  0  0  0  0  0  0  0  0  0  0  0
   12.2468  -18.0173   27.0487 S   0  0  0  0  0  0  0  0  0  0  0  0
    9.7799  -16.3638   27.3436 C   0  0  0  0  0  0  0  0  0  0  0  0
    9.9386  -15.1881   27.7529 O   0  0  0  0  0  0  0  0  0  0  0  0
    9.2796  -17.3061   28.2118 O   0  0  0  0  0  0  0  0  0  0  0  0
  2  4  1  0
  2  1  1  0
  3  2  2  0
  5  4  1  0
  6  5  1  0
  6  8  1  0
  6  7  1  6
  8  9  2  0
 10  8  1  0
 10 11  1  0
 11 12  1  1
 12 13  1  0
 13 14  2  0
 14 15  1  0
 16 15  2  0
 17 16  1  0
 18 13  1  0
 18 17  2  0
 19 21  1  0
 19 11  1  0
 20 19  2  0
 22 25  1  0
 22 23  1  1
 22 21  1  0
 23 24  1  0
 25 27  1  0
 26 25  2  0
M  END
$$$$
