IPW.pdb
     RDKit          3D

 30 32  0  0  1  0  0  0  0  0999 V2000
   26.4494  -14.0177  -15.3460 C   0  0  0  0  0  0  0  0  0  0  0  0
   27.0064  -15.0888  -16.2539 C   0  0  0  0  0  0  0  0  0  0  0  0
   26.4378  -16.4120  -15.8502 C   0  0  2  0  0  0  0  0  0  0  0  0
   26.8754  -16.8034  -14.4444 C   0  0  0  0  0  0  0  0  0  0  0  0
   26.7543  -17.5246  -16.8265 C   0  0  2  0  0  0  0  0  0  0  0  0
   26.2885  -17.0375  -18.1270 N   0  0  0  0  0  0  0  0  0  0  0  0
   26.0802  -18.7890  -16.4646 C   0  0  0  0  0  0  0  0  0  0  0  0
   24.8264  -18.8390  -16.4135 O   0  0  0  0  0  0  0  0  0  0  0  0
   26.7948  -20.0065  -16.1570 N   0  0  0  0  0  0  0  0  0  0  0  0
   28.2039  -20.2008  -16.2824 C   0  0  0  0  0  0  0  0  0  0  0  0
   28.5133  -21.5553  -15.7296 C   0  0  0  0  0  0  0  0  0  0  0  0
   27.2288  -22.1371  -15.2539 C   0  0  0  0  0  0  0  0  0  0  0  0
   26.1609  -21.1793  -15.6856 C   0  0  1  0  0  0  0  0  0  0  0  0
   25.3150  -20.9316  -14.4663 C   0  0  0  0  0  0  0  0  0  0  0  0
   25.7321  -20.3167  -13.4565 O   0  0  0  0  0  0  0  0  0  0  0  0
   23.9861  -21.4318  -14.4956 N   0  0  0  0  0  0  0  0  0  0  0  0
   23.1495  -21.5582  -13.3010 C   0  0  1  0  0  0  0  0  0  0  0  0
   23.1375  -20.2069  -12.6414 C   0  0  0  0  0  0  0  0  0  0  0  0
   22.1422  -20.0611  -11.5844 C   0  0  0  0  0  0  0  0  0  0  0  0
   22.2875  -20.4025  -10.2569 C   0  0  0  0  0  0  0  0  0  0  0  0
   21.1527  -20.1586   -9.5934 N   0  0  0  0  0  0  0  0  0  0  0  0
   20.2546  -19.6578  -10.4659 C   0  0  0  0  0  0  0  0  0  0  0  0
   18.9589  -19.2173  -10.3725 C   0  0  0  0  0  0  0  0  0  0  0  0
   18.2819  -18.7281  -11.4631 C   0  0  0  0  0  0  0  0  0  0  0  0
   18.8801  -18.6617  -12.6930 C   0  0  0  0  0  0  0  0  0  0  0  0
   20.1622  -19.0916  -12.8154 C   0  0  0  0  0  0  0  0  0  0  0  0
   20.8591  -19.5890  -11.7231 C   0  0  0  0  0  0  0  0  0  0  0  0
   21.8882  -22.2194  -13.5188 C   0  0  0  0  0  0  0  0  0  0  0  0
   21.2135  -22.2917  -14.7344 O   0  0  0  0  0  0  0  0  0  0  0  0
   21.3173  -22.7914  -12.5515 O   0  0  0  0  0  0  0  0  0  0  0  0
  2  1  1  0
  3  2  1  0
  3  4  1  1
  5  3  1  0
  5  6  1  6
  7  5  1  0
  8  7  2  0
  9 13  1  0
  9  7  1  0
 10  9  1  0
 11 10  1  0
 11 12  1  0
 12 13  1  0
 13 14  1  1
 14 15  2  0
 16 14  1  0
 17 16  1  0
 17 28  1  0
 17 18  1  6
 19 27  1  0
 19 18  1  0
 20 19  2  0
 21 20  1  0
 21 22  1  0
 22 27  2  0
 23 22  1  0
 23 24  2  0
 24 25  1  0
 25 26  2  0
 27 26  1  0
 28 30  2  0
 28 29  1  0
M  END
$$$$
