IPW.pdb
     RDKit          3D

 30 32  0  0  1  0  0  0  0  0999 V2000
   33.8571  -29.2978  -22.0870 C   0  0  0  0  0  0  0  0  0  0  0  0
   34.3138  -29.3141  -20.6473 C   0  0  0  0  0  0  0  0  0  0  0  0
   33.3156  -28.5767  -19.8124 C   0  0  2  0  0  0  0  0  0  0  0  0
   33.1875  -27.1225  -20.2479 C   0  0  0  0  0  0  0  0  0  0  0  0
   33.5990  -28.6562  -18.3276 C   0  0  2  0  0  0  0  0  0  0  0  0
   33.5146  -30.0806  -17.9969 N   0  0  0  0  0  0  0  0  0  0  0  0
   32.6290  -27.8722  -17.5348 C   0  0  0  0  0  0  0  0  0  0  0  0
   31.4004  -28.1149  -17.6289 O   0  0  0  0  0  0  0  0  0  0  0  0
   33.0176  -26.8133  -16.6319 N   0  0  0  0  0  0  0  0  0  0  0  0
   34.3547  -26.4991  -16.2413 C   0  0  0  0  0  0  0  0  0  0  0  0
   34.2913  -25.2570  -15.4112 C   0  0  0  0  0  0  0  0  0  0  0  0
   32.8629  -24.8438  -15.3511 C   0  0  0  0  0  0  0  0  0  0  0  0
   32.0904  -25.9441  -16.0120 C   0  0  1  0  0  0  0  0  0  0  0  0
   31.1783  -25.2687  -16.9997 C   0  0  0  0  0  0  0  0  0  0  0  0
   31.3588  -25.3120  -18.2396 O   0  0  0  0  0  0  0  0  0  0  0  0
   30.0704  -24.5576  -16.4668 N   0  0  0  0  0  0  0  0  0  0  0  0
   29.0217  -23.9650  -17.2988 C   0  0  1  0  0  0  0  0  0  0  0  0
   28.4561  -25.0803  -18.1340 C   0  0  0  0  0  0  0  0  0  0  0  0
   27.5250  -25.9516  -17.4249 C   0  0  0  0  0  0  0  0  0  0  0  0
   26.4367  -25.5640  -16.6731 C   0  0  0  0  0  0  0  0  0  0  0  0
   25.8382  -26.6366  -16.1450 N   0  0  0  0  0  0  0  0  0  0  0  0
   26.5169  -27.7335  -16.5386 C   0  0  0  0  0  0  0  0  0  0  0  0
   26.3749  -29.0824  -16.3342 C   0  0  0  0  0  0  0  0  0  0  0  0
   27.2370  -29.9927  -16.8958 C   0  0  0  0  0  0  0  0  0  0  0  0
   28.2776  -29.5840  -17.6861 C   0  0  0  0  0  0  0  0  0  0  0  0
   28.4432  -28.2542  -17.9053 C   0  0  0  0  0  0  0  0  0  0  0  0
   27.5810  -27.3223  -17.3445 C   0  0  0  0  0  0  0  0  0  0  0  0
   28.1015  -23.1139  -16.5886 C   0  0  0  0  0  0  0  0  0  0  0  0
   28.0056  -23.0058  -15.2039 O   0  0  0  0  0  0  0  0  0  0  0  0
   27.3008  -22.3920  -17.2416 O   0  0  0  0  0  0  0  0  0  0  0  0
  2  1  1  0
  3  2  1  0
  3  4  1  6
  5  3  1  0
  5  6  1  1
  7  5  1  0
  8  7  2  0
  9 13  1  0
  9  7  1  0
 10  9  1  0
 11 10  1  0
 11 12  1  0
 12 13  1  0
 13 14  1  6
 14 15  2  0
 16 14  1  0
 17 16  1  0
 17 28  1  0
 17 18  1  1
 19 27  1  0
 19 18  1  0
 20 19  2  0
 21 20  1  0
 21 22  1  0
 22 27  2  0
 23 22  1  0
 23 24  2  0
 24 25  1  0
 25 26  2  0
 27 26  1  0
 28 30  2  0
 28 29  1  0
M  END
$$$$
