IPW.pdb
     RDKit          3D

 30 32  0  0  1  0  0  0  0  0999 V2000
   18.3927  -23.3626  -17.1553 C   0  0  0  0  0  0  0  0  0  0  0  0
   19.2143  -24.4737  -16.5451 C   0  0  0  0  0  0  0  0  0  0  0  0
   20.4908  -23.9003  -16.0170 C   0  0  2  0  0  0  0  0  0  0  0  0
   21.3399  -23.3040  -17.1325 C   0  0  0  0  0  0  0  0  0  0  0  0
   21.3047  -24.8892  -15.2103 C   0  0  2  0  0  0  0  0  0  0  0  0
   20.4837  -25.1941  -14.0363 N   0  0  0  0  0  0  0  0  0  0  0  0
   22.6139  -24.3334  -14.8086 C   0  0  0  0  0  0  0  0  0  0  0  0
   22.6696  -23.4150  -13.9538 O   0  0  0  0  0  0  0  0  0  0  0  0
   23.8699  -24.7944  -15.3538 N   0  0  0  0  0  0  0  0  0  0  0  0
   24.0339  -25.8762  -16.2714 C   0  0  0  0  0  0  0  0  0  0  0  0
   25.4766  -25.9073  -16.6632 C   0  0  0  0  0  0  0  0  0  0  0  0
   26.1465  -24.7835  -15.9540 C   0  0  0  0  0  0  0  0  0  0  0  0
   25.1165  -24.2112  -15.0290 C   0  0  1  0  0  0  0  0  0  0  0  0
   25.1393  -22.7246  -15.2594 C   0  0  0  0  0  0  0  0  0  0  0  0
   24.1889  -22.0982  -15.7850 O   0  0  0  0  0  0  0  0  0  0  0  0
   26.3085  -22.0302  -14.8497 N   0  0  0  0  0  0  0  0  0  0  0  0
   26.4131  -20.5701  -14.8406 C   0  0  1  0  0  0  0  0  0  0  0  0
   25.3386  -20.0694  -13.9153 C   0  0  0  0  0  0  0  0  0  0  0  0
   25.8374  -19.3821  -12.7288 C   0  0  0  0  0  0  0  0  0  0  0  0
   26.5195  -18.1850  -12.6901 C   0  0  0  0  0  0  0  0  0  0  0  0
   26.8477  -17.8842  -11.4294 N   0  0  0  0  0  0  0  0  0  0  0  0
   26.3901  -18.8686  -10.6293 C   0  0  0  0  0  0  0  0  0  0  0  0
   26.4097  -19.1027   -9.2779 C   0  0  0  0  0  0  0  0  0  0  0  0
   25.8278  -20.2199   -8.7298 C   0  0  0  0  0  0  0  0  0  0  0  0
   25.2021  -21.1480   -9.5183 C   0  0  0  0  0  0  0  0  0  0  0  0
   25.1678  -20.9428  -10.8602 C   0  0  0  0  0  0  0  0  0  0  0  0
   25.7517  -19.8195  -11.4288 C   0  0  0  0  0  0  0  0  0  0  0  0
   27.7509  -20.0653  -14.6647 C   0  0  0  0  0  0  0  0  0  0  0  0
   28.2125  -18.8290  -15.1081 O   0  0  0  0  0  0  0  0  0  0  0  0
   28.6027  -20.7740  -14.0640 O   0  0  0  0  0  0  0  0  0  0  0  0
  2  1  1  0
  3  2  1  0
  3  4  1  6
  5  3  1  0
  5  6  1  1
  7  5  1  0
  8  7  2  0
  9 13  1  0
  9  7  1  0
 10  9  1  0
 11 10  1  0
 11 12  1  0
 12 13  1  0
 13 14  1  6
 14 15  2  0
 16 14  1  0
 17 16  1  0
 17 28  1  0
 17 18  1  1
 19 27  1  0
 19 18  1  0
 20 19  2  0
 21 20  1  0
 21 22  1  0
 22 27  2  0
 23 22  1  0
 23 24  2  0
 24 25  1  0
 25 26  2  0
 27 26  1  0
 28 30  2  0
 28 29  1  0
M  END
$$$$
