IPW.pdb
     RDKit          3D

 30 32  0  0  1  0  0  0  0  0999 V2000
   25.1443  -14.6017  -15.5142 C   0  0  0  0  0  0  0  0  0  0  0  0
   25.2639  -15.9922  -16.0920 C   0  0  0  0  0  0  0  0  0  0  0  0
   25.6194  -16.9451  -14.9953 C   0  0  2  0  0  0  0  0  0  0  0  0
   26.9088  -16.5359  -14.2947 C   0  0  0  0  0  0  0  0  0  0  0  0
   25.7071  -18.3845  -15.4556 C   0  0  2  0  0  0  0  0  0  0  0  0
   24.4604  -18.6307  -16.1839 N   0  0  0  0  0  0  0  0  0  0  0  0
   25.8497  -19.3220  -14.3220 C   0  0  0  0  0  0  0  0  0  0  0  0
   24.9226  -19.4367  -13.4827 O   0  0  0  0  0  0  0  0  0  0  0  0
   27.0234  -20.1383  -14.1135 N   0  0  0  0  0  0  0  0  0  0  0  0
   28.1777  -20.1693  -14.9535 C   0  0  0  0  0  0  0  0  0  0  0  0
   29.1869  -21.0465  -14.2841 C   0  0  0  0  0  0  0  0  0  0  0  0
   28.5835  -21.5097  -13.0051 C   0  0  0  0  0  0  0  0  0  0  0  0
   27.1654  -21.0275  -13.0232 C   0  0  1  0  0  0  0  0  0  0  0  0
   26.9433  -20.3570  -11.6948 C   0  0  0  0  0  0  0  0  0  0  0  0
   27.7525  -19.5394  -11.1963 O   0  0  0  0  0  0  0  0  0  0  0  0
   25.7497  -20.6892  -11.0005 N   0  0  0  0  0  0  0  0  0  0  0  0
   25.7198  -21.0482   -9.5816 C   0  0  1  0  0  0  0  0  0  0  0  0
   26.4294  -19.9453   -8.8458 C   0  0  0  0  0  0  0  0  0  0  0  0
   26.4638  -20.1127   -7.3967 C   0  0  0  0  0  0  0  0  0  0  0  0
   25.4990  -20.7014   -6.6077 C   0  0  0  0  0  0  0  0  0  0  0  0
   25.8592  -20.6425   -5.3215 N   0  0  0  0  0  0  0  0  0  0  0  0
   27.0540  -20.0215   -5.2472 C   0  0  0  0  0  0  0  0  0  0  0  0
   27.9096  -19.6916   -4.2270 C   0  0  0  0  0  0  0  0  0  0  0  0
   29.1044  -19.0562   -4.4633 C   0  0  0  0  0  0  0  0  0  0  0  0
   29.4882  -18.7262   -5.7355 C   0  0  0  0  0  0  0  0  0  0  0  0
   28.6606  -19.0399   -6.7653 C   0  0  0  0  0  0  0  0  0  0  0  0
   27.4501  -19.6812   -6.5426 C   0  0  0  0  0  0  0  0  0  0  0  0
   24.4305  -21.4692   -9.0961 C   0  0  0  0  0  0  0  0  0  0  0  0
   23.2367  -21.3993   -9.8090 O   0  0  0  0  0  0  0  0  0  0  0  0
   24.3358  -21.9460   -7.9332 O   0  0  0  0  0  0  0  0  0  0  0  0
  2  1  1  0
  3  2  1  0
  3  4  1  6
  5  3  1  0
  5  6  1  1
  7  5  1  0
  8  7  2  0
  9 13  1  0
  9  7  1  0
 10  9  1  0
 11 10  1  0
 11 12  1  0
 12 13  1  0
 13 14  1  1
 14 15  2  0
 16 14  1  0
 17 16  1  0
 17 28  1  0
 17 18  1  1
 19 27  1  0
 19 18  1  0
 20 19  2  0
 21 20  1  0
 21 22  1  0
 22 27  2  0
 23 22  1  0
 23 24  2  0
 24 25  1  0
 25 26  2  0
 27 26  1  0
 28 30  2  0
 28 29  1  0
M  END
$$$$
