IPW.pdb
     RDKit          3D

 30 32  0  0  1  0  0  0  0  0999 V2000
   26.0573  -23.6651  -20.1824 C   0  0  0  0  0  0  0  0  0  0  0  0
   27.2667  -22.8903  -19.7148 C   0  0  0  0  0  0  0  0  0  0  0  0
   27.1554  -22.6586  -18.2414 C   0  0  2  0  0  0  0  0  0  0  0  0
   25.9016  -21.8664  -17.8928 C   0  0  0  0  0  0  0  0  0  0  0  0
   28.3777  -21.9949  -17.6439 C   0  0  2  0  0  0  0  0  0  0  0  0
   29.4408  -22.9985  -17.7329 N   0  0  0  0  0  0  0  0  0  0  0  0
   28.1564  -21.5837  -16.2418 C   0  0  0  0  0  0  0  0  0  0  0  0
   28.0602  -22.4535  -15.3410 O   0  0  0  0  0  0  0  0  0  0  0  0
   28.0405  -20.2034  -15.8311 N   0  0  0  0  0  0  0  0  0  0  0  0
   28.0870  -19.0689  -16.6971 C   0  0  0  0  0  0  0  0  0  0  0  0
   27.7919  -17.8642  -15.8618 C   0  0  0  0  0  0  0  0  0  0  0  0
   27.5480  -18.3434  -14.4742 C   0  0  0  0  0  0  0  0  0  0  0  0
   27.8656  -19.8073  -14.4850 C   0  0  1  0  0  0  0  0  0  0  0  0
   26.6944  -20.4858  -13.8280 C   0  0  0  0  0  0  0  0  0  0  0  0
   25.6186  -20.7262  -14.4251 O   0  0  0  0  0  0  0  0  0  0  0  0
   26.8503  -20.8579  -12.4662 N   0  0  0  0  0  0  0  0  0  0  0  0
   25.8387  -21.6058  -11.7176 C   0  0  1  0  0  0  0  0  0  0  0  0
   26.5061  -22.0870  -10.4589 C   0  0  0  0  0  0  0  0  0  0  0  0
   26.5433  -21.1027   -9.3824 C   0  0  0  0  0  0  0  0  0  0  0  0
   25.5280  -20.2511   -9.0031 C   0  0  0  0  0  0  0  0  0  0  0  0
   25.9374  -19.4664   -8.0011 N   0  0  0  0  0  0  0  0  0  0  0  0
   27.2142  -19.7879   -7.7096 C   0  0  0  0  0  0  0  0  0  0  0  0
   28.1354  -19.3505   -6.7922 C   0  0  0  0  0  0  0  0  0  0  0  0
   29.3939  -19.8957   -6.7159 C   0  0  0  0  0  0  0  0  0  0  0  0
   29.7782  -20.9037   -7.5591 C   0  0  0  0  0  0  0  0  0  0  0  0
   28.8871  -21.3565   -8.4782 C   0  0  0  0  0  0  0  0  0  0  0  0
   27.6123  -20.8153   -8.5681 C   0  0  0  0  0  0  0  0  0  0  0  0
   24.5657  -20.9416  -11.6006 C   0  0  0  0  0  0  0  0  0  0  0  0
   24.3538  -19.5721  -11.7350 O   0  0  0  0  0  0  0  0  0  0  0  0
   23.5347  -21.6243  -11.3567 O   0  0  0  0  0  0  0  0  0  0  0  0
  2  1  1  0
  3  2  1  0
  3  4  1  6
  5  3  1  0
  5  6  1  1
  7  5  1  0
  8  7  2  0
  9 13  1  0
  9  7  1  0
 10  9  1  0
 11 10  1  0
 11 12  1  0
 12 13  1  0
 13 14  1  6
 14 15  2  0
 16 14  1  0
 17 16  1  0
 17 28  1  0
 17 18  1  1
 19 27  1  0
 19 18  1  0
 20 19  2  0
 21 20  1  0
 21 22  1  0
 22 27  2  0
 23 22  1  0
 23 24  2  0
 24 25  1  0
 25 26  2  0
 27 26  1  0
 28 30  2  0
 28 29  1  0
M  END
$$$$
