IPW.pdb
     RDKit          3D

 30 32  0  0  1  0  0  0  0  0999 V2000
   27.9043  -15.3974  -15.3764 C   0  0  0  0  0  0  0  0  0  0  0  0
   27.0234  -16.5017  -15.9114 C   0  0  0  0  0  0  0  0  0  0  0  0
   26.7824  -17.5006  -14.8245 C   0  0  2  0  0  0  0  0  0  0  0  0
   28.0887  -18.0862  -14.3032 C   0  0  0  0  0  0  0  0  0  0  0  0
   25.8348  -18.6100  -15.2279 C   0  0  2  0  0  0  0  0  0  0  0  0
   24.6235  -17.9297  -15.6917 N   0  0  0  0  0  0  0  0  0  0  0  0
   25.5317  -19.5178  -14.1017 C   0  0  0  0  0  0  0  0  0  0  0  0
   24.9693  -19.0723  -13.0711 O   0  0  0  0  0  0  0  0  0  0  0  0
   25.8514  -20.9268  -14.1134 N   0  0  0  0  0  0  0  0  0  0  0  0
   26.3787  -21.6531  -15.2239 C   0  0  0  0  0  0  0  0  0  0  0  0
   26.6784  -23.0371  -14.7435 C   0  0  0  0  0  0  0  0  0  0  0  0
   26.3258  -23.0841  -13.2984 C   0  0  0  0  0  0  0  0  0  0  0  0
   25.6704  -21.7718  -12.9942 C   0  0  1  0  0  0  0  0  0  0  0  0
   26.3508  -21.2507  -11.7576 C   0  0  0  0  0  0  0  0  0  0  0  0
   27.5617  -20.9271  -11.7266 O   0  0  0  0  0  0  0  0  0  0  0  0
   25.5532  -21.1327  -10.5884 N   0  0  0  0  0  0  0  0  0  0  0  0
   26.1150  -21.0202   -9.2414 C   0  0  1  0  0  0  0  0  0  0  0  0
   27.1712  -19.9517   -9.3056 C   0  0  0  0  0  0  0  0  0  0  0  0
   27.5447  -19.3950   -8.0095 C   0  0  0  0  0  0  0  0  0  0  0  0
   27.0537  -18.2453   -7.4292 C   0  0  0  0  0  0  0  0  0  0  0  0
   27.6546  -18.0315   -6.2542 N   0  0  0  0  0  0  0  0  0  0  0  0
   28.5396  -19.0277   -6.0468 C   0  0  0  0  0  0  0  0  0  0  0  0
   29.4140  -19.3492   -5.0400 C   0  0  0  0  0  0  0  0  0  0  0  0
   30.2015  -20.4733   -5.0988 C   0  0  0  0  0  0  0  0  0  0  0  0
   30.1421  -21.3207   -6.1725 C   0  0  0  0  0  0  0  0  0  0  0  0
   29.2858  -21.0272   -7.1847 C   0  0  0  0  0  0  0  0  0  0  0  0
   28.4843  -19.8951   -7.1403 C   0  0  0  0  0  0  0  0  0  0  0  0
   25.1361  -20.9457   -8.1871 C   0  0  0  0  0  0  0  0  0  0  0  0
   25.3363  -21.3473   -6.8691 O   0  0  0  0  0  0  0  0  0  0  0  0
   23.9912  -20.4839   -8.4410 O   0  0  0  0  0  0  0  0  0  0  0  0
  2  1  1  0
  3  2  1  0
  3  4  1  6
  5  3  1  0
  5  6  1  1
  7  5  1  0
  8  7  2  0
  9 13  1  0
  9  7  1  0
 10  9  1  0
 11 10  1  0
 11 12  1  0
 12 13  1  0
 13 14  1  1
 14 15  2  0
 16 14  1  0
 17 16  1  0
 17 28  1  0
 17 18  1  6
 19 27  1  0
 19 18  1  0
 20 19  2  0
 21 20  1  0
 21 22  1  0
 22 27  2  0
 23 22  1  0
 23 24  2  0
 24 25  1  0
 25 26  2  0
 27 26  1  0
 28 30  2  0
 28 29  1  0
M  END
$$$$
