IPW.pdb
     RDKit          3D

 30 32  0  0  1  0  0  0  0  0999 V2000
   24.0944  -23.0522  -19.1080 C   0  0  0  0  0  0  0  0  0  0  0  0
   25.4552  -22.4031  -19.0154 C   0  0  0  0  0  0  0  0  0  0  0  0
   25.8331  -22.2700  -17.5743 C   0  0  2  0  0  0  0  0  0  0  0  0
   24.8081  -21.4502  -16.8008 C   0  0  0  0  0  0  0  0  0  0  0  0
   27.2214  -21.7034  -17.3675 C   0  0  2  0  0  0  0  0  0  0  0  0
   28.1304  -22.6947  -17.9475 N   0  0  0  0  0  0  0  0  0  0  0  0
   27.5237  -21.4834  -15.9377 C   0  0  0  0  0  0  0  0  0  0  0  0
   27.6063  -22.4630  -15.1563 O   0  0  0  0  0  0  0  0  0  0  0  0
   27.7363  -20.1734  -15.3665 N   0  0  0  0  0  0  0  0  0  0  0  0
   27.8063  -18.9473  -16.0952 C   0  0  0  0  0  0  0  0  0  0  0  0
   27.9004  -17.8427  -15.0916 C   0  0  0  0  0  0  0  0  0  0  0  0
   27.8595  -18.4721  -13.7437 C   0  0  0  0  0  0  0  0  0  0  0  0
   27.9069  -19.9504  -13.9807 C   0  0  1  0  0  0  0  0  0  0  0  0
   26.7907  -20.5336  -13.1574 C   0  0  0  0  0  0  0  0  0  0  0  0
   25.6302  -20.7044  -13.5998 O   0  0  0  0  0  0  0  0  0  0  0  0
   27.1026  -20.8968  -11.8202 N   0  0  0  0  0  0  0  0  0  0  0  0
   26.1204  -21.4579  -10.8910 C   0  0  1  0  0  0  0  0  0  0  0  0
   26.8760  -21.8401   -9.6483 C   0  0  0  0  0  0  0  0  0  0  0  0
   26.7744  -20.8734   -8.5600 C   0  0  0  0  0  0  0  0  0  0  0  0
   25.8363  -19.8725   -8.4261 C   0  0  0  0  0  0  0  0  0  0  0  0
   26.0785  -19.1615   -7.3200 N   0  0  0  0  0  0  0  0  0  0  0  0
   27.1675  -19.6800   -6.7166 C   0  0  0  0  0  0  0  0  0  0  0  0
   27.8665  -19.3926   -5.5720 C   0  0  0  0  0  0  0  0  0  0  0  0
   28.9614  -20.1292   -5.1901 C   0  0  0  0  0  0  0  0  0  0  0  0
   29.3985  -21.1855   -5.9437 C   0  0  0  0  0  0  0  0  0  0  0  0
   28.7262  -21.4927   -7.0827 C   0  0  0  0  0  0  0  0  0  0  0  0
   27.6188  -20.7576   -7.4821 C   0  0  0  0  0  0  0  0  0  0  0  0
   24.9195  -20.6760  -10.7427 C   0  0  0  0  0  0  0  0  0  0  0  0
   23.6580  -21.1823  -10.4419 O   0  0  0  0  0  0  0  0  0  0  0  0
   24.9764  -19.4256  -10.8905 O   0  0  0  0  0  0  0  0  0  0  0  0
  2  1  1  0
  3  2  1  0
  3  4  1  1
  5  3  1  0
  5  6  1  1
  7  5  1  0
  8  7  2  0
  9 13  1  0
  9  7  1  0
 10  9  1  0
 11 10  1  0
 11 12  1  0
 12 13  1  0
 13 14  1  1
 14 15  2  0
 16 14  1  0
 17 16  1  0
 17 28  1  0
 17 18  1  1
 19 27  1  0
 19 18  1  0
 20 19  2  0
 21 20  1  0
 21 22  1  0
 22 27  2  0
 23 22  1  0
 23 24  2  0
 24 25  1  0
 25 26  2  0
 27 26  1  0
 28 30  2  0
 28 29  1  0
M  END
$$$$
