IPW.pdb
     RDKit          3D

 30 32  0  0  1  0  0  0  0  0999 V2000
   27.4154  -14.0956  -17.2860 C   0  0  0  0  0  0  0  0  0  0  0  0
   27.8949  -15.4743  -17.6745 C   0  0  0  0  0  0  0  0  0  0  0  0
   26.9456  -16.4915  -17.1257 C   0  0  2  0  0  0  0  0  0  0  0  0
   26.8581  -16.4129  -15.6068 C   0  0  0  0  0  0  0  0  0  0  0  0
   27.2645  -17.9062  -17.5597 C   0  0  2  0  0  0  0  0  0  0  0  0
   27.4339  -17.8324  -19.0127 N   0  0  0  0  0  0  0  0  0  0  0  0
   26.1874  -18.8527  -17.2016 C   0  0  0  0  0  0  0  0  0  0  0  0
   24.9888  -18.5531  -17.4268 O   0  0  0  0  0  0  0  0  0  0  0  0
   26.4350  -20.1385  -16.5910 N   0  0  0  0  0  0  0  0  0  0  0  0
   27.7183  -20.7276  -16.3783 C   0  0  0  0  0  0  0  0  0  0  0  0
   27.5022  -21.9870  -15.6017 C   0  0  0  0  0  0  0  0  0  0  0  0
   26.0400  -22.0990  -15.3485 C   0  0  0  0  0  0  0  0  0  0  0  0
   25.4040  -20.9858  -16.1233 C   0  0  1  0  0  0  0  0  0  0  0  0
   24.4764  -20.2946  -15.1614 C   0  0  0  0  0  0  0  0  0  0  0  0
   24.8703  -19.4718  -14.3013 O   0  0  0  0  0  0  0  0  0  0  0  0
   23.0959  -20.6130  -15.2610 N   0  0  0  0  0  0  0  0  0  0  0  0
   22.0704  -20.0155  -14.4041 C   0  0  1  0  0  0  0  0  0  0  0  0
   22.1703  -18.5267  -14.5909 C   0  0  0  0  0  0  0  0  0  0  0  0
   21.7246  -18.0521  -15.8967 C   0  0  0  0  0  0  0  0  0  0  0  0
   20.8047  -18.6549  -16.7275 C   0  0  0  0  0  0  0  0  0  0  0  0
   20.6752  -17.9505  -17.8565 N   0  0  0  0  0  0  0  0  0  0  0  0
   21.4989  -16.8852  -17.7847 C   0  0  0  0  0  0  0  0  0  0  0  0
   21.7838  -15.8269  -18.6095 C   0  0  0  0  0  0  0  0  0  0  0  0
   22.6840  -14.8533  -18.2505 C   0  0  0  0  0  0  0  0  0  0  0  0
   23.3350  -14.9037  -17.0471 C   0  0  0  0  0  0  0  0  0  0  0  0
   23.0733  -15.9406  -16.2103 C   0  0  0  0  0  0  0  0  0  0  0  0
   22.1671  -16.9322  -16.5590 C   0  0  0  0  0  0  0  0  0  0  0  0
   20.7705  -20.6278  -14.5076 C   0  0  0  0  0  0  0  0  0  0  0  0
   19.7021  -20.4061  -13.6429 O   0  0  0  0  0  0  0  0  0  0  0  0
   20.5439  -21.4375  -15.4466 O   0  0  0  0  0  0  0  0  0  0  0  0
  2  1  1  0
  3  2  1  0
  3  4  1  1
  5  3  1  0
  5  6  1  6
  7  5  1  0
  8  7  2  0
  9 13  1  0
  9  7  1  0
 10  9  1  0
 11 10  1  0
 11 12  1  0
 12 13  1  0
 13 14  1  1
 14 15  2  0
 16 14  1  0
 17 16  1  0
 17 28  1  0
 17 18  1  6
 19 27  1  0
 19 18  1  0
 20 19  2  0
 21 20  1  0
 21 22  1  0
 22 27  2  0
 23 22  1  0
 23 24  2  0
 24 25  1  0
 25 26  2  0
 27 26  1  0
 28 30  2  0
 28 29  1  0
M  END
$$$$
