IPW.pdb
     RDKit          3D

 30 32  0  0  1  0  0  0  0  0999 V2000
   21.5912  -16.1984  -14.8483 C   0  0  0  0  0  0  0  0  0  0  0  0
   21.7406  -17.6270  -15.3158 C   0  0  0  0  0  0  0  0  0  0  0  0
   22.7244  -18.3268  -14.4328 C   0  0  2  0  0  0  0  0  0  0  0  0
   24.0812  -17.6341  -14.4479 C   0  0  0  0  0  0  0  0  0  0  0  0
   22.8827  -19.7968  -14.7573 C   0  0  2  0  0  0  0  0  0  0  0  0
   21.5411  -20.3673  -14.6162 N   0  0  0  0  0  0  0  0  0  0  0  0
   23.8384  -20.4656  -13.8498 C   0  0  0  0  0  0  0  0  0  0  0  0
   23.5759  -20.5655  -12.6258 O   0  0  0  0  0  0  0  0  0  0  0  0
   25.0921  -21.0280  -14.2963 N   0  0  0  0  0  0  0  0  0  0  0  0
   25.5786  -21.0200  -15.6388 C   0  0  0  0  0  0  0  0  0  0  0  0
   26.9626  -21.5856  -15.6097 C   0  0  0  0  0  0  0  0  0  0  0  0
   27.2750  -21.9039  -14.1899 C   0  0  0  0  0  0  0  0  0  0  0  0
   26.0054  -21.6715  -13.4295 C   0  0  1  0  0  0  0  0  0  0  0  0
   26.3846  -20.8188  -12.2494 C   0  0  0  0  0  0  0  0  0  0  0  0
   26.1175  -19.5962  -12.1736 O   0  0  0  0  0  0  0  0  0  0  0  0
   27.0768  -21.4624  -11.1894 N   0  0  0  0  0  0  0  0  0  0  0  0
   27.5935  -20.7507  -10.0191 C   0  0  1  0  0  0  0  0  0  0  0  0
   26.4210  -20.5194   -9.1063 C   0  0  0  0  0  0  0  0  0  0  0  0
   26.7090  -19.6624   -7.9610 C   0  0  0  0  0  0  0  0  0  0  0  0
   26.4213  -18.3201   -7.8377 C   0  0  0  0  0  0  0  0  0  0  0  0
   26.8646  -17.8618   -6.6626 N   0  0  0  0  0  0  0  0  0  0  0  0
   27.4433  -18.8857   -6.0028 C   0  0  0  0  0  0  0  0  0  0  0  0
   28.0475  -19.0285   -4.7797 C   0  0  0  0  0  0  0  0  0  0  0  0
   28.5439  -20.2373   -4.3560 C   0  0  0  0  0  0  0  0  0  0  0  0
   28.4530  -21.3527   -5.1449 C   0  0  0  0  0  0  0  0  0  0  0  0
   27.8604  -21.2409   -6.3615 C   0  0  0  0  0  0  0  0  0  0  0  0
   27.3547  -20.0265   -6.8038 C   0  0  0  0  0  0  0  0  0  0  0  0
   28.7931  -21.3146   -9.4550 C   0  0  0  0  0  0  0  0  0  0  0  0
   28.9791  -22.6551   -9.1280 O   0  0  0  0  0  0  0  0  0  0  0  0
   29.7779  -20.5626   -9.2241 O   0  0  0  0  0  0  0  0  0  0  0  0
  2  1  1  0
  3  2  1  0
  3  4  1  6
  5  3  1  0
  5  6  1  1
  7  5  1  0
  8  7  2  0
  9 13  1  0
  9  7  1  0
 10  9  1  0
 11 10  1  0
 11 12  1  0
 12 13  1  0
 13 14  1  1
 14 15  2  0
 16 14  1  0
 17 16  1  0
 17 28  1  0
 17 18  1  1
 19 27  1  0
 19 18  1  0
 20 19  2  0
 21 20  1  0
 21 22  1  0
 22 27  2  0
 23 22  1  0
 23 24  2  0
 24 25  1  0
 25 26  2  0
 27 26  1  0
 28 30  2  0
 28 29  1  0
M  END
$$$$
