IPW.pdb
     RDKit          3D

 30 32  0  0  1  0  0  0  0  0999 V2000
   25.7008  -14.3567  -14.8836 C   0  0  0  0  0  0  0  0  0  0  0  0
   25.5021  -15.6943  -15.5567 C   0  0  0  0  0  0  0  0  0  0  0  0
   25.7496  -16.7814  -14.5597 C   0  0  2  0  0  0  0  0  0  0  0  0
   27.1714  -16.7282  -14.0152 C   0  0  0  0  0  0  0  0  0  0  0  0
   25.4436  -18.1652  -15.0917 C   0  0  2  0  0  0  0  0  0  0  0  0
   24.0831  -18.0778  -15.6272 N   0  0  0  0  0  0  0  0  0  0  0  0
   25.5302  -19.1969  -14.0372 C   0  0  0  0  0  0  0  0  0  0  0  0
   24.7493  -19.1563  -13.0545 O   0  0  0  0  0  0  0  0  0  0  0  0
   26.4850  -20.2809  -14.0675 N   0  0  0  0  0  0  0  0  0  0  0  0
   27.3437  -20.6054  -15.1613 C   0  0  0  0  0  0  0  0  0  0  0  0
   28.2474  -21.7045  -14.7014 C   0  0  0  0  0  0  0  0  0  0  0  0
   27.8971  -21.9943  -13.2844 C   0  0  0  0  0  0  0  0  0  0  0  0
   26.6813  -21.1713  -12.9868 C   0  0  1  0  0  0  0  0  0  0  0  0
   26.9745  -20.4593  -11.6942 C   0  0  0  0  0  0  0  0  0  0  0  0
   28.0468  -19.8469  -11.4773 O   0  0  0  0  0  0  0  0  0  0  0  0
   25.9663  -20.5035  -10.6949 N   0  0  0  0  0  0  0  0  0  0  0  0
   26.0345  -21.3795   -9.5240 C   0  0  1  0  0  0  0  0  0  0  0  0
   27.4282  -21.2518   -8.9741 C   0  0  0  0  0  0  0  0  0  0  0  0
   27.6196  -20.1189   -8.0746 C   0  0  0  0  0  0  0  0  0  0  0  0
   27.1327  -18.8398   -8.2382 C   0  0  0  0  0  0  0  0  0  0  0  0
   27.5400  -18.0613   -7.2304 N   0  0  0  0  0  0  0  0  0  0  0  0
   28.2919  -18.8098   -6.3980 C   0  0  0  0  0  0  0  0  0  0  0  0
   28.9525  -18.5754   -5.2189 C   0  0  0  0  0  0  0  0  0  0  0  0
   29.6436  -19.5685   -4.5684 C   0  0  0  0  0  0  0  0  0  0  0  0
   29.6990  -20.8386   -5.0767 C   0  0  0  0  0  0  0  0  0  0  0  0
   29.0548  -21.0997   -6.2432 C   0  0  0  0  0  0  0  0  0  0  0  0
   28.3530  -20.1069   -6.9125 C   0  0  0  0  0  0  0  0  0  0  0  0
   24.9286  -21.2473   -8.6103 C   0  0  0  0  0  0  0  0  0  0  0  0
   23.8687  -20.3553   -8.7488 O   0  0  0  0  0  0  0  0  0  0  0  0
   24.8822  -21.9837   -7.5885 O   0  0  0  0  0  0  0  0  0  0  0  0
  2  1  1  0
  3  2  1  0
  3  4  1  6
  5  3  1  0
  5  6  1  1
  7  5  1  0
  8  7  2  0
  9 13  1  0
  9  7  1  0
 10  9  1  0
 11 10  1  0
 11 12  1  0
 12 13  1  0
 13 14  1  1
 14 15  2  0
 16 14  1  0
 17 16  1  0
 17 28  1  0
 17 18  1  1
 19 27  1  0
 19 18  1  0
 20 19  2  0
 21 20  1  0
 21 22  1  0
 22 27  2  0
 23 22  1  0
 23 24  2  0
 24 25  1  0
 25 26  2  0
 27 26  1  0
 28 30  2  0
 28 29  1  0
M  END
$$$$
