IPW.pdb
     RDKit          3D

 30 32  0  0  1  0  0  0  0  0999 V2000
   25.6393  -14.4317  -14.6332 C   0  0  0  0  0  0  0  0  0  0  0  0
   25.2745  -15.7260  -15.3213 C   0  0  0  0  0  0  0  0  0  0  0  0
   25.6703  -16.8710  -14.4441 C   0  0  2  0  0  0  0  0  0  0  0  0
   27.1524  -16.8218  -14.0949 C   0  0  0  0  0  0  0  0  0  0  0  0
   25.3130  -18.2229  -15.0237 C   0  0  2  0  0  0  0  0  0  0  0  0
   23.8987  -18.1210  -15.3907 N   0  0  0  0  0  0  0  0  0  0  0  0
   25.5289  -19.3171  -14.0541 C   0  0  0  0  0  0  0  0  0  0  0  0
   24.8322  -19.3772  -13.0110 O   0  0  0  0  0  0  0  0  0  0  0  0
   26.5205  -20.3520  -14.2369 N   0  0  0  0  0  0  0  0  0  0  0  0
   27.3445  -20.5229  -15.3906 C   0  0  0  0  0  0  0  0  0  0  0  0
   28.3058  -21.6271  -15.0861 C   0  0  0  0  0  0  0  0  0  0  0  0
   28.0252  -22.0803  -13.6967 C   0  0  0  0  0  0  0  0  0  0  0  0
   26.7936  -21.3438  -13.2668 C   0  0  1  0  0  0  0  0  0  0  0  0
   27.1139  -20.7623  -11.9167 C   0  0  0  0  0  0  0  0  0  0  0  0
   28.2455  -20.3155  -11.6142 O   0  0  0  0  0  0  0  0  0  0  0  0
   26.0605  -20.7341  -10.9645 N   0  0  0  0  0  0  0  0  0  0  0  0
   26.1557  -21.3573   -9.6434 C   0  0  1  0  0  0  0  0  0  0  0  0
   27.5319  -21.0479   -9.1220 C   0  0  0  0  0  0  0  0  0  0  0  0
   27.5627  -20.0506   -8.0573 C   0  0  0  0  0  0  0  0  0  0  0  0
   26.9487  -18.8165   -8.0602 C   0  0  0  0  0  0  0  0  0  0  0  0
   27.2275  -18.1626   -6.9279 N   0  0  0  0  0  0  0  0  0  0  0  0
   28.0198  -18.9494   -6.1717 C   0  0  0  0  0  0  0  0  0  0  0  0
   28.6014  -18.8312   -4.9351 C   0  0  0  0  0  0  0  0  0  0  0  0
   29.3671  -19.8372   -4.3979 C   0  0  0  0  0  0  0  0  0  0  0  0
   29.5797  -21.0040   -5.0821 C   0  0  0  0  0  0  0  0  0  0  0  0
   29.0167  -21.1487   -6.3093 C   0  0  0  0  0  0  0  0  0  0  0  0
   28.2412  -20.1412   -6.8657 C   0  0  0  0  0  0  0  0  0  0  0  0
   25.0299  -21.1083   -8.7797 C   0  0  0  0  0  0  0  0  0  0  0  0
   24.8974  -21.5685   -7.4724 O   0  0  0  0  0  0  0  0  0  0  0  0
   24.0649  -20.4202   -9.2085 O   0  0  0  0  0  0  0  0  0  0  0  0
  2  1  1  0
  3  2  1  0
  3  4  1  6
  5  3  1  0
  5  6  1  1
  7  5  1  0
  8  7  2  0
  9 13  1  0
  9  7  1  0
 10  9  1  0
 11 10  1  0
 11 12  1  0
 12 13  1  0
 13 14  1  1
 14 15  2  0
 16 14  1  0
 17 16  1  0
 17 28  1  0
 17 18  1  1
 19 27  1  0
 19 18  1  0
 20 19  2  0
 21 20  1  0
 21 22  1  0
 22 27  2  0
 23 22  1  0
 23 24  2  0
 24 25  1  0
 25 26  2  0
 27 26  1  0
 28 30  2  0
 28 29  1  0
M  END
$$$$
