IAW.pdb
     RDKit          3D

 28 29  0  0  1  0  0  0  0  0999 V2000
    7.6919  -12.5920   17.0538 C   0  0  0  0  0  0  0  0  0  0  0  0
    8.5772  -12.7686   18.2267 C   0  0  0  0  0  0  0  0  0  0  0  0
    8.3957  -13.9609   19.0800 C   0  0  2  0  0  0  0  0  0  0  0  0
    6.9362  -14.0932   19.5226 C   0  0  0  0  0  0  0  0  0  0  0  0
    9.3469  -14.1953   20.1738 C   0  0  2  0  0  0  0  0  0  0  0  0
   10.7316  -14.0026   19.6091 N   0  0  0  0  0  0  0  0  0  0  0  0
    9.3091  -15.4196   20.9474 C   0  0  0  0  0  0  0  0  0  0  0  0
    8.2824  -15.8578   21.5525 O   0  0  0  0  0  0  0  0  0  0  0  0
   11.5092  -18.4155   21.1545 C   0  0  0  0  0  0  0  0  0  0  0  0
   10.4515  -17.5339   21.7905 C   0  0  2  0  0  0  0  0  0  0  0  0
   10.4538  -16.2817   21.1123 N   0  0  0  0  0  0  0  0  0  0  0  0
   10.7647  -17.4326   23.2325 C   0  0  0  0  0  0  0  0  0  0  0  0
   10.8945  -18.4891   23.9168 O   0  0  0  0  0  0  0  0  0  0  0  0
   10.9349  -16.2193   23.9256 N   0  0  0  0  0  0  0  0  0  0  0  0
   10.0889  -15.7793   25.0434 C   0  0  1  0  0  0  0  0  0  0  0  0
    8.8821  -15.1691   24.3879 C   0  0  0  0  0  0  0  0  0  0  0  0
    7.8005  -14.7299   25.2632 C   0  0  0  0  0  0  0  0  0  0  0  0
    6.7576  -15.5522   25.6472 C   0  0  0  0  0  0  0  0  0  0  0  0
    5.9336  -14.8311   26.4180 N   0  0  0  0  0  0  0  0  0  0  0  0
    6.3968  -13.5886   26.5475 C   0  0  0  0  0  0  0  0  0  0  0  0
    5.8856  -12.5262   27.2529 C   0  0  0  0  0  0  0  0  0  0  0  0
    6.5603  -11.3365   27.2486 C   0  0  0  0  0  0  0  0  0  0  0  0
    7.7328  -11.2353   26.5383 C   0  0  0  0  0  0  0  0  0  0  0  0
    8.2368  -12.2958   25.8375 C   0  0  0  0  0  0  0  0  0  0  0  0
    7.5667  -13.5023   25.8321 C   0  0  0  0  0  0  0  0  0  0  0  0
    9.7744  -16.8406   25.9691 C   0  0  0  0  0  0  0  0  0  0  0  0
    9.3737  -18.0854   25.5122 O   0  0  0  0  0  0  0  0  0  0  0  0
    9.8534  -16.6697   27.2048 O   0  0  0  0  0  0  0  0  0  0  0  0
  2  1  1  0
  2  3  1  0
  3  5  1  0
  3  4  1  1
  5  6  1  6
  5  7  1  0
  7  8  2  0
 10  9  1  6
 11  7  1  0
 11 10  1  0
 12 13  2  0
 12 10  1  0
 14 12  1  0
 15 14  1  0
 15 16  1  6
 17 25  1  0
 17 16  1  0
 18 17  2  0
 19 18  1  0
 19 20  1  0
 20 21  1  0
 20 25  2  0
 21 22  2  0
 22 23  1  0
 24 23  2  0
 25 24  1  0
 26 15  1  0
 27 26  1  0
 28 26  2  0
M  END
$$$$
