IAW.pdb
     RDKit          3D

 28 29  0  0  1  0  0  0  0  0999 V2000
    7.4578  -11.5412   19.5126 C   0  0  0  0  0  0  0  0  0  0  0  0
    7.5581  -13.0030   19.3037 C   0  0  0  0  0  0  0  0  0  0  0  0
    8.0477  -13.8467   20.4134 C   0  0  2  0  0  0  0  0  0  0  0  0
    9.4053  -13.3479   20.9149 C   0  0  0  0  0  0  0  0  0  0  0  0
    7.9962  -15.3064   20.2636 C   0  0  2  0  0  0  0  0  0  0  0  0
    6.6558  -15.6456   19.6620 N   0  0  0  0  0  0  0  0  0  0  0  0
    8.2540  -16.1825   21.3882 C   0  0  0  0  0  0  0  0  0  0  0  0
    7.4780  -16.3247   22.3832 O   0  0  0  0  0  0  0  0  0  0  0  0
   10.9903  -18.6511   22.2224 C   0  0  0  0  0  0  0  0  0  0  0  0
    9.7613  -17.8439   22.5942 C   0  0  2  0  0  0  0  0  0  0  0  0
    9.4393  -16.9978   21.4950 N   0  0  0  0  0  0  0  0  0  0  0  0
   10.0706  -17.1111   23.8412 C   0  0  0  0  0  0  0  0  0  0  0  0
   10.7673  -16.0561   23.7866 O   0  0  0  0  0  0  0  0  0  0  0  0
    9.6396  -17.5046   25.1222 N   0  0  0  0  0  0  0  0  0  0  0  0
   10.0438  -16.8436   26.3705 C   0  0  1  0  0  0  0  0  0  0  0  0
    8.7735  -16.7243   27.1646 C   0  0  0  0  0  0  0  0  0  0  0  0
    7.7705  -15.7833   26.6773 C   0  0  0  0  0  0  0  0  0  0  0  0
    6.5662  -16.1801   26.1264 C   0  0  0  0  0  0  0  0  0  0  0  0
    5.9034  -15.0760   25.7593 N   0  0  0  0  0  0  0  0  0  0  0  0
    6.6223  -13.9922   26.0482 C   0  0  0  0  0  0  0  0  0  0  0  0
    6.3282  -12.6633   25.8605 C   0  0  0  0  0  0  0  0  0  0  0  0
    7.2317  -11.7175   26.2603 C   0  0  0  0  0  0  0  0  0  0  0  0
    8.4107  -12.1218   26.8397 C   0  0  0  0  0  0  0  0  0  0  0  0
    8.6987  -13.4459   27.0237 C   0  0  0  0  0  0  0  0  0  0  0  0
    7.7969  -14.4115   26.6247 C   0  0  0  0  0  0  0  0  0  0  0  0
   11.1009  -17.5390   27.0643 C   0  0  0  0  0  0  0  0  0  0  0  0
   11.7498  -16.9532   28.1388 O   0  0  0  0  0  0  0  0  0  0  0  0
   11.4612  -18.6848   26.7184 O   0  0  0  0  0  0  0  0  0  0  0  0
  2  1  1  0
  2  3  1  0
  3  5  1  0
  3  4  1  6
  5  6  1  1
  5  7  1  0
  7  8  2  0
 10  9  1  6
 11  7  1  0
 11 10  1  0
 12 13  2  0
 12 10  1  0
 14 12  1  0
 15 14  1  0
 15 16  1  1
 17 25  1  0
 17 16  1  0
 18 17  2  0
 19 18  1  0
 19 20  1  0
 20 21  1  0
 20 25  2  0
 21 22  2  0
 22 23  1  0
 24 23  2  0
 25 24  1  0
 26 15  1  0
 27 26  1  0
 28 26  2  0
M  END
$$$$
