IAW.pdb
     RDKit          3D

 28 29  0  0  1  0  0  0  0  0999 V2000
    2.4744  -18.4036   19.7470 C   0  0  0  0  0  0  0  0  0  0  0  0
    3.4293  -18.0419   20.8185 C   0  0  0  0  0  0  0  0  0  0  0  0
    4.2997  -19.0959   21.3791 C   0  0  2  0  0  0  0  0  0  0  0  0
    3.4638  -20.1884   22.0508 C   0  0  0  0  0  0  0  0  0  0  0  0
    5.4640  -18.6957   22.1792 C   0  0  2  0  0  0  0  0  0  0  0  0
    4.9397  -18.0703   23.4471 N   0  0  0  0  0  0  0  0  0  0  0  0
    6.5007  -17.8523   21.6201 C   0  0  0  0  0  0  0  0  0  0  0  0
    7.4210  -18.2597   20.8459 O   0  0  0  0  0  0  0  0  0  0  0  0
    7.0547  -14.1727   21.3202 C   0  0  0  0  0  0  0  0  0  0  0  0
    7.6235  -15.5756   21.4137 C   0  0  2  0  0  0  0  0  0  0  0  0
    6.5955  -16.4383   21.8898 N   0  0  0  0  0  0  0  0  0  0  0  0
    8.8098  -15.5171   22.2950 C   0  0  0  0  0  0  0  0  0  0  0  0
    9.8338  -14.8760   21.9185 O   0  0  0  0  0  0  0  0  0  0  0  0
    8.8941  -16.1358   23.5566 N   0  0  0  0  0  0  0  0  0  0  0  0
   10.1033  -16.1523   24.3910 C   0  0  1  0  0  0  0  0  0  0  0  0
    9.8368  -15.1350   25.4645 C   0  0  0  0  0  0  0  0  0  0  0  0
    8.4409  -14.8563   25.7848 C   0  0  0  0  0  0  0  0  0  0  0  0
    7.4587  -15.8292   25.7943 C   0  0  0  0  0  0  0  0  0  0  0  0
    6.2983  -15.2328   26.0958 N   0  0  0  0  0  0  0  0  0  0  0  0
    6.4881  -13.9271   26.2806 C   0  0  0  0  0  0  0  0  0  0  0  0
    5.5886  -12.9440   26.6156 C   0  0  0  0  0  0  0  0  0  0  0  0
    6.0314  -11.6590   26.7686 C   0  0  0  0  0  0  0  0  0  0  0  0
    7.3655  -11.3851   26.5832 C   0  0  0  0  0  0  0  0  0  0  0  0
    8.2565  -12.3672   26.2494 C   0  0  0  0  0  0  0  0  0  0  0  0
    7.8241  -13.6683   26.0910 C   0  0  0  0  0  0  0  0  0  0  0  0
   10.4244  -17.4642   24.8990 C   0  0  0  0  0  0  0  0  0  0  0  0
    9.5437  -18.5216   24.7408 O   0  0  0  0  0  0  0  0  0  0  0  0
   11.5012  -17.6849   25.4941 O   0  0  0  0  0  0  0  0  0  0  0  0
  2  1  1  0
  2  3  1  0
  3  5  1  0
  3  4  1  1
  5  6  1  1
  5  7  1  0
  7  8  2  0
 10  9  1  1
 11  7  1  0
 11 10  1  0
 12 13  2  0
 12 10  1  0
 14 12  1  0
 15 14  1  0
 15 16  1  1
 17 25  1  0
 17 16  1  0
 18 17  2  0
 19 18  1  0
 19 20  1  0
 20 21  1  0
 20 25  2  0
 21 22  2  0
 22 23  1  0
 24 23  2  0
 25 24  1  0
 26 15  1  0
 27 26  1  0
 28 26  2  0
M  END
$$$$
