IAW.pdb
     RDKit          3D

 28 29  0  0  1  0  0  0  0  0999 V2000
    6.7728  -12.4407   21.7934 C   0  0  0  0  0  0  0  0  0  0  0  0
    7.0651  -13.8303   21.3760 C   0  0  0  0  0  0  0  0  0  0  0  0
    8.1323  -14.5727   22.0779 C   0  0  2  0  0  0  0  0  0  0  0  0
    9.3810  -13.7022   22.2406 C   0  0  0  0  0  0  0  0  0  0  0  0
    8.4430  -15.9398   21.6414 C   0  0  2  0  0  0  0  0  0  0  0  0
    7.1310  -16.6247   21.3535 N   0  0  0  0  0  0  0  0  0  0  0  0
    9.2736  -16.8110   22.4475 C   0  0  0  0  0  0  0  0  0  0  0  0
    8.8308  -17.7208   23.2147 O   0  0  0  0  0  0  0  0  0  0  0  0
   12.9868  -17.4271   22.6066 C   0  0  0  0  0  0  0  0  0  0  0  0
   11.5815  -17.6388   23.1363 C   0  0  2  0  0  0  0  0  0  0  0  0
   10.7139  -16.7334   22.4615 N   0  0  0  0  0  0  0  0  0  0  0  0
   11.6243  -17.4448   24.6019 C   0  0  0  0  0  0  0  0  0  0  0  0
   12.3766  -18.1801   25.3053 O   0  0  0  0  0  0  0  0  0  0  0  0
   10.8731  -16.4793   25.2982 N   0  0  0  0  0  0  0  0  0  0  0  0
   10.9150  -16.2907   26.7547 C   0  0  1  0  0  0  0  0  0  0  0  0
   10.2191  -14.9791   26.9871 C   0  0  0  0  0  0  0  0  0  0  0  0
    8.8381  -14.8688   26.5294 C   0  0  0  0  0  0  0  0  0  0  0  0
    8.0392  -15.9658   26.2658 C   0  0  0  0  0  0  0  0  0  0  0  0
    6.8534  -15.5124   25.8397 N   0  0  0  0  0  0  0  0  0  0  0  0
    6.8526  -14.1803   25.8178 C   0  0  0  0  0  0  0  0  0  0  0  0
    5.8540  -13.3048   25.4657 C   0  0  0  0  0  0  0  0  0  0  0  0
    6.0887  -11.9596   25.5430 C   0  0  0  0  0  0  0  0  0  0  0  0
    7.3182  -11.5189   25.9712 C   0  0  0  0  0  0  0  0  0  0  0  0
    8.3088  -12.3946   26.3200 C   0  0  0  0  0  0  0  0  0  0  0  0
    8.0868  -13.7548   26.2465 C   0  0  0  0  0  0  0  0  0  0  0  0
   10.3391  -17.3930   27.4865 C   0  0  0  0  0  0  0  0  0  0  0  0
    9.7691  -18.4659   26.8212 O   0  0  0  0  0  0  0  0  0  0  0  0
   10.3370  -17.4128   28.7363 O   0  0  0  0  0  0  0  0  0  0  0  0
  2  1  1  0
  2  3  1  0
  3  5  1  0
  3  4  1  6
  5  6  1  1
  5  7  1  0
  7  8  2  0
 10  9  1  6
 11  7  1  0
 11 10  1  0
 12 13  2  0
 12 10  1  0
 14 12  1  0
 15 14  1  0
 15 16  1  6
 17 25  1  0
 17 16  1  0
 18 17  2  0
 19 18  1  0
 19 20  1  0
 20 21  1  0
 20 25  2  0
 21 22  2  0
 22 23  1  0
 24 23  2  0
 25 24  1  0
 26 15  1  0
 27 26  1  0
 28 26  2  0
M  END
$$$$
