IAW.pdb
     RDKit          3D

 28 29  0  0  1  0  0  0  0  0999 V2000
    5.8236  -21.2290   25.4480 C   0  0  0  0  0  0  0  0  0  0  0  0
    5.5763  -20.6581   24.1051 C   0  0  0  0  0  0  0  0  0  0  0  0
    6.4573  -19.5754   23.6208 C   0  0  2  0  0  0  0  0  0  0  0  0
    6.5557  -18.4527   24.6568 C   0  0  0  0  0  0  0  0  0  0  0  0
    6.2708  -19.0747   22.2531 C   0  0  2  0  0  0  0  0  0  0  0  0
    6.1799  -20.2765   21.3471 N   0  0  0  0  0  0  0  0  0  0  0  0
    7.1854  -18.1085   21.6799 C   0  0  0  0  0  0  0  0  0  0  0  0
    8.3226  -18.3942   21.1926 O   0  0  0  0  0  0  0  0  0  0  0  0
    7.0415  -14.4146   20.9447 C   0  0  0  0  0  0  0  0  0  0  0  0
    7.8213  -15.6830   21.2335 C   0  0  2  0  0  0  0  0  0  0  0  0
    6.8931  -16.6980   21.6023 N   0  0  0  0  0  0  0  0  0  0  0  0
    8.8106  -15.3673   22.2866 C   0  0  0  0  0  0  0  0  0  0  0  0
    9.6928  -14.4868   22.0679 O   0  0  0  0  0  0  0  0  0  0  0  0
    8.8512  -15.9860   23.5504 N   0  0  0  0  0  0  0  0  0  0  0  0
    9.8281  -15.6626   24.5990 C   0  0  1  0  0  0  0  0  0  0  0  0
    9.0629  -15.7995   25.8851 C   0  0  0  0  0  0  0  0  0  0  0  0
    7.7654  -15.1365   25.9607 C   0  0  0  0  0  0  0  0  0  0  0  0
    6.5644  -15.8075   25.8236 C   0  0  0  0  0  0  0  0  0  0  0  0
    5.5807  -14.9034   25.9142 N   0  0  0  0  0  0  0  0  0  0  0  0
    6.0913  -13.6875   26.1032 C   0  0  0  0  0  0  0  0  0  0  0  0
    5.4562  -12.4796   26.2631 C   0  0  0  0  0  0  0  0  0  0  0  0
    6.2060  -11.3535   26.4637 C   0  0  0  0  0  0  0  0  0  0  0  0
    7.5760  -11.4600   26.5000 C   0  0  0  0  0  0  0  0  0  0  0  0
    8.2030  -12.6646   26.3397 C   0  0  0  0  0  0  0  0  0  0  0  0
    7.4595  -13.8094   26.1359 C   0  0  0  0  0  0  0  0  0  0  0  0
   11.0164  -16.4791   24.5389 C   0  0  0  0  0  0  0  0  0  0  0  0
   12.1036  -16.2112   25.3543 O   0  0  0  0  0  0  0  0  0  0  0  0
   11.1002  -17.4476   23.7531 O   0  0  0  0  0  0  0  0  0  0  0  0
  2  1  1  0
  2  3  1  0
  3  5  1  0
  3  4  1  1
  5  6  1  6
  5  7  1  0
  7  8  2  0
 10  9  1  1
 11  7  1  0
 11 10  1  0
 12 13  2  0
 12 10  1  0
 14 12  1  0
 15 14  1  0
 15 16  1  1
 17 25  1  0
 17 16  1  0
 18 17  2  0
 19 18  1  0
 19 20  1  0
 20 21  1  0
 20 25  2  0
 21 22  2  0
 22 23  1  0
 24 23  2  0
 25 24  1  0
 26 15  1  0
 27 26  1  0
 28 26  2  0
M  END
$$$$
