IAW.pdb
     RDKit          3D

 28 29  0  0  1  0  0  0  0  0999 V2000
    6.1783  -13.0000   22.0198 C   0  0  0  0  0  0  0  0  0  0  0  0
    6.6958  -14.3019   21.5422 C   0  0  0  0  0  0  0  0  0  0  0  0
    7.7922  -14.9483   22.2924 C   0  0  2  0  0  0  0  0  0  0  0  0
    8.8968  -13.9387   22.6151 C   0  0  0  0  0  0  0  0  0  0  0  0
    8.3162  -16.2314   21.8075 C   0  0  2  0  0  0  0  0  0  0  0  0
    7.1298  -17.1102   21.5014 N   0  0  0  0  0  0  0  0  0  0  0  0
    9.2847  -16.9828   22.5796 C   0  0  0  0  0  0  0  0  0  0  0  0
    9.0086  -18.0009   23.2864 O   0  0  0  0  0  0  0  0  0  0  0  0
   13.0418  -16.9817   22.7184 C   0  0  0  0  0  0  0  0  0  0  0  0
   11.6974  -17.4112   23.2738 C   0  0  2  0  0  0  0  0  0  0  0  0
   10.6866  -16.6458   22.6255 N   0  0  0  0  0  0  0  0  0  0  0  0
   11.7408  -17.2227   24.7402 C   0  0  0  0  0  0  0  0  0  0  0  0
   12.6033  -17.8485   25.4228 O   0  0  0  0  0  0  0  0  0  0  0  0
   10.8739  -16.3782   25.4591 N   0  0  0  0  0  0  0  0  0  0  0  0
   11.0154  -16.0711   26.8889 C   0  0  1  0  0  0  0  0  0  0  0  0
   10.3047  -14.7589   27.0667 C   0  0  0  0  0  0  0  0  0  0  0  0
    8.8576  -14.7558   26.8803 C   0  0  0  0  0  0  0  0  0  0  0  0
    8.0969  -15.9098   26.8490 C   0  0  0  0  0  0  0  0  0  0  0  0
    6.8245  -15.5526   26.6333 N   0  0  0  0  0  0  0  0  0  0  0  0
    6.7320  -14.2279   26.5257 C   0  0  0  0  0  0  0  0  0  0  0  0
    5.6292  -13.4350   26.3187 C   0  0  0  0  0  0  0  0  0  0  0  0
    5.7853  -12.0774   26.2614 C   0  0  0  0  0  0  0  0  0  0  0  0
    7.0422  -11.5419   26.4127 C   0  0  0  0  0  0  0  0  0  0  0  0
    8.1365  -12.3358   26.6180 C   0  0  0  0  0  0  0  0  0  0  0  0
    7.9945  -13.7073   26.6775 C   0  0  0  0  0  0  0  0  0  0  0  0
   10.5217  -17.1214   27.7465 C   0  0  0  0  0  0  0  0  0  0  0  0
   10.0110  -18.2928   27.2121 O   0  0  0  0  0  0  0  0  0  0  0  0
   10.5397  -17.0063   28.9910 O   0  0  0  0  0  0  0  0  0  0  0  0
  2  1  1  0
  2  3  1  0
  3  5  1  0
  3  4  1  6
  5  6  1  1
  5  7  1  0
  7  8  2  0
 10  9  1  6
 11  7  1  0
 11 10  1  0
 12 13  2  0
 12 10  1  0
 14 12  1  0
 15 14  1  0
 15 16  1  6
 17 25  1  0
 17 16  1  0
 18 17  2  0
 19 18  1  0
 19 20  1  0
 20 21  1  0
 20 25  2  0
 21 22  2  0
 22 23  1  0
 24 23  2  0
 25 24  1  0
 26 15  1  0
 27 26  1  0
 28 26  2  0
M  END
$$$$
