IAW.pdb
     RDKit          3D

 28 29  0  0  1  0  0  0  0  0999 V2000
    7.9502  -11.6333   19.3764 C   0  0  0  0  0  0  0  0  0  0  0  0
    7.7167  -13.0945   19.4078 C   0  0  0  0  0  0  0  0  0  0  0  0
    8.1171  -13.8517   20.6115 C   0  0  2  0  0  0  0  0  0  0  0  0
    9.5656  -13.5360   20.9932 C   0  0  0  0  0  0  0  0  0  0  0  0
    7.8101  -15.2862   20.6755 C   0  0  2  0  0  0  0  0  0  0  0  0
    6.3721  -15.4533   20.2541 N   0  0  0  0  0  0  0  0  0  0  0  0
    8.0487  -16.0482   21.8842 C   0  0  0  0  0  0  0  0  0  0  0  0
    7.3158  -16.0036   22.9202 O   0  0  0  0  0  0  0  0  0  0  0  0
   10.5403  -18.7061   22.8703 C   0  0  0  0  0  0  0  0  0  0  0  0
    9.4684  -17.6903   23.2162 C   0  0  2  0  0  0  0  0  0  0  0  0
    9.1624  -16.9520   22.0376 N   0  0  0  0  0  0  0  0  0  0  0  0
    9.9847  -16.8584   24.3248 C   0  0  0  0  0  0  0  0  0  0  0  0
   10.8600  -15.9764   24.0856 O   0  0  0  0  0  0  0  0  0  0  0  0
    9.5684  -16.9723   25.6647 N   0  0  0  0  0  0  0  0  0  0  0  0
   10.4034  -16.6255   26.8228 C   0  0  1  0  0  0  0  0  0  0  0  0
    9.6518  -15.5237   27.5154 C   0  0  0  0  0  0  0  0  0  0  0  0
    8.3782  -15.1178   26.9306 C   0  0  0  0  0  0  0  0  0  0  0  0
    7.4077  -16.0185   26.5328 C   0  0  0  0  0  0  0  0  0  0  0  0
    6.3898  -15.3182   26.0165 N   0  0  0  0  0  0  0  0  0  0  0  0
    6.6593  -14.0143   26.0644 C   0  0  0  0  0  0  0  0  0  0  0  0
    5.9006  -12.9418   25.6621 C   0  0  0  0  0  0  0  0  0  0  0  0
    6.3914  -11.6766   25.8322 C   0  0  0  0  0  0  0  0  0  0  0  0
    7.6315  -11.5114   26.4016 C   0  0  0  0  0  0  0  0  0  0  0  0
    8.3827  -12.5824   26.7998 C   0  0  0  0  0  0  0  0  0  0  0  0
    7.9008  -13.8650   26.6339 C   0  0  0  0  0  0  0  0  0  0  0  0
   10.6934  -17.7556   27.6721 C   0  0  0  0  0  0  0  0  0  0  0  0
   11.5965  -17.6451   28.7165 O   0  0  0  0  0  0  0  0  0  0  0  0
   10.1414  -18.8624   27.4917 O   0  0  0  0  0  0  0  0  0  0  0  0
  2  1  1  0
  2  3  1  0
  3  5  1  0
  3  4  1  6
  5  6  1  1
  5  7  1  0
  7  8  2  0
 10  9  1  6
 11  7  1  0
 11 10  1  0
 12 13  2  0
 12 10  1  0
 14 12  1  0
 15 14  1  0
 15 16  1  1
 17 25  1  0
 17 16  1  0
 18 17  2  0
 19 18  1  0
 19 20  1  0
 20 21  1  0
 20 25  2  0
 21 22  2  0
 22 23  1  0
 24 23  2  0
 25 24  1  0
 26 15  1  0
 27 26  1  0
 28 26  2  0
M  END
$$$$
