IAW.pdb
     RDKit          3D

 28 29  0  0  1  0  0  0  0  0999 V2000
    7.7149  -11.4290   19.9490 C   0  0  0  0  0  0  0  0  0  0  0  0
    7.8288  -12.8686   19.6245 C   0  0  0  0  0  0  0  0  0  0  0  0
    8.1020  -13.8234   20.7182 C   0  0  2  0  0  0  0  0  0  0  0  0
    9.3868  -13.4450   21.4595 C   0  0  0  0  0  0  0  0  0  0  0  0
    8.0083  -15.2616   20.4371 C   0  0  2  0  0  0  0  0  0  0  0  0
    6.6999  -15.4919   19.7241 N   0  0  0  0  0  0  0  0  0  0  0  0
    8.1588  -16.2409   21.4940 C   0  0  0  0  0  0  0  0  0  0  0  0
    7.2650  -16.5170   22.3527 O   0  0  0  0  0  0  0  0  0  0  0  0
   10.8000  -18.7530   22.4445 C   0  0  0  0  0  0  0  0  0  0  0  0
    9.6354  -17.8503   22.8039 C   0  0  2  0  0  0  0  0  0  0  0  0
    9.3602  -17.0166   21.6827 N   0  0  0  0  0  0  0  0  0  0  0  0
   10.0106  -17.1044   24.0248 C   0  0  0  0  0  0  0  0  0  0  0  0
   10.7331  -16.0703   23.9249 O   0  0  0  0  0  0  0  0  0  0  0  0
    9.6170  -17.4631   25.3278 N   0  0  0  0  0  0  0  0  0  0  0  0
   10.0953  -16.8001   26.5486 C   0  0  1  0  0  0  0  0  0  0  0  0
    8.8494  -16.5222   27.3417 C   0  0  0  0  0  0  0  0  0  0  0  0
    7.8284  -15.6947   26.7080 C   0  0  0  0  0  0  0  0  0  0  0  0
    6.6832  -16.2146   26.1337 C   0  0  0  0  0  0  0  0  0  0  0  0
    5.9850  -15.1930   25.6220 N   0  0  0  0  0  0  0  0  0  0  0  0
    6.6250  -14.0450   25.8403 C   0  0  0  0  0  0  0  0  0  0  0  0
    6.2711  -12.7606   25.5046 C   0  0  0  0  0  0  0  0  0  0  0  0
    7.0958  -11.7280   25.8572 C   0  0  0  0  0  0  0  0  0  0  0  0
    8.2575  -12.0028   26.5385 C   0  0  0  0  0  0  0  0  0  0  0  0
    8.6052  -13.2832   26.8696 C   0  0  0  0  0  0  0  0  0  0  0  0
    7.7833  -14.3353   26.5200 C   0  0  0  0  0  0  0  0  0  0  0  0
   11.0812  -17.5728   27.2650 C   0  0  0  0  0  0  0  0  0  0  0  0
   11.8039  -17.0117   28.3051 O   0  0  0  0  0  0  0  0  0  0  0  0
   11.3119  -18.7653   26.9701 O   0  0  0  0  0  0  0  0  0  0  0  0
  2  1  1  0
  2  3  1  0
  3  5  1  0
  3  4  1  6
  5  6  1  1
  5  7  1  0
  7  8  2  0
 10  9  1  6
 11  7  1  0
 11 10  1  0
 12 13  2  0
 12 10  1  0
 14 12  1  0
 15 14  1  0
 15 16  1  1
 17 25  1  0
 17 16  1  0
 18 17  2  0
 19 18  1  0
 19 20  1  0
 20 21  1  0
 20 25  2  0
 21 22  2  0
 22 23  1  0
 24 23  2  0
 25 24  1  0
 26 15  1  0
 27 26  1  0
 28 26  2  0
M  END
$$$$
