IAW.pdb
     RDKit          3D

 28 29  0  0  1  0  0  0  0  0999 V2000
    7.5570  -12.4419   16.9345 C   0  0  0  0  0  0  0  0  0  0  0  0
    8.5849  -13.2878   17.5814 C   0  0  0  0  0  0  0  0  0  0  0  0
    8.2629  -13.9365   18.8691 C   0  0  2  0  0  0  0  0  0  0  0  0
    7.7563  -12.9071   19.8826 C   0  0  0  0  0  0  0  0  0  0  0  0
    9.2328  -14.8757   19.4463 C   0  0  2  0  0  0  0  0  0  0  0  0
    9.5922  -15.8648   18.3666 N   0  0  0  0  0  0  0  0  0  0  0  0
    8.9435  -15.5881   20.6741 C   0  0  0  0  0  0  0  0  0  0  0  0
    8.6558  -15.0320   21.7787 O   0  0  0  0  0  0  0  0  0  0  0  0
    9.3462  -19.1809   21.7053 C   0  0  0  0  0  0  0  0  0  0  0  0
    8.8498  -17.7739   21.9778 C   0  0  2  0  0  0  0  0  0  0  0  0
    8.9524  -17.0274   20.7695 N   0  0  0  0  0  0  0  0  0  0  0  0
    9.6563  -17.2248   23.0893 C   0  0  0  0  0  0  0  0  0  0  0  0
   10.6592  -16.4977   22.8305 O   0  0  0  0  0  0  0  0  0  0  0  0
    9.3903  -17.4528   24.4527 N   0  0  0  0  0  0  0  0  0  0  0  0
   10.1291  -16.8244   25.5563 C   0  0  1  0  0  0  0  0  0  0  0  0
    9.7267  -15.3773   25.5061 C   0  0  0  0  0  0  0  0  0  0  0  0
    8.3577  -15.0540   25.8938 C   0  0  0  0  0  0  0  0  0  0  0  0
    7.3449  -15.9936   25.9463 C   0  0  0  0  0  0  0  0  0  0  0  0
    6.2209  -15.3606   26.3052 N   0  0  0  0  0  0  0  0  0  0  0  0
    6.4630  -14.0630   26.4859 C   0  0  0  0  0  0  0  0  0  0  0  0
    5.6139  -13.0524   26.8673 C   0  0  0  0  0  0  0  0  0  0  0  0
    6.1064  -11.7837   27.0041 C   0  0  0  0  0  0  0  0  0  0  0  0
    7.4387  -11.5533   26.7563 C   0  0  0  0  0  0  0  0  0  0  0  0
    8.2793  -12.5628   26.3765 C   0  0  0  0  0  0  0  0  0  0  0  0
    7.7964  -13.8478   26.2337 C   0  0  0  0  0  0  0  0  0  0  0  0
    9.8857  -17.4524   26.8324 C   0  0  0  0  0  0  0  0  0  0  0  0
   10.6220  -17.0966   27.9505 O   0  0  0  0  0  0  0  0  0  0  0  0
    9.0079  -18.3321   26.9668 O   0  0  0  0  0  0  0  0  0  0  0  0
  2  1  1  0
  2  3  1  0
  3  5  1  0
  3  4  1  1
  5  6  1  6
  5  7  1  0
  7  8  2  0
 10  9  1  6
 11  7  1  0
 11 10  1  0
 12 13  2  0
 12 10  1  0
 14 12  1  0
 15 14  1  0
 15 16  1  1
 17 25  1  0
 17 16  1  0
 18 17  2  0
 19 18  1  0
 19 20  1  0
 20 21  1  0
 20 25  2  0
 21 22  2  0
 22 23  1  0
 24 23  2  0
 25 24  1  0
 26 15  1  0
 27 26  1  0
 28 26  2  0
M  END
$$$$
