IAW.pdb
     RDKit          3D

 28 29  0  0  1  0  0  0  0  0999 V2000
    7.6010  -11.5885   19.4115 C   0  0  0  0  0  0  0  0  0  0  0  0
    7.6433  -13.0430   19.1407 C   0  0  0  0  0  0  0  0  0  0  0  0
    8.1340  -13.9484   20.2001 C   0  0  2  0  0  0  0  0  0  0  0  0
    9.5556  -13.5682   20.6221 C   0  0  0  0  0  0  0  0  0  0  0  0
    7.9586  -15.3958   20.0262 C   0  0  2  0  0  0  0  0  0  0  0  0
    6.5521  -15.6178   19.5303 N   0  0  0  0  0  0  0  0  0  0  0  0
    8.2381  -16.3176   21.1082 C   0  0  0  0  0  0  0  0  0  0  0  0
    7.5434  -16.4182   22.1663 O   0  0  0  0  0  0  0  0  0  0  0  0
   10.9219  -18.9088   21.7250 C   0  0  0  0  0  0  0  0  0  0  0  0
    9.7827  -18.0254   22.1964 C   0  0  2  0  0  0  0  0  0  0  0  0
    9.3535  -17.2323   21.0943 N   0  0  0  0  0  0  0  0  0  0  0  0
   10.2780  -17.2348   23.3441 C   0  0  0  0  0  0  0  0  0  0  0  0
   11.2822  -16.4798   23.1926 O   0  0  0  0  0  0  0  0  0  0  0  0
    9.7053  -17.2554   24.6298 N   0  0  0  0  0  0  0  0  0  0  0  0
   10.3505  -16.7098   25.8318 C   0  0  1  0  0  0  0  0  0  0  0  0
    9.9473  -15.2623   25.8544 C   0  0  0  0  0  0  0  0  0  0  0  0
    8.5327  -14.9691   26.0592 C   0  0  0  0  0  0  0  0  0  0  0  0
    7.5393  -15.9245   25.9513 C   0  0  0  0  0  0  0  0  0  0  0  0
    6.3657  -15.3173   26.1683 N   0  0  0  0  0  0  0  0  0  0  0  0
    6.5576  -14.0213   26.4103 C   0  0  0  0  0  0  0  0  0  0  0  0
    5.6466  -13.0332   26.6957 C   0  0  0  0  0  0  0  0  0  0  0  0
    6.0930  -11.7614   26.9277 C   0  0  0  0  0  0  0  0  0  0  0  0
    7.4422  -11.5053   26.8693 C   0  0  0  0  0  0  0  0  0  0  0  0
    8.3447  -12.4923   26.5843 C   0  0  0  0  0  0  0  0  0  0  0  0
    7.9089  -13.7803   26.3473 C   0  0  0  0  0  0  0  0  0  0  0  0
   10.0079  -17.4284   27.0354 C   0  0  0  0  0  0  0  0  0  0  0  0
   10.6446  -17.1500   28.2337 O   0  0  0  0  0  0  0  0  0  0  0  0
    9.1311  -18.3192   27.0331 O   0  0  0  0  0  0  0  0  0  0  0  0
  2  1  1  0
  2  3  1  0
  3  5  1  0
  3  4  1  6
  5  6  1  1
  5  7  1  0
  7  8  2  0
 10  9  1  6
 11  7  1  0
 11 10  1  0
 12 13  2  0
 12 10  1  0
 14 12  1  0
 15 14  1  0
 15 16  1  1
 17 25  1  0
 17 16  1  0
 18 17  2  0
 19 18  1  0
 19 20  1  0
 20 21  1  0
 20 25  2  0
 21 22  2  0
 22 23  1  0
 24 23  2  0
 25 24  1  0
 26 15  1  0
 27 26  1  0
 28 26  2  0
M  END
$$$$
