IAW.pdb
     RDKit          3D

 28 29  0  0  1  0  0  0  0  0999 V2000
    6.6154  -22.2360   24.1330 C   0  0  0  0  0  0  0  0  0  0  0  0
    6.3045  -21.3982   22.9532 C   0  0  0  0  0  0  0  0  0  0  0  0
    7.0363  -20.1276   22.7721 C   0  0  2  0  0  0  0  0  0  0  0  0
    6.9781  -19.2824   24.0471 C   0  0  0  0  0  0  0  0  0  0  0  0
    6.7930  -19.3422   21.5555 C   0  0  2  0  0  0  0  0  0  0  0  0
    6.8934  -20.2890   20.3864 N   0  0  0  0  0  0  0  0  0  0  0  0
    7.5596  -18.1459   21.2727 C   0  0  0  0  0  0  0  0  0  0  0  0
    8.7739  -18.1396   20.9016 O   0  0  0  0  0  0  0  0  0  0  0  0
    6.7439  -14.4654   21.1181 C   0  0  0  0  0  0  0  0  0  0  0  0
    7.7399  -15.6067   21.1942 C   0  0  2  0  0  0  0  0  0  0  0  0
    7.0124  -16.8159   21.3851 N   0  0  0  0  0  0  0  0  0  0  0  0
    8.6859  -15.2997   22.2889 C   0  0  0  0  0  0  0  0  0  0  0  0
    9.4130  -14.2669   22.2118 O   0  0  0  0  0  0  0  0  0  0  0  0
    8.8475  -16.0876   23.4442 N   0  0  0  0  0  0  0  0  0  0  0  0
    9.8449  -15.8265   24.4909 C   0  0  1  0  0  0  0  0  0  0  0  0
    9.0856  -15.9636   25.7805 C   0  0  0  0  0  0  0  0  0  0  0  0
    7.8963  -15.1342   25.9434 C   0  0  0  0  0  0  0  0  0  0  0  0
    6.6095  -15.6317   25.8531 C   0  0  0  0  0  0  0  0  0  0  0  0
    5.7644  -14.6065   26.0205 N   0  0  0  0  0  0  0  0  0  0  0  0
    6.4452  -13.4778   26.2142 C   0  0  0  0  0  0  0  0  0  0  0  0
    5.9901  -12.2013   26.4403 C   0  0  0  0  0  0  0  0  0  0  0  0
    6.8958  -11.1943   26.6304 C   0  0  0  0  0  0  0  0  0  0  0  0
    8.2384  -11.4862   26.5902 C   0  0  0  0  0  0  0  0  0  0  0  0
    8.6861  -12.7584   26.3643 C   0  0  0  0  0  0  0  0  0  0  0  0
    7.7838  -13.7847   26.1702 C   0  0  0  0  0  0  0  0  0  0  0  0
   11.0001  -16.6867   24.4012 C   0  0  0  0  0  0  0  0  0  0  0  0
   12.0985  -16.4876   25.2213 O   0  0  0  0  0  0  0  0  0  0  0  0
   11.0442  -17.6323   23.5850 O   0  0  0  0  0  0  0  0  0  0  0  0
  2  1  1  0
  2  3  1  0
  3  5  1  0
  3  4  1  1
  5  6  1  6
  5  7  1  0
  7  8  2  0
 10  9  1  1
 11  7  1  0
 11 10  1  0
 12 13  2  0
 12 10  1  0
 14 12  1  0
 15 14  1  0
 15 16  1  1
 17 25  1  0
 17 16  1  0
 18 17  2  0
 19 18  1  0
 19 20  1  0
 20 21  1  0
 20 25  2  0
 21 22  2  0
 22 23  1  0
 24 23  2  0
 25 24  1  0
 26 15  1  0
 27 26  1  0
 28 26  2  0
M  END
$$$$
