IAW.pdb
     RDKit          3D

 28 29  0  0  1  0  0  0  0  0999 V2000
    8.2040  -11.5467   20.8697 C   0  0  0  0  0  0  0  0  0  0  0  0
    7.8251  -12.9756   20.9434 C   0  0  0  0  0  0  0  0  0  0  0  0
    8.3096  -13.8936   19.8921 C   0  0  2  0  0  0  0  0  0  0  0  0
    8.0982  -13.2862   18.5028 C   0  0  0  0  0  0  0  0  0  0  0  0
    7.9238  -15.3087   19.9605 C   0  0  2  0  0  0  0  0  0  0  0  0
    6.4577  -15.3879   19.6176 N   0  0  0  0  0  0  0  0  0  0  0  0
    8.1833  -16.0973   21.1477 C   0  0  0  0  0  0  0  0  0  0  0  0
    7.4165  -16.1512   22.1584 O   0  0  0  0  0  0  0  0  0  0  0  0
   10.8551  -18.5872   22.1078 C   0  0  0  0  0  0  0  0  0  0  0  0
    9.6583  -17.7186   22.4447 C   0  0  2  0  0  0  0  0  0  0  0  0
    9.3597  -16.9170   21.3063 N   0  0  0  0  0  0  0  0  0  0  0  0
   10.0016  -16.9366   23.6523 C   0  0  0  0  0  0  0  0  0  0  0  0
   10.6590  -15.8621   23.5318 O   0  0  0  0  0  0  0  0  0  0  0  0
    9.6455  -17.3025   24.9641 N   0  0  0  0  0  0  0  0  0  0  0  0
   10.1225  -16.6167   26.1727 C   0  0  1  0  0  0  0  0  0  0  0  0
    8.9193  -16.5507   27.0707 C   0  0  0  0  0  0  0  0  0  0  0  0
    7.8031  -15.7225   26.6270 C   0  0  0  0  0  0  0  0  0  0  0  0
    6.6303  -16.2457   26.1149 C   0  0  0  0  0  0  0  0  0  0  0  0
    5.8385  -15.2188   25.7810 N   0  0  0  0  0  0  0  0  0  0  0  0
    6.4448  -14.0643   26.0541 C   0  0  0  0  0  0  0  0  0  0  0  0
    6.0011  -12.7746   25.8886 C   0  0  0  0  0  0  0  0  0  0  0  0
    6.8097  -11.7378   26.2650 C   0  0  0  0  0  0  0  0  0  0  0  0
    8.0457  -12.0138   26.7994 C   0  0  0  0  0  0  0  0  0  0  0  0
    8.4826  -13.2993   26.9615 C   0  0  0  0  0  0  0  0  0  0  0  0
    7.6779  -14.3557   26.5856 C   0  0  0  0  0  0  0  0  0  0  0  0
   11.2649  -17.2594   26.7764 C   0  0  0  0  0  0  0  0  0  0  0  0
   12.0003  -16.6207   27.7613 O   0  0  0  0  0  0  0  0  0  0  0  0
   11.6235  -18.4058   26.4305 O   0  0  0  0  0  0  0  0  0  0  0  0
  2  1  1  0
  2  3  1  0
  3  5  1  0
  3  4  1  6
  5  6  1  1
  5  7  1  0
  7  8  2  0
 10  9  1  6
 11  7  1  0
 11 10  1  0
 12 13  2  0
 12 10  1  0
 14 12  1  0
 15 14  1  0
 15 16  1  1
 17 25  1  0
 17 16  1  0
 18 17  2  0
 19 18  1  0
 19 20  1  0
 20 21  1  0
 20 25  2  0
 21 22  2  0
 22 23  1  0
 24 23  2  0
 25 24  1  0
 26 15  1  0
 27 26  1  0
 28 26  2  0
M  END
$$$$
