IAW.pdb
     RDKit          3D

 28 29  0  0  1  0  0  0  0  0999 V2000
    6.1250  -22.1814   23.6719 C   0  0  0  0  0  0  0  0  0  0  0  0
    5.7964  -21.1449   22.6676 C   0  0  0  0  0  0  0  0  0  0  0  0
    6.6933  -19.9790   22.5312 C   0  0  2  0  0  0  0  0  0  0  0  0
    6.9885  -19.3594   23.8996 C   0  0  0  0  0  0  0  0  0  0  0  0
    6.3910  -18.9746   21.5036 C   0  0  2  0  0  0  0  0  0  0  0  0
    6.1441  -19.7164   20.2144 N   0  0  0  0  0  0  0  0  0  0  0  0
    7.2894  -17.8654   21.2557 C   0  0  0  0  0  0  0  0  0  0  0  0
    8.4366  -17.9731   20.7223 O   0  0  0  0  0  0  0  0  0  0  0  0
    6.9342  -14.1284   21.3981 C   0  0  0  0  0  0  0  0  0  0  0  0
    7.8008  -15.3723   21.3520 C   0  0  2  0  0  0  0  0  0  0  0  0
    6.9671  -16.5009   21.5951 N   0  0  0  0  0  0  0  0  0  0  0  0
    8.8792  -15.2006   22.3496 C   0  0  0  0  0  0  0  0  0  0  0  0
    9.7922  -14.3501   22.1390 O   0  0  0  0  0  0  0  0  0  0  0  0
    8.9747  -15.9291   23.5503 N   0  0  0  0  0  0  0  0  0  0  0  0
   10.1787  -15.9851   24.3906 C   0  0  1  0  0  0  0  0  0  0  0  0
    9.8994  -15.0303   25.5170 C   0  0  0  0  0  0  0  0  0  0  0  0
    8.4998  -14.7798   25.8449 C   0  0  0  0  0  0  0  0  0  0  0  0
    7.5359  -15.7709   25.8517 C   0  0  0  0  0  0  0  0  0  0  0  0
    6.3659  -15.1982   26.1620 N   0  0  0  0  0  0  0  0  0  0  0  0
    6.5322  -13.8905   26.3549 C   0  0  0  0  0  0  0  0  0  0  0  0
    5.6160  -12.9266   26.7002 C   0  0  0  0  0  0  0  0  0  0  0  0
    6.0355  -11.6347   26.8601 C   0  0  0  0  0  0  0  0  0  0  0  0
    7.3635  -11.3347   26.6712 C   0  0  0  0  0  0  0  0  0  0  0  0
    8.2712  -12.2978   26.3271 C   0  0  0  0  0  0  0  0  0  0  0  0
    7.8624  -13.6056   26.1616 C   0  0  0  0  0  0  0  0  0  0  0  0
   10.5042  -17.3214   24.8274 C   0  0  0  0  0  0  0  0  0  0  0  0
   11.7234  -17.5955   25.4251 O   0  0  0  0  0  0  0  0  0  0  0  0
    9.7001  -18.2670   24.6802 O   0  0  0  0  0  0  0  0  0  0  0  0
  2  1  1  0
  2  3  1  0
  3  5  1  0
  3  4  1  1
  5  6  1  6
  5  7  1  0
  7  8  2  0
 10  9  1  1
 11  7  1  0
 11 10  1  0
 12 13  2  0
 12 10  1  0
 14 12  1  0
 15 14  1  0
 15 16  1  1
 17 25  1  0
 17 16  1  0
 18 17  2  0
 19 18  1  0
 19 20  1  0
 20 21  1  0
 20 25  2  0
 21 22  2  0
 22 23  1  0
 24 23  2  0
 25 24  1  0
 26 15  1  0
 27 26  1  0
 28 26  2  0
M  END
$$$$
