IAW.pdb
     RDKit          3D

 28 29  0  0  1  0  0  0  0  0999 V2000
    6.1042  -12.8635   18.9328 C   0  0  0  0  0  0  0  0  0  0  0  0
    7.2803  -13.7221   19.1978 C   0  0  0  0  0  0  0  0  0  0  0  0
    8.4344  -13.1434   19.9161 C   0  0  2  0  0  0  0  0  0  0  0  0
    8.9917  -11.9342   19.1606 C   0  0  0  0  0  0  0  0  0  0  0  0
    9.4854  -14.0459   20.4027 C   0  0  2  0  0  0  0  0  0  0  0  0
   10.0601  -14.7501   19.1997 N   0  0  0  0  0  0  0  0  0  0  0  0
    9.2143  -15.0161   21.4438 C   0  0  0  0  0  0  0  0  0  0  0  0
    8.6463  -14.7484   22.5474 O   0  0  0  0  0  0  0  0  0  0  0  0
   10.1175  -18.6511   21.9180 C   0  0  0  0  0  0  0  0  0  0  0  0
    9.4011  -17.3874   22.3539 C   0  0  2  0  0  0  0  0  0  0  0  0
    9.5675  -16.4102   21.3315 N   0  0  0  0  0  0  0  0  0  0  0  0
    9.9636  -16.9853   23.6614 C   0  0  0  0  0  0  0  0  0  0  0  0
   11.0689  -16.3704   23.7008 O   0  0  0  0  0  0  0  0  0  0  0  0
    9.3502  -17.2395   24.9026 N   0  0  0  0  0  0  0  0  0  0  0  0
    9.9581  -16.9319   26.2044 C   0  0  1  0  0  0  0  0  0  0  0  0
    8.7910  -16.6924   27.1204 C   0  0  0  0  0  0  0  0  0  0  0  0
    7.7763  -15.7452   26.6710 C   0  0  0  0  0  0  0  0  0  0  0  0
    6.6062  -16.1316   26.0442 C   0  0  0  0  0  0  0  0  0  0  0  0
    5.9216  -15.0215   25.7407 N   0  0  0  0  0  0  0  0  0  0  0  0
    6.5940  -13.9437   26.1423 C   0  0  0  0  0  0  0  0  0  0  0  0
    6.2639  -12.6132   26.0496 C   0  0  0  0  0  0  0  0  0  0  0  0
    7.1212  -11.6765   26.5579 C   0  0  0  0  0  0  0  0  0  0  0  0
    8.2910  -12.0914   27.1485 C   0  0  0  0  0  0  0  0  0  0  0  0
    8.6150  -13.4169   27.2376 C   0  0  0  0  0  0  0  0  0  0  0  0
    7.7600  -14.3734   26.7286 C   0  0  0  0  0  0  0  0  0  0  0  0
   10.8597  -17.9593   26.6666 C   0  0  0  0  0  0  0  0  0  0  0  0
   10.9580  -19.1697   26.0002 O   0  0  0  0  0  0  0  0  0  0  0  0
   11.5754  -17.7891   27.6772 O   0  0  0  0  0  0  0  0  0  0  0  0
  2  1  1  0
  2  3  1  0
  3  5  1  0
  3  4  1  6
  5  6  1  6
  5  7  1  0
  7  8  2  0
 10  9  1  6
 11  7  1  0
 11 10  1  0
 12 13  2  0
 12 10  1  0
 14 12  1  0
 15 14  1  0
 15 16  1  1
 17 25  1  0
 17 16  1  0
 18 17  2  0
 19 18  1  0
 19 20  1  0
 20 21  1  0
 20 25  2  0
 21 22  2  0
 22 23  1  0
 24 23  2  0
 25 24  1  0
 26 15  1  0
 27 26  1  0
 28 26  2  0
M  END
$$$$
