IAW.pdb
     RDKit          3D

 28 29  0  0  1  0  0  0  0  0999 V2000
    7.5092  -11.7468   19.1897 C   0  0  0  0  0  0  0  0  0  0  0  0
    7.8478  -13.1771   19.0162 C   0  0  0  0  0  0  0  0  0  0  0  0
    8.0795  -14.0029   20.2192 C   0  0  2  0  0  0  0  0  0  0  0  0
    9.1444  -13.3666   21.1162 C   0  0  0  0  0  0  0  0  0  0  0  0
    8.2628  -15.4504   20.0550 C   0  0  2  0  0  0  0  0  0  0  0  0
    7.1389  -15.9456   19.1804 N   0  0  0  0  0  0  0  0  0  0  0  0
    8.3973  -16.3217   21.2045 C   0  0  0  0  0  0  0  0  0  0  0  0
    7.4339  -16.6925   21.9438 O   0  0  0  0  0  0  0  0  0  0  0  0
   11.0414  -18.6176   22.4719 C   0  0  0  0  0  0  0  0  0  0  0  0
    9.8508  -17.7225   22.7575 C   0  0  2  0  0  0  0  0  0  0  0  0
    9.6615  -16.8674   21.6346 N   0  0  0  0  0  0  0  0  0  0  0  0
   10.1291  -17.0003   24.0179 C   0  0  0  0  0  0  0  0  0  0  0  0
   10.8651  -15.9711   23.9960 O   0  0  0  0  0  0  0  0  0  0  0  0
    9.6262  -17.3769   25.2776 N   0  0  0  0  0  0  0  0  0  0  0  0
   10.0491  -16.7771   26.5504 C   0  0  1  0  0  0  0  0  0  0  0  0
    8.7725  -16.5774   27.3177 C   0  0  0  0  0  0  0  0  0  0  0  0
    7.7636  -15.7118   26.7163 C   0  0  0  0  0  0  0  0  0  0  0  0
    6.6135  -16.1932   26.1188 C   0  0  0  0  0  0  0  0  0  0  0  0
    5.9295  -15.1427   25.6479 N   0  0  0  0  0  0  0  0  0  0  0  0
    6.5833  -14.0129   25.9145 C   0  0  0  0  0  0  0  0  0  0  0  0
    6.2463  -12.7114   25.6310 C   0  0  0  0  0  0  0  0  0  0  0  0
    7.0830  -11.7046   26.0274 C   0  0  0  0  0  0  0  0  0  0  0  0
    8.2394  -12.0218   26.6993 C   0  0  0  0  0  0  0  0  0  0  0  0
    8.5702  -13.3189   26.9784 C   0  0  0  0  0  0  0  0  0  0  0  0
    7.7361  -14.3454   26.5841 C   0  0  0  0  0  0  0  0  0  0  0  0
   11.0321  -17.5675   27.2513 C   0  0  0  0  0  0  0  0  0  0  0  0
   11.7007  -17.0561   28.3514 O   0  0  0  0  0  0  0  0  0  0  0  0
   11.3087  -18.7313   26.8888 O   0  0  0  0  0  0  0  0  0  0  0  0
  2  1  1  0
  2  3  1  0
  3  5  1  0
  3  4  1  6
  5  6  1  1
  5  7  1  0
  7  8  2  0
 10  9  1  6
 11  7  1  0
 11 10  1  0
 12 13  2  0
 12 10  1  0
 14 12  1  0
 15 14  1  0
 15 16  1  1
 17 25  1  0
 17 16  1  0
 18 17  2  0
 19 18  1  0
 19 20  1  0
 20 21  1  0
 20 25  2  0
 21 22  2  0
 22 23  1  0
 24 23  2  0
 25 24  1  0
 26 15  1  0
 27 26  1  0
 28 26  2  0
M  END
$$$$
