IAW.pdb
     RDKit          3D

 28 29  0  0  1  0  0  0  0  0999 V2000
    8.4711  -22.3368   21.2564 C   0  0  0  0  0  0  0  0  0  0  0  0
    8.0631  -21.1582   20.4594 C   0  0  0  0  0  0  0  0  0  0  0  0
    8.5569  -19.8247   20.8604 C   0  0  2  0  0  0  0  0  0  0  0  0
    8.3639  -19.6048   22.3630 C   0  0  0  0  0  0  0  0  0  0  0  0
    8.1656  -18.6586   20.0584 C   0  0  2  0  0  0  0  0  0  0  0  0
    8.4316  -19.0013   18.6144 N   0  0  0  0  0  0  0  0  0  0  0  0
    8.6967  -17.3418   20.3459 C   0  0  0  0  0  0  0  0  0  0  0  0
    9.9069  -16.9994   20.1712 O   0  0  0  0  0  0  0  0  0  0  0  0
    7.1503  -14.0401   21.2779 C   0  0  0  0  0  0  0  0  0  0  0  0
    8.3572  -14.9501   21.1526 C   0  0  2  0  0  0  0  0  0  0  0  0
    7.8912  -16.2654   20.8689 N   0  0  0  0  0  0  0  0  0  0  0  0
    9.1248  -14.8474   22.4127 C   0  0  0  0  0  0  0  0  0  0  0  0
    9.5833  -13.7241   22.7723 O   0  0  0  0  0  0  0  0  0  0  0  0
    9.3946  -15.9310   23.2697 N   0  0  0  0  0  0  0  0  0  0  0  0
   10.1559  -15.8260   24.5219 C   0  0  1  0  0  0  0  0  0  0  0  0
    9.1920  -16.2626   25.5891 C   0  0  0  0  0  0  0  0  0  0  0  0
    7.9650  -15.4867   25.7348 C   0  0  0  0  0  0  0  0  0  0  0  0
    6.7149  -15.9817   25.4130 C   0  0  0  0  0  0  0  0  0  0  0  0
    5.8225  -15.0084   25.6353 N   0  0  0  0  0  0  0  0  0  0  0  0
    6.4381  -13.9154   26.0840 C   0  0  0  0  0  0  0  0  0  0  0  0
    5.9175  -12.6978   26.4503 C   0  0  0  0  0  0  0  0  0  0  0  0
    6.7609  -11.7211   26.9035 C   0  0  0  0  0  0  0  0  0  0  0  0
    8.1079  -11.9838   26.9807 C   0  0  0  0  0  0  0  0  0  0  0  0
    8.6208  -13.1973   26.6144 C   0  0  0  0  0  0  0  0  0  0  0  0
    7.7821  -14.1922   26.1546 C   0  0  0  0  0  0  0  0  0  0  0  0
   11.3854  -16.5813   24.5036 C   0  0  0  0  0  0  0  0  0  0  0  0
   12.2471  -16.5607   25.5879 O   0  0  0  0  0  0  0  0  0  0  0  0
   11.7083  -17.2730   23.5139 O   0  0  0  0  0  0  0  0  0  0  0  0
  2  1  1  0
  2  3  1  0
  3  5  1  0
  3  4  1  1
  5  6  1  6
  5  7  1  0
  7  8  2  0
 10  9  1  1
 11  7  1  0
 11 10  1  0
 12 13  2  0
 12 10  1  0
 14 12  1  0
 15 14  1  0
 15 16  1  1
 17 25  1  0
 17 16  1  0
 18 17  2  0
 19 18  1  0
 19 20  1  0
 20 21  1  0
 20 25  2  0
 21 22  2  0
 22 23  1  0
 24 23  2  0
 25 24  1  0
 26 15  1  0
 27 26  1  0
 28 26  2  0
M  END
$$$$
