IAW.pdb
     RDKit          3D

 28 29  0  0  1  0  0  0  0  0999 V2000
    6.6047  -12.6383   19.3802 C   0  0  0  0  0  0  0  0  0  0  0  0
    6.6407  -13.9190   20.1212 C   0  0  0  0  0  0  0  0  0  0  0  0
    7.9415  -14.5935   20.3104 C   0  0  2  0  0  0  0  0  0  0  0  0
    8.6613  -14.7676   18.9705 C   0  0  0  0  0  0  0  0  0  0  0  0
    7.9945  -15.7989   21.1472 C   0  0  2  0  0  0  0  0  0  0  0  0
    7.0534  -15.5795   22.3047 N   0  0  0  0  0  0  0  0  0  0  0  0
    9.2562  -16.3092   21.6433 C   0  0  0  0  0  0  0  0  0  0  0  0
    9.9240  -17.2382   21.0925 O   0  0  0  0  0  0  0  0  0  0  0  0
   12.1530  -15.1823   23.2602 C   0  0  0  0  0  0  0  0  0  0  0  0
   11.1198  -16.2862   23.3791 C   0  0  2  0  0  0  0  0  0  0  0  0
    9.8950  -15.8055   22.8346 N   0  0  0  0  0  0  0  0  0  0  0  0
   11.0320  -16.6617   24.8070 C   0  0  0  0  0  0  0  0  0  0  0  0
   12.0894  -16.9429   25.4427 O   0  0  0  0  0  0  0  0  0  0  0  0
    9.8309  -16.7339   25.5375 N   0  0  0  0  0  0  0  0  0  0  0  0
    9.7459  -17.1107   26.9550 C   0  0  1  0  0  0  0  0  0  0  0  0
    8.2971  -16.9275   27.3097 C   0  0  0  0  0  0  0  0  0  0  0  0
    7.5858  -15.8337   26.6565 C   0  0  0  0  0  0  0  0  0  0  0  0
    6.5743  -16.0332   25.7354 C   0  0  0  0  0  0  0  0  0  0  0  0
    6.1643  -14.8299   25.3145 N   0  0  0  0  0  0  0  0  0  0  0  0
    6.8619  -13.8699   25.9203 C   0  0  0  0  0  0  0  0  0  0  0  0
    6.7683  -12.5042   25.8031 C   0  0  0  0  0  0  0  0  0  0  0  0
    7.5936  -11.7125   26.5532 C   0  0  0  0  0  0  0  0  0  0  0  0
    8.4953  -12.3045   27.4051 C   0  0  0  0  0  0  0  0  0  0  0  0
    8.5847  -13.6644   27.5175 C   0  0  0  0  0  0  0  0  0  0  0  0
    7.7588  -14.4760   26.7665 C   0  0  0  0  0  0  0  0  0  0  0  0
   10.2469  -18.4377   27.2205 C   0  0  0  0  0  0  0  0  0  0  0  0
   10.5972  -18.8203   28.5049 O   0  0  0  0  0  0  0  0  0  0  0  0
   10.3794  -19.2776   26.3043 O   0  0  0  0  0  0  0  0  0  0  0  0
  2  1  1  0
  2  3  1  0
  3  5  1  0
  3  4  1  6
  5  6  1  1
  5  7  1  0
  7  8  2  0
 10  9  1  1
 11  7  1  0
 11 10  1  0
 12 13  2  0
 12 10  1  0
 14 12  1  0
 15 14  1  0
 15 16  1  6
 17 25  1  0
 17 16  1  0
 18 17  2  0
 19 18  1  0
 19 20  1  0
 20 21  1  0
 20 25  2  0
 21 22  2  0
 22 23  1  0
 24 23  2  0
 25 24  1  0
 26 15  1  0
 27 26  1  0
 28 26  2  0
M  END
$$$$
