VSQ.pdb
     RDKit          3D

 23 22  0  0  1  0  0  0  0  0999 V2000
   35.1357  -30.0197  -20.3454 C   0  0  0  0  0  0  0  0  0  0  0  0
   34.4560  -29.8789  -19.0081 C   0  0  2  0  0  0  0  0  0  0  0  0
   35.4636  -29.5318  -17.9439 C   0  0  0  0  0  0  0  0  0  0  0  0
   33.6444  -31.0989  -18.6450 C   0  0  2  0  0  0  0  0  0  0  0  0
   33.3144  -31.7551  -19.9202 N   0  0  0  0  0  0  0  0  0  0  0  0
   32.3512  -30.7422  -18.0119 C   0  0  0  0  0  0  0  0  0  0  0  0
   32.3824  -30.2008  -16.8793 O   0  0  0  0  0  0  0  0  0  0  0  0
   28.6295  -30.5918  -20.0034 O   0  0  0  0  0  0  0  0  0  0  0  0
   29.0301  -29.7713  -18.9700 C   0  0  0  0  0  0  0  0  0  0  0  0
   29.8398  -30.5525  -17.9837 C   0  0  2  0  0  0  0  0  0  0  0  0
   31.0757  -30.9686  -18.5940 N   0  0  0  0  0  0  0  0  0  0  0  0
   29.0863  -31.6953  -17.4049 C   0  0  0  0  0  0  0  0  0  0  0  0
   29.6887  -32.7774  -17.1771 O   0  0  0  0  0  0  0  0  0  0  0  0
   26.6880  -32.7898  -12.5697 N   0  0  0  0  0  0  0  0  0  0  0  0
   26.4796  -34.0563  -13.1831 C   0  0  0  0  0  0  0  0  0  0  0  0
   25.9237  -34.9282  -12.4943 O   0  0  0  0  0  0  0  0  0  0  0  0
   26.8965  -34.3363  -14.5623 C   0  0  0  0  0  0  0  0  0  0  0  0
   27.6123  -33.2141  -15.2517 C   0  0  0  0  0  0  0  0  0  0  0  0
   26.9514  -32.7198  -16.4902 C   0  0  2  0  0  0  0  0  0  0  0  0
   27.7061  -31.6224  -17.0942 N   0  0  0  0  0  0  0  0  0  0  0  0
   25.5289  -32.3558  -16.3240 C   0  0  0  0  0  0  0  0  0  0  0  0
   25.2753  -31.1424  -16.0265 O   0  0  0  0  0  0  0  0  0  0  0  0
   24.4625  -33.1846  -16.4581 O   0  0  0  0  0  0  0  0  0  0  0  0
  2  1  1  6
  2  3  1  0
  4  5  1  6
  4  2  1  0
  4  6  1  0
  6 11  1  0
  7  6  2  0
  9  8  1  0
 10  9  1  6
 11 10  1  0
 12 20  1  0
 12 10  1  0
 13 12  2  0
 14 15  1  0
 15 16  2  0
 15 17  1  0
 17 18  1  0
 19 18  1  1
 19 20  1  0
 19 21  1  0
 21 23  1  0
 22 21  2  0
M  END
$$$$
