VSQ.pdb
     RDKit          3D

 23 22  0  0  1  0  0  0  0  0999 V2000
   14.2166   -6.3359   -9.4708 C   0  0  0  0  0  0  0  0  0  0  0  0
   13.4853   -7.6479   -9.3516 C   0  0  2  0  0  0  0  0  0  0  0  0
   12.5812   -7.6345   -8.1472 C   0  0  0  0  0  0  0  0  0  0  0  0
   14.4242   -8.8300   -9.3434 C   0  0  2  0  0  0  0  0  0  0  0  0
   14.8765   -8.9734   -7.9504 N   0  0  0  0  0  0  0  0  0  0  0  0
   15.6414   -8.5831  -10.1545 C   0  0  0  0  0  0  0  0  0  0  0  0
   16.5537   -7.8863   -9.6457 O   0  0  0  0  0  0  0  0  0  0  0  0
   18.2431   -9.3468  -14.1583 O   0  0  0  0  0  0  0  0  0  0  0  0
   17.1141   -9.6520  -13.4277 C   0  0  0  0  0  0  0  0  0  0  0  0
   16.9618   -8.6841  -12.2970 C   0  0  2  0  0  0  0  0  0  0  0  0
   15.8520   -9.0783  -11.4688 N   0  0  0  0  0  0  0  0  0  0  0  0
   16.8440   -7.2775  -12.7622 C   0  0  0  0  0  0  0  0  0  0  0  0
   15.7324   -6.6921  -12.6764 O   0  0  0  0  0  0  0  0  0  0  0  0
   16.2211   -2.5457  -10.6244 N   0  0  0  0  0  0  0  0  0  0  0  0
   16.7464   -1.9954  -11.8265 C   0  0  0  0  0  0  0  0  0  0  0  0
   16.6885   -0.7604  -11.9499 O   0  0  0  0  0  0  0  0  0  0  0  0
   17.3310   -2.8327  -12.8808 C   0  0  0  0  0  0  0  0  0  0  0  0
   17.3285   -4.3051  -12.5998 C   0  0  0  0  0  0  0  0  0  0  0  0
   17.8653   -5.1512  -13.7002 C   0  0  2  0  0  0  0  0  0  0  0  0
   17.9369   -6.5571  -13.3037 N   0  0  0  0  0  0  0  0  0  0  0  0
   19.1551   -4.6912  -14.2554 C   0  0  0  0  0  0  0  0  0  0  0  0
   19.1670   -3.5445  -14.8124 O   0  0  0  0  0  0  0  0  0  0  0  0
   20.3317   -5.3673  -14.2308 O   0  0  0  0  0  0  0  0  0  0  0  0
  2  1  1  1
  2  3  1  0
  4  5  1  1
  4  2  1  0
  4  6  1  0
  6 11  1  0
  7  6  2  0
  9  8  1  0
 10  9  1  6
 11 10  1  0
 12 20  1  0
 12 10  1  0
 13 12  2  0
 14 15  1  0
 15 16  2  0
 15 17  1  0
 17 18  1  0
 19 18  1  1
 19 20  1  0
 19 21  1  0
 21 23  1  0
 22 21  2  0
M  END
$$$$
