VSQ.pdb
     RDKit          3D

 23 22  0  0  1  0  0  0  0  0999 V2000
   18.6338  -15.4348  -18.8717 C   0  0  0  0  0  0  0  0  0  0  0  0
   19.3231  -14.2835  -18.1864 C   0  0  2  0  0  0  0  0  0  0  0  0
   18.5815  -12.9993  -18.4491 C   0  0  0  0  0  0  0  0  0  0  0  0
   20.7823  -14.1830  -18.5603 C   0  0  2  0  0  0  0  0  0  0  0  0
   21.4386  -15.3389  -17.9288 N   0  0  0  0  0  0  0  0  0  0  0  0
   21.4242  -12.9742  -17.9885 C   0  0  0  0  0  0  0  0  0  0  0  0
   21.5976  -12.9347  -16.7454 O   0  0  0  0  0  0  0  0  0  0  0  0
   22.3445   -9.3052  -20.0744 O   0  0  0  0  0  0  0  0  0  0  0  0
   23.2047   -9.9167  -19.1869 C   0  0  0  0  0  0  0  0  0  0  0  0
   22.4234  -10.6682  -18.1557 C   0  0  2  0  0  0  0  0  0  0  0  0
   21.8588  -11.8540  -18.7456 N   0  0  0  0  0  0  0  0  0  0  0  0
   21.3940   -9.8251  -17.4936 C   0  0  0  0  0  0  0  0  0  0  0  0
   20.1757  -10.0537  -17.7156 O   0  0  0  0  0  0  0  0  0  0  0  0
   18.6203  -10.4125  -12.9298 N   0  0  0  0  0  0  0  0  0  0  0  0
   18.3567   -9.0182  -13.0299 C   0  0  0  0  0  0  0  0  0  0  0  0
   17.5520   -8.5397  -12.2132 O   0  0  0  0  0  0  0  0  0  0  0  0
   18.9955   -8.1715  -14.0446 C   0  0  0  0  0  0  0  0  0  0  0  0
   19.9174   -8.8887  -14.9842 C   0  0  0  0  0  0  0  0  0  0  0  0
   20.7333   -8.0010  -15.8566 C   0  0  2  0  0  0  0  0  0  0  0  0
   21.7240   -8.7645  -16.6145 N   0  0  0  0  0  0  0  0  0  0  0  0
   21.3644   -6.8630  -15.1564 C   0  0  0  0  0  0  0  0  0  0  0  0
   22.6334   -6.7695  -15.2352 O   0  0  0  0  0  0  0  0  0  0  0  0
   20.7277   -5.9040  -14.4373 O   0  0  0  0  0  0  0  0  0  0  0  0
  2  1  1  6
  2  3  1  0
  4  5  1  1
  4  2  1  0
  4  6  1  0
  6 11  1  0
  7  6  2  0
  9  8  1  0
 10  9  1  6
 11 10  1  0
 12 20  1  0
 12 10  1  0
 13 12  2  0
 14 15  1  0
 15 16  2  0
 15 17  1  0
 17 18  1  0
 19 18  1  1
 19 20  1  0
 19 21  1  0
 21 23  1  0
 22 21  2  0
M  END
$$$$
