VSQ.pdb
     RDKit          3D

 23 22  0  0  1  0  0  0  0  0999 V2000
   25.9005  -12.7082  -16.7582 C   0  0  0  0  0  0  0  0  0  0  0  0
   27.2671  -13.2336  -16.4022 C   0  0  2  0  0  0  0  0  0  0  0  0
   28.1582  -12.1072  -15.9492 C   0  0  0  0  0  0  0  0  0  0  0  0
   27.8862  -14.0310  -17.5247 C   0  0  2  0  0  0  0  0  0  0  0  0
   28.1036  -13.0757  -18.6228 N   0  0  0  0  0  0  0  0  0  0  0  0
   26.9639  -15.0675  -18.0493 C   0  0  0  0  0  0  0  0  0  0  0  0
   26.1784  -14.7404  -18.9727 O   0  0  0  0  0  0  0  0  0  0  0  0
   26.8274  -19.0524  -16.6651 O   0  0  0  0  0  0  0  0  0  0  0  0
   26.5627  -18.7490  -17.9840 C   0  0  0  0  0  0  0  0  0  0  0  0
   25.9666  -17.3802  -18.0822 C   0  0  2  0  0  0  0  0  0  0  0  0
   26.9032  -16.4075  -17.5826 N   0  0  0  0  0  0  0  0  0  0  0  0
   24.6445  -17.2842  -17.4100 C   0  0  0  0  0  0  0  0  0  0  0  0
   24.5641  -16.7164  -16.2889 O   0  0  0  0  0  0  0  0  0  0  0  0
   20.1435  -13.9384  -18.4456 N   0  0  0  0  0  0  0  0  0  0  0  0
   19.5117  -14.8653  -17.5707 C   0  0  0  0  0  0  0  0  0  0  0  0
   18.3687  -14.5764  -17.1785 O   0  0  0  0  0  0  0  0  0  0  0  0
   20.1655  -16.1073  -17.1414 C   0  0  0  0  0  0  0  0  0  0  0  0
   21.5298  -16.3409  -17.7168 C   0  0  0  0  0  0  0  0  0  0  0  0
   22.1339  -17.6575  -17.3754 C   0  0  2  0  0  0  0  0  0  0  0  0
   23.4576  -17.8079  -17.9788 N   0  0  0  0  0  0  0  0  0  0  0  0
   21.2780  -18.8233  -17.6790 C   0  0  0  0  0  0  0  0  0  0  0  0
   21.5758  -19.5027  -18.7158 O   0  0  0  0  0  0  0  0  0  0  0  0
   20.2053  -19.2456  -16.9628 O   0  0  0  0  0  0  0  0  0  0  0  0
  2  1  1  6
  2  3  1  0
  4  5  1  6
  4  2  1  0
  4  6  1  0
  6 11  1  0
  7  6  2  0
  9  8  1  0
 10  9  1  1
 11 10  1  0
 12 20  1  0
 12 10  1  0
 13 12  2  0
 14 15  1  0
 15 16  2  0
 15 17  1  0
 17 18  1  0
 19 18  1  6
 19 20  1  0
 19 21  1  0
 21 23  1  0
 22 21  2  0
M  END
$$$$
