VSQ.pdb
     RDKit          3D

 23 22  0  0  1  0  0  0  0  0999 V2000
   19.4845  -13.7230  -15.7517 C   0  0  0  0  0  0  0  0  0  0  0  0
   18.3714  -12.9331  -16.3899 C   0  0  2  0  0  0  0  0  0  0  0  0
   17.6395  -13.7812  -17.3964 C   0  0  0  0  0  0  0  0  0  0  0  0
   18.8580  -11.6351  -16.9879 C   0  0  2  0  0  0  0  0  0  0  0  0
   19.6878  -12.0121  -18.1434 N   0  0  0  0  0  0  0  0  0  0  0  0
   19.7453  -10.8904  -16.0615 C   0  0  0  0  0  0  0  0  0  0  0  0
   19.2294  -10.3865  -15.0336 O   0  0  0  0  0  0  0  0  0  0  0  0
   23.8205  -10.1962  -16.7928 O   0  0  0  0  0  0  0  0  0  0  0  0
   23.3889  -10.3489  -15.4920 C   0  0  0  0  0  0  0  0  0  0  0  0
   21.9625   -9.9131  -15.3739 C   0  0  2  0  0  0  0  0  0  0  0  0
   21.1404  -10.7045  -16.2517 N   0  0  0  0  0  0  0  0  0  0  0  0
   21.7905   -8.4551  -15.6056 C   0  0  0  0  0  0  0  0  0  0  0  0
   21.4255   -8.0514  -16.7412 O   0  0  0  0  0  0  0  0  0  0  0  0
   17.7769   -5.0731  -16.1082 N   0  0  0  0  0  0  0  0  0  0  0  0
   18.6805   -4.0408  -15.7320 C   0  0  0  0  0  0  0  0  0  0  0  0
   18.2510   -2.8758  -15.7768 O   0  0  0  0  0  0  0  0  0  0  0  0
   20.0580   -4.3216  -15.3099 C   0  0  0  0  0  0  0  0  0  0  0  0
   20.4337   -5.7726  -15.2859 C   0  0  0  0  0  0  0  0  0  0  0  0
   21.8061   -6.0535  -14.7835 C   0  0  2  0  0  0  0  0  0  0  0  0
   22.0210   -7.4880  -14.5966 N   0  0  0  0  0  0  0  0  0  0  0  0
   22.1824   -5.2991  -13.5698 C   0  0  0  0  0  0  0  0  0  0  0  0
   22.2664   -5.9602  -12.4830 O   0  0  0  0  0  0  0  0  0  0  0  0
   22.4498   -3.9706  -13.4955 O   0  0  0  0  0  0  0  0  0  0  0  0
  2  1  1  6
  2  3  1  0
  4  5  1  6
  4  2  1  0
  4  6  1  0
  6 11  1  0
  7  6  2  0
  9  8  1  0
 10  9  1  6
 11 10  1  0
 12 20  1  0
 12 10  1  0
 13 12  2  0
 14 15  1  0
 15 16  2  0
 15 17  1  0
 17 18  1  0
 19 18  1  1
 19 20  1  0
 19 21  1  0
 21 23  1  0
 22 21  2  0
M  END
$$$$
