VSQ.pdb
     RDKit          3D

 23 22  0  0  1  0  0  0  0  0999 V2000
   15.0440   -8.7974   -8.0342 C   0  0  0  0  0  0  0  0  0  0  0  0
   14.6014   -7.3842   -8.3124 C   0  0  2  0  0  0  0  0  0  0  0  0
   13.2686   -7.1170   -7.6642 C   0  0  0  0  0  0  0  0  0  0  0  0
   14.5890   -7.0663   -9.7881 C   0  0  2  0  0  0  0  0  0  0  0  0
   13.5459   -7.9231  -10.3742 N   0  0  0  0  0  0  0  0  0  0  0  0
   15.8608   -7.4428  -10.4521 C   0  0  0  0  0  0  0  0  0  0  0  0
   16.9003   -6.8190  -10.1248 O   0  0  0  0  0  0  0  0  0  0  0  0
   18.7135  -10.3465  -12.8703 O   0  0  0  0  0  0  0  0  0  0  0  0
   17.5369  -10.1361  -12.1827 C   0  0  0  0  0  0  0  0  0  0  0  0
   17.1925   -8.6801  -12.1956 C   0  0  2  0  0  0  0  0  0  0  0  0
   15.9904   -8.4605  -11.4343 N   0  0  0  0  0  0  0  0  0  0  0  0
   17.0941   -8.1295  -13.5726 C   0  0  0  0  0  0  0  0  0  0  0  0
   16.1947   -8.5570  -14.3434 O   0  0  0  0  0  0  0  0  0  0  0  0
   14.1363   -4.3958  -16.1083 N   0  0  0  0  0  0  0  0  0  0  0  0
   14.8241   -4.2265  -14.8746 C   0  0  0  0  0  0  0  0  0  0  0  0
   14.3338   -3.4214  -14.0652 O   0  0  0  0  0  0  0  0  0  0  0  0
   16.0559   -4.9593  -14.5581 C   0  0  0  0  0  0  0  0  0  0  0  0
   16.4875   -5.9561  -15.5910 C   0  0  0  0  0  0  0  0  0  0  0  0
   17.8494   -6.5194  -15.3839 C   0  0  2  0  0  0  0  0  0  0  0  0
   17.9753   -7.1349  -14.0632 N   0  0  0  0  0  0  0  0  0  0  0  0
   18.9521   -5.5674  -15.6317 C   0  0  0  0  0  0  0  0  0  0  0  0
   19.0078   -5.0386  -16.7904 O   0  0  0  0  0  0  0  0  0  0  0  0
   19.9129   -5.1970  -14.7476 O   0  0  0  0  0  0  0  0  0  0  0  0
  2  1  1  6
  2  3  1  0
  4  5  1  6
  4  2  1  0
  4  6  1  0
  6 11  1  0
  7  6  2  0
  9  8  1  0
 10  9  1  6
 11 10  1  0
 12 20  1  0
 12 10  1  0
 13 12  2  0
 14 15  1  0
 15 16  2  0
 15 17  1  0
 17 18  1  0
 19 18  1  1
 19 20  1  0
 19 21  1  0
 21 23  1  0
 22 21  2  0
M  END
$$$$
