VSQ.pdb
     RDKit          3D

 23 22  0  0  1  0  0  0  0  0999 V2000
   10.7666   -9.0873  -10.6253 C   0  0  0  0  0  0  0  0  0  0  0  0
   11.3501  -10.1977   -9.7906 C   0  0  2  0  0  0  0  0  0  0  0  0
   12.1261   -9.6283   -8.6324 C   0  0  0  0  0  0  0  0  0  0  0  0
   12.1770  -11.1587  -10.6103 C   0  0  2  0  0  0  0  0  0  0  0  0
   12.1719  -12.4281   -9.8659 N   0  0  0  0  0  0  0  0  0  0  0  0
   13.5955  -10.7357  -10.7052 C   0  0  0  0  0  0  0  0  0  0  0  0
   14.3151  -10.8635   -9.6840 O   0  0  0  0  0  0  0  0  0  0  0  0
   15.4154   -9.4069  -14.2426 O   0  0  0  0  0  0  0  0  0  0  0  0
   16.1485  -10.0484  -13.2665 C   0  0  0  0  0  0  0  0  0  0  0  0
   15.5714   -9.7517  -11.9183 C   0  0  2  0  0  0  0  0  0  0  0  0
   14.2024  -10.1950  -11.8698 N   0  0  0  0  0  0  0  0  0  0  0  0
   15.7128   -8.3215  -11.5395 C   0  0  0  0  0  0  0  0  0  0  0  0
   14.7289   -7.5480  -11.6785 O   0  0  0  0  0  0  0  0  0  0  0  0
   15.2865   -4.3172   -8.3952 N   0  0  0  0  0  0  0  0  0  0  0  0
   16.6167   -3.8340   -8.5397 C   0  0  0  0  0  0  0  0  0  0  0  0
   16.8060   -2.6311   -8.2934 O   0  0  0  0  0  0  0  0  0  0  0  0
   17.7234   -4.7017   -8.9600 C   0  0  0  0  0  0  0  0  0  0  0  0
   17.3352   -6.1083   -9.3034 C   0  0  0  0  0  0  0  0  0  0  0  0
   17.1189   -6.3594  -10.7542 C   0  0  2  0  0  0  0  0  0  0  0  0
   16.9169   -7.7826  -11.0235 N   0  0  0  0  0  0  0  0  0  0  0  0
   18.1613   -5.7961  -11.6372 C   0  0  0  0  0  0  0  0  0  0  0  0
   19.0922   -6.5851  -12.0064 O   0  0  0  0  0  0  0  0  0  0  0  0
   18.2270   -4.5209  -12.0974 O   0  0  0  0  0  0  0  0  0  0  0  0
  2  1  1  6
  2  3  1  0
  4  5  1  1
  4  2  1  0
  4  6  1  0
  6 11  1  0
  7  6  2  0
  9  8  1  0
 10  9  1  6
 11 10  1  0
 12 20  1  0
 12 10  1  0
 13 12  2  0
 14 15  1  0
 15 16  2  0
 15 17  1  0
 17 18  1  0
 19 18  1  1
 19 20  1  0
 19 21  1  0
 21 23  1  0
 22 21  2  0
M  END
$$$$
