VSQ.pdb
     RDKit          3D

 23 22  0  0  1  0  0  0  0  0999 V2000
   28.7169  -19.6506  -16.3198 C   0  0  0  0  0  0  0  0  0  0  0  0
   27.8494  -20.6013  -15.5364 C   0  0  2  0  0  0  0  0  0  0  0  0
   28.3850  -22.0049  -15.6418 C   0  0  0  0  0  0  0  0  0  0  0  0
   26.3965  -20.5165  -15.9377 C   0  0  2  0  0  0  0  0  0  0  0  0
   26.0631  -19.0831  -15.9362 N   0  0  0  0  0  0  0  0  0  0  0  0
   25.5027  -21.1543  -14.9405 C   0  0  0  0  0  0  0  0  0  0  0  0
   25.5011  -22.4081  -14.8716 O   0  0  0  0  0  0  0  0  0  0  0  0
   22.7692  -20.8681  -10.9982 O   0  0  0  0  0  0  0  0  0  0  0  0
   23.6363  -20.2652  -11.8849 C   0  0  0  0  0  0  0  0  0  0  0  0
   23.7615  -21.0981  -13.1214 C   0  0  2  0  0  0  0  0  0  0  0  0
   24.6454  -20.4493  -14.0545 N   0  0  0  0  0  0  0  0  0  0  0  0
   22.4434  -21.4210  -13.7275 C   0  0  0  0  0  0  0  0  0  0  0  0
   21.7828  -20.5064  -14.2869 O   0  0  0  0  0  0  0  0  0  0  0  0
   23.0925  -25.7267  -14.1070 N   0  0  0  0  0  0  0  0  0  0  0  0
   22.7832  -25.4529  -15.4684 C   0  0  0  0  0  0  0  0  0  0  0  0
   23.6386  -25.7691  -16.3121 O   0  0  0  0  0  0  0  0  0  0  0  0
   21.5192  -24.8263  -15.8733 C   0  0  0  0  0  0  0  0  0  0  0  0
   20.5833  -24.4959  -14.7499 C   0  0  0  0  0  0  0  0  0  0  0  0
   20.6076  -23.0726  -14.3157 C   0  0  2  0  0  0  0  0  0  0  0  0
   21.8899  -22.7247  -13.7044 N   0  0  0  0  0  0  0  0  0  0  0  0
   19.4812  -22.6766  -13.4450 C   0  0  0  0  0  0  0  0  0  0  0  0
   19.7658  -22.3539  -12.2450 O   0  0  0  0  0  0  0  0  0  0  0  0
   18.1712  -22.6202  -13.7954 O   0  0  0  0  0  0  0  0  0  0  0  0
  2  1  1  6
  2  3  1  0
  4  5  1  1
  4  2  1  0
  4  6  1  0
  6 11  1  0
  7  6  2  0
  9  8  1  0
 10  9  1  1
 11 10  1  0
 12 20  1  0
 12 10  1  0
 13 12  2  0
 14 15  1  0
 15 16  2  0
 15 17  1  0
 17 18  1  0
 19 18  1  1
 19 20  1  0
 19 21  1  0
 21 23  1  0
 22 21  2  0
M  END
$$$$
