VSQ.pdb
     RDKit          3D

 23 22  0  0  1  0  0  0  0  0999 V2000
   18.8422  -12.9382  -15.3505 C   0  0  0  0  0  0  0  0  0  0  0  0
   17.7483  -12.0544  -15.8913 C   0  0  2  0  0  0  0  0  0  0  0  0
   16.8762  -12.8269  -16.8455 C   0  0  0  0  0  0  0  0  0  0  0  0
   18.2874  -10.7886  -16.5129 C   0  0  2  0  0  0  0  0  0  0  0  0
   18.9882  -11.2096  -17.7366 N   0  0  0  0  0  0  0  0  0  0  0  0
   19.3036  -10.1327  -15.6542 C   0  0  0  0  0  0  0  0  0  0  0  0
   18.9090   -9.5728  -14.6018 O   0  0  0  0  0  0  0  0  0  0  0  0
   23.2836   -9.7280  -16.7887 O   0  0  0  0  0  0  0  0  0  0  0  0
   23.0289   -9.8354  -15.4377 C   0  0  0  0  0  0  0  0  0  0  0  0
   21.6435   -9.3548  -15.1406 C   0  0  2  0  0  0  0  0  0  0  0  0
   20.6951  -10.0910  -15.9353 N   0  0  0  0  0  0  0  0  0  0  0  0
   21.5003   -7.8855  -15.3126 C   0  0  0  0  0  0  0  0  0  0  0  0
   21.0808   -7.4325  -16.4101 O   0  0  0  0  0  0  0  0  0  0  0  0
   18.2309   -1.9704  -15.4851 N   0  0  0  0  0  0  0  0  0  0  0  0
   18.6188   -3.3145  -15.2270 C   0  0  0  0  0  0  0  0  0  0  0  0
   17.7277   -4.1778  -15.2936 O   0  0  0  0  0  0  0  0  0  0  0  0
   20.0010   -3.6805  -14.8953 C   0  0  0  0  0  0  0  0  0  0  0  0
   20.2540   -5.1512  -14.7530 C   0  0  0  0  0  0  0  0  0  0  0  0
   21.6591   -5.5134  -14.4227 C   0  0  2  0  0  0  0  0  0  0  0  0
   21.8175   -6.9610  -14.2873 N   0  0  0  0  0  0  0  0  0  0  0  0
   22.2160   -4.8078  -13.2498 C   0  0  0  0  0  0  0  0  0  0  0  0
   22.3993   -5.4992  -12.1945 O   0  0  0  0  0  0  0  0  0  0  0  0
   22.5544   -3.4951  -13.1831 O   0  0  0  0  0  0  0  0  0  0  0  0
  2  1  1  6
  2  3  1  0
  4  5  1  6
  4  2  1  0
  4  6  1  0
  6 11  1  0
  7  6  2  0
  9  8  1  0
 10  9  1  6
 11 10  1  0
 12 20  1  0
 12 10  1  0
 13 12  2  0
 14 15  1  0
 15 16  2  0
 15 17  1  0
 17 18  1  0
 19 18  1  1
 19 20  1  0
 19 21  1  0
 21 23  1  0
 22 21  2  0
M  END
$$$$
