VSQ.pdb
     RDKit          3D

 23 22  0  0  1  0  0  0  0  0999 V2000
   22.8920  -26.2017  -15.3723 C   0  0  0  0  0  0  0  0  0  0  0  0
   22.0028  -27.4147  -15.4632 C   0  0  2  0  0  0  0  0  0  0  0  0
   22.1973  -28.1071  -16.7863 C   0  0  0  0  0  0  0  0  0  0  0  0
   20.5529  -27.0847  -15.2028 C   0  0  2  0  0  0  0  0  0  0  0  0
   20.1093  -26.2877  -16.3577 N   0  0  0  0  0  0  0  0  0  0  0  0
   20.3814  -26.2214  -14.0089 C   0  0  0  0  0  0  0  0  0  0  0  0
   20.8001  -26.6544  -12.9071 O   0  0  0  0  0  0  0  0  0  0  0  0
   18.9682  -22.3692  -14.2690 O   0  0  0  0  0  0  0  0  0  0  0  0
   19.7733  -22.6830  -13.1943 C   0  0  0  0  0  0  0  0  0  0  0  0
   19.6105  -24.1275  -12.8402 C   0  0  2  0  0  0  0  0  0  0  0  0
   19.7765  -24.9364  -14.0197 N   0  0  0  0  0  0  0  0  0  0  0  0
   18.3258  -24.4034  -12.1458 C   0  0  0  0  0  0  0  0  0  0  0  0
   17.3395  -24.8096  -12.8151 O   0  0  0  0  0  0  0  0  0  0  0  0
   18.8961  -24.2663   -6.3594 N   0  0  0  0  0  0  0  0  0  0  0  0
   18.8432  -25.5266   -7.0171 C   0  0  0  0  0  0  0  0  0  0  0  0
   19.5690  -26.4269   -6.5630 O   0  0  0  0  0  0  0  0  0  0  0  0
   17.9787  -25.7677   -8.1786 C   0  0  0  0  0  0  0  0  0  0  0  0
   17.1152  -24.6105   -8.5814 C   0  0  0  0  0  0  0  0  0  0  0  0
   16.8990  -24.4738  -10.0474 C   0  0  2  0  0  0  0  0  0  0  0  0
   18.1579  -24.2284  -10.7502 N   0  0  0  0  0  0  0  0  0  0  0  0
   15.8773  -23.4761  -10.4273 C   0  0  0  0  0  0  0  0  0  0  0  0
   16.2849  -22.4432  -11.0537 O   0  0  0  0  0  0  0  0  0  0  0  0
   14.5452  -23.5495  -10.1776 O   0  0  0  0  0  0  0  0  0  0  0  0
  2  1  1  6
  2  3  1  0
  4  5  1  6
  4  2  1  0
  4  6  1  0
  6 11  1  0
  7  6  2  0
  9  8  1  0
 10  9  1  6
 11 10  1  0
 12 20  1  0
 12 10  1  0
 13 12  2  0
 14 15  1  0
 15 16  2  0
 15 17  1  0
 17 18  1  0
 19 18  1  1
 19 20  1  0
 19 21  1  0
 21 23  1  0
 22 21  2  0
M  END
$$$$
