VSQ.pdb
     RDKit          3D

 23 22  0  0  1  0  0  0  0  0999 V2000
   19.1082  -27.1232  -14.8387 C   0  0  0  0  0  0  0  0  0  0  0  0
   19.7311  -25.7578  -14.7043 C   0  0  2  0  0  0  0  0  0  0  0  0
   20.7329  -25.5299  -15.8055 C   0  0  0  0  0  0  0  0  0  0  0  0
   20.3294  -25.5316  -13.3369 C   0  0  2  0  0  0  0  0  0  0  0  0
   21.6291  -26.2218  -13.3485 N   0  0  0  0  0  0  0  0  0  0  0  0
   19.5279  -26.1684  -12.2634 C   0  0  0  0  0  0  0  0  0  0  0  0
   18.3563  -25.7544  -12.0823 O   0  0  0  0  0  0  0  0  0  0  0  0
   21.2127  -28.7960   -9.5777 O   0  0  0  0  0  0  0  0  0  0  0  0
   19.8646  -28.9812   -9.8015 C   0  0  0  0  0  0  0  0  0  0  0  0
   19.2494  -27.7075  -10.2892 C   0  0  2  0  0  0  0  0  0  0  0  0
   19.9891  -27.2156  -11.4222 N   0  0  0  0  0  0  0  0  0  0  0  0
   19.1222  -26.6878   -9.2154 C   0  0  0  0  0  0  0  0  0  0  0  0
   19.9981  -25.7888   -9.1137 O   0  0  0  0  0  0  0  0  0  0  0  0
   14.2852  -23.2923   -7.5347 N   0  0  0  0  0  0  0  0  0  0  0  0
   15.2070  -23.0713   -6.4739 C   0  0  0  0  0  0  0  0  0  0  0  0
   14.9550  -22.1340   -5.6982 O   0  0  0  0  0  0  0  0  0  0  0  0
   16.4039  -23.9011   -6.2912 C   0  0  0  0  0  0  0  0  0  0  0  0
   16.6386  -24.9249   -7.3607 C   0  0  0  0  0  0  0  0  0  0  0  0
   17.9057  -25.6930   -7.2219 C   0  0  2  0  0  0  0  0  0  0  0  0
   18.0490  -26.6807   -8.2909 N   0  0  0  0  0  0  0  0  0  0  0  0
   18.1050  -26.3149   -5.8963 C   0  0  0  0  0  0  0  0  0  0  0  0
   17.7565  -27.5350   -5.7735 O   0  0  0  0  0  0  0  0  0  0  0  0
   18.6244  -25.7171   -4.7940 O   0  0  0  0  0  0  0  0  0  0  0  0
  2  1  1  1
  2  3  1  0
  4  5  1  6
  4  2  1  0
  4  6  1  0
  6 11  1  0
  7  6  2  0
  9  8  1  0
 10  9  1  1
 11 10  1  0
 12 20  1  0
 12 10  1  0
 13 12  2  0
 14 15  1  0
 15 16  2  0
 15 17  1  0
 17 18  1  0
 19 18  1  1
 19 20  1  0
 19 21  1  0
 21 23  1  0
 22 21  2  0
M  END
$$$$
