VSQ.pdb
     RDKit          3D

 23 22  0  0  1  0  0  0  0  0999 V2000
   19.4959  -14.1798  -17.1667 C   0  0  0  0  0  0  0  0  0  0  0  0
   20.5675  -15.1307  -17.6334 C   0  0  2  0  0  0  0  0  0  0  0  0
   19.9464  -16.3751  -18.2109 C   0  0  0  0  0  0  0  0  0  0  0  0
   21.5675  -15.4467  -16.5475 C   0  0  2  0  0  0  0  0  0  0  0  0
   20.9141  -16.4367  -15.6764 N   0  0  0  0  0  0  0  0  0  0  0  0
   21.8589  -14.2681  -15.6953 C   0  0  0  0  0  0  0  0  0  0  0  0
   20.9725  -13.8947  -14.8880 O   0  0  0  0  0  0  0  0  0  0  0  0
   25.1774  -11.7653  -16.2485 O   0  0  0  0  0  0  0  0  0  0  0  0
   24.7412  -11.9847  -14.9589 C   0  0  0  0  0  0  0  0  0  0  0  0
   23.2840  -12.3242  -14.9646 C   0  0  2  0  0  0  0  0  0  0  0  0
   23.0707  -13.5281  -15.7249 N   0  0  0  0  0  0  0  0  0  0  0  0
   22.4383  -11.1998  -15.4435 C   0  0  0  0  0  0  0  0  0  0  0  0
   21.7662  -11.3415  -16.4989 O   0  0  0  0  0  0  0  0  0  0  0  0
   17.3138   -9.9918  -15.6443 N   0  0  0  0  0  0  0  0  0  0  0  0
   17.6902   -8.6200  -15.6382 C   0  0  0  0  0  0  0  0  0  0  0  0
   16.7742   -7.7869  -15.7409 O   0  0  0  0  0  0  0  0  0  0  0  0
   19.0892   -8.1925  -15.5182 C   0  0  0  0  0  0  0  0  0  0  0  0
   20.0823   -9.3026  -15.3496 C   0  0  0  0  0  0  0  0  0  0  0  0
   21.4931   -8.8581  -15.1850 C   0  0  2  0  0  0  0  0  0  0  0  0
   22.3526   -9.9622  -14.7596 N   0  0  0  0  0  0  0  0  0  0  0  0
   21.6682   -7.6822  -14.3074 C   0  0  0  0  0  0  0  0  0  0  0  0
   21.1320   -6.5912  -14.6914 O   0  0  0  0  0  0  0  0  0  0  0  0
   22.3425   -7.6468  -13.1300 O   0  0  0  0  0  0  0  0  0  0  0  0
  2  1  1  1
  2  3  1  0
  4  5  1  1
  4  2  1  0
  4  6  1  0
  6 11  1  0
  7  6  2  0
  9  8  1  0
 10  9  1  6
 11 10  1  0
 12 20  1  0
 12 10  1  0
 13 12  2  0
 14 15  1  0
 15 16  2  0
 15 17  1  0
 17 18  1  0
 19 18  1  1
 19 20  1  0
 19 21  1  0
 21 23  1  0
 22 21  2  0
M  END
$$$$
