LQV.pdb
     RDKit          3D

 25 24  0  0  1  0  0  0  0  0999 V2000
   23.8001  -14.0616  -15.3415 C   0  0  0  0  0  0  0  0  0  0  0  0
   22.3437  -13.7577  -15.5189 C   0  0  2  0  0  0  0  0  0  0  0  0
   21.6620  -14.0417  -14.1825 C   0  0  0  0  0  0  0  0  0  0  0  0
   21.6757  -14.6060  -16.5500 C   0  0  0  0  0  0  0  0  0  0  0  0
   20.2193  -14.2466  -16.7211 C   0  0  2  0  0  0  0  0  0  0  0  0
   19.6404  -15.1364  -17.6804 N   0  0  0  0  0  0  0  0  0  0  0  0
   20.0427  -12.8482  -17.1717 C   0  0  0  0  0  0  0  0  0  0  0  0
   20.5410  -12.4609  -18.2783 O   0  0  0  0  0  0  0  0  0  0  0  0
   14.7909   -9.1680  -16.9078 N   0  0  0  0  0  0  0  0  0  0  0  0
   15.9814   -8.4680  -16.5203 C   0  0  0  0  0  0  0  0  0  0  0  0
   15.8415   -7.5641  -15.6667 O   0  0  0  0  0  0  0  0  0  0  0  0
   17.3029   -8.8077  -17.1082 C   0  0  0  0  0  0  0  0  0  0  0  0
   17.5988  -10.2505  -16.7636 C   0  0  0  0  0  0  0  0  0  0  0  0
   19.0850  -10.5371  -16.8061 C   0  0  2  0  0  0  0  0  0  0  0  0
   19.3231  -11.9027  -16.3998 N   0  0  0  0  0  0  0  0  0  0  0  0
   19.8404   -9.6508  -15.8913 C   0  0  0  0  0  0  0  0  0  0  0  0
   19.8319   -9.8644  -14.6394 O   0  0  0  0  0  0  0  0  0  0  0  0
   23.3328   -9.1444  -15.4176 C   0  0  0  0  0  0  0  0  0  0  0  0
   22.7782   -7.7899  -15.7033 C   0  0  1  0  0  0  0  0  0  0  0  0
   22.9104   -7.4158  -17.1792 C   0  0  0  0  0  0  0  0  0  0  0  0
   21.2924   -7.6803  -15.3821 C   0  0  2  0  0  0  0  0  0  0  0  0
   20.6007   -8.5416  -16.3174 N   0  0  0  0  0  0  0  0  0  0  0  0
   20.8176   -6.2844  -15.4482 C   0  0  0  0  0  0  0  0  0  0  0  0
   21.1979   -5.4637  -14.5756 O   0  0  0  0  0  0  0  0  0  0  0  0
   19.9609   -5.8166  -16.4343 O   0  0  0  0  0  0  0  0  0  0  0  0
  2  1  1  1
  2  3  1  0
  4  2  1  0
  4  5  1  0
  5  7  1  0
  5  6  1  6
  7  8  2  0
  9 10  1  0
 10 12  1  0
 11 10  2  0
 12 13  1  0
 14 13  1  1
 15 14  1  0
 15  7  1  0
 16 17  2  0
 16 14  1  0
 19 18  1  6
 19 21  1  0
 20 19  1  0
 21 23  1  0
 21 22  1  6
 22 16  1  0
 23 25  1  0
 24 23  2  0
M  END
$$$$
