LQV.pdb
     RDKit          3D

 25 24  0  0  1  0  0  0  0  0999 V2000
   28.5374  -18.1001  -15.8383 C   0  0  0  0  0  0  0  0  0  0  0  0
   27.8792  -18.8743  -16.9393 C   0  0  2  0  0  0  0  0  0  0  0  0
   27.5970  -17.8894  -18.0713 C   0  0  0  0  0  0  0  0  0  0  0  0
   26.5758  -19.4866  -16.5450 C   0  0  0  0  0  0  0  0  0  0  0  0
   26.7294  -20.4516  -15.3940 C   0  0  2  0  0  0  0  0  0  0  0  0
   27.5042  -21.5697  -15.8376 N   0  0  0  0  0  0  0  0  0  0  0  0
   25.4215  -20.9239  -14.8882 C   0  0  0  0  0  0  0  0  0  0  0  0
   24.7810  -21.8325  -15.5101 O   0  0  0  0  0  0  0  0  0  0  0  0
   23.6076  -20.2640   -8.9740 N   0  0  0  0  0  0  0  0  0  0  0  0
   22.5061  -20.9993   -9.5247 C   0  0  0  0  0  0  0  0  0  0  0  0
   21.6552  -21.4193   -8.7094 O   0  0  0  0  0  0  0  0  0  0  0  0
   22.3935  -21.2422  -10.9861 C   0  0  0  0  0  0  0  0  0  0  0  0
   23.6160  -20.6421  -11.6444 C   0  0  0  0  0  0  0  0  0  0  0  0
   23.5919  -20.8417  -13.1452 C   0  0  2  0  0  0  0  0  0  0  0  0
   24.8422  -20.3900  -13.7104 N   0  0  0  0  0  0  0  0  0  0  0  0
   22.4989  -20.0724  -13.7828 C   0  0  0  0  0  0  0  0  0  0  0  0
   22.4646  -18.8066  -13.6859 O   0  0  0  0  0  0  0  0  0  0  0  0
   21.6392  -19.7059  -17.2288 C   0  0  0  0  0  0  0  0  0  0  0  0
   20.3647  -20.1195  -16.5743 C   0  0  1  0  0  0  0  0  0  0  0  0
   20.0901  -21.6131  -16.7463 C   0  0  0  0  0  0  0  0  0  0  0  0
   20.3654  -19.8714  -15.0705 C   0  0  2  0  0  0  0  0  0  0  0  0
   21.4486  -20.6581  -14.5204 N   0  0  0  0  0  0  0  0  0  0  0  0
   19.0640  -20.2031  -14.4584 C   0  0  0  0  0  0  0  0  0  0  0  0
   18.0632  -19.4881  -14.7165 O   0  0  0  0  0  0  0  0  0  0  0  0
   18.8772  -21.2767  -13.5995 O   0  0  0  0  0  0  0  0  0  0  0  0
  2  1  1  1
  2  3  1  0
  4  2  1  0
  4  5  1  0
  5  7  1  0
  5  6  1  6
  7  8  2  0
  9 10  1  0
 10 12  1  0
 11 10  2  0
 12 13  1  0
 14 13  1  1
 15 14  1  0
 15  7  1  0
 16 17  2  0
 16 14  1  0
 19 18  1  1
 19 21  1  0
 20 19  1  0
 21 23  1  0
 21 22  1  1
 22 16  1  0
 23 25  1  0
 24 23  2  0
M  END
$$$$
