LQV.pdb
     RDKit          3D

 25 24  0  0  1  0  0  0  0  0999 V2000
   27.5870  -33.0084  -16.6818 C   0  0  0  0  0  0  0  0  0  0  0  0
   27.3199  -32.0101  -15.5970 C   0  0  2  0  0  0  0  0  0  0  0  0
   28.5128  -32.0549  -14.6449 C   0  0  0  0  0  0  0  0  0  0  0  0
   26.0970  -32.3095  -14.7947 C   0  0  0  0  0  0  0  0  0  0  0  0
   25.7251  -33.7717  -14.8548 C   0  0  2  0  0  0  0  0  0  0  0  0
   24.7239  -33.9458  -15.8619 N   0  0  0  0  0  0  0  0  0  0  0  0
   25.2152  -34.2678  -13.5574 C   0  0  0  0  0  0  0  0  0  0  0  0
   23.9968  -34.0861  -13.2328 O   0  0  0  0  0  0  0  0  0  0  0  0
   26.7338  -39.5652  -11.3437 N   0  0  0  0  0  0  0  0  0  0  0  0
   25.6464  -39.2053  -12.2071 C   0  0  0  0  0  0  0  0  0  0  0  0
   25.1483  -40.1292  -12.8879 O   0  0  0  0  0  0  0  0  0  0  0  0
   25.1481  -37.8075  -12.2797 C   0  0  0  0  0  0  0  0  0  0  0  0
   25.9769  -36.9770  -11.3250 C   0  0  0  0  0  0  0  0  0  0  0  0
   25.5967  -35.5128  -11.3902 C   0  0  2  0  0  0  0  0  0  0  0  0
   26.0517  -34.9532  -12.6418 N   0  0  0  0  0  0  0  0  0  0  0  0
   26.2158  -34.7364  -10.2916 C   0  0  0  0  0  0  0  0  0  0  0  0
   27.4703  -34.5399  -10.2733 O   0  0  0  0  0  0  0  0  0  0  0  0
   25.1388  -31.3810   -9.1635 C   0  0  0  0  0  0  0  0  0  0  0  0
   25.3280  -32.1818   -7.9198 C   0  0  1  0  0  0  0  0  0  0  0  0
   23.9975  -32.6512   -7.3322 C   0  0  0  0  0  0  0  0  0  0  0  0
   26.1455  -33.4472   -8.1507 C   0  0  2  0  0  0  0  0  0  0  0  0
   25.4928  -34.1740   -9.2187 N   0  0  0  0  0  0  0  0  0  0  0  0
   26.2719  -34.2518   -6.9200 C   0  0  0  0  0  0  0  0  0  0  0  0
   25.4976  -35.2251   -6.7395 O   0  0  0  0  0  0  0  0  0  0  0  0
   27.2119  -33.9923   -5.9329 O   0  0  0  0  0  0  0  0  0  0  0  0
  2  1  1  6
  2  3  1  0
  4  2  1  0
  4  5  1  0
  5  7  1  0
  5  6  1  6
  7  8  2  0
  9 10  1  0
 10 12  1  0
 11 10  2  0
 12 13  1  0
 14 13  1  1
 15 14  1  0
 15  7  1  0
 16 17  2  0
 16 14  1  0
 19 18  1  6
 19 21  1  0
 20 19  1  0
 21 23  1  0
 21 22  1  6
 22 16  1  0
 23 25  1  0
 24 23  2  0
M  END
$$$$
