LQV.pdb
     RDKit          3D

 25 24  0  0  1  0  0  0  0  0999 V2000
   28.9902  -18.4720  -16.6326 C   0  0  0  0  0  0  0  0  0  0  0  0
   27.8096  -17.5696  -16.8238 C   0  0  2  0  0  0  0  0  0  0  0  0
   28.3486  -16.1451  -16.9308 C   0  0  0  0  0  0  0  0  0  0  0  0
   26.8437  -17.5971  -15.6857 C   0  0  0  0  0  0  0  0  0  0  0  0
   26.3829  -18.9996  -15.3688 C   0  0  2  0  0  0  0  0  0  0  0  0
   25.5356  -19.4511  -16.4296 N   0  0  0  0  0  0  0  0  0  0  0  0
   25.6490  -19.0653  -14.0856 C   0  0  0  0  0  0  0  0  0  0  0  0
   24.9000  -18.1010  -13.7225 O   0  0  0  0  0  0  0  0  0  0  0  0
   23.2890  -23.5276  -13.9629 N   0  0  0  0  0  0  0  0  0  0  0  0
   22.6398  -22.2734  -14.2140 C   0  0  0  0  0  0  0  0  0  0  0  0
   21.8218  -22.2508  -15.1603 O   0  0  0  0  0  0  0  0  0  0  0  0
   22.9320  -21.0737  -13.3878 C   0  0  0  0  0  0  0  0  0  0  0  0
   23.9242  -21.4836  -12.3222 C   0  0  0  0  0  0  0  0  0  0  0  0
   24.9330  -20.3870  -12.0526 C   0  0  2  0  0  0  0  0  0  0  0  0
   25.7512  -20.1873  -13.2263 N   0  0  0  0  0  0  0  0  0  0  0  0
   25.8291  -20.7318  -10.9253 C   0  0  0  0  0  0  0  0  0  0  0  0
   26.7142  -21.6322  -11.0619 O   0  0  0  0  0  0  0  0  0  0  0  0
   28.1391  -18.9749   -8.5782 C   0  0  0  0  0  0  0  0  0  0  0  0
   27.1014  -19.6356   -7.7353 C   0  0  1  0  0  0  0  0  0  0  0  0
   26.0361  -18.6487   -7.2588 C   0  0  0  0  0  0  0  0  0  0  0  0
   26.3454  -20.7302   -8.4790 C   0  0  2  0  0  0  0  0  0  0  0  0
   25.7758  -20.1138   -9.6582 N   0  0  0  0  0  0  0  0  0  0  0  0
   25.3210  -21.3660   -7.6278 C   0  0  0  0  0  0  0  0  0  0  0  0
   24.1055  -21.1510   -7.8642 O   0  0  0  0  0  0  0  0  0  0  0  0
   25.6262  -22.2018   -6.5632 O   0  0  0  0  0  0  0  0  0  0  0  0
  2  1  1  1
  2  3  1  0
  4  2  1  0
  4  5  1  0
  5  7  1  0
  5  6  1  6
  7  8  2  0
  9 10  1  0
 10 12  1  0
 11 10  2  0
 12 13  1  0
 14 13  1  6
 15 14  1  0
 15  7  1  0
 16 17  2  0
 16 14  1  0
 19 18  1  6
 19 21  1  0
 20 19  1  0
 21 23  1  0
 21 22  1  6
 22 16  1  0
 23 25  1  0
 24 23  2  0
M  END
$$$$
