LQV.pdb
     RDKit          3D

 25 24  0  0  1  0  0  0  0  0999 V2000
   27.7263  -17.7396  -16.7187 C   0  0  0  0  0  0  0  0  0  0  0  0
   26.6271  -18.0149  -17.6989 C   0  0  2  0  0  0  0  0  0  0  0  0
   26.6271  -16.8660  -18.7046 C   0  0  0  0  0  0  0  0  0  0  0  0
   25.2699  -18.0653  -17.0788 C   0  0  0  0  0  0  0  0  0  0  0  0
   25.1775  -19.1233  -16.0055 C   0  0  2  0  0  0  0  0  0  0  0  0
   25.6193  -20.3685  -16.5545 N   0  0  0  0  0  0  0  0  0  0  0  0
   23.7985  -19.2703  -15.4893 C   0  0  0  0  0  0  0  0  0  0  0  0
   23.0217  -18.2623  -15.4328 O   0  0  0  0  0  0  0  0  0  0  0  0
   19.5108  -20.7221  -17.5754 N   0  0  0  0  0  0  0  0  0  0  0  0
   18.9423  -21.3515  -16.4187 C   0  0  0  0  0  0  0  0  0  0  0  0
   17.6940  -21.4288  -16.3852 O   0  0  0  0  0  0  0  0  0  0  0  0
   19.8003  -21.8788  -15.3264 C   0  0  0  0  0  0  0  0  0  0  0  0
   21.2389  -21.5981  -15.6998 C   0  0  0  0  0  0  0  0  0  0  0  0
   21.9289  -20.7515  -14.6510 C   0  0  2  0  0  0  0  0  0  0  0  0
   23.2991  -20.5198  -15.0454 N   0  0  0  0  0  0  0  0  0  0  0  0
   21.9416  -21.4192  -13.3292 C   0  0  0  0  0  0  0  0  0  0  0  0
   22.5909  -22.4977  -13.1619 O   0  0  0  0  0  0  0  0  0  0  0  0
   23.0171  -20.0091  -10.1035 C   0  0  0  0  0  0  0  0  0  0  0  0
   21.6704  -20.6046   -9.8677 C   0  0  1  0  0  0  0  0  0  0  0  0
   20.5645  -19.5500   -9.8933 C   0  0  0  0  0  0  0  0  0  0  0  0
   21.2850  -21.6313  -10.9262 C   0  0  2  0  0  0  0  0  0  0  0  0
   21.2613  -20.9322  -12.1934 N   0  0  0  0  0  0  0  0  0  0  0  0
   19.9954  -22.2797  -10.6188 C   0  0  0  0  0  0  0  0  0  0  0  0
   18.9707  -21.9479  -11.2664 O   0  0  0  0  0  0  0  0  0  0  0  0
   19.8449  -23.2512   -9.6396 O   0  0  0  0  0  0  0  0  0  0  0  0
  2  1  1  1
  2  3  1  0
  4  2  1  0
  4  5  1  0
  5  7  1  0
  5  6  1  6
  7  8  2  0
  9 10  1  0
 10 12  1  0
 11 10  2  0
 12 13  1  0
 14 13  1  6
 15 14  1  0
 15  7  1  0
 16 17  2  0
 16 14  1  0
 19 18  1  6
 19 21  1  0
 20 19  1  0
 21 23  1  0
 21 22  1  6
 22 16  1  0
 23 25  1  0
 24 23  2  0
M  END
$$$$
