LQV.pdb
     RDKit          3D

 25 24  0  0  1  0  0  0  0  0999 V2000
   28.4199  -20.9193  -15.1526 C   0  0  0  0  0  0  0  0  0  0  0  0
   27.0938  -20.2221  -15.1400 C   0  0  2  0  0  0  0  0  0  0  0  0
   27.1848  -19.0704  -16.1382 C   0  0  0  0  0  0  0  0  0  0  0  0
   26.7373  -19.6363  -13.8138 C   0  0  0  0  0  0  0  0  0  0  0  0
   26.8867  -20.6383  -12.6943 C   0  0  2  0  0  0  0  0  0  0  0  0
   25.9939  -21.7295  -12.9378 N   0  0  0  0  0  0  0  0  0  0  0  0
   26.5916  -20.0413  -11.3729 C   0  0  0  0  0  0  0  0  0  0  0  0
   26.9979  -18.8671  -11.0920 O   0  0  0  0  0  0  0  0  0  0  0  0
   21.4887  -21.3655   -8.3355 N   0  0  0  0  0  0  0  0  0  0  0  0
   21.7020  -20.5164   -9.4717 C   0  0  0  0  0  0  0  0  0  0  0  0
   20.6812  -20.1731  -10.1083 O   0  0  0  0  0  0  0  0  0  0  0  0
   23.0664  -20.0756   -9.8609 C   0  0  0  0  0  0  0  0  0  0  0  0
   24.0289  -20.5912   -8.8141 C   0  0  0  0  0  0  0  0  0  0  0  0
   25.4534  -20.1785   -9.1195 C   0  0  2  0  0  0  0  0  0  0  0  0
   25.8567  -20.7441  -10.3860 N   0  0  0  0  0  0  0  0  0  0  0  0
   26.3970  -20.6591   -8.0843 C   0  0  0  0  0  0  0  0  0  0  0  0
   26.7143  -21.8874   -8.0265 O   0  0  0  0  0  0  0  0  0  0  0  0
   29.8914  -19.7742   -7.3554 C   0  0  0  0  0  0  0  0  0  0  0  0
   29.1325  -19.5762   -6.0871 C   0  0  1  0  0  0  0  0  0  0  0  0
   28.7464  -18.1131   -5.8723 C   0  0  0  0  0  0  0  0  0  0  0  0
   27.8239  -20.3567   -6.0537 C   0  0  2  0  0  0  0  0  0  0  0  0
   26.9968  -19.8262   -7.1165 N   0  0  0  0  0  0  0  0  0  0  0  0
   27.1665  -20.2709   -4.7352 C   0  0  0  0  0  0  0  0  0  0  0  0
   26.0677  -19.6693   -4.6340 O   0  0  0  0  0  0  0  0  0  0  0  0
   27.6995  -20.8251   -3.5802 O   0  0  0  0  0  0  0  0  0  0  0  0
  2  1  1  1
  2  3  1  0
  4  2  1  0
  4  5  1  0
  5  7  1  0
  5  6  1  6
  7  8  2  0
  9 10  1  0
 10 12  1  0
 11 10  2  0
 12 13  1  0
 14 13  1  1
 15 14  1  0
 15  7  1  0
 16 17  2  0
 16 14  1  0
 19 18  1  6
 19 21  1  0
 20 19  1  0
 21 23  1  0
 21 22  1  6
 22 16  1  0
 23 25  1  0
 24 23  2  0
M  END
$$$$
