LQV.pdb
     RDKit          3D

 25 24  0  0  1  0  0  0  0  0999 V2000
   28.6606  -19.2050  -18.2206 C   0  0  0  0  0  0  0  0  0  0  0  0
   28.4316  -20.6856  -18.2122 C   0  0  2  0  0  0  0  0  0  0  0  0
   28.1199  -21.0977  -19.6489 C   0  0  0  0  0  0  0  0  0  0  0  0
   27.2767  -21.1086  -17.3659 C   0  0  0  0  0  0  0  0  0  0  0  0
   27.4182  -20.6361  -15.9389 C   0  0  2  0  0  0  0  0  0  0  0  0
   28.5904  -21.2329  -15.3758 N   0  0  0  0  0  0  0  0  0  0  0  0
   26.2386  -20.9894  -15.1183 C   0  0  0  0  0  0  0  0  0  0  0  0
   25.2574  -21.6142  -15.6374 O   0  0  0  0  0  0  0  0  0  0  0  0
   26.1228  -20.2964   -8.8585 N   0  0  0  0  0  0  0  0  0  0  0  0
   24.9380  -21.0714   -9.0884 C   0  0  0  0  0  0  0  0  0  0  0  0
   24.3353  -21.4802   -8.0711 O   0  0  0  0  0  0  0  0  0  0  0  0
   24.4629  -21.3658  -10.4650 C   0  0  0  0  0  0  0  0  0  0  0  0
   25.4873  -20.8114  -11.4300 C   0  0  0  0  0  0  0  0  0  0  0  0
   25.0876  -21.0641  -12.8685 C   0  0  2  0  0  0  0  0  0  0  0  0
   26.1588  -20.6504  -13.7448 N   0  0  0  0  0  0  0  0  0  0  0  0
   23.8734  -20.3029  -13.2417 C   0  0  0  0  0  0  0  0  0  0  0  0
   23.8848  -19.0330  -13.2328 O   0  0  0  0  0  0  0  0  0  0  0  0
   22.2878  -20.2018  -16.3810 C   0  0  0  0  0  0  0  0  0  0  0  0
   21.1671  -20.4860  -15.4392 C   0  0  1  0  0  0  0  0  0  0  0  0
   20.8045  -21.9705  -15.4107 C   0  0  0  0  0  0  0  0  0  0  0  0
   21.4980  -20.1152  -13.9984 C   0  0  2  0  0  0  0  0  0  0  0  0
   22.6538  -20.9010  -13.6223 N   0  0  0  0  0  0  0  0  0  0  0  0
   20.3509  -20.3373  -13.0967 C   0  0  0  0  0  0  0  0  0  0  0  0
   20.4013  -21.2704  -12.2563 O   0  0  0  0  0  0  0  0  0  0  0  0
   19.1999  -19.5629  -13.1226 O   0  0  0  0  0  0  0  0  0  0  0  0
  2  1  1  6
  2  3  1  0
  4  2  1  0
  4  5  1  0
  5  7  1  0
  5  6  1  1
  7  8  2  0
  9 10  1  0
 10 12  1  0
 11 10  2  0
 12 13  1  0
 14 13  1  1
 15 14  1  0
 15  7  1  0
 16 17  2  0
 16 14  1  0
 19 18  1  6
 19 21  1  0
 20 19  1  0
 21 23  1  0
 21 22  1  1
 22 16  1  0
 23 25  1  0
 24 23  2  0
M  END
$$$$
