LQV.pdb
     RDKit          3D

 25 24  0  0  1  0  0  0  0  0999 V2000
   26.3800  -18.5101   -6.8876 C   0  0  0  0  0  0  0  0  0  0  0  0
   26.6904  -19.9753   -6.8472 C   0  0  2  0  0  0  0  0  0  0  0  0
   28.1132  -20.1160   -6.3113 C   0  0  0  0  0  0  0  0  0  0  0  0
   26.6507  -20.6334   -8.1867 C   0  0  0  0  0  0  0  0  0  0  0  0
   25.2876  -20.5296   -8.8277 C   0  0  2  0  0  0  0  0  0  0  0  0
   24.3685  -21.3266   -8.0747 N   0  0  0  0  0  0  0  0  0  0  0  0
   25.3010  -20.9847  -10.2356 C   0  0  0  0  0  0  0  0  0  0  0  0
   25.6751  -22.1672  -10.5262 O   0  0  0  0  0  0  0  0  0  0  0  0
   21.0231  -21.9901  -12.1252 N   0  0  0  0  0  0  0  0  0  0  0  0
   21.1577  -20.5635  -12.0629 C   0  0  0  0  0  0  0  0  0  0  0  0
   20.1857  -19.9337  -11.5897 O   0  0  0  0  0  0  0  0  0  0  0  0
   22.3899  -19.8826  -12.5378 C   0  0  0  0  0  0  0  0  0  0  0  0
   23.3662  -20.9542  -12.9695 C   0  0  0  0  0  0  0  0  0  0  0  0
   24.7962  -20.5526  -12.6751 C   0  0  2  0  0  0  0  0  0  0  0  0
   24.9038  -20.1338  -11.2967 N   0  0  0  0  0  0  0  0  0  0  0  0
   25.2361  -19.4261  -13.5296 C   0  0  0  0  0  0  0  0  0  0  0  0
   25.0464  -18.2268  -13.1574 O   0  0  0  0  0  0  0  0  0  0  0  0
   28.6396  -18.8292  -14.6386 C   0  0  0  0  0  0  0  0  0  0  0  0
   27.8032  -18.7013  -15.8666 C   0  0  1  0  0  0  0  0  0  0  0  0
   27.8379  -19.9696  -16.7187 C   0  0  0  0  0  0  0  0  0  0  0  0
   26.3317  -18.4540  -15.5558 C   0  0  2  0  0  0  0  0  0  0  0  0
   25.8761  -19.5855  -14.7767 N   0  0  0  0  0  0  0  0  0  0  0  0
   25.5358  -18.2612  -16.7836 C   0  0  0  0  0  0  0  0  0  0  0  0
   24.6905  -19.1315  -17.1113 O   0  0  0  0  0  0  0  0  0  0  0  0
   25.6682  -17.1560  -17.6120 O   0  0  0  0  0  0  0  0  0  0  0  0
  2  1  1  6
  2  3  1  0
  4  2  1  0
  4  5  1  0
  5  7  1  0
  5  6  1  1
  7  8  2  0
  9 10  1  0
 10 12  1  0
 11 10  2  0
 12 13  1  0
 14 13  1  6
 15 14  1  0
 15  7  1  0
 16 17  2  0
 16 14  1  0
 19 18  1  1
 19 21  1  0
 20 19  1  0
 21 23  1  0
 21 22  1  6
 22 16  1  0
 23 25  1  0
 24 23  2  0
M  END
$$$$
