LQV.pdb
     RDKit          3D

 25 24  0  0  1  0  0  0  0  0999 V2000
  -15.2197  -43.6458  -88.4859 C   0  0  0  0  0  0  0  0  0  0  0  0
  -14.4677  -42.3791  -88.7589 C   0  0  2  0  0  0  0  0  0  0  0  0
  -14.0291  -41.8197  -87.4075 C   0  0  0  0  0  0  0  0  0  0  0  0
  -15.2876  -41.3284  -89.4320 C   0  0  0  0  0  0  0  0  0  0  0  0
  -15.7279  -41.7529  -90.8125 C   0  0  2  0  0  0  0  0  0  0  0  0
  -14.6994  -42.5633  -91.3893 N   0  0  0  0  0  0  0  0  0  0  0  0
  -15.9956  -40.5921  -91.6903 C   0  0  0  0  0  0  0  0  0  0  0  0
  -15.1902  -39.6055  -91.7162 O   0  0  0  0  0  0  0  0  0  0  0  0
  -14.7450  -41.6912  -91.2020 N   0  0  0  0  0  0  0  0  0  0  0  0
  -16.0094  -41.3144  -90.6392 C   0  0  0  0  0  0  0  0  0  0  0  0
  -16.1557  -40.1031  -90.3625 O   0  0  0  0  0  0  0  0  0  0  0  0
  -17.0791  -42.3180  -90.4027 C   0  0  0  0  0  0  0  0  0  0  0  0
  -18.3936  -41.6883  -90.8072 C   0  0  0  0  0  0  0  0  0  0  0  0
  -18.3728  -41.2426  -92.2542 C   0  0  2  0  0  0  0  0  0  0  0  0
  -17.1414  -40.5366  -92.5221 N   0  0  0  0  0  0  0  0  0  0  0  0
  -19.4978  -40.3304  -92.5628 C   0  0  0  0  0  0  0  0  0  0  0  0
  -19.6058  -39.8135  -93.7177 O   0  0  0  0  0  0  0  0  0  0  0  0
  -18.3099  -40.9010  -90.5344 C   0  0  0  0  0  0  0  0  0  0  0  0
  -19.5693  -41.6182  -90.1832 C   0  0  1  0  0  0  0  0  0  0  0  0
  -19.6476  -41.9423  -88.6916 C   0  0  0  0  0  0  0  0  0  0  0  0
  -20.8193  -40.8035  -90.4938 C   0  0  2  0  0  0  0  0  0  0  0  0
  -20.5013  -39.9749  -91.6372 N   0  0  0  0  0  0  0  0  0  0  0  0
  -21.2605  -40.0092  -89.3307 C   0  0  0  0  0  0  0  0  0  0  0  0
  -20.4243  -39.6989  -88.4454 O   0  0  0  0  0  0  0  0  0  0  0  0
  -22.5673  -39.5774  -89.1541 O   0  0  0  0  0  0  0  0  0  0  0  0
  2  1  1  1
  2  3  1  0
  4  2  1  0
  4  5  1  0
  5  7  1  0
  5  6  1  6
  7  8  2  0
  9 10  1  0
 10 12  1  0
 11 10  2  0
 12 13  1  0
 14 13  1  1
 15 14  1  0
 15  7  1  0
 16 17  2  0
 16 14  1  0
 19 18  1  1
 19 21  1  0
 20 19  1  0
 21 23  1  0
 21 22  1  6
 22 16  1  0
 23 25  1  0
 24 23  2  0
M  END
$$$$
