LQV.pdb
     RDKit          3D

 25 24  0  0  1  0  0  0  0  0999 V2000
   28.5431  -15.8237  -16.2219 C   0  0  0  0  0  0  0  0  0  0  0  0
   27.8086  -16.4978  -17.3404 C   0  0  2  0  0  0  0  0  0  0  0  0
   27.0672  -15.4070  -18.1096 C   0  0  0  0  0  0  0  0  0  0  0  0
   26.7914  -17.4882  -16.8784 C   0  0  0  0  0  0  0  0  0  0  0  0
   27.3978  -18.5507  -15.9934 C   0  0  2  0  0  0  0  0  0  0  0  0
   28.2634  -19.3662  -16.7889 N   0  0  0  0  0  0  0  0  0  0  0  0
   26.3649  -19.3977  -15.3568 C   0  0  0  0  0  0  0  0  0  0  0  0
   25.6924  -20.2255  -16.0535 O   0  0  0  0  0  0  0  0  0  0  0  0
   25.8407  -20.0215   -9.1261 N   0  0  0  0  0  0  0  0  0  0  0  0
   24.8900  -20.9886   -9.5934 C   0  0  0  0  0  0  0  0  0  0  0  0
   24.3755  -21.7269   -8.7243 O   0  0  0  0  0  0  0  0  0  0  0  0
   24.5440  -21.0975  -11.0342 C   0  0  0  0  0  0  0  0  0  0  0  0
   25.4560  -20.1608  -11.7950 C   0  0  0  0  0  0  0  0  0  0  0  0
   25.1535  -20.1759  -13.2785 C   0  0  2  0  0  0  0  0  0  0  0  0
   26.0902  -19.3200  -13.9689 N   0  0  0  0  0  0  0  0  0  0  0  0
   23.7874  -19.6810  -13.5644 C   0  0  0  0  0  0  0  0  0  0  0  0
   23.5227  -18.4421  -13.4761 O   0  0  0  0  0  0  0  0  0  0  0  0
   19.5910  -19.9203  -15.9116 C   0  0  0  0  0  0  0  0  0  0  0  0
   20.9546  -20.4044  -15.5511 C   0  0  1  0  0  0  0  0  0  0  0  0
   22.0273  -19.8446  -16.4849 C   0  0  0  0  0  0  0  0  0  0  0  0
   21.3757  -19.9913  -14.1458 C   0  0  2  0  0  0  0  0  0  0  0  0
   22.7112  -20.5109  -13.9428 N   0  0  0  0  0  0  0  0  0  0  0  0
   20.4253  -20.4718  -13.1240 C   0  0  0  0  0  0  0  0  0  0  0  0
   20.5409  -21.6413  -12.6785 O   0  0  0  0  0  0  0  0  0  0  0  0
   19.3935  -19.6948  -12.6173 O   0  0  0  0  0  0  0  0  0  0  0  0
  2  1  1  1
  2  3  1  0
  4  2  1  0
  4  5  1  0
  5  7  1  0
  5  6  1  6
  7  8  2  0
  9 10  1  0
 10 12  1  0
 11 10  2  0
 12 13  1  0
 14 13  1  1
 15 14  1  0
 15  7  1  0
 16 17  2  0
 16 14  1  0
 19 18  1  6
 19 21  1  0
 20 19  1  0
 21 23  1  0
 21 22  1  1
 22 16  1  0
 23 25  1  0
 24 23  2  0
M  END
$$$$
