NYR.pdb
     RDKit          3D

 32 32  0  0  1  0  0  0  0  0999 V2000
    9.6480  -19.9632   18.1291 N   0  0  0  0  0  0  0  0  0  0  0  0
    9.5799  -20.3444   19.4869 C   0  0  0  0  0  0  0  0  0  0  0  0
    9.4438  -21.5501   19.7905 O   0  0  0  0  0  0  0  0  0  0  0  0
    9.6670  -19.3398   20.5645 C   0  0  0  0  0  0  0  0  0  0  0  0
    9.7992  -17.9277   19.9964 C   0  0  2  0  0  0  0  0  0  0  0  0
   11.0497  -17.8377   19.3100 N   0  0  0  0  0  0  0  0  0  0  0  0
    9.7367  -16.9506   21.1484 C   0  0  0  0  0  0  0  0  0  0  0  0
   10.7814  -16.6241   21.7595 O   0  0  0  0  0  0  0  0  0  0  0  0
    8.1036  -11.9407   17.2172 O   0  0  0  0  0  0  0  0  0  0  0  0
    7.8753  -12.5794   18.4387 C   0  0  0  0  0  0  0  0  0  0  0  0
    8.4579  -11.9889   19.5659 C   0  0  0  0  0  0  0  0  0  0  0  0
    8.2524  -12.5970   20.8004 C   0  0  0  0  0  0  0  0  0  0  0  0
    7.5026  -13.7446   20.9323 C   0  0  0  0  0  0  0  0  0  0  0  0
    7.2978  -14.3725   22.2493 C   0  0  0  0  0  0  0  0  0  0  0  0
    8.2844  -15.4305   22.5768 C   0  0  2  0  0  0  0  0  0  0  0  0
    8.4953  -16.3920   21.5513 N   0  0  0  0  0  0  0  0  0  0  0  0
    7.9140  -16.0227   23.9080 C   0  0  0  0  0  0  0  0  0  0  0  0
    7.6489  -15.2965   24.8932 O   0  0  0  0  0  0  0  0  0  0  0  0
    6.9400  -14.3056   19.8067 C   0  0  0  0  0  0  0  0  0  0  0  0
    7.1226  -13.7255   18.5472 C   0  0  0  0  0  0  0  0  0  0  0  0
    5.9997  -24.2223   25.4846 N   0  0  0  0  0  0  0  0  0  0  0  0
    6.2428  -23.7081   26.7814 C   0  0  0  0  0  0  0  0  0  0  0  0
    6.6787  -24.4635   27.7403 N   0  0  0  0  0  0  0  0  0  0  0  0
    5.9959  -22.3276   27.0116 N   0  0  0  0  0  0  0  0  0  0  0  0
    5.9539  -21.4385   25.8812 C   0  0  0  0  0  0  0  0  0  0  0  0
    6.5150  -20.0948   26.3709 C   0  0  0  0  0  0  0  0  0  0  0  0
    6.8440  -19.3155   25.1364 C   0  0  0  0  0  0  0  0  0  0  0  0
    7.4623  -17.9735   25.4382 C   0  0  2  0  0  0  0  0  0  0  0  0
    7.8445  -17.4243   24.1186 N   0  0  0  0  0  0  0  0  0  0  0  0
    8.6835  -18.1932   26.2546 C   0  0  0  0  0  0  0  0  0  0  0  0
    9.8118  -18.4450   25.8094 O   0  0  0  0  0  0  0  0  0  0  0  0
    8.5640  -18.1117   27.6505 O   0  0  0  0  0  0  0  0  0  0  0  0
  2  1  1  0
  3  2  2  0
  4  2  1  0
  5  6  1  1
  5  4  1  0
  7  5  1  0
  8  7  2  0
  9 10  1  0
 10 20  2  0
 10 11  1  0
 11 12  2  0
 12 13  1  0
 13 14  1  0
 15 14  1  6
 15 16  1  0
 16  7  1  0
 17 29  1  0
 17 15  1  0
 18 17  2  0
 19 13  2  0
 20 19  1  0
 21 22  1  0
 22 24  1  0
 22 23  2  0
 24 25  1  0
 26 25  1  0
 27 26  1  0
 28 27  1  6
 28 29  1  0
 30 32  1  0
 30 28  1  0
 31 30  2  0
M  END
$$$$
