NYR.pdb
     RDKit          3D

 32 32  0  0  1  0  0  0  0  0999 V2000
    7.0326  -15.0595   17.3457 N   0  0  0  0  0  0  0  0  0  0  0  0
    7.5123  -13.7740   17.6786 C   0  0  0  0  0  0  0  0  0  0  0  0
    7.4388  -12.8451   16.8442 O   0  0  0  0  0  0  0  0  0  0  0  0
    8.1038  -13.5020   19.0031 C   0  0  0  0  0  0  0  0  0  0  0  0
    8.1229  -14.7596   19.8703 C   0  0  2  0  0  0  0  0  0  0  0  0
    6.7721  -15.1753   20.0841 N   0  0  0  0  0  0  0  0  0  0  0  0
    8.8029  -14.4185   21.1768 C   0  0  0  0  0  0  0  0  0  0  0  0
   10.0049  -14.0629   21.1914 O   0  0  0  0  0  0  0  0  0  0  0  0
    9.9892  -14.4628   29.9613 O   0  0  0  0  0  0  0  0  0  0  0  0
    9.4242  -14.3798   28.6861 C   0  0  0  0  0  0  0  0  0  0  0  0
    8.9960  -15.5848   28.1176 C   0  0  0  0  0  0  0  0  0  0  0  0
    8.4281  -15.5415   26.8481 C   0  0  0  0  0  0  0  0  0  0  0  0
    8.2820  -14.3608   26.1544 C   0  0  0  0  0  0  0  0  0  0  0  0
    7.6782  -14.3375   24.8108 C   0  0  0  0  0  0  0  0  0  0  0  0
    8.6417  -14.5756   23.7085 C   0  0  2  0  0  0  0  0  0  0  0  0
    8.0888  -14.4968   22.4013 N   0  0  0  0  0  0  0  0  0  0  0  0
    9.3711  -15.8594   23.9910 C   0  0  0  0  0  0  0  0  0  0  0  0
    8.7799  -16.9632   23.9699 O   0  0  0  0  0  0  0  0  0  0  0  0
    8.7118  -13.1885   26.7369 C   0  0  0  0  0  0  0  0  0  0  0  0
    9.2881  -13.1889   28.0113 C   0  0  0  0  0  0  0  0  0  0  0  0
   15.5434  -14.1663   20.6746 N   0  0  0  0  0  0  0  0  0  0  0  0
   14.4421  -14.7416   19.9955 C   0  0  0  0  0  0  0  0  0  0  0  0
   13.8545  -14.1301   19.0152 N   0  0  0  0  0  0  0  0  0  0  0  0
   13.9896  -16.0213   20.4169 N   0  0  0  0  0  0  0  0  0  0  0  0
   14.1067  -16.3684   21.8083 C   0  0  0  0  0  0  0  0  0  0  0  0
   12.6776  -16.6321   22.3066 C   0  0  0  0  0  0  0  0  0  0  0  0
   12.8059  -16.9550   23.7622 C   0  0  0  0  0  0  0  0  0  0  0  0
   11.4734  -17.1773   24.4325 C   0  0  2  0  0  0  0  0  0  0  0  0
   10.7572  -15.8902   24.2938 N   0  0  0  0  0  0  0  0  0  0  0  0
   11.7135  -17.4566   25.8715 C   0  0  0  0  0  0  0  0  0  0  0  0
   11.9185  -18.5748   26.3637 O   0  0  0  0  0  0  0  0  0  0  0  0
   11.7107  -16.3709   26.7608 O   0  0  0  0  0  0  0  0  0  0  0  0
  2  1  1  0
  3  2  2  0
  4  2  1  0
  5  6  1  1
  5  4  1  0
  7  5  1  0
  8  7  2  0
  9 10  1  0
 10 20  2  0
 10 11  1  0
 11 12  2  0
 12 13  1  0
 13 14  1  0
 15 14  1  1
 15 16  1  0
 16  7  1  0
 17 29  1  0
 17 15  1  0
 18 17  2  0
 19 13  2  0
 20 19  1  0
 21 22  1  0
 22 24  1  0
 22 23  2  0
 24 25  1  0
 26 25  1  0
 27 26  1  0
 28 27  1  6
 28 29  1  0
 30 32  1  0
 30 28  1  0
 31 30  2  0
M  END
$$$$
