NYR.pdb
     RDKit          3D

 32 32  0  0  1  0  0  0  0  0999 V2000
   11.4721  -18.3427   17.5927 N   0  0  0  0  0  0  0  0  0  0  0  0
   12.4426  -17.5938   18.2934 C   0  0  0  0  0  0  0  0  0  0  0  0
   13.5967  -17.4755   17.8260 O   0  0  0  0  0  0  0  0  0  0  0  0
   12.1196  -16.9420   19.5775 C   0  0  0  0  0  0  0  0  0  0  0  0
   10.6978  -17.2757   20.0261 C   0  0  2  0  0  0  0  0  0  0  0  0
    9.7867  -16.7061   19.0835 N   0  0  0  0  0  0  0  0  0  0  0  0
   10.4920  -16.6927   21.4058 C   0  0  0  0  0  0  0  0  0  0  0  0
   11.3381  -16.8900   22.3095 O   0  0  0  0  0  0  0  0  0  0  0  0
    6.6453  -12.1217   27.9479 O   0  0  0  0  0  0  0  0  0  0  0  0
    6.9972  -12.6387   26.6985 C   0  0  0  0  0  0  0  0  0  0  0  0
    6.2051  -13.6863   26.2152 C   0  0  0  0  0  0  0  0  0  0  0  0
    6.5254  -14.2269   24.9738 C   0  0  0  0  0  0  0  0  0  0  0  0
    7.5845  -13.7612   24.2268 C   0  0  0  0  0  0  0  0  0  0  0  0
    7.9065  -14.3485   22.9145 C   0  0  0  0  0  0  0  0  0  0  0  0
    8.9527  -15.3989   22.9603 C   0  0  2  0  0  0  0  0  0  0  0  0
    9.3394  -15.9157   21.6938 N   0  0  0  0  0  0  0  0  0  0  0  0
    8.5221  -16.4483   23.9470 C   0  0  0  0  0  0  0  0  0  0  0  0
    7.4724  -17.1099   23.7782 O   0  0  0  0  0  0  0  0  0  0  0  0
    8.3484  -12.7288   24.7257 C   0  0  0  0  0  0  0  0  0  0  0  0
    8.0598  -12.1578   25.9694 C   0  0  0  0  0  0  0  0  0  0  0  0
   11.3338  -18.8279   32.0289 N   0  0  0  0  0  0  0  0  0  0  0  0
   11.6508  -19.8618   31.1148 C   0  0  0  0  0  0  0  0  0  0  0  0
   12.5869  -20.7235   31.3627 N   0  0  0  0  0  0  0  0  0  0  0  0
   10.9101  -19.9358   29.9041 N   0  0  0  0  0  0  0  0  0  0  0  0
   10.5465  -18.7101   29.2442 C   0  0  0  0  0  0  0  0  0  0  0  0
    9.8278  -19.1170   27.9488 C   0  0  0  0  0  0  0  0  0  0  0  0
   10.0032  -17.9678   27.0063 C   0  0  0  0  0  0  0  0  0  0  0  0
    8.8744  -17.8468   26.0137 C   0  0  2  0  0  0  0  0  0  0  0  0
    9.2754  -16.7440   25.1127 N   0  0  0  0  0  0  0  0  0  0  0  0
    7.6430  -17.4609   26.7492 C   0  0  0  0  0  0  0  0  0  0  0  0
    7.4030  -16.3374   27.2126 O   0  0  0  0  0  0  0  0  0  0  0  0
    6.6589  -18.4425   26.9432 O   0  0  0  0  0  0  0  0  0  0  0  0
  2  1  1  0
  3  2  2  0
  4  2  1  0
  5  6  1  6
  5  4  1  0
  7  5  1  0
  8  7  2  0
  9 10  1  0
 10 20  2  0
 10 11  1  0
 11 12  2  0
 12 13  1  0
 13 14  1  0
 15 14  1  6
 15 16  1  0
 16  7  1  0
 17 29  1  0
 17 15  1  0
 18 17  2  0
 19 13  2  0
 20 19  1  0
 21 22  1  0
 22 24  1  0
 22 23  2  0
 24 25  1  0
 26 25  1  0
 27 26  1  0
 28 27  1  1
 28 29  1  0
 30 32  1  0
 30 28  1  0
 31 30  2  0
M  END
$$$$
