NYR.pdb
     RDKit          3D

 32 32  0  0  1  0  0  0  0  0999 V2000
    7.5029  -13.2264   16.6259 N   0  0  0  0  0  0  0  0  0  0  0  0
    8.5078  -14.1634   16.9514 C   0  0  0  0  0  0  0  0  0  0  0  0
    8.7242  -15.1348   16.1937 O   0  0  0  0  0  0  0  0  0  0  0  0
    9.3148  -14.0184   18.1785 C   0  0  0  0  0  0  0  0  0  0  0  0
    9.1723  -15.2413   19.0831 C   0  0  2  0  0  0  0  0  0  0  0  0
    7.8894  -15.8253   18.8461 N   0  0  0  0  0  0  0  0  0  0  0  0
    9.3071  -14.7823   20.5173 C   0  0  0  0  0  0  0  0  0  0  0  0
   10.4409  -14.6370   21.0320 O   0  0  0  0  0  0  0  0  0  0  0  0
    6.7374  -12.4642   28.6855 O   0  0  0  0  0  0  0  0  0  0  0  0
    6.7503  -12.7592   27.3199 C   0  0  0  0  0  0  0  0  0  0  0  0
    7.4226  -11.8502   26.4951 C   0  0  0  0  0  0  0  0  0  0  0  0
    7.4565  -12.1108   25.1288 C   0  0  0  0  0  0  0  0  0  0  0  0
    6.8540  -13.2226   24.5832 C   0  0  0  0  0  0  0  0  0  0  0  0
    6.9017  -13.4793   23.1333 C   0  0  0  0  0  0  0  0  0  0  0  0
    8.1113  -14.2121   22.6864 C   0  0  2  0  0  0  0  0  0  0  0  0
    8.1525  -14.5109   21.2973 N   0  0  0  0  0  0  0  0  0  0  0  0
    8.2920  -15.4088   23.5782 C   0  0  0  0  0  0  0  0  0  0  0  0
    7.5368  -16.4042   23.4941 O   0  0  0  0  0  0  0  0  0  0  0  0
    6.1987  -14.1017   25.4174 C   0  0  0  0  0  0  0  0  0  0  0  0
    6.1416  -13.8761   26.7965 C   0  0  0  0  0  0  0  0  0  0  0  0
   14.3704  -20.8347   22.8664 N   0  0  0  0  0  0  0  0  0  0  0  0
   12.9732  -21.0288   22.7434 C   0  0  0  0  0  0  0  0  0  0  0  0
   12.4678  -21.7287   21.7765 N   0  0  0  0  0  0  0  0  0  0  0  0
   12.1260  -20.4326   23.7163 N   0  0  0  0  0  0  0  0  0  0  0  0
   12.4135  -19.0910   24.1493 C   0  0  0  0  0  0  0  0  0  0  0  0
   11.2258  -18.6580   25.0223 C   0  0  0  0  0  0  0  0  0  0  0  0
   10.8228  -17.3063   24.5222 C   0  0  0  0  0  0  0  0  0  0  0  0
    9.6247  -16.7468   25.2471 C   0  0  2  0  0  0  0  0  0  0  0  0
    9.3195  -15.4754   24.5547 N   0  0  0  0  0  0  0  0  0  0  0  0
   10.0171  -16.4629   26.6513 C   0  0  0  0  0  0  0  0  0  0  0  0
    9.9758  -17.2722   27.5883 O   0  0  0  0  0  0  0  0  0  0  0  0
   10.4755  -15.1722   26.9572 O   0  0  0  0  0  0  0  0  0  0  0  0
  2  1  1  0
  3  2  2  0
  4  2  1  0
  5  6  1  1
  5  4  1  0
  7  5  1  0
  8  7  2  0
  9 10  1  0
 10 20  2  0
 10 11  1  0
 11 12  2  0
 12 13  1  0
 13 14  1  0
 15 14  1  1
 15 16  1  0
 16  7  1  0
 17 29  1  0
 17 15  1  0
 18 17  2  0
 19 13  2  0
 20 19  1  0
 21 22  1  0
 22 24  1  0
 22 23  2  0
 24 25  1  0
 26 25  1  0
 27 26  1  0
 28 27  1  6
 28 29  1  0
 30 32  1  0
 30 28  1  0
 31 30  2  0
M  END
$$$$
