NYR.pdb
     RDKit          3D

 32 32  0  0  1  0  0  0  0  0999 V2000
    6.9551  -13.1295   15.7138 N   0  0  0  0  0  0  0  0  0  0  0  0
    7.8815  -13.8016   16.5406 C   0  0  0  0  0  0  0  0  0  0  0  0
    8.5178  -14.7824   16.0959 O   0  0  0  0  0  0  0  0  0  0  0  0
    8.1160  -13.3664   17.9311 C   0  0  0  0  0  0  0  0  0  0  0  0
    8.8191  -14.4543   18.7412 C   0  0  2  0  0  0  0  0  0  0  0  0
    8.0552  -15.6574   18.6308 N   0  0  0  0  0  0  0  0  0  0  0  0
    8.9025  -13.9900   20.1775 C   0  0  0  0  0  0  0  0  0  0  0  0
    9.4702  -12.9091   20.4619 O   0  0  0  0  0  0  0  0  0  0  0  0
    6.9562  -12.2936   28.4778 O   0  0  0  0  0  0  0  0  0  0  0  0
    6.9741  -12.6901   27.1382 C   0  0  0  0  0  0  0  0  0  0  0  0
    6.5632  -14.0015   26.8738 C   0  0  0  0  0  0  0  0  0  0  0  0
    6.5678  -14.4322   25.5508 C   0  0  0  0  0  0  0  0  0  0  0  0
    6.9605  -13.6106   24.5177 C   0  0  0  0  0  0  0  0  0  0  0  0
    6.9582  -14.0871   23.1236 C   0  0  0  0  0  0  0  0  0  0  0  0
    8.2996  -14.4483   22.6038 C   0  0  2  0  0  0  0  0  0  0  0  0
    8.3394  -14.7718   21.2201 N   0  0  0  0  0  0  0  0  0  0  0  0
    8.8814  -15.5062   23.4994 C   0  0  0  0  0  0  0  0  0  0  0  0
    8.9287  -15.3546   24.7416 O   0  0  0  0  0  0  0  0  0  0  0  0
    7.3604  -12.3239   24.8053 C   0  0  0  0  0  0  0  0  0  0  0  0
    7.3703  -11.8522   26.1219 C   0  0  0  0  0  0  0  0  0  0  0  0
   15.6731  -14.0549   21.3623 N   0  0  0  0  0  0  0  0  0  0  0  0
   15.4031  -14.6340   20.0986 C   0  0  0  0  0  0  0  0  0  0  0  0
   16.3346  -14.7911   19.2111 N   0  0  0  0  0  0  0  0  0  0  0  0
   14.0713  -15.0453   19.8211 N   0  0  0  0  0  0  0  0  0  0  0  0
   13.0189  -14.6063   20.6985 C   0  0  0  0  0  0  0  0  0  0  0  0
   12.7691  -15.7610   21.6805 C   0  0  0  0  0  0  0  0  0  0  0  0
   11.2855  -15.8258   21.8657 C   0  0  0  0  0  0  0  0  0  0  0  0
   10.8616  -16.9110   22.8233 C   0  0  2  0  0  0  0  0  0  0  0  0
    9.4035  -16.7237   22.9907 N   0  0  0  0  0  0  0  0  0  0  0  0
   11.5418  -16.6807   24.1234 C   0  0  0  0  0  0  0  0  0  0  0  0
   12.7114  -16.2981   24.2666 O   0  0  0  0  0  0  0  0  0  0  0  0
   10.8096  -16.9121   25.2981 O   0  0  0  0  0  0  0  0  0  0  0  0
  2  1  1  0
  3  2  2  0
  4  2  1  0
  5  6  1  1
  5  4  1  0
  7  5  1  0
  8  7  2  0
  9 10  1  0
 10 20  2  0
 10 11  1  0
 11 12  2  0
 12 13  1  0
 13 14  1  0
 15 14  1  1
 15 16  1  0
 16  7  1  0
 17 29  1  0
 17 15  1  0
 18 17  2  0
 19 13  2  0
 20 19  1  0
 21 22  1  0
 22 24  1  0
 22 23  2  0
 24 25  1  0
 26 25  1  0
 27 26  1  0
 28 27  1  6
 28 29  1  0
 30 32  1  0
 30 28  1  0
 31 30  2  0
M  END
$$$$
