NYR.pdb
     RDKit          3D

 32 32  0  0  1  0  0  0  0  0999 V2000
    8.2085  -12.9892   17.1828 N   0  0  0  0  0  0  0  0  0  0  0  0
    7.5264  -13.4612   18.3254 C   0  0  0  0  0  0  0  0  0  0  0  0
    6.4084  -14.0085   18.2031 O   0  0  0  0  0  0  0  0  0  0  0  0
    8.1114  -13.3205   19.6730 C   0  0  0  0  0  0  0  0  0  0  0  0
    8.6877  -14.6459   20.1682 C   0  0  2  0  0  0  0  0  0  0  0  0
    7.6113  -15.5754   20.3111 N   0  0  0  0  0  0  0  0  0  0  0  0
    9.3721  -14.3945   21.4926 C   0  0  0  0  0  0  0  0  0  0  0  0
   10.4580  -13.7696   21.5360 O   0  0  0  0  0  0  0  0  0  0  0  0
   10.7946  -15.0909   30.2316 O   0  0  0  0  0  0  0  0  0  0  0  0
   10.2033  -15.0072   28.9685 C   0  0  0  0  0  0  0  0  0  0  0  0
    9.9225  -16.2222   28.3332 C   0  0  0  0  0  0  0  0  0  0  0  0
    9.3333  -16.1786   27.0735 C   0  0  0  0  0  0  0  0  0  0  0  0
    9.0274  -14.9882   26.4522 C   0  0  0  0  0  0  0  0  0  0  0  0
    8.4040  -14.9648   25.1176 C   0  0  0  0  0  0  0  0  0  0  0  0
    9.3671  -14.8048   24.0009 C   0  0  2  0  0  0  0  0  0  0  0  0
    8.7936  -14.8627   22.7015 N   0  0  0  0  0  0  0  0  0  0  0  0
   10.5005  -15.7686   24.2162 C   0  0  0  0  0  0  0  0  0  0  0  0
   11.1311  -15.8020   25.2977 O   0  0  0  0  0  0  0  0  0  0  0  0
    9.3142  -13.8063   27.0995 C   0  0  0  0  0  0  0  0  0  0  0  0
    9.9062  -13.8066   28.3666 C   0  0  0  0  0  0  0  0  0  0  0  0
   16.1200  -15.6789   19.9462 N   0  0  0  0  0  0  0  0  0  0  0  0
   15.0428  -15.1544   19.1915 C   0  0  0  0  0  0  0  0  0  0  0  0
   15.2178  -14.2014   18.3306 N   0  0  0  0  0  0  0  0  0  0  0  0
   13.7487  -15.7034   19.4006 N   0  0  0  0  0  0  0  0  0  0  0  0
   13.6344  -16.9347   20.1362 C   0  0  0  0  0  0  0  0  0  0  0  0
   13.0535  -16.5622   21.5087 C   0  0  0  0  0  0  0  0  0  0  0  0
   12.6819  -17.8574   22.1599 C   0  0  0  0  0  0  0  0  0  0  0  0
   11.9857  -17.6686   23.4843 C   0  0  2  0  0  0  0  0  0  0  0  0
   10.9135  -16.6854   23.2148 N   0  0  0  0  0  0  0  0  0  0  0  0
   12.9576  -17.0888   24.4462 C   0  0  0  0  0  0  0  0  0  0  0  0
   13.0093  -15.8995   24.7892 O   0  0  0  0  0  0  0  0  0  0  0  0
   13.9038  -17.9496   25.0235 O   0  0  0  0  0  0  0  0  0  0  0  0
  2  1  1  0
  3  2  2  0
  4  2  1  0
  5  6  1  1
  5  4  1  0
  7  5  1  0
  8  7  2  0
  9 10  1  0
 10 20  2  0
 10 11  1  0
 11 12  2  0
 12 13  1  0
 13 14  1  0
 15 14  1  1
 15 16  1  0
 16  7  1  0
 17 29  1  0
 17 15  1  0
 18 17  2  0
 19 13  2  0
 20 19  1  0
 21 22  1  0
 22 24  1  0
 22 23  2  0
 24 25  1  0
 26 25  1  0
 27 26  1  0
 28 27  1  6
 28 29  1  0
 30 32  1  0
 30 28  1  0
 31 30  2  0
M  END
$$$$
