NYR.pdb
     RDKit          3D

 32 32  0  0  1  0  0  0  0  0999 V2000
    8.4602  -18.1111   16.6038 N   0  0  0  0  0  0  0  0  0  0  0  0
    8.9309  -16.7828   16.5159 C   0  0  0  0  0  0  0  0  0  0  0  0
    9.1924  -16.2862   15.3982 O   0  0  0  0  0  0  0  0  0  0  0  0
    9.1222  -15.9616   17.7271 C   0  0  0  0  0  0  0  0  0  0  0  0
    8.8400  -16.7680   18.9937 C   0  0  2  0  0  0  0  0  0  0  0  0
    7.4903  -17.2347   18.9345 N   0  0  0  0  0  0  0  0  0  0  0  0
    9.0529  -15.8612   20.1845 C   0  0  0  0  0  0  0  0  0  0  0  0
   10.1960  -15.4190   20.4476 O   0  0  0  0  0  0  0  0  0  0  0  0
    7.0830  -12.2581   28.0536 O   0  0  0  0  0  0  0  0  0  0  0  0
    7.0155  -12.7387   26.7434 C   0  0  0  0  0  0  0  0  0  0  0  0
    6.6368  -14.0775   26.5925 C   0  0  0  0  0  0  0  0  0  0  0  0
    6.5586  -14.5917   25.3020 C   0  0  0  0  0  0  0  0  0  0  0  0
    6.8407  -13.8251   24.1932 C   0  0  0  0  0  0  0  0  0  0  0  0
    6.7520  -14.3898   22.8353 C   0  0  0  0  0  0  0  0  0  0  0  0
    8.0329  -14.9304   22.3183 C   0  0  2  0  0  0  0  0  0  0  0  0
    7.9619  -15.5003   21.0180 N   0  0  0  0  0  0  0  0  0  0  0  0
    8.6109  -15.8468   23.3605 C   0  0  0  0  0  0  0  0  0  0  0  0
    8.1486  -16.9956   23.5468 O   0  0  0  0  0  0  0  0  0  0  0  0
    7.2111  -12.5099   24.3695 C   0  0  0  0  0  0  0  0  0  0  0  0
    7.3017  -11.9547   25.6501 C   0  0  0  0  0  0  0  0  0  0  0  0
   16.6403  -18.4722   24.8378 N   0  0  0  0  0  0  0  0  0  0  0  0
   16.3323  -17.1762   24.3576 C   0  0  0  0  0  0  0  0  0  0  0  0
   17.2608  -16.3085   24.1029 N   0  0  0  0  0  0  0  0  0  0  0  0
   14.9651  -16.8435   24.1576 N   0  0  0  0  0  0  0  0  0  0  0  0
   14.1478  -16.5710   25.3100 C   0  0  0  0  0  0  0  0  0  0  0  0
   12.8239  -17.3165   25.0831 C   0  0  0  0  0  0  0  0  0  0  0  0
   11.8936  -16.3186   24.4679 C   0  0  0  0  0  0  0  0  0  0  0  0
   10.4704  -16.4750   24.9413 C   0  0  2  0  0  0  0  0  0  0  0  0
    9.7026  -15.4636   24.1821 N   0  0  0  0  0  0  0  0  0  0  0  0
   10.4198  -16.1492   26.3896 C   0  0  0  0  0  0  0  0  0  0  0  0
   10.1722  -15.0339   26.8687 O   0  0  0  0  0  0  0  0  0  0  0  0
   10.6718  -17.1829   27.3047 O   0  0  0  0  0  0  0  0  0  0  0  0
  2  1  1  0
  3  2  2  0
  4  2  1  0
  5  6  1  6
  5  4  1  0
  7  5  1  0
  8  7  2  0
  9 10  1  0
 10 20  2  0
 10 11  1  0
 11 12  2  0
 12 13  1  0
 13 14  1  0
 15 14  1  1
 15 16  1  0
 16  7  1  0
 17 29  1  0
 17 15  1  0
 18 17  2  0
 19 13  2  0
 20 19  1  0
 21 22  1  0
 22 24  1  0
 22 23  2  0
 24 25  1  0
 26 25  1  0
 27 26  1  0
 28 27  1  6
 28 29  1  0
 30 32  1  0
 30 28  1  0
 31 30  2  0
M  END
$$$$
