NYR.pdb
     RDKit          3D

 32 32  0  0  1  0  0  0  0  0999 V2000
   10.9912  -17.3501   16.3728 N   0  0  0  0  0  0  0  0  0  0  0  0
    9.7755  -16.8310   16.8690 C   0  0  0  0  0  0  0  0  0  0  0  0
    8.7020  -17.0843   16.2792 O   0  0  0  0  0  0  0  0  0  0  0  0
    9.7459  -15.9883   18.0801 C   0  0  0  0  0  0  0  0  0  0  0  0
    9.4134  -16.8141   19.3218 C   0  0  2  0  0  0  0  0  0  0  0  0
    8.0932  -17.3400   19.1681 N   0  0  0  0  0  0  0  0  0  0  0  0
    9.5028  -15.9059   20.5272 C   0  0  0  0  0  0  0  0  0  0  0  0
   10.6063  -15.4252   20.8776 O   0  0  0  0  0  0  0  0  0  0  0  0
    6.8145  -11.9319   27.9924 O   0  0  0  0  0  0  0  0  0  0  0  0
    6.8913  -12.4755   26.7076 C   0  0  0  0  0  0  0  0  0  0  0  0
    6.1968  -13.6723   26.4980 C   0  0  0  0  0  0  0  0  0  0  0  0
    6.2502  -14.2438   25.2305 C   0  0  0  0  0  0  0  0  0  0  0  0
    6.9581  -13.6670   24.1996 C   0  0  0  0  0  0  0  0  0  0  0  0
    7.0017  -14.2894   22.8650 C   0  0  0  0  0  0  0  0  0  0  0  0
    8.2891  -14.9541   22.5474 C   0  0  2  0  0  0  0  0  0  0  0  0
    8.3394  -15.5872   21.2756 N   0  0  0  0  0  0  0  0  0  0  0  0
    8.6496  -15.8537   23.6966 C   0  0  0  0  0  0  0  0  0  0  0  0
    7.9409  -16.8411   23.9985 O   0  0  0  0  0  0  0  0  0  0  0  0
    7.6330  -12.4887   24.4327 C   0  0  0  0  0  0  0  0  0  0  0  0
    7.6047  -11.8819   25.6925 C   0  0  0  0  0  0  0  0  0  0  0  0
   15.5138  -18.9558   22.7088 N   0  0  0  0  0  0  0  0  0  0  0  0
   14.4570  -19.8964   22.7678 C   0  0  0  0  0  0  0  0  0  0  0  0
   14.6296  -21.1337   22.4226 N   0  0  0  0  0  0  0  0  0  0  0  0
   13.1864  -19.4486   23.2204 N   0  0  0  0  0  0  0  0  0  0  0  0
   13.0208  -18.0547   23.5364 C   0  0  0  0  0  0  0  0  0  0  0  0
   11.5434  -17.8734   23.9167 C   0  0  0  0  0  0  0  0  0  0  0  0
   11.5430  -17.0853   25.1889 C   0  0  0  0  0  0  0  0  0  0  0  0
   10.1718  -16.5847   25.5674 C   0  0  2  0  0  0  0  0  0  0  0  0
    9.8027  -15.6353   24.4944 N   0  0  0  0  0  0  0  0  0  0  0  0
   10.2786  -15.8557   26.8571 C   0  0  0  0  0  0  0  0  0  0  0  0
   10.2823  -14.6240   26.9900 O   0  0  0  0  0  0  0  0  0  0  0  0
   10.3850  -16.6136   28.0334 O   0  0  0  0  0  0  0  0  0  0  0  0
  2  1  1  0
  3  2  2  0
  4  2  1  0
  5  6  1  6
  5  4  1  0
  7  5  1  0
  8  7  2  0
  9 10  1  0
 10 20  2  0
 10 11  1  0
 11 12  2  0
 12 13  1  0
 13 14  1  0
 15 14  1  1
 15 16  1  0
 16  7  1  0
 17 29  1  0
 17 15  1  0
 18 17  2  0
 19 13  2  0
 20 19  1  0
 21 22  1  0
 22 24  1  0
 22 23  2  0
 24 25  1  0
 26 25  1  0
 27 26  1  0
 28 27  1  6
 28 29  1  0
 30 32  1  0
 30 28  1  0
 31 30  2  0
M  END
$$$$
