PMF.pdb
     RDKit          3D

 27 28  0  0  1  0  0  0  0  0999 V2000
    7.2830  -19.2495   21.3523 N   0  0  0  0  0  0  0  0  0  0  0  0
    6.4510  -20.2654   20.7235 C   0  0  0  0  0  0  0  0  0  0  0  0
    6.1524  -19.7837   19.3228 C   0  0  0  0  0  0  0  0  0  0  0  0
    6.9410  -18.4701   19.2235 C   0  0  0  0  0  0  0  0  0  0  0  0
    8.0274  -18.7410   20.2435 C   0  0  1  0  0  0  0  0  0  0  0  0
    8.8220  -17.5429   20.5798 C   0  0  0  0  0  0  0  0  0  0  0  0
    9.9702  -17.3842   20.1078 O   0  0  0  0  0  0  0  0  0  0  0  0
    9.2627  -11.8486   19.5983 C   0  0  0  0  0  0  0  0  0  0  0  0
    7.5410  -12.4070   19.5980 S   0  0  0  0  0  0  0  0  0  0  0  0
    7.5263  -14.1028   20.3135 C   0  0  0  0  0  0  0  0  0  0  0  0
    8.4415  -14.0680   21.4842 C   0  0  0  0  0  0  0  0  0  0  0  0
    9.0011  -15.3903   21.9226 C   0  0  2  0  0  0  0  0  0  0  0  0
    8.3002  -16.5461   21.4452 N   0  0  0  0  0  0  0  0  0  0  0  0
    9.3429  -15.4063   23.3575 C   0  0  0  0  0  0  0  0  0  0  0  0
   10.2504  -14.6015   23.7302 O   0  0  0  0  0  0  0  0  0  0  0  0
    8.7684  -16.2238   24.3500 N   0  0  0  0  0  0  0  0  0  0  0  0
    9.1767  -16.1282   25.7619 C   0  0  1  0  0  0  0  0  0  0  0  0
    7.9177  -15.8819   26.5439 C   0  0  0  0  0  0  0  0  0  0  0  0
    7.3589  -14.5370   26.3682 C   0  0  0  0  0  0  0  0  0  0  0  0
    6.1140  -14.2533   25.8593 C   0  0  0  0  0  0  0  0  0  0  0  0
    5.6545  -12.9399   25.7338 C   0  0  0  0  0  0  0  0  0  0  0  0
    6.4541  -11.9027   26.1231 C   0  0  0  0  0  0  0  0  0  0  0  0
    7.6985  -12.1792   26.6317 C   0  0  0  0  0  0  0  0  0  0  0  0
    8.1649  -13.4687   26.7615 C   0  0  0  0  0  0  0  0  0  0  0  0
    9.7649  -17.4198   26.1768 C   0  0  0  0  0  0  0  0  0  0  0  0
   10.3058  -17.6187   27.4389 O   0  0  0  0  0  0  0  0  0  0  0  0
    9.7733  -18.3675   25.3548 O   0  0  0  0  0  0  0  0  0  0  0  0
  1  5  1  0
  1  2  1  0
  2  3  1  0
  4  3  1  0
  5  4  1  0
  5  6  1  1
  7  6  2  0
  8  9  1  0
 10  9  1  0
 11 10  1  0
 12 11  1  1
 12 13  1  0
 13  6  1  0
 14 12  1  0
 14 15  2  0
 16 14  1  0
 17 16  1  0
 17 18  1  1
 19 20  2  0
 19 18  1  0
 21 20  1  0
 22 21  2  0
 23 22  1  0
 23 24  2  0
 24 19  1  0
 25 17  1  0
 26 25  1  0
 27 25  2  0
M  END
$$$$
