PMF.pdb
     RDKit          3D

 27 28  0  0  1  0  0  0  0  0999 V2000
    8.0179  -15.0282   18.8841 N   0  0  0  0  0  0  0  0  0  0  0  0
    8.3844  -14.2087   17.7379 C   0  0  0  0  0  0  0  0  0  0  0  0
    7.9399  -12.7978   18.0464 C   0  0  0  0  0  0  0  0  0  0  0  0
    7.3715  -12.9076   19.4684 C   0  0  0  0  0  0  0  0  0  0  0  0
    8.1503  -14.1066   19.9682 C   0  0  1  0  0  0  0  0  0  0  0  0
    7.6409  -14.6397   21.2474 C   0  0  0  0  0  0  0  0  0  0  0  0
    7.6404  -13.9324   22.2798 O   0  0  0  0  0  0  0  0  0  0  0  0
    4.9547  -20.3681   20.5002 C   0  0  0  0  0  0  0  0  0  0  0  0
    3.6806  -19.1769   20.9839 S   0  0  0  0  0  0  0  0  0  0  0  0
    4.5122  -17.5449   21.1651 C   0  0  0  0  0  0  0  0  0  0  0  0
    5.6127  -17.7455   22.1439 C   0  0  0  0  0  0  0  0  0  0  0  0
    6.4499  -16.5376   22.4507 C   0  0  2  0  0  0  0  0  0  0  0  0
    7.1411  -15.9655   21.3327 N   0  0  0  0  0  0  0  0  0  0  0  0
    7.2586  -16.7118   23.6720 C   0  0  0  0  0  0  0  0  0  0  0  0
    8.4728  -17.0393   23.5026 O   0  0  0  0  0  0  0  0  0  0  0  0
    6.8195  -16.5558   25.0010 N   0  0  0  0  0  0  0  0  0  0  0  0
    7.7420  -16.6925   26.1410 C   0  0  1  0  0  0  0  0  0  0  0  0
    7.2450  -15.7445   27.1953 C   0  0  0  0  0  0  0  0  0  0  0  0
    7.3793  -14.3285   26.8364 C   0  0  0  0  0  0  0  0  0  0  0  0
    8.5592  -13.6950   26.5265 C   0  0  0  0  0  0  0  0  0  0  0  0
    8.5973  -12.3407   26.1857 C   0  0  0  0  0  0  0  0  0  0  0  0
    7.4388  -11.6169   26.1567 C   0  0  0  0  0  0  0  0  0  0  0  0
    6.2574  -12.2433   26.4655 C   0  0  0  0  0  0  0  0  0  0  0  0
    6.2042  -13.5777   26.8030 C   0  0  0  0  0  0  0  0  0  0  0  0
    7.6649  -18.0774   26.6535 C   0  0  0  0  0  0  0  0  0  0  0  0
    8.5812  -18.5852   27.5632 O   0  0  0  0  0  0  0  0  0  0  0  0
    6.7357  -18.8167   26.2486 O   0  0  0  0  0  0  0  0  0  0  0  0
  1  5  1  0
  1  2  1  0
  2  3  1  0
  4  3  1  0
  5  4  1  0
  5  6  1  1
  7  6  2  0
  8  9  1  0
 10  9  1  0
 11 10  1  0
 12 11  1  6
 12 13  1  0
 13  6  1  0
 14 12  1  0
 14 15  2  0
 16 14  1  0
 17 16  1  0
 17 18  1  1
 19 20  2  0
 19 18  1  0
 21 20  1  0
 22 21  2  0
 23 22  1  0
 23 24  2  0
 24 19  1  0
 25 17  1  0
 26 25  1  0
 27 25  2  0
M  END
$$$$
