PMF.pdb
     RDKit          3D

 27 28  0  0  1  0  0  0  0  0999 V2000
    7.6723  -19.4614   20.6564 N   0  0  0  0  0  0  0  0  0  0  0  0
    7.1949  -20.4138   19.6641 C   0  0  0  0  0  0  0  0  0  0  0  0
    7.4013  -19.7775   18.3092 C   0  0  0  0  0  0  0  0  0  0  0  0
    8.0867  -18.4449   18.6436 C   0  0  0  0  0  0  0  0  0  0  0  0
    8.7379  -18.8106   19.9613 C   0  0  1  0  0  0  0  0  0  0  0  0
    9.2765  -17.6438   20.6882 C   0  0  0  0  0  0  0  0  0  0  0  0
   10.4981  -17.3747   20.6495 O   0  0  0  0  0  0  0  0  0  0  0  0
    6.4398  -12.7643   18.8506 C   0  0  0  0  0  0  0  0  0  0  0  0
    7.7838  -12.2621   19.9541 S   0  0  0  0  0  0  0  0  0  0  0  0
    8.7521  -13.7775   20.3457 C   0  0  0  0  0  0  0  0  0  0  0  0
    8.1618  -14.3382   21.5894 C   0  0  0  0  0  0  0  0  0  0  0  0
    8.7988  -15.5925   22.1138 C   0  0  2  0  0  0  0  0  0  0  0  0
    8.4199  -16.8030   21.4459 N   0  0  0  0  0  0  0  0  0  0  0  0
    8.7864  -15.6532   23.5876 C   0  0  0  0  0  0  0  0  0  0  0  0
    7.6510  -15.7920   24.1370 O   0  0  0  0  0  0  0  0  0  0  0  0
    9.9026  -15.5693   24.4424 N   0  0  0  0  0  0  0  0  0  0  0  0
    9.7609  -15.6310   25.9071 C   0  0  1  0  0  0  0  0  0  0  0  0
    8.2900  -15.5113   26.1888 C   0  0  0  0  0  0  0  0  0  0  0  0
    7.8325  -14.1337   26.4003 C   0  0  0  0  0  0  0  0  0  0  0  0
    8.6113  -13.0990   26.8613 C   0  0  0  0  0  0  0  0  0  0  0  0
    8.0970  -11.8105   27.0259 C   0  0  0  0  0  0  0  0  0  0  0  0
    6.7880  -11.5604   26.7248 C   0  0  0  0  0  0  0  0  0  0  0  0
    6.0049  -12.5892   26.2645 C   0  0  0  0  0  0  0  0  0  0  0  0
    6.4980  -13.8644   26.0970 C   0  0  0  0  0  0  0  0  0  0  0  0
   10.2431  -16.9471   26.3779 C   0  0  0  0  0  0  0  0  0  0  0  0
   10.6002  -17.1788   27.6984 O   0  0  0  0  0  0  0  0  0  0  0  0
   10.3312  -17.8857   25.5500 O   0  0  0  0  0  0  0  0  0  0  0  0
  1  5  1  0
  1  2  1  0
  2  3  1  0
  4  3  1  0
  5  4  1  0
  5  6  1  1
  7  6  2  0
  8  9  1  0
 10  9  1  0
 11 10  1  0
 12 11  1  1
 12 13  1  0
 13  6  1  0
 14 12  1  0
 14 15  2  0
 16 14  1  0
 17 16  1  0
 17 18  1  6
 19 20  2  0
 19 18  1  0
 21 20  1  0
 22 21  2  0
 23 22  1  0
 23 24  2  0
 24 19  1  0
 25 17  1  0
 26 25  1  0
 27 25  2  0
M  END
$$$$
