PMF.pdb
     RDKit          3D

 27 28  0  0  1  0  0  0  0  0999 V2000
    8.2420  -15.2642   19.1319 N   0  0  0  0  0  0  0  0  0  0  0  0
    8.4815  -14.4663   17.9379 C   0  0  0  0  0  0  0  0  0  0  0  0
    7.9325  -13.0859   18.2144 C   0  0  0  0  0  0  0  0  0  0  0  0
    7.4441  -13.1825   19.6668 C   0  0  0  0  0  0  0  0  0  0  0  0
    8.3462  -14.2895   20.1717 C   0  0  1  0  0  0  0  0  0  0  0  0
    7.9461  -14.8086   21.4947 C   0  0  0  0  0  0  0  0  0  0  0  0
    7.9335  -14.0604   22.4979 O   0  0  0  0  0  0  0  0  0  0  0  0
    6.9786  -21.2460   22.7127 C   0  0  0  0  0  0  0  0  0  0  0  0
    5.5276  -20.5054   23.5015 S   0  0  0  0  0  0  0  0  0  0  0  0
    5.9809  -18.7779   23.9461 C   0  0  0  0  0  0  0  0  0  0  0  0
    6.5894  -18.1812   22.7283 C   0  0  0  0  0  0  0  0  0  0  0  0
    7.0949  -16.7743   22.8659 C   0  0  2  0  0  0  0  0  0  0  0  0
    7.5674  -16.1670   21.6564 N   0  0  0  0  0  0  0  0  0  0  0  0
    7.9699  -16.6057   24.0415 C   0  0  0  0  0  0  0  0  0  0  0  0
    9.2147  -16.7528   23.8439 O   0  0  0  0  0  0  0  0  0  0  0  0
    7.5640  -16.3031   25.3557 N   0  0  0  0  0  0  0  0  0  0  0  0
    8.5401  -15.9914   26.4138 C   0  0  1  0  0  0  0  0  0  0  0  0
    7.8135  -15.1351   27.4118 C   0  0  0  0  0  0  0  0  0  0  0  0
    7.4044  -13.8265   26.8903 C   0  0  0  0  0  0  0  0  0  0  0  0
    8.2549  -12.7905   26.5858 C   0  0  0  0  0  0  0  0  0  0  0  0
    7.7814  -11.5759   26.0832 C   0  0  0  0  0  0  0  0  0  0  0  0
    6.4407  -11.4016   25.8856 C   0  0  0  0  0  0  0  0  0  0  0  0
    5.5861  -12.4320   26.1880 C   0  0  0  0  0  0  0  0  0  0  0  0
    6.0383  -13.6348   26.6839 C   0  0  0  0  0  0  0  0  0  0  0  0
    8.9578  -17.2521   27.0638 C   0  0  0  0  0  0  0  0  0  0  0  0
    8.4095  -18.4804   26.7240 O   0  0  0  0  0  0  0  0  0  0  0  0
    9.8401  -17.2049   27.9544 O   0  0  0  0  0  0  0  0  0  0  0  0
  1  5  1  0
  1  2  1  0
  2  3  1  0
  4  3  1  0
  5  4  1  0
  5  6  1  1
  7  6  2  0
  8  9  1  0
 10  9  1  0
 11 10  1  0
 12 11  1  6
 12 13  1  0
 13  6  1  0
 14 12  1  0
 14 15  2  0
 16 14  1  0
 17 16  1  0
 17 18  1  1
 19 20  2  0
 19 18  1  0
 21 20  1  0
 22 21  2  0
 23 22  1  0
 23 24  2  0
 24 19  1  0
 25 17  1  0
 26 25  1  0
 27 25  2  0
M  END
$$$$
