PMF.pdb
     RDKit          3D

 27 28  0  0  1  0  0  0  0  0999 V2000
    9.1077  -15.1061   17.5875 N   0  0  0  0  0  0  0  0  0  0  0  0
    9.2099  -14.2226   16.4348 C   0  0  0  0  0  0  0  0  0  0  0  0
    8.1339  -13.1728   16.5890 C   0  0  0  0  0  0  0  0  0  0  0  0
    7.4933  -13.5171   17.9412 C   0  0  0  0  0  0  0  0  0  0  0  0
    8.6584  -14.2157   18.6110 C   0  0  1  0  0  0  0  0  0  0  0  0
    8.2820  -14.9097   19.8586 C   0  0  0  0  0  0  0  0  0  0  0  0
    7.7280  -14.2888   20.7933 O   0  0  0  0  0  0  0  0  0  0  0  0
    7.9329  -21.7323   20.6142 C   0  0  0  0  0  0  0  0  0  0  0  0
    8.9424  -21.0408   21.9480 S   0  0  0  0  0  0  0  0  0  0  0  0
    8.2901  -19.3554   22.2968 C   0  0  0  0  0  0  0  0  0  0  0  0
    8.6593  -18.5163   21.1267 C   0  0  0  0  0  0  0  0  0  0  0  0
    8.1933  -17.0897   21.1656 C   0  0  2  0  0  0  0  0  0  0  0  0
    8.5404  -16.2956   20.0237 N   0  0  0  0  0  0  0  0  0  0  0  0
    8.4386  -16.4556   22.4747 C   0  0  0  0  0  0  0  0  0  0  0  0
    9.6398  -16.1364   22.7306 O   0  0  0  0  0  0  0  0  0  0  0  0
    7.4787  -16.1736   23.4658 N   0  0  0  0  0  0  0  0  0  0  0  0
    7.7983  -15.3383   24.6361 C   0  0  1  0  0  0  0  0  0  0  0  0
    6.8285  -14.1912   24.6065 C   0  0  0  0  0  0  0  0  0  0  0  0
    6.9462  -13.2799   25.7501 C   0  0  0  0  0  0  0  0  0  0  0  0
    5.9750  -13.0646   26.6986 C   0  0  0  0  0  0  0  0  0  0  0  0
    6.1728  -12.1832   27.7644 C   0  0  0  0  0  0  0  0  0  0  0  0
    7.3576  -11.5121   27.8770 C   0  0  0  0  0  0  0  0  0  0  0  0
    8.3313  -11.7222   26.9329 C   0  0  0  0  0  0  0  0  0  0  0  0
    8.1507  -12.5881   25.8770 C   0  0  0  0  0  0  0  0  0  0  0  0
    7.5783  -16.1328   25.8636 C   0  0  0  0  0  0  0  0  0  0  0  0
    8.3730  -15.9923   26.9921 O   0  0  0  0  0  0  0  0  0  0  0  0
    6.6378  -16.9630   25.8810 O   0  0  0  0  0  0  0  0  0  0  0  0
  1  5  1  0
  1  2  1  0
  2  3  1  0
  4  3  1  0
  5  4  1  0
  5  6  1  1
  7  6  2  0
  8  9  1  0
 10  9  1  0
 11 10  1  0
 12 11  1  1
 12 13  1  0
 13  6  1  0
 14 12  1  0
 14 15  2  0
 16 14  1  0
 17 16  1  0
 17 18  1  1
 19 20  2  0
 19 18  1  0
 21 20  1  0
 22 21  2  0
 23 22  1  0
 23 24  2  0
 24 19  1  0
 25 17  1  0
 26 25  1  0
 27 25  2  0
M  END
$$$$
