PMF.pdb
     RDKit          3D

 27 28  0  0  1  0  0  0  0  0999 V2000
    8.2621  -14.9912   19.0320 N   0  0  0  0  0  0  0  0  0  0  0  0
    8.6501  -14.2030   17.8710 C   0  0  0  0  0  0  0  0  0  0  0  0
    8.2160  -12.7809   18.1403 C   0  0  0  0  0  0  0  0  0  0  0  0
    7.6298  -12.8511   19.5576 C   0  0  0  0  0  0  0  0  0  0  0  0
    8.3908  -14.0451   20.0953 C   0  0  1  0  0  0  0  0  0  0  0  0
    7.8612  -14.5424   21.3806 C   0  0  0  0  0  0  0  0  0  0  0  0
    7.8231  -13.7991   22.3868 O   0  0  0  0  0  0  0  0  0  0  0  0
    2.8974  -19.2522   21.9898 C   0  0  0  0  0  0  0  0  0  0  0  0
    4.4670  -19.4565   21.1119 S   0  0  0  0  0  0  0  0  0  0  0  0
    5.3050  -17.8178   21.1213 C   0  0  0  0  0  0  0  0  0  0  0  0
    6.0014  -17.7145   22.4304 C   0  0  0  0  0  0  0  0  0  0  0  0
    6.7785  -16.4516   22.6656 C   0  0  2  0  0  0  0  0  0  0  0  0
    7.3841  -15.8737   21.5018 N   0  0  0  0  0  0  0  0  0  0  0  0
    7.6497  -16.5425   23.8525 C   0  0  0  0  0  0  0  0  0  0  0  0
    8.8785  -16.7716   23.6340 O   0  0  0  0  0  0  0  0  0  0  0  0
    7.2558  -16.4051   25.1976 N   0  0  0  0  0  0  0  0  0  0  0  0
    8.2396  -16.3916   26.2937 C   0  0  1  0  0  0  0  0  0  0  0  0
    7.6274  -15.5707   27.3930 C   0  0  0  0  0  0  0  0  0  0  0  0
    7.4045  -14.1655   27.0357 C   0  0  0  0  0  0  0  0  0  0  0  0
    8.3755  -13.1939   26.9858 C   0  0  0  0  0  0  0  0  0  0  0  0
    8.0781  -11.8771   26.6259 C   0  0  0  0  0  0  0  0  0  0  0  0
    6.7929  -11.5343   26.3139 C   0  0  0  0  0  0  0  0  0  0  0  0
    5.8185  -12.4996   26.3622 C   0  0  0  0  0  0  0  0  0  0  0  0
    6.0967  -13.8017   26.7150 C   0  0  0  0  0  0  0  0  0  0  0  0
    8.4402  -17.7765   26.7716 C   0  0  0  0  0  0  0  0  0  0  0  0
    7.6729  -18.8385   26.3152 O   0  0  0  0  0  0  0  0  0  0  0  0
    9.3377  -17.9946   27.6206 O   0  0  0  0  0  0  0  0  0  0  0  0
  1  5  1  0
  1  2  1  0
  2  3  1  0
  4  3  1  0
  5  4  1  0
  5  6  1  1
  7  6  2  0
  8  9  1  0
 10  9  1  0
 11 10  1  0
 12 11  1  6
 12 13  1  0
 13  6  1  0
 14 12  1  0
 14 15  2  0
 16 14  1  0
 17 16  1  0
 17 18  1  1
 19 20  2  0
 19 18  1  0
 21 20  1  0
 22 21  2  0
 23 22  1  0
 23 24  2  0
 24 19  1  0
 25 17  1  0
 26 25  1  0
 27 25  2  0
M  END
$$$$
