PMF.pdb
     RDKit          3D

 27 28  0  0  1  0  0  0  0  0999 V2000
    7.4475  -15.2268   19.3044 N   0  0  0  0  0  0  0  0  0  0  0  0
    7.0974  -14.8018   17.9567 C   0  0  0  0  0  0  0  0  0  0  0  0
    7.3923  -13.3221   17.8720 C   0  0  0  0  0  0  0  0  0  0  0  0
    7.9900  -12.9999   19.2491 C   0  0  0  0  0  0  0  0  0  0  0  0
    8.5405  -14.3616   19.6190 C   0  0  1  0  0  0  0  0  0  0  0  0
    8.9653  -14.4541   21.0300 C   0  0  0  0  0  0  0  0  0  0  0  0
   10.1662  -14.3019   21.3473 O   0  0  0  0  0  0  0  0  0  0  0  0
    6.2996  -11.2232   26.2630 C   0  0  0  0  0  0  0  0  0  0  0  0
    5.8290  -12.9688   26.3510 S   0  0  0  0  0  0  0  0  0  0  0  0
    7.2564  -13.9426   25.7172 C   0  0  0  0  0  0  0  0  0  0  0  0
    7.0596  -14.0612   24.2487 C   0  0  0  0  0  0  0  0  0  0  0  0
    8.2372  -14.5632   23.4644 C   0  0  2  0  0  0  0  0  0  0  0  0
    8.0203  -14.7176   22.0558 N   0  0  0  0  0  0  0  0  0  0  0  0
    8.9109  -15.6954   24.1281 C   0  0  0  0  0  0  0  0  0  0  0  0
    8.4430  -16.8500   23.8871 O   0  0  0  0  0  0  0  0  0  0  0  0
   10.0137  -15.6234   25.0011 N   0  0  0  0  0  0  0  0  0  0  0  0
   10.7861  -16.8217   25.3711 C   0  0  1  0  0  0  0  0  0  0  0  0
   11.8918  -16.3438   26.2691 C   0  0  0  0  0  0  0  0  0  0  0  0
   11.4247  -15.6492   27.4738 C   0  0  0  0  0  0  0  0  0  0  0  0
   11.3017  -16.2149   28.7205 C   0  0  0  0  0  0  0  0  0  0  0  0
   10.8561  -15.4772   29.8202 C   0  0  0  0  0  0  0  0  0  0  0  0
   10.5310  -14.1593   29.6645 C   0  0  0  0  0  0  0  0  0  0  0  0
   10.6511  -13.5886   28.4222 C   0  0  0  0  0  0  0  0  0  0  0  0
   11.0891  -14.3031   27.3291 C   0  0  0  0  0  0  0  0  0  0  0  0
    9.9074  -17.7416   26.1249 C   0  0  0  0  0  0  0  0  0  0  0  0
   10.3042  -19.0220   26.4825 O   0  0  0  0  0  0  0  0  0  0  0  0
    8.7624  -17.3459   26.4509 O   0  0  0  0  0  0  0  0  0  0  0  0
  1  5  1  0
  1  2  1  0
  2  3  1  0
  4  3  1  0
  5  4  1  0
  5  6  1  1
  7  6  2  0
  8  9  1  0
 10  9  1  0
 11 10  1  0
 12 11  1  1
 12 13  1  0
 13  6  1  0
 14 12  1  0
 14 15  2  0
 16 14  1  0
 17 16  1  0
 17 18  1  1
 19 20  2  0
 19 18  1  0
 21 20  1  0
 22 21  2  0
 23 22  1  0
 23 24  2  0
 24 19  1  0
 25 17  1  0
 26 25  1  0
 27 25  2  0
M  END
$$$$
