PMF.pdb
     RDKit          3D

 27 28  0  0  1  0  0  0  0  0999 V2000
    7.5186  -18.2043   20.6549 N   0  0  0  0  0  0  0  0  0  0  0  0
    6.9367  -18.9159   19.5259 C   0  0  0  0  0  0  0  0  0  0  0  0
    6.8055  -17.9185   18.3983 C   0  0  0  0  0  0  0  0  0  0  0  0
    7.4223  -16.6395   18.9822 C   0  0  0  0  0  0  0  0  0  0  0  0
    8.3579  -17.2461   20.0072 C   0  0  1  0  0  0  0  0  0  0  0  0
    8.9263  -16.2507   20.9378 C   0  0  0  0  0  0  0  0  0  0  0  0
   10.0199  -15.6952   20.6899 O   0  0  0  0  0  0  0  0  0  0  0  0
    6.8960  -11.1531   26.6287 C   0  0  0  0  0  0  0  0  0  0  0  0
    6.4268  -12.5118   25.5288 S   0  0  0  0  0  0  0  0  0  0  0  0
    7.9635  -13.0786   24.6894 C   0  0  0  0  0  0  0  0  0  0  0  0
    7.5472  -14.1320   23.7268 C   0  0  0  0  0  0  0  0  0  0  0  0
    8.6566  -14.9131   23.0841 C   0  0  2  0  0  0  0  0  0  0  0  0
    8.2440  -15.9031   22.1330 N   0  0  0  0  0  0  0  0  0  0  0  0
    9.6677  -15.3583   24.0616 C   0  0  0  0  0  0  0  0  0  0  0  0
   10.5325  -14.4977   24.4103 O   0  0  0  0  0  0  0  0  0  0  0  0
    9.7713  -16.6378   24.6410 N   0  0  0  0  0  0  0  0  0  0  0  0
   10.8499  -16.9732   25.5863 C   0  0  1  0  0  0  0  0  0  0  0  0
   10.1820  -17.2246   26.9084 C   0  0  0  0  0  0  0  0  0  0  0  0
    9.8105  -16.0036   27.6316 C   0  0  0  0  0  0  0  0  0  0  0  0
    8.6041  -15.3532   27.5269 C   0  0  0  0  0  0  0  0  0  0  0  0
    8.3278  -14.1969   28.2608 C   0  0  0  0  0  0  0  0  0  0  0  0
    9.2731  -13.6901   29.1070 C   0  0  0  0  0  0  0  0  0  0  0  0
   10.4800  -14.3344   29.2158 C   0  0  0  0  0  0  0  0  0  0  0  0
   10.7666  -15.4751   28.4990 C   0  0  0  0  0  0  0  0  0  0  0  0
   11.5147  -18.2130   25.1310 C   0  0  0  0  0  0  0  0  0  0  0  0
   12.6429  -18.7239   25.7562 O   0  0  0  0  0  0  0  0  0  0  0  0
   11.0380  -18.8220   24.1431 O   0  0  0  0  0  0  0  0  0  0  0  0
  1  5  1  0
  1  2  1  0
  2  3  1  0
  4  3  1  0
  5  4  1  0
  5  6  1  1
  7  6  2  0
  8  9  1  0
 10  9  1  0
 11 10  1  0
 12 11  1  1
 12 13  1  0
 13  6  1  0
 14 12  1  0
 14 15  2  0
 16 14  1  0
 17 16  1  0
 17 18  1  1
 19 20  2  0
 19 18  1  0
 21 20  1  0
 22 21  2  0
 23 22  1  0
 23 24  2  0
 24 19  1  0
 25 17  1  0
 26 25  1  0
 27 25  2  0
M  END
$$$$
