PMF.pdb
     RDKit          3D

 27 28  0  0  1  0  0  0  0  0999 V2000
    8.5669  -15.1327   19.1342 N   0  0  0  0  0  0  0  0  0  0  0  0
    8.8164  -14.3426   17.9370 C   0  0  0  0  0  0  0  0  0  0  0  0
    8.0464  -13.0519   18.0941 C   0  0  0  0  0  0  0  0  0  0  0  0
    7.4225  -13.1785   19.4912 C   0  0  0  0  0  0  0  0  0  0  0  0
    8.4153  -14.1240   20.1350 C   0  0  1  0  0  0  0  0  0  0  0  0
    7.9535  -14.6587   21.4314 C   0  0  0  0  0  0  0  0  0  0  0  0
    7.6544  -13.8879   22.3708 O   0  0  0  0  0  0  0  0  0  0  0  0
    5.8413  -20.7789   23.4036 C   0  0  0  0  0  0  0  0  0  0  0  0
    6.1235  -20.3898   21.6586 S   0  0  0  0  0  0  0  0  0  0  0  0
    6.3409  -18.5658   21.5433 C   0  0  0  0  0  0  0  0  0  0  0  0
    7.1226  -18.1636   22.7419 C   0  0  0  0  0  0  0  0  0  0  0  0
    7.4457  -16.7021   22.8580 C   0  0  2  0  0  0  0  0  0  0  0  0
    7.8390  -16.0582   21.6391 N   0  0  0  0  0  0  0  0  0  0  0  0
    8.2909  -16.4065   24.0303 C   0  0  0  0  0  0  0  0  0  0  0  0
    9.5417  -16.3499   23.8241 O   0  0  0  0  0  0  0  0  0  0  0  0
    7.8513  -16.1856   25.3499 N   0  0  0  0  0  0  0  0  0  0  0  0
    8.7861  -15.8042   26.4224 C   0  0  1  0  0  0  0  0  0  0  0  0
    7.9976  -14.9576   27.3808 C   0  0  0  0  0  0  0  0  0  0  0  0
    7.5343  -13.6867   26.8133 C   0  0  0  0  0  0  0  0  0  0  0  0
    8.2531  -12.8908   25.9535 C   0  0  0  0  0  0  0  0  0  0  0  0
    7.7319  -11.6959   25.4509 C   0  0  0  0  0  0  0  0  0  0  0  0
    6.4771  -11.2978   25.8165 C   0  0  0  0  0  0  0  0  0  0  0  0
    5.7543  -12.0878   26.6750 C   0  0  0  0  0  0  0  0  0  0  0  0
    6.2548  -13.2682   27.1784 C   0  0  0  0  0  0  0  0  0  0  0  0
    9.2435  -17.0285   27.1141 C   0  0  0  0  0  0  0  0  0  0  0  0
   10.2710  -17.0154   28.0463 O   0  0  0  0  0  0  0  0  0  0  0  0
    8.6794  -18.1164   26.8453 O   0  0  0  0  0  0  0  0  0  0  0  0
  1  5  1  0
  1  2  1  0
  2  3  1  0
  4  3  1  0
  5  4  1  0
  5  6  1  1
  7  6  2  0
  8  9  1  0
 10  9  1  0
 11 10  1  0
 12 11  1  6
 12 13  1  0
 13  6  1  0
 14 12  1  0
 14 15  2  0
 16 14  1  0
 17 16  1  0
 17 18  1  1
 19 20  2  0
 19 18  1  0
 21 20  1  0
 22 21  2  0
 23 22  1  0
 23 24  2  0
 24 19  1  0
 25 17  1  0
 26 25  1  0
 27 25  2  0
M  END
$$$$
