PMF.pdb
     RDKit          3D

 27 28  0  0  1  0  0  0  0  0999 V2000
    8.5829  -14.6098   19.1889 N   0  0  0  0  0  0  0  0  0  0  0  0
    8.4679  -13.6535   18.0972 C   0  0  0  0  0  0  0  0  0  0  0  0
    7.3881  -12.6704   18.4860 C   0  0  0  0  0  0  0  0  0  0  0  0
    6.9813  -13.1284   19.8938 C   0  0  0  0  0  0  0  0  0  0  0  0
    8.2640  -13.8072   20.3275 C   0  0  1  0  0  0  0  0  0  0  0  0
    8.1155  -14.5942   21.5679 C   0  0  0  0  0  0  0  0  0  0  0  0
    7.6470  -14.0718   22.6042 O   0  0  0  0  0  0  0  0  0  0  0  0
   10.6251  -20.4504   20.7226 C   0  0  0  0  0  0  0  0  0  0  0  0
    8.8194  -20.4733   20.8453 S   0  0  0  0  0  0  0  0  0  0  0  0
    8.2677  -18.7222   20.9760 C   0  0  0  0  0  0  0  0  0  0  0  0
    8.5000  -18.3174   22.3873 C   0  0  0  0  0  0  0  0  0  0  0  0
    8.2831  -16.8652   22.7005 C   0  0  2  0  0  0  0  0  0  0  0  0
    8.5011  -15.9595   21.6109 N   0  0  0  0  0  0  0  0  0  0  0  0
    8.8967  -16.4708   23.9827 C   0  0  0  0  0  0  0  0  0  0  0  0
   10.0830  -16.0239   23.9265 O   0  0  0  0  0  0  0  0  0  0  0  0
    8.3022  -16.5438   25.2573 N   0  0  0  0  0  0  0  0  0  0  0  0
    9.0179  -16.1115   26.4699 C   0  0  1  0  0  0  0  0  0  0  0  0
    8.0061  -15.3935   27.3172 C   0  0  0  0  0  0  0  0  0  0  0  0
    7.5142  -14.1429   26.7291 C   0  0  0  0  0  0  0  0  0  0  0  0
    6.3209  -13.9923   26.0637 C   0  0  0  0  0  0  0  0  0  0  0  0
    5.9231  -12.7595   25.5403 C   0  0  0  0  0  0  0  0  0  0  0  0
    6.7327  -11.6687   25.6870 C   0  0  0  0  0  0  0  0  0  0  0  0
    7.9258  -11.8124   26.3500 C   0  0  0  0  0  0  0  0  0  0  0  0
    8.3310  -13.0212   26.8714 C   0  0  0  0  0  0  0  0  0  0  0  0
    9.4988  -17.3088   27.1922 C   0  0  0  0  0  0  0  0  0  0  0  0
   10.3936  -17.2292   28.2495 O   0  0  0  0  0  0  0  0  0  0  0  0
    9.0802  -18.4355   26.8326 O   0  0  0  0  0  0  0  0  0  0  0  0
  1  5  1  0
  1  2  1  0
  2  3  1  0
  4  3  1  0
  5  4  1  0
  5  6  1  1
  7  6  2  0
  8  9  1  0
 10  9  1  0
 11 10  1  0
 12 11  1  6
 12 13  1  0
 13  6  1  0
 14 12  1  0
 14 15  2  0
 16 14  1  0
 17 16  1  0
 17 18  1  1
 19 20  2  0
 19 18  1  0
 21 20  1  0
 22 21  2  0
 23 22  1  0
 23 24  2  0
 24 19  1  0
 25 17  1  0
 26 25  1  0
 27 25  2  0
M  END
$$$$
