PMF.pdb
     RDKit          3D

 27 28  0  0  1  0  0  0  0  0999 V2000
    8.4758  -14.9158   19.2128 N   0  0  0  0  0  0  0  0  0  0  0  0
    8.6924  -14.0151   18.0897 C   0  0  0  0  0  0  0  0  0  0  0  0
    7.7947  -12.8190   18.3062 C   0  0  0  0  0  0  0  0  0  0  0  0
    7.1334  -13.1120   19.6605 C   0  0  0  0  0  0  0  0  0  0  0  0
    8.1885  -14.0067   20.2773 C   0  0  1  0  0  0  0  0  0  0  0  0
    7.7321  -14.6817   21.5085 C   0  0  0  0  0  0  0  0  0  0  0  0
    7.3979  -14.0176   22.5153 O   0  0  0  0  0  0  0  0  0  0  0  0
    4.7640  -21.2235   22.7880 C   0  0  0  0  0  0  0  0  0  0  0  0
    6.5232  -20.8855   23.0472 S   0  0  0  0  0  0  0  0  0  0  0  0
    6.6544  -19.1486   23.6418 C   0  0  0  0  0  0  0  0  0  0  0  0
    7.0746  -18.3382   22.4687 C   0  0  0  0  0  0  0  0  0  0  0  0
    7.2742  -16.8714   22.7186 C   0  0  2  0  0  0  0  0  0  0  0  0
    7.6628  -16.0978   21.5759 N   0  0  0  0  0  0  0  0  0  0  0  0
    8.0453  -16.6124   23.9492 C   0  0  0  0  0  0  0  0  0  0  0  0
    9.3089  -16.6068   23.8325 O   0  0  0  0  0  0  0  0  0  0  0  0
    7.5225  -16.3756   25.2353 N   0  0  0  0  0  0  0  0  0  0  0  0
    8.3996  -16.1547   26.3977 C   0  0  1  0  0  0  0  0  0  0  0  0
    7.6303  -15.2711   27.3382 C   0  0  0  0  0  0  0  0  0  0  0  0
    7.4175  -13.9086   26.8381 C   0  0  0  0  0  0  0  0  0  0  0  0
    6.2253  -13.4112   26.3682 C   0  0  0  0  0  0  0  0  0  0  0  0
    6.1066  -12.0942   25.9173 C   0  0  0  0  0  0  0  0  0  0  0  0
    7.1964  -11.2704   25.9387 C   0  0  0  0  0  0  0  0  0  0  0  0
    8.3898  -11.7610   26.4063 C   0  0  0  0  0  0  0  0  0  0  0  0
    8.5219  -13.0568   26.8542 C   0  0  0  0  0  0  0  0  0  0  0  0
    8.6609  -17.4547   27.0519 C   0  0  0  0  0  0  0  0  0  0  0  0
    9.6629  -17.6231   27.9965 O   0  0  0  0  0  0  0  0  0  0  0  0
    7.9482  -18.4386   26.7386 O   0  0  0  0  0  0  0  0  0  0  0  0
  1  5  1  0
  1  2  1  0
  2  3  1  0
  4  3  1  0
  5  4  1  0
  5  6  1  1
  7  6  2  0
  8  9  1  0
 10  9  1  0
 11 10  1  0
 12 11  1  6
 12 13  1  0
 13  6  1  0
 14 12  1  0
 14 15  2  0
 16 14  1  0
 17 16  1  0
 17 18  1  1
 19 20  2  0
 19 18  1  0
 21 20  1  0
 22 21  2  0
 23 22  1  0
 23 24  2  0
 24 19  1  0
 25 17  1  0
 26 25  1  0
 27 25  2  0
M  END
$$$$
