ATG.pdb
     RDKit          3D

 17 16  0  0  1  0  0  0  0  0999 V2000
   16.9136  -10.6277  -15.3571 C   0  0  0  0  0  0  0  0  0  0  0  0
   18.0327  -11.3177  -16.0790 C   0  0  2  0  0  0  0  0  0  0  0  0
   18.0073  -12.7161  -15.6949 N   0  0  0  0  0  0  0  0  0  0  0  0
   19.3432  -10.7077  -15.8536 C   0  0  0  0  0  0  0  0  0  0  0  0
   20.0509  -11.0395  -14.8910 O   0  0  0  0  0  0  0  0  0  0  0  0
   22.0041  -10.4519  -18.6027 C   0  0  0  0  0  0  0  0  0  0  0  0
   21.8615   -9.0771  -17.9849 C   0  0  1  0  0  0  0  0  0  0  0  0
   21.1485   -8.3005  -18.9094 O   0  0  0  0  0  0  0  0  0  0  0  0
   21.1102   -9.1038  -16.6901 C   0  0  2  0  0  0  0  0  0  0  0  0
   19.8325   -9.7243  -16.7303 N   0  0  0  0  0  0  0  0  0  0  0  0
   21.0532   -7.7690  -16.0389 C   0  0  0  0  0  0  0  0  0  0  0  0
   20.0264   -7.0445  -16.0556 O   0  0  0  0  0  0  0  0  0  0  0  0
   22.1924   -7.2592  -15.3586 N   0  0  0  0  0  0  0  0  0  0  0  0
   22.2220   -5.9410  -14.7612 C   0  0  0  0  0  0  0  0  0  0  0  0
   21.9471   -5.9750  -13.3127 C   0  0  0  0  0  0  0  0  0  0  0  0
   20.9689   -6.6491  -12.9029 O   0  0  0  0  0  0  0  0  0  0  0  0
   22.7141   -5.3021  -12.3949 O   0  0  0  0  0  0  0  0  0  0  0  0
  2  1  1  1
  2  4  1  0
  2  3  1  0
  4  5  2  0
  7  6  1  6
  8  7  1  0
  9  7  1  0
 10  4  1  0
  9 10  1  6
 11 12  2  0
 11  9  1  0
 13 11  1  0
 14 13  1  0
 14 15  1  0
 15 17  1  0
 16 15  2  0
M  END
$$$$
