ATG.pdb
     RDKit          3D

 17 16  0  0  1  0  0  0  0  0999 V2000
   25.2411  -11.7676  -15.2667 C   0  0  0  0  0  0  0  0  0  0  0  0
   23.7601  -11.7737  -15.5037 C   0  0  2  0  0  0  0  0  0  0  0  0
   23.4731  -12.8218  -16.4644 N   0  0  0  0  0  0  0  0  0  0  0  0
   23.2260  -10.4784  -15.9250 C   0  0  0  0  0  0  0  0  0  0  0  0
   23.4351  -10.0354  -17.0641 O   0  0  0  0  0  0  0  0  0  0  0  0
   20.1828   -9.4330  -16.8994 C   0  0  0  0  0  0  0  0  0  0  0  0
   20.4153   -8.4950  -15.7339 C   0  0  1  0  0  0  0  0  0  0  0  0
   19.6456   -8.9877  -14.6705 O   0  0  0  0  0  0  0  0  0  0  0  0
   21.8514   -8.4461  -15.3131 C   0  0  2  0  0  0  0  0  0  0  0  0
   22.4581   -9.7018  -15.0406 N   0  0  0  0  0  0  0  0  0  0  0  0
   22.0891   -7.4709  -14.2170 C   0  0  0  0  0  0  0  0  0  0  0  0
   22.4763   -7.8126  -13.0712 O   0  0  0  0  0  0  0  0  0  0  0  0
   21.8790   -6.0830  -14.4406 N   0  0  0  0  0  0  0  0  0  0  0  0
   22.1349   -5.0799  -13.4286 C   0  0  0  0  0  0  0  0  0  0  0  0
   21.7902   -3.7209  -13.8857 C   0  0  0  0  0  0  0  0  0  0  0  0
   21.4058   -3.5659  -15.0721 O   0  0  0  0  0  0  0  0  0  0  0  0
   21.8717   -2.6199  -13.0705 O   0  0  0  0  0  0  0  0  0  0  0  0
  2  1  1  6
  2  4  1  0
  2  3  1  0
  4  5  2  0
  7  6  1  6
  8  7  1  0
  9  7  1  0
 10  4  1  0
  9 10  1  1
 11 12  2  0
 11  9  1  0
 13 11  1  0
 14 13  1  0
 14 15  1  0
 15 17  1  0
 16 15  2  0
M  END
$$$$
