ATG.pdb
     RDKit          3D

 17 16  0  0  1  0  0  0  0  0999 V2000
   23.7256  -12.2350  -14.8310 C   0  0  0  0  0  0  0  0  0  0  0  0
   22.5726  -11.8189  -15.6953 C   0  0  2  0  0  0  0  0  0  0  0  0
   22.4878  -12.7582  -16.7972 N   0  0  0  0  0  0  0  0  0  0  0  0
   22.6533  -10.4330  -16.1572 C   0  0  0  0  0  0  0  0  0  0  0  0
   23.4325  -10.1004  -17.0626 O   0  0  0  0  0  0  0  0  0  0  0  0
   20.2915   -8.6546  -17.9585 C   0  0  0  0  0  0  0  0  0  0  0  0
   20.5012   -7.7397  -16.7705 C   0  0  1  0  0  0  0  0  0  0  0  0
   19.3784   -7.8993  -15.9460 O   0  0  0  0  0  0  0  0  0  0  0  0
   21.7312   -8.0844  -15.9895 C   0  0  2  0  0  0  0  0  0  0  0  0
   21.8428   -9.4405  -15.5801 N   0  0  0  0  0  0  0  0  0  0  0  0
   21.9681   -7.1476  -14.8603 C   0  0  0  0  0  0  0  0  0  0  0  0
   21.7370   -7.4499  -13.6625 O   0  0  0  0  0  0  0  0  0  0  0  0
   22.4778   -5.8445  -15.1108 N   0  0  0  0  0  0  0  0  0  0  0  0
   22.8270   -4.9236  -14.0499 C   0  0  0  0  0  0  0  0  0  0  0  0
   21.6971   -4.0584  -13.6634 C   0  0  0  0  0  0  0  0  0  0  0  0
   20.5675   -4.2861  -14.1648 O   0  0  0  0  0  0  0  0  0  0  0  0
   21.8277   -3.0161  -12.7801 O   0  0  0  0  0  0  0  0  0  0  0  0
  2  1  1  6
  2  4  1  0
  2  3  1  0
  4  5  2  0
  7  6  1  6
  8  7  1  0
  9  7  1  0
 10  4  1  0
  9 10  1  1
 11 12  2  0
 11  9  1  0
 13 11  1  0
 14 13  1  0
 14 15  1  0
 15 17  1  0
 16 15  2  0
M  END
$$$$
