ATG.pdb
     RDKit          3D

 17 16  0  0  1  0  0  0  0  0999 V2000
   17.5257  -10.5424  -18.0057 C   0  0  0  0  0  0  0  0  0  0  0  0
   18.5976  -11.5136  -17.6091 C   0  0  2  0  0  0  0  0  0  0  0  0
   17.9522  -12.7699  -17.2792 N   0  0  0  0  0  0  0  0  0  0  0  0
   19.4557  -11.0334  -16.5258 C   0  0  0  0  0  0  0  0  0  0  0  0
   19.0080  -10.8458  -15.3848 O   0  0  0  0  0  0  0  0  0  0  0  0
   23.9236  -10.5457  -14.5850 C   0  0  0  0  0  0  0  0  0  0  0  0
   23.0354  -11.0503  -15.7024 C   0  0  1  0  0  0  0  0  0  0  0  0
   22.7283  -12.3827  -15.3920 O   0  0  0  0  0  0  0  0  0  0  0  0
   21.7615  -10.2723  -15.8201 C   0  0  2  0  0  0  0  0  0  0  0  0
   20.8171  -10.7721  -16.7567 N   0  0  0  0  0  0  0  0  0  0  0  0
   21.9998   -8.8167  -16.0025 C   0  0  0  0  0  0  0  0  0  0  0  0
   22.5575   -8.3388  -17.0224 O   0  0  0  0  0  0  0  0  0  0  0  0
   21.5916   -7.8969  -14.9987 N   0  0  0  0  0  0  0  0  0  0  0  0
   21.7753   -6.4666  -15.1267 C   0  0  0  0  0  0  0  0  0  0  0  0
   22.1360   -5.8305  -13.8461 C   0  0  0  0  0  0  0  0  0  0  0  0
   22.1390   -6.5349  -12.8055 O   0  0  0  0  0  0  0  0  0  0  0  0
   22.4681   -4.5028  -13.7437 O   0  0  0  0  0  0  0  0  0  0  0  0
  2  1  1  1
  2  4  1  0
  2  3  1  0
  4  5  2  0
  7  6  1  1
  8  7  1  0
  9  7  1  0
 10  4  1  0
  9 10  1  6
 11 12  2  0
 11  9  1  0
 13 11  1  0
 14 13  1  0
 14 15  1  0
 15 17  1  0
 16 15  2  0
M  END
$$$$
