ATG.pdb
     RDKit          3D

 17 16  0  0  1  0  0  0  0  0999 V2000
   16.5908  -11.0811  -14.8527 C   0  0  0  0  0  0  0  0  0  0  0  0
   17.6548  -11.1035  -15.9097 C   0  0  2  0  0  0  0  0  0  0  0  0
   17.9347  -12.4919  -16.2220 N   0  0  0  0  0  0  0  0  0  0  0  0
   18.8642  -10.3661  -15.5433 C   0  0  0  0  0  0  0  0  0  0  0  0
   19.6359  -10.7885  -14.6695 O   0  0  0  0  0  0  0  0  0  0  0  0
   21.5651   -9.4884  -17.8800 C   0  0  0  0  0  0  0  0  0  0  0  0
   21.2047   -8.1796  -17.2096 C   0  0  1  0  0  0  0  0  0  0  0  0
   20.4863   -7.4355  -18.1563 O   0  0  0  0  0  0  0  0  0  0  0  0
   20.3524   -8.3720  -15.9937 C   0  0  2  0  0  0  0  0  0  0  0  0
   19.1800   -9.1531  -16.1789 N   0  0  0  0  0  0  0  0  0  0  0  0
   20.0566   -7.0919  -15.2992 C   0  0  0  0  0  0  0  0  0  0  0  0
   18.9402   -6.5188  -15.3700 O   0  0  0  0  0  0  0  0  0  0  0  0
   21.0577   -6.4608  -14.5118 N   0  0  0  0  0  0  0  0  0  0  0  0
   20.8112   -5.2517  -13.7548 C   0  0  0  0  0  0  0  0  0  0  0  0
   22.0259   -4.7517  -13.0847 C   0  0  0  0  0  0  0  0  0  0  0  0
   23.0304   -5.5043  -13.0226 O   0  0  0  0  0  0  0  0  0  0  0  0
   22.1050   -3.5004  -12.5267 O   0  0  0  0  0  0  0  0  0  0  0  0
  2  1  1  1
  2  4  1  0
  2  3  1  0
  4  5  2  0
  7  6  1  6
  8  7  1  0
  9  7  1  0
 10  4  1  0
  9 10  1  6
 11 12  2  0
 11  9  1  0
 13 11  1  0
 14 13  1  0
 14 15  1  0
 15 17  1  0
 16 15  2  0
M  END
$$$$
