ATG.pdb
     RDKit          3D

 17 16  0  0  1  0  0  0  0  0999 V2000
   16.9368  -10.9717  -14.4600 C   0  0  0  0  0  0  0  0  0  0  0  0
   17.8369  -11.3140  -15.6099 C   0  0  2  0  0  0  0  0  0  0  0  0
   17.8257  -12.7563  -15.7625 N   0  0  0  0  0  0  0  0  0  0  0  0
   19.1940  -10.7846  -15.4731 C   0  0  0  0  0  0  0  0  0  0  0  0
   20.1106  -11.4759  -15.0047 O   0  0  0  0  0  0  0  0  0  0  0  0
   21.3049   -9.5626  -18.1800 C   0  0  0  0  0  0  0  0  0  0  0  0
   21.3149   -8.4294  -17.1759 C   0  0  1  0  0  0  0  0  0  0  0  0
   20.5086   -7.4168  -17.7148 O   0  0  0  0  0  0  0  0  0  0  0  0
   20.7614   -8.8355  -15.8452 C   0  0  2  0  0  0  0  0  0  0  0  0
   19.4904   -9.4703  -15.8729 N   0  0  0  0  0  0  0  0  0  0  0  0
   20.8031   -7.7310  -14.8517 C   0  0  0  0  0  0  0  0  0  0  0  0
   19.7836   -7.0791  -14.5124 O   0  0  0  0  0  0  0  0  0  0  0  0
   22.0340   -7.3702  -14.2391 N   0  0  0  0  0  0  0  0  0  0  0  0
   22.1286   -6.3544  -13.2121 C   0  0  0  0  0  0  0  0  0  0  0  0
   22.1634   -4.9909  -13.7728 C   0  0  0  0  0  0  0  0  0  0  0  0
   22.0756   -4.8516  -15.0186 O   0  0  0  0  0  0  0  0  0  0  0  0
   22.2875   -3.8693  -12.9918 O   0  0  0  0  0  0  0  0  0  0  0  0
  2  1  1  1
  2  4  1  0
  2  3  1  0
  4  5  2  0
  7  6  1  6
  8  7  1  0
  9  7  1  0
 10  4  1  0
  9 10  1  6
 11 12  2  0
 11  9  1  0
 13 11  1  0
 14 13  1  0
 14 15  1  0
 15 17  1  0
 16 15  2  0
M  END
$$$$
