ATG.pdb
     RDKit          3D

 17 16  0  0  1  0  0  0  0  0999 V2000
   18.4321  -11.4162  -17.8950 C   0  0  0  0  0  0  0  0  0  0  0  0
   19.8558  -11.8657  -17.7511 C   0  0  2  0  0  0  0  0  0  0  0  0
   19.8477  -13.3075  -17.5941 N   0  0  0  0  0  0  0  0  0  0  0  0
   20.5776  -11.1973  -16.6680 C   0  0  0  0  0  0  0  0  0  0  0  0
   20.2649  -11.3734  -15.4811 O   0  0  0  0  0  0  0  0  0  0  0  0
   24.7213   -9.2885  -14.9890 C   0  0  0  0  0  0  0  0  0  0  0  0
   23.9394   -9.8418  -16.1615 C   0  0  1  0  0  0  0  0  0  0  0  0
   24.2134  -11.2162  -16.2058 O   0  0  0  0  0  0  0  0  0  0  0  0
   22.4627   -9.6448  -16.0121 C   0  0  2  0  0  0  0  0  0  0  0  0
   21.6497  -10.3341  -16.9518 N   0  0  0  0  0  0  0  0  0  0  0  0
   22.0887   -8.2101  -15.9091 C   0  0  0  0  0  0  0  0  0  0  0  0
   22.0925   -7.4310  -16.8953 O   0  0  0  0  0  0  0  0  0  0  0  0
   21.7048   -7.6625  -14.6548 N   0  0  0  0  0  0  0  0  0  0  0  0
   21.1965   -6.3145  -14.5123 C   0  0  0  0  0  0  0  0  0  0  0  0
   22.2618   -5.3428  -14.2030 C   0  0  0  0  0  0  0  0  0  0  0  0
   23.4267   -5.7713  -14.0066 O   0  0  0  0  0  0  0  0  0  0  0  0
   22.0342   -3.9919  -14.1209 O   0  0  0  0  0  0  0  0  0  0  0  0
  2  1  1  1
  2  4  1  0
  2  3  1  0
  4  5  2  0
  7  6  1  1
  8  7  1  0
  9  7  1  0
 10  4  1  0
  9 10  1  6
 11 12  2  0
 11  9  1  0
 13 11  1  0
 14 13  1  0
 14 15  1  0
 15 17  1  0
 16 15  2  0
M  END
$$$$
