ATG.pdb
     RDKit          3D

 17 16  0  0  1  0  0  0  0  0999 V2000
   15.5696  -10.4539  -14.7875 C   0  0  0  0  0  0  0  0  0  0  0  0
   16.7214  -10.9939  -15.5821 C   0  0  2  0  0  0  0  0  0  0  0  0
   16.6859  -12.4403  -15.4803 N   0  0  0  0  0  0  0  0  0  0  0  0
   18.0185  -10.4450  -15.1862 C   0  0  0  0  0  0  0  0  0  0  0  0
   18.6969  -10.9754  -14.2940 O   0  0  0  0  0  0  0  0  0  0  0  0
   20.9108  -10.2394  -17.2705 C   0  0  0  0  0  0  0  0  0  0  0  0
   20.7546   -8.8175  -16.7746 C   0  0  1  0  0  0  0  0  0  0  0  0
   20.2427   -8.0779  -17.8502 O   0  0  0  0  0  0  0  0  0  0  0  0
   19.8091   -8.7125  -15.6183 C   0  0  2  0  0  0  0  0  0  0  0  0
   18.5279   -9.2952  -15.8136 N   0  0  0  0  0  0  0  0  0  0  0  0
   19.7085   -7.3267  -15.0909 C   0  0  0  0  0  0  0  0  0  0  0  0
   18.7044   -6.5951  -15.2809 O   0  0  0  0  0  0  0  0  0  0  0  0
   20.7770   -6.7733  -14.3343 N   0  0  0  0  0  0  0  0  0  0  0  0
   20.6962   -5.4744  -13.7003 C   0  0  0  0  0  0  0  0  0  0  0  0
   21.9428   -5.1132  -13.0001 C   0  0  0  0  0  0  0  0  0  0  0  0
   22.7862   -6.0163  -12.7711 O   0  0  0  0  0  0  0  0  0  0  0  0
   22.2199   -3.8336  -12.5888 O   0  0  0  0  0  0  0  0  0  0  0  0
  2  1  1  1
  2  4  1  0
  2  3  1  0
  4  5  2  0
  7  6  1  6
  8  7  1  0
  9  7  1  0
 10  4  1  0
  9 10  1  6
 11 12  2  0
 11  9  1  0
 13 11  1  0
 14 13  1  0
 14 15  1  0
 15 17  1  0
 16 15  2  0
M  END
$$$$
