ATG.pdb
     RDKit          3D

 17 16  0  0  1  0  0  0  0  0999 V2000
   16.3917  -10.1947  -16.3511 C   0  0  0  0  0  0  0  0  0  0  0  0
   17.6820  -10.9348  -16.1586 C   0  0  2  0  0  0  0  0  0  0  0  0
   17.3610  -12.2495  -15.6369 N   0  0  0  0  0  0  0  0  0  0  0  0
   18.6462  -10.2275  -15.3156 C   0  0  0  0  0  0  0  0  0  0  0  0
   18.4889  -10.1437  -14.0885 O   0  0  0  0  0  0  0  0  0  0  0  0
   22.3124  -11.0071  -15.2447 C   0  0  0  0  0  0  0  0  0  0  0  0
   22.2144   -9.5123  -15.4643 C   0  0  1  0  0  0  0  0  0  0  0  0
   22.5289   -9.2896  -16.8124 O   0  0  0  0  0  0  0  0  0  0  0  0
   20.8421   -8.9798  -15.1905 C   0  0  2  0  0  0  0  0  0  0  0  0
   19.7808   -9.6227  -15.8830 N   0  0  0  0  0  0  0  0  0  0  0  0
   20.7696   -7.5013  -15.3233 C   0  0  0  0  0  0  0  0  0  0  0  0
   20.1946   -6.9295  -16.2835 O   0  0  0  0  0  0  0  0  0  0  0  0
   21.3664   -6.6677  -14.3388 N   0  0  0  0  0  0  0  0  0  0  0  0
   21.2506   -5.2248  -14.3607 C   0  0  0  0  0  0  0  0  0  0  0  0
   21.9646   -4.5875  -13.2388 C   0  0  0  0  0  0  0  0  0  0  0  0
   22.5011   -5.3234  -12.3729 O   0  0  0  0  0  0  0  0  0  0  0  0
   22.0674   -3.2259  -13.1012 O   0  0  0  0  0  0  0  0  0  0  0  0
  2  1  1  1
  2  4  1  0
  2  3  1  0
  4  5  2  0
  7  6  1  6
  8  7  1  0
  9  7  1  0
 10  4  1  0
  9 10  1  6
 11 12  2  0
 11  9  1  0
 13 11  1  0
 14 13  1  0
 14 15  1  0
 15 17  1  0
 16 15  2  0
M  END
$$$$
