ATG.pdb
     RDKit          3D

 17 16  0  0  1  0  0  0  0  0999 V2000
   15.5443   -8.3369  -16.0055 C   0  0  0  0  0  0  0  0  0  0  0  0
   16.3928   -9.5296  -15.6780 C   0  0  2  0  0  0  0  0  0  0  0  0
   15.5468  -10.5012  -15.0117 N   0  0  0  0  0  0  0  0  0  0  0  0
   17.5848   -9.2064  -14.8935 C   0  0  0  0  0  0  0  0  0  0  0  0
   17.5770   -9.2690  -13.6551 O   0  0  0  0  0  0  0  0  0  0  0  0
   21.6334   -9.5882  -16.3796 C   0  0  0  0  0  0  0  0  0  0  0  0
   21.1110   -9.3937  -14.9719 C   0  0  1  0  0  0  0  0  0  0  0  0
   22.1861   -8.9057  -14.2155 O   0  0  0  0  0  0  0  0  0  0  0  0
   19.9846   -8.4095  -14.9076 C   0  0  2  0  0  0  0  0  0  0  0  0
   18.7741   -8.8149  -15.5317 N   0  0  0  0  0  0  0  0  0  0  0  0
   20.3954   -7.0472  -15.3368 C   0  0  0  0  0  0  0  0  0  0  0  0
   20.2932   -6.6454  -16.5233 O   0  0  0  0  0  0  0  0  0  0  0  0
   20.9315   -6.1333  -14.3893 N   0  0  0  0  0  0  0  0  0  0  0  0
   21.2845   -4.7711  -14.7292 C   0  0  0  0  0  0  0  0  0  0  0  0
   21.9564   -4.0717  -13.6182 C   0  0  0  0  0  0  0  0  0  0  0  0
   22.1213   -4.6858  -12.5343 O   0  0  0  0  0  0  0  0  0  0  0  0
   22.4085   -2.7798  -13.7187 O   0  0  0  0  0  0  0  0  0  0  0  0
  2  1  1  1
  2  4  1  0
  2  3  1  0
  4  5  2  0
  7  6  1  6
  8  7  1  0
  9  7  1  0
 10  4  1  0
  9 10  1  6
 11 12  2  0
 11  9  1  0
 13 11  1  0
 14 13  1  0
 14 15  1  0
 15 17  1  0
 16 15  2  0
M  END
$$$$
