ATG.pdb
     RDKit          3D

 17 16  0  0  1  0  0  0  0  0999 V2000
   19.8407  -13.0846  -15.1390 C   0  0  0  0  0  0  0  0  0  0  0  0
   18.8032  -12.3732  -15.9559 C   0  0  2  0  0  0  0  0  0  0  0  0
   18.5580  -13.1683  -17.1439 N   0  0  0  0  0  0  0  0  0  0  0  0
   19.1557  -10.9909  -16.2807 C   0  0  0  0  0  0  0  0  0  0  0  0
   19.9395  -10.7263  -17.2044 O   0  0  0  0  0  0  0  0  0  0  0  0
   18.0895   -6.2484  -16.3067 C   0  0  0  0  0  0  0  0  0  0  0  0
   17.7099   -7.6424  -15.8540 C   0  0  1  0  0  0  0  0  0  0  0  0
   16.8650   -8.1631  -16.8445 O   0  0  0  0  0  0  0  0  0  0  0  0
   18.8976   -8.5420  -15.7058 C   0  0  2  0  0  0  0  0  0  0  0  0
   18.6092   -9.9242  -15.5468 N   0  0  0  0  0  0  0  0  0  0  0  0
   19.8522   -8.0571  -14.6750 C   0  0  0  0  0  0  0  0  0  0  0  0
   19.6293   -8.1479  -13.4415 O   0  0  0  0  0  0  0  0  0  0  0  0
   21.0807   -7.4592  -15.0671 N   0  0  0  0  0  0  0  0  0  0  0  0
   22.0533   -6.9713  -14.1122 C   0  0  0  0  0  0  0  0  0  0  0  0
   21.8343   -5.5558  -13.7616 C   0  0  0  0  0  0  0  0  0  0  0  0
   20.9381   -4.9183  -14.3696 O   0  0  0  0  0  0  0  0  0  0  0  0
   22.5675   -4.9065  -12.8002 O   0  0  0  0  0  0  0  0  0  0  0  0
  2  1  1  6
  2  4  1  0
  2  3  1  0
  4  5  2  0
  7  6  1  6
  8  7  1  0
  9  7  1  0
 10  4  1  0
  9 10  1  1
 11 12  2  0
 11  9  1  0
 13 11  1  0
 14 13  1  0
 14 15  1  0
 15 17  1  0
 16 15  2  0
M  END
$$$$
