ATG.pdb
     RDKit          3D

 17 16  0  0  1  0  0  0  0  0999 V2000
   15.4293   -9.0935  -14.8214 C   0  0  0  0  0  0  0  0  0  0  0  0
   16.4409  -10.0240  -15.4219 C   0  0  2  0  0  0  0  0  0  0  0  0
   15.9209  -11.3730  -15.3052 N   0  0  0  0  0  0  0  0  0  0  0  0
   17.7771   -9.8959  -14.8398 C   0  0  0  0  0  0  0  0  0  0  0  0
   18.1025  -10.5344  -13.8279 O   0  0  0  0  0  0  0  0  0  0  0  0
   20.8523  -10.7342  -16.5361 C   0  0  0  0  0  0  0  0  0  0  0  0
   21.1052   -9.3282  -16.0347 C   0  0  1  0  0  0  0  0  0  0  0  0
   21.0353   -8.4901  -17.1566 O   0  0  0  0  0  0  0  0  0  0  0  0
   20.0865   -8.8838  -15.0314 C   0  0  2  0  0  0  0  0  0  0  0  0
   18.7285   -9.0395  -15.4198 N   0  0  0  0  0  0  0  0  0  0  0  0
   20.3574   -7.5172  -14.5140 C   0  0  0  0  0  0  0  0  0  0  0  0
   19.6774   -6.5139  -14.8468 O   0  0  0  0  0  0  0  0  0  0  0  0
   21.4250   -7.3000  -13.6010 N   0  0  0  0  0  0  0  0  0  0  0  0
   21.6509   -6.0269  -12.9499 C   0  0  0  0  0  0  0  0  0  0  0  0
   22.2605   -5.0344  -13.8544 C   0  0  0  0  0  0  0  0  0  0  0  0
   22.5547   -5.3885  -15.0237 O   0  0  0  0  0  0  0  0  0  0  0  0
   22.5194   -3.7418  -13.4728 O   0  0  0  0  0  0  0  0  0  0  0  0
  2  1  1  1
  2  4  1  0
  2  3  1  0
  4  5  2  0
  7  6  1  6
  8  7  1  0
  9  7  1  0
 10  4  1  0
  9 10  1  6
 11 12  2  0
 11  9  1  0
 13 11  1  0
 14 13  1  0
 14 15  1  0
 15 17  1  0
 16 15  2  0
M  END
$$$$
