ATG.pdb
     RDKit          3D

 17 16  0  0  1  0  0  0  0  0999 V2000
   16.8729  -10.8440  -16.8101 C   0  0  0  0  0  0  0  0  0  0  0  0
   18.1978  -11.5177  -16.6088 C   0  0  2  0  0  0  0  0  0  0  0  0
   17.9382  -12.8934  -16.2297 N   0  0  0  0  0  0  0  0  0  0  0  0
   19.0652  -10.8354  -15.6482 C   0  0  0  0  0  0  0  0  0  0  0  0
   18.8368  -10.8792  -14.4302 O   0  0  0  0  0  0  0  0  0  0  0  0
   22.5436  -11.3464  -14.8277 C   0  0  0  0  0  0  0  0  0  0  0  0
   22.4879   -9.8849  -15.2189 C   0  0  1  0  0  0  0  0  0  0  0  0
   23.0696   -9.7940  -16.4915 O   0  0  0  0  0  0  0  0  0  0  0  0
   21.0870   -9.3606  -15.2858 C   0  0  2  0  0  0  0  0  0  0  0  0
   20.1851  -10.1097  -16.0887 N   0  0  0  0  0  0  0  0  0  0  0  0
   21.0380   -7.9110  -15.6097 C   0  0  0  0  0  0  0  0  0  0  0  0
   20.6351   -7.4719  -16.7163 O   0  0  0  0  0  0  0  0  0  0  0  0
   21.4579   -6.9518  -14.6484 N   0  0  0  0  0  0  0  0  0  0  0  0
   21.4902   -5.5309  -14.9234 C   0  0  0  0  0  0  0  0  0  0  0  0
   22.0649   -4.7563  -13.8078 C   0  0  0  0  0  0  0  0  0  0  0  0
   22.2713   -5.3408  -12.7146 O   0  0  0  0  0  0  0  0  0  0  0  0
   22.3832   -3.4256  -13.9136 O   0  0  0  0  0  0  0  0  0  0  0  0
  2  1  1  1
  2  4  1  0
  2  3  1  0
  4  5  2  0
  7  6  1  6
  8  7  1  0
  9  7  1  0
 10  4  1  0
  9 10  1  6
 11 12  2  0
 11  9  1  0
 13 11  1  0
 14 13  1  0
 14 15  1  0
 15 17  1  0
 16 15  2  0
M  END
$$$$
