ATG.pdb
     RDKit          3D

 17 16  0  0  1  0  0  0  0  0999 V2000
   16.8334   -9.3953  -17.5210 C   0  0  0  0  0  0  0  0  0  0  0  0
   17.7285  -10.5671  -17.2465 C   0  0  2  0  0  0  0  0  0  0  0  0
   16.8864  -11.6811  -16.8548 N   0  0  0  0  0  0  0  0  0  0  0  0
   18.7728  -10.2917  -16.2595 C   0  0  0  0  0  0  0  0  0  0  0  0
   18.5184  -10.2534  -15.0465 O   0  0  0  0  0  0  0  0  0  0  0  0
   23.4329  -10.6200  -14.9439 C   0  0  0  0  0  0  0  0  0  0  0  0
   22.3561  -10.8061  -15.9918 C   0  0  1  0  0  0  0  0  0  0  0  0
   21.8686  -12.1108  -15.8301 O   0  0  0  0  0  0  0  0  0  0  0  0
   21.2236   -9.8401  -15.8301 C   0  0  2  0  0  0  0  0  0  0  0  0
   20.0978  -10.0626  -16.6681 N   0  0  0  0  0  0  0  0  0  0  0  0
   21.6734   -8.4244  -15.8774 C   0  0  0  0  0  0  0  0  0  0  0  0
   22.0248   -7.8550  -16.9413 O   0  0  0  0  0  0  0  0  0  0  0  0
   21.7202   -7.6517  -14.6853 N   0  0  0  0  0  0  0  0  0  0  0  0
   22.1261   -6.2622  -14.6689 C   0  0  0  0  0  0  0  0  0  0  0  0
   22.1166   -5.6908  -13.3095 C   0  0  0  0  0  0  0  0  0  0  0  0
   21.6302   -6.3747  -12.3741 O   0  0  0  0  0  0  0  0  0  0  0  0
   22.6161   -4.4449  -13.0238 O   0  0  0  0  0  0  0  0  0  0  0  0
  2  1  1  1
  2  4  1  0
  2  3  1  0
  4  5  2  0
  7  6  1  1
  8  7  1  0
  9  7  1  0
 10  4  1  0
  9 10  1  6
 11 12  2  0
 11  9  1  0
 13 11  1  0
 14 13  1  0
 14 15  1  0
 15 17  1  0
 16 15  2  0
M  END
$$$$
