ATG.pdb
     RDKit          3D

 17 16  0  0  1  0  0  0  0  0999 V2000
   16.8767   -8.6922  -16.2077 C   0  0  0  0  0  0  0  0  0  0  0  0
   18.0408   -9.6052  -16.4544 C   0  0  2  0  0  0  0  0  0  0  0  0
   17.5163  -10.9435  -16.6487 N   0  0  0  0  0  0  0  0  0  0  0  0
   19.0582   -9.5590  -15.4040 C   0  0  0  0  0  0  0  0  0  0  0  0
   18.8537  -10.0573  -14.2871 O   0  0  0  0  0  0  0  0  0  0  0  0
   22.4732  -11.0294  -15.8683 C   0  0  0  0  0  0  0  0  0  0  0  0
   22.6764   -9.5918  -15.4389 C   0  0  1  0  0  0  0  0  0  0  0  0
   22.9845   -8.8719  -16.6020 O   0  0  0  0  0  0  0  0  0  0  0  0
   21.4522   -9.0009  -14.8111 C   0  0  2  0  0  0  0  0  0  0  0  0
   20.2995   -8.9438  -15.6400 N   0  0  0  0  0  0  0  0  0  0  0  0
   21.7240   -7.6949  -14.1560 C   0  0  0  0  0  0  0  0  0  0  0  0
   22.5989   -7.5464  -13.2660 O   0  0  0  0  0  0  0  0  0  0  0  0
   20.9798   -6.5426  -14.5287 N   0  0  0  0  0  0  0  0  0  0  0  0
   21.2446   -5.2291  -13.9807 C   0  0  0  0  0  0  0  0  0  0  0  0
   20.3695   -4.1928  -14.5595 C   0  0  0  0  0  0  0  0  0  0  0  0
   20.8603   -3.3883  -15.3909 O   0  0  0  0  0  0  0  0  0  0  0  0
   19.0433   -4.0705  -14.2285 O   0  0  0  0  0  0  0  0  0  0  0  0
  2  1  1  1
  2  4  1  0
  2  3  1  0
  4  5  2  0
  7  6  1  6
  8  7  1  0
  9  7  1  0
 10  4  1  0
  9 10  1  6
 11 12  2  0
 11  9  1  0
 13 11  1  0
 14 13  1  0
 14 15  1  0
 15 17  1  0
 16 15  2  0
M  END
$$$$
