PSL.pdb
     RDKit          3D

 22 22  0  0  1  0  0  0  0  0999 V2000
   43.6687  -16.3464   -9.7590 N   0  0  0  0  0  0  0  0  0  0  0  0
   42.8757  -17.5486  -10.0449 C   0  0  0  0  0  0  0  0  0  0  0  0
   43.8766  -18.5133  -10.6346 C   0  0  0  0  0  0  0  0  0  0  0  0
   45.2492  -17.9096  -10.3371 C   0  0  0  0  0  0  0  0  0  0  0  0
   44.8739  -16.9190   -9.2319 C   0  0  1  0  0  0  0  0  0  0  0  0
   45.9691  -15.9337   -9.1122 C   0  0  0  0  0  0  0  0  0  0  0  0
   47.0291  -16.3307   -8.5399 O   0  0  0  0  0  0  0  0  0  0  0  0
   45.5885  -11.7894   -9.6527 O   0  0  0  0  0  0  0  0  0  0  0  0
   46.7696  -12.3693  -10.0800 C   0  0  0  0  0  0  0  0  0  0  0  0
   47.0132  -13.7302   -9.4532 C   0  0  2  0  0  0  0  0  0  0  0  0
   45.8918  -14.6021   -9.5940 N   0  0  0  0  0  0  0  0  0  0  0  0
   47.4841  -13.5930   -8.0618 C   0  0  0  0  0  0  0  0  0  0  0  0
   46.6524  -13.6331   -7.1375 O   0  0  0  0  0  0  0  0  0  0  0  0
   49.1539  -14.7330   -3.7855 C   0  0  0  0  0  0  0  0  0  0  0  0
   48.4637  -15.4777   -4.9440 C   0  0  2  0  0  0  0  0  0  0  0  0
   48.2682  -16.8782   -4.5181 C   0  0  0  0  0  0  0  0  0  0  0  0
   49.2352  -15.2312   -6.1666 C   0  0  0  0  0  0  0  0  0  0  0  0
   49.4830  -13.8112   -6.5441 C   0  0  2  0  0  0  0  0  0  0  0  0
   48.8337  -13.4204   -7.7645 N   0  0  0  0  0  0  0  0  0  0  0  0
   50.9188  -13.4889   -6.6807 C   0  0  0  0  0  0  0  0  0  0  0  0
   51.4738  -13.5862   -7.7998 O   0  0  0  0  0  0  0  0  0  0  0  0
   51.6830  -13.0791   -5.6102 O   0  0  0  0  0  0  0  0  0  0  0  0
  2  1  1  0
  3  4  1  0
  3  2  1  0
  4  5  1  0
  5  1  1  0
  5  6  1  6
  7  6  2  0
  8  9  1  0
 10  9  1  1
 10 11  1  0
 10 12  1  0
 11  6  1  0
 12 19  1  0
 13 12  2  0
 15 14  1  1
 16 15  1  0
 17 15  1  0
 18 17  1  6
 19 18  1  0
 20 18  1  0
 20 22  1  0
 21 20  2  0
M  END
$$$$
