PSL.pdb
     RDKit          3D

 22 22  0  0  1  0  0  0  0  0999 V2000
   18.9767  -12.8569  -18.4513 N   0  0  0  0  0  0  0  0  0  0  0  0
   19.4662  -14.1533  -18.9365 C   0  0  0  0  0  0  0  0  0  0  0  0
   20.4745  -13.7872  -19.9994 C   0  0  0  0  0  0  0  0  0  0  0  0
   20.7357  -12.2921  -19.8160 C   0  0  0  0  0  0  0  0  0  0  0  0
   20.1915  -12.0954  -18.3988 C   0  0  1  0  0  0  0  0  0  0  0  0
   19.9513  -10.6507  -18.1995 C   0  0  0  0  0  0  0  0  0  0  0  0
   20.9786   -9.9147  -18.0909 O   0  0  0  0  0  0  0  0  0  0  0  0
   16.1396   -8.5084  -17.6187 O   0  0  0  0  0  0  0  0  0  0  0  0
   17.1987   -8.1252  -18.4220 C   0  0  0  0  0  0  0  0  0  0  0  0
   18.5310   -8.6582  -17.9267 C   0  0  2  0  0  0  0  0  0  0  0  0
   18.6615  -10.0656  -18.1261 N   0  0  0  0  0  0  0  0  0  0  0  0
   18.7856   -8.2320  -16.5374 C   0  0  0  0  0  0  0  0  0  0  0  0
   18.7289   -9.0785  -15.6275 O   0  0  0  0  0  0  0  0  0  0  0  0
   21.1796   -6.9808  -12.4651 C   0  0  0  0  0  0  0  0  0  0  0  0
   21.9418   -6.6186  -13.7539 C   0  0  2  0  0  0  0  0  0  0  0  0
   22.3021   -5.1888  -13.6700 C   0  0  0  0  0  0  0  0  0  0  0  0
   21.1368   -7.0598  -14.8974 C   0  0  0  0  0  0  0  0  0  0  0  0
   19.7831   -6.4568  -15.0540 C   0  0  2  0  0  0  0  0  0  0  0  0
   19.0863   -6.9081  -16.2264 N   0  0  0  0  0  0  0  0  0  0  0  0
   19.8063   -4.9796  -15.0909 C   0  0  0  0  0  0  0  0  0  0  0  0
   20.0374   -4.3885  -16.1713 O   0  0  0  0  0  0  0  0  0  0  0  0
   19.5801   -4.2148  -13.9677 O   0  0  0  0  0  0  0  0  0  0  0  0
  2  1  1  0
  3  4  1  0
  3  2  1  0
  4  5  1  0
  5  1  1  0
  5  6  1  6
  7  6  2  0
  8  9  1  0
 10  9  1  1
 10 11  1  0
 10 12  1  0
 11  6  1  0
 12 19  1  0
 13 12  2  0
 15 14  1  1
 16 15  1  0
 17 15  1  0
 18 17  1  6
 19 18  1  0
 20 18  1  0
 20 22  1  0
 21 20  2  0
M  END
$$$$
