PSL.pdb
     RDKit          3D

 22 22  0  0  1  0  0  0  0  0999 V2000
   21.1122  -11.7507  -17.6946 N   0  0  0  0  0  0  0  0  0  0  0  0
   21.0230  -12.9483  -18.5394 C   0  0  0  0  0  0  0  0  0  0  0  0
   19.5539  -13.0496  -18.8736 C   0  0  0  0  0  0  0  0  0  0  0  0
   18.9494  -11.7057  -18.4666 C   0  0  0  0  0  0  0  0  0  0  0  0
   20.2195  -10.8562  -18.3737 C   0  0  1  0  0  0  0  0  0  0  0  0
   19.9043   -9.6512  -17.5778 C   0  0  0  0  0  0  0  0  0  0  0  0
   19.1521   -8.7899  -18.1265 O   0  0  0  0  0  0  0  0  0  0  0  0
   20.4134   -9.2112  -13.3551 O   0  0  0  0  0  0  0  0  0  0  0  0
   19.4337   -8.6442  -14.1504 C   0  0  0  0  0  0  0  0  0  0  0  0
   19.9419   -8.2796  -15.5336 C   0  0  2  0  0  0  0  0  0  0  0  0
   20.3905   -9.4198  -16.2658 N   0  0  0  0  0  0  0  0  0  0  0  0
   20.9389   -7.1947  -15.4598 C   0  0  0  0  0  0  0  0  0  0  0  0
   22.1447   -7.4751  -15.5834 O   0  0  0  0  0  0  0  0  0  0  0  0
   21.6954   -3.1002  -17.5924 C   0  0  0  0  0  0  0  0  0  0  0  0
   20.4198   -3.1592  -16.7308 C   0  0  2  0  0  0  0  0  0  0  0  0
   19.6476   -1.9284  -16.9955 C   0  0  0  0  0  0  0  0  0  0  0  0
   20.8182   -3.4378  -15.3473 C   0  0  0  0  0  0  0  0  0  0  0  0
   21.4497   -4.7587  -15.0703 C   0  0  2  0  0  0  0  0  0  0  0  0
   20.5590   -5.8705  -15.2556 N   0  0  0  0  0  0  0  0  0  0  0  0
   22.0102   -4.8597  -13.7066 C   0  0  0  0  0  0  0  0  0  0  0  0
   22.9184   -4.0744  -13.3483 O   0  0  0  0  0  0  0  0  0  0  0  0
   21.5667   -5.7970  -12.7996 O   0  0  0  0  0  0  0  0  0  0  0  0
  2  1  1  0
  3  4  1  0
  3  2  1  0
  4  5  1  0
  5  1  1  0
  5  6  1  1
  7  6  2  0
  8  9  1  0
 10  9  1  1
 10 11  1  0
 10 12  1  0
 11  6  1  0
 12 19  1  0
 13 12  2  0
 15 14  1  6
 16 15  1  0
 17 15  1  0
 18 17  1  1
 19 18  1  0
 20 18  1  0
 20 22  1  0
 21 20  2  0
M  END
$$$$
