PSL.pdb
     RDKit          3D

 22 22  0  0  1  0  0  0  0  0999 V2000
   21.9942  -19.6002  -16.7763 N   0  0  0  0  0  0  0  0  0  0  0  0
   21.7322  -18.4861  -17.6961 C   0  0  0  0  0  0  0  0  0  0  0  0
   22.4033  -17.3046  -17.0373 C   0  0  0  0  0  0  0  0  0  0  0  0
   23.2918  -17.8978  -15.9438 C   0  0  0  0  0  0  0  0  0  0  0  0
   23.3597  -19.3536  -16.4120 C   0  0  1  0  0  0  0  0  0  0  0  0
   23.8036  -20.1794  -15.2693 C   0  0  0  0  0  0  0  0  0  0  0  0
   22.8944  -20.6318  -14.5095 O   0  0  0  0  0  0  0  0  0  0  0  0
   27.8792  -21.0530  -14.1809 O   0  0  0  0  0  0  0  0  0  0  0  0
   26.8362  -21.9326  -13.9523 C   0  0  0  0  0  0  0  0  0  0  0  0
   25.4966  -21.2303  -13.8233 C   0  0  2  0  0  0  0  0  0  0  0  0
   25.1611  -20.4809  -14.9909 N   0  0  0  0  0  0  0  0  0  0  0  0
   25.4318  -20.4435  -12.5771 C   0  0  0  0  0  0  0  0  0  0  0  0
   25.6852  -19.2263  -12.6192 O   0  0  0  0  0  0  0  0  0  0  0  0
   22.4886  -19.3110   -9.4848 C   0  0  0  0  0  0  0  0  0  0  0  0
   22.8052  -20.8142   -9.3703 C   0  0  2  0  0  0  0  0  0  0  0  0
   21.8363  -21.4015   -8.4229 C   0  0  0  0  0  0  0  0  0  0  0  0
   24.2336  -20.9565   -9.0708 C   0  0  0  0  0  0  0  0  0  0  0  0
   25.1988  -20.4152  -10.0687 C   0  0  2  0  0  0  0  0  0  0  0  0
   25.0944  -21.0334  -11.3613 N   0  0  0  0  0  0  0  0  0  0  0  0
   26.6069  -20.5268   -9.6342 C   0  0  0  0  0  0  0  0  0  0  0  0
   27.3942  -21.2714  -10.2632 O   0  0  0  0  0  0  0  0  0  0  0  0
   27.0961  -19.8336   -8.5488 O   0  0  0  0  0  0  0  0  0  0  0  0
  2  1  1  0
  3  4  1  0
  3  2  1  0
  4  5  1  0
  5  1  1  0
  5  6  1  1
  7  6  2  0
  8  9  1  0
 10  9  1  6
 10 11  1  0
 10 12  1  0
 11  6  1  0
 12 19  1  0
 13 12  2  0
 15 14  1  1
 16 15  1  0
 17 15  1  0
 18 17  1  1
 19 18  1  0
 20 18  1  0
 20 22  1  0
 21 20  2  0
M  END
$$$$
