PSL.pdb
     RDKit          3D

 22 22  0  0  1  0  0  0  0  0999 V2000
   25.2617  -22.6625  -13.8492 N   0  0  0  0  0  0  0  0  0  0  0  0
   24.8169  -23.0565  -15.1919 C   0  0  0  0  0  0  0  0  0  0  0  0
   24.1352  -21.8199  -15.7271 C   0  0  0  0  0  0  0  0  0  0  0  0
   24.5311  -20.6914  -14.7747 C   0  0  0  0  0  0  0  0  0  0  0  0
   25.7399  -21.3310  -14.0871 C   0  0  1  0  0  0  0  0  0  0  0  0
   25.9998  -20.5861  -12.8371 C   0  0  0  0  0  0  0  0  0  0  0  0
   26.4455  -19.4053  -12.9628 O   0  0  0  0  0  0  0  0  0  0  0  0
   23.3304  -20.8889   -9.7907 O   0  0  0  0  0  0  0  0  0  0  0  0
   24.1013  -19.8517  -10.2845 C   0  0  0  0  0  0  0  0  0  0  0  0
   25.5627  -20.2322  -10.4402 C   0  0  2  0  0  0  0  0  0  0  0  0
   25.7801  -21.1157  -11.5400 N   0  0  0  0  0  0  0  0  0  0  0  0
   26.1171  -20.7271   -9.1658 C   0  0  0  0  0  0  0  0  0  0  0  0
   26.0698  -21.9459   -8.9211 O   0  0  0  0  0  0  0  0  0  0  0  0
   29.2068  -18.1339   -4.4548 C   0  0  0  0  0  0  0  0  0  0  0  0
   28.7433  -19.4642   -5.0781 C   0  0  2  0  0  0  0  0  0  0  0  0
   29.9000  -20.3825   -5.0767 C   0  0  0  0  0  0  0  0  0  0  0  0
   28.1031  -19.1655   -6.3631 C   0  0  0  0  0  0  0  0  0  0  0  0
   27.2846  -20.2435   -6.9863 C   0  0  2  0  0  0  0  0  0  0  0  0
   26.6891  -19.8615   -8.2367 N   0  0  0  0  0  0  0  0  0  0  0  0
   26.2010  -20.7312   -6.1077 C   0  0  0  0  0  0  0  0  0  0  0  0
   25.0191  -20.3750   -6.3225 O   0  0  0  0  0  0  0  0  0  0  0  0
   26.4422  -21.5751   -5.0459 O   0  0  0  0  0  0  0  0  0  0  0  0
  2  1  1  0
  3  4  1  0
  3  2  1  0
  4  5  1  0
  5  1  1  0
  5  6  1  1
  7  6  2  0
  8  9  1  0
 10  9  1  1
 10 11  1  0
 10 12  1  0
 11  6  1  0
 12 19  1  0
 13 12  2  0
 15 14  1  6
 16 15  1  0
 17 15  1  0
 18 17  1  1
 19 18  1  0
 20 18  1  0
 20 22  1  0
 21 20  2  0
M  END
$$$$
