PSL.pdb
     RDKit          3D

 22 22  0  0  1  0  0  0  0  0999 V2000
   27.7025  -19.3591  -15.2266 N   0  0  0  0  0  0  0  0  0  0  0  0
   28.8592  -19.2924  -16.1284 C   0  0  0  0  0  0  0  0  0  0  0  0
   29.5417  -20.6268  -15.9446 C   0  0  0  0  0  0  0  0  0  0  0  0
   28.5362  -21.4991  -15.1927 C   0  0  0  0  0  0  0  0  0  0  0  0
   27.2517  -20.7042  -15.4408 C   0  0  1  0  0  0  0  0  0  0  0  0
   26.2492  -21.1357  -14.4440 C   0  0  0  0  0  0  0  0  0  0  0  0
   25.4854  -22.0895  -14.7842 O   0  0  0  0  0  0  0  0  0  0  0  0
   24.3098  -20.9544   -9.9964 O   0  0  0  0  0  0  0  0  0  0  0  0
   25.4011  -20.7744  -10.8273 C   0  0  0  0  0  0  0  0  0  0  0  0
   25.0631  -20.9903  -12.2915 C   0  0  2  0  0  0  0  0  0  0  0  0
   26.1058  -20.5492  -13.1608 N   0  0  0  0  0  0  0  0  0  0  0  0
   23.7417  -20.4207  -12.6169 C   0  0  0  0  0  0  0  0  0  0  0  0
   23.6037  -19.1844  -12.6236 O   0  0  0  0  0  0  0  0  0  0  0  0
   21.1593  -19.1699  -15.7226 C   0  0  0  0  0  0  0  0  0  0  0  0
   21.4114  -20.6888  -15.6745 C   0  0  2  0  0  0  0  0  0  0  0  0
   21.0112  -21.2472  -16.9818 C   0  0  0  0  0  0  0  0  0  0  0  0
   20.7625  -21.2196  -14.4714 C   0  0  0  0  0  0  0  0  0  0  0  0
   21.3078  -20.7882  -13.1535 C   0  0  2  0  0  0  0  0  0  0  0  0
   22.6521  -21.2353  -12.9148 N   0  0  0  0  0  0  0  0  0  0  0  0
   20.4820  -21.2306  -12.0105 C   0  0  0  0  0  0  0  0  0  0  0  0
   20.9088  -22.1263  -11.2453 O   0  0  0  0  0  0  0  0  0  0  0  0
   19.2427  -20.6889  -11.7486 O   0  0  0  0  0  0  0  0  0  0  0  0
  2  1  1  0
  3  4  1  0
  3  2  1  0
  4  5  1  0
  5  1  1  0
  5  6  1  1
  7  6  2  0
  8  9  1  0
 10  9  1  1
 10 11  1  0
 10 12  1  0
 11  6  1  0
 12 19  1  0
 13 12  2  0
 15 14  1  6
 16 15  1  0
 17 15  1  0
 18 17  1  6
 19 18  1  0
 20 18  1  0
 20 22  1  0
 21 20  2  0
M  END
$$$$
