PSL.pdb
     RDKit          3D

 22 22  0  0  1  0  0  0  0  0999 V2000
   25.7639  -21.5507  -14.4936 N   0  0  0  0  0  0  0  0  0  0  0  0
   26.1262  -21.5581  -15.9164 C   0  0  0  0  0  0  0  0  0  0  0  0
   26.9166  -20.2842  -16.0974 C   0  0  0  0  0  0  0  0  0  0  0  0
   27.2361  -19.7980  -14.6837 C   0  0  0  0  0  0  0  0  0  0  0  0
   26.9798  -21.0833  -13.8926 C   0  0  1  0  0  0  0  0  0  0  0  0
   26.8095  -20.7167  -12.4708 C   0  0  0  0  0  0  0  0  0  0  0  0
   27.8318  -20.2569  -11.8773 O   0  0  0  0  0  0  0  0  0  0  0  0
   23.2464  -21.1112  -10.0320 O   0  0  0  0  0  0  0  0  0  0  0  0
   23.9276  -19.9221  -10.2217 C   0  0  0  0  0  0  0  0  0  0  0  0
   25.3966  -20.1343  -10.5405 C   0  0  2  0  0  0  0  0  0  0  0  0
   25.5901  -20.8517  -11.7593 N   0  0  0  0  0  0  0  0  0  0  0  0
   26.1062  -20.7233   -9.3889 C   0  0  0  0  0  0  0  0  0  0  0  0
   26.3106  -21.9503   -9.3706 O   0  0  0  0  0  0  0  0  0  0  0  0
   27.6381  -19.9252   -4.1644 C   0  0  0  0  0  0  0  0  0  0  0  0
   28.7374  -19.8176   -5.2383 C   0  0  2  0  0  0  0  0  0  0  0  0
   29.7980  -18.9409   -4.7021 C   0  0  0  0  0  0  0  0  0  0  0  0
   28.1016  -19.4346   -6.5030 C   0  0  0  0  0  0  0  0  0  0  0  0
   27.1729  -20.4188   -7.1270 C   0  0  2  0  0  0  0  0  0  0  0  0
   26.5491  -19.9370   -8.3281 N   0  0  0  0  0  0  0  0  0  0  0  0
   26.0985  -20.8625   -6.2145 C   0  0  0  0  0  0  0  0  0  0  0  0
   25.0129  -20.2378   -6.1826 O   0  0  0  0  0  0  0  0  0  0  0  0
   26.2450  -21.9528   -5.3853 O   0  0  0  0  0  0  0  0  0  0  0  0
  2  1  1  0
  3  4  1  0
  3  2  1  0
  4  5  1  0
  5  1  1  0
  5  6  1  1
  7  6  2  0
  8  9  1  0
 10  9  1  1
 10 11  1  0
 10 12  1  0
 11  6  1  0
 12 19  1  0
 13 12  2  0
 15 14  1  1
 16 15  1  0
 17 15  1  0
 18 17  1  1
 19 18  1  0
 20 18  1  0
 20 22  1  0
 21 20  2  0
M  END
$$$$
