PSL.pdb
     RDKit          3D

 22 22  0  0  1  0  0  0  0  0999 V2000
   12.9288  -12.1458  -12.1628 N   0  0  0  0  0  0  0  0  0  0  0  0
   12.0316  -12.1348  -11.0005 C   0  0  0  0  0  0  0  0  0  0  0  0
   12.7565  -11.2792   -9.9892 C   0  0  0  0  0  0  0  0  0  0  0  0
   13.8723  -10.5831  -10.7688 C   0  0  0  0  0  0  0  0  0  0  0  0
   13.3641  -10.7793  -12.1994 C   0  0  1  0  0  0  0  0  0  0  0  0
   14.5010  -10.5670  -13.1198 C   0  0  0  0  0  0  0  0  0  0  0  0
   15.3381  -11.5151  -13.2152 O   0  0  0  0  0  0  0  0  0  0  0  0
   15.3638   -7.0105  -15.4523 O   0  0  0  0  0  0  0  0  0  0  0  0
   15.5894   -8.3048  -15.8855 C   0  0  0  0  0  0  0  0  0  0  0  0
   15.8275   -9.2718  -14.7397 C   0  0  2  0  0  0  0  0  0  0  0  0
   14.6938   -9.3853  -13.8799 N   0  0  0  0  0  0  0  0  0  0  0  0
   17.0789   -8.9483  -14.0284 C   0  0  0  0  0  0  0  0  0  0  0  0
   17.0134   -8.4462  -12.8921 O   0  0  0  0  0  0  0  0  0  0  0  0
   23.1074  -10.0209  -14.8504 C   0  0  0  0  0  0  0  0  0  0  0  0
   22.0819   -9.1195  -14.1370 C   0  0  2  0  0  0  0  0  0  0  0  0
   22.4431   -9.0823  -12.7055 C   0  0  0  0  0  0  0  0  0  0  0  0
   20.7389   -9.5860  -14.4962 C   0  0  0  0  0  0  0  0  0  0  0  0
   19.5876   -8.7282  -14.0974 C   0  0  2  0  0  0  0  0  0  0  0  0
   18.3248   -9.1927  -14.6009 N   0  0  0  0  0  0  0  0  0  0  0  0
   19.7419   -7.3188  -14.5143 C   0  0  0  0  0  0  0  0  0  0  0  0
   20.4169   -6.5328  -13.8097 O   0  0  0  0  0  0  0  0  0  0  0  0
   19.1647   -6.8274  -15.6646 O   0  0  0  0  0  0  0  0  0  0  0  0
  2  1  1  0
  3  4  1  0
  3  2  1  0
  4  5  1  0
  5  1  1  0
  5  6  1  6
  7  6  2  0
  8  9  1  0
 10  9  1  6
 10 11  1  0
 10 12  1  0
 11  6  1  0
 12 19  1  0
 13 12  2  0
 15 14  1  6
 16 15  1  0
 17 15  1  0
 18 17  1  6
 19 18  1  0
 20 18  1  0
 20 22  1  0
 21 20  2  0
M  END
$$$$
