PSL.pdb
     RDKit          3D

 22 22  0  0  1  0  0  0  0  0999 V2000
   29.1485  -22.6871  -16.5668 N   0  0  0  0  0  0  0  0  0  0  0  0
   29.6885  -23.7891  -17.3728 C   0  0  0  0  0  0  0  0  0  0  0  0
   28.5393  -24.1805  -18.2708 C   0  0  0  0  0  0  0  0  0  0  0  0
   27.5198  -23.0482  -18.1456 C   0  0  0  0  0  0  0  0  0  0  0  0
   28.4069  -21.9518  -17.5505 C   0  0  1  0  0  0  0  0  0  0  0  0
   27.5253  -20.9271  -16.9523 C   0  0  0  0  0  0  0  0  0  0  0  0
   27.2065  -21.0934  -15.7360 O   0  0  0  0  0  0  0  0  0  0  0  0
   25.7450  -17.6327  -19.0363 O   0  0  0  0  0  0  0  0  0  0  0  0
   26.0602  -17.5524  -17.6917 C   0  0  0  0  0  0  0  0  0  0  0  0
   26.1109  -18.9131  -17.0206 C   0  0  2  0  0  0  0  0  0  0  0  0
   27.0331  -19.7984  -17.6558 N   0  0  0  0  0  0  0  0  0  0  0  0
   24.7562  -19.4781  -16.8717 C   0  0  0  0  0  0  0  0  0  0  0  0
   24.3862  -20.3707  -17.6553 O   0  0  0  0  0  0  0  0  0  0  0  0
   21.9497  -22.1451  -14.5531 C   0  0  0  0  0  0  0  0  0  0  0  0
   22.5971  -21.0341  -13.7047 C   0  0  2  0  0  0  0  0  0  0  0  0
   22.2766  -21.3116  -12.2900 C   0  0  0  0  0  0  0  0  0  0  0  0
   22.1892  -19.7405  -14.2620 C   0  0  0  0  0  0  0  0  0  0  0  0
   22.5331  -19.4706  -15.6865 C   0  0  2  0  0  0  0  0  0  0  0  0
   23.8886  -19.0344  -15.8767 N   0  0  0  0  0  0  0  0  0  0  0  0
   21.6499  -18.4673  -16.3169 C   0  0  0  0  0  0  0  0  0  0  0  0
   22.0848  -17.3156  -16.5499 O   0  0  0  0  0  0  0  0  0  0  0  0
   20.3477  -18.7525  -16.6644 O   0  0  0  0  0  0  0  0  0  0  0  0
  2  1  1  0
  3  4  1  0
  3  2  1  0
  4  5  1  0
  5  1  1  0
  5  6  1  1
  7  6  2  0
  8  9  1  0
 10  9  1  6
 10 11  1  0
 10 12  1  0
 11  6  1  0
 12 19  1  0
 13 12  2  0
 15 14  1  6
 16 15  1  0
 17 15  1  0
 18 17  1  1
 19 18  1  0
 20 18  1  0
 20 22  1  0
 21 20  2  0
M  END
$$$$
