PSL.pdb
     RDKit          3D

 22 22  0  0  1  0  0  0  0  0999 V2000
   20.0643  -13.3204  -16.9416 N   0  0  0  0  0  0  0  0  0  0  0  0
   20.4253  -14.5249  -17.6998 C   0  0  0  0  0  0  0  0  0  0  0  0
   20.3321  -14.0885  -19.1424 C   0  0  0  0  0  0  0  0  0  0  0  0
   20.2456  -12.5627  -19.1023 C   0  0  0  0  0  0  0  0  0  0  0  0
   20.7519  -12.3016  -17.6814 C   0  0  1  0  0  0  0  0  0  0  0  0
   20.3374  -10.9367  -17.2938 C   0  0  0  0  0  0  0  0  0  0  0  0
   19.2117  -10.5420  -17.7247 O   0  0  0  0  0  0  0  0  0  0  0  0
   18.8363   -7.9504  -14.5478 O   0  0  0  0  0  0  0  0  0  0  0  0
   19.3300   -9.1102  -15.1179 C   0  0  0  0  0  0  0  0  0  0  0  0
   20.5501   -8.8615  -15.9862 C   0  0  2  0  0  0  0  0  0  0  0  0
   21.1182  -10.0723  -16.4849 N   0  0  0  0  0  0  0  0  0  0  0  0
   21.5218   -7.9939  -15.2938 C   0  0  0  0  0  0  0  0  0  0  0  0
   22.3120   -8.5043  -14.4797 O   0  0  0  0  0  0  0  0  0  0  0  0
   24.8537   -5.7477  -16.9608 C   0  0  0  0  0  0  0  0  0  0  0  0
   23.5175   -5.0393  -17.2537 C   0  0  2  0  0  0  0  0  0  0  0  0
   23.7818   -3.9904  -18.2593 C   0  0  0  0  0  0  0  0  0  0  0  0
   22.9281   -4.6332  -15.9739 C   0  0  0  0  0  0  0  0  0  0  0  0
   22.5584   -5.7144  -15.0175 C   0  0  2  0  0  0  0  0  0  0  0  0
   21.5714   -6.6226  -15.5322 N   0  0  0  0  0  0  0  0  0  0  0  0
   22.0595   -5.2006  -13.7248 C   0  0  0  0  0  0  0  0  0  0  0  0
   20.8292   -5.2053  -13.4874 O   0  0  0  0  0  0  0  0  0  0  0  0
   22.9062   -4.7095  -12.7554 O   0  0  0  0  0  0  0  0  0  0  0  0
  2  1  1  0
  3  4  1  0
  3  2  1  0
  4  5  1  0
  5  1  1  0
  5  6  1  1
  7  6  2  0
  8  9  1  0
 10  9  1  1
 10 11  1  0
 10 12  1  0
 11  6  1  0
 12 19  1  0
 13 12  2  0
 15 14  1  1
 16 15  1  0
 17 15  1  0
 18 17  1  6
 19 18  1  0
 20 18  1  0
 20 22  1  0
 21 20  2  0
M  END
$$$$
