PSL.pdb
     RDKit          3D

 22 22  0  0  1  0  0  0  0  0999 V2000
   18.3815  -12.4765  -17.6144 N   0  0  0  0  0  0  0  0  0  0  0  0
   18.6475  -13.7257  -18.3387 C   0  0  0  0  0  0  0  0  0  0  0  0
   18.8650  -13.2803  -19.7651 C   0  0  0  0  0  0  0  0  0  0  0  0
   19.0371  -11.7628  -19.6968 C   0  0  0  0  0  0  0  0  0  0  0  0
   19.3445  -11.5933  -18.2068 C   0  0  1  0  0  0  0  0  0  0  0  0
   19.1140  -10.1770  -17.8523 C   0  0  0  0  0  0  0  0  0  0  0  0
   20.1453   -9.4735  -17.6280 O   0  0  0  0  0  0  0  0  0  0  0  0
   15.3922   -8.2754  -16.8496 O   0  0  0  0  0  0  0  0  0  0  0  0
   16.2905   -7.6812  -17.7179 C   0  0  0  0  0  0  0  0  0  0  0  0
   17.7105   -8.1813  -17.5225 C   0  0  2  0  0  0  0  0  0  0  0  0
   17.8291   -9.5848  -17.7540 N   0  0  0  0  0  0  0  0  0  0  0  0
   18.2463   -7.7502  -16.2174 C   0  0  0  0  0  0  0  0  0  0  0  0
   18.3674   -8.5908  -15.3084 O   0  0  0  0  0  0  0  0  0  0  0  0
   22.7334   -5.5297  -13.9666 C   0  0  0  0  0  0  0  0  0  0  0  0
   21.3926   -6.0676  -13.4318 C   0  0  2  0  0  0  0  0  0  0  0  0
   21.6974   -7.0149  -12.3405 C   0  0  0  0  0  0  0  0  0  0  0  0
   20.6126   -6.5591  -14.5722 C   0  0  0  0  0  0  0  0  0  0  0  0
   19.2805   -5.9350  -14.8093 C   0  0  2  0  0  0  0  0  0  0  0  0
   18.6170   -6.4281  -15.9843 N   0  0  0  0  0  0  0  0  0  0  0  0
   19.3401   -4.4623  -14.9167 C   0  0  0  0  0  0  0  0  0  0  0  0
   19.2929   -3.9190  -16.0448 O   0  0  0  0  0  0  0  0  0  0  0  0
   19.4468   -3.6504  -13.8089 O   0  0  0  0  0  0  0  0  0  0  0  0
  2  1  1  0
  3  4  1  0
  3  2  1  0
  4  5  1  0
  5  1  1  0
  5  6  1  1
  7  6  2  0
  8  9  1  0
 10  9  1  1
 10 11  1  0
 10 12  1  0
 11  6  1  0
 12 19  1  0
 13 12  2  0
 15 14  1  6
 16 15  1  0
 17 15  1  0
 18 17  1  6
 19 18  1  0
 20 18  1  0
 20 22  1  0
 21 20  2  0
M  END
$$$$
