PSL.pdb
     RDKit          3D

 22 22  0  0  1  0  0  0  0  0999 V2000
   16.3642  -14.2744  -16.3089 N   0  0  0  0  0  0  0  0  0  0  0  0
   16.0436  -15.6193  -16.8032 C   0  0  0  0  0  0  0  0  0  0  0  0
   16.3339  -15.5420  -18.2831 C   0  0  0  0  0  0  0  0  0  0  0  0
   17.1212  -14.2461  -18.4772 C   0  0  0  0  0  0  0  0  0  0  0  0
   17.5658  -13.9826  -17.0363 C   0  0  1  0  0  0  0  0  0  0  0  0
   17.9640  -12.5628  -16.9347 C   0  0  0  0  0  0  0  0  0  0  0  0
   19.1647  -12.2876  -17.2370 O   0  0  0  0  0  0  0  0  0  0  0  0
   15.7641   -9.3363  -15.1073 O   0  0  0  0  0  0  0  0  0  0  0  0
   16.4316   -9.1756  -16.3084 C   0  0  0  0  0  0  0  0  0  0  0  0
   17.5594  -10.1756  -16.4889 C   0  0  2  0  0  0  0  0  0  0  0  0
   17.0902  -11.5231  -16.5264 N   0  0  0  0  0  0  0  0  0  0  0  0
   18.6283   -9.9491  -15.4976 C   0  0  0  0  0  0  0  0  0  0  0  0
   18.7815  -10.7729  -14.5780 O   0  0  0  0  0  0  0  0  0  0  0  0
   23.9475   -8.7410  -15.0396 C   0  0  0  0  0  0  0  0  0  0  0  0
   22.9175   -9.4438  -14.1351 C   0  0  2  0  0  0  0  0  0  0  0  0
   23.5675  -10.6438  -13.5707 C   0  0  0  0  0  0  0  0  0  0  0  0
   21.6847   -9.6277  -14.9076 C   0  0  0  0  0  0  0  0  0  0  0  0
   20.6190   -8.5982  -14.7502 C   0  0  2  0  0  0  0  0  0  0  0  0
   19.4643   -8.8377  -15.5707 N   0  0  0  0  0  0  0  0  0  0  0  0
   21.0904   -7.2266  -15.0344 C   0  0  0  0  0  0  0  0  0  0  0  0
   20.8658   -6.7120  -16.1545 O   0  0  0  0  0  0  0  0  0  0  0  0
   21.7770   -6.4798  -14.1024 O   0  0  0  0  0  0  0  0  0  0  0  0
  2  1  1  0
  3  4  1  0
  3  2  1  0
  4  5  1  0
  5  1  1  0
  5  6  1  6
  7  6  2  0
  8  9  1  0
 10  9  1  1
 10 11  1  0
 10 12  1  0
 11  6  1  0
 12 19  1  0
 13 12  2  0
 15 14  1  6
 16 15  1  0
 17 15  1  0
 18 17  1  6
 19 18  1  0
 20 18  1  0
 20 22  1  0
 21 20  2  0
M  END
$$$$
