PSL.pdb
     RDKit          3D

 22 22  0  0  1  0  0  0  0  0999 V2000
   27.1735  -21.0607  -15.3665 N   0  0  0  0  0  0  0  0  0  0  0  0
   27.6923  -20.9166  -16.7325 C   0  0  0  0  0  0  0  0  0  0  0  0
   28.0595  -19.4551  -16.8301 C   0  0  0  0  0  0  0  0  0  0  0  0
   28.0337  -18.9312  -15.3941 C   0  0  0  0  0  0  0  0  0  0  0  0
   28.0977  -20.2527  -14.6241 C   0  0  1  0  0  0  0  0  0  0  0  0
   27.6474  -19.9958  -13.2400 C   0  0  0  0  0  0  0  0  0  0  0  0
   28.3591  -19.2049  -12.5496 O   0  0  0  0  0  0  0  0  0  0  0  0
   23.6610  -20.8160  -11.9142 O   0  0  0  0  0  0  0  0  0  0  0  0
   24.4177  -19.6741  -11.7210 C   0  0  0  0  0  0  0  0  0  0  0  0
   25.8909  -19.9769  -11.5149 C   0  0  2  0  0  0  0  0  0  0  0  0
   26.4887  -20.5763  -12.6641 N   0  0  0  0  0  0  0  0  0  0  0  0
   26.1028  -20.7421  -10.2714 C   0  0  0  0  0  0  0  0  0  0  0  0
   26.2487  -21.9757  -10.3406 O   0  0  0  0  0  0  0  0  0  0  0  0
   28.9493  -20.5957   -6.6964 C   0  0  0  0  0  0  0  0  0  0  0  0
   27.9819  -19.3973   -6.7285 C   0  0  2  0  0  0  0  0  0  0  0  0
   28.4312  -18.4359   -5.7014 C   0  0  0  0  0  0  0  0  0  0  0  0
   26.6132  -19.9153   -6.6347 C   0  0  0  0  0  0  0  0  0  0  0  0
   26.1287  -20.7733   -7.7525 C   0  0  2  0  0  0  0  0  0  0  0  0
   26.1423  -20.1142   -9.0289 N   0  0  0  0  0  0  0  0  0  0  0  0
   24.7628  -21.2938   -7.5348 C   0  0  0  0  0  0  0  0  0  0  0  0
   23.8236  -20.8986   -8.2639 O   0  0  0  0  0  0  0  0  0  0  0  0
   24.4767  -22.2108   -6.5473 O   0  0  0  0  0  0  0  0  0  0  0  0
  2  1  1  0
  3  4  1  0
  3  2  1  0
  4  5  1  0
  5  1  1  0
  5  6  1  1
  7  6  2  0
  8  9  1  0
 10  9  1  6
 10 11  1  0
 10 12  1  0
 11  6  1  0
 12 19  1  0
 13 12  2  0
 15 14  1  1
 16 15  1  0
 17 15  1  0
 18 17  1  1
 19 18  1  0
 20 18  1  0
 20 22  1  0
 21 20  2  0
M  END
$$$$
