PSL.pdb
     RDKit          3D

 22 22  0  0  1  0  0  0  0  0999 V2000
   19.5573  -12.0735  -17.6095 N   0  0  0  0  0  0  0  0  0  0  0  0
   19.7238  -13.4193  -18.1725 C   0  0  0  0  0  0  0  0  0  0  0  0
   20.2738  -13.1695  -19.5564 C   0  0  0  0  0  0  0  0  0  0  0  0
   20.6984  -11.7009  -19.5676 C   0  0  0  0  0  0  0  0  0  0  0  0
   20.7540  -11.4252  -18.0629 C   0  0  1  0  0  0  0  0  0  0  0  0
   20.7191   -9.9606  -17.8666 C   0  0  0  0  0  0  0  0  0  0  0  0
   21.7543   -9.3167  -18.2165 O   0  0  0  0  0  0  0  0  0  0  0  0
   17.6675   -7.7357  -15.8386 O   0  0  0  0  0  0  0  0  0  0  0  0
   18.2893   -7.2326  -16.9674 C   0  0  0  0  0  0  0  0  0  0  0  0
   19.6611   -7.8400  -17.1992 C   0  0  2  0  0  0  0  0  0  0  0  0
   19.6127   -9.2615  -17.3203 N   0  0  0  0  0  0  0  0  0  0  0  0
   20.6253   -7.3654  -16.1885 C   0  0  0  0  0  0  0  0  0  0  0  0
   20.6757   -7.9411  -15.0868 O   0  0  0  0  0  0  0  0  0  0  0  0
   24.9241   -6.9762  -16.5832 C   0  0  0  0  0  0  0  0  0  0  0  0
   24.2762   -5.7330  -17.2217 C   0  0  2  0  0  0  0  0  0  0  0  0
   25.3338   -5.0072  -17.9537 C   0  0  0  0  0  0  0  0  0  0  0  0
   23.5454   -5.0125  -16.1741 C   0  0  0  0  0  0  0  0  0  0  0  0
   22.4152   -5.7255  -15.5148 C   0  0  2  0  0  0  0  0  0  0  0  0
   21.4752   -6.2916  -16.4421 N   0  0  0  0  0  0  0  0  0  0  0  0
   21.6567   -4.8703  -14.5781 C   0  0  0  0  0  0  0  0  0  0  0  0
   22.2272   -4.3968  -13.5681 O   0  0  0  0  0  0  0  0  0  0  0  0
   20.3271   -4.5681  -14.7746 O   0  0  0  0  0  0  0  0  0  0  0  0
  2  1  1  0
  3  4  1  0
  3  2  1  0
  4  5  1  0
  5  1  1  0
  5  6  1  6
  7  6  2  0
  8  9  1  0
 10  9  1  1
 10 11  1  0
 10 12  1  0
 11  6  1  0
 12 19  1  0
 13 12  2  0
 15 14  1  1
 16 15  1  0
 17 15  1  0
 18 17  1  6
 19 18  1  0
 20 18  1  0
 20 22  1  0
 21 20  2  0
M  END
$$$$
