PSL.pdb
     RDKit          3D

 22 22  0  0  1  0  0  0  0  0999 V2000
   28.0631  -18.0918  -18.7440 N   0  0  0  0  0  0  0  0  0  0  0  0
   29.3226  -17.7955  -19.4380 C   0  0  0  0  0  0  0  0  0  0  0  0
   29.9910  -16.7677  -18.5564 C   0  0  0  0  0  0  0  0  0  0  0  0
   29.2143  -16.7924  -17.2400 C   0  0  0  0  0  0  0  0  0  0  0  0
   28.4952  -18.1369  -17.3767 C   0  0  1  0  0  0  0  0  0  0  0  0
   27.3672  -18.1494  -16.4217 C   0  0  0  0  0  0  0  0  0  0  0  0
   27.6669  -18.1207  -15.1896 O   0  0  0  0  0  0  0  0  0  0  0  0
   23.0262  -18.7973  -17.0544 O   0  0  0  0  0  0  0  0  0  0  0  0
   23.6320  -17.7363  -16.4055 C   0  0  0  0  0  0  0  0  0  0  0  0
   24.9813  -18.1049  -15.8157 C   0  0  2  0  0  0  0  0  0  0  0  0
   26.0033  -18.1909  -16.8084 N   0  0  0  0  0  0  0  0  0  0  0  0
   24.8757  -19.3093  -14.9702 C   0  0  0  0  0  0  0  0  0  0  0  0
   25.1993  -20.4113  -15.4484 O   0  0  0  0  0  0  0  0  0  0  0  0
   24.0800  -21.1345   -9.8065 C   0  0  0  0  0  0  0  0  0  0  0  0
   25.4248  -21.1735  -10.5567 C   0  0  2  0  0  0  0  0  0  0  0  0
   26.4996  -21.1081   -9.5459 C   0  0  0  0  0  0  0  0  0  0  0  0
   25.3949  -20.1410  -11.5976 C   0  0  0  0  0  0  0  0  0  0  0  0
   24.4162  -20.3169  -12.7074 C   0  0  2  0  0  0  0  0  0  0  0  0
   24.4233  -19.2372  -13.6550 N   0  0  0  0  0  0  0  0  0  0  0  0
   23.0262  -20.4851  -12.2344 C   0  0  0  0  0  0  0  0  0  0  0  0
   22.2675  -19.4902  -12.1689 O   0  0  0  0  0  0  0  0  0  0  0  0
   22.5237  -21.7111  -11.8574 O   0  0  0  0  0  0  0  0  0  0  0  0
  2  1  1  0
  3  4  1  0
  3  2  1  0
  4  5  1  0
  5  1  1  0
  5  6  1  1
  7  6  2  0
  8  9  1  0
 10  9  1  6
 10 11  1  0
 10 12  1  0
 11  6  1  0
 12 19  1  0
 13 12  2  0
 15 14  1  1
 16 15  1  0
 17 15  1  0
 18 17  1  1
 19 18  1  0
 20 18  1  0
 20 22  1  0
 21 20  2  0
M  END
$$$$
