AHW.pdb
     RDKit          3D

 30 32  0  0  1  0  0  0  0  0999 V2000
    8.6598  -12.1921   19.7710 C   0  0  0  0  0  0  0  0  0  0  0  0
    8.5558  -13.5439   19.1372 C   0  0  2  0  0  0  0  0  0  0  0  0
    7.4215  -13.5635   18.2407 N   0  0  0  0  0  0  0  0  0  0  0  0
    8.4714  -14.6484   20.1316 C   0  0  0  0  0  0  0  0  0  0  0  0
    7.3661  -14.9500   20.6501 O   0  0  0  0  0  0  0  0  0  0  0  0
    9.5999  -15.3985   20.5365 N   0  0  0  0  0  0  0  0  0  0  0  0
    9.4978  -16.5093   21.4697 C   0  0  1  0  0  0  0  0  0  0  0  0
   10.1320  -17.7546   20.8789 C   0  0  0  0  0  0  0  0  0  0  0  0
    9.3939  -18.2022   19.6646 C   0  0  0  0  0  0  0  0  0  0  0  0
    8.2929  -19.0178   19.6837 C   0  0  0  0  0  0  0  0  0  0  0  0
    7.9361  -19.1754   18.3787 N   0  0  0  0  0  0  0  0  0  0  0  0
    8.7808  -18.4874   17.5959 C   0  0  0  0  0  0  0  0  0  0  0  0
    9.6830  -17.8837   18.3757 N   0  0  0  0  0  0  0  0  0  0  0  0
   10.2169  -16.1906   22.7167 C   0  0  0  0  0  0  0  0  0  0  0  0
   11.3620  -15.6960   22.6609 O   0  0  0  0  0  0  0  0  0  0  0  0
    9.5988  -16.4499   23.9575 N   0  0  0  0  0  0  0  0  0  0  0  0
   10.2447  -16.1721   25.2239 C   0  0  1  0  0  0  0  0  0  0  0  0
    9.8051  -14.8079   25.6993 C   0  0  0  0  0  0  0  0  0  0  0  0
    8.3407  -14.7042   25.8387 C   0  0  0  0  0  0  0  0  0  0  0  0
    7.3849  -15.6849   25.7034 C   0  0  0  0  0  0  0  0  0  0  0  0
    6.1746  -15.1490   25.9177 N   0  0  0  0  0  0  0  0  0  0  0  0
    6.2769  -13.8312   26.1953 C   0  0  0  0  0  0  0  0  0  0  0  0
    5.3425  -12.8593   26.4817 C   0  0  0  0  0  0  0  0  0  0  0  0
    5.8000  -11.5707   26.7238 C   0  0  0  0  0  0  0  0  0  0  0  0
    7.1427  -11.2444   26.6858 C   0  0  0  0  0  0  0  0  0  0  0  0
    8.0245  -12.2631   26.3936 C   0  0  0  0  0  0  0  0  0  0  0  0
    7.6369  -13.5561   26.1447 C   0  0  0  0  0  0  0  0  0  0  0  0
    9.9270  -17.2391   26.1692 C   0  0  0  0  0  0  0  0  0  0  0  0
    9.1011  -18.2799   25.7869 O   0  0  0  0  0  0  0  0  0  0  0  0
   10.3794  -17.2658   27.3581 O   0  0  0  0  0  0  0  0  0  0  0  0
  2  1  1  1
  2  3  1  0
  2  4  1  0
  4  5  2  0
  6  4  1  0
  6  7  1  0
  7 14  1  0
  7  8  1  6
  9  8  1  0
 10  9  2  0
 11 12  1  0
 11 10  1  0
 12 13  2  0
 13  9  1  0
 14 15  2  0
 16 17  1  0
 16 14  1  0
 17 28  1  0
 17 18  1  1
 19 18  1  0
 20 19  2  0
 21 22  1  0
 21 20  1  0
 22 27  2  0
 23 22  1  0
 23 24  2  0
 24 25  1  0
 25 26  2  0
 27 19  1  0
 27 26  1  0
 28 30  2  0
 28 29  1  0
M  END
$$$$
