AHW.pdb
     RDKit          3D

 30 32  0  0  1  0  0  0  0  0999 V2000
    5.6041  -18.7276   22.5452 C   0  0  0  0  0  0  0  0  0  0  0  0
    6.2369  -18.2745   21.2668 C   0  0  2  0  0  0  0  0  0  0  0  0
    5.9151  -19.2151   20.2167 N   0  0  0  0  0  0  0  0  0  0  0  0
    7.7086  -18.0828   21.3814 C   0  0  0  0  0  0  0  0  0  0  0  0
    8.4511  -19.0512   21.6852 O   0  0  0  0  0  0  0  0  0  0  0  0
    8.3349  -16.8341   21.1607 N   0  0  0  0  0  0  0  0  0  0  0  0
    9.7765  -16.6636   21.2513 C   0  0  1  0  0  0  0  0  0  0  0  0
   10.2625  -15.7046   20.1808 C   0  0  0  0  0  0  0  0  0  0  0  0
    9.1588  -14.8146   19.7234 C   0  0  0  0  0  0  0  0  0  0  0  0
    8.1772  -14.3154   20.5391 C   0  0  0  0  0  0  0  0  0  0  0  0
    7.3835  -13.5599   19.7302 N   0  0  0  0  0  0  0  0  0  0  0  0
    7.8576  -13.5951   18.4757 C   0  0  0  0  0  0  0  0  0  0  0  0
    8.9506  -14.3644   18.4584 N   0  0  0  0  0  0  0  0  0  0  0  0
   10.1371  -16.0908   22.5611 C   0  0  0  0  0  0  0  0  0  0  0  0
   10.7865  -15.0255   22.6124 O   0  0  0  0  0  0  0  0  0  0  0  0
    9.7418  -16.7565   23.7399 N   0  0  0  0  0  0  0  0  0  0  0  0
   10.2161  -16.3671   25.0519 C   0  0  1  0  0  0  0  0  0  0  0  0
    9.8082  -14.9356   25.3060 C   0  0  0  0  0  0  0  0  0  0  0  0
    8.3728  -14.8052   25.6184 C   0  0  0  0  0  0  0  0  0  0  0  0
    7.3900  -15.7681   25.5985 C   0  0  0  0  0  0  0  0  0  0  0  0
    6.2237  -15.2104   25.9546 N   0  0  0  0  0  0  0  0  0  0  0  0
    6.3824  -13.8950   26.2169 C   0  0  0  0  0  0  0  0  0  0  0  0
    5.5067  -12.9066   26.6114 C   0  0  0  0  0  0  0  0  0  0  0  0
    6.0132  -11.6269   26.7963 C   0  0  0  0  0  0  0  0  0  0  0  0
    7.3477  -11.3251   26.5987 C   0  0  0  0  0  0  0  0  0  0  0  0
    8.1697  -12.3595   26.2047 C   0  0  0  0  0  0  0  0  0  0  0  0
    7.7316  -13.6449   26.0048 C   0  0  0  0  0  0  0  0  0  0  0  0
    9.6923  -17.2984   26.0477 C   0  0  0  0  0  0  0  0  0  0  0  0
   10.0451  -17.1612   27.3774 O   0  0  0  0  0  0  0  0  0  0  0  0
    8.9080  -18.2559   25.7526 O   0  0  0  0  0  0  0  0  0  0  0  0
  2  1  1  1
  2  3  1  0
  2  4  1  0
  4  5  2  0
  6  4  1  0
  6  7  1  0
  7 14  1  0
  7  8  1  6
  9  8  1  0
 10  9  2  0
 11 12  1  0
 11 10  1  0
 12 13  2  0
 13  9  1  0
 14 15  2  0
 16 17  1  0
 16 14  1  0
 17 28  1  0
 17 18  1  1
 19 18  1  0
 20 19  2  0
 21 22  1  0
 21 20  1  0
 22 27  2  0
 23 22  1  0
 23 24  2  0
 24 25  1  0
 25 26  2  0
 27 19  1  0
 27 26  1  0
 28 30  2  0
 28 29  1  0
M  END
$$$$
