AHW.pdb
     RDKit          3D

 30 32  0  0  1  0  0  0  0  0999 V2000
    8.1560  -12.4715   20.3359 C   0  0  0  0  0  0  0  0  0  0  0  0
    8.2735  -13.8490   19.7625 C   0  0  2  0  0  0  0  0  0  0  0  0
    7.0938  -14.1408   18.9790 N   0  0  0  0  0  0  0  0  0  0  0  0
    8.5003  -14.8936   20.7984 C   0  0  0  0  0  0  0  0  0  0  0  0
    7.5307  -15.3605   21.4490 O   0  0  0  0  0  0  0  0  0  0  0  0
    9.7845  -15.4041   21.0989 N   0  0  0  0  0  0  0  0  0  0  0  0
    9.9777  -16.5486   21.9753 C   0  0  1  0  0  0  0  0  0  0  0  0
   11.1870  -17.3521   21.5348 C   0  0  0  0  0  0  0  0  0  0  0  0
   10.9194  -18.0532   20.2478 C   0  0  0  0  0  0  0  0  0  0  0  0
    9.7194  -18.6226   19.9104 C   0  0  0  0  0  0  0  0  0  0  0  0
    9.9044  -19.1478   18.6674 N   0  0  0  0  0  0  0  0  0  0  0  0
   11.1611  -18.9109   18.2621 C   0  0  0  0  0  0  0  0  0  0  0  0
   11.7963  -18.2375   19.2264 N   0  0  0  0  0  0  0  0  0  0  0  0
   10.2229  -16.0932   23.3560 C   0  0  0  0  0  0  0  0  0  0  0  0
   11.0392  -15.1724   23.5676 O   0  0  0  0  0  0  0  0  0  0  0  0
    9.5296  -16.7063   24.4202 N   0  0  0  0  0  0  0  0  0  0  0  0
    9.7995  -16.3953   25.8088 C   0  0  1  0  0  0  0  0  0  0  0  0
    8.5082  -16.4985   26.5849 C   0  0  0  0  0  0  0  0  0  0  0  0
    7.4820  -15.5569   26.1000 C   0  0  0  0  0  0  0  0  0  0  0  0
    6.4136  -15.7928   25.2656 C   0  0  0  0  0  0  0  0  0  0  0  0
    5.7357  -14.6494   25.0888 N   0  0  0  0  0  0  0  0  0  0  0  0
    6.3107  -13.6405   25.7784 C   0  0  0  0  0  0  0  0  0  0  0  0
    5.9994  -12.3051   25.9180 C   0  0  0  0  0  0  0  0  0  0  0  0
    6.8222  -11.5278   26.7225 C   0  0  0  0  0  0  0  0  0  0  0  0
    7.9240  -12.0493   27.3743 C   0  0  0  0  0  0  0  0  0  0  0  0
    8.1791  -13.3919   27.1924 C   0  0  0  0  0  0  0  0  0  0  0  0
    7.4056  -14.2137   26.4111 C   0  0  0  0  0  0  0  0  0  0  0  0
   10.8416  -17.2890   26.3072 C   0  0  0  0  0  0  0  0  0  0  0  0
   11.3887  -17.0840   27.5602 O   0  0  0  0  0  0  0  0  0  0  0  0
   11.2873  -18.2730   25.6348 O   0  0  0  0  0  0  0  0  0  0  0  0
  2  1  1  1
  2  3  1  0
  2  4  1  0
  4  5  2  0
  6  4  1  0
  6  7  1  0
  7 14  1  0
  7  8  1  6
  9  8  1  0
 10  9  2  0
 11 12  1  0
 11 10  1  0
 12 13  2  0
 13  9  1  0
 14 15  2  0
 16 17  1  0
 16 14  1  0
 17 28  1  0
 17 18  1  1
 19 18  1  0
 20 19  2  0
 21 22  1  0
 21 20  1  0
 22 27  2  0
 23 22  1  0
 23 24  2  0
 24 25  1  0
 25 26  2  0
 27 19  1  0
 27 26  1  0
 28 30  2  0
 28 29  1  0
M  END
$$$$
