AHW.pdb
     RDKit          3D

 30 32  0  0  1  0  0  0  0  0999 V2000
    7.8821  -12.3643   19.9741 C   0  0  0  0  0  0  0  0  0  0  0  0
    8.3977  -13.6377   19.3803 C   0  0  2  0  0  0  0  0  0  0  0  0
    7.5931  -13.9870   18.2308 N   0  0  0  0  0  0  0  0  0  0  0  0
    8.4483  -14.7582   20.3590 C   0  0  0  0  0  0  0  0  0  0  0  0
    7.3866  -15.2090   20.8601 O   0  0  0  0  0  0  0  0  0  0  0  0
    9.6610  -15.3604   20.7674 N   0  0  0  0  0  0  0  0  0  0  0  0
    9.6946  -16.4981   21.6729 C   0  0  1  0  0  0  0  0  0  0  0  0
   10.6795  -17.5394   21.1753 C   0  0  0  0  0  0  0  0  0  0  0  0
   10.2130  -18.1441   19.8962 C   0  0  0  0  0  0  0  0  0  0  0  0
    9.2258  -19.0897   19.8007 C   0  0  0  0  0  0  0  0  0  0  0  0
    9.1145  -19.3642   18.4713 N   0  0  0  0  0  0  0  0  0  0  0  0
    9.9941  -18.6204   17.7838 C   0  0  0  0  0  0  0  0  0  0  0  0
   10.6765  -17.8648   18.6498 N   0  0  0  0  0  0  0  0  0  0  0  0
   10.1385  -16.0669   23.0111 C   0  0  0  0  0  0  0  0  0  0  0  0
   11.0371  -15.2065   23.1170 O   0  0  0  0  0  0  0  0  0  0  0  0
    9.5396  -16.6345   24.1549 N   0  0  0  0  0  0  0  0  0  0  0  0
    9.9107  -16.2505   25.5013 C   0  0  1  0  0  0  0  0  0  0  0  0
    8.7212  -16.4622   26.4072 C   0  0  0  0  0  0  0  0  0  0  0  0
    7.6009  -15.5580   26.0875 C   0  0  0  0  0  0  0  0  0  0  0  0
    6.3752  -15.8566   25.5380 C   0  0  0  0  0  0  0  0  0  0  0  0
    5.6610  -14.7276   25.4218 N   0  0  0  0  0  0  0  0  0  0  0  0
    6.3641  -13.6676   25.8760 C   0  0  0  0  0  0  0  0  0  0  0  0
    6.0760  -12.3229   25.9680 C   0  0  0  0  0  0  0  0  0  0  0  0
    7.0491  -11.4857   26.4977 C   0  0  0  0  0  0  0  0  0  0  0  0
    8.2755  -11.9575   26.9267 C   0  0  0  0  0  0  0  0  0  0  0  0
    8.4995  -13.3126   26.8068 C   0  0  0  0  0  0  0  0  0  0  0  0
    7.5801  -14.1926   26.2924 C   0  0  0  0  0  0  0  0  0  0  0  0
   11.0869  -17.0131   25.9112 C   0  0  0  0  0  0  0  0  0  0  0  0
   11.7732  -16.6638   27.0594 O   0  0  0  0  0  0  0  0  0  0  0  0
   11.5286  -18.0084   25.2528 O   0  0  0  0  0  0  0  0  0  0  0  0
  2  1  1  1
  2  3  1  0
  2  4  1  0
  4  5  2  0
  6  4  1  0
  6  7  1  0
  7 14  1  0
  7  8  1  6
  9  8  1  0
 10  9  2  0
 11 12  1  0
 11 10  1  0
 12 13  2  0
 13  9  1  0
 14 15  2  0
 16 17  1  0
 16 14  1  0
 17 28  1  0
 17 18  1  1
 19 18  1  0
 20 19  2  0
 21 22  1  0
 21 20  1  0
 22 27  2  0
 23 22  1  0
 23 24  2  0
 24 25  1  0
 25 26  2  0
 27 19  1  0
 27 26  1  0
 28 30  2  0
 28 29  1  0
M  END
$$$$
