AHW.pdb
     RDKit          3D

 30 32  0  0  1  0  0  0  0  0999 V2000
    7.3857  -12.8763   19.0752 C   0  0  0  0  0  0  0  0  0  0  0  0
    8.6091  -13.2207   19.8655 C   0  0  2  0  0  0  0  0  0  0  0  0
    9.7083  -13.4662   18.9587 N   0  0  0  0  0  0  0  0  0  0  0  0
    8.4040  -14.3748   20.7830 C   0  0  0  0  0  0  0  0  0  0  0  0
    7.4330  -14.3831   21.5821 O   0  0  0  0  0  0  0  0  0  0  0  0
    9.2672  -15.4949   20.8051 N   0  0  0  0  0  0  0  0  0  0  0  0
    9.0971  -16.5855   21.7522 C   0  0  1  0  0  0  0  0  0  0  0  0
    9.6923  -17.8652   21.1954 C   0  0  0  0  0  0  0  0  0  0  0  0
    8.8099  -18.4499   20.1470 C   0  0  0  0  0  0  0  0  0  0  0  0
    7.5567  -17.9867   19.8423 C   0  0  0  0  0  0  0  0  0  0  0  0
    7.1060  -18.7929   18.8413 N   0  0  0  0  0  0  0  0  0  0  0  0
    8.0410  -19.7085   18.5466 C   0  0  0  0  0  0  0  0  0  0  0  0
    9.0951  -19.5079   19.3436 N   0  0  0  0  0  0  0  0  0  0  0  0
    9.7999  -16.2769   23.0110 C   0  0  0  0  0  0  0  0  0  0  0  0
   10.8878  -15.6649   22.9778 O   0  0  0  0  0  0  0  0  0  0  0  0
    9.2312  -16.6787   24.2374 N   0  0  0  0  0  0  0  0  0  0  0  0
    9.8330  -16.3637   25.5167 C   0  0  1  0  0  0  0  0  0  0  0  0
    8.7380  -16.2597   26.5512 C   0  0  0  0  0  0  0  0  0  0  0  0
    7.6293  -15.3914   26.1134 C   0  0  0  0  0  0  0  0  0  0  0  0
    6.4929  -15.7232   25.4120 C   0  0  0  0  0  0  0  0  0  0  0  0
    5.7530  -14.6197   25.2303 N   0  0  0  0  0  0  0  0  0  0  0  0
    6.3517  -13.5448   25.7875 C   0  0  0  0  0  0  0  0  0  0  0  0
    6.0001  -12.2147   25.8690 C   0  0  0  0  0  0  0  0  0  0  0  0
    6.8664  -11.3539   26.5300 C   0  0  0  0  0  0  0  0  0  0  0  0
    8.0494  -11.7889   27.0975 C   0  0  0  0  0  0  0  0  0  0  0  0
    8.3413  -13.1313   26.9803 C   0  0  0  0  0  0  0  0  0  0  0  0
    7.5281  -14.0330   26.3402 C   0  0  0  0  0  0  0  0  0  0  0  0
   10.8330  -17.3781   25.8395 C   0  0  0  0  0  0  0  0  0  0  0  0
   11.6685  -17.2053   26.9275 O   0  0  0  0  0  0  0  0  0  0  0  0
   10.9835  -18.4414   25.1571 O   0  0  0  0  0  0  0  0  0  0  0  0
  2  1  1  6
  2  3  1  0
  2  4  1  0
  4  5  2  0
  6  4  1  0
  6  7  1  0
  7 14  1  0
  7  8  1  6
  9  8  1  0
 10  9  2  0
 11 12  1  0
 11 10  1  0
 12 13  2  0
 13  9  1  0
 14 15  2  0
 16 17  1  0
 16 14  1  0
 17 28  1  0
 17 18  1  1
 19 18  1  0
 20 19  2  0
 21 22  1  0
 21 20  1  0
 22 27  2  0
 23 22  1  0
 23 24  2  0
 24 25  1  0
 25 26  2  0
 27 19  1  0
 27 26  1  0
 28 30  2  0
 28 29  1  0
M  END
$$$$
