AHW.pdb
     RDKit          3D

 30 32  0  0  1  0  0  0  0  0999 V2000
    6.7908  -13.2427   19.0219 C   0  0  0  0  0  0  0  0  0  0  0  0
    8.1575  -13.3763   19.6172 C   0  0  2  0  0  0  0  0  0  0  0  0
    9.1271  -13.5254   18.5549 N   0  0  0  0  0  0  0  0  0  0  0  0
    8.2597  -14.4931   20.5960 C   0  0  0  0  0  0  0  0  0  0  0  0
    7.4636  -14.5580   21.5674 O   0  0  0  0  0  0  0  0  0  0  0  0
    9.2318  -15.5148   20.4893 N   0  0  0  0  0  0  0  0  0  0  0  0
    9.2659  -16.6498   21.3981 C   0  0  1  0  0  0  0  0  0  0  0  0
   10.0133  -17.8091   20.7662 C   0  0  0  0  0  0  0  0  0  0  0  0
    9.4178  -18.1711   19.4494 C   0  0  0  0  0  0  0  0  0  0  0  0
    8.3598  -19.0267   19.2863 C   0  0  0  0  0  0  0  0  0  0  0  0
    8.1384  -19.0772   17.9434 N   0  0  0  0  0  0  0  0  0  0  0  0
    9.0213  -18.2882   17.3126 C   0  0  0  0  0  0  0  0  0  0  0  0
    9.8145  -17.7246   18.2290 N   0  0  0  0  0  0  0  0  0  0  0  0
    9.9749  -16.2842   22.6381 C   0  0  0  0  0  0  0  0  0  0  0  0
   10.9012  -15.4480   22.5971 O   0  0  0  0  0  0  0  0  0  0  0  0
    9.5948  -16.8862   23.8555 N   0  0  0  0  0  0  0  0  0  0  0  0
   10.1591  -16.4921   25.1300 C   0  0  1  0  0  0  0  0  0  0  0  0
    9.8887  -15.0217   25.3421 C   0  0  0  0  0  0  0  0  0  0  0  0
    8.4506  -14.7276   25.4846 C   0  0  0  0  0  0  0  0  0  0  0  0
    7.3703  -15.5464   25.2476 C   0  0  0  0  0  0  0  0  0  0  0  0
    6.2426  -14.8695   25.5089 N   0  0  0  0  0  0  0  0  0  0  0  0
    6.5223  -13.6128   25.9172 C   0  0  0  0  0  0  0  0  0  0  0  0
    5.7272  -12.5522   26.2949 C   0  0  0  0  0  0  0  0  0  0  0  0
    6.3551  -11.3708   26.6666 C   0  0  0  0  0  0  0  0  0  0  0  0
    7.7306  -11.2340   26.6674 C   0  0  0  0  0  0  0  0  0  0  0  0
    8.4672  -12.3327   26.2789 C   0  0  0  0  0  0  0  0  0  0  0  0
    7.9081  -13.5278   25.9005 C   0  0  0  0  0  0  0  0  0  0  0  0
    9.6013  -17.3360   26.1835 C   0  0  0  0  0  0  0  0  0  0  0  0
    8.6626  -18.3023   25.8727 O   0  0  0  0  0  0  0  0  0  0  0  0
    9.9393  -17.2291   27.4056 O   0  0  0  0  0  0  0  0  0  0  0  0
  2  1  1  6
  2  3  1  0
  2  4  1  0
  4  5  2  0
  6  4  1  0
  6  7  1  0
  7 14  1  0
  7  8  1  6
  9  8  1  0
 10  9  2  0
 11 12  1  0
 11 10  1  0
 12 13  2  0
 13  9  1  0
 14 15  2  0
 16 17  1  0
 16 14  1  0
 17 28  1  0
 17 18  1  1
 19 18  1  0
 20 19  2  0
 21 22  1  0
 21 20  1  0
 22 27  2  0
 23 22  1  0
 23 24  2  0
 24 25  1  0
 25 26  2  0
 27 19  1  0
 27 26  1  0
 28 30  2  0
 28 29  1  0
M  END
$$$$
