AHW.pdb
     RDKit          3D

 30 32  0  0  1  0  0  0  0  0999 V2000
   14.4843  -16.2821   19.5450 C   0  0  0  0  0  0  0  0  0  0  0  0
   13.4571  -15.2596   19.1717 C   0  0  2  0  0  0  0  0  0  0  0  0
   14.1230  -14.0683   18.6940 N   0  0  0  0  0  0  0  0  0  0  0  0
   12.5218  -14.9403   20.2848 C   0  0  0  0  0  0  0  0  0  0  0  0
   12.8215  -14.0588   21.1301 O   0  0  0  0  0  0  0  0  0  0  0  0
   11.2782  -15.5938   20.4476 N   0  0  0  0  0  0  0  0  0  0  0  0
   10.3072  -15.1742   21.4459 C   0  0  1  0  0  0  0  0  0  0  0  0
    8.8978  -15.4672   20.9667 C   0  0  0  0  0  0  0  0  0  0  0  0
    8.5256  -14.5756   19.8326 C   0  0  0  0  0  0  0  0  0  0  0  0
    9.3452  -13.6143   19.3013 C   0  0  0  0  0  0  0  0  0  0  0  0
    8.6260  -13.0394   18.2977 N   0  0  0  0  0  0  0  0  0  0  0  0
    7.4203  -13.6223   18.2182 C   0  0  0  0  0  0  0  0  0  0  0  0
    7.3462  -14.5699   19.1579 N   0  0  0  0  0  0  0  0  0  0  0  0
   10.5165  -15.9199   22.7004 C   0  0  0  0  0  0  0  0  0  0  0  0
   11.2066  -16.9605   22.6933 O   0  0  0  0  0  0  0  0  0  0  0  0
    9.9325  -15.4453   23.8931 N   0  0  0  0  0  0  0  0  0  0  0  0
   10.1128  -16.1091   25.1677 C   0  0  1  0  0  0  0  0  0  0  0  0
    9.6106  -15.1965   26.2610 C   0  0  0  0  0  0  0  0  0  0  0  0
    8.2048  -14.7982   26.0615 C   0  0  0  0  0  0  0  0  0  0  0  0
    7.1342  -15.5653   25.6628 C   0  0  0  0  0  0  0  0  0  0  0  0
    6.0376  -14.7951   25.6151 N   0  0  0  0  0  0  0  0  0  0  0  0
    6.3290  -13.5248   25.9696 C   0  0  0  0  0  0  0  0  0  0  0  0
    5.5638  -12.3834   26.0762 C   0  0  0  0  0  0  0  0  0  0  0  0
    6.1958  -11.2138   26.4773 C   0  0  0  0  0  0  0  0  0  0  0  0
    7.5466  -11.1661   26.7669 C   0  0  0  0  0  0  0  0  0  0  0  0
    8.2539  -12.3427   26.6404 C   0  0  0  0  0  0  0  0  0  0  0  0
    7.6891  -13.5309   26.2488 C   0  0  0  0  0  0  0  0  0  0  0  0
    9.4291  -17.3994   25.1381 C   0  0  0  0  0  0  0  0  0  0  0  0
    8.6197  -17.7299   24.0671 O   0  0  0  0  0  0  0  0  0  0  0  0
    9.5388  -18.2606   26.0683 O   0  0  0  0  0  0  0  0  0  0  0  0
  2  1  1  1
  2  3  1  0
  2  4  1  0
  4  5  2  0
  6  4  1  0
  6  7  1  0
  7 14  1  0
  7  8  1  6
  9  8  1  0
 10  9  2  0
 11 12  1  0
 11 10  1  0
 12 13  2  0
 13  9  1  0
 14 15  2  0
 16 17  1  0
 16 14  1  0
 17 28  1  0
 17 18  1  1
 19 18  1  0
 20 19  2  0
 21 22  1  0
 21 20  1  0
 22 27  2  0
 23 22  1  0
 23 24  2  0
 24 25  1  0
 25 26  2  0
 27 19  1  0
 27 26  1  0
 28 30  2  0
 28 29  1  0
M  END
$$$$
