AHW.pdb
     RDKit          3D

 30 32  0  0  1  0  0  0  0  0999 V2000
    5.2039  -18.9813   22.4143 C   0  0  0  0  0  0  0  0  0  0  0  0
    5.7226  -18.5135   21.0906 C   0  0  2  0  0  0  0  0  0  0  0  0
    5.9806  -19.6601   20.2482 N   0  0  0  0  0  0  0  0  0  0  0  0
    6.9318  -17.6537   21.2097 C   0  0  0  0  0  0  0  0  0  0  0  0
    8.0757  -18.1738   21.2590 O   0  0  0  0  0  0  0  0  0  0  0  0
    6.8616  -16.2426   21.2722 N   0  0  0  0  0  0  0  0  0  0  0  0
    8.0498  -15.4121   21.3886 C   0  0  1  0  0  0  0  0  0  0  0  0
    7.7960  -14.0413   20.7897 C   0  0  0  0  0  0  0  0  0  0  0  0
    7.9664  -14.0678   19.3099 C   0  0  0  0  0  0  0  0  0  0  0  0
    8.3823  -15.1619   18.5971 C   0  0  0  0  0  0  0  0  0  0  0  0
    8.4005  -14.7608   17.2956 N   0  0  0  0  0  0  0  0  0  0  0  0
    8.0134  -13.4789   17.2152 C   0  0  0  0  0  0  0  0  0  0  0  0
    7.7433  -13.0407   18.4487 N   0  0  0  0  0  0  0  0  0  0  0  0
    8.3972  -15.2216   22.8087 C   0  0  0  0  0  0  0  0  0  0  0  0
    7.6248  -14.5834   23.5539 O   0  0  0  0  0  0  0  0  0  0  0  0
    9.6001  -15.7647   23.3057 N   0  0  0  0  0  0  0  0  0  0  0  0
   10.0127  -15.6133   24.6858 C   0  0  1  0  0  0  0  0  0  0  0  0
    8.9776  -16.2643   25.5718 C   0  0  0  0  0  0  0  0  0  0  0  0
    7.8084  -15.3963   25.8048 C   0  0  0  0  0  0  0  0  0  0  0  0
    6.4704  -15.6905   25.6759 C   0  0  0  0  0  0  0  0  0  0  0  0
    5.7510  -14.6036   25.9908 N   0  0  0  0  0  0  0  0  0  0  0  0
    6.5594  -13.5765   26.3309 C   0  0  0  0  0  0  0  0  0  0  0  0
    6.3102  -12.2792   26.7240 C   0  0  0  0  0  0  0  0  0  0  0  0
    7.3999  -11.4659   27.0056 C   0  0  0  0  0  0  0  0  0  0  0  0
    8.7030  -11.9156   26.9038 C   0  0  0  0  0  0  0  0  0  0  0  0
    8.8826  -13.2233   26.5056 C   0  0  0  0  0  0  0  0  0  0  0  0
    7.8489  -14.0776   26.2128 C   0  0  0  0  0  0  0  0  0  0  0  0
   11.3486  -16.1795   24.8524 C   0  0  0  0  0  0  0  0  0  0  0  0
   12.0248  -16.0189   26.0476 O   0  0  0  0  0  0  0  0  0  0  0  0
   11.9424  -16.8302   23.9342 O   0  0  0  0  0  0  0  0  0  0  0  0
  2  1  1  1
  2  3  1  0
  2  4  1  0
  4  5  2  0
  6  4  1  0
  6  7  1  0
  7 14  1  0
  7  8  1  1
  9  8  1  0
 10  9  2  0
 11 12  1  0
 11 10  1  0
 12 13  2  0
 13  9  1  0
 14 15  2  0
 16 17  1  0
 16 14  1  0
 17 28  1  0
 17 18  1  1
 19 18  1  0
 20 19  2  0
 21 22  1  0
 21 20  1  0
 22 27  2  0
 23 22  1  0
 23 24  2  0
 24 25  1  0
 25 26  2  0
 27 19  1  0
 27 26  1  0
 28 30  2  0
 28 29  1  0
M  END
$$$$
