AHW.pdb
     RDKit          3D

 30 32  0  0  1  0  0  0  0  0999 V2000
    5.7400  -18.7051   22.2450 C   0  0  0  0  0  0  0  0  0  0  0  0
    6.2479  -18.0825   20.9823 C   0  0  2  0  0  0  0  0  0  0  0  0
    6.4253  -19.1115   19.9820 N   0  0  0  0  0  0  0  0  0  0  0  0
    7.5023  -17.3057   21.1796 C   0  0  0  0  0  0  0  0  0  0  0  0
    8.6205  -17.8692   21.0632 O   0  0  0  0  0  0  0  0  0  0  0  0
    7.5044  -15.9283   21.5002 N   0  0  0  0  0  0  0  0  0  0  0  0
    8.7363  -15.1765   21.6802 C   0  0  1  0  0  0  0  0  0  0  0  0
    8.6088  -13.7983   21.0588 C   0  0  0  0  0  0  0  0  0  0  0  0
    8.4603  -13.8937   19.5795 C   0  0  0  0  0  0  0  0  0  0  0  0
    7.4039  -13.3823   18.8721 C   0  0  0  0  0  0  0  0  0  0  0  0
    7.6602  -13.6846   17.5690 N   0  0  0  0  0  0  0  0  0  0  0  0
    8.8212  -14.3512   17.4825 C   0  0  0  0  0  0  0  0  0  0  0  0
    9.3237  -14.4863   18.7137 N   0  0  0  0  0  0  0  0  0  0  0  0
    9.0130  -14.9947   23.1170 C   0  0  0  0  0  0  0  0  0  0  0  0
    8.8093  -13.8842   23.6502 O   0  0  0  0  0  0  0  0  0  0  0  0
    9.5049  -16.0811   23.8697 N   0  0  0  0  0  0  0  0  0  0  0  0
    9.9730  -15.9372   25.2328 C   0  0  1  0  0  0  0  0  0  0  0  0
    8.8724  -16.3768   26.1686 C   0  0  0  0  0  0  0  0  0  0  0  0
    7.6613  -15.5445   26.0453 C   0  0  0  0  0  0  0  0  0  0  0  0
    6.4199  -15.8860   25.5598 C   0  0  0  0  0  0  0  0  0  0  0  0
    5.6122  -14.8183   25.6335 N   0  0  0  0  0  0  0  0  0  0  0  0
    6.2666  -13.7581   26.1552 C   0  0  0  0  0  0  0  0  0  0  0  0
    5.8830  -12.4627   26.4282 C   0  0  0  0  0  0  0  0  0  0  0  0
    6.8295  -11.6080   26.9775 C   0  0  0  0  0  0  0  0  0  0  0  0
    8.1216  -12.0154   27.2522 C   0  0  0  0  0  0  0  0  0  0  0  0
    8.4399  -13.3236   26.9554 C   0  0  0  0  0  0  0  0  0  0  0  0
    7.5514  -14.2177   26.4120 C   0  0  0  0  0  0  0  0  0  0  0  0
   11.2071  -16.7002   25.3999 C   0  0  0  0  0  0  0  0  0  0  0  0
   11.7057  -17.4491   24.3501 O   0  0  0  0  0  0  0  0  0  0  0  0
   11.8678  -16.7155   26.4872 O   0  0  0  0  0  0  0  0  0  0  0  0
  2  1  1  1
  2  3  1  0
  2  4  1  0
  4  5  2  0
  6  4  1  0
  6  7  1  0
  7 14  1  0
  7  8  1  6
  9  8  1  0
 10  9  2  0
 11 12  1  0
 11 10  1  0
 12 13  2  0
 13  9  1  0
 14 15  2  0
 16 17  1  0
 16 14  1  0
 17 28  1  0
 17 18  1  1
 19 18  1  0
 20 19  2  0
 21 22  1  0
 21 20  1  0
 22 27  2  0
 23 22  1  0
 23 24  2  0
 24 25  1  0
 25 26  2  0
 27 19  1  0
 27 26  1  0
 28 30  2  0
 28 29  1  0
M  END
$$$$
