AHW.pdb
     RDKit          3D

 30 32  0  0  1  0  0  0  0  0999 V2000
    9.0199  -19.6095   18.7757 C   0  0  0  0  0  0  0  0  0  0  0  0
    9.2965  -19.3122   20.2162 C   0  0  2  0  0  0  0  0  0  0  0  0
    8.1558  -19.7085   21.0117 N   0  0  0  0  0  0  0  0  0  0  0  0
    9.6496  -17.8867   20.4593 C   0  0  0  0  0  0  0  0  0  0  0  0
   10.6882  -17.3960   19.9475 O   0  0  0  0  0  0  0  0  0  0  0  0
    8.8572  -17.0298   21.2579 N   0  0  0  0  0  0  0  0  0  0  0  0
    9.1716  -15.6202   21.4294 C   0  0  1  0  0  0  0  0  0  0  0  0
    7.9700  -14.7647   21.0741 C   0  0  0  0  0  0  0  0  0  0  0  0
    7.9996  -14.3776   19.6357 C   0  0  0  0  0  0  0  0  0  0  0  0
    8.9814  -14.7468   18.7539 C   0  0  0  0  0  0  0  0  0  0  0  0
    8.6272  -14.1887   17.5630 N   0  0  0  0  0  0  0  0  0  0  0  0
    7.4804  -13.5082   17.7092 C   0  0  0  0  0  0  0  0  0  0  0  0
    7.0836  -13.6169   18.9810 N   0  0  0  0  0  0  0  0  0  0  0  0
    9.5148  -15.3457   22.8368 C   0  0  0  0  0  0  0  0  0  0  0  0
    9.8346  -14.1888   23.1809 O   0  0  0  0  0  0  0  0  0  0  0  0
    9.4763  -16.3970   23.7760 N   0  0  0  0  0  0  0  0  0  0  0  0
    9.9599  -16.2484   25.1332 C   0  0  1  0  0  0  0  0  0  0  0  0
    8.8222  -16.5356   26.0837 C   0  0  0  0  0  0  0  0  0  0  0  0
    7.6908  -15.6067   25.9059 C   0  0  0  0  0  0  0  0  0  0  0  0
    6.4253  -15.8623   25.4297 C   0  0  0  0  0  0  0  0  0  0  0  0
    5.7160  -14.7244   25.4392 N   0  0  0  0  0  0  0  0  0  0  0  0
    6.4608  -13.6999   25.9081 C   0  0  0  0  0  0  0  0  0  0  0  0
    6.1937  -12.3626   26.1076 C   0  0  0  0  0  0  0  0  0  0  0  0
    7.2110  -11.5668   26.6174 C   0  0  0  0  0  0  0  0  0  0  0  0
    8.4606  -12.0720   26.9241 C   0  0  0  0  0  0  0  0  0  0  0  0
    8.6617  -13.4176   26.7009 C   0  0  0  0  0  0  0  0  0  0  0  0
    7.6986  -14.2574   26.1996 C   0  0  0  0  0  0  0  0  0  0  0  0
   11.1095  -17.1270   25.3322 C   0  0  0  0  0  0  0  0  0  0  0  0
   11.7901  -17.1153   26.5356 O   0  0  0  0  0  0  0  0  0  0  0  0
   11.5325  -17.9247   24.4356 O   0  0  0  0  0  0  0  0  0  0  0  0
  2  1  1  6
  2  3  1  0
  2  4  1  0
  4  5  2  0
  6  4  1  0
  6  7  1  0
  7 14  1  0
  7  8  1  1
  9  8  1  0
 10  9  2  0
 11 12  1  0
 11 10  1  0
 12 13  2  0
 13  9  1  0
 14 15  2  0
 16 17  1  0
 16 14  1  0
 17 28  1  0
 17 18  1  1
 19 18  1  0
 20 19  2  0
 21 22  1  0
 21 20  1  0
 22 27  2  0
 23 22  1  0
 23 24  2  0
 24 25  1  0
 25 26  2  0
 27 19  1  0
 27 26  1  0
 28 30  2  0
 28 29  1  0
M  END
$$$$
