AHW.pdb
     RDKit          3D

 30 32  0  0  1  0  0  0  0  0999 V2000
    8.4606  -12.2641   19.8734 C   0  0  0  0  0  0  0  0  0  0  0  0
    8.4748  -13.6158   19.2308 C   0  0  2  0  0  0  0  0  0  0  0  0
    7.3086  -13.7542   18.3872 N   0  0  0  0  0  0  0  0  0  0  0  0
    8.5579  -14.7283   20.2163 C   0  0  0  0  0  0  0  0  0  0  0  0
    7.5613  -15.0216   20.9250 O   0  0  0  0  0  0  0  0  0  0  0  0
    9.7311  -15.4954   20.4040 N   0  0  0  0  0  0  0  0  0  0  0  0
    9.7878  -16.6086   21.3383 C   0  0  1  0  0  0  0  0  0  0  0  0
   10.7029  -17.6963   20.8078 C   0  0  0  0  0  0  0  0  0  0  0  0
   10.0998  -18.3673   19.6223 C   0  0  0  0  0  0  0  0  0  0  0  0
    8.7538  -18.4427   19.3759 C   0  0  0  0  0  0  0  0  0  0  0  0
    8.6377  -19.1297   18.2056 N   0  0  0  0  0  0  0  0  0  0  0  0
    9.8577  -19.4601   17.7557 C   0  0  0  0  0  0  0  0  0  0  0  0
   10.7664  -18.9963   18.6192 N   0  0  0  0  0  0  0  0  0  0  0  0
   10.3336  -16.1570   22.6313 C   0  0  0  0  0  0  0  0  0  0  0  0
   11.2060  -15.2641   22.6562 O   0  0  0  0  0  0  0  0  0  0  0  0
    9.8606  -16.7420   23.8242 N   0  0  0  0  0  0  0  0  0  0  0  0
   10.2564  -16.2695   25.1349 C   0  0  1  0  0  0  0  0  0  0  0  0
    9.8258  -14.8292   25.2777 C   0  0  0  0  0  0  0  0  0  0  0  0
    8.3736  -14.6938   25.4955 C   0  0  0  0  0  0  0  0  0  0  0  0
    7.3817  -15.6347   25.3394 C   0  0  0  0  0  0  0  0  0  0  0  0
    6.2005  -15.0809   25.6493 N   0  0  0  0  0  0  0  0  0  0  0  0
    6.3577  -13.7895   26.0122 C   0  0  0  0  0  0  0  0  0  0  0  0
    5.4693  -12.8140   26.4106 C   0  0  0  0  0  0  0  0  0  0  0  0
    5.9785  -11.5594   26.7188 C   0  0  0  0  0  0  0  0  0  0  0  0
    7.3277  -11.2697   26.6378 C   0  0  0  0  0  0  0  0  0  0  0  0
    8.1619  -12.2900   26.2329 C   0  0  0  0  0  0  0  0  0  0  0  0
    7.7220  -13.5506   25.9143 C   0  0  0  0  0  0  0  0  0  0  0  0
    9.6821  -17.1438   26.1541 C   0  0  0  0  0  0  0  0  0  0  0  0
   10.0512  -16.9992   27.4786 O   0  0  0  0  0  0  0  0  0  0  0  0
    8.8379  -18.0570   25.8848 O   0  0  0  0  0  0  0  0  0  0  0  0
  2  1  1  1
  2  3  1  0
  2  4  1  0
  4  5  2  0
  6  4  1  0
  6  7  1  0
  7 14  1  0
  7  8  1  6
  9  8  1  0
 10  9  2  0
 11 12  1  0
 11 10  1  0
 12 13  2  0
 13  9  1  0
 14 15  2  0
 16 17  1  0
 16 14  1  0
 17 28  1  0
 17 18  1  1
 19 18  1  0
 20 19  2  0
 21 22  1  0
 21 20  1  0
 22 27  2  0
 23 22  1  0
 23 24  2  0
 24 25  1  0
 25 26  2  0
 27 19  1  0
 27 26  1  0
 28 30  2  0
 28 29  1  0
M  END
$$$$
