AHW.pdb
     RDKit          3D

 30 32  0  0  1  0  0  0  0  0999 V2000
    8.4622  -12.2012   19.0354 C   0  0  0  0  0  0  0  0  0  0  0  0
    8.5454  -13.5302   18.3520 C   0  0  2  0  0  0  0  0  0  0  0  0
    7.4417  -13.6598   17.4269 N   0  0  0  0  0  0  0  0  0  0  0  0
    8.5829  -14.6735   19.3046 C   0  0  0  0  0  0  0  0  0  0  0  0
    7.7981  -15.6451   19.1580 O   0  0  0  0  0  0  0  0  0  0  0  0
    9.4794  -14.7275   20.3970 N   0  0  0  0  0  0  0  0  0  0  0  0
    9.8986  -15.9858   20.9939 C   0  0  1  0  0  0  0  0  0  0  0  0
   10.7036  -16.7996   19.9981 C   0  0  0  0  0  0  0  0  0  0  0  0
   11.0584  -18.1316   20.5634 C   0  0  0  0  0  0  0  0  0  0  0  0
   10.3284  -18.7866   21.5205 C   0  0  0  0  0  0  0  0  0  0  0  0
   10.9938  -19.9530   21.7484 N   0  0  0  0  0  0  0  0  0  0  0  0
   12.0822  -20.0094   20.9662 C   0  0  0  0  0  0  0  0  0  0  0  0
   12.1332  -18.8938   20.2317 N   0  0  0  0  0  0  0  0  0  0  0  0
   10.7608  -15.7295   22.1620 C   0  0  0  0  0  0  0  0  0  0  0  0
   11.7105  -14.9246   22.0648 O   0  0  0  0  0  0  0  0  0  0  0  0
   10.4993  -16.3991   23.3753 N   0  0  0  0  0  0  0  0  0  0  0  0
    9.6964  -15.8162   24.4305 C   0  0  1  0  0  0  0  0  0  0  0  0
    8.3725  -15.3852   23.8458 C   0  0  0  0  0  0  0  0  0  0  0  0
    7.4337  -14.8985   24.8736 C   0  0  0  0  0  0  0  0  0  0  0  0
    6.3743  -15.5523   25.4599 C   0  0  0  0  0  0  0  0  0  0  0  0
    5.7914  -14.7331   26.3472 N   0  0  0  0  0  0  0  0  0  0  0  0
    6.4224  -13.5395   26.3832 C   0  0  0  0  0  0  0  0  0  0  0  0
    6.2104  -12.3899   27.1134 C   0  0  0  0  0  0  0  0  0  0  0  0
    7.0669  -11.3180   26.8992 C   0  0  0  0  0  0  0  0  0  0  0  0
    8.1064  -11.3736   25.9898 C   0  0  0  0  0  0  0  0  0  0  0  0
    8.2632  -12.5526   25.2924 C   0  0  0  0  0  0  0  0  0  0  0  0
    7.4517  -13.6472   25.4575 C   0  0  0  0  0  0  0  0  0  0  0  0
    9.5565  -16.7824   25.5168 C   0  0  0  0  0  0  0  0  0  0  0  0
    9.7117  -16.3761   26.8292 O   0  0  0  0  0  0  0  0  0  0  0  0
    9.2930  -18.0113   25.3185 O   0  0  0  0  0  0  0  0  0  0  0  0
  2  1  1  1
  2  3  1  0
  2  4  1  0
  4  5  2  0
  6  4  1  0
  6  7  1  0
  7 14  1  0
  7  8  1  6
  9  8  1  0
 10  9  2  0
 11 12  1  0
 11 10  1  0
 12 13  2  0
 13  9  1  0
 14 15  2  0
 16 17  1  0
 16 14  1  0
 17 28  1  0
 17 18  1  6
 19 18  1  0
 20 19  2  0
 21 22  1  0
 21 20  1  0
 22 27  2  0
 23 22  1  0
 23 24  2  0
 24 25  1  0
 25 26  2  0
 27 19  1  0
 27 26  1  0
 28 30  2  0
 28 29  1  0
M  END
$$$$
