AHW.pdb
     RDKit          3D

 30 32  0  0  1  0  0  0  0  0999 V2000
    7.5730  -12.7938   18.8943 C   0  0  0  0  0  0  0  0  0  0  0  0
    8.7781  -13.1736   19.6964 C   0  0  2  0  0  0  0  0  0  0  0  0
    9.8590  -13.5157   18.7989 N   0  0  0  0  0  0  0  0  0  0  0  0
    8.5125  -14.2769   20.6597 C   0  0  0  0  0  0  0  0  0  0  0  0
    7.5674  -14.1833   21.4841 O   0  0  0  0  0  0  0  0  0  0  0  0
    9.2880  -15.4589   20.6989 N   0  0  0  0  0  0  0  0  0  0  0  0
    9.0360  -16.5193   21.6619 C   0  0  1  0  0  0  0  0  0  0  0  0
    9.3408  -17.8728   21.0479 C   0  0  0  0  0  0  0  0  0  0  0  0
    8.3503  -18.2108   19.9876 C   0  0  0  0  0  0  0  0  0  0  0  0
    8.5099  -17.9221   18.6576 C   0  0  0  0  0  0  0  0  0  0  0  0
    7.3891  -18.3972   18.0467 N   0  0  0  0  0  0  0  0  0  0  0  0
    6.5797  -18.9517   18.9616 C   0  0  0  0  0  0  0  0  0  0  0  0
    7.1603  -18.8434   20.1606 N   0  0  0  0  0  0  0  0  0  0  0  0
    9.9115  -16.3545   22.8368 C   0  0  0  0  0  0  0  0  0  0  0  0
   11.1412  -16.2098   22.6761 O   0  0  0  0  0  0  0  0  0  0  0  0
    9.3450  -16.3628   24.1283 N   0  0  0  0  0  0  0  0  0  0  0  0
   10.1441  -16.2509   25.3312 C   0  0  1  0  0  0  0  0  0  0  0  0
    9.7275  -15.0024   26.0714 C   0  0  0  0  0  0  0  0  0  0  0  0
    8.2792  -14.7439   25.9706 C   0  0  0  0  0  0  0  0  0  0  0  0
    7.2637  -15.6132   25.6437 C   0  0  0  0  0  0  0  0  0  0  0  0
    6.0965  -14.9539   25.6744 N   0  0  0  0  0  0  0  0  0  0  0  0
    6.2862  -13.6601   26.0127 C   0  0  0  0  0  0  0  0  0  0  0  0
    5.4223  -12.5986   26.1758 C   0  0  0  0  0  0  0  0  0  0  0  0
    5.9631  -11.3716   26.5369 C   0  0  0  0  0  0  0  0  0  0  0  0
    7.3195  -11.1914   26.7331 C   0  0  0  0  0  0  0  0  0  0  0  0
    8.1280  -12.2937   26.5538 C   0  0  0  0  0  0  0  0  0  0  0  0
    7.6563  -13.5325   26.1976 C   0  0  0  0  0  0  0  0  0  0  0  0
    9.9897  -17.4671   26.1250 C   0  0  0  0  0  0  0  0  0  0  0  0
    9.0864  -18.4385   25.7352 O   0  0  0  0  0  0  0  0  0  0  0  0
   10.6578  -17.6896   27.1848 O   0  0  0  0  0  0  0  0  0  0  0  0
  2  1  1  6
  2  3  1  0
  2  4  1  0
  4  5  2  0
  6  4  1  0
  6  7  1  0
  7 14  1  0
  7  8  1  6
  9  8  1  0
 10  9  2  0
 11 12  1  0
 11 10  1  0
 12 13  2  0
 13  9  1  0
 14 15  2  0
 16 17  1  0
 16 14  1  0
 17 28  1  0
 17 18  1  1
 19 18  1  0
 20 19  2  0
 21 22  1  0
 21 20  1  0
 22 27  2  0
 23 22  1  0
 23 24  2  0
 24 25  1  0
 25 26  2  0
 27 19  1  0
 27 26  1  0
 28 30  2  0
 28 29  1  0
M  END
$$$$
