AHW.pdb
     RDKit          3D

 30 32  0  0  1  0  0  0  0  0999 V2000
    9.9009  -20.3716   20.8067 C   0  0  0  0  0  0  0  0  0  0  0  0
   10.0877  -19.2899   19.7894 C   0  0  2  0  0  0  0  0  0  0  0  0
   11.1169  -19.6878   18.8549 N   0  0  0  0  0  0  0  0  0  0  0  0
   10.3982  -17.9667   20.3965 C   0  0  0  0  0  0  0  0  0  0  0  0
   11.5928  -17.6014   20.5408 O   0  0  0  0  0  0  0  0  0  0  0  0
    9.3930  -17.0724   20.8323 N   0  0  0  0  0  0  0  0  0  0  0  0
    9.7020  -15.7376   21.3202 C   0  0  1  0  0  0  0  0  0  0  0  0
    8.4567  -14.8709   21.3101 C   0  0  0  0  0  0  0  0  0  0  0  0
    8.1619  -14.3797   19.9348 C   0  0  0  0  0  0  0  0  0  0  0  0
    8.9276  -14.6561   18.8324 C   0  0  0  0  0  0  0  0  0  0  0  0
    8.3116  -14.0233   17.7956 N   0  0  0  0  0  0  0  0  0  0  0  0
    7.2181  -13.3879   18.2430 C   0  0  0  0  0  0  0  0  0  0  0  0
    7.1148  -13.5998   19.5587 N   0  0  0  0  0  0  0  0  0  0  0  0
   10.1868  -15.8067   22.7108 C   0  0  0  0  0  0  0  0  0  0  0  0
   11.1794  -15.1312   23.0539 O   0  0  0  0  0  0  0  0  0  0  0  0
    9.5202  -16.6370   23.6355 N   0  0  0  0  0  0  0  0  0  0  0  0
    9.8822  -16.6917   25.0369 C   0  0  1  0  0  0  0  0  0  0  0  0
    9.6682  -15.3253   25.6430 C   0  0  0  0  0  0  0  0  0  0  0  0
    8.2399  -14.9765   25.7573 C   0  0  0  0  0  0  0  0  0  0  0  0
    7.1340  -15.7561   25.5068 C   0  0  0  0  0  0  0  0  0  0  0  0
    6.0281  -15.0356   25.7427 N   0  0  0  0  0  0  0  0  0  0  0  0
    6.3473  -13.7870   26.1469 C   0  0  0  0  0  0  0  0  0  0  0  0
    5.5860  -12.6945   26.5025 C   0  0  0  0  0  0  0  0  0  0  0  0
    6.2511  -11.5344   26.8768 C   0  0  0  0  0  0  0  0  0  0  0  0
    7.6305  -11.4491   26.9015 C   0  0  0  0  0  0  0  0  0  0  0  0
    8.3322  -12.5777   26.5344 C   0  0  0  0  0  0  0  0  0  0  0  0
    7.7354  -13.7540   26.1546 C   0  0  0  0  0  0  0  0  0  0  0  0
    9.1040  -17.7389   25.6933 C   0  0  0  0  0  0  0  0  0  0  0  0
    9.3660  -18.0751   27.0085 O   0  0  0  0  0  0  0  0  0  0  0  0
    8.1726  -18.3775   25.1070 O   0  0  0  0  0  0  0  0  0  0  0  0
  2  1  1  1
  2  3  1  0
  2  4  1  0
  4  5  2  0
  6  4  1  0
  6  7  1  0
  7 14  1  0
  7  8  1  1
  9  8  1  0
 10  9  2  0
 11 12  1  0
 11 10  1  0
 12 13  2  0
 13  9  1  0
 14 15  2  0
 16 17  1  0
 16 14  1  0
 17 28  1  0
 17 18  1  1
 19 18  1  0
 20 19  2  0
 21 22  1  0
 21 20  1  0
 22 27  2  0
 23 22  1  0
 23 24  2  0
 24 25  1  0
 25 26  2  0
 27 19  1  0
 27 26  1  0
 28 30  2  0
 28 29  1  0
M  END
$$$$
