GCL.pdb
     RDKit          3D

 19 18  0  0  1  0  0  0  0  0999 V2000
    7.5959  -17.6251   17.8950 N   0  0  0  0  0  0  0  0  0  0  0  0
    8.4127  -17.3820   19.0380 C   0  0  0  0  0  0  0  0  0  0  0  0
    7.5793  -17.1331   20.2375 C   0  0  0  0  0  0  0  0  0  0  0  0
    6.3614  -17.4301   20.1962 O   0  0  0  0  0  0  0  0  0  0  0  0
    8.1044  -16.5706   21.4353 N   0  0  0  0  0  0  0  0  0  0  0  0
    7.3560  -16.5883   22.6770 C   0  0  1  0  0  0  0  0  0  0  0  0
    7.2335  -18.0525   23.1186 C   0  0  0  0  0  0  0  0  0  0  0  0
    8.8350  -18.8005   23.3912 S   0  0  0  0  0  0  0  0  0  0  0  0
    8.0669  -15.8369   23.7460 C   0  0  0  0  0  0  0  0  0  0  0  0
    9.3123  -15.7130   23.6434 O   0  0  0  0  0  0  0  0  0  0  0  0
    7.4890  -11.6745   24.9701 C   0  0  0  0  0  0  0  0  0  0  0  0
    6.5325  -12.5994   25.7479 C   0  0  2  0  0  0  0  0  0  0  0  0
    5.5958  -11.7263   26.5216 C   0  0  0  0  0  0  0  0  0  0  0  0
    7.3020  -13.5552   26.5868 C   0  0  0  0  0  0  0  0  0  0  0  0
    8.1752  -14.4729   25.7978 C   0  0  2  0  0  0  0  0  0  0  0  0
    7.4048  -15.2669   24.8542 N   0  0  0  0  0  0  0  0  0  0  0  0
    8.9376  -15.4139   26.6278 C   0  0  0  0  0  0  0  0  0  0  0  0
   10.0713  -15.0096   27.3210 O   0  0  0  0  0  0  0  0  0  0  0  0
    8.5788  -16.6380   26.7348 O   0  0  0  0  0  0  0  0  0  0  0  0
  1  2  1  0
  2  3  1  0
  3  4  2  0
  5  3  1  0
  5  6  1  0
  6  9  1  0
  6  7  1  1
  8  7  1  0
  9 10  2  0
 12 14  1  0
 12 11  1  1
 13 12  1  0
 15 14  1  1
 15 17  1  0
 16  9  1  0
 16 15  1  0
 17 19  2  0
 17 18  1  0
M  END
$$$$
