GCL.pdb
     RDKit          3D

 19 18  0  0  1  0  0  0  0  0999 V2000
    9.7505  -15.4222   20.0374 N   0  0  0  0  0  0  0  0  0  0  0  0
    8.7329  -15.9291   20.8978 C   0  0  0  0  0  0  0  0  0  0  0  0
    8.8070  -15.2920   22.2334 C   0  0  0  0  0  0  0  0  0  0  0  0
    9.9237  -14.9076   22.6556 O   0  0  0  0  0  0  0  0  0  0  0  0
    7.6623  -15.0982   23.0573 N   0  0  0  0  0  0  0  0  0  0  0  0
    7.7732  -14.5720   24.4038 C   0  0  1  0  0  0  0  0  0  0  0  0
    6.3491  -14.3369   24.9239 C   0  0  0  0  0  0  0  0  0  0  0  0
    6.3477  -13.4733   26.4900 S   0  0  0  0  0  0  0  0  0  0  0  0
    8.4455  -15.5427   25.3085 C   0  0  0  0  0  0  0  0  0  0  0  0
    8.3747  -16.7614   25.0139 O   0  0  0  0  0  0  0  0  0  0  0  0
   11.1971  -13.4347   27.7408 C   0  0  0  0  0  0  0  0  0  0  0  0
   10.2352  -14.1846   28.6829 C   0  0  2  0  0  0  0  0  0  0  0  0
   10.5053  -13.7041   30.0738 C   0  0  0  0  0  0  0  0  0  0  0  0
   10.3800  -15.6539   28.5109 C   0  0  0  0  0  0  0  0  0  0  0  0
    9.9502  -16.1429   27.1681 C   0  0  2  0  0  0  0  0  0  0  0  0
    9.1490  -15.1519   26.4677 N   0  0  0  0  0  0  0  0  0  0  0  0
    9.1563  -17.3769   27.2203 C   0  0  0  0  0  0  0  0  0  0  0  0
    9.7249  -18.5849   27.6031 O   0  0  0  0  0  0  0  0  0  0  0  0
    7.9140  -17.3745   26.9117 O   0  0  0  0  0  0  0  0  0  0  0  0
  1  2  1  0
  2  3  1  0
  3  4  2  0
  5  3  1  0
  5  6  1  0
  6  9  1  0
  6  7  1  1
  8  7  1  0
  9 10  2  0
 12 14  1  0
 12 11  1  6
 13 12  1  0
 15 14  1  1
 15 17  1  0
 16  9  1  0
 16 15  1  0
 17 19  2  0
 17 18  1  0
M  END
$$$$
