GCL.pdb
     RDKit          3D

 19 18  0  0  1  0  0  0  0  0999 V2000
    7.0982  -15.6989   18.6882 N   0  0  0  0  0  0  0  0  0  0  0  0
    7.9819  -16.3341   19.6092 C   0  0  0  0  0  0  0  0  0  0  0  0
    7.4372  -16.2778   20.9860 C   0  0  0  0  0  0  0  0  0  0  0  0
    6.5265  -15.4535   21.2395 O   0  0  0  0  0  0  0  0  0  0  0  0
    7.9053  -17.1212   22.0331 N   0  0  0  0  0  0  0  0  0  0  0  0
    7.3645  -17.0399   23.3759 C   0  0  1  0  0  0  0  0  0  0  0  0
    7.4050  -18.4524   23.9736 C   0  0  0  0  0  0  0  0  0  0  0  0
    6.8534  -18.4701   25.6747 S   0  0  0  0  0  0  0  0  0  0  0  0
    8.1866  -16.1464   24.2353 C   0  0  0  0  0  0  0  0  0  0  0  0
    9.4330  -16.1771   24.0858 O   0  0  0  0  0  0  0  0  0  0  0  0
    7.5003  -11.8235   24.7122 C   0  0  0  0  0  0  0  0  0  0  0  0
    6.7994  -12.6937   25.7737 C   0  0  2  0  0  0  0  0  0  0  0  0
    5.8197  -11.8208   26.4925 C   0  0  0  0  0  0  0  0  0  0  0  0
    7.8021  -13.3379   26.6619 C   0  0  0  0  0  0  0  0  0  0  0  0
    8.5190  -14.4801   26.0228 C   0  0  2  0  0  0  0  0  0  0  0  0
    7.6272  -15.2788   25.1974 N   0  0  0  0  0  0  0  0  0  0  0  0
    9.1432  -15.3939   26.9878 C   0  0  0  0  0  0  0  0  0  0  0  0
    8.7414  -16.7195   27.0901 O   0  0  0  0  0  0  0  0  0  0  0  0
   10.0772  -14.9927   27.7658 O   0  0  0  0  0  0  0  0  0  0  0  0
  1  2  1  0
  2  3  1  0
  3  4  2  0
  5  3  1  0
  5  6  1  0
  6  9  1  0
  6  7  1  1
  8  7  1  0
  9 10  2  0
 12 14  1  0
 12 11  1  6
 13 12  1  0
 15 14  1  1
 15 17  1  0
 16  9  1  0
 16 15  1  0
 17 19  2  0
 17 18  1  0
M  END
$$$$
