GCL.pdb
     RDKit          3D

 19 18  0  0  1  0  0  0  0  0999 V2000
    7.7209  -17.1395   17.6043 N   0  0  0  0  0  0  0  0  0  0  0  0
    8.5742  -16.5878   18.6044 C   0  0  0  0  0  0  0  0  0  0  0  0
    8.0059  -16.7984   19.9564 C   0  0  0  0  0  0  0  0  0  0  0  0
    6.7593  -16.8556   20.0828 O   0  0  0  0  0  0  0  0  0  0  0  0
    8.8169  -16.9384   21.1181 N   0  0  0  0  0  0  0  0  0  0  0  0
    8.2377  -17.1499   22.4303 C   0  0  1  0  0  0  0  0  0  0  0  0
    8.9529  -18.3525   23.0597 C   0  0  0  0  0  0  0  0  0  0  0  0
    8.4935  -18.5764   24.7736 S   0  0  0  0  0  0  0  0  0  0  0  0
    8.4492  -15.9691   23.3099 C   0  0  0  0  0  0  0  0  0  0  0  0
    9.5736  -15.4107   23.2776 O   0  0  0  0  0  0  0  0  0  0  0  0
    5.4818  -11.9563   26.9796 C   0  0  0  0  0  0  0  0  0  0  0  0
    6.7860  -12.4206   26.3022 C   0  0  2  0  0  0  0  0  0  0  0  0
    7.3764  -11.2345   25.6072 C   0  0  0  0  0  0  0  0  0  0  0  0
    6.5231  -13.5781   25.4074 C   0  0  0  0  0  0  0  0  0  0  0  0
    7.7586  -14.3069   24.9959 C   0  0  2  0  0  0  0  0  0  0  0  0
    7.4496  -15.4604   24.1662 N   0  0  0  0  0  0  0  0  0  0  0  0
    8.5559  -14.7946   26.1282 C   0  0  0  0  0  0  0  0  0  0  0  0
    8.2761  -16.0115   26.7365 O   0  0  0  0  0  0  0  0  0  0  0  0
    9.5335  -14.1089   26.5894 O   0  0  0  0  0  0  0  0  0  0  0  0
  1  2  1  0
  2  3  1  0
  3  4  2  0
  5  3  1  0
  5  6  1  0
  6  9  1  0
  6  7  1  1
  8  7  1  0
  9 10  2  0
 12 14  1  0
 12 11  1  6
 13 12  1  0
 15 14  1  1
 15 17  1  0
 16  9  1  0
 16 15  1  0
 17 19  2  0
 17 18  1  0
M  END
$$$$
