GCL.pdb
     RDKit          3D

 19 18  0  0  1  0  0  0  0  0999 V2000
    9.9274  -17.7452   17.9257 N   0  0  0  0  0  0  0  0  0  0  0  0
   10.5014  -17.4118   19.1875 C   0  0  0  0  0  0  0  0  0  0  0  0
    9.4775  -17.4471   20.2578 C   0  0  0  0  0  0  0  0  0  0  0  0
    8.2869  -17.6861   19.9438 O   0  0  0  0  0  0  0  0  0  0  0  0
    9.7896  -17.2207   21.6282 N   0  0  0  0  0  0  0  0  0  0  0  0
    8.7702  -17.2615   22.6584 C   0  0  1  0  0  0  0  0  0  0  0  0
    9.0044  -18.5319   23.4862 C   0  0  0  0  0  0  0  0  0  0  0  0
   10.6895  -18.6400   24.0752 S   0  0  0  0  0  0  0  0  0  0  0  0
    8.8736  -16.0878   23.5664 C   0  0  0  0  0  0  0  0  0  0  0  0
   10.0147  -15.6036   23.7673 O   0  0  0  0  0  0  0  0  0  0  0  0
    5.4532  -11.9965   26.7511 C   0  0  0  0  0  0  0  0  0  0  0  0
    6.8335  -12.5872   26.4031 C   0  0  2  0  0  0  0  0  0  0  0  0
    7.7197  -11.4498   26.0041 C   0  0  0  0  0  0  0  0  0  0  0  0
    6.7000  -13.6437   25.3661 C   0  0  0  0  0  0  0  0  0  0  0  0
    7.9662  -14.3902   25.1082 C   0  0  2  0  0  0  0  0  0  0  0  0
    7.7551  -15.5069   24.2011 N   0  0  0  0  0  0  0  0  0  0  0  0
    8.5827  -14.9360   26.3238 C   0  0  0  0  0  0  0  0  0  0  0  0
    8.3351  -16.2392   26.7356 O   0  0  0  0  0  0  0  0  0  0  0  0
    9.3670  -14.2233   27.0417 O   0  0  0  0  0  0  0  0  0  0  0  0
  1  2  1  0
  2  3  1  0
  3  4  2  0
  5  3  1  0
  5  6  1  0
  6  9  1  0
  6  7  1  1
  8  7  1  0
  9 10  2  0
 12 14  1  0
 12 11  1  6
 13 12  1  0
 15 14  1  1
 15 17  1  0
 16  9  1  0
 16 15  1  0
 17 19  2  0
 17 18  1  0
M  END
$$$$
