GCL.pdb
     RDKit          3D

 19 18  0  0  1  0  0  0  0  0999 V2000
   10.9269  -17.4662   18.0414 N   0  0  0  0  0  0  0  0  0  0  0  0
   11.0235  -17.5913   19.4583 C   0  0  0  0  0  0  0  0  0  0  0  0
    9.7560  -17.1869   20.1105 C   0  0  0  0  0  0  0  0  0  0  0  0
    8.8330  -16.7258   19.3974 O   0  0  0  0  0  0  0  0  0  0  0  0
    9.5430  -17.3001   21.5135 N   0  0  0  0  0  0  0  0  0  0  0  0
    8.2939  -16.8965   22.1293 C   0  0  1  0  0  0  0  0  0  0  0  0
    7.6428  -18.1560   22.7156 C   0  0  0  0  0  0  0  0  0  0  0  0
    8.7491  -19.0224   23.8218 S   0  0  0  0  0  0  0  0  0  0  0  0
    8.5260  -15.9325   23.2381 C   0  0  0  0  0  0  0  0  0  0  0  0
    9.6509  -15.9438   23.7960 O   0  0  0  0  0  0  0  0  0  0  0  0
    6.4507  -12.7050   27.3364 C   0  0  0  0  0  0  0  0  0  0  0  0
    7.1474  -12.1374   26.0842 C   0  0  2  0  0  0  0  0  0  0  0  0
    6.6691  -10.7314   25.9041 C   0  0  0  0  0  0  0  0  0  0  0  0
    6.9024  -13.0157   24.9104 C   0  0  0  0  0  0  0  0  0  0  0  0
    7.8408  -14.1729   24.8245 C   0  0  2  0  0  0  0  0  0  0  0  0
    7.5448  -15.0197   23.6800 N   0  0  0  0  0  0  0  0  0  0  0  0
    7.8185  -15.0349   26.0128 C   0  0  0  0  0  0  0  0  0  0  0  0
    8.7941  -14.9334   26.9961 O   0  0  0  0  0  0  0  0  0  0  0  0
    6.8971  -15.9085   26.1756 O   0  0  0  0  0  0  0  0  0  0  0  0
  1  2  1  0
  2  3  1  0
  3  4  2  0
  5  3  1  0
  5  6  1  0
  6  9  1  0
  6  7  1  1
  8  7  1  0
  9 10  2  0
 12 14  1  0
 12 11  1  1
 13 12  1  0
 15 14  1  1
 15 17  1  0
 16  9  1  0
 16 15  1  0
 17 19  2  0
 17 18  1  0
M  END
$$$$
