GCL.pdb
     RDKit          3D

 19 18  0  0  1  0  0  0  0  0999 V2000
    7.1227  -20.7873   22.6973 N   0  0  0  0  0  0  0  0  0  0  0  0
    6.4748  -19.5340   22.4916 C   0  0  0  0  0  0  0  0  0  0  0  0
    7.4691  -18.4507   22.3096 C   0  0  0  0  0  0  0  0  0  0  0  0
    8.6769  -18.6976   22.5402 O   0  0  0  0  0  0  0  0  0  0  0  0
    7.1095  -17.1407   21.8838 N   0  0  0  0  0  0  0  0  0  0  0  0
    8.0839  -16.0696   21.8096 C   0  0  1  0  0  0  0  0  0  0  0  0
    7.4608  -14.9384   20.9813 C   0  0  0  0  0  0  0  0  0  0  0  0
    5.8287  -14.5050   21.5700 S   0  0  0  0  0  0  0  0  0  0  0  0
    8.4031  -15.5363   23.1611 C   0  0  0  0  0  0  0  0  0  0  0  0
    9.3042  -14.6660   23.2476 O   0  0  0  0  0  0  0  0  0  0  0  0
    8.6233  -12.6945   26.2737 C   0  0  0  0  0  0  0  0  0  0  0  0
    7.1473  -12.8657   25.8645 C   0  0  2  0  0  0  0  0  0  0  0  0
    6.3236  -12.0445   26.8054 C   0  0  0  0  0  0  0  0  0  0  0  0
    6.7797  -14.3057   25.8363 C   0  0  0  0  0  0  0  0  0  0  0  0
    7.9336  -15.2109   25.5602 C   0  0  2  0  0  0  0  0  0  0  0  0
    7.7418  -15.9648   24.3316 N   0  0  0  0  0  0  0  0  0  0  0  0
    8.1808  -16.1876   26.6283 C   0  0  0  0  0  0  0  0  0  0  0  0
    9.1869  -15.9922   27.5657 O   0  0  0  0  0  0  0  0  0  0  0  0
    7.4749  -17.2511   26.7248 O   0  0  0  0  0  0  0  0  0  0  0  0
  1  2  1  0
  2  3  1  0
  3  4  2  0
  5  3  1  0
  5  6  1  0
  6  9  1  0
  6  7  1  6
  8  7  1  0
  9 10  2  0
 12 14  1  0
 12 11  1  1
 13 12  1  0
 15 14  1  1
 15 17  1  0
 16  9  1  0
 16 15  1  0
 17 19  2  0
 17 18  1  0
M  END
$$$$
