GCL.pdb
     RDKit          3D

 19 18  0  0  1  0  0  0  0  0999 V2000
    8.1770  -12.4888   18.1956 N   0  0  0  0  0  0  0  0  0  0  0  0
    8.8148  -13.7308   18.4847 C   0  0  0  0  0  0  0  0  0  0  0  0
    8.1987  -14.3765   19.6675 C   0  0  0  0  0  0  0  0  0  0  0  0
    6.9998  -14.1232   19.9349 O   0  0  0  0  0  0  0  0  0  0  0  0
    8.9120  -15.2727   20.5129 N   0  0  0  0  0  0  0  0  0  0  0  0
    8.2537  -15.9986   21.5814 C   0  0  1  0  0  0  0  0  0  0  0  0
    8.8218  -17.4238   21.5864 C   0  0  0  0  0  0  0  0  0  0  0  0
    8.3565  -18.3195   23.0628 S   0  0  0  0  0  0  0  0  0  0  0  0
    8.5332  -15.3808   22.9053 C   0  0  0  0  0  0  0  0  0  0  0  0
    9.7158  -15.0379   23.1518 O   0  0  0  0  0  0  0  0  0  0  0  0
    5.6444  -12.0551   27.1745 C   0  0  0  0  0  0  0  0  0  0  0  0
    6.9544  -12.6825   26.6592 C   0  0  2  0  0  0  0  0  0  0  0  0
    7.9343  -11.5703   26.4567 C   0  0  0  0  0  0  0  0  0  0  0  0
    6.6978  -13.4932   25.4401 C   0  0  0  0  0  0  0  0  0  0  0  0
    7.8513  -14.3514   25.0402 C   0  0  2  0  0  0  0  0  0  0  0  0
    7.5349  -15.1687   23.8799 N   0  0  0  0  0  0  0  0  0  0  0  0
    8.2969  -15.2651   26.0996 C   0  0  0  0  0  0  0  0  0  0  0  0
    9.3397  -14.9270   26.9524 O   0  0  0  0  0  0  0  0  0  0  0  0
    7.7360  -16.4036   26.2665 O   0  0  0  0  0  0  0  0  0  0  0  0
  1  2  1  0
  2  3  1  0
  3  4  2  0
  5  3  1  0
  5  6  1  0
  6  9  1  0
  6  7  1  1
  8  7  1  0
  9 10  2  0
 12 14  1  0
 12 11  1  6
 13 12  1  0
 15 14  1  1
 15 17  1  0
 16  9  1  0
 16 15  1  0
 17 19  2  0
 17 18  1  0
M  END
$$$$
