GCL.pdb
     RDKit          3D

 19 18  0  0  1  0  0  0  0  0999 V2000
    8.8606  -15.3634   12.6390 N   0  0  0  0  0  0  0  0  0  0  0  0
    9.9482  -15.8239   13.4377 C   0  0  0  0  0  0  0  0  0  0  0  0
    9.4704  -16.2864   14.7617 C   0  0  0  0  0  0  0  0  0  0  0  0
    8.3045  -15.9910   15.1175 O   0  0  0  0  0  0  0  0  0  0  0  0
   10.2806  -17.0526   15.6468 N   0  0  0  0  0  0  0  0  0  0  0  0
    9.7698  -17.5491   16.9096 C   0  0  1  0  0  0  0  0  0  0  0  0
   10.4100  -18.9215   17.1563 C   0  0  0  0  0  0  0  0  0  0  0  0
    9.9999  -19.5649   18.7738 S   0  0  0  0  0  0  0  0  0  0  0  0
   10.1454  -16.6507   18.0341 C   0  0  0  0  0  0  0  0  0  0  0  0
   11.3280  -16.2302   18.0757 O   0  0  0  0  0  0  0  0  0  0  0  0
    8.7853  -12.5736   19.1309 C   0  0  0  0  0  0  0  0  0  0  0  0
    7.8592  -13.7031   19.6227 C   0  0  2  0  0  0  0  0  0  0  0  0
    6.6017  -13.0653   20.1230 C   0  0  0  0  0  0  0  0  0  0  0  0
    8.5554  -14.5432   20.6322 C   0  0  0  0  0  0  0  0  0  0  0  0
    9.6876  -15.3363   20.0701 C   0  0  2  0  0  0  0  0  0  0  0  0
    9.2371  -16.2590   19.0404 N   0  0  0  0  0  0  0  0  0  0  0  0
   10.4019  -16.1322   21.0761 C   0  0  0  0  0  0  0  0  0  0  0  0
   10.1785  -17.4967   21.2081 O   0  0  0  0  0  0  0  0  0  0  0  0
   11.2522  -15.5888   21.8636 O   0  0  0  0  0  0  0  0  0  0  0  0
  1  2  1  0
  2  3  1  0
  3  4  2  0
  5  3  1  0
  5  6  1  0
  6  9  1  0
  6  7  1  1
  8  7  1  0
  9 10  2  0
 12 14  1  0
 12 11  1  1
 13 12  1  0
 15 14  1  1
 15 17  1  0
 16  9  1  0
 16 15  1  0
 17 19  2  0
 17 18  1  0
M  END
$$$$
