GCL.pdb
     RDKit          3D

 19 18  0  0  1  0  0  0  0  0999 V2000
    7.9678  -12.5204   18.3714 N   0  0  0  0  0  0  0  0  0  0  0  0
    8.8943  -13.3089   19.1147 C   0  0  0  0  0  0  0  0  0  0  0  0
    8.2342  -13.9340   20.2847 C   0  0  0  0  0  0  0  0  0  0  0  0
    7.1175  -13.4957   20.6508 O   0  0  0  0  0  0  0  0  0  0  0  0
    8.8155  -15.0120   21.0104 N   0  0  0  0  0  0  0  0  0  0  0  0
    8.0985  -15.6890   22.0733 C   0  0  1  0  0  0  0  0  0  0  0  0
    8.3653  -17.1923   21.9223 C   0  0  0  0  0  0  0  0  0  0  0  0
    7.7548  -17.8222   20.3638 S   0  0  0  0  0  0  0  0  0  0  0  0
    8.5873  -15.2610   23.4114 C   0  0  0  0  0  0  0  0  0  0  0  0
    9.8200  -15.0636   23.5473 O   0  0  0  0  0  0  0  0  0  0  0  0
    7.6588  -11.5762   25.5779 C   0  0  0  0  0  0  0  0  0  0  0  0
    6.6316  -12.6962   25.8345 C   0  0  2  0  0  0  0  0  0  0  0  0
    5.4715  -12.0838   26.5538 C   0  0  0  0  0  0  0  0  0  0  0  0
    7.2664  -13.8269   26.5610 C   0  0  0  0  0  0  0  0  0  0  0  0
    8.2909  -14.5539   25.7555 C   0  0  2  0  0  0  0  0  0  0  0  0
    7.7313  -15.0714   24.5171 N   0  0  0  0  0  0  0  0  0  0  0  0
    8.8929  -15.6913   26.4621 C   0  0  0  0  0  0  0  0  0  0  0  0
    9.8445  -15.5015   27.4559 O   0  0  0  0  0  0  0  0  0  0  0  0
    8.5579  -16.8942   26.1800 O   0  0  0  0  0  0  0  0  0  0  0  0
  1  2  1  0
  2  3  1  0
  3  4  2  0
  5  3  1  0
  5  6  1  0
  6  9  1  0
  6  7  1  6
  8  7  1  0
  9 10  2  0
 12 14  1  0
 12 11  1  1
 13 12  1  0
 15 14  1  1
 15 17  1  0
 16  9  1  0
 16 15  1  0
 17 19  2  0
 17 18  1  0
M  END
$$$$
