GCL.pdb
     RDKit          3D

 19 18  0  0  1  0  0  0  0  0999 V2000
   11.6574  -17.9419   19.1522 N   0  0  0  0  0  0  0  0  0  0  0  0
   10.3355  -17.9834   19.6849 C   0  0  0  0  0  0  0  0  0  0  0  0
   10.0773  -16.8055   20.5458 C   0  0  0  0  0  0  0  0  0  0  0  0
   11.0371  -16.0538   20.8406 O   0  0  0  0  0  0  0  0  0  0  0  0
    8.7843  -16.4920   21.0522 N   0  0  0  0  0  0  0  0  0  0  0  0
    8.5534  -15.3255   21.8818 C   0  0  1  0  0  0  0  0  0  0  0  0
    7.1984  -14.7327   21.4739 C   0  0  0  0  0  0  0  0  0  0  0  0
    5.8798  -15.9331   21.6102 S   0  0  0  0  0  0  0  0  0  0  0  0
    8.4872  -15.6923   23.3218 C   0  0  0  0  0  0  0  0  0  0  0  0
    8.3462  -16.9066   23.6093 O   0  0  0  0  0  0  0  0  0  0  0  0
    9.2977  -13.4603   29.0283 C   0  0  0  0  0  0  0  0  0  0  0  0
    9.3554  -14.6513   28.0518 C   0  0  2  0  0  0  0  0  0  0  0  0
   10.6349  -15.3818   28.3115 C   0  0  0  0  0  0  0  0  0  0  0  0
    9.1996  -14.1819   26.6501 C   0  0  0  0  0  0  0  0  0  0  0  0
    8.6214  -15.2109   25.7369 C   0  0  2  0  0  0  0  0  0  0  0  0
    8.5755  -14.7420   24.3612 N   0  0  0  0  0  0  0  0  0  0  0  0
    7.2567  -15.6144   26.0980 C   0  0  0  0  0  0  0  0  0  0  0  0
    7.0121  -16.7946   26.7882 O   0  0  0  0  0  0  0  0  0  0  0  0
    6.2503  -14.8882   25.7843 O   0  0  0  0  0  0  0  0  0  0  0  0
  1  2  1  0
  2  3  1  0
  3  4  2  0
  5  3  1  0
  5  6  1  0
  6  9  1  0
  6  7  1  6
  8  7  1  0
  9 10  2  0
 12 14  1  0
 12 11  1  1
 13 12  1  0
 15 14  1  1
 15 17  1  0
 16  9  1  0
 16 15  1  0
 17 19  2  0
 17 18  1  0
M  END
$$$$
