GCL.pdb
     RDKit          3D

 19 18  0  0  1  0  0  0  0  0999 V2000
    8.0713  -13.2023   17.2633 N   0  0  0  0  0  0  0  0  0  0  0  0
    8.8972  -13.3521   18.4157 C   0  0  0  0  0  0  0  0  0  0  0  0
    8.2750  -14.2756   19.3932 C   0  0  0  0  0  0  0  0  0  0  0  0
    7.4247  -15.1016   18.9835 O   0  0  0  0  0  0  0  0  0  0  0  0
    8.6028  -14.2637   20.7785 N   0  0  0  0  0  0  0  0  0  0  0  0
    8.1240  -15.2904   21.6833 C   0  0  1  0  0  0  0  0  0  0  0  0
    8.7164  -16.6266   21.2167 C   0  0  0  0  0  0  0  0  0  0  0  0
   10.5045  -16.5963   21.2154 S   0  0  0  0  0  0  0  0  0  0  0  0
    8.5820  -15.0385   23.0760 C   0  0  0  0  0  0  0  0  0  0  0  0
    9.7254  -14.5439   23.2342 O   0  0  0  0  0  0  0  0  0  0  0  0
    5.8811  -12.0713   27.2671 C   0  0  0  0  0  0  0  0  0  0  0  0
    7.1819  -12.7703   26.8257 C   0  0  2  0  0  0  0  0  0  0  0  0
    8.0150  -11.7550   26.1093 C   0  0  0  0  0  0  0  0  0  0  0  0
    6.8735  -13.9796   26.0182 C   0  0  0  0  0  0  0  0  0  0  0  0
    8.0847  -14.6492   25.4600 C   0  0  2  0  0  0  0  0  0  0  0  0
    7.7925  -15.3299   24.2086 N   0  0  0  0  0  0  0  0  0  0  0  0
    8.6718  -15.6466   26.3635 C   0  0  0  0  0  0  0  0  0  0  0  0
    8.6675  -16.9987   26.0460 O   0  0  0  0  0  0  0  0  0  0  0  0
    9.2042  -15.2970   27.4738 O   0  0  0  0  0  0  0  0  0  0  0  0
  1  2  1  0
  2  3  1  0
  3  4  2  0
  5  3  1  0
  5  6  1  0
  6  9  1  0
  6  7  1  6
  8  7  1  0
  9 10  2  0
 12 14  1  0
 12 11  1  6
 13 12  1  0
 15 14  1  1
 15 17  1  0
 16  9  1  0
 16 15  1  0
 17 19  2  0
 17 18  1  0
M  END
$$$$
