GCL.pdb
     RDKit          3D

 19 18  0  0  1  0  0  0  0  0999 V2000
   10.8760  -17.9657   18.1451 N   0  0  0  0  0  0  0  0  0  0  0  0
   11.2089  -17.3968   19.4094 C   0  0  0  0  0  0  0  0  0  0  0  0
   10.0369  -17.4059   20.3159 C   0  0  0  0  0  0  0  0  0  0  0  0
    8.9845  -17.9707   19.9331 O   0  0  0  0  0  0  0  0  0  0  0  0
   10.0565  -16.7998   21.6039 N   0  0  0  0  0  0  0  0  0  0  0  0
    8.9287  -16.8989   22.5096 C   0  0  1  0  0  0  0  0  0  0  0  0
    8.9644  -18.2989   23.1362 C   0  0  0  0  0  0  0  0  0  0  0  0
   10.5407  -18.6412   23.9086 S   0  0  0  0  0  0  0  0  0  0  0  0
    9.0258  -15.8959   23.6039 C   0  0  0  0  0  0  0  0  0  0  0  0
   10.1729  -15.5709   23.9980 O   0  0  0  0  0  0  0  0  0  0  0  0
    5.6082  -11.9903   27.0276 C   0  0  0  0  0  0  0  0  0  0  0  0
    6.9749  -12.6175   26.6900 C   0  0  2  0  0  0  0  0  0  0  0  0
    7.9342  -11.4958   26.4454 C   0  0  0  0  0  0  0  0  0  0  0  0
    6.8453  -13.5630   25.5504 C   0  0  0  0  0  0  0  0  0  0  0  0
    8.0956  -14.3250   25.2619 C   0  0  2  0  0  0  0  0  0  0  0  0
    7.8949  -15.3050   24.2065 N   0  0  0  0  0  0  0  0  0  0  0  0
    8.6219  -15.0495   26.4253 C   0  0  0  0  0  0  0  0  0  0  0  0
    8.3633  -16.4016   26.6107 O   0  0  0  0  0  0  0  0  0  0  0  0
    9.3349  -14.4532   27.3055 O   0  0  0  0  0  0  0  0  0  0  0  0
  1  2  1  0
  2  3  1  0
  3  4  2  0
  5  3  1  0
  5  6  1  0
  6  9  1  0
  6  7  1  1
  8  7  1  0
  9 10  2  0
 12 14  1  0
 12 11  1  6
 13 12  1  0
 15 14  1  1
 15 17  1  0
 16  9  1  0
 16 15  1  0
 17 19  2  0
 17 18  1  0
M  END
$$$$
