GCL.pdb
     RDKit          3D

 19 18  0  0  1  0  0  0  0  0999 V2000
    3.5103  -19.7105   21.1852 N   0  0  0  0  0  0  0  0  0  0  0  0
    4.8990  -19.4767   21.4078 C   0  0  0  0  0  0  0  0  0  0  0  0
    5.1533  -19.1237   22.8241 C   0  0  0  0  0  0  0  0  0  0  0  0
    4.1733  -18.8923   23.5718 O   0  0  0  0  0  0  0  0  0  0  0  0
    6.4648  -19.0363   23.3712 N   0  0  0  0  0  0  0  0  0  0  0  0
    6.6970  -18.5591   24.7205 C   0  0  1  0  0  0  0  0  0  0  0  0
    7.7541  -19.4723   25.3551 C   0  0  0  0  0  0  0  0  0  0  0  0
    8.2720  -18.8745   26.9590 S   0  0  0  0  0  0  0  0  0  0  0  0
    7.2239  -17.1681   24.7175 C   0  0  0  0  0  0  0  0  0  0  0  0
    8.1716  -16.9042   23.9370 O   0  0  0  0  0  0  0  0  0  0  0  0
    6.2741  -11.5263   27.1471 C   0  0  0  0  0  0  0  0  0  0  0  0
    7.1081  -12.4657   26.2543 C   0  0  2  0  0  0  0  0  0  0  0  0
    7.2828  -11.7883   24.9318 C   0  0  0  0  0  0  0  0  0  0  0  0
    6.4686  -13.8048   26.1692 C   0  0  0  0  0  0  0  0  0  0  0  0
    7.3211  -14.8320   25.5020 C   0  0  2  0  0  0  0  0  0  0  0  0
    6.7070  -16.1493   25.5459 N   0  0  0  0  0  0  0  0  0  0  0  0
    8.6568  -14.9616   26.0976 C   0  0  0  0  0  0  0  0  0  0  0  0
    8.8616  -15.7001   27.2560 O   0  0  0  0  0  0  0  0  0  0  0  0
    9.6734  -14.3944   25.5652 O   0  0  0  0  0  0  0  0  0  0  0  0
  1  2  1  0
  2  3  1  0
  3  4  2  0
  5  3  1  0
  5  6  1  0
  6  9  1  0
  6  7  1  6
  8  7  1  0
  9 10  2  0
 12 14  1  0
 12 11  1  1
 13 12  1  0
 15 14  1  1
 15 17  1  0
 16  9  1  0
 16 15  1  0
 17 19  2  0
 17 18  1  0
M  END
$$$$
