GCL.pdb
     RDKit          3D

 19 18  0  0  1  0  0  0  0  0999 V2000
    4.4927  -19.8447   23.9382 N   0  0  0  0  0  0  0  0  0  0  0  0
    4.7293  -18.4798   23.6010 C   0  0  0  0  0  0  0  0  0  0  0  0
    6.1766  -18.2282   23.4078 C   0  0  0  0  0  0  0  0  0  0  0  0
    6.9970  -19.0739   23.8379 O   0  0  0  0  0  0  0  0  0  0  0  0
    6.6743  -17.0657   22.7538 N   0  0  0  0  0  0  0  0  0  0  0  0
    8.0962  -16.8063   22.6390 C   0  0  1  0  0  0  0  0  0  0  0  0
    8.3078  -15.9565   21.3792 C   0  0  0  0  0  0  0  0  0  0  0  0
   10.0347  -15.5704   21.1205 S   0  0  0  0  0  0  0  0  0  0  0  0
    8.6008  -16.0389   23.8091 C   0  0  0  0  0  0  0  0  0  0  0  0
    7.8475  -15.1636   24.3023 O   0  0  0  0  0  0  0  0  0  0  0  0
    9.3110  -15.2805   29.1233 C   0  0  0  0  0  0  0  0  0  0  0  0
    9.9180  -14.7195   27.8225 C   0  0  2  0  0  0  0  0  0  0  0  0
    9.5987  -13.2587   27.7730 C   0  0  0  0  0  0  0  0  0  0  0  0
    9.4281  -15.4867   26.6475 C   0  0  0  0  0  0  0  0  0  0  0  0
   10.3174  -15.3825   25.4536 C   0  0  2  0  0  0  0  0  0  0  0  0
    9.8745  -16.2539   24.3771 N   0  0  0  0  0  0  0  0  0  0  0  0
   11.7173  -15.7251   25.7340 C   0  0  0  0  0  0  0  0  0  0  0  0
   12.1707  -17.0350   25.6470 O   0  0  0  0  0  0  0  0  0  0  0  0
   12.5617  -14.8234   26.0694 O   0  0  0  0  0  0  0  0  0  0  0  0
  1  2  1  0
  2  3  1  0
  3  4  2  0
  5  3  1  0
  5  6  1  0
  6  9  1  0
  6  7  1  6
  8  7  1  0
  9 10  2  0
 12 14  1  0
 12 11  1  1
 13 12  1  0
 15 14  1  1
 15 17  1  0
 16  9  1  0
 16 15  1  0
 17 19  2  0
 17 18  1  0
M  END
$$$$
