VEH.pdb
     RDKit          3D

 27 27  0  0  1  0  0  0  0  0999 V2000
    6.5859  -12.2211   24.6973 C   0  0  0  0  0  0  0  0  0  0  0  0
    6.9665  -12.1445   26.1627 C   0  0  1  0  0  0  0  0  0  0  0  0
    6.3000  -10.9637   26.8109 C   0  0  0  0  0  0  0  0  0  0  0  0
    6.6164  -13.4556   26.8286 C   0  0  2  0  0  0  0  0  0  0  0  0
    6.8576  -13.3967   28.2477 N   0  0  0  0  0  0  0  0  0  0  0  0
    7.1909  -14.6188   26.1672 C   0  0  0  0  0  0  0  0  0  0  0  0
    8.4216  -14.8876   26.3427 O   0  0  0  0  0  0  0  0  0  0  0  0
    6.5000  -15.5370   25.3025 N   0  0  0  0  0  0  0  0  0  0  0  0
    7.1035  -16.6873   24.7420 C   0  0  1  0  0  0  0  0  0  0  0  0
    6.3388  -17.9339   24.5777 C   0  0  0  0  0  0  0  0  0  0  0  0
    7.0389  -19.1538   24.1150 C   0  0  0  0  0  0  0  0  0  0  0  0
    6.1843  -20.3534   24.0756 C   0  0  0  0  0  0  0  0  0  0  0  0
    5.1159  -20.4546   23.4512 O   0  0  0  0  0  0  0  0  0  0  0  0
    7.7670  -16.3483   23.4412 C   0  0  0  0  0  0  0  0  0  0  0  0
    7.1100  -15.6856   22.5696 O   0  0  0  0  0  0  0  0  0  0  0  0
    6.5947  -21.4939   24.8008 O   0  0  0  0  0  0  0  0  0  0  0  0
    9.1027  -16.7675   23.2058 N   0  0  0  0  0  0  0  0  0  0  0  0
    9.8119  -16.3792   21.9891 C   0  0  1  0  0  0  0  0  0  0  0  0
    9.7867  -14.8698   21.9647 C   0  0  0  0  0  0  0  0  0  0  0  0
    8.9124  -14.3736   20.9045 C   0  0  0  0  0  0  0  0  0  0  0  0
    8.2256  -15.1460   19.9974 C   0  0  0  0  0  0  0  0  0  0  0  0
    7.5498  -14.3210   19.1870 N   0  0  0  0  0  0  0  0  0  0  0  0
    7.7901  -13.0552   19.5559 C   0  0  0  0  0  0  0  0  0  0  0  0
    8.6253  -13.0965   20.6079 N   0  0  0  0  0  0  0  0  0  0  0  0
   11.1444  -16.9741   21.9347 C   0  0  0  0  0  0  0  0  0  0  0  0
   11.5900  -17.4631   20.8743 O   0  0  0  0  0  0  0  0  0  0  0  0
   11.9391  -17.0049   23.0637 O   0  0  0  0  0  0  0  0  0  0  0  0
  2  4  1  0
  2  1  1  6
  3  2  1  0
  4  6  1  0
  4  5  1  1
  6  7  2  0
  8  9  1  0
  8  6  1  0
  9 10  1  6
 11 10  1  0
 12 13  2  0
 12 11  1  0
 14 15  2  0
 14  9  1  0
 16 12  1  0
 17 14  1  0
 18 17  1  0
 18 25  1  0
 18 19  1  1
 20 19  1  0
 20 24  1  0
 21 22  1  0
 21 20  2  0
 22 23  1  0
 23 24  2  0
 25 27  1  0
 26 25  2  0
M  END
$$$$
