VEH.pdb
     RDKit          3D

 27 27  0  0  1  0  0  0  0  0999 V2000
    9.1056  -12.2302   19.8543 C   0  0  0  0  0  0  0  0  0  0  0  0
    8.1337  -13.1912   19.1986 C   0  0  1  0  0  0  0  0  0  0  0  0
    6.9839  -12.4350   18.5947 C   0  0  0  0  0  0  0  0  0  0  0  0
    8.8816  -14.0296   18.1873 C   0  0  2  0  0  0  0  0  0  0  0  0
    7.9709  -14.7872   17.3673 N   0  0  0  0  0  0  0  0  0  0  0  0
    9.9665  -14.8113   18.7638 C   0  0  0  0  0  0  0  0  0  0  0  0
    9.7227  -15.9780   19.2079 O   0  0  0  0  0  0  0  0  0  0  0  0
   11.3383  -14.4005   18.8954 N   0  0  0  0  0  0  0  0  0  0  0  0
   12.3714  -15.2575   19.3422 C   0  0  1  0  0  0  0  0  0  0  0  0
   13.7532  -15.0818   18.8671 C   0  0  0  0  0  0  0  0  0  0  0  0
   14.7819  -16.0722   19.2585 C   0  0  0  0  0  0  0  0  0  0  0  0
   16.1293  -15.7669   18.7465 C   0  0  0  0  0  0  0  0  0  0  0  0
   16.4239  -14.7940   18.0336 O   0  0  0  0  0  0  0  0  0  0  0  0
   12.3775  -15.3328   20.8393 C   0  0  0  0  0  0  0  0  0  0  0  0
   12.7393  -14.3054   21.5057 O   0  0  0  0  0  0  0  0  0  0  0  0
   17.1883  -16.6395   19.0816 O   0  0  0  0  0  0  0  0  0  0  0  0
   11.9837  -16.5358   21.4821 N   0  0  0  0  0  0  0  0  0  0  0  0
   11.9161  -16.6258   22.9386 C   0  0  1  0  0  0  0  0  0  0  0  0
   10.6339  -17.3620   23.2441 C   0  0  0  0  0  0  0  0  0  0  0  0
    9.4666  -16.5396   22.9351 C   0  0  0  0  0  0  0  0  0  0  0  0
    9.4805  -15.1954   22.6449 C   0  0  0  0  0  0  0  0  0  0  0  0
    8.2153  -14.8102   22.4321 N   0  0  0  0  0  0  0  0  0  0  0  0
    7.4073  -15.8692   22.5794 C   0  0  0  0  0  0  0  0  0  0  0  0
    8.1814  -16.9237   22.8873 N   0  0  0  0  0  0  0  0  0  0  0  0
   13.1227  -17.2337   23.4926 C   0  0  0  0  0  0  0  0  0  0  0  0
   13.2621  -17.3835   24.7256 O   0  0  0  0  0  0  0  0  0  0  0  0
   14.1361  -17.6566   22.6552 O   0  0  0  0  0  0  0  0  0  0  0  0
  2  4  1  0
  2  1  1  6
  3  2  1  0
  4  6  1  0
  4  5  1  1
  6  7  2  0
  8  9  1  0
  8  6  1  0
  9 10  1  1
 11 10  1  0
 12 13  2  0
 12 11  1  0
 14 15  2  0
 14  9  1  0
 16 12  1  0
 17 14  1  0
 18 17  1  0
 18 25  1  0
 18 19  1  6
 20 19  1  0
 20 24  1  0
 21 22  1  0
 21 20  2  0
 22 23  1  0
 23 24  2  0
 25 27  1  0
 26 25  2  0
M  END
$$$$
