VEH.pdb
     RDKit          3D

 27 27  0  0  1  0  0  0  0  0999 V2000
    7.2902  -12.8560   20.1857 C   0  0  0  0  0  0  0  0  0  0  0  0
    8.4898  -13.1088   19.2940 C   0  0  1  0  0  0  0  0  0  0  0  0
    9.7359  -12.5641   19.9338 C   0  0  0  0  0  0  0  0  0  0  0  0
    8.5786  -14.5890   19.0009 C   0  0  2  0  0  0  0  0  0  0  0  0
    7.4505  -15.0316   18.2216 N   0  0  0  0  0  0  0  0  0  0  0  0
    8.8553  -15.4023   20.1768 C   0  0  0  0  0  0  0  0  0  0  0  0
    7.8833  -15.8553   20.8606 O   0  0  0  0  0  0  0  0  0  0  0  0
   10.1536  -15.7674   20.6758 N   0  0  0  0  0  0  0  0  0  0  0  0
   10.3525  -16.5583   21.8318 C   0  0  1  0  0  0  0  0  0  0  0  0
   11.2974  -17.6866   21.8184 C   0  0  0  0  0  0  0  0  0  0  0  0
   11.6396  -18.3254   20.5273 C   0  0  0  0  0  0  0  0  0  0  0  0
   12.1312  -19.7083   20.6578 C   0  0  0  0  0  0  0  0  0  0  0  0
   11.4748  -20.7314   20.4050 O   0  0  0  0  0  0  0  0  0  0  0  0
   10.6502  -15.6882   23.0156 C   0  0  0  0  0  0  0  0  0  0  0  0
   11.2085  -14.5561   22.8224 O   0  0  0  0  0  0  0  0  0  0  0  0
   13.4554  -19.9103   21.1061 O   0  0  0  0  0  0  0  0  0  0  0  0
   10.3082  -16.1365   24.3185 N   0  0  0  0  0  0  0  0  0  0  0  0
    9.6349  -15.2534   25.2676 C   0  0  1  0  0  0  0  0  0  0  0  0
    8.3753  -14.7921   24.5748 C   0  0  0  0  0  0  0  0  0  0  0  0
    7.6536  -13.8153   25.3870 C   0  0  0  0  0  0  0  0  0  0  0  0
    8.0710  -13.3028   26.5930 C   0  0  0  0  0  0  0  0  0  0  0  0
    7.1309  -12.4507   27.0222 N   0  0  0  0  0  0  0  0  0  0  0  0
    6.1364  -12.4117   26.1247 C   0  0  0  0  0  0  0  0  0  0  0  0
    6.4644  -13.2500   25.1270 N   0  0  0  0  0  0  0  0  0  0  0  0
    9.4247  -15.9125   26.5536 C   0  0  0  0  0  0  0  0  0  0  0  0
    9.9146  -15.4470   27.6050 O   0  0  0  0  0  0  0  0  0  0  0  0
    8.6744  -17.0694   26.6280 O   0  0  0  0  0  0  0  0  0  0  0  0
  2  4  1  0
  2  1  1  1
  3  2  1  0
  4  6  1  0
  4  5  1  1
  6  7  2  0
  8  9  1  0
  8  6  1  0
  9 10  1  6
 11 10  1  0
 12 13  2  0
 12 11  1  0
 14 15  2  0
 14  9  1  0
 16 12  1  0
 17 14  1  0
 18 17  1  0
 18 25  1  0
 18 19  1  6
 20 19  1  0
 20 24  1  0
 21 22  1  0
 21 20  2  0
 22 23  1  0
 23 24  2  0
 25 27  1  0
 26 25  2  0
M  END
$$$$
