VEH.pdb
     RDKit          3D

 27 27  0  0  1  0  0  0  0  0999 V2000
    8.6815  -12.8994   21.2568 C   0  0  0  0  0  0  0  0  0  0  0  0
    7.7950  -13.6047   20.2495 C   0  0  1  0  0  0  0  0  0  0  0  0
    7.4787  -12.6855   19.1033 C   0  0  0  0  0  0  0  0  0  0  0  0
    8.4742  -14.8812   19.8089 C   0  0  2  0  0  0  0  0  0  0  0  0
    7.7623  -15.4972   18.7183 N   0  0  0  0  0  0  0  0  0  0  0  0
    8.7924  -15.7831   20.9070 C   0  0  0  0  0  0  0  0  0  0  0  0
    7.8903  -16.5616   21.3518 O   0  0  0  0  0  0  0  0  0  0  0  0
   10.0604  -15.9006   21.5750 N   0  0  0  0  0  0  0  0  0  0  0  0
   10.3804  -16.9527   22.4651 C   0  0  1  0  0  0  0  0  0  0  0  0
   11.6582  -17.6737   22.3496 C   0  0  0  0  0  0  0  0  0  0  0  0
   11.9406  -18.4484   21.1199 C   0  0  0  0  0  0  0  0  0  0  0  0
   13.2738  -19.0755   21.1029 C   0  0  0  0  0  0  0  0  0  0  0  0
   13.4935  -20.2950   21.0251 O   0  0  0  0  0  0  0  0  0  0  0  0
   10.1983  -16.5095   23.8855 C   0  0  0  0  0  0  0  0  0  0  0  0
   10.7335  -15.4127   24.2613 O   0  0  0  0  0  0  0  0  0  0  0  0
   14.4097  -18.2396   21.1809 O   0  0  0  0  0  0  0  0  0  0  0  0
    9.4400  -17.3117   24.7781 N   0  0  0  0  0  0  0  0  0  0  0  0
    9.3250  -16.9643   26.1924 C   0  0  1  0  0  0  0  0  0  0  0  0
    7.8508  -16.7588   26.4448 C   0  0  0  0  0  0  0  0  0  0  0  0
    7.4048  -15.4620   25.9410 C   0  0  0  0  0  0  0  0  0  0  0  0
    8.2027  -14.5037   25.3612 C   0  0  0  0  0  0  0  0  0  0  0  0
    7.4246  -13.4599   25.0461 N   0  0  0  0  0  0  0  0  0  0  0  0
    6.1636  -13.7318   25.4094 C   0  0  0  0  0  0  0  0  0  0  0  0
    6.1604  -14.9592   25.9565 N   0  0  0  0  0  0  0  0  0  0  0  0
    9.9617  -17.9669   27.0420 C   0  0  0  0  0  0  0  0  0  0  0  0
   10.4500  -19.0093   26.5552 O   0  0  0  0  0  0  0  0  0  0  0  0
   10.0350  -17.7762   28.4078 O   0  0  0  0  0  0  0  0  0  0  0  0
  2  4  1  0
  2  1  1  1
  3  2  1  0
  4  6  1  0
  4  5  1  6
  6  7  2  0
  8  9  1  0
  8  6  1  0
  9 10  1  1
 11 10  1  0
 12 13  2  0
 12 11  1  0
 14 15  2  0
 14  9  1  0
 16 12  1  0
 17 14  1  0
 18 17  1  0
 18 25  1  0
 18 19  1  1
 20 19  1  0
 20 24  1  0
 21 22  1  0
 21 20  2  0
 22 23  1  0
 23 24  2  0
 25 27  1  0
 26 25  2  0
M  END
$$$$
