VEH.pdb
     RDKit          3D

 27 27  0  0  1  0  0  0  0  0999 V2000
    7.9921  -12.4054   19.0170 C   0  0  0  0  0  0  0  0  0  0  0  0
    8.4775  -13.2812   20.1552 C   0  0  1  0  0  0  0  0  0  0  0  0
    7.7314  -12.9522   21.4176 C   0  0  0  0  0  0  0  0  0  0  0  0
    8.3381  -14.7311   19.7510 C   0  0  2  0  0  0  0  0  0  0  0  0
    6.9954  -15.0211   19.3163 N   0  0  0  0  0  0  0  0  0  0  0  0
    8.8687  -15.6655   20.7337 C   0  0  0  0  0  0  0  0  0  0  0  0
    8.0725  -16.2185   21.5572 O   0  0  0  0  0  0  0  0  0  0  0  0
   10.2453  -16.0516   20.8883 N   0  0  0  0  0  0  0  0  0  0  0  0
   10.6927  -16.9790   21.8585 C   0  0  1  0  0  0  0  0  0  0  0  0
   11.7219  -17.9773   21.5269 C   0  0  0  0  0  0  0  0  0  0  0  0
   12.1720  -18.9238   22.5727 C   0  0  0  0  0  0  0  0  0  0  0  0
   13.2174  -19.8588   22.1212 C   0  0  0  0  0  0  0  0  0  0  0  0
   13.8016  -19.8097   21.0267 O   0  0  0  0  0  0  0  0  0  0  0  0
   11.0916  -16.2680   23.1164 C   0  0  0  0  0  0  0  0  0  0  0  0
   11.4418  -15.0420   23.0458 O   0  0  0  0  0  0  0  0  0  0  0  0
   13.6023  -20.9050   22.9886 O   0  0  0  0  0  0  0  0  0  0  0  0
   11.0724  -16.9664   24.3523 N   0  0  0  0  0  0  0  0  0  0  0  0
   10.9152  -16.2549   25.6184 C   0  0  1  0  0  0  0  0  0  0  0  0
    9.6244  -15.4815   25.4959 C   0  0  0  0  0  0  0  0  0  0  0  0
    9.3558  -14.7077   26.7057 C   0  0  0  0  0  0  0  0  0  0  0  0
   10.1555  -14.6537   27.8231 C   0  0  0  0  0  0  0  0  0  0  0  0
    9.5603  -13.8489   28.7132 N   0  0  0  0  0  0  0  0  0  0  0  0
    8.4124  -13.3957   28.1907 C   0  0  0  0  0  0  0  0  0  0  0  0
    8.2949  -13.9264   26.9616 N   0  0  0  0  0  0  0  0  0  0  0  0
   10.9806  -17.1684   26.7559 C   0  0  0  0  0  0  0  0  0  0  0  0
   10.2469  -18.1785   26.8153 O   0  0  0  0  0  0  0  0  0  0  0  0
   11.8620  -16.9280   27.7914 O   0  0  0  0  0  0  0  0  0  0  0  0
  2  4  1  0
  2  1  1  6
  3  2  1  0
  4  6  1  0
  4  5  1  1
  6  7  2  0
  8  9  1  0
  8  6  1  0
  9 10  1  6
 11 10  1  0
 12 13  2  0
 12 11  1  0
 14 15  2  0
 14  9  1  0
 16 12  1  0
 17 14  1  0
 18 17  1  0
 18 25  1  0
 18 19  1  6
 20 19  1  0
 20 24  1  0
 21 22  1  0
 21 20  2  0
 22 23  1  0
 23 24  2  0
 25 27  1  0
 26 25  2  0
M  END
$$$$
