VEH.pdb
     RDKit          3D

 27 27  0  0  1  0  0  0  0  0999 V2000
    6.2783  -10.8577   26.1994 C   0  0  0  0  0  0  0  0  0  0  0  0
    7.2084  -12.0184   25.9068 C   0  0  1  0  0  0  0  0  0  0  0  0
    8.2233  -12.1600   27.0061 C   0  0  0  0  0  0  0  0  0  0  0  0
    6.3827  -13.2683   25.7046 C   0  0  2  0  0  0  0  0  0  0  0  0
    5.6153  -13.5788   26.8838 N   0  0  0  0  0  0  0  0  0  0  0  0
    7.1408  -14.3891   25.1664 C   0  0  0  0  0  0  0  0  0  0  0  0
    7.3518  -15.4055   25.9013 O   0  0  0  0  0  0  0  0  0  0  0  0
    7.7025  -14.4841   23.8460 N   0  0  0  0  0  0  0  0  0  0  0  0
    8.3630  -15.6364   23.3587 C   0  0  1  0  0  0  0  0  0  0  0  0
    8.4991  -15.8706   21.9121 C   0  0  0  0  0  0  0  0  0  0  0  0
    9.1011  -17.1384   21.4403 C   0  0  0  0  0  0  0  0  0  0  0  0
    9.2048  -17.2400   19.9740 C   0  0  0  0  0  0  0  0  0  0  0  0
   10.0755  -17.8750   19.3573 O   0  0  0  0  0  0  0  0  0  0  0  0
    9.7085  -15.7799   24.0036 C   0  0  0  0  0  0  0  0  0  0  0  0
   10.5522  -14.8287   23.8851 O   0  0  0  0  0  0  0  0  0  0  0  0
    8.2454  -16.5675   19.1851 O   0  0  0  0  0  0  0  0  0  0  0  0
   10.0160  -16.9614   24.7281 N   0  0  0  0  0  0  0  0  0  0  0  0
   11.3346  -17.1586   25.3251 C   0  0  1  0  0  0  0  0  0  0  0  0
   11.0786  -17.6105   26.7427 C   0  0  0  0  0  0  0  0  0  0  0  0
   10.8059  -16.4731   27.6181 C   0  0  0  0  0  0  0  0  0  0  0  0
   10.7135  -15.1578   27.2272 C   0  0  0  0  0  0  0  0  0  0  0  0
   10.4658  -14.4233   28.3195 N   0  0  0  0  0  0  0  0  0  0  0  0
   10.3999  -15.2348   29.3840 C   0  0  0  0  0  0  0  0  0  0  0  0
   10.6093  -16.4878   28.9458 N   0  0  0  0  0  0  0  0  0  0  0  0
   12.1517  -18.0681   24.5265 C   0  0  0  0  0  0  0  0  0  0  0  0
   11.6605  -18.7064   23.5708 O   0  0  0  0  0  0  0  0  0  0  0  0
   13.4910  -18.2372   24.8174 O   0  0  0  0  0  0  0  0  0  0  0  0
  2  4  1  0
  2  1  1  1
  3  2  1  0
  4  6  1  0
  4  5  1  1
  6  7  2  0
  8  9  1  0
  8  6  1  0
  9 10  1  6
 11 10  1  0
 12 13  2  0
 12 11  1  0
 14 15  2  0
 14  9  1  0
 16 12  1  0
 17 14  1  0
 18 17  1  0
 18 25  1  0
 18 19  1  1
 20 19  1  0
 20 24  1  0
 21 22  1  0
 21 20  2  0
 22 23  1  0
 23 24  2  0
 25 27  1  0
 26 25  2  0
M  END
$$$$
