VEH.pdb
     RDKit          3D

 27 27  0  0  1  0  0  0  0  0999 V2000
    9.9730  -13.0861   19.2246 C   0  0  0  0  0  0  0  0  0  0  0  0
    8.6268  -13.0808   19.9215 C   0  0  1  0  0  0  0  0  0  0  0  0
    7.8204  -11.8906   19.4836 C   0  0  0  0  0  0  0  0  0  0  0  0
    7.9302  -14.3946   19.6505 C   0  0  2  0  0  0  0  0  0  0  0  0
    6.5573  -14.3526   20.0854 N   0  0  0  0  0  0  0  0  0  0  0  0
    8.6741  -15.5574   20.1143 C   0  0  0  0  0  0  0  0  0  0  0  0
    8.5228  -15.9529   21.3137 O   0  0  0  0  0  0  0  0  0  0  0  0
    9.5987  -16.3428   19.3422 N   0  0  0  0  0  0  0  0  0  0  0  0
   10.2670  -17.4831   19.8468 C   0  0  1  0  0  0  0  0  0  0  0  0
   10.0546  -18.8084   19.2432 C   0  0  0  0  0  0  0  0  0  0  0  0
    8.7558  -19.1073   18.5981 C   0  0  0  0  0  0  0  0  0  0  0  0
    8.8274  -20.1655   17.5752 C   0  0  0  0  0  0  0  0  0  0  0  0
    8.8966  -21.3836   17.8049 O   0  0  0  0  0  0  0  0  0  0  0  0
   11.7401  -17.2243   19.9467 C   0  0  0  0  0  0  0  0  0  0  0  0
   12.3501  -16.7415   18.9341 O   0  0  0  0  0  0  0  0  0  0  0  0
    8.8180  -19.7855   16.2148 O   0  0  0  0  0  0  0  0  0  0  0  0
   12.4229  -17.5187   21.1560 N   0  0  0  0  0  0  0  0  0  0  0  0
   13.7920  -17.0611   21.3800 C   0  0  1  0  0  0  0  0  0  0  0  0
   13.7810  -15.5795   21.0897 C   0  0  0  0  0  0  0  0  0  0  0  0
   14.3603  -15.2942   19.7791 C   0  0  0  0  0  0  0  0  0  0  0  0
   14.8251  -16.2271   18.8819 C   0  0  0  0  0  0  0  0  0  0  0  0
   15.2862  -15.5690   17.8102 N   0  0  0  0  0  0  0  0  0  0  0  0
   15.1260  -14.2528   18.0055 C   0  0  0  0  0  0  0  0  0  0  0  0
   14.5587  -14.0934   19.2132 N   0  0  0  0  0  0  0  0  0  0  0  0
   14.2651  -17.4242   22.7130 C   0  0  0  0  0  0  0  0  0  0  0  0
   13.4811  -17.8763   23.5750 O   0  0  0  0  0  0  0  0  0  0  0  0
   15.5974  -17.2728   23.0435 O   0  0  0  0  0  0  0  0  0  0  0  0
  2  4  1  0
  2  1  1  6
  3  2  1  0
  4  6  1  0
  4  5  1  1
  6  7  2  0
  8  9  1  0
  8  6  1  0
  9 10  1  6
 11 10  1  0
 12 13  2  0
 12 11  1  0
 14 15  2  0
 14  9  1  0
 16 12  1  0
 17 14  1  0
 18 17  1  0
 18 25  1  0
 18 19  1  1
 20 19  1  0
 20 24  1  0
 21 22  1  0
 21 20  2  0
 22 23  1  0
 23 24  2  0
 25 27  1  0
 26 25  2  0
M  END
$$$$
