VEH.pdb
     RDKit          3D

 27 27  0  0  1  0  0  0  0  0999 V2000
    7.8734  -12.3147   19.2343 C   0  0  0  0  0  0  0  0  0  0  0  0
    8.2481  -13.2733   20.3473 C   0  0  1  0  0  0  0  0  0  0  0  0
    7.1640  -13.3101   21.3874 C   0  0  0  0  0  0  0  0  0  0  0  0
    8.5340  -14.6313   19.7481 C   0  0  2  0  0  0  0  0  0  0  0  0
    7.4855  -15.0300   18.8440 N   0  0  0  0  0  0  0  0  0  0  0  0
    8.8966  -15.6405   20.7334 C   0  0  0  0  0  0  0  0  0  0  0  0
    8.0830  -16.5863   20.9811 O   0  0  0  0  0  0  0  0  0  0  0  0
   10.1178  -15.6941   21.4907 N   0  0  0  0  0  0  0  0  0  0  0  0
   10.3733  -16.6576   22.4946 C   0  0  1  0  0  0  0  0  0  0  0  0
   11.4523  -17.6453   22.3326 C   0  0  0  0  0  0  0  0  0  0  0  0
   11.4283  -18.5546   21.1644 C   0  0  0  0  0  0  0  0  0  0  0  0
   12.6014  -19.4417   21.0748 C   0  0  0  0  0  0  0  0  0  0  0  0
   13.7352  -19.0987   20.7028 O   0  0  0  0  0  0  0  0  0  0  0  0
   10.5171  -15.9945   23.8313 C   0  0  0  0  0  0  0  0  0  0  0  0
   10.7832  -14.7463   23.8736 O   0  0  0  0  0  0  0  0  0  0  0  0
   12.4461  -20.7982   21.4368 O   0  0  0  0  0  0  0  0  0  0  0  0
   10.3559  -16.7615   25.0150 N   0  0  0  0  0  0  0  0  0  0  0  0
    9.5093  -16.2917   26.1088 C   0  0  1  0  0  0  0  0  0  0  0  0
    8.2138  -15.8577   25.4663 C   0  0  0  0  0  0  0  0  0  0  0  0
    7.9046  -14.4667   25.7890 C   0  0  0  0  0  0  0  0  0  0  0  0
    8.6689  -13.6300   26.5682 C   0  0  0  0  0  0  0  0  0  0  0  0
    8.0431  -12.4476   26.6336 N   0  0  0  0  0  0  0  0  0  0  0  0
    6.9103  -12.5146   25.9206 C   0  0  0  0  0  0  0  0  0  0  0  0
    6.8332  -13.7541   25.4071 N   0  0  0  0  0  0  0  0  0  0  0  0
    9.3710  -17.3057   27.1505 C   0  0  0  0  0  0  0  0  0  0  0  0
    9.0148  -18.4712   26.8732 O   0  0  0  0  0  0  0  0  0  0  0  0
    9.6347  -16.9895   28.4686 O   0  0  0  0  0  0  0  0  0  0  0  0
  2  4  1  0
  2  1  1  6
  3  2  1  0
  4  6  1  0
  4  5  1  1
  6  7  2  0
  8  9  1  0
  8  6  1  0
  9 10  1  6
 11 10  1  0
 12 13  2  0
 12 11  1  0
 14 15  2  0
 14  9  1  0
 16 12  1  0
 17 14  1  0
 18 17  1  0
 18 25  1  0
 18 19  1  6
 20 19  1  0
 20 24  1  0
 21 22  1  0
 21 20  2  0
 22 23  1  0
 23 24  2  0
 25 27  1  0
 26 25  2  0
M  END
$$$$
