VEH.pdb
     RDKit          3D

 27 27  0  0  1  0  0  0  0  0999 V2000
    7.1340  -12.8687   20.0764 C   0  0  0  0  0  0  0  0  0  0  0  0
    8.3946  -12.8915   19.2348 C   0  0  1  0  0  0  0  0  0  0  0  0
    9.5219  -12.2233   19.9706 C   0  0  0  0  0  0  0  0  0  0  0  0
    8.7054  -14.3218   18.8573 C   0  0  2  0  0  0  0  0  0  0  0  0
    7.7202  -14.8425   17.9440 N   0  0  0  0  0  0  0  0  0  0  0  0
    8.9819  -15.1811   20.0000 C   0  0  0  0  0  0  0  0  0  0  0  0
    8.0219  -15.8051   20.5539 O   0  0  0  0  0  0  0  0  0  0  0  0
   10.2674  -15.4157   20.6003 N   0  0  0  0  0  0  0  0  0  0  0  0
   10.4960  -16.3865   21.6038 C   0  0  1  0  0  0  0  0  0  0  0  0
   11.6921  -17.2429   21.5638 C   0  0  0  0  0  0  0  0  0  0  0  0
   12.9840  -16.6581   21.1383 C   0  0  0  0  0  0  0  0  0  0  0  0
   13.8012  -17.5585   20.3061 C   0  0  0  0  0  0  0  0  0  0  0  0
   14.0165  -18.7582   20.5429 O   0  0  0  0  0  0  0  0  0  0  0  0
   10.3857  -15.7676   22.9646 C   0  0  0  0  0  0  0  0  0  0  0  0
   10.2355  -14.5028   23.0551 O   0  0  0  0  0  0  0  0  0  0  0  0
   14.3985  -17.0351   19.1380 O   0  0  0  0  0  0  0  0  0  0  0  0
   10.4499  -16.5937   24.1174 N   0  0  0  0  0  0  0  0  0  0  0  0
    9.6340  -16.3096   25.2954 C   0  0  1  0  0  0  0  0  0  0  0  0
    8.2124  -16.2160   24.7958 C   0  0  0  0  0  0  0  0  0  0  0  0
    7.6066  -14.9385   25.1641 C   0  0  0  0  0  0  0  0  0  0  0  0
    8.2350  -13.9074   25.8221 C   0  0  0  0  0  0  0  0  0  0  0  0
    7.3429  -12.9213   25.9829 N   0  0  0  0  0  0  0  0  0  0  0  0
    6.1743  -13.3000   25.4471 C   0  0  0  0  0  0  0  0  0  0  0  0
    6.3445  -14.5361   24.9482 N   0  0  0  0  0  0  0  0  0  0  0  0
    9.8534  -17.2979   26.3479 C   0  0  0  0  0  0  0  0  0  0  0  0
   10.1325  -16.9470   27.5145 O   0  0  0  0  0  0  0  0  0  0  0  0
    9.7542  -18.6464   26.0675 O   0  0  0  0  0  0  0  0  0  0  0  0
  2  4  1  0
  2  1  1  1
  3  2  1  0
  4  6  1  0
  4  5  1  1
  6  7  2  0
  8  9  1  0
  8  6  1  0
  9 10  1  6
 11 10  1  0
 12 13  2  0
 12 11  1  0
 14 15  2  0
 14  9  1  0
 16 12  1  0
 17 14  1  0
 18 17  1  0
 18 25  1  0
 18 19  1  6
 20 19  1  0
 20 24  1  0
 21 22  1  0
 21 20  2  0
 22 23  1  0
 23 24  2  0
 25 27  1  0
 26 25  2  0
M  END
$$$$
