SNT.pdb
     RDKit          3D

 22 21  0  0  1  0  0  0  0  0999 V2000
    9.1293  -11.6040   18.5024 O   0  0  0  0  0  0  0  0  0  0  0  0
    8.6143  -12.5026   19.4506 C   0  0  0  0  0  0  0  0  0  0  0  0
    8.7124  -13.9341   18.9566 C   0  0  2  0  0  0  0  0  0  0  0  0
    7.8019  -14.1718   17.8506 N   0  0  0  0  0  0  0  0  0  0  0  0
    8.3870  -14.8278   20.0817 C   0  0  0  0  0  0  0  0  0  0  0  0
    7.2026  -15.1408   20.3043 O   0  0  0  0  0  0  0  0  0  0  0  0
    8.7901  -18.0786   19.8631 N   0  0  0  0  0  0  0  0  0  0  0  0
    9.9345  -18.2195   20.7380 C   0  0  0  0  0  0  0  0  0  0  0  0
   10.7916  -19.0654   20.4543 O   0  0  0  0  0  0  0  0  0  0  0  0
   10.0484  -17.3728   21.9165 C   0  0  0  0  0  0  0  0  0  0  0  0
    9.1059  -16.2307   22.0350 C   0  0  2  0  0  0  0  0  0  0  0  0
    9.4140  -15.3296   20.9070 N   0  0  0  0  0  0  0  0  0  0  0  0
    9.1886  -15.4421   23.2668 C   0  0  0  0  0  0  0  0  0  0  0  0
   10.1170  -14.6351   23.4604 O   0  0  0  0  0  0  0  0  0  0  0  0
    6.8815  -12.9286   24.8451 C   0  0  0  0  0  0  0  0  0  0  0  0
    7.0202  -14.0755   25.8089 C   0  0  1  0  0  0  0  0  0  0  0  0
    5.9097  -14.8725   25.8086 O   0  0  0  0  0  0  0  0  0  0  0  0
    8.2965  -14.8045   25.4724 C   0  0  2  0  0  0  0  0  0  0  0  0
    8.2026  -15.5831   24.2750 N   0  0  0  0  0  0  0  0  0  0  0  0
    8.7614  -15.6330   26.6374 C   0  0  0  0  0  0  0  0  0  0  0  0
    9.0122  -15.0442   27.8687 O   0  0  0  0  0  0  0  0  0  0  0  0
    8.9395  -16.8749   26.5453 O   0  0  0  0  0  0  0  0  0  0  0  0
  2  1  1  0
  2  3  1  0
  3  5  1  0
  3  4  1  6
  5 12  1  0
  6  5  2  0
  7  8  1  0
  8  9  2  0
 10  8  1  0
 11 10  1  1
 11 13  1  0
 12 11  1  0
 13 14  2  0
 13 19  1  0
 16 17  1  0
 16 15  1  6
 18 16  1  0
 18 19  1  6
 20 18  1  0
 20 21  1  0
 22 20  2  0
M  END
$$$$
