SNT.pdb
     RDKit          3D

 22 21  0  0  1  0  0  0  0  0999 V2000
    7.2321  -14.9587   18.4113 O   0  0  0  0  0  0  0  0  0  0  0  0
    7.1658  -13.6204   18.8312 C   0  0  0  0  0  0  0  0  0  0  0  0
    8.2359  -13.3181   19.8639 C   0  0  2  0  0  0  0  0  0  0  0  0
    9.5341  -13.8066   19.4338 N   0  0  0  0  0  0  0  0  0  0  0  0
    7.8447  -13.9652   21.1284 C   0  0  0  0  0  0  0  0  0  0  0  0
    6.7285  -13.7300   21.6275 O   0  0  0  0  0  0  0  0  0  0  0  0
    7.8686  -18.3588   24.6178 N   0  0  0  0  0  0  0  0  0  0  0  0
    9.0504  -17.6030   24.2614 C   0  0  0  0  0  0  0  0  0  0  0  0
   10.0242  -17.6391   25.0237 O   0  0  0  0  0  0  0  0  0  0  0  0
    9.0649  -16.8277   23.0295 C   0  0  0  0  0  0  0  0  0  0  0  0
    8.3449  -15.5283   23.0275 C   0  0  2  0  0  0  0  0  0  0  0  0
    8.7317  -14.8504   21.7745 N   0  0  0  0  0  0  0  0  0  0  0  0
    8.6426  -14.6162   24.1343 C   0  0  0  0  0  0  0  0  0  0  0  0
    9.6998  -13.9591   24.1683 O   0  0  0  0  0  0  0  0  0  0  0  0
    6.7021  -11.6464   25.4497 C   0  0  0  0  0  0  0  0  0  0  0  0
    6.8468  -12.6289   26.5798 C   0  0  1  0  0  0  0  0  0  0  0  0
    5.6775  -13.2936   26.8238 O   0  0  0  0  0  0  0  0  0  0  0  0
    8.0082  -13.5337   26.2540 C   0  0  2  0  0  0  0  0  0  0  0  0
    7.7231  -14.4611   25.2016 N   0  0  0  0  0  0  0  0  0  0  0  0
    8.5040  -14.2322   27.4893 C   0  0  0  0  0  0  0  0  0  0  0  0
    8.5572  -15.6178   27.5451 O   0  0  0  0  0  0  0  0  0  0  0  0
    8.8852  -13.5993   28.5074 O   0  0  0  0  0  0  0  0  0  0  0  0
  2  1  1  0
  2  3  1  0
  3  5  1  0
  3  4  1  6
  5 12  1  0
  6  5  2  0
  7  8  1  0
  8  9  2  0
 10  8  1  0
 11 10  1  1
 11 13  1  0
 12 11  1  0
 13 14  2  0
 13 19  1  0
 16 17  1  0
 16 15  1  6
 18 16  1  0
 18 19  1  6
 20 18  1  0
 20 21  1  0
 22 20  2  0
M  END
$$$$
