SNT.pdb
     RDKit          3D

 22 21  0  0  1  0  0  0  0  0999 V2000
    7.8922  -18.7238   21.3678 O   0  0  0  0  0  0  0  0  0  0  0  0
    6.6776  -19.0632   20.7503 C   0  0  0  0  0  0  0  0  0  0  0  0
    6.7794  -18.9425   19.2410 C   0  0  2  0  0  0  0  0  0  0  0  0
    7.1730  -20.2038   18.6384 N   0  0  0  0  0  0  0  0  0  0  0  0
    7.7754  -17.9014   18.9333 C   0  0  0  0  0  0  0  0  0  0  0  0
    8.9595  -18.2191   18.7156 O   0  0  0  0  0  0  0  0  0  0  0  0
    8.3211  -12.0454   17.9767 N   0  0  0  0  0  0  0  0  0  0  0  0
    8.3885  -13.3212   17.2964 C   0  0  0  0  0  0  0  0  0  0  0  0
    9.0977  -13.4131   16.2868 O   0  0  0  0  0  0  0  0  0  0  0  0
    7.6295  -14.4520   17.8102 C   0  0  0  0  0  0  0  0  0  0  0  0
    8.3735  -15.4913   18.5672 C   0  0  2  0  0  0  0  0  0  0  0  0
    7.3906  -16.5460   18.8846 N   0  0  0  0  0  0  0  0  0  0  0  0
    8.9883  -15.0657   19.8268 C   0  0  0  0  0  0  0  0  0  0  0  0
    9.8816  -14.1985   19.8533 O   0  0  0  0  0  0  0  0  0  0  0  0
    7.2888  -13.6763   22.8818 C   0  0  0  0  0  0  0  0  0  0  0  0
    8.0798  -14.8735   23.3341 C   0  0  1  0  0  0  0  0  0  0  0  0
    7.2695  -15.9394   23.6093 O   0  0  0  0  0  0  0  0  0  0  0  0
    9.1252  -15.1547   22.2846 C   0  0  2  0  0  0  0  0  0  0  0  0
    8.5747  -15.6388   21.0552 N   0  0  0  0  0  0  0  0  0  0  0  0
   10.1842  -16.0779   22.8194 C   0  0  0  0  0  0  0  0  0  0  0  0
   10.8938  -15.7512   23.9663 O   0  0  0  0  0  0  0  0  0  0  0  0
   10.4662  -17.1676   22.2578 O   0  0  0  0  0  0  0  0  0  0  0  0
  2  1  1  0
  2  3  1  0
  3  5  1  0
  3  4  1  6
  5 12  1  0
  6  5  2  0
  7  8  1  0
  8  9  2  0
 10  8  1  0
 11 10  1  1
 11 13  1  0
 12 11  1  0
 13 14  2  0
 13 19  1  0
 16 17  1  0
 16 15  1  6
 18 16  1  0
 18 19  1  6
 20 18  1  0
 20 21  1  0
 22 20  2  0
M  END
$$$$
