SNT.pdb
     RDKit          3D

 22 21  0  0  1  0  0  0  0  0999 V2000
    8.5265  -12.3266   17.8028 O   0  0  0  0  0  0  0  0  0  0  0  0
    8.3813  -12.8491   19.0981 C   0  0  0  0  0  0  0  0  0  0  0  0
    8.6971  -14.3331   19.1273 C   0  0  2  0  0  0  0  0  0  0  0  0
    8.2288  -14.9937   17.9219 N   0  0  0  0  0  0  0  0  0  0  0  0
    8.0414  -14.9153   20.3113 C   0  0  0  0  0  0  0  0  0  0  0  0
    7.1356  -15.7576   20.1688 O   0  0  0  0  0  0  0  0  0  0  0  0
   10.4060  -18.1121   23.9740 N   0  0  0  0  0  0  0  0  0  0  0  0
    9.1101  -17.6405   23.5343 C   0  0  0  0  0  0  0  0  0  0  0  0
    8.0995  -18.1106   24.0712 O   0  0  0  0  0  0  0  0  0  0  0  0
    9.0279  -16.6365   22.4835 C   0  0  0  0  0  0  0  0  0  0  0  0
    8.2341  -15.4126   22.7640 C   0  0  2  0  0  0  0  0  0  0  0  0
    8.4377  -14.5206   21.6055 N   0  0  0  0  0  0  0  0  0  0  0  0
    8.5961  -14.6625   23.9691 C   0  0  0  0  0  0  0  0  0  0  0  0
    9.7300  -14.1676   24.1101 O   0  0  0  0  0  0  0  0  0  0  0  0
    6.6695  -11.7438   25.7438 C   0  0  0  0  0  0  0  0  0  0  0  0
    6.8830  -12.8815   26.7047 C   0  0  1  0  0  0  0  0  0  0  0  0
    5.7280  -13.5778   26.9275 O   0  0  0  0  0  0  0  0  0  0  0  0
    8.0129  -13.7254   26.1712 C   0  0  2  0  0  0  0  0  0  0  0  0
    7.6525  -14.4828   25.0112 N   0  0  0  0  0  0  0  0  0  0  0  0
    8.5806  -14.6029   27.2517 C   0  0  0  0  0  0  0  0  0  0  0  0
    9.0552  -14.0520   28.4337 O   0  0  0  0  0  0  0  0  0  0  0  0
    8.6476  -15.8532   27.1307 O   0  0  0  0  0  0  0  0  0  0  0  0
  2  1  1  0
  2  3  1  0
  3  5  1  0
  3  4  1  6
  5 12  1  0
  6  5  2  0
  7  8  1  0
  8  9  2  0
 10  8  1  0
 11 10  1  6
 11 13  1  0
 12 11  1  0
 13 14  2  0
 13 19  1  0
 16 17  1  0
 16 15  1  6
 18 16  1  0
 18 19  1  6
 20 18  1  0
 20 21  1  0
 22 20  2  0
M  END
$$$$
