SNT.pdb
     RDKit          3D

 22 21  0  0  1  0  0  0  0  0999 V2000
    9.4961  -12.5977   18.6042 O   0  0  0  0  0  0  0  0  0  0  0  0
    8.5855  -12.8582   19.6410 C   0  0  0  0  0  0  0  0  0  0  0  0
    8.1568  -14.3139   19.6388 C   0  0  2  0  0  0  0  0  0  0  0  0
    7.2276  -14.5863   18.5565 N   0  0  0  0  0  0  0  0  0  0  0  0
    7.5222  -14.6040   20.9364 C   0  0  0  0  0  0  0  0  0  0  0  0
    6.3096  -14.3740   21.1003 O   0  0  0  0  0  0  0  0  0  0  0  0
    6.3247  -18.7445   24.3922 N   0  0  0  0  0  0  0  0  0  0  0  0
    7.4095  -17.7893   24.4679 C   0  0  0  0  0  0  0  0  0  0  0  0
    7.9518  -17.6002   25.5638 O   0  0  0  0  0  0  0  0  0  0  0  0
    7.8315  -17.0823   23.2675 C   0  0  0  0  0  0  0  0  0  0  0  0
    7.6358  -15.6102   23.2331 C   0  0  2  0  0  0  0  0  0  0  0  0
    8.2853  -15.1418   21.9929 N   0  0  0  0  0  0  0  0  0  0  0  0
    8.2083  -14.8501   24.3468 C   0  0  0  0  0  0  0  0  0  0  0  0
    9.4299  -14.6179   24.4149 O   0  0  0  0  0  0  0  0  0  0  0  0
    6.6359  -11.5911   26.0868 C   0  0  0  0  0  0  0  0  0  0  0  0
    6.9725  -12.6515   27.0995 C   0  0  1  0  0  0  0  0  0  0  0  0
    5.8489  -13.2544   27.5918 O   0  0  0  0  0  0  0  0  0  0  0  0
    7.9470  -13.6057   26.4565 C   0  0  2  0  0  0  0  0  0  0  0  0
    7.3744  -14.3578   25.3816 N   0  0  0  0  0  0  0  0  0  0  0  0
    8.5758  -14.5018   27.4866 C   0  0  0  0  0  0  0  0  0  0  0  0
    9.2527  -13.9649   28.5726 O   0  0  0  0  0  0  0  0  0  0  0  0
    8.5152  -15.7558   27.4078 O   0  0  0  0  0  0  0  0  0  0  0  0
  2  1  1  0
  2  3  1  0
  3  5  1  0
  3  4  1  6
  5 12  1  0
  6  5  2  0
  7  8  1  0
  8  9  2  0
 10  8  1  0
 11 10  1  1
 11 13  1  0
 12 11  1  0
 13 14  2  0
 13 19  1  0
 16 17  1  0
 16 15  1  6
 18 16  1  0
 18 19  1  6
 20 18  1  0
 20 21  1  0
 22 20  2  0
M  END
$$$$
