SNT.pdb
     RDKit          3D

 22 21  0  0  1  0  0  0  0  0999 V2000
    8.9136  -12.2535   18.4826 O   0  0  0  0  0  0  0  0  0  0  0  0
    8.4555  -12.8557   19.6655 C   0  0  0  0  0  0  0  0  0  0  0  0
    8.3025  -14.3554   19.4916 C   0  0  2  0  0  0  0  0  0  0  0  0
    7.2126  -14.6708   18.5851 N   0  0  0  0  0  0  0  0  0  0  0  0
    8.0451  -14.9441   20.8174 C   0  0  0  0  0  0  0  0  0  0  0  0
    6.8788  -15.0234   21.2463 O   0  0  0  0  0  0  0  0  0  0  0  0
   11.3059  -17.9396   25.0098 N   0  0  0  0  0  0  0  0  0  0  0  0
   10.0137  -17.7168   24.3971 C   0  0  0  0  0  0  0  0  0  0  0  0
    9.0033  -18.1038   24.9972 O   0  0  0  0  0  0  0  0  0  0  0  0
    9.9345  -17.0508   23.1052 C   0  0  0  0  0  0  0  0  0  0  0  0
    8.8748  -16.0255   22.9251 C   0  0  2  0  0  0  0  0  0  0  0  0
    9.1166  -15.4180   21.6016 N   0  0  0  0  0  0  0  0  0  0  0  0
    8.8418  -14.9418   23.9101 C   0  0  0  0  0  0  0  0  0  0  0  0
    9.6794  -14.0205   23.8907 O   0  0  0  0  0  0  0  0  0  0  0  0
    6.6582  -11.9751   26.8784 C   0  0  0  0  0  0  0  0  0  0  0  0
    6.4909  -13.1681   25.9772 C   0  0  1  0  0  0  0  0  0  0  0  0
    5.9542  -12.8176   24.7699 O   0  0  0  0  0  0  0  0  0  0  0  0
    7.8287  -13.8562   25.8754 C   0  0  2  0  0  0  0  0  0  0  0  0
    7.8448  -14.9194   24.9171 N   0  0  0  0  0  0  0  0  0  0  0  0
    8.2946  -14.3210   27.2270 C   0  0  0  0  0  0  0  0  0  0  0  0
    8.6708  -15.6412   27.4299 O   0  0  0  0  0  0  0  0  0  0  0  0
    8.3615  -13.5442   28.2141 O   0  0  0  0  0  0  0  0  0  0  0  0
  2  1  1  0
  2  3  1  0
  3  5  1  0
  3  4  1  6
  5 12  1  0
  6  5  2  0
  7  8  1  0
  8  9  2  0
 10  8  1  0
 11 10  1  1
 11 13  1  0
 12 11  1  0
 13 14  2  0
 13 19  1  0
 16 17  1  0
 16 15  1  1
 18 16  1  0
 18 19  1  6
 20 18  1  0
 20 21  1  0
 22 20  2  0
M  END
$$$$
