SNT.pdb
     RDKit          3D

 22 21  0  0  1  0  0  0  0  0999 V2000
    8.6037  -14.1395   18.6408 O   0  0  0  0  0  0  0  0  0  0  0  0
    7.9152  -14.3632   19.8440 C   0  0  0  0  0  0  0  0  0  0  0  0
    7.7628  -15.8479   20.1185 C   0  0  2  0  0  0  0  0  0  0  0  0
    6.8238  -16.4593   19.1948 N   0  0  0  0  0  0  0  0  0  0  0  0
    7.2880  -16.0088   21.5039 C   0  0  0  0  0  0  0  0  0  0  0  0
    6.0671  -15.9943   21.7481 O   0  0  0  0  0  0  0  0  0  0  0  0
    6.8741  -17.7926   26.4351 N   0  0  0  0  0  0  0  0  0  0  0  0
    8.1312  -18.0622   25.7702 C   0  0  0  0  0  0  0  0  0  0  0  0
    9.0332  -18.6094   26.4165 O   0  0  0  0  0  0  0  0  0  0  0  0
    8.3021  -17.6877   24.3740 C   0  0  0  0  0  0  0  0  0  0  0  0
    7.7536  -16.3763   23.9429 C   0  0  2  0  0  0  0  0  0  0  0  0
    8.2133  -16.1794   22.5539 N   0  0  0  0  0  0  0  0  0  0  0  0
    8.1743  -15.2068   24.7182 C   0  0  0  0  0  0  0  0  0  0  0  0
    9.2978  -14.6931   24.5613 O   0  0  0  0  0  0  0  0  0  0  0  0
    6.4346  -11.7584   25.3873 C   0  0  0  0  0  0  0  0  0  0  0  0
    6.6602  -12.4865   26.6843 C   0  0  1  0  0  0  0  0  0  0  0  0
    5.4980  -13.0090   27.1788 O   0  0  0  0  0  0  0  0  0  0  0  0
    7.7415  -13.5113   26.4519 C   0  0  2  0  0  0  0  0  0  0  0  0
    7.3015  -14.6294   25.6740 N   0  0  0  0  0  0  0  0  0  0  0  0
    8.3523  -13.9481   27.7541 C   0  0  0  0  0  0  0  0  0  0  0  0
    8.4104  -15.2927   28.0923 O   0  0  0  0  0  0  0  0  0  0  0  0
    8.8286  -13.1254   28.5780 O   0  0  0  0  0  0  0  0  0  0  0  0
  2  1  1  0
  2  3  1  0
  3  5  1  0
  3  4  1  6
  5 12  1  0
  6  5  2  0
  7  8  1  0
  8  9  2  0
 10  8  1  0
 11 10  1  1
 11 13  1  0
 12 11  1  0
 13 14  2  0
 13 19  1  0
 16 17  1  0
 16 15  1  6
 18 16  1  0
 18 19  1  1
 20 18  1  0
 20 21  1  0
 22 20  2  0
M  END
$$$$
