SNT.pdb
     RDKit          3D

 22 21  0  0  1  0  0  0  0  0999 V2000
    7.5859  -12.4932   18.7428 O   0  0  0  0  0  0  0  0  0  0  0  0
    6.8890  -13.5298   19.3844 C   0  0  0  0  0  0  0  0  0  0  0  0
    7.7017  -14.8113   19.3928 C   0  0  2  0  0  0  0  0  0  0  0  0
    7.1122  -15.8130   18.5220 N   0  0  0  0  0  0  0  0  0  0  0  0
    7.7512  -15.3104   20.7781 C   0  0  0  0  0  0  0  0  0  0  0  0
    6.8135  -15.9967   21.2253 O   0  0  0  0  0  0  0  0  0  0  0  0
   10.5553  -18.4463   24.3729 N   0  0  0  0  0  0  0  0  0  0  0  0
   10.6649  -17.0172   24.1713 C   0  0  0  0  0  0  0  0  0  0  0  0
   11.1405  -16.3290   25.0829 O   0  0  0  0  0  0  0  0  0  0  0  0
   10.2184  -16.4307   22.9161 C   0  0  0  0  0  0  0  0  0  0  0  0
    8.9837  -15.6053   22.9448 C   0  0  2  0  0  0  0  0  0  0  0  0
    8.8585  -15.0128   21.5985 N   0  0  0  0  0  0  0  0  0  0  0  0
    8.9549  -14.5085   23.9154 C   0  0  0  0  0  0  0  0  0  0  0  0
    9.6838  -13.5072   23.7862 O   0  0  0  0  0  0  0  0  0  0  0  0
    6.5622  -11.9738   25.1707 C   0  0  0  0  0  0  0  0  0  0  0  0
    6.8626  -12.8804   26.3331 C   0  0  1  0  0  0  0  0  0  0  0  0
    5.8312  -13.7426   26.5807 O   0  0  0  0  0  0  0  0  0  0  0  0
    8.1773  -13.5636   26.0532 C   0  0  2  0  0  0  0  0  0  0  0  0
    8.0870  -14.5651   25.0345 N   0  0  0  0  0  0  0  0  0  0  0  0
    8.7742  -14.1126   27.3189 C   0  0  0  0  0  0  0  0  0  0  0  0
    9.0897  -13.2701   28.3755 O   0  0  0  0  0  0  0  0  0  0  0  0
    9.0087  -15.3392   27.4698 O   0  0  0  0  0  0  0  0  0  0  0  0
  2  1  1  0
  2  3  1  0
  3  5  1  0
  3  4  1  6
  5 12  1  0
  6  5  2  0
  7  8  1  0
  8  9  2  0
 10  8  1  0
 11 10  1  6
 11 13  1  0
 12 11  1  0
 13 14  2  0
 13 19  1  0
 16 17  1  0
 16 15  1  6
 18 16  1  0
 18 19  1  6
 20 18  1  0
 20 21  1  0
 22 20  2  0
M  END
$$$$
