SNT.pdb
     RDKit          3D

 22 21  0  0  1  0  0  0  0  0999 V2000
    6.5637  -15.8923   20.6456 O   0  0  0  0  0  0  0  0  0  0  0  0
    7.9036  -15.4722   20.6467 C   0  0  0  0  0  0  0  0  0  0  0  0
    8.7630  -16.3891   21.4974 C   0  0  2  0  0  0  0  0  0  0  0  0
    8.4506  -17.7848   21.2458 N   0  0  0  0  0  0  0  0  0  0  0  0
    8.5162  -16.0619   22.9125 C   0  0  0  0  0  0  0  0  0  0  0  0
    8.6834  -14.8970   23.3193 O   0  0  0  0  0  0  0  0  0  0  0  0
    7.0915  -19.7835   26.6376 N   0  0  0  0  0  0  0  0  0  0  0  0
    6.7455  -19.0360   25.4474 C   0  0  0  0  0  0  0  0  0  0  0  0
    6.6163  -19.6521   24.3823 O   0  0  0  0  0  0  0  0  0  0  0  0
    6.5599  -17.5947   25.5310 C   0  0  0  0  0  0  0  0  0  0  0  0
    7.7225  -16.7323   25.1974 C   0  0  2  0  0  0  0  0  0  0  0  0
    8.0909  -17.0650   23.8072 N   0  0  0  0  0  0  0  0  0  0  0  0
    8.9191  -16.9021   26.0251 C   0  0  0  0  0  0  0  0  0  0  0  0
    9.8284  -17.6879   25.6991 O   0  0  0  0  0  0  0  0  0  0  0  0
   11.1610  -14.1864   27.0077 C   0  0  0  0  0  0  0  0  0  0  0  0
   10.8751  -14.8996   28.3011 C   0  0  1  0  0  0  0  0  0  0  0  0
   10.0868  -14.1491   29.1280 O   0  0  0  0  0  0  0  0  0  0  0  0
   10.2947  -16.2491   27.9613 C   0  0  2  0  0  0  0  0  0  0  0  0
    9.0682  -16.1673   27.2278 N   0  0  0  0  0  0  0  0  0  0  0  0
   10.1468  -17.0933   29.1963 C   0  0  0  0  0  0  0  0  0  0  0  0
   11.2519  -17.4081   29.9743 O   0  0  0  0  0  0  0  0  0  0  0  0
    9.0324  -17.5421   29.5693 O   0  0  0  0  0  0  0  0  0  0  0  0
  2  1  1  0
  2  3  1  0
  3  5  1  0
  3  4  1  1
  5 12  1  0
  6  5  2  0
  7  8  1  0
  8  9  2  0
 10  8  1  0
 11 10  1  1
 11 13  1  0
 12 11  1  0
 13 14  2  0
 13 19  1  0
 16 17  1  0
 16 15  1  6
 18 16  1  0
 18 19  1  1
 20 18  1  0
 20 21  1  0
 22 20  2  0
M  END
$$$$
