SNT.pdb
     RDKit          3D

 22 21  0  0  1  0  0  0  0  0999 V2000
   10.2524  -18.5653   20.6375 O   0  0  0  0  0  0  0  0  0  0  0  0
   10.7775  -17.6942   19.6694 C   0  0  0  0  0  0  0  0  0  0  0  0
   12.0240  -18.2764   19.0290 C   0  0  2  0  0  0  0  0  0  0  0  0
   11.7660  -19.5970   18.4826 N   0  0  0  0  0  0  0  0  0  0  0  0
   13.0737  -18.3511   20.0600 C   0  0  0  0  0  0  0  0  0  0  0  0
   13.4507  -19.4594   20.4839 O   0  0  0  0  0  0  0  0  0  0  0  0
   17.7296  -17.0120   22.4449 N   0  0  0  0  0  0  0  0  0  0  0  0
   16.7434  -15.9661   22.2766 C   0  0  0  0  0  0  0  0  0  0  0  0
   16.8651  -14.9299   22.9417 O   0  0  0  0  0  0  0  0  0  0  0  0
   15.6450  -16.1559   21.3404 C   0  0  0  0  0  0  0  0  0  0  0  0
   14.6586  -17.2235   21.6466 C   0  0  2  0  0  0  0  0  0  0  0  0
   13.6524  -17.1699   20.5677 N   0  0  0  0  0  0  0  0  0  0  0  0
   13.9469  -17.1076   22.9216 C   0  0  0  0  0  0  0  0  0  0  0  0
   14.5575  -17.0842   24.0067 O   0  0  0  0  0  0  0  0  0  0  0  0
   10.5726  -14.9282   23.4965 C   0  0  0  0  0  0  0  0  0  0  0  0
   10.4580  -16.3198   24.0566 C   0  0  1  0  0  0  0  0  0  0  0  0
    9.6263  -17.1004   23.3033 O   0  0  0  0  0  0  0  0  0  0  0  0
   11.8536  -16.8726   24.1986 C   0  0  2  0  0  0  0  0  0  0  0  0
   12.5326  -17.0189   22.9470 N   0  0  0  0  0  0  0  0  0  0  0  0
   11.8422  -18.1588   24.9767 C   0  0  0  0  0  0  0  0  0  0  0  0
   12.3381  -19.3280   24.4176 O   0  0  0  0  0  0  0  0  0  0  0  0
   11.3896  -18.2268   26.1484 O   0  0  0  0  0  0  0  0  0  0  0  0
  2  1  1  0
  2  3  1  0
  3  5  1  0
  3  4  1  1
  5 12  1  0
  6  5  2  0
  7  8  1  0
  8  9  2  0
 10  8  1  0
 11 10  1  6
 11 13  1  0
 12 11  1  0
 13 14  2  0
 13 19  1  0
 16 17  1  0
 16 15  1  6
 18 16  1  0
 18 19  1  6
 20 18  1  0
 20 21  1  0
 22 20  2  0
M  END
$$$$
