SNT.pdb
     RDKit          3D

 22 21  0  0  1  0  0  0  0  0999 V2000
    7.3918  -13.7945   19.2430 O   0  0  0  0  0  0  0  0  0  0  0  0
    8.1835  -12.7944   18.6559 C   0  0  0  0  0  0  0  0  0  0  0  0
    8.9629  -13.3386   17.4730 C   0  0  2  0  0  0  0  0  0  0  0  0
    8.0826  -13.9871   16.5173 N   0  0  0  0  0  0  0  0  0  0  0  0
    9.9533  -14.3022   17.9842 C   0  0  0  0  0  0  0  0  0  0  0  0
    9.7703  -15.5237   17.8274 O   0  0  0  0  0  0  0  0  0  0  0  0
   14.3193  -16.5470   19.4983 N   0  0  0  0  0  0  0  0  0  0  0  0
   14.5494  -15.1948   19.0359 C   0  0  0  0  0  0  0  0  0  0  0  0
   15.7117  -14.8438   18.7984 O   0  0  0  0  0  0  0  0  0  0  0  0
   13.4213  -14.2911   18.8634 C   0  0  0  0  0  0  0  0  0  0  0  0
   12.0741  -14.7964   19.2326 C   0  0  2  0  0  0  0  0  0  0  0  0
   11.1082  -13.8438   18.6504 N   0  0  0  0  0  0  0  0  0  0  0  0
   11.7860  -14.8989   20.6651 C   0  0  0  0  0  0  0  0  0  0  0  0
   12.5543  -14.4169   21.5184 O   0  0  0  0  0  0  0  0  0  0  0  0
    8.3586  -14.2117   22.4305 C   0  0  0  0  0  0  0  0  0  0  0  0
    8.8607  -15.5717   22.8325 C   0  0  1  0  0  0  0  0  0  0  0  0
    8.1309  -16.5712   22.2521 O   0  0  0  0  0  0  0  0  0  0  0  0
   10.3340  -15.6275   22.5167 C   0  0  2  0  0  0  0  0  0  0  0  0
   10.6138  -15.5564   21.1147 N   0  0  0  0  0  0  0  0  0  0  0  0
   10.9704  -16.8341   23.1484 C   0  0  0  0  0  0  0  0  0  0  0  0
   10.8718  -17.0516   24.5154 O   0  0  0  0  0  0  0  0  0  0  0  0
   11.6084  -17.6831   22.4741 O   0  0  0  0  0  0  0  0  0  0  0  0
  2  1  1  0
  2  3  1  0
  3  5  1  0
  3  4  1  6
  5 12  1  0
  6  5  2  0
  7  8  1  0
  8  9  2  0
 10  8  1  0
 11 10  1  1
 11 13  1  0
 12 11  1  0
 13 14  2  0
 13 19  1  0
 16 17  1  0
 16 15  1  6
 18 16  1  0
 18 19  1  6
 20 18  1  0
 20 21  1  0
 22 20  2  0
M  END
$$$$
