SNT.pdb
     RDKit          3D

 22 21  0  0  1  0  0  0  0  0999 V2000
   13.7425  -15.3520   15.5239 O   0  0  0  0  0  0  0  0  0  0  0  0
   13.5707  -16.7311   15.7249 C   0  0  0  0  0  0  0  0  0  0  0  0
   12.2325  -17.1996   15.1840 C   0  0  2  0  0  0  0  0  0  0  0  0
   11.8665  -16.4697   13.9832 N   0  0  0  0  0  0  0  0  0  0  0  0
   11.2188  -16.9907   16.2325 C   0  0  0  0  0  0  0  0  0  0  0  0
   10.1876  -16.3404   15.9793 O   0  0  0  0  0  0  0  0  0  0  0  0
    8.2691  -18.5502   20.2858 N   0  0  0  0  0  0  0  0  0  0  0  0
    9.4815  -19.3299   20.1553 C   0  0  0  0  0  0  0  0  0  0  0  0
    9.6225  -20.3242   20.8779 O   0  0  0  0  0  0  0  0  0  0  0  0
   10.4940  -18.9304   19.1887 C   0  0  0  0  0  0  0  0  0  0  0  0
   10.2879  -17.6473   18.4692 C   0  0  2  0  0  0  0  0  0  0  0  0
   11.4138  -17.5259   17.5222 N   0  0  0  0  0  0  0  0  0  0  0  0
   10.2680  -16.4348   19.2909 C   0  0  0  0  0  0  0  0  0  0  0  0
   11.3183  -15.8388   19.5950 O   0  0  0  0  0  0  0  0  0  0  0  0
    7.9144  -13.2790   18.9481 C   0  0  0  0  0  0  0  0  0  0  0  0
    7.8169  -13.8586   20.3330 C   0  0  1  0  0  0  0  0  0  0  0  0
    6.6329  -14.5146   20.5236 O   0  0  0  0  0  0  0  0  0  0  0  0
    9.0354  -14.7181   20.5564 C   0  0  2  0  0  0  0  0  0  0  0  0
    9.0392  -15.9091   19.7623 N   0  0  0  0  0  0  0  0  0  0  0  0
    9.2118  -15.0255   22.0173 C   0  0  0  0  0  0  0  0  0  0  0  0
    9.2997  -14.0016   22.9499 O   0  0  0  0  0  0  0  0  0  0  0  0
    9.2857  -16.2051   22.4478 O   0  0  0  0  0  0  0  0  0  0  0  0
  2  1  1  0
  2  3  1  0
  3  5  1  0
  3  4  1  6
  5 12  1  0
  6  5  2  0
  7  8  1  0
  8  9  2  0
 10  8  1  0
 11 10  1  1
 11 13  1  0
 12 11  1  0
 13 14  2  0
 13 19  1  0
 16 17  1  0
 16 15  1  6
 18 16  1  0
 18 19  1  6
 20 18  1  0
 20 21  1  0
 22 20  2  0
M  END
$$$$
