SNT.pdb
     RDKit          3D

 22 21  0  0  1  0  0  0  0  0999 V2000
    7.8744  -13.8779   15.8147 O   0  0  0  0  0  0  0  0  0  0  0  0
    9.1786  -14.2731   16.1531 C   0  0  0  0  0  0  0  0  0  0  0  0
    9.3499  -15.7739   16.0083 C   0  0  2  0  0  0  0  0  0  0  0  0
    8.1903  -16.3763   15.3749 N   0  0  0  0  0  0  0  0  0  0  0  0
    9.5446  -16.3423   17.3536 C   0  0  0  0  0  0  0  0  0  0  0  0
    8.6418  -17.0204   17.8783 O   0  0  0  0  0  0  0  0  0  0  0  0
   11.7653  -19.3279   18.3678 N   0  0  0  0  0  0  0  0  0  0  0  0
   12.8002  -18.4377   18.8490 C   0  0  0  0  0  0  0  0  0  0  0  0
   13.9750  -18.8234   18.8058 O   0  0  0  0  0  0  0  0  0  0  0  0
   12.4386  -17.1259   19.3659 C   0  0  0  0  0  0  0  0  0  0  0  0
   10.9997  -16.7569   19.3563 C   0  0  2  0  0  0  0  0  0  0  0  0
   10.7513  -16.1200   18.0480 N   0  0  0  0  0  0  0  0  0  0  0  0
   10.5593  -15.8220   20.3945 C   0  0  0  0  0  0  0  0  0  0  0  0
   11.3768  -15.1711   21.0718 O   0  0  0  0  0  0  0  0  0  0  0  0
    7.7538  -13.0829   20.2346 C   0  0  0  0  0  0  0  0  0  0  0  0
    7.4805  -14.0201   21.3792 C   0  0  1  0  0  0  0  0  0  0  0  0
    6.4262  -14.8484   21.1128 O   0  0  0  0  0  0  0  0  0  0  0  0
    8.7643  -14.7458   21.6934 C   0  0  2  0  0  0  0  0  0  0  0  0
    9.1781  -15.6370   20.6525 N   0  0  0  0  0  0  0  0  0  0  0  0
    8.6704  -15.4478   23.0194 C   0  0  0  0  0  0  0  0  0  0  0  0
    8.3829  -14.7380   24.1766 O   0  0  0  0  0  0  0  0  0  0  0  0
    8.8458  -16.6883   23.1325 O   0  0  0  0  0  0  0  0  0  0  0  0
  2  1  1  0
  2  3  1  0
  3  5  1  0
  3  4  1  1
  5 12  1  0
  6  5  2  0
  7  8  1  0
  8  9  2  0
 10  8  1  0
 11 10  1  1
 11 13  1  0
 12 11  1  0
 13 14  2  0
 13 19  1  0
 16 17  1  0
 16 15  1  6
 18 16  1  0
 18 19  1  6
 20 18  1  0
 20 21  1  0
 22 20  2  0
M  END
$$$$
