SNT.pdb
     RDKit          3D

 22 21  0  0  1  0  0  0  0  0999 V2000
    8.1605  -12.7658   15.2922 O   0  0  0  0  0  0  0  0  0  0  0  0
    8.4904  -13.4750   16.4584 C   0  0  0  0  0  0  0  0  0  0  0  0
    9.1098  -14.8193   16.1237 C   0  0  2  0  0  0  0  0  0  0  0  0
    8.1636  -15.6758   15.4307 N   0  0  0  0  0  0  0  0  0  0  0  0
    9.5359  -15.4514   17.3844 C   0  0  0  0  0  0  0  0  0  0  0  0
    8.7960  -16.2814   17.9446 O   0  0  0  0  0  0  0  0  0  0  0  0
   13.8458  -13.7548   19.2586 N   0  0  0  0  0  0  0  0  0  0  0  0
   13.4690  -14.8268   18.3620 C   0  0  0  0  0  0  0  0  0  0  0  0
   13.7538  -14.7186   17.1629 O   0  0  0  0  0  0  0  0  0  0  0  0
   12.7726  -15.9926   18.8861 C   0  0  0  0  0  0  0  0  0  0  0  0
   11.3088  -15.8747   19.1101 C   0  0  2  0  0  0  0  0  0  0  0  0
   10.7801  -15.1183   17.9579 N   0  0  0  0  0  0  0  0  0  0  0  0
   10.8896  -15.1767   20.3278 C   0  0  0  0  0  0  0  0  0  0  0  0
   11.3631  -14.0670   20.6362 O   0  0  0  0  0  0  0  0  0  0  0  0
    7.9982  -13.4670   21.5199 C   0  0  0  0  0  0  0  0  0  0  0  0
    8.1345  -14.6444   22.4465 C   0  0  1  0  0  0  0  0  0  0  0  0
    7.2380  -15.6311   22.1445 O   0  0  0  0  0  0  0  0  0  0  0  0
    9.5736  -15.0928   22.4083 C   0  0  2  0  0  0  0  0  0  0  0  0
    9.9257  -15.7565   21.1899 N   0  0  0  0  0  0  0  0  0  0  0  0
    9.9040  -15.9310   23.6116 C   0  0  0  0  0  0  0  0  0  0  0  0
    9.7337  -15.4267   24.8932 O   0  0  0  0  0  0  0  0  0  0  0  0
   10.3417  -17.1058   23.5078 O   0  0  0  0  0  0  0  0  0  0  0  0
  2  1  1  0
  2  3  1  0
  3  5  1  0
  3  4  1  1
  5 12  1  0
  6  5  2  0
  7  8  1  0
  8  9  2  0
 10  8  1  0
 11 10  1  6
 11 13  1  0
 12 11  1  0
 13 14  2  0
 13 19  1  0
 16 17  1  0
 16 15  1  6
 18 16  1  0
 18 19  1  6
 20 18  1  0
 20 21  1  0
 22 20  2  0
M  END
$$$$
