DDG.pdb
     RDKit          3D

 21 20  0  0  1  0  0  0  0  0999 V2000
    9.8306  -16.1959   20.1275 N   0  0  0  0  0  0  0  0  0  0  0  0
    8.4493  -15.8588   20.3868 C   0  0  1  0  0  0  0  0  0  0  0  0
    7.4931  -16.7810   19.6650 C   0  0  0  0  0  0  0  0  0  0  0  0
    8.1392  -17.1372   18.3722 C   0  0  0  0  0  0  0  0  0  0  0  0
    8.2384  -16.3391   17.4075 O   0  0  0  0  0  0  0  0  0  0  0  0
    8.1658  -15.7801   21.8439 C   0  0  0  0  0  0  0  0  0  0  0  0
    6.9763  -15.7459   22.2265 O   0  0  0  0  0  0  0  0  0  0  0  0
    8.6720  -18.4157   18.1913 O   0  0  0  0  0  0  0  0  0  0  0  0
    9.1940  -15.7418   22.8238 N   0  0  0  0  0  0  0  0  0  0  0  0
    8.9875  -15.6409   24.2334 C   0  0  1  0  0  0  0  0  0  0  0  0
   10.1107  -16.2504   25.0381 C   0  0  0  0  0  0  0  0  0  0  0  0
   10.1867  -17.7212   24.8468 C   0  0  0  0  0  0  0  0  0  0  0  0
   10.1496  -18.2818   23.7173 O   0  0  0  0  0  0  0  0  0  0  0  0
    8.7472  -14.2281   24.5888 C   0  0  0  0  0  0  0  0  0  0  0  0
    9.5705  -13.3755   24.1957 O   0  0  0  0  0  0  0  0  0  0  0  0
   10.3072  -18.5920   25.9391 O   0  0  0  0  0  0  0  0  0  0  0  0
    7.6318  -13.7690   25.3549 N   0  0  0  0  0  0  0  0  0  0  0  0
    7.4368  -12.4052   25.7252 C   0  0  0  0  0  0  0  0  0  0  0  0
    6.2469  -12.1770   26.5597 C   0  0  0  0  0  0  0  0  0  0  0  0
    5.9343  -10.9925   27.2100 O   0  0  0  0  0  0  0  0  0  0  0  0
    5.4406  -13.1317   26.6999 O   0  0  0  0  0  0  0  0  0  0  0  0
  2  1  1  1
  2  3  1  0
  3  4  1  0
  4  8  1  0
  5  4  2  0
  6  2  1  0
  7  6  2  0
  9  6  1  0
 10 14  1  0
 10  9  1  0
 10 11  1  1
 12 11  1  0
 13 12  2  0
 14 15  2  0
 16 12  1  0
 17 14  1  0
 17 18  1  0
 18 19  1  0
 19 20  1  0
 21 19  2  0
M  END
$$$$
