DDG.pdb
     RDKit          3D

 21 20  0  0  1  0  0  0  0  0999 V2000
   11.2971  -18.1448   18.3834 N   0  0  0  0  0  0  0  0  0  0  0  0
   10.6358  -17.6554   19.5715 C   0  0  1  0  0  0  0  0  0  0  0  0
    9.2844  -18.3012   19.7778 C   0  0  0  0  0  0  0  0  0  0  0  0
    8.4387  -17.8976   18.6213 C   0  0  0  0  0  0  0  0  0  0  0  0
    7.2212  -18.1896   18.5218 O   0  0  0  0  0  0  0  0  0  0  0  0
   11.5049  -17.7694   20.7721 C   0  0  0  0  0  0  0  0  0  0  0  0
   11.3842  -18.7697   21.5120 O   0  0  0  0  0  0  0  0  0  0  0  0
    8.9976  -17.1563   17.5777 O   0  0  0  0  0  0  0  0  0  0  0  0
   12.4708  -16.7855   21.1154 N   0  0  0  0  0  0  0  0  0  0  0  0
   13.3424  -16.8432   22.2453 C   0  0  1  0  0  0  0  0  0  0  0  0
   14.3944  -15.7599   22.2334 C   0  0  0  0  0  0  0  0  0  0  0  0
   15.4753  -16.0345   23.2143 C   0  0  0  0  0  0  0  0  0  0  0  0
   15.5456  -17.0916   23.8990 O   0  0  0  0  0  0  0  0  0  0  0  0
   12.5358  -16.8264   23.4819 C   0  0  0  0  0  0  0  0  0  0  0  0
   12.1688  -15.7194   23.9285 O   0  0  0  0  0  0  0  0  0  0  0  0
   16.5052  -15.1101   23.4401 O   0  0  0  0  0  0  0  0  0  0  0  0
   12.1453  -17.9955   24.2046 N   0  0  0  0  0  0  0  0  0  0  0  0
   11.4025  -17.9591   25.4220 C   0  0  0  0  0  0  0  0  0  0  0  0
   12.2103  -18.2223   26.6229 C   0  0  0  0  0  0  0  0  0  0  0  0
   13.5732  -18.4792   26.6365 O   0  0  0  0  0  0  0  0  0  0  0  0
   11.6227  -18.2154   27.7346 O   0  0  0  0  0  0  0  0  0  0  0  0
  2  1  1  6
  2  3  1  0
  3  4  1  0
  4  8  1  0
  5  4  2  0
  6  2  1  0
  7  6  2  0
  9  6  1  0
 10 14  1  0
 10  9  1  0
 10 11  1  1
 12 11  1  0
 13 12  2  0
 14 15  2  0
 16 12  1  0
 17 14  1  0
 17 18  1  0
 18 19  1  0
 19 20  1  0
 21 19  2  0
M  END
$$$$
