DDG.pdb
     RDKit          3D

 21 20  0  0  1  0  0  0  0  0999 V2000
   11.1909  -16.6306   19.6631 N   0  0  0  0  0  0  0  0  0  0  0  0
   11.0106  -17.9167   20.2972 C   0  0  1  0  0  0  0  0  0  0  0  0
   11.1584  -19.0597   19.3186 C   0  0  0  0  0  0  0  0  0  0  0  0
   10.2507  -18.7628   18.1769 C   0  0  0  0  0  0  0  0  0  0  0  0
    9.1176  -18.2388   18.3145 O   0  0  0  0  0  0  0  0  0  0  0  0
   11.8906  -18.0734   21.4850 C   0  0  0  0  0  0  0  0  0  0  0  0
   12.4103  -19.1880   21.7086 O   0  0  0  0  0  0  0  0  0  0  0  0
   10.6501  -19.0705   16.8742 O   0  0  0  0  0  0  0  0  0  0  0  0
   12.1669  -17.0052   22.3803 N   0  0  0  0  0  0  0  0  0  0  0  0
   13.0491  -17.0750   23.5013 C   0  0  1  0  0  0  0  0  0  0  0  0
   14.0486  -15.9435   23.5353 C   0  0  0  0  0  0  0  0  0  0  0  0
   15.4462  -16.4457   23.5168 C   0  0  0  0  0  0  0  0  0  0  0  0
   15.8368  -17.4493   24.1738 O   0  0  0  0  0  0  0  0  0  0  0  0
   12.2523  -17.1553   24.7417 C   0  0  0  0  0  0  0  0  0  0  0  0
   11.9413  -16.0876   25.3100 O   0  0  0  0  0  0  0  0  0  0  0  0
   16.4356  -15.8164   22.7481 O   0  0  0  0  0  0  0  0  0  0  0  0
   11.8114  -18.3766   25.3380 N   0  0  0  0  0  0  0  0  0  0  0  0
   11.0936  -18.4394   26.5692 C   0  0  0  0  0  0  0  0  0  0  0  0
   11.9478  -18.6467   27.7489 C   0  0  0  0  0  0  0  0  0  0  0  0
   13.3316  -18.7392   27.7352 O   0  0  0  0  0  0  0  0  0  0  0  0
   11.3829  -18.7495   28.8677 O   0  0  0  0  0  0  0  0  0  0  0  0
  2  1  1  6
  2  3  1  0
  3  4  1  0
  4  8  1  0
  5  4  2  0
  6  2  1  0
  7  6  2  0
  9  6  1  0
 10 14  1  0
 10  9  1  0
 10 11  1  1
 12 11  1  0
 13 12  2  0
 14 15  2  0
 16 12  1  0
 17 14  1  0
 17 18  1  0
 18 19  1  0
 19 20  1  0
 21 19  2  0
M  END
$$$$
