DDG.pdb
     RDKit          3D

 21 20  0  0  1  0  0  0  0  0999 V2000
   12.9367  -16.9716   16.8706 N   0  0  0  0  0  0  0  0  0  0  0  0
   12.6794  -15.5514   16.9433 C   0  0  1  0  0  0  0  0  0  0  0  0
   11.5472  -15.1307   16.0339 C   0  0  0  0  0  0  0  0  0  0  0  0
   11.9346  -15.5375   14.6555 C   0  0  0  0  0  0  0  0  0  0  0  0
   11.1011  -15.8246   13.7609 O   0  0  0  0  0  0  0  0  0  0  0  0
   12.4752  -15.0997   18.3447 C   0  0  0  0  0  0  0  0  0  0  0  0
   12.8827  -13.9663   18.6792 O   0  0  0  0  0  0  0  0  0  0  0  0
   13.2854  -15.6135   14.3077 O   0  0  0  0  0  0  0  0  0  0  0  0
   11.8337  -15.9051   19.3238 N   0  0  0  0  0  0  0  0  0  0  0  0
   11.6726  -15.5599   20.7003 C   0  0  1  0  0  0  0  0  0  0  0  0
   10.5600  -16.3275   21.3735 C   0  0  0  0  0  0  0  0  0  0  0  0
   10.4522  -15.9857   22.8149 C   0  0  0  0  0  0  0  0  0  0  0  0
    9.8301  -14.9779   23.2493 O   0  0  0  0  0  0  0  0  0  0  0  0
   12.9648  -15.7220   21.3958 C   0  0  0  0  0  0  0  0  0  0  0  0
   13.5424  -16.8259   21.3118 O   0  0  0  0  0  0  0  0  0  0  0  0
   11.0513  -16.7847   23.7991 O   0  0  0  0  0  0  0  0  0  0  0  0
   13.6015  -14.6970   22.1612 N   0  0  0  0  0  0  0  0  0  0  0  0
   14.7393  -14.9238   22.9913 C   0  0  0  0  0  0  0  0  0  0  0  0
   16.0238  -14.8474   22.2784 C   0  0  0  0  0  0  0  0  0  0  0  0
   16.1769  -14.6831   20.9097 O   0  0  0  0  0  0  0  0  0  0  0  0
   17.0763  -14.9380   22.9606 O   0  0  0  0  0  0  0  0  0  0  0  0
  2  1  1  1
  2  3  1  0
  3  4  1  0
  4  8  1  0
  5  4  2  0
  6  2  1  0
  7  6  2  0
  9  6  1  0
 10 14  1  0
 10  9  1  0
 10 11  1  1
 12 11  1  0
 13 12  2  0
 14 15  2  0
 16 12  1  0
 17 14  1  0
 17 18  1  0
 18 19  1  0
 19 20  1  0
 21 19  2  0
M  END
$$$$
