DDG.pdb
     RDKit          3D

 21 20  0  0  1  0  0  0  0  0999 V2000
    8.2652  -18.8722   18.7011 N   0  0  0  0  0  0  0  0  0  0  0  0
    9.6876  -18.7398   18.4823 C   0  0  1  0  0  0  0  0  0  0  0  0
   10.0126  -17.6347   17.5031 C   0  0  0  0  0  0  0  0  0  0  0  0
    9.2924  -17.9584   16.2413 C   0  0  0  0  0  0  0  0  0  0  0  0
    8.1494  -17.5163   15.9664 O   0  0  0  0  0  0  0  0  0  0  0  0
   10.4306  -18.5967   19.7618 C   0  0  0  0  0  0  0  0  0  0  0  0
   10.1298  -19.3395   20.7211 O   0  0  0  0  0  0  0  0  0  0  0  0
    9.8910  -18.7931   15.2948 O   0  0  0  0  0  0  0  0  0  0  0  0
   11.4724  -17.6472   19.9410 N   0  0  0  0  0  0  0  0  0  0  0  0
   12.2879  -17.5267   21.1074 C   0  0  1  0  0  0  0  0  0  0  0  0
   13.6026  -16.8344   20.8377 C   0  0  0  0  0  0  0  0  0  0  0  0
   14.4777  -17.6451   19.9529 C   0  0  0  0  0  0  0  0  0  0  0  0
   14.7971  -18.8417   20.1924 O   0  0  0  0  0  0  0  0  0  0  0  0
   11.5137  -16.8615   22.1742 C   0  0  0  0  0  0  0  0  0  0  0  0
   11.1571  -15.6789   21.9907 O   0  0  0  0  0  0  0  0  0  0  0  0
   15.0118  -17.1120   18.7712 O   0  0  0  0  0  0  0  0  0  0  0  0
   11.1435  -17.4820   23.4070 N   0  0  0  0  0  0  0  0  0  0  0  0
   10.3479  -16.8434   24.4040 C   0  0  0  0  0  0  0  0  0  0  0  0
   11.0933  -16.4745   25.6175 C   0  0  0  0  0  0  0  0  0  0  0  0
   10.5734  -15.7881   26.7047 O   0  0  0  0  0  0  0  0  0  0  0  0
   12.3045  -16.8062   25.6818 O   0  0  0  0  0  0  0  0  0  0  0  0
  2  1  1  1
  2  3  1  0
  3  4  1  0
  4  8  1  0
  5  4  2  0
  6  2  1  0
  7  6  2  0
  9  6  1  0
 10 14  1  0
 10  9  1  0
 10 11  1  6
 12 11  1  0
 13 12  2  0
 14 15  2  0
 16 12  1  0
 17 14  1  0
 17 18  1  0
 18 19  1  0
 19 20  1  0
 21 19  2  0
M  END
$$$$
