DDG.pdb
     RDKit          3D

 21 20  0  0  1  0  0  0  0  0999 V2000
    9.9048  -17.2287   19.5973 N   0  0  0  0  0  0  0  0  0  0  0  0
   10.7707  -17.5085   20.7200 C   0  0  1  0  0  0  0  0  0  0  0  0
   11.9876  -16.6114   20.7379 C   0  0  0  0  0  0  0  0  0  0  0  0
   12.7977  -16.9688   19.5414 C   0  0  0  0  0  0  0  0  0  0  0  0
   13.5315  -16.1494   18.9352 O   0  0  0  0  0  0  0  0  0  0  0  0
   10.0293  -17.4796   22.0081 C   0  0  0  0  0  0  0  0  0  0  0  0
    9.3299  -16.4798   22.2798 O   0  0  0  0  0  0  0  0  0  0  0  0
   12.7619  -18.2732   19.0430 O   0  0  0  0  0  0  0  0  0  0  0  0
   10.0824  -18.5446   22.9471 N   0  0  0  0  0  0  0  0  0  0  0  0
    9.3601  -18.5966   24.1781 C   0  0  1  0  0  0  0  0  0  0  0  0
    8.0347  -19.3097   24.0533 C   0  0  0  0  0  0  0  0  0  0  0  0
    7.2962  -19.3236   25.3419 C   0  0  0  0  0  0  0  0  0  0  0  0
    7.6693  -18.6917   26.3679 O   0  0  0  0  0  0  0  0  0  0  0  0
   10.2197  -19.1917   25.2205 C   0  0  0  0  0  0  0  0  0  0  0  0
   10.5968  -20.3723   25.0672 O   0  0  0  0  0  0  0  0  0  0  0  0
    6.1122  -20.0590   25.4941 O   0  0  0  0  0  0  0  0  0  0  0  0
   10.6510  -18.5054   26.3973 N   0  0  0  0  0  0  0  0  0  0  0  0
   11.5141  -19.0825   27.3756 C   0  0  0  0  0  0  0  0  0  0  0  0
   10.8102  -19.8473   28.4167 C   0  0  0  0  0  0  0  0  0  0  0  0
   10.2771  -21.1182   28.2608 O   0  0  0  0  0  0  0  0  0  0  0  0
   10.6767  -19.3100   29.5457 O   0  0  0  0  0  0  0  0  0  0  0  0
  2  1  1  6
  2  3  1  0
  3  4  1  0
  4  8  1  0
  5  4  2  0
  6  2  1  0
  7  6  2  0
  9  6  1  0
 10 14  1  0
 10  9  1  0
 10 11  1  6
 12 11  1  0
 13 12  2  0
 14 15  2  0
 16 12  1  0
 17 14  1  0
 17 18  1  0
 18 19  1  0
 19 20  1  0
 21 19  2  0
M  END
$$$$
