DDG.pdb
     RDKit          3D

 21 20  0  0  1  0  0  0  0  0999 V2000
    9.7336  -17.6141   20.2292 N   0  0  0  0  0  0  0  0  0  0  0  0
   10.7847  -17.3733   21.1913 C   0  0  1  0  0  0  0  0  0  0  0  0
   11.6176  -16.1633   20.8336 C   0  0  0  0  0  0  0  0  0  0  0  0
   12.3306  -16.4956   19.5700 C   0  0  0  0  0  0  0  0  0  0  0  0
   11.8667  -16.2461   18.4299 O   0  0  0  0  0  0  0  0  0  0  0  0
   10.2560  -17.3042   22.5789 C   0  0  0  0  0  0  0  0  0  0  0  0
    9.1338  -16.7887   22.7725 O   0  0  0  0  0  0  0  0  0  0  0  0
   13.5808  -17.1166   19.6209 O   0  0  0  0  0  0  0  0  0  0  0  0
   10.9753  -17.8015   23.6988 N   0  0  0  0  0  0  0  0  0  0  0  0
   10.4761  -17.8730   25.0351 C   0  0  1  0  0  0  0  0  0  0  0  0
   10.8597  -19.1528   25.7392 C   0  0  0  0  0  0  0  0  0  0  0  0
   10.3366  -19.1920   27.1287 C   0  0  0  0  0  0  0  0  0  0  0  0
    9.3513  -19.8945   27.4848 O   0  0  0  0  0  0  0  0  0  0  0  0
   10.9083  -16.6735   25.7796 C   0  0  0  0  0  0  0  0  0  0  0  0
   12.0786  -16.2701   25.6147 O   0  0  0  0  0  0  0  0  0  0  0  0
   10.9240  -18.4306   28.1491 O   0  0  0  0  0  0  0  0  0  0  0  0
   10.0748  -15.9404   26.6792 N   0  0  0  0  0  0  0  0  0  0  0  0
   10.4783  -14.7322   27.3215 C   0  0  0  0  0  0  0  0  0  0  0  0
   10.4080  -14.7839   28.7900 C   0  0  0  0  0  0  0  0  0  0  0  0
   10.7000  -13.7339   29.6479 O   0  0  0  0  0  0  0  0  0  0  0  0
   10.0541  -15.8682   29.3195 O   0  0  0  0  0  0  0  0  0  0  0  0
  2  1  1  6
  2  3  1  0
  3  4  1  0
  4  8  1  0
  5  4  2  0
  6  2  1  0
  7  6  2  0
  9  6  1  0
 10 14  1  0
 10  9  1  0
 10 11  1  1
 12 11  1  0
 13 12  2  0
 14 15  2  0
 16 12  1  0
 17 14  1  0
 17 18  1  0
 18 19  1  0
 19 20  1  0
 21 19  2  0
M  END
$$$$
