DDG.pdb
     RDKit          3D

 21 20  0  0  1  0  0  0  0  0999 V2000
   12.5176  -18.3771   18.0599 N   0  0  0  0  0  0  0  0  0  0  0  0
   13.3065  -18.0297   19.2198 C   0  0  1  0  0  0  0  0  0  0  0  0
   14.6812  -17.5257   18.8432 C   0  0  0  0  0  0  0  0  0  0  0  0
   15.1925  -18.4358   17.7821 C   0  0  0  0  0  0  0  0  0  0  0  0
   15.4447  -18.0576   16.6113 O   0  0  0  0  0  0  0  0  0  0  0  0
   12.5851  -17.0866   20.1142 C   0  0  0  0  0  0  0  0  0  0  0  0
   12.3533  -15.9273   19.7082 O   0  0  0  0  0  0  0  0  0  0  0  0
   15.4136  -19.7843   18.0714 O   0  0  0  0  0  0  0  0  0  0  0  0
   12.1463  -17.4489   21.4162 N   0  0  0  0  0  0  0  0  0  0  0  0
   11.3536  -16.6307   22.2775 C   0  0  1  0  0  0  0  0  0  0  0  0
   10.1002  -17.3228   22.7577 C   0  0  0  0  0  0  0  0  0  0  0  0
   10.4149  -18.4962   23.6120 C   0  0  0  0  0  0  0  0  0  0  0  0
   11.2909  -19.3565   23.3225 O   0  0  0  0  0  0  0  0  0  0  0  0
   12.1901  -16.1494   23.3949 C   0  0  0  0  0  0  0  0  0  0  0  0
   11.6636  -15.3963   24.2405 O   0  0  0  0  0  0  0  0  0  0  0  0
    9.7385  -18.7194   24.8197 O   0  0  0  0  0  0  0  0  0  0  0  0
   13.5664  -16.4885   23.5747 N   0  0  0  0  0  0  0  0  0  0  0  0
   14.4723  -15.7183   24.3628 C   0  0  0  0  0  0  0  0  0  0  0  0
   15.8324  -16.2755   24.4255 C   0  0  0  0  0  0  0  0  0  0  0  0
   16.2700  -17.4092   23.7570 O   0  0  0  0  0  0  0  0  0  0  0  0
   16.6749  -15.6792   25.1438 O   0  0  0  0  0  0  0  0  0  0  0  0
  2  1  1  6
  2  3  1  0
  3  4  1  0
  4  8  1  0
  5  4  2  0
  6  2  1  0
  7  6  2  0
  9  6  1  0
 10 14  1  0
 10  9  1  0
 10 11  1  1
 12 11  1  0
 13 12  2  0
 14 15  2  0
 16 12  1  0
 17 14  1  0
 17 18  1  0
 18 19  1  0
 19 20  1  0
 21 19  2  0
M  END
$$$$
