DDG.pdb
     RDKit          3D

 21 20  0  0  1  0  0  0  0  0999 V2000
   13.3231  -18.7774   19.6162 N   0  0  0  0  0  0  0  0  0  0  0  0
   12.6186  -17.5833   19.2082 C   0  0  1  0  0  0  0  0  0  0  0  0
   11.5704  -17.8718   18.1575 C   0  0  0  0  0  0  0  0  0  0  0  0
   12.2792  -18.5036   17.0112 C   0  0  0  0  0  0  0  0  0  0  0  0
   13.3609  -18.0685   16.5443 O   0  0  0  0  0  0  0  0  0  0  0  0
   12.0619  -16.8470   20.3734 C   0  0  0  0  0  0  0  0  0  0  0  0
   11.5814  -15.7071   20.1938 O   0  0  0  0  0  0  0  0  0  0  0  0
   11.7400  -19.6391   16.4021 O   0  0  0  0  0  0  0  0  0  0  0  0
   12.0531  -17.3865   21.6879 N   0  0  0  0  0  0  0  0  0  0  0  0
   11.5673  -16.7165   22.8519 C   0  0  1  0  0  0  0  0  0  0  0  0
   10.7320  -17.6086   23.7391 C   0  0  0  0  0  0  0  0  0  0  0  0
   10.2069  -16.8729   24.9176 C   0  0  0  0  0  0  0  0  0  0  0  0
    9.5292  -15.8122   24.8341 O   0  0  0  0  0  0  0  0  0  0  0  0
   12.7046  -16.1144   23.5756 C   0  0  0  0  0  0  0  0  0  0  0  0
   12.4686  -15.5134   24.6444 O   0  0  0  0  0  0  0  0  0  0  0  0
   10.4411  -17.3278   26.2231 O   0  0  0  0  0  0  0  0  0  0  0  0
   14.0623  -16.1733   23.1338 N   0  0  0  0  0  0  0  0  0  0  0  0
   15.1486  -15.5776   23.8409 C   0  0  0  0  0  0  0  0  0  0  0  0
   16.4324  -15.6384   23.1252 C   0  0  0  0  0  0  0  0  0  0  0  0
   16.6282  -16.1898   21.8676 O   0  0  0  0  0  0  0  0  0  0  0  0
   17.4420  -15.1513   23.6951 O   0  0  0  0  0  0  0  0  0  0  0  0
  2  1  1  1
  2  3  1  0
  3  4  1  0
  4  8  1  0
  5  4  2  0
  6  2  1  0
  7  6  2  0
  9  6  1  0
 10 14  1  0
 10  9  1  0
 10 11  1  1
 12 11  1  0
 13 12  2  0
 14 15  2  0
 16 12  1  0
 17 14  1  0
 17 18  1  0
 18 19  1  0
 19 20  1  0
 21 19  2  0
M  END
$$$$
