DDG.pdb
     RDKit          3D

 21 20  0  0  1  0  0  0  0  0999 V2000
    8.7580  -19.1386   16.7619 N   0  0  0  0  0  0  0  0  0  0  0  0
    7.5992  -18.7420   17.5290 C   0  0  1  0  0  0  0  0  0  0  0  0
    6.3165  -18.8961   16.7437 C   0  0  0  0  0  0  0  0  0  0  0  0
    6.4972  -18.1324   15.4789 C   0  0  0  0  0  0  0  0  0  0  0  0
    7.3608  -17.2321   15.3340 O   0  0  0  0  0  0  0  0  0  0  0  0
    7.5439  -19.4366   18.8421 C   0  0  0  0  0  0  0  0  0  0  0  0
    6.7189  -19.0474   19.6968 O   0  0  0  0  0  0  0  0  0  0  0  0
    5.6809  -18.4072   14.3792 O   0  0  0  0  0  0  0  0  0  0  0  0
    8.3927  -20.5285   19.1678 N   0  0  0  0  0  0  0  0  0  0  0  0
    8.4002  -21.2248   20.4148 C   0  0  1  0  0  0  0  0  0  0  0  0
    8.6254  -22.7099   20.2586 C   0  0  0  0  0  0  0  0  0  0  0  0
    7.5776  -23.3374   19.4136 C   0  0  0  0  0  0  0  0  0  0  0  0
    7.8253  -24.1552   18.4857 O   0  0  0  0  0  0  0  0  0  0  0  0
    9.3911  -20.6000   21.3136 C   0  0  0  0  0  0  0  0  0  0  0  0
   10.4161  -20.1025   20.8023 O   0  0  0  0  0  0  0  0  0  0  0  0
    6.2189  -23.0485   19.6048 O   0  0  0  0  0  0  0  0  0  0  0  0
    9.2559  -20.5259   22.7341 N   0  0  0  0  0  0  0  0  0  0  0  0
   10.1228  -19.7615   23.5704 C   0  0  0  0  0  0  0  0  0  0  0  0
   11.1566  -20.5596   24.2474 C   0  0  0  0  0  0  0  0  0  0  0  0
   12.0693  -20.0765   25.1733 O   0  0  0  0  0  0  0  0  0  0  0  0
   11.2248  -21.7839   23.9684 O   0  0  0  0  0  0  0  0  0  0  0  0
  2  1  1  6
  2  3  1  0
  3  4  1  0
  4  8  1  0
  5  4  2  0
  6  2  1  0
  7  6  2  0
  9  6  1  0
 10 14  1  0
 10  9  1  0
 10 11  1  6
 12 11  1  0
 13 12  2  0
 14 15  2  0
 16 12  1  0
 17 14  1  0
 17 18  1  0
 18 19  1  0
 19 20  1  0
 21 19  2  0
M  END
$$$$
