DDG.pdb
     RDKit          3D

 21 20  0  0  1  0  0  0  0  0999 V2000
    9.5822  -25.3586   27.2789 N   0  0  0  0  0  0  0  0  0  0  0  0
    9.3373  -25.1641   28.6899 C   0  0  1  0  0  0  0  0  0  0  0  0
    8.4706  -26.2570   29.2732 C   0  0  0  0  0  0  0  0  0  0  0  0
    7.1587  -26.1787   28.5743 C   0  0  0  0  0  0  0  0  0  0  0  0
    6.8225  -25.2136   27.8441 O   0  0  0  0  0  0  0  0  0  0  0  0
   10.6026  -24.9820   29.4485 C   0  0  0  0  0  0  0  0  0  0  0  0
   10.6049  -25.1982   30.6797 O   0  0  0  0  0  0  0  0  0  0  0  0
    6.2328  -27.2147   28.7175 O   0  0  0  0  0  0  0  0  0  0  0  0
   11.8143  -24.5709   28.8307 N   0  0  0  0  0  0  0  0  0  0  0  0
   13.0656  -24.4022   29.4983 C   0  0  1  0  0  0  0  0  0  0  0  0
   14.2374  -24.3461   28.5475 C   0  0  0  0  0  0  0  0  0  0  0  0
   14.3233  -25.5699   27.7104 C   0  0  0  0  0  0  0  0  0  0  0  0
   14.2407  -25.5627   26.4516 O   0  0  0  0  0  0  0  0  0  0  0  0
   12.9943  -23.2123   30.3695 C   0  0  0  0  0  0  0  0  0  0  0  0
   12.3144  -22.2397   29.9806 O   0  0  0  0  0  0  0  0  0  0  0  0
   14.5058  -26.8348   28.2871 O   0  0  0  0  0  0  0  0  0  0  0  0
   13.6532  -23.0981   31.6322 N   0  0  0  0  0  0  0  0  0  0  0  0
   13.5351  -21.9596   32.4837 C   0  0  0  0  0  0  0  0  0  0  0  0
   14.2826  -22.0769   33.7453 C   0  0  0  0  0  0  0  0  0  0  0  0
   14.3792  -21.0937   34.7187 O   0  0  0  0  0  0  0  0  0  0  0  0
   14.8876  -23.1568   33.9669 O   0  0  0  0  0  0  0  0  0  0  0  0
  2  1  1  6
  2  3  1  0
  3  4  1  0
  4  8  1  0
  5  4  2  0
  6  2  1  0
  7  6  2  0
  9  6  1  0
 10 14  1  0
 10  9  1  0
 10 11  1  6
 12 11  1  0
 13 12  2  0
 14 15  2  0
 16 12  1  0
 17 14  1  0
 17 18  1  0
 18 19  1  0
 19 20  1  0
 21 19  2  0
M  END
$$$$
