DDG.pdb
     RDKit          3D

 21 20  0  0  1  0  0  0  0  0999 V2000
    9.3896  -14.5541   16.5598 N   0  0  0  0  0  0  0  0  0  0  0  0
    9.6852  -15.9495   16.7925 C   0  0  1  0  0  0  0  0  0  0  0  0
   10.1081  -16.6606   15.5270 C   0  0  0  0  0  0  0  0  0  0  0  0
    9.0526  -16.3893   14.5132 C   0  0  0  0  0  0  0  0  0  0  0  0
    8.1142  -15.5745   14.6951 O   0  0  0  0  0  0  0  0  0  0  0  0
   10.6663  -16.1282   17.8949 C   0  0  0  0  0  0  0  0  0  0  0  0
   10.9825  -17.2873   18.2398 O   0  0  0  0  0  0  0  0  0  0  0  0
    9.0788  -17.0586   13.2874 O   0  0  0  0  0  0  0  0  0  0  0  0
   11.2619  -15.0325   18.5759 N   0  0  0  0  0  0  0  0  0  0  0  0
   12.1957  -15.1381   19.6514 C   0  0  1  0  0  0  0  0  0  0  0  0
   13.3089  -14.1211   19.5665 C   0  0  0  0  0  0  0  0  0  0  0  0
   14.2920  -14.4713   18.5097 C   0  0  0  0  0  0  0  0  0  0  0  0
   14.7642  -13.6364   17.6904 O   0  0  0  0  0  0  0  0  0  0  0  0
   11.4686  -15.0661   20.9343 C   0  0  0  0  0  0  0  0  0  0  0  0
   10.6071  -14.1725   21.0717 O   0  0  0  0  0  0  0  0  0  0  0  0
   14.7625  -15.7835   18.3594 O   0  0  0  0  0  0  0  0  0  0  0  0
   11.6848  -15.9532   22.0334 N   0  0  0  0  0  0  0  0  0  0  0  0
   10.8886  -15.9516   23.2171 C   0  0  0  0  0  0  0  0  0  0  0  0
   11.2939  -16.9574   24.2112 C   0  0  0  0  0  0  0  0  0  0  0  0
   11.7781  -16.6844   25.4819 O   0  0  0  0  0  0  0  0  0  0  0  0
   11.1959  -18.1689   23.8890 O   0  0  0  0  0  0  0  0  0  0  0  0
  2  1  1  6
  2  3  1  0
  3  4  1  0
  4  8  1  0
  5  4  2  0
  6  2  1  0
  7  6  2  0
  9  6  1  0
 10 14  1  0
 10  9  1  0
 10 11  1  1
 12 11  1  0
 13 12  2  0
 14 15  2  0
 16 12  1  0
 17 14  1  0
 17 18  1  0
 18 19  1  0
 19 20  1  0
 21 19  2  0
M  END
$$$$
