QAD.pdb
     RDKit          3D

 23 22  0  0  1  0  0  0  0  0999 V2000
   21.6777  -14.8804  -19.8877 N   0  0  0  0  0  0  0  0  0  0  0  0
   22.2723  -15.4306  -18.6921 C   0  0  0  0  0  0  0  0  0  0  0  0
   22.5068  -16.6518  -18.5941 O   0  0  0  0  0  0  0  0  0  0  0  0
   22.5884  -14.5178  -17.5948 C   0  0  0  0  0  0  0  0  0  0  0  0
   22.0701  -13.1471  -17.8287 C   0  0  0  0  0  0  0  0  0  0  0  0
   23.1173  -12.2295  -18.3661 C   0  0  2  0  0  0  0  0  0  0  0  0
   24.3537  -12.8143  -18.7422 N   0  0  0  0  0  0  0  0  0  0  0  0
   23.3586  -11.1940  -17.3144 C   0  0  0  0  0  0  0  0  0  0  0  0
   22.3659  -10.6278  -16.8071 O   0  0  0  0  0  0  0  0  0  0  0  0
   26.3952   -9.8680  -15.6115 C   0  0  0  0  0  0  0  0  0  0  0  0
   24.9444   -9.8080  -16.0121 C   0  0  2  0  0  0  0  0  0  0  0  0
   24.6670  -10.8866  -16.9269 N   0  0  0  0  0  0  0  0  0  0  0  0
   24.5599   -8.4974  -16.5797 C   0  0  0  0  0  0  0  0  0  0  0  0
   24.7444   -8.3095  -17.8134 O   0  0  0  0  0  0  0  0  0  0  0  0
   23.9998   -7.4375  -15.8406 N   0  0  0  0  0  0  0  0  0  0  0  0
   23.6466   -6.1920  -16.4645 C   0  0  1  0  0  0  0  0  0  0  0  0
   22.2056   -5.8893  -16.1259 C   0  0  0  0  0  0  0  0  0  0  0  0
   21.9363   -5.8667  -14.6822 C   0  0  0  0  0  0  0  0  0  0  0  0
   22.6434   -5.3453  -13.7964 O   0  0  0  0  0  0  0  0  0  0  0  0
   24.4603   -5.0535  -15.9902 C   0  0  0  0  0  0  0  0  0  0  0  0
   25.2246   -5.2744  -15.0155 O   0  0  0  0  0  0  0  0  0  0  0  0
   20.7644   -6.4953  -14.2537 O   0  0  0  0  0  0  0  0  0  0  0  0
   24.4380   -3.7965  -16.5318 O   0  0  0  0  0  0  0  0  0  0  0  0
  2  1  1  0
  2  3  2  0
  4  2  1  0
  5  4  1  0
  6  5  1  0
  6  7  1  1
  8  6  1  0
  8 12  1  0
  9  8  2  0
 11 10  1  6
 11 12  1  0
 11 13  1  0
 13 15  1  0
 13 14  2  0
 15 16  1  0
 16 17  1  1
 17 18  1  0
 18 19  2  0
 18 22  1  0
 20 16  1  0
 20 23  1  0
 21 20  2  0
M  END
$$$$
