QAD.pdb
     RDKit          3D

 23 22  0  0  1  0  0  0  0  0999 V2000
   17.2488  -11.1122  -20.2895 N   0  0  0  0  0  0  0  0  0  0  0  0
   16.4196  -11.1784  -19.1090 C   0  0  0  0  0  0  0  0  0  0  0  0
   15.3057  -11.7392  -19.1364 O   0  0  0  0  0  0  0  0  0  0  0  0
   16.9183  -10.5654  -17.8791 C   0  0  0  0  0  0  0  0  0  0  0  0
   18.2485   -9.9325  -18.0587 C   0  0  0  0  0  0  0  0  0  0  0  0
   19.3532  -10.7688  -17.5039 C   0  0  2  0  0  0  0  0  0  0  0  0
   18.9799  -11.8845  -16.7113 N   0  0  0  0  0  0  0  0  0  0  0  0
   20.2172   -9.8540  -16.6957 C   0  0  0  0  0  0  0  0  0  0  0  0
   19.8412   -9.5570  -15.5408 O   0  0  0  0  0  0  0  0  0  0  0  0
   23.5803   -8.3443  -17.1920 C   0  0  0  0  0  0  0  0  0  0  0  0
   22.2437   -8.4440  -16.5046 C   0  0  2  0  0  0  0  0  0  0  0  0
   21.4070   -9.3588  -17.2394 N   0  0  0  0  0  0  0  0  0  0  0  0
   21.5909   -7.1287  -16.3267 C   0  0  0  0  0  0  0  0  0  0  0  0
   20.9353   -6.6574  -17.2960 O   0  0  0  0  0  0  0  0  0  0  0  0
   21.6472   -6.3590  -15.1487 N   0  0  0  0  0  0  0  0  0  0  0  0
   21.0975   -5.0324  -15.0921 C   0  0  1  0  0  0  0  0  0  0  0  0
   19.6463   -5.1425  -14.6864 C   0  0  0  0  0  0  0  0  0  0  0  0
   18.9830   -3.8418  -14.5276 C   0  0  0  0  0  0  0  0  0  0  0  0
   19.1502   -2.8249  -15.2307 O   0  0  0  0  0  0  0  0  0  0  0  0
   21.7690   -4.1674  -14.1001 C   0  0  0  0  0  0  0  0  0  0  0  0
   22.5052   -4.7426  -13.2574 O   0  0  0  0  0  0  0  0  0  0  0  0
   18.0672   -3.7296  -13.4782 O   0  0  0  0  0  0  0  0  0  0  0  0
   21.6453   -2.8055  -14.0386 O   0  0  0  0  0  0  0  0  0  0  0  0
  2  1  1  0
  2  3  2  0
  4  2  1  0
  5  4  1  0
  6  5  1  0
  6  7  1  1
  8  6  1  0
  8 12  1  0
  9  8  2  0
 11 10  1  6
 11 12  1  0
 11 13  1  0
 13 15  1  0
 13 14  2  0
 15 16  1  0
 16 17  1  1
 17 18  1  0
 18 19  2  0
 18 22  1  0
 20 16  1  0
 20 23  1  0
 21 20  2  0
M  END
$$$$
