QAD.pdb
     RDKit          3D

 23 22  0  0  1  0  0  0  0  0999 V2000
   16.5310   -9.8872  -19.3217 N   0  0  0  0  0  0  0  0  0  0  0  0
   17.3094  -10.8852  -20.0174 C   0  0  0  0  0  0  0  0  0  0  0  0
   16.8707  -11.4423  -21.0436 O   0  0  0  0  0  0  0  0  0  0  0  0
   18.6260  -11.2301  -19.4837 C   0  0  0  0  0  0  0  0  0  0  0  0
   18.9586  -10.4673  -18.2550 C   0  0  0  0  0  0  0  0  0  0  0  0
   19.4964  -11.3431  -17.1727 C   0  0  2  0  0  0  0  0  0  0  0  0
   18.6174  -12.3206  -16.6397 N   0  0  0  0  0  0  0  0  0  0  0  0
   19.9517  -10.4352  -16.0751 C   0  0  0  0  0  0  0  0  0  0  0  0
   19.0814   -9.9056  -15.3502 O   0  0  0  0  0  0  0  0  0  0  0  0
   23.2311   -9.7300  -14.5178 C   0  0  0  0  0  0  0  0  0  0  0  0
   21.7951   -9.3772  -14.8046 C   0  0  2  0  0  0  0  0  0  0  0  0
   21.3178  -10.2020  -15.8857 N   0  0  0  0  0  0  0  0  0  0  0  0
   21.6040   -7.9383  -15.0893 C   0  0  0  0  0  0  0  0  0  0  0  0
   21.8392   -7.5302  -16.2596 O   0  0  0  0  0  0  0  0  0  0  0  0
   21.1763   -6.9847  -14.1453 N   0  0  0  0  0  0  0  0  0  0  0  0
   21.1257   -5.5842  -14.4637 C   0  0  1  0  0  0  0  0  0  0  0  0
   19.7671   -5.0601  -14.0611 C   0  0  0  0  0  0  0  0  0  0  0  0
   19.5723   -3.6383  -14.3738 C   0  0  0  0  0  0  0  0  0  0  0  0
   20.2002   -2.9634  -15.2144 O   0  0  0  0  0  0  0  0  0  0  0  0
   22.1385   -4.7874  -13.7408 C   0  0  0  0  0  0  0  0  0  0  0  0
   22.3272   -3.6122  -14.1483 O   0  0  0  0  0  0  0  0  0  0  0  0
   18.5790   -2.9690  -13.6543 O   0  0  0  0  0  0  0  0  0  0  0  0
   22.8722   -5.2357  -12.6755 O   0  0  0  0  0  0  0  0  0  0  0  0
  2  1  1  0
  2  3  2  0
  4  2  1  0
  5  4  1  0
  6  5  1  0
  6  7  1  1
  8  6  1  0
  8 12  1  0
  9  8  2  0
 11 10  1  6
 11 12  1  0
 11 13  1  0
 13 15  1  0
 13 14  2  0
 15 16  1  0
 16 17  1  1
 17 18  1  0
 18 19  2  0
 18 22  1  0
 20 16  1  0
 20 23  1  0
 21 20  2  0
M  END
$$$$
