QAD.pdb
     RDKit          3D

 23 22  0  0  1  0  0  0  0  0999 V2000
   18.0187   -8.5105  -20.5689 N   0  0  0  0  0  0  0  0  0  0  0  0
   18.4013   -9.9030  -20.5872 C   0  0  0  0  0  0  0  0  0  0  0  0
   18.3265  -10.5766  -21.6344 O   0  0  0  0  0  0  0  0  0  0  0  0
   18.8751  -10.5057  -19.3425 C   0  0  0  0  0  0  0  0  0  0  0  0
   18.8826   -9.5439  -18.2123 C   0  0  0  0  0  0  0  0  0  0  0  0
   19.3447  -10.1700  -16.9387 C   0  0  2  0  0  0  0  0  0  0  0  0
   18.5267  -11.1905  -16.3895 N   0  0  0  0  0  0  0  0  0  0  0  0
   19.4879   -9.0614  -15.9451 C   0  0  0  0  0  0  0  0  0  0  0  0
   18.4560   -8.6452  -15.3749 O   0  0  0  0  0  0  0  0  0  0  0  0
   22.3569   -7.4999  -14.2199 C   0  0  0  0  0  0  0  0  0  0  0  0
   20.9309   -7.4770  -14.7047 C   0  0  2  0  0  0  0  0  0  0  0  0
   20.7513   -8.5234  -15.6792 N   0  0  0  0  0  0  0  0  0  0  0  0
   20.5278   -6.1578  -15.2386 C   0  0  0  0  0  0  0  0  0  0  0  0
   20.7528   -5.9184  -16.4566 O   0  0  0  0  0  0  0  0  0  0  0  0
   19.9080   -5.1433  -14.4836 N   0  0  0  0  0  0  0  0  0  0  0  0
   19.6312   -3.8509  -15.0479 C   0  0  1  0  0  0  0  0  0  0  0  0
   18.3782   -3.3131  -14.3973 C   0  0  0  0  0  0  0  0  0  0  0  0
   18.0119   -1.9670  -14.8567 C   0  0  0  0  0  0  0  0  0  0  0  0
   17.6306   -1.0123  -14.1499 O   0  0  0  0  0  0  0  0  0  0  0  0
   20.7095   -2.8695  -14.8081 C   0  0  0  0  0  0  0  0  0  0  0  0
   20.6209   -1.7739  -15.4201 O   0  0  0  0  0  0  0  0  0  0  0  0
   18.0992   -1.7286  -16.2307 O   0  0  0  0  0  0  0  0  0  0  0  0
   21.7797   -3.0703  -13.9785 O   0  0  0  0  0  0  0  0  0  0  0  0
  2  1  1  0
  2  3  2  0
  4  2  1  0
  5  4  1  0
  6  5  1  0
  6  7  1  1
  8  6  1  0
  8 12  1  0
  9  8  2  0
 11 10  1  6
 11 12  1  0
 11 13  1  0
 13 15  1  0
 13 14  2  0
 15 16  1  0
 16 17  1  1
 17 18  1  0
 18 19  2  0
 18 22  1  0
 20 16  1  0
 20 23  1  0
 21 20  2  0
M  END
$$$$
