QAD.pdb
     RDKit          3D

 23 22  0  0  1  0  0  0  0  0999 V2000
   15.0620  -12.4531  -14.6457 N   0  0  0  0  0  0  0  0  0  0  0  0
   15.9301  -13.2934  -15.4369 C   0  0  0  0  0  0  0  0  0  0  0  0
   15.5488  -14.4094  -15.8434 O   0  0  0  0  0  0  0  0  0  0  0  0
   17.2723  -12.8035  -15.7457 C   0  0  0  0  0  0  0  0  0  0  0  0
   17.5336  -11.4610  -15.1696 C   0  0  0  0  0  0  0  0  0  0  0  0
   18.2821  -10.5767  -16.1105 C   0  0  2  0  0  0  0  0  0  0  0  0
   18.9621  -11.2080  -17.1835 N   0  0  0  0  0  0  0  0  0  0  0  0
   19.2645   -9.8088  -15.2849 C   0  0  0  0  0  0  0  0  0  0  0  0
   18.8900   -9.3803  -14.1716 O   0  0  0  0  0  0  0  0  0  0  0  0
   22.8957   -9.1390  -15.4640 C   0  0  0  0  0  0  0  0  0  0  0  0
   21.4969   -8.7633  -15.0503 C   0  0  2  0  0  0  0  0  0  0  0  0
   20.5592   -9.5902  -15.7671 N   0  0  0  0  0  0  0  0  0  0  0  0
   21.2107   -7.3242  -15.2371 C   0  0  0  0  0  0  0  0  0  0  0  0
   20.8673   -6.9333  -16.3863 O   0  0  0  0  0  0  0  0  0  0  0  0
   21.2936   -6.3524  -14.2211 N   0  0  0  0  0  0  0  0  0  0  0  0
   21.1489   -4.9518  -14.5089 C   0  0  1  0  0  0  0  0  0  0  0  0
   19.7600   -4.5279  -14.0920 C   0  0  0  0  0  0  0  0  0  0  0  0
   19.4822   -3.1075  -14.3417 C   0  0  0  0  0  0  0  0  0  0  0  0
   19.5262   -2.5175  -15.4400 O   0  0  0  0  0  0  0  0  0  0  0  0
   22.1093   -4.1052  -13.7713 C   0  0  0  0  0  0  0  0  0  0  0  0
   22.6053   -4.5962  -12.7245 O   0  0  0  0  0  0  0  0  0  0  0  0
   19.1312   -2.3334  -13.2327 O   0  0  0  0  0  0  0  0  0  0  0  0
   22.4883   -2.8440  -14.1451 O   0  0  0  0  0  0  0  0  0  0  0  0
  2  1  1  0
  2  3  2  0
  4  2  1  0
  5  4  1  0
  6  5  1  0
  6  7  1  6
  8  6  1  0
  8 12  1  0
  9  8  2  0
 11 10  1  6
 11 12  1  0
 11 13  1  0
 13 15  1  0
 13 14  2  0
 15 16  1  0
 16 17  1  1
 17 18  1  0
 18 19  2  0
 18 22  1  0
 20 16  1  0
 20 23  1  0
 21 20  2  0
M  END
$$$$
