QAD.pdb
     RDKit          3D

 23 22  0  0  1  0  0  0  0  0999 V2000
   26.4404  -21.3105  -12.3808 N   0  0  0  0  0  0  0  0  0  0  0  0
   25.2651  -22.0232  -11.9375 C   0  0  0  0  0  0  0  0  0  0  0  0
   25.3604  -23.0235  -11.1985 O   0  0  0  0  0  0  0  0  0  0  0  0
   23.9576  -21.5437  -12.3824 C   0  0  0  0  0  0  0  0  0  0  0  0
   24.0500  -20.2876  -13.1672 C   0  0  0  0  0  0  0  0  0  0  0  0
   24.6563  -20.5042  -14.5137 C   0  0  2  0  0  0  0  0  0  0  0  0
   26.0729  -20.5162  -14.5871 N   0  0  0  0  0  0  0  0  0  0  0  0
   24.1234  -19.4246  -15.4008 C   0  0  0  0  0  0  0  0  0  0  0  0
   23.7906  -18.3406  -14.8740 O   0  0  0  0  0  0  0  0  0  0  0  0
   24.1933  -18.7399  -18.9908 C   0  0  0  0  0  0  0  0  0  0  0  0
   23.4946  -18.6315  -17.6608 C   0  0  2  0  0  0  0  0  0  0  0  0
   24.0109  -19.6464  -16.7773 N   0  0  0  0  0  0  0  0  0  0  0  0
   22.0221  -18.7070  -17.7786 C   0  0  0  0  0  0  0  0  0  0  0  0
   21.4352  -17.8126  -18.4471 O   0  0  0  0  0  0  0  0  0  0  0  0
   21.2221  -19.7093  -17.1965 N   0  0  0  0  0  0  0  0  0  0  0  0
   19.7937  -19.7156  -17.3552 C   0  0  1  0  0  0  0  0  0  0  0  0
   19.3378  -21.1532  -17.4449 C   0  0  0  0  0  0  0  0  0  0  0  0
   17.8948  -21.2957  -17.6789 C   0  0  0  0  0  0  0  0  0  0  0  0
   17.0695  -20.3762  -17.8510 O   0  0  0  0  0  0  0  0  0  0  0  0
   19.0806  -19.0961  -16.2190 C   0  0  0  0  0  0  0  0  0  0  0  0
   19.6281  -19.1914  -15.0903 O   0  0  0  0  0  0  0  0  0  0  0  0
   17.3914  -22.5987  -17.7127 O   0  0  0  0  0  0  0  0  0  0  0  0
   17.8845  -18.4368  -16.3119 O   0  0  0  0  0  0  0  0  0  0  0  0
  2  1  1  0
  2  3  2  0
  4  2  1  0
  5  4  1  0
  6  5  1  0
  6  7  1  1
  8  6  1  0
  8 12  1  0
  9  8  2  0
 11 10  1  6
 11 12  1  0
 11 13  1  0
 13 15  1  0
 13 14  2  0
 15 16  1  0
 16 17  1  1
 17 18  1  0
 18 19  2  0
 18 22  1  0
 20 16  1  0
 20 23  1  0
 21 20  2  0
M  END
$$$$
