QAD.pdb
     RDKit          3D

 23 22  0  0  1  0  0  0  0  0999 V2000
   20.5247  -11.3493  -19.9671 N   0  0  0  0  0  0  0  0  0  0  0  0
   19.1309  -11.5925  -20.2566 C   0  0  0  0  0  0  0  0  0  0  0  0
   18.7884  -12.2638  -21.2506 O   0  0  0  0  0  0  0  0  0  0  0  0
   18.1289  -11.0261  -19.3554 C   0  0  0  0  0  0  0  0  0  0  0  0
   18.7364  -10.2457  -18.2489 C   0  0  0  0  0  0  0  0  0  0  0  0
   19.0635  -11.0976  -17.0679 C   0  0  2  0  0  0  0  0  0  0  0  0
   17.9966  -11.8313  -16.4885 N   0  0  0  0  0  0  0  0  0  0  0  0
   19.6574  -10.1903  -16.0380 C   0  0  0  0  0  0  0  0  0  0  0  0
   18.8814   -9.4848  -15.3573 O   0  0  0  0  0  0  0  0  0  0  0  0
   23.0595   -9.7895  -14.6107 C   0  0  0  0  0  0  0  0  0  0  0  0
   21.6483   -9.3205  -14.8499 C   0  0  2  0  0  0  0  0  0  0  0  0
   21.0444  -10.1512  -15.8609 N   0  0  0  0  0  0  0  0  0  0  0  0
   21.5729   -7.8864  -15.2042 C   0  0  0  0  0  0  0  0  0  0  0  0
   21.7976   -7.5600  -16.4018 O   0  0  0  0  0  0  0  0  0  0  0  0
   21.2670   -6.8523  -14.2983 N   0  0  0  0  0  0  0  0  0  0  0  0
   21.2961   -5.4720  -14.6976 C   0  0  1  0  0  0  0  0  0  0  0  0
   19.9510   -4.8627  -14.3784 C   0  0  0  0  0  0  0  0  0  0  0  0
   18.8814   -5.2980  -15.2860 C   0  0  0  0  0  0  0  0  0  0  0  0
   18.8679   -5.1993  -16.5296 O   0  0  0  0  0  0  0  0  0  0  0  0
   22.3198   -4.6822  -13.9824 C   0  0  0  0  0  0  0  0  0  0  0  0
   22.8565   -5.2276  -12.9837 O   0  0  0  0  0  0  0  0  0  0  0  0
   17.7593   -5.8852  -14.6957 O   0  0  0  0  0  0  0  0  0  0  0  0
   22.7157   -3.4183  -14.3287 O   0  0  0  0  0  0  0  0  0  0  0  0
  2  1  1  0
  2  3  2  0
  4  2  1  0
  5  4  1  0
  6  5  1  0
  6  7  1  1
  8  6  1  0
  8 12  1  0
  9  8  2  0
 11 10  1  6
 11 12  1  0
 11 13  1  0
 13 15  1  0
 13 14  2  0
 15 16  1  0
 16 17  1  1
 17 18  1  0
 18 19  2  0
 18 22  1  0
 20 16  1  0
 20 23  1  0
 21 20  2  0
M  END
$$$$
