QAD.pdb
     RDKit          3D

 23 22  0  0  1  0  0  0  0  0999 V2000
   17.4506  -12.6736  -12.6265 N   0  0  0  0  0  0  0  0  0  0  0  0
   16.2027  -13.3440  -12.3453 C   0  0  0  0  0  0  0  0  0  0  0  0
   15.9839  -14.4979  -12.7654 O   0  0  0  0  0  0  0  0  0  0  0  0
   15.1979  -12.6316  -11.5578 C   0  0  0  0  0  0  0  0  0  0  0  0
   15.6740  -11.3040  -11.0965 C   0  0  0  0  0  0  0  0  0  0  0  0
   14.6354  -10.5695  -10.3159 C   0  0  2  0  0  0  0  0  0  0  0  0
   13.2811  -10.8055  -10.6657 N   0  0  0  0  0  0  0  0  0  0  0  0
   14.9391   -9.1128  -10.4654 C   0  0  0  0  0  0  0  0  0  0  0  0
   14.6219   -8.5525  -11.5372 O   0  0  0  0  0  0  0  0  0  0  0  0
   15.8148   -6.3498   -8.2363 C   0  0  0  0  0  0  0  0  0  0  0  0
   15.9570   -7.0423   -9.5665 C   0  0  2  0  0  0  0  0  0  0  0  0
   15.5604   -8.4202   -9.4211 N   0  0  0  0  0  0  0  0  0  0  0  0
   17.3180   -6.9220  -10.1330 C   0  0  0  0  0  0  0  0  0  0  0  0
   18.2002   -7.7286   -9.7300 O   0  0  0  0  0  0  0  0  0  0  0  0
   17.7042   -5.9682  -11.0946 N   0  0  0  0  0  0  0  0  0  0  0  0
   19.0187   -5.9781  -11.6755 C   0  0  1  0  0  0  0  0  0  0  0  0
   19.1595   -7.2383  -12.4968 C   0  0  0  0  0  0  0  0  0  0  0  0
   20.3929   -7.2829  -13.2930 C   0  0  0  0  0  0  0  0  0  0  0  0
   21.3024   -6.4292  -13.3136 O   0  0  0  0  0  0  0  0  0  0  0  0
   19.2637   -4.8335  -12.5771 C   0  0  0  0  0  0  0  0  0  0  0  0
   20.4663   -4.5429  -12.8051 O   0  0  0  0  0  0  0  0  0  0  0  0
   20.5680   -8.3992  -14.1149 O   0  0  0  0  0  0  0  0  0  0  0  0
   18.2856   -4.0816  -13.1704 O   0  0  0  0  0  0  0  0  0  0  0  0
  2  1  1  0
  2  3  2  0
  4  2  1  0
  5  4  1  0
  6  5  1  0
  6  7  1  6
  8  6  1  0
  8 12  1  0
  9  8  2  0
 11 10  1  1
 11 12  1  0
 11 13  1  0
 13 15  1  0
 13 14  2  0
 15 16  1  0
 16 17  1  6
 17 18  1  0
 18 19  2  0
 18 22  1  0
 20 16  1  0
 20 23  1  0
 21 20  2  0
M  END
$$$$
