QAD.pdb
     RDKit          3D

 23 22  0  0  1  0  0  0  0  0999 V2000
   17.1119  -15.8548  -14.6873 N   0  0  0  0  0  0  0  0  0  0  0  0
   17.2518  -15.2986  -16.0128 C   0  0  0  0  0  0  0  0  0  0  0  0
   18.1652  -15.6745  -16.7746 O   0  0  0  0  0  0  0  0  0  0  0  0
   16.2958  -14.2777  -16.4380 C   0  0  0  0  0  0  0  0  0  0  0  0
   16.9600  -13.0268  -16.8812 C   0  0  0  0  0  0  0  0  0  0  0  0
   17.2837  -12.1220  -15.7392 C   0  0  2  0  0  0  0  0  0  0  0  0
   16.2011  -11.7014  -14.9248 N   0  0  0  0  0  0  0  0  0  0  0  0
   17.9597  -10.9224  -16.3229 C   0  0  0  0  0  0  0  0  0  0  0  0
   18.9338  -11.1082  -17.0844 O   0  0  0  0  0  0  0  0  0  0  0  0
   16.9745   -7.6845  -17.2975 C   0  0  0  0  0  0  0  0  0  0  0  0
   18.0686   -8.4664  -16.6187 C   0  0  2  0  0  0  0  0  0  0  0  0
   17.4958   -9.6405  -16.0101 N   0  0  0  0  0  0  0  0  0  0  0  0
   18.8281   -7.6586  -15.6398 C   0  0  0  0  0  0  0  0  0  0  0  0
   18.4860   -7.7226  -14.4273 O   0  0  0  0  0  0  0  0  0  0  0  0
   19.9112   -6.8184  -15.9629 N   0  0  0  0  0  0  0  0  0  0  0  0
   20.6047   -6.0665  -14.9534 C   0  0  1  0  0  0  0  0  0  0  0  0
   21.8368   -5.4600  -15.5833 C   0  0  0  0  0  0  0  0  0  0  0  0
   22.6546   -4.6852  -14.6409 C   0  0  0  0  0  0  0  0  0  0  0  0
   22.8733   -4.9540  -13.4424 O   0  0  0  0  0  0  0  0  0  0  0  0
   19.8001   -4.9576  -14.4000 C   0  0  0  0  0  0  0  0  0  0  0  0
   20.1453   -4.5188  -13.2725 O   0  0  0  0  0  0  0  0  0  0  0  0
   23.2517   -3.5237  -15.1375 O   0  0  0  0  0  0  0  0  0  0  0  0
   18.7229   -4.3862  -15.0221 O   0  0  0  0  0  0  0  0  0  0  0  0
  2  1  1  0
  2  3  2  0
  4  2  1  0
  5  4  1  0
  6  5  1  0
  6  7  1  6
  8  6  1  0
  8 12  1  0
  9  8  2  0
 11 10  1  1
 11 12  1  0
 11 13  1  0
 13 15  1  0
 13 14  2  0
 15 16  1  0
 16 17  1  6
 17 18  1  0
 18 19  2  0
 18 22  1  0
 20 16  1  0
 20 23  1  0
 21 20  2  0
M  END
$$$$
