QAD.pdb
     RDKit          3D

 23 22  0  0  1  0  0  0  0  0999 V2000
   27.8316  -11.1141  -15.8863 N   0  0  0  0  0  0  0  0  0  0  0  0
   27.4174  -12.4839  -16.0809 C   0  0  0  0  0  0  0  0  0  0  0  0
   28.0943  -13.4303  -15.6315 O   0  0  0  0  0  0  0  0  0  0  0  0
   26.1836  -12.7335  -16.8243 C   0  0  0  0  0  0  0  0  0  0  0  0
   25.4452  -11.4845  -17.1357 C   0  0  0  0  0  0  0  0  0  0  0  0
   24.2465  -11.7329  -17.9894 C   0  0  2  0  0  0  0  0  0  0  0  0
   24.4759  -12.2852  -19.2757 N   0  0  0  0  0  0  0  0  0  0  0  0
   23.5440  -10.4203  -18.1319 C   0  0  0  0  0  0  0  0  0  0  0  0
   24.1666   -9.4740  -18.6613 O   0  0  0  0  0  0  0  0  0  0  0  0
   20.0828   -9.3989  -18.2888 C   0  0  0  0  0  0  0  0  0  0  0  0
   21.4913   -9.0592  -17.8767 C   0  0  2  0  0  0  0  0  0  0  0  0
   22.2282  -10.2817  -17.6781 N   0  0  0  0  0  0  0  0  0  0  0  0
   21.5452   -8.1883  -16.6824 C   0  0  0  0  0  0  0  0  0  0  0  0
   21.6324   -8.7399  -15.5512 O   0  0  0  0  0  0  0  0  0  0  0  0
   21.5060   -6.7809  -16.7146 N   0  0  0  0  0  0  0  0  0  0  0  0
   21.4722   -6.0033  -15.5064 C   0  0  1  0  0  0  0  0  0  0  0  0
   21.9731   -4.6147  -15.8277 C   0  0  0  0  0  0  0  0  0  0  0  0
   21.8822   -3.6835  -14.6955 C   0  0  0  0  0  0  0  0  0  0  0  0
   21.2463   -2.6109  -14.6570 O   0  0  0  0  0  0  0  0  0  0  0  0
   20.1131   -5.8635  -14.9437 C   0  0  0  0  0  0  0  0  0  0  0  0
   19.1575   -5.9066  -15.7610 O   0  0  0  0  0  0  0  0  0  0  0  0
   22.5816   -4.0346  -13.5379 O   0  0  0  0  0  0  0  0  0  0  0  0
   19.8301   -5.6933  -13.6153 O   0  0  0  0  0  0  0  0  0  0  0  0
  2  1  1  0
  2  3  2  0
  4  2  1  0
  5  4  1  0
  6  5  1  0
  6  7  1  6
  8  6  1  0
  8 12  1  0
  9  8  2  0
 11 10  1  1
 11 12  1  0
 11 13  1  0
 13 15  1  0
 13 14  2  0
 15 16  1  0
 16 17  1  6
 17 18  1  0
 18 19  2  0
 18 22  1  0
 20 16  1  0
 20 23  1  0
 21 20  2  0
M  END
$$$$
