QAD.pdb
     RDKit          3D

 23 22  0  0  1  0  0  0  0  0999 V2000
   20.1021  -10.1218  -20.3285 N   0  0  0  0  0  0  0  0  0  0  0  0
   18.8776  -10.8595  -20.5340 C   0  0  0  0  0  0  0  0  0  0  0  0
   18.5898  -11.3284  -21.6534 O   0  0  0  0  0  0  0  0  0  0  0  0
   17.9795  -11.0387  -19.3945 C   0  0  0  0  0  0  0  0  0  0  0  0
   18.4854  -10.3821  -18.1636 C   0  0  0  0  0  0  0  0  0  0  0  0
   19.1147  -11.3533  -17.2211 C   0  0  2  0  0  0  0  0  0  0  0  0
   18.2713  -12.3494  -16.6655 N   0  0  0  0  0  0  0  0  0  0  0  0
   19.7213  -10.5462  -16.1179 C   0  0  0  0  0  0  0  0  0  0  0  0
   18.9597  -10.0771  -15.2443 O   0  0  0  0  0  0  0  0  0  0  0  0
   23.1780   -9.8436  -14.9871 C   0  0  0  0  0  0  0  0  0  0  0  0
   21.7141   -9.5020  -15.0834 C   0  0  2  0  0  0  0  0  0  0  0  0
   21.1040  -10.3371  -16.0871 N   0  0  0  0  0  0  0  0  0  0  0  0
   21.4764   -8.0664  -15.3485 C   0  0  0  0  0  0  0  0  0  0  0  0
   21.4908   -7.6757  -16.5479 O   0  0  0  0  0  0  0  0  0  0  0  0
   21.2339   -7.0976  -14.3555 N   0  0  0  0  0  0  0  0  0  0  0  0
   21.1012   -5.7045  -14.6828 C   0  0  1  0  0  0  0  0  0  0  0  0
   19.6889   -5.2782  -14.3568 C   0  0  0  0  0  0  0  0  0  0  0  0
   19.4114   -3.8736  -14.6846 C   0  0  0  0  0  0  0  0  0  0  0  0
   20.1794   -3.0713  -15.2529 O   0  0  0  0  0  0  0  0  0  0  0  0
   22.0140   -4.8370  -13.9098 C   0  0  0  0  0  0  0  0  0  0  0  0
   22.3185   -5.2278  -12.7534 O   0  0  0  0  0  0  0  0  0  0  0  0
   18.1547   -3.3823  -14.3221 O   0  0  0  0  0  0  0  0  0  0  0  0
   22.5410   -3.6570  -14.3611 O   0  0  0  0  0  0  0  0  0  0  0  0
  2  1  1  0
  2  3  2  0
  4  2  1  0
  5  4  1  0
  6  5  1  0
  6  7  1  1
  8  6  1  0
  8 12  1  0
  9  8  2  0
 11 10  1  6
 11 12  1  0
 11 13  1  0
 13 15  1  0
 13 14  2  0
 15 16  1  0
 16 17  1  1
 17 18  1  0
 18 19  2  0
 18 22  1  0
 20 16  1  0
 20 23  1  0
 21 20  2  0
M  END
$$$$
