QAD.pdb
     RDKit          3D

 23 22  0  0  1  0  0  0  0  0999 V2000
   21.3600  -16.8973  -16.8884 N   0  0  0  0  0  0  0  0  0  0  0  0
   20.1199  -16.7462  -17.6131 C   0  0  0  0  0  0  0  0  0  0  0  0
   19.5788  -17.7215  -18.1717 O   0  0  0  0  0  0  0  0  0  0  0  0
   19.5163  -15.4165  -17.6796 C   0  0  0  0  0  0  0  0  0  0  0  0
   20.5294  -14.3370  -17.7826 C   0  0  0  0  0  0  0  0  0  0  0  0
   20.0474  -13.0502  -17.2002 C   0  0  2  0  0  0  0  0  0  0  0  0
   18.7033  -12.6854  -17.4698 N   0  0  0  0  0  0  0  0  0  0  0  0
   20.9622  -11.9819  -17.7086 C   0  0  0  0  0  0  0  0  0  0  0  0
   22.1891  -12.1122  -17.5061 O   0  0  0  0  0  0  0  0  0  0  0  0
   20.8098   -9.5486  -20.3490 C   0  0  0  0  0  0  0  0  0  0  0  0
   21.2914   -9.8698  -18.9584 C   0  0  2  0  0  0  0  0  0  0  0  0
   20.4350  -10.8790  -18.3882 N   0  0  0  0  0  0  0  0  0  0  0  0
   21.3796   -8.6744  -18.0917 C   0  0  0  0  0  0  0  0  0  0  0  0
   22.2041   -7.7736  -18.4080 O   0  0  0  0  0  0  0  0  0  0  0  0
   20.6069   -8.4662  -16.9328 N   0  0  0  0  0  0  0  0  0  0  0  0
   20.7973   -7.3093  -16.1018 C   0  0  1  0  0  0  0  0  0  0  0  0
   19.5113   -6.5165  -16.0990 C   0  0  0  0  0  0  0  0  0  0  0  0
   19.5634   -5.3201  -15.2486 C   0  0  0  0  0  0  0  0  0  0  0  0
   20.5421   -4.9093  -14.5929 O   0  0  0  0  0  0  0  0  0  0  0  0
   21.1106   -7.6479  -14.6980 C   0  0  0  0  0  0  0  0  0  0  0  0
   21.3729   -6.6857  -13.9312 O   0  0  0  0  0  0  0  0  0  0  0  0
   18.3938   -4.5604  -15.1637 O   0  0  0  0  0  0  0  0  0  0  0  0
   21.1338   -8.9172  -14.1859 O   0  0  0  0  0  0  0  0  0  0  0  0
  2  1  1  0
  2  3  2  0
  4  2  1  0
  5  4  1  0
  6  5  1  0
  6  7  1  6
  8  6  1  0
  8 12  1  0
  9  8  2  0
 11 10  1  6
 11 12  1  0
 11 13  1  0
 13 15  1  0
 13 14  2  0
 15 16  1  0
 16 17  1  1
 17 18  1  0
 18 19  2  0
 18 22  1  0
 20 16  1  0
 20 23  1  0
 21 20  2  0
M  END
$$$$
