EYK.pdb
     RDKit          3D

 31 31  0  0  1  0  0  0  0  0999 V2000
   28.1867  -23.7138  -18.2024 N   0  0  0  0  0  0  0  0  0  0  0  0
   28.0705  -22.3933  -17.6181 C   0  0  1  0  0  0  0  0  0  0  0  0
   27.5833  -21.3786  -18.6243 C   0  0  0  0  0  0  0  0  0  0  0  0
   28.5221  -21.2698  -19.8028 C   0  0  0  0  0  0  0  0  0  0  0  0
   29.4021  -20.0842  -19.6310 C   0  0  0  0  0  0  0  0  0  0  0  0
   30.0322  -19.6004  -20.6119 O   0  0  0  0  0  0  0  0  0  0  0  0
   27.1737  -22.3981  -16.4152 C   0  0  0  0  0  0  0  0  0  0  0  0
   26.1870  -23.1614  -16.3954 O   0  0  0  0  0  0  0  0  0  0  0  0
   29.5598  -19.4728  -18.3954 O   0  0  0  0  0  0  0  0  0  0  0  0
   24.1219  -20.0401   -8.4276 O   0  0  0  0  0  0  0  0  0  0  0  0
   24.9198  -20.3110   -9.5291 C   0  0  0  0  0  0  0  0  0  0  0  0
   25.4175  -21.5671   -9.8064 C   0  0  0  0  0  0  0  0  0  0  0  0
   26.2075  -21.8301  -10.8990 C   0  0  0  0  0  0  0  0  0  0  0  0
   26.5123  -20.7923  -11.7496 C   0  0  0  0  0  0  0  0  0  0  0  0
   27.3531  -20.9468  -12.9582 C   0  0  0  0  0  0  0  0  0  0  0  0
   26.6166  -21.4458  -14.1412 C   0  0  2  0  0  0  0  0  0  0  0  0
   27.4402  -21.5520  -15.3202 N   0  0  0  0  0  0  0  0  0  0  0  0
   25.3328  -20.7464  -14.4227 C   0  0  0  0  0  0  0  0  0  0  0  0
   25.2763  -19.6137  -14.9498 O   0  0  0  0  0  0  0  0  0  0  0  0
   26.0261  -19.5054  -11.5011 C   0  0  0  0  0  0  0  0  0  0  0  0
   25.2346  -19.2672  -10.3972 C   0  0  0  0  0  0  0  0  0  0  0  0
   24.0708  -21.3598  -14.0924 N   0  0  0  0  0  0  0  0  0  0  0  0
   22.8060  -20.6586  -14.2543 C   0  0  1  0  0  0  0  0  0  0  0  0
   22.0184  -21.3877  -15.3209 C   0  0  0  0  0  0  0  0  0  0  0  0
   20.6821  -20.7174  -15.5158 C   0  0  0  0  0  0  0  0  0  0  0  0
   19.8270  -21.4536  -16.5246 C   0  0  0  0  0  0  0  0  0  0  0  0
   18.5461  -20.7279  -16.8181 C   0  0  0  0  0  0  0  0  0  0  0  0
   17.6807  -21.4872  -17.6875 N   0  0  0  0  0  0  0  0  0  0  0  0
   22.0777  -20.4894  -12.9948 C   0  0  0  0  0  0  0  0  0  0  0  0
   21.5347  -19.3771  -12.7757 O   0  0  0  0  0  0  0  0  0  0  0  0
   21.9331  -21.4595  -12.0128 O   0  0  0  0  0  0  0  0  0  0  0  0
  2  1  1  6
  2  3  1  0
  3  4  1  0
  4  5  1  0
  5  6  2  0
  5  9  1  0
  7  2  1  0
  8  7  2  0
 10 11  1  0
 11 12  2  0
 11 21  1  0
 12 13  1  0
 13 14  2  0
 14 15  1  0
 16 15  1  1
 16 17  1  0
 17  7  1  0
 18 22  1  0
 18 16  1  0
 19 18  2  0
 20 14  1  0
 21 20  2  0
 23 29  1  0
 23 24  1  6
 23 22  1  0
 25 24  1  0
 26 25  1  0
 27 26  1  0
 27 28  1  0
 29 31  1  0
 30 29  2  0
M  END
$$$$
