EYK.pdb
     RDKit          3D

 31 31  0  0  1  0  0  0  0  0999 V2000
   17.9353  -28.3826  -14.0677 N   0  0  0  0  0  0  0  0  0  0  0  0
   18.8212  -27.2364  -14.0603 C   0  0  1  0  0  0  0  0  0  0  0  0
   19.6894  -27.1941  -15.2948 C   0  0  0  0  0  0  0  0  0  0  0  0
   20.6506  -28.3587  -15.3382 C   0  0  0  0  0  0  0  0  0  0  0  0
   21.7761  -28.1111  -14.3994 C   0  0  0  0  0  0  0  0  0  0  0  0
   22.6320  -27.2150  -14.6396 O   0  0  0  0  0  0  0  0  0  0  0  0
   18.0606  -25.9507  -13.9208 C   0  0  0  0  0  0  0  0  0  0  0  0
   17.0917  -25.7323  -14.6760 O   0  0  0  0  0  0  0  0  0  0  0  0
   21.9234  -28.8511  -13.2349 O   0  0  0  0  0  0  0  0  0  0  0  0
   19.0401  -25.2248   -6.6532 O   0  0  0  0  0  0  0  0  0  0  0  0
   18.5005  -24.9033   -7.8896 C   0  0  0  0  0  0  0  0  0  0  0  0
   18.2931  -25.8354   -8.8849 C   0  0  0  0  0  0  0  0  0  0  0  0
   17.7582  -25.5117  -10.1080 C   0  0  0  0  0  0  0  0  0  0  0  0
   17.4165  -24.2000  -10.3449 C   0  0  0  0  0  0  0  0  0  0  0  0
   16.8335  -23.7253  -11.6202 C   0  0  0  0  0  0  0  0  0  0  0  0
   17.7869  -23.7263  -12.7525 C   0  0  2  0  0  0  0  0  0  0  0  0
   18.4336  -25.0000  -12.9498 N   0  0  0  0  0  0  0  0  0  0  0  0
   18.7635  -22.6025  -12.7520 C   0  0  0  0  0  0  0  0  0  0  0  0
   19.9963  -22.7725  -12.6276 O   0  0  0  0  0  0  0  0  0  0  0  0
   17.6120  -23.2271   -9.3602 C   0  0  0  0  0  0  0  0  0  0  0  0
   18.1508  -23.5777   -8.1401 C   0  0  0  0  0  0  0  0  0  0  0  0
   18.3193  -21.2390  -12.8990 N   0  0  0  0  0  0  0  0  0  0  0  0
   19.2550  -20.1325  -13.0314 C   0  0  1  0  0  0  0  0  0  0  0  0
   20.1378  -20.4276  -14.2243 C   0  0  0  0  0  0  0  0  0  0  0  0
   21.2074  -19.3715  -14.3408 C   0  0  0  0  0  0  0  0  0  0  0  0
   22.0875  -19.5955  -15.5517 C   0  0  0  0  0  0  0  0  0  0  0  0
   23.2186  -18.6108  -15.6197 C   0  0  0  0  0  0  0  0  0  0  0  0
   24.1130  -18.8888  -16.7170 N   0  0  0  0  0  0  0  0  0  0  0  0
   18.5949  -18.8264  -13.0943 C   0  0  0  0  0  0  0  0  0  0  0  0
   17.4804  -18.7595  -13.6718 O   0  0  0  0  0  0  0  0  0  0  0  0
   19.0972  -17.6452  -12.5666 O   0  0  0  0  0  0  0  0  0  0  0  0
  2  1  1  6
  2  3  1  0
  3  4  1  0
  4  5  1  0
  5  6  2  0
  5  9  1  0
  7  2  1  0
  8  7  2  0
 10 11  1  0
 11 12  2  0
 11 21  1  0
 12 13  1  0
 13 14  2  0
 14 15  1  0
 16 15  1  1
 16 17  1  0
 17  7  1  0
 18 22  1  0
 18 16  1  0
 19 18  2  0
 20 14  1  0
 21 20  2  0
 23 29  1  0
 23 24  1  6
 23 22  1  0
 25 24  1  0
 26 25  1  0
 27 26  1  0
 27 28  1  0
 29 31  1  0
 30 29  2  0
M  END
$$$$
