EYK.pdb
     RDKit          3D

 31 31  0  0  1  0  0  0  0  0999 V2000
   28.1883  -21.8060  -16.7710 N   0  0  0  0  0  0  0  0  0  0  0  0
   27.8853  -20.6251  -15.9885 C   0  0  1  0  0  0  0  0  0  0  0  0
   27.4319  -19.4789  -16.8606 C   0  0  0  0  0  0  0  0  0  0  0  0
   26.2489  -19.8663  -17.7164 C   0  0  0  0  0  0  0  0  0  0  0  0
   26.4613  -19.3857  -19.1069 C   0  0  0  0  0  0  0  0  0  0  0  0
   26.4185  -20.1876  -20.0808 O   0  0  0  0  0  0  0  0  0  0  0  0
   26.8560  -20.9094  -14.9346 C   0  0  0  0  0  0  0  0  0  0  0  0
   26.0660  -21.8613  -15.0972 O   0  0  0  0  0  0  0  0  0  0  0  0
   26.7119  -18.0486  -19.3803 O   0  0  0  0  0  0  0  0  0  0  0  0
   31.3494  -22.1602   -9.9702 O   0  0  0  0  0  0  0  0  0  0  0  0
   30.1486  -21.5825  -10.3544 C   0  0  0  0  0  0  0  0  0  0  0  0
   30.0330  -20.7393  -11.4397 C   0  0  0  0  0  0  0  0  0  0  0  0
   28.8409  -20.1696  -11.8160 C   0  0  0  0  0  0  0  0  0  0  0  0
   27.7175  -20.4560  -11.0748 C   0  0  0  0  0  0  0  0  0  0  0  0
   26.3771  -19.9051  -11.3772 C   0  0  0  0  0  0  0  0  0  0  0  0
   25.8443  -20.3143  -12.6962 C   0  0  2  0  0  0  0  0  0  0  0  0
   26.7802  -20.1128  -13.7746 N   0  0  0  0  0  0  0  0  0  0  0  0
   24.4960  -19.7742  -13.0238 C   0  0  0  0  0  0  0  0  0  0  0  0
   24.2901  -18.9900  -13.9760 O   0  0  0  0  0  0  0  0  0  0  0  0
   27.7956  -21.3063   -9.9679 C   0  0  0  0  0  0  0  0  0  0  0  0
   29.0045  -21.8659   -9.6107 C   0  0  0  0  0  0  0  0  0  0  0  0
   23.3438  -20.1414  -12.2393 N   0  0  0  0  0  0  0  0  0  0  0  0
   22.1106  -20.6115  -12.8525 C   0  0  1  0  0  0  0  0  0  0  0  0
   22.4763  -21.7316  -13.8017 C   0  0  0  0  0  0  0  0  0  0  0  0
   22.4652  -21.2218  -15.2204 C   0  0  0  0  0  0  0  0  0  0  0  0
   21.4945  -21.9949  -16.0869 C   0  0  0  0  0  0  0  0  0  0  0  0
   21.4616  -21.4818  -17.4973 C   0  0  0  0  0  0  0  0  0  0  0  0
   20.6136  -22.2837  -18.3454 N   0  0  0  0  0  0  0  0  0  0  0  0
   21.0858  -20.9791  -11.8726 C   0  0  0  0  0  0  0  0  0  0  0  0
   19.9026  -21.1018  -12.2789 O   0  0  0  0  0  0  0  0  0  0  0  0
   21.3093  -21.2063  -10.5219 O   0  0  0  0  0  0  0  0  0  0  0  0
  2  1  1  6
  2  3  1  0
  3  4  1  0
  4  5  1  0
  5  6  2  0
  5  9  1  0
  7  2  1  0
  8  7  2  0
 10 11  1  0
 11 12  2  0
 11 21  1  0
 12 13  1  0
 13 14  2  0
 14 15  1  0
 16 15  1  1
 16 17  1  0
 17  7  1  0
 18 22  1  0
 18 16  1  0
 19 18  2  0
 20 14  1  0
 21 20  2  0
 23 29  1  0
 23 24  1  1
 23 22  1  0
 25 24  1  0
 26 25  1  0
 27 26  1  0
 27 28  1  0
 29 31  1  0
 30 29  2  0
M  END
$$$$
