EYK.pdb
     RDKit          3D

 31 31  0  0  1  0  0  0  0  0999 V2000
   18.6846  -26.9725   -1.6817 N   0  0  0  0  0  0  0  0  0  0  0  0
   18.1244  -27.4929   -2.9121 C   0  0  1  0  0  0  0  0  0  0  0  0
   16.7753  -28.1317   -2.6848 C   0  0  0  0  0  0  0  0  0  0  0  0
   16.9056  -29.4868   -2.0302 C   0  0  0  0  0  0  0  0  0  0  0  0
   17.6354  -29.3501   -0.7425 C   0  0  0  0  0  0  0  0  0  0  0  0
   17.0077  -29.2538    0.3483 O   0  0  0  0  0  0  0  0  0  0  0  0
   18.0201  -26.4293   -3.9653 C   0  0  0  0  0  0  0  0  0  0  0  0
   17.8524  -25.2430   -3.6170 O   0  0  0  0  0  0  0  0  0  0  0  0
   19.0220  -29.3239   -0.6957 O   0  0  0  0  0  0  0  0  0  0  0  0
   18.6121  -22.4325  -11.7936 O   0  0  0  0  0  0  0  0  0  0  0  0
   18.7585  -23.2557  -10.6872 C   0  0  0  0  0  0  0  0  0  0  0  0
   19.4167  -22.8639   -9.5401 C   0  0  0  0  0  0  0  0  0  0  0  0
   19.5589  -23.6834   -8.4469 C   0  0  0  0  0  0  0  0  0  0  0  0
   19.0199  -24.9481   -8.5041 C   0  0  0  0  0  0  0  0  0  0  0  0
   19.1066  -25.9240   -7.3943 C   0  0  0  0  0  0  0  0  0  0  0  0
   17.9979  -25.8229   -6.4188 C   0  0  2  0  0  0  0  0  0  0  0  0
   18.1101  -26.7633   -5.3314 N   0  0  0  0  0  0  0  0  0  0  0  0
   16.6340  -25.8255   -7.0159 C   0  0  0  0  0  0  0  0  0  0  0  0
   15.9774  -26.8724   -7.2081 O   0  0  0  0  0  0  0  0  0  0  0  0
   18.3458  -25.3807   -9.6499 C   0  0  0  0  0  0  0  0  0  0  0  0
   18.2163  -24.5388  -10.7345 C   0  0  0  0  0  0  0  0  0  0  0  0
   15.9973  -24.5925   -7.4063 N   0  0  0  0  0  0  0  0  0  0  0  0
   14.6827  -24.5665   -8.0299 C   0  0  1  0  0  0  0  0  0  0  0  0
   14.0667  -23.2175   -7.7295 C   0  0  0  0  0  0  0  0  0  0  0  0
   12.6945  -23.1345   -8.3483 C   0  0  0  0  0  0  0  0  0  0  0  0
   12.0159  -21.8186   -8.0338 C   0  0  0  0  0  0  0  0  0  0  0  0
   10.5992  -21.7794   -8.5287 C   0  0  0  0  0  0  0  0  0  0  0  0
    9.9387  -20.5444   -8.1822 N   0  0  0  0  0  0  0  0  0  0  0  0
   14.7174  -24.8950   -9.4569 C   0  0  0  0  0  0  0  0  0  0  0  0
   15.7076  -24.5042  -10.1251 O   0  0  0  0  0  0  0  0  0  0  0  0
   13.7430  -25.6073  -10.1420 O   0  0  0  0  0  0  0  0  0  0  0  0
  2  1  1  1
  2  3  1  0
  3  4  1  0
  4  5  1  0
  5  6  2  0
  5  9  1  0
  7  2  1  0
  8  7  2  0
 10 11  1  0
 11 12  2  0
 11 21  1  0
 12 13  1  0
 13 14  2  0
 14 15  1  0
 16 15  1  6
 16 17  1  0
 17  7  1  0
 18 22  1  0
 18 16  1  0
 19 18  2  0
 20 14  1  0
 21 20  2  0
 23 29  1  0
 23 24  1  6
 23 22  1  0
 25 24  1  0
 26 25  1  0
 27 26  1  0
 27 28  1  0
 29 31  1  0
 30 29  2  0
M  END
$$$$
