EYK.pdb
     RDKit          3D

 31 31  0  0  1  0  0  0  0  0999 V2000
   22.8776  -20.9607   -9.1247 N   0  0  0  0  0  0  0  0  0  0  0  0
   22.4043  -21.0214  -10.4925 C   0  0  1  0  0  0  0  0  0  0  0  0
   21.0020  -20.4769  -10.6225 C   0  0  0  0  0  0  0  0  0  0  0  0
   20.4888  -20.5960  -12.0383 C   0  0  0  0  0  0  0  0  0  0  0  0
   19.8366  -21.9190  -12.2222 C   0  0  0  0  0  0  0  0  0  0  0  0
   19.0791  -22.3948  -11.3317 O   0  0  0  0  0  0  0  0  0  0  0  0
   23.3267  -20.2986  -11.4293 C   0  0  0  0  0  0  0  0  0  0  0  0
   23.6857  -19.1360  -11.1528 O   0  0  0  0  0  0  0  0  0  0  0  0
   20.0365  -22.6709  -13.3711 O   0  0  0  0  0  0  0  0  0  0  0  0
   30.1897  -20.8671  -10.2757 O   0  0  0  0  0  0  0  0  0  0  0  0
   29.1005  -20.9877  -11.1257 C   0  0  0  0  0  0  0  0  0  0  0  0
   28.0018  -21.7688  -10.8339 C   0  0  0  0  0  0  0  0  0  0  0  0
   26.9254  -21.8848  -11.6795 C   0  0  0  0  0  0  0  0  0  0  0  0
   26.9498  -21.1899  -12.8669 C   0  0  0  0  0  0  0  0  0  0  0  0
   25.8537  -21.2327  -13.8610 C   0  0  0  0  0  0  0  0  0  0  0  0
   24.7173  -20.3403  -13.5394 C   0  0  2  0  0  0  0  0  0  0  0  0
   23.7836  -20.9225  -12.6074 N   0  0  0  0  0  0  0  0  0  0  0  0
   24.0279  -19.7511  -14.7202 C   0  0  0  0  0  0  0  0  0  0  0  0
   23.1818  -20.3765  -15.3962 O   0  0  0  0  0  0  0  0  0  0  0  0
   28.0463  -20.3880  -13.1972 C   0  0  0  0  0  0  0  0  0  0  0  0
   29.1148  -20.2881  -12.3310 C   0  0  0  0  0  0  0  0  0  0  0  0
   24.3128  -18.4030  -15.1439 N   0  0  0  0  0  0  0  0  0  0  0  0
   23.6316  -17.7888  -16.2736 C   0  0  1  0  0  0  0  0  0  0  0  0
   24.0131  -16.3247  -16.2898 C   0  0  0  0  0  0  0  0  0  0  0  0
   23.3108  -15.6273  -17.4270 C   0  0  0  0  0  0  0  0  0  0  0  0
   23.5887  -14.1395  -17.4300 C   0  0  0  0  0  0  0  0  0  0  0  0
   22.8251  -13.4228  -18.5055 C   0  0  0  0  0  0  0  0  0  0  0  0
   21.4185  -13.3276  -18.1990 N   0  0  0  0  0  0  0  0  0  0  0  0
   23.8841  -18.4787  -17.5408 C   0  0  0  0  0  0  0  0  0  0  0  0
   25.0182  -18.9925  -17.7133 O   0  0  0  0  0  0  0  0  0  0  0  0
   22.9715  -18.6162  -18.5774 O   0  0  0  0  0  0  0  0  0  0  0  0
  2  1  1  1
  2  3  1  0
  3  4  1  0
  4  5  1  0
  5  6  2  0
  5  9  1  0
  7  2  1  0
  8  7  2  0
 10 11  1  0
 11 12  2  0
 11 21  1  0
 12 13  1  0
 13 14  2  0
 14 15  1  0
 16 15  1  6
 16 17  1  0
 17  7  1  0
 18 22  1  0
 18 16  1  0
 19 18  2  0
 20 14  1  0
 21 20  2  0
 23 29  1  0
 23 24  1  6
 23 22  1  0
 25 24  1  0
 26 25  1  0
 27 26  1  0
 27 28  1  0
 29 31  1  0
 30 29  2  0
M  END
$$$$
