EYK.pdb
     RDKit          3D

 31 31  0  0  1  0  0  0  0  0999 V2000
   24.6966   -9.9367  -17.9466 N   0  0  0  0  0  0  0  0  0  0  0  0
   25.4712  -10.3948  -19.0819 C   0  0  1  0  0  0  0  0  0  0  0  0
   26.2502   -9.2681  -19.7171 C   0  0  0  0  0  0  0  0  0  0  0  0
   25.3342   -8.2462  -20.3484 C   0  0  0  0  0  0  0  0  0  0  0  0
   25.1279   -8.5803  -21.7821 C   0  0  0  0  0  0  0  0  0  0  0  0
   24.1567   -9.3009  -22.1439 O   0  0  0  0  0  0  0  0  0  0  0  0
   26.3975  -11.5129  -18.7041 C   0  0  0  0  0  0  0  0  0  0  0  0
   27.1406  -12.0079  -19.5757 O   0  0  0  0  0  0  0  0  0  0  0  0
   25.9896   -8.1147  -22.7650 O   0  0  0  0  0  0  0  0  0  0  0  0
   32.6340   -9.6431  -17.7637 O   0  0  0  0  0  0  0  0  0  0  0  0
   31.5267  -10.3255  -17.2826 C   0  0  0  0  0  0  0  0  0  0  0  0
   30.3932   -9.6892  -16.8213 C   0  0  0  0  0  0  0  0  0  0  0  0
   29.2990  -10.3700  -16.3457 C   0  0  0  0  0  0  0  0  0  0  0  0
   29.3410  -11.7453  -16.3312 C   0  0  0  0  0  0  0  0  0  0  0  0
   28.2286  -12.5914  -15.8432 C   0  0  0  0  0  0  0  0  0  0  0  0
   27.3064  -13.0430  -16.9094 C   0  0  2  0  0  0  0  0  0  0  0  0
   26.4300  -12.0000  -17.3821 N   0  0  0  0  0  0  0  0  0  0  0  0
   26.5633  -14.2973  -16.6073 C   0  0  0  0  0  0  0  0  0  0  0  0
   25.9457  -14.4810  -15.5354 O   0  0  0  0  0  0  0  0  0  0  0  0
   30.4728  -12.4253  -16.7907 C   0  0  0  0  0  0  0  0  0  0  0  0
   31.5586  -11.7187  -17.2635 C   0  0  0  0  0  0  0  0  0  0  0  0
   26.5229  -15.3784  -17.5601 N   0  0  0  0  0  0  0  0  0  0  0  0
   25.7890  -16.6081  -17.3013 C   0  0  1  0  0  0  0  0  0  0  0  0
   25.3433  -17.1581  -18.6386 C   0  0  0  0  0  0  0  0  0  0  0  0
   24.4986  -18.3890  -18.4277 C   0  0  0  0  0  0  0  0  0  0  0  0
   24.1673  -19.0731  -19.7366 C   0  0  0  0  0  0  0  0  0  0  0  0
   23.2196  -20.2224  -19.5509 C   0  0  0  0  0  0  0  0  0  0  0  0
   22.9478  -20.9058  -20.7921 N   0  0  0  0  0  0  0  0  0  0  0  0
   26.5427  -17.5669  -16.4902 C   0  0  0  0  0  0  0  0  0  0  0  0
   27.7493  -17.7625  -16.7829 O   0  0  0  0  0  0  0  0  0  0  0  0
   26.0359  -18.2851  -15.4160 O   0  0  0  0  0  0  0  0  0  0  0  0
  2  1  1  1
  2  3  1  0
  3  4  1  0
  4  5  1  0
  5  6  2  0
  5  9  1  0
  7  2  1  0
  8  7  2  0
 10 11  1  0
 11 12  2  0
 11 21  1  0
 12 13  1  0
 13 14  2  0
 14 15  1  0
 16 15  1  1
 16 17  1  0
 17  7  1  0
 18 22  1  0
 18 16  1  0
 19 18  2  0
 20 14  1  0
 21 20  2  0
 23 29  1  0
 23 24  1  6
 23 22  1  0
 25 24  1  0
 26 25  1  0
 27 26  1  0
 27 28  1  0
 29 31  1  0
 30 29  2  0
M  END
$$$$
