EYK.pdb
     RDKit          3D

 31 31  0  0  1  0  0  0  0  0999 V2000
   27.5336  -20.9471  -18.6352 N   0  0  0  0  0  0  0  0  0  0  0  0
   27.1344  -19.9643  -17.6485 C   0  0  1  0  0  0  0  0  0  0  0  0
   26.2164  -18.9213  -18.2394 C   0  0  0  0  0  0  0  0  0  0  0  0
   26.9493  -18.0180  -19.2031 C   0  0  0  0  0  0  0  0  0  0  0  0
   26.7834  -18.5288  -20.5891 C   0  0  0  0  0  0  0  0  0  0  0  0
   25.7061  -18.3446  -21.2206 O   0  0  0  0  0  0  0  0  0  0  0  0
   26.4853  -20.6077  -16.4587 C   0  0  0  0  0  0  0  0  0  0  0  0
   25.5137  -21.3705  -16.6343 O   0  0  0  0  0  0  0  0  0  0  0  0
   27.7999  -19.2208  -21.2320 O   0  0  0  0  0  0  0  0  0  0  0  0
   24.2502  -20.9864   -7.8773 O   0  0  0  0  0  0  0  0  0  0  0  0
   24.9475  -20.9072   -9.0734 C   0  0  0  0  0  0  0  0  0  0  0  0
   25.3255  -22.0180   -9.7983 C   0  0  0  0  0  0  0  0  0  0  0  0
   26.0163  -21.9340  -10.9828 C   0  0  0  0  0  0  0  0  0  0  0  0
   26.3423  -20.6859  -11.4616 C   0  0  0  0  0  0  0  0  0  0  0  0
   27.0841  -20.4632  -12.7232 C   0  0  0  0  0  0  0  0  0  0  0  0
   26.2903  -20.7377  -13.9421 C   0  0  2  0  0  0  0  0  0  0  0  0
   26.9650  -20.3554  -15.1578 N   0  0  0  0  0  0  0  0  0  0  0  0
   24.8886  -20.2370  -13.9046 C   0  0  0  0  0  0  0  0  0  0  0  0
   24.5947  -19.0275  -14.0266 O   0  0  0  0  0  0  0  0  0  0  0  0
   25.9761  -19.5369  -10.7545 C   0  0  0  0  0  0  0  0  0  0  0  0
   25.2828  -19.6479   -9.5675 C   0  0  0  0  0  0  0  0  0  0  0  0
   23.7851  -21.1464  -13.7223 N   0  0  0  0  0  0  0  0  0  0  0  0
   22.4173  -20.6773  -13.5591 C   0  0  1  0  0  0  0  0  0  0  0  0
   21.6062  -21.2417  -14.7049 C   0  0  0  0  0  0  0  0  0  0  0  0
   20.2000  -20.7009  -14.6493 C   0  0  0  0  0  0  0  0  0  0  0  0
   19.3540  -21.2190  -15.7924 C   0  0  0  0  0  0  0  0  0  0  0  0
   17.9789  -20.6169  -15.7975 C   0  0  0  0  0  0  0  0  0  0  0  0
   17.1988  -21.0584  -16.9279 N   0  0  0  0  0  0  0  0  0  0  0  0
   21.8609  -20.9776  -12.2378 C   0  0  0  0  0  0  0  0  0  0  0  0
   22.1341  -22.0926  -11.7257 O   0  0  0  0  0  0  0  0  0  0  0  0
   21.0509  -20.1303  -11.4947 O   0  0  0  0  0  0  0  0  0  0  0  0
  2  1  1  6
  2  3  1  0
  3  4  1  0
  4  5  1  0
  5  6  2  0
  5  9  1  0
  7  2  1  0
  8  7  2  0
 10 11  1  0
 11 12  2  0
 11 21  1  0
 12 13  1  0
 13 14  2  0
 14 15  1  0
 16 15  1  1
 16 17  1  0
 17  7  1  0
 18 22  1  0
 18 16  1  0
 19 18  2  0
 20 14  1  0
 21 20  2  0
 23 29  1  0
 23 24  1  6
 23 22  1  0
 25 24  1  0
 26 25  1  0
 27 26  1  0
 27 28  1  0
 29 31  1  0
 30 29  2  0
M  END
$$$$
