EYK.pdb
     RDKit          3D

 31 31  0  0  1  0  0  0  0  0999 V2000
   21.4120  -11.9144  -18.0260 N   0  0  0  0  0  0  0  0  0  0  0  0
   22.0458  -10.6529  -17.7013 C   0  0  1  0  0  0  0  0  0  0  0  0
   22.1581   -9.7569  -18.9113 C   0  0  0  0  0  0  0  0  0  0  0  0
   21.1041  -10.0825  -19.9433 C   0  0  0  0  0  0  0  0  0  0  0  0
   21.2185   -9.1399  -21.0869 C   0  0  0  0  0  0  0  0  0  0  0  0
   22.2484   -9.1321  -21.8167 O   0  0  0  0  0  0  0  0  0  0  0  0
   21.3232   -9.9394  -16.5968 C   0  0  0  0  0  0  0  0  0  0  0  0
   20.1313  -10.2262  -16.3652 O   0  0  0  0  0  0  0  0  0  0  0  0
   20.2043   -8.2426  -21.3895 O   0  0  0  0  0  0  0  0  0  0  0  0
   19.3473   -5.3146   -9.4627 O   0  0  0  0  0  0  0  0  0  0  0  0
   19.9835   -6.0513  -10.4505 C   0  0  0  0  0  0  0  0  0  0  0  0
   19.7227   -7.3864  -10.6784 C   0  0  0  0  0  0  0  0  0  0  0  0
   20.3558   -8.1117  -11.6583 C   0  0  0  0  0  0  0  0  0  0  0  0
   21.2891   -7.4740  -12.4429 C   0  0  0  0  0  0  0  0  0  0  0  0
   22.0386   -8.1448  -13.5291 C   0  0  0  0  0  0  0  0  0  0  0  0
   21.3451   -8.1256  -14.8367 C   0  0  2  0  0  0  0  0  0  0  0  0
   21.9802   -8.9570  -15.8291 N   0  0  0  0  0  0  0  0  0  0  0  0
   21.0381   -6.7678  -15.3649 C   0  0  0  0  0  0  0  0  0  0  0  0
   21.9128   -6.0052  -15.8309 O   0  0  0  0  0  0  0  0  0  0  0  0
   21.5801   -6.1215  -12.2415 C   0  0  0  0  0  0  0  0  0  0  0  0
   20.9306   -5.4152  -11.2510 C   0  0  0  0  0  0  0  0  0  0  0  0
   19.6878   -6.2631  -15.3618 N   0  0  0  0  0  0  0  0  0  0  0  0
   19.3546   -4.9470  -15.8858 C   0  0  1  0  0  0  0  0  0  0  0  0
   17.9004   -4.9815  -16.3026 C   0  0  0  0  0  0  0  0  0  0  0  0
   17.5225   -3.6702  -16.9434 C   0  0  0  0  0  0  0  0  0  0  0  0
   16.0708   -3.6528  -17.3716 C   0  0  0  0  0  0  0  0  0  0  0  0
   15.7109   -2.3917  -18.1020 C   0  0  0  0  0  0  0  0  0  0  0  0
   14.3041   -2.3307  -18.4158 N   0  0  0  0  0  0  0  0  0  0  0  0
   19.6770   -3.8608  -14.9576 C   0  0  0  0  0  0  0  0  0  0  0  0
   19.2110   -3.9271  -13.7921 O   0  0  0  0  0  0  0  0  0  0  0  0
   20.4599   -2.7542  -15.2555 O   0  0  0  0  0  0  0  0  0  0  0  0
  2  1  1  6
  2  3  1  0
  3  4  1  0
  4  5  1  0
  5  6  2  0
  5  9  1  0
  7  2  1  0
  8  7  2  0
 10 11  1  0
 11 12  2  0
 11 21  1  0
 12 13  1  0
 13 14  2  0
 14 15  1  0
 16 15  1  1
 16 17  1  0
 17  7  1  0
 18 22  1  0
 18 16  1  0
 19 18  2  0
 20 14  1  0
 21 20  2  0
 23 29  1  0
 23 24  1  1
 23 22  1  0
 25 24  1  0
 26 25  1  0
 27 26  1  0
 27 28  1  0
 29 31  1  0
 30 29  2  0
M  END
$$$$
