EYK.pdb
     RDKit          3D

 31 31  0  0  1  0  0  0  0  0999 V2000
   17.7305  -11.3067  -15.0977 N   0  0  0  0  0  0  0  0  0  0  0  0
   17.0446  -10.0353  -14.9895 C   0  0  1  0  0  0  0  0  0  0  0  0
   15.5450  -10.2042  -15.0400 C   0  0  0  0  0  0  0  0  0  0  0  0
   15.0876  -10.7058  -16.3895 C   0  0  0  0  0  0  0  0  0  0  0  0
   13.6020  -10.7189  -16.4389 C   0  0  0  0  0  0  0  0  0  0  0  0
   12.9723  -11.7932  -16.6454 O   0  0  0  0  0  0  0  0  0  0  0  0
   17.4386   -9.2989  -13.7431 C   0  0  0  0  0  0  0  0  0  0  0  0
   17.6099   -9.9399  -12.6865 O   0  0  0  0  0  0  0  0  0  0  0  0
   12.8617   -9.5589  -16.2608 O   0  0  0  0  0  0  0  0  0  0  0  0
   23.4774  -10.0785  -13.9580 O   0  0  0  0  0  0  0  0  0  0  0  0
   22.4492   -9.1794  -13.7176 C   0  0  0  0  0  0  0  0  0  0  0  0
   21.7857   -8.5092  -14.7240 C   0  0  0  0  0  0  0  0  0  0  0  0
   20.7677   -7.6196  -14.4804 C   0  0  0  0  0  0  0  0  0  0  0  0
   20.3984   -7.3912  -13.1747 C   0  0  0  0  0  0  0  0  0  0  0  0
   19.3190   -6.4571  -12.7826 C   0  0  0  0  0  0  0  0  0  0  0  0
   17.9960   -7.1019  -12.6247 C   0  0  2  0  0  0  0  0  0  0  0  0
   17.6137   -7.9007  -13.7628 N   0  0  0  0  0  0  0  0  0  0  0  0
   16.9005   -6.1904  -12.1938 C   0  0  0  0  0  0  0  0  0  0  0  0
   16.1834   -5.5593  -13.0009 O   0  0  0  0  0  0  0  0  0  0  0  0
   21.0480   -8.0520  -12.1278 C   0  0  0  0  0  0  0  0  0  0  0  0
   22.0672   -8.9407  -12.3987 C   0  0  0  0  0  0  0  0  0  0  0  0
   16.6129   -5.9924  -10.7952 N   0  0  0  0  0  0  0  0  0  0  0  0
   15.6338   -5.0173  -10.3391 C   0  0  1  0  0  0  0  0  0  0  0  0
   15.2680   -5.3761   -8.9154 C   0  0  0  0  0  0  0  0  0  0  0  0
   14.2671   -4.3836   -8.3805 C   0  0  0  0  0  0  0  0  0  0  0  0
   13.8361   -4.7259   -6.9705 C   0  0  0  0  0  0  0  0  0  0  0  0
   12.8052   -3.7693   -6.4455 C   0  0  0  0  0  0  0  0  0  0  0  0
   12.4803   -4.0283   -5.0639 N   0  0  0  0  0  0  0  0  0  0  0  0
   16.0832   -3.6327  -10.5020 C   0  0  0  0  0  0  0  0  0  0  0  0
   17.2989   -3.3831  -10.3027 O   0  0  0  0  0  0  0  0  0  0  0  0
   15.2762   -2.5622  -10.8611 O   0  0  0  0  0  0  0  0  0  0  0  0
  2  1  1  1
  2  3  1  0
  3  4  1  0
  4  5  1  0
  5  6  2  0
  5  9  1  0
  7  2  1  0
  8  7  2  0
 10 11  1  0
 11 12  2  0
 11 21  1  0
 12 13  1  0
 13 14  2  0
 14 15  1  0
 16 15  1  6
 16 17  1  0
 17  7  1  0
 18 22  1  0
 18 16  1  0
 19 18  2  0
 20 14  1  0
 21 20  2  0
 23 29  1  0
 23 24  1  1
 23 22  1  0
 25 24  1  0
 26 25  1  0
 27 26  1  0
 27 28  1  0
 29 31  1  0
 30 29  2  0
M  END
$$$$
