EYK.pdb
     RDKit          3D

 31 31  0  0  1  0  0  0  0  0999 V2000
   24.6221  -17.5458  -17.3108 N   0  0  0  0  0  0  0  0  0  0  0  0
   24.9660  -16.1596  -17.0684 C   0  0  1  0  0  0  0  0  0  0  0  0
   26.1330  -16.0318  -16.1188 C   0  0  0  0  0  0  0  0  0  0  0  0
   25.8442  -16.6930  -14.7917 C   0  0  0  0  0  0  0  0  0  0  0  0
   26.7389  -17.8668  -14.6147 C   0  0  0  0  0  0  0  0  0  0  0  0
   27.5795  -18.1778  -15.5035 O   0  0  0  0  0  0  0  0  0  0  0  0
   25.2596  -15.4311  -18.3468 C   0  0  0  0  0  0  0  0  0  0  0  0
   25.9077  -16.0105  -19.2418 O   0  0  0  0  0  0  0  0  0  0  0  0
   26.6814  -18.6552  -13.4743 O   0  0  0  0  0  0  0  0  0  0  0  0
   24.3855   -9.7801  -24.9998 O   0  0  0  0  0  0  0  0  0  0  0  0
   24.2863  -10.3945  -23.7605 C   0  0  0  0  0  0  0  0  0  0  0  0
   24.7872   -9.8370  -22.6026 C   0  0  0  0  0  0  0  0  0  0  0  0
   24.6863  -10.4500  -21.3773 C   0  0  0  0  0  0  0  0  0  0  0  0
   24.0577  -11.6721  -21.3082 C   0  0  0  0  0  0  0  0  0  0  0  0
   23.8864  -12.4324  -20.0496 C   0  0  0  0  0  0  0  0  0  0  0  0
   25.0187  -13.3319  -19.7336 C   0  0  2  0  0  0  0  0  0  0  0  0
   24.8102  -14.1091  -18.5369 N   0  0  0  0  0  0  0  0  0  0  0  0
   26.3587  -12.6832  -19.7472 C   0  0  0  0  0  0  0  0  0  0  0  0
   26.8030  -12.0189  -18.7852 O   0  0  0  0  0  0  0  0  0  0  0  0
   23.5375  -12.2684  -22.4606 C   0  0  0  0  0  0  0  0  0  0  0  0
   23.6515  -11.6325  -23.6791 C   0  0  0  0  0  0  0  0  0  0  0  0
   27.2214  -12.7965  -20.8965 N   0  0  0  0  0  0  0  0  0  0  0  0
   28.5234  -12.1488  -20.9511 C   0  0  1  0  0  0  0  0  0  0  0  0
   29.5678  -13.2402  -21.0372 C   0  0  0  0  0  0  0  0  0  0  0  0
   30.9422  -12.6257  -21.1155 C   0  0  0  0  0  0  0  0  0  0  0  0
   32.0239  -13.6804  -21.2081 C   0  0  0  0  0  0  0  0  0  0  0  0
   33.3914  -13.0781  -21.3518 C   0  0  0  0  0  0  0  0  0  0  0  0
   34.3916  -14.0724  -21.6561 N   0  0  0  0  0  0  0  0  0  0  0  0
   28.6239  -11.1501  -22.0179 C   0  0  0  0  0  0  0  0  0  0  0  0
   29.6400  -10.4105  -22.0356 O   0  0  0  0  0  0  0  0  0  0  0  0
   27.6861  -10.9476  -23.0208 O   0  0  0  0  0  0  0  0  0  0  0  0
  2  1  1  6
  2  3  1  0
  3  4  1  0
  4  5  1  0
  5  6  2  0
  5  9  1  0
  7  2  1  0
  8  7  2  0
 10 11  1  0
 11 12  2  0
 11 21  1  0
 12 13  1  0
 13 14  2  0
 14 15  1  0
 16 15  1  1
 16 17  1  0
 17  7  1  0
 18 22  1  0
 18 16  1  0
 19 18  2  0
 20 14  1  0
 21 20  2  0
 23 29  1  0
 23 24  1  6
 23 22  1  0
 25 24  1  0
 26 25  1  0
 27 26  1  0
 27 28  1  0
 29 31  1  0
 30 29  2  0
M  END
$$$$
