EYK.pdb
     RDKit          3D

 31 31  0  0  1  0  0  0  0  0999 V2000
   28.7053  -21.0654  -18.7669 N   0  0  0  0  0  0  0  0  0  0  0  0
   28.1285  -19.9777  -18.0036 C   0  0  1  0  0  0  0  0  0  0  0  0
   27.2397  -19.1061  -18.8580 C   0  0  0  0  0  0  0  0  0  0  0  0
   28.0237  -18.4107  -19.9459 C   0  0  0  0  0  0  0  0  0  0  0  0
   28.0513  -19.2636  -21.1630 C   0  0  0  0  0  0  0  0  0  0  0  0
   27.0063  -19.4469  -21.8468 O   0  0  0  0  0  0  0  0  0  0  0  0
   27.3663  -20.4810  -16.8133 C   0  0  0  0  0  0  0  0  0  0  0  0
   26.4434  -21.3029  -16.9852 O   0  0  0  0  0  0  0  0  0  0  0  0
   29.2185  -19.8830  -21.5865 O   0  0  0  0  0  0  0  0  0  0  0  0
   24.6599  -21.0700   -8.4168 O   0  0  0  0  0  0  0  0  0  0  0  0
   25.3823  -20.7616   -9.5598 C   0  0  0  0  0  0  0  0  0  0  0  0
   25.4431  -19.4901  -10.0908 C   0  0  0  0  0  0  0  0  0  0  0  0
   26.1602  -19.1900  -11.2234 C   0  0  0  0  0  0  0  0  0  0  0  0
   26.8451  -20.2052  -11.8508 C   0  0  0  0  0  0  0  0  0  0  0  0
   27.6519  -20.0104  -13.0767 C   0  0  0  0  0  0  0  0  0  0  0  0
   26.9336  -20.3453  -14.3268 C   0  0  2  0  0  0  0  0  0  0  0  0
   27.6867  -20.0328  -15.5162 N   0  0  0  0  0  0  0  0  0  0  0  0
   25.5370  -19.8352  -14.4046 C   0  0  0  0  0  0  0  0  0  0  0  0
   25.2615  -18.6427  -14.6617 O   0  0  0  0  0  0  0  0  0  0  0  0
   26.8071  -21.5068  -11.3421 C   0  0  0  0  0  0  0  0  0  0  0  0
   26.0798  -21.7823  -10.2032 C   0  0  0  0  0  0  0  0  0  0  0  0
   24.4169  -20.7149  -14.1821 N   0  0  0  0  0  0  0  0  0  0  0  0
   23.0546  -20.2162  -14.0680 C   0  0  1  0  0  0  0  0  0  0  0  0
   22.3513  -20.5205  -15.3727 C   0  0  0  0  0  0  0  0  0  0  0  0
   20.9353  -20.0056  -15.3208 C   0  0  0  0  0  0  0  0  0  0  0  0
   20.1729  -20.3319  -16.5870 C   0  0  0  0  0  0  0  0  0  0  0  0
   18.7985  -19.7281  -16.5921 C   0  0  0  0  0  0  0  0  0  0  0  0
   18.0599  -20.0735  -17.7823 N   0  0  0  0  0  0  0  0  0  0  0  0
   22.3536  -20.7251  -12.8869 C   0  0  0  0  0  0  0  0  0  0  0  0
   21.5603  -19.9496  -12.2959 O   0  0  0  0  0  0  0  0  0  0  0  0
   22.4901  -22.0011  -12.3584 O   0  0  0  0  0  0  0  0  0  0  0  0
  2  1  1  6
  2  3  1  0
  3  4  1  0
  4  5  1  0
  5  6  2  0
  5  9  1  0
  7  2  1  0
  8  7  2  0
 10 11  1  0
 11 12  2  0
 11 21  1  0
 12 13  1  0
 13 14  2  0
 14 15  1  0
 16 15  1  1
 16 17  1  0
 17  7  1  0
 18 22  1  0
 18 16  1  0
 19 18  2  0
 20 14  1  0
 21 20  2  0
 23 29  1  0
 23 24  1  6
 23 22  1  0
 25 24  1  0
 26 25  1  0
 27 26  1  0
 27 28  1  0
 29 31  1  0
 30 29  2  0
M  END
$$$$
