EYK.pdb
     RDKit          3D

 31 31  0  0  1  0  0  0  0  0999 V2000
   23.6659  -18.9547  -18.2747 N   0  0  0  0  0  0  0  0  0  0  0  0
   24.5945  -19.8322  -17.5917 C   0  0  1  0  0  0  0  0  0  0  0  0
   25.9848  -19.2452  -17.5440 C   0  0  0  0  0  0  0  0  0  0  0  0
   26.1621  -18.1527  -18.5721 C   0  0  0  0  0  0  0  0  0  0  0  0
   27.2234  -18.5437  -19.5366 C   0  0  0  0  0  0  0  0  0  0  0  0
   28.4018  -18.1092  -19.4112 O   0  0  0  0  0  0  0  0  0  0  0  0
   24.1261  -20.1611  -16.2048 C   0  0  0  0  0  0  0  0  0  0  0  0
   24.7837  -20.9672  -15.5160 O   0  0  0  0  0  0  0  0  0  0  0  0
   26.9570  -19.3939  -20.6004 O   0  0  0  0  0  0  0  0  0  0  0  0
   20.1258  -19.9304   -8.4413 O   0  0  0  0  0  0  0  0  0  0  0  0
   20.5645  -19.6174   -9.7191 C   0  0  0  0  0  0  0  0  0  0  0  0
   19.7097  -19.2627  -10.7419 C   0  0  0  0  0  0  0  0  0  0  0  0
   20.1496  -18.9536  -12.0060 C   0  0  0  0  0  0  0  0  0  0  0  0
   21.5017  -19.0015  -12.2570 C   0  0  0  0  0  0  0  0  0  0  0  0
   22.0991  -18.6918  -13.5756 C   0  0  0  0  0  0  0  0  0  0  0  0
   22.3724  -19.8866  -14.4056 C   0  0  2  0  0  0  0  0  0  0  0  0
   22.9583  -19.5685  -15.6842 N   0  0  0  0  0  0  0  0  0  0  0  0
   21.2310  -20.8333  -14.5386 C   0  0  0  0  0  0  0  0  0  0  0  0
   20.3340  -20.7008  -15.4000 O   0  0  0  0  0  0  0  0  0  0  0  0
   22.3988  -19.3568  -11.2454 C   0  0  0  0  0  0  0  0  0  0  0  0
   21.9320  -19.6627   -9.9843 C   0  0  0  0  0  0  0  0  0  0  0  0
   21.1087  -21.9695  -13.6599 N   0  0  0  0  0  0  0  0  0  0  0  0
   20.0066  -22.9137  -13.7680 C   0  0  1  0  0  0  0  0  0  0  0  0
   20.5128  -24.2560  -13.2870 C   0  0  0  0  0  0  0  0  0  0  0  0
   19.4349  -25.2968  -13.4535 C   0  0  0  0  0  0  0  0  0  0  0  0
   19.9302  -26.6804  -13.0909 C   0  0  0  0  0  0  0  0  0  0  0  0
   20.8855  -27.2257  -14.1125 C   0  0  0  0  0  0  0  0  0  0  0  0
   21.4445  -28.4929  -13.7088 N   0  0  0  0  0  0  0  0  0  0  0  0
   18.7932  -22.4607  -13.0840 C   0  0  0  0  0  0  0  0  0  0  0  0
   17.7052  -22.5335  -13.7093 O   0  0  0  0  0  0  0  0  0  0  0  0
   18.7393  -21.9537  -11.7932 O   0  0  0  0  0  0  0  0  0  0  0  0
  2  1  1  1
  2  3  1  0
  3  4  1  0
  4  5  1  0
  5  6  2  0
  5  9  1  0
  7  2  1  0
  8  7  2  0
 10 11  1  0
 11 12  2  0
 11 21  1  0
 12 13  1  0
 13 14  2  0
 14 15  1  0
 16 15  1  6
 16 17  1  0
 17  7  1  0
 18 22  1  0
 18 16  1  0
 19 18  2  0
 20 14  1  0
 21 20  2  0
 23 29  1  0
 23 24  1  1
 23 22  1  0
 25 24  1  0
 26 25  1  0
 27 26  1  0
 27 28  1  0
 29 31  1  0
 30 29  2  0
M  END
$$$$
