EYK.pdb
     RDKit          3D

 31 31  0  0  1  0  0  0  0  0999 V2000
   38.9605  -25.1951    4.9679 N   0  0  0  0  0  0  0  0  0  0  0  0
   37.6276  -24.9680    4.4479 C   0  0  1  0  0  0  0  0  0  0  0  0
   37.0471  -26.2195    3.8342 C   0  0  0  0  0  0  0  0  0  0  0  0
   37.2728  -27.4261    4.7147 C   0  0  0  0  0  0  0  0  0  0  0  0
   36.7833  -28.6468    4.0221 C   0  0  0  0  0  0  0  0  0  0  0  0
   36.3000  -28.5788    2.8581 O   0  0  0  0  0  0  0  0  0  0  0  0
   36.7049  -24.4366    5.5050 C   0  0  0  0  0  0  0  0  0  0  0  0
   36.9680  -24.6512    6.7056 O   0  0  0  0  0  0  0  0  0  0  0  0
   36.8405  -29.8943    4.6271 O   0  0  0  0  0  0  0  0  0  0  0  0
   29.9788  -19.6448    8.8818 O   0  0  0  0  0  0  0  0  0  0  0  0
   30.9234  -20.2679    8.0801 C   0  0  0  0  0  0  0  0  0  0  0  0
   32.1435  -20.7024    8.5546 C   0  0  0  0  0  0  0  0  0  0  0  0
   33.0758  -21.3191    7.7561 C   0  0  0  0  0  0  0  0  0  0  0  0
   32.7743  -21.5088    6.4270 C   0  0  0  0  0  0  0  0  0  0  0  0
   33.6935  -22.1586    5.4656 C   0  0  0  0  0  0  0  0  0  0  0  0
   34.6183  -23.1339    6.0858 C   0  0  2  0  0  0  0  0  0  0  0  0
   35.5549  -23.7039    5.1491 N   0  0  0  0  0  0  0  0  0  0  0  0
   33.9626  -24.1785    6.9198 C   0  0  0  0  0  0  0  0  0  0  0  0
   33.4383  -25.2056    6.4358 O   0  0  0  0  0  0  0  0  0  0  0  0
   31.5477  -21.0817    5.9099 C   0  0  0  0  0  0  0  0  0  0  0  0
   30.6283  -20.4651    6.7324 C   0  0  0  0  0  0  0  0  0  0  0  0
   33.9035  -24.0475    8.3541 N   0  0  0  0  0  0  0  0  0  0  0  0
   33.3077  -25.0719    9.1987 C   0  0  1  0  0  0  0  0  0  0  0  0
   34.3851  -26.0898    9.5027 C   0  0  0  0  0  0  0  0  0  0  0  0
   33.9080  -27.4674    9.1189 C   0  0  0  0  0  0  0  0  0  0  0  0
   34.9213  -28.5326    9.4786 C   0  0  0  0  0  0  0  0  0  0  0  0
   34.4399  -29.9120    9.1332 C   0  0  0  0  0  0  0  0  0  0  0  0
   35.3502  -30.9334    9.5909 N   0  0  0  0  0  0  0  0  0  0  0  0
   32.6579  -24.5257   10.3924 C   0  0  0  0  0  0  0  0  0  0  0  0
   33.2539  -23.6141   11.0198 O   0  0  0  0  0  0  0  0  0  0  0  0
   31.4295  -24.9306   10.8958 O   0  0  0  0  0  0  0  0  0  0  0  0
  2  1  1  1
  2  3  1  0
  3  4  1  0
  4  5  1  0
  5  6  2  0
  5  9  1  0
  7  2  1  0
  8  7  2  0
 10 11  1  0
 11 12  2  0
 11 21  1  0
 12 13  1  0
 13 14  2  0
 14 15  1  0
 16 15  1  6
 16 17  1  0
 17  7  1  0
 18 22  1  0
 18 16  1  0
 19 18  2  0
 20 14  1  0
 21 20  2  0
 23 29  1  0
 23 24  1  1
 23 22  1  0
 25 24  1  0
 26 25  1  0
 27 26  1  0
 27 28  1  0
 29 31  1  0
 30 29  2  0
M  END
$$$$
