WCE.pdb
     RDKit          3D

 30 31  0  0  1  0  0  0  0  0999 V2000
    7.5513  -17.2904   23.6571 N   0  0  0  0  0  0  0  0  0  0  0  0
    7.9830  -16.2891   22.7021 C   0  0  1  0  0  0  0  0  0  0  0  0
    7.0775  -15.0804   22.8079 C   0  0  0  0  0  0  0  0  0  0  0  0
    6.7339  -14.7882   24.2134 C   0  0  0  0  0  0  0  0  0  0  0  0
    6.2507  -15.7154   25.1189 C   0  0  0  0  0  0  0  0  0  0  0  0
    6.0649  -15.0617   26.2721 N   0  0  0  0  0  0  0  0  0  0  0  0
    6.4125  -13.7659   26.1222 C   0  0  0  0  0  0  0  0  0  0  0  0
    6.4028  -12.7049   26.9996 C   0  0  0  0  0  0  0  0  0  0  0  0
    6.8119  -11.4367   26.6185 C   0  0  0  0  0  0  0  0  0  0  0  0
    7.2292  -11.2761   25.3270 C   0  0  0  0  0  0  0  0  0  0  0  0
    7.2537  -12.3049   24.4237 C   0  0  0  0  0  0  0  0  0  0  0  0
    6.8417  -13.5631   24.8232 C   0  0  0  0  0  0  0  0  0  0  0  0
    9.3528  -15.8340   23.1343 C   0  0  0  0  0  0  0  0  0  0  0  0
    9.9227  -14.8582   22.5793 O   0  0  0  0  0  0  0  0  0  0  0  0
   10.0525  -16.4888   24.1837 N   0  0  0  0  0  0  0  0  0  0  0  0
   11.3860  -16.0967   24.5194 C   0  0  1  0  0  0  0  0  0  0  0  0
   11.5244  -15.9638   26.0039 C   0  0  0  0  0  0  0  0  0  0  0  0
   10.8981  -17.4694   26.8298 S   0  0  0  0  0  0  0  0  0  0  0  0
   12.3036  -17.2049   24.0644 C   0  0  0  0  0  0  0  0  0  0  0  0
   11.9156  -18.3996   24.0054 O   0  0  0  0  0  0  0  0  0  0  0  0
   13.6466  -16.9466   23.6830 N   0  0  0  0  0  0  0  0  0  0  0  0
   14.4186  -17.9825   23.0355 C   0  0  1  0  0  0  0  0  0  0  0  0
   15.1867  -17.3118   21.9072 C   0  0  0  0  0  0  0  0  0  0  0  0
   16.0381  -18.2814   21.1517 C   0  0  0  0  0  0  0  0  0  0  0  0
   16.7804  -17.5201   20.1120 C   0  0  0  0  0  0  0  0  0  0  0  0
   16.2707  -17.2101   19.0030 O   0  0  0  0  0  0  0  0  0  0  0  0
   15.3496  -18.5985   24.0128 C   0  0  0  0  0  0  0  0  0  0  0  0
   16.0304  -19.7348   23.6788 O   0  0  0  0  0  0  0  0  0  0  0  0
   18.0977  -17.1103   20.3274 O   0  0  0  0  0  0  0  0  0  0  0  0
   15.5033  -18.0693   25.1388 O   0  0  0  0  0  0  0  0  0  0  0  0
  2  1  1  1
  2 13  1  0
  2  3  1  0
  3  4  1  0
  4  5  2  0
  5  6  1  0
  7  6  1  0
  8  7  2  0
  9  8  1  0
 10 11  1  0
 10  9  2  0
 11 12  2  0
 12  4  1  0
 12  7  1  0
 13 14  2  0
 15 13  1  0
 15 16  1  0
 16 17  1  1
 17 18  1  0
 19 20  2  0
 19 16  1  0
 21 19  1  0
 22 21  1  0
 22 23  1  6
 24 25  1  0
 24 23  1  0
 25 26  2  0
 25 29  1  0
 27 22  1  0
 27 28  1  0
 30 27  2  0
M  END
$$$$
