WCE.pdb
     RDKit          3D

 30 31  0  0  1  0  0  0  0  0999 V2000
    6.4647  -18.1837   24.6745 N   0  0  0  0  0  0  0  0  0  0  0  0
    6.6345  -16.7781   24.3643 C   0  0  1  0  0  0  0  0  0  0  0  0
    7.5373  -16.1470   25.4030 C   0  0  0  0  0  0  0  0  0  0  0  0
    6.8965  -14.9745   26.0302 C   0  0  0  0  0  0  0  0  0  0  0  0
    5.6487  -14.9796   26.6269 C   0  0  0  0  0  0  0  0  0  0  0  0
    5.4321  -13.7350   27.0694 N   0  0  0  0  0  0  0  0  0  0  0  0
    6.4934  -12.9551   26.7730 C   0  0  0  0  0  0  0  0  0  0  0  0
    6.7500  -11.6236   27.0119 C   0  0  0  0  0  0  0  0  0  0  0  0
    7.9321  -11.0227   26.6089 C   0  0  0  0  0  0  0  0  0  0  0  0
    8.8427  -11.8078   25.9589 C   0  0  0  0  0  0  0  0  0  0  0  0
    8.6258  -13.1350   25.7019 C   0  0  0  0  0  0  0  0  0  0  0  0
    7.4400  -13.7166   26.1120 C   0  0  0  0  0  0  0  0  0  0  0  0
    7.3763  -16.7053   23.0548 C   0  0  0  0  0  0  0  0  0  0  0  0
    8.2210  -17.5814   22.7325 O   0  0  0  0  0  0  0  0  0  0  0  0
    7.1507  -15.6455   22.1353 N   0  0  0  0  0  0  0  0  0  0  0  0
    7.9468  -15.5315   20.9529 C   0  0  1  0  0  0  0  0  0  0  0  0
    7.6423  -14.2454   20.2502 C   0  0  0  0  0  0  0  0  0  0  0  0
    8.6617  -14.0986   18.7403 S   0  0  0  0  0  0  0  0  0  0  0  0
    9.3904  -15.4915   21.3905 C   0  0  0  0  0  0  0  0  0  0  0  0
    9.8306  -14.5730   22.1280 O   0  0  0  0  0  0  0  0  0  0  0  0
   10.3157  -16.4904   20.9879 N   0  0  0  0  0  0  0  0  0  0  0  0
   11.7305  -16.2808   21.1953 C   0  0  1  0  0  0  0  0  0  0  0  0
   12.2760  -17.5639   21.8025 C   0  0  0  0  0  0  0  0  0  0  0  0
   11.7250  -17.8185   23.1690 C   0  0  0  0  0  0  0  0  0  0  0  0
   12.4101  -19.0186   23.7188 C   0  0  0  0  0  0  0  0  0  0  0  0
   13.5877  -18.9847   24.1637 O   0  0  0  0  0  0  0  0  0  0  0  0
   12.3892  -15.9905   19.8979 C   0  0  0  0  0  0  0  0  0  0  0  0
   13.6472  -15.4579   19.8794 O   0  0  0  0  0  0  0  0  0  0  0  0
   11.7632  -20.2551   23.7649 O   0  0  0  0  0  0  0  0  0  0  0  0
   11.7841  -16.2372   18.8281 O   0  0  0  0  0  0  0  0  0  0  0  0
  2  1  1  1
  2 13  1  0
  2  3  1  0
  3  4  1  0
  4  5  2  0
  5  6  1  0
  7  6  1  0
  8  7  2  0
  9  8  1  0
 10 11  1  0
 10  9  2  0
 11 12  2  0
 12  4  1  0
 12  7  1  0
 13 14  2  0
 15 13  1  0
 15 16  1  0
 16 17  1  1
 17 18  1  0
 19 20  2  0
 19 16  1  0
 21 19  1  0
 22 21  1  0
 22 23  1  6
 24 25  1  0
 24 23  1  0
 25 26  2  0
 25 29  1  0
 27 22  1  0
 27 28  1  0
 30 27  2  0
M  END
$$$$
