WCE.pdb
     RDKit          3D

 30 31  0  0  1  0  0  0  0  0999 V2000
    6.3739  -17.9204   24.4748 N   0  0  0  0  0  0  0  0  0  0  0  0
    6.6747  -16.5386   24.1572 C   0  0  1  0  0  0  0  0  0  0  0  0
    7.6433  -15.9934   25.1851 C   0  0  0  0  0  0  0  0  0  0  0  0
    7.0048  -14.9685   26.0340 C   0  0  0  0  0  0  0  0  0  0  0  0
    5.9657  -15.2064   26.9154 C   0  0  0  0  0  0  0  0  0  0  0  0
    5.6738  -14.0319   27.4874 N   0  0  0  0  0  0  0  0  0  0  0  0
    6.4882  -13.0725   26.9988 C   0  0  0  0  0  0  0  0  0  0  0  0
    6.5828  -11.7249   27.2648 C   0  0  0  0  0  0  0  0  0  0  0  0
    7.5139  -10.9177   26.6305 C   0  0  0  0  0  0  0  0  0  0  0  0
    8.3428  -11.5141   25.7221 C   0  0  0  0  0  0  0  0  0  0  0  0
    8.2809  -12.8501   25.4292 C   0  0  0  0  0  0  0  0  0  0  0  0
    7.3450  -13.6391   26.0727 C   0  0  0  0  0  0  0  0  0  0  0  0
    7.4080  -16.5417   22.8409 C   0  0  0  0  0  0  0  0  0  0  0  0
    8.0682  -17.5447   22.4628 O   0  0  0  0  0  0  0  0  0  0  0  0
    7.3821  -15.4132   21.9776 N   0  0  0  0  0  0  0  0  0  0  0  0
    8.1472  -15.4083   20.7695 C   0  0  1  0  0  0  0  0  0  0  0  0
    7.8862  -14.1508   20.0008 C   0  0  0  0  0  0  0  0  0  0  0  0
    8.8641  -14.1448   18.4566 S   0  0  0  0  0  0  0  0  0  0  0  0
    9.6034  -15.4175   21.1652 C   0  0  0  0  0  0  0  0  0  0  0  0
   10.0728  -14.5748   21.9719 O   0  0  0  0  0  0  0  0  0  0  0  0
   10.5081  -16.3792   20.6428 N   0  0  0  0  0  0  0  0  0  0  0  0
   11.9051  -16.3201   21.0080 C   0  0  1  0  0  0  0  0  0  0  0  0
   12.3253  -17.7407   21.3518 C   0  0  0  0  0  0  0  0  0  0  0  0
   11.6924  -18.2241   22.6173 C   0  0  0  0  0  0  0  0  0  0  0  0
   12.2100  -19.5913   22.8907 C   0  0  0  0  0  0  0  0  0  0  0  0
   13.4100  -19.9162   22.6904 O   0  0  0  0  0  0  0  0  0  0  0  0
   12.6989  -15.7972   19.8689 C   0  0  0  0  0  0  0  0  0  0  0  0
   12.0982  -15.5956   18.6586 O   0  0  0  0  0  0  0  0  0  0  0  0
   11.3705  -20.5890   23.3900 O   0  0  0  0  0  0  0  0  0  0  0  0
   13.9165  -15.5447   20.0277 O   0  0  0  0  0  0  0  0  0  0  0  0
  2  1  1  1
  2 13  1  0
  2  3  1  0
  3  4  1  0
  4  5  2  0
  5  6  1  0
  7  6  1  0
  8  7  2  0
  9  8  1  0
 10 11  1  0
 10  9  2  0
 11 12  2  0
 12  4  1  0
 12  7  1  0
 13 14  2  0
 15 13  1  0
 15 16  1  0
 16 17  1  1
 17 18  1  0
 19 20  2  0
 19 16  1  0
 21 19  1  0
 22 21  1  0
 22 23  1  6
 24 25  1  0
 24 23  1  0
 25 26  2  0
 25 29  1  0
 27 22  1  0
 27 28  1  0
 30 27  2  0
M  END
$$$$
