WCE.pdb
     RDKit          3D

 30 31  0  0  1  0  0  0  0  0999 V2000
    6.5400  -17.5619   25.6640 N   0  0  0  0  0  0  0  0  0  0  0  0
    6.8995  -16.2996   25.0491 C   0  0  1  0  0  0  0  0  0  0  0  0
    8.2234  -15.8318   25.6155 C   0  0  0  0  0  0  0  0  0  0  0  0
    8.0267  -14.8432   26.6939 C   0  0  0  0  0  0  0  0  0  0  0  0
    8.3468  -15.0489   28.0237 C   0  0  0  0  0  0  0  0  0  0  0  0
    8.0189  -13.9254   28.6734 N   0  0  0  0  0  0  0  0  0  0  0  0
    7.5079  -13.0287   27.8032 C   0  0  0  0  0  0  0  0  0  0  0  0
    7.0321  -11.7484   27.9769 C   0  0  0  0  0  0  0  0  0  0  0  0
    6.5454  -10.9989   26.9176 C   0  0  0  0  0  0  0  0  0  0  0  0
    6.5549  -11.5828   25.6820 C   0  0  0  0  0  0  0  0  0  0  0  0
    7.0190  -12.8530   25.4672 C   0  0  0  0  0  0  0  0  0  0  0  0
    7.5007  -13.5850   26.5370 C   0  0  0  0  0  0  0  0  0  0  0  0
    7.1362  -16.5766   23.5870 C   0  0  0  0  0  0  0  0  0  0  0  0
    7.4874  -17.7172   23.1863 O   0  0  0  0  0  0  0  0  0  0  0  0
    6.9723  -15.5613   22.6063 N   0  0  0  0  0  0  0  0  0  0  0  0
    7.6043  -15.6801   21.3291 C   0  0  1  0  0  0  0  0  0  0  0  0
    7.2640  -14.4985   20.4754 C   0  0  0  0  0  0  0  0  0  0  0  0
    8.1809  -14.5804   18.8963 S   0  0  0  0  0  0  0  0  0  0  0  0
    9.0943  -15.6679   21.5670 C   0  0  0  0  0  0  0  0  0  0  0  0
    9.6301  -14.8434   22.3510 O   0  0  0  0  0  0  0  0  0  0  0  0
    9.9573  -16.5878   20.9151 N   0  0  0  0  0  0  0  0  0  0  0  0
   11.3864  -16.4866   21.1052 C   0  0  1  0  0  0  0  0  0  0  0  0
   11.6987  -17.1695   22.4277 C   0  0  0  0  0  0  0  0  0  0  0  0
   11.3121  -18.6139   22.4203 C   0  0  0  0  0  0  0  0  0  0  0  0
   11.7759  -19.2148   23.6992 C   0  0  0  0  0  0  0  0  0  0  0  0
   12.0283  -18.5250   24.7221 O   0  0  0  0  0  0  0  0  0  0  0  0
   12.0896  -17.1601   19.9858 C   0  0  0  0  0  0  0  0  0  0  0  0
   13.4515  -17.0938   19.9016 O   0  0  0  0  0  0  0  0  0  0  0  0
   11.9536  -20.5944   23.8200 O   0  0  0  0  0  0  0  0  0  0  0  0
   11.4260  -17.7853   19.1254 O   0  0  0  0  0  0  0  0  0  0  0  0
  2  1  1  1
  2 13  1  0
  2  3  1  0
  3  4  1  0
  4  5  2  0
  5  6  1  0
  7  6  1  0
  8  7  2  0
  9  8  1  0
 10 11  1  0
 10  9  2  0
 11 12  2  0
 12  4  1  0
 12  7  1  0
 13 14  2  0
 15 13  1  0
 15 16  1  0
 16 17  1  6
 17 18  1  0
 19 20  2  0
 19 16  1  0
 21 19  1  0
 22 21  1  0
 22 23  1  1
 24 25  1  0
 24 23  1  0
 25 26  2  0
 25 29  1  0
 27 22  1  0
 27 28  1  0
 30 27  2  0
M  END
$$$$
