WCE.pdb
     RDKit          3D

 30 31  0  0  1  0  0  0  0  0999 V2000
    5.9786  -18.1089   24.3912 N   0  0  0  0  0  0  0  0  0  0  0  0
    6.6053  -16.8023   24.3624 C   0  0  1  0  0  0  0  0  0  0  0  0
    7.3119  -16.5625   25.6797 C   0  0  0  0  0  0  0  0  0  0  0  0
    6.7872  -15.3622   26.3598 C   0  0  0  0  0  0  0  0  0  0  0  0
    5.8113  -15.3714   27.3400 C   0  0  0  0  0  0  0  0  0  0  0  0
    5.6164  -14.0960   27.6966 N   0  0  0  0  0  0  0  0  0  0  0  0
    6.4306  -13.2930   26.9791 C   0  0  0  0  0  0  0  0  0  0  0  0
    6.6041  -11.9271   26.9763 C   0  0  0  0  0  0  0  0  0  0  0  0
    7.5164  -11.3073   26.1370 C   0  0  0  0  0  0  0  0  0  0  0  0
    8.2447  -12.1094   25.3039 C   0  0  0  0  0  0  0  0  0  0  0  0
    8.1022  -13.4709   25.2758 C   0  0  0  0  0  0  0  0  0  0  0  0
    7.1866  -14.0708   26.1210 C   0  0  0  0  0  0  0  0  0  0  0  0
    7.6791  -16.8551   23.3067 C   0  0  0  0  0  0  0  0  0  0  0  0
    8.3784  -17.8881   23.1367 O   0  0  0  0  0  0  0  0  0  0  0  0
    7.9428  -15.7416   22.4641 N   0  0  0  0  0  0  0  0  0  0  0  0
    8.9766  -15.8086   21.4784 C   0  0  1  0  0  0  0  0  0  0  0  0
    8.9153  -14.6079   20.5868 C   0  0  0  0  0  0  0  0  0  0  0  0
    7.3490  -14.6051   19.6447 S   0  0  0  0  0  0  0  0  0  0  0  0
   10.2944  -15.7755   22.2127 C   0  0  0  0  0  0  0  0  0  0  0  0
   10.5168  -14.9458   23.1311 O   0  0  0  0  0  0  0  0  0  0  0  0
   11.3421  -16.6807   21.8981 N   0  0  0  0  0  0  0  0  0  0  0  0
   12.5442  -16.6909   22.7001 C   0  0  1  0  0  0  0  0  0  0  0  0
   12.7508  -18.1269   23.1562 C   0  0  0  0  0  0  0  0  0  0  0  0
   14.0923  -18.3304   23.7846 C   0  0  0  0  0  0  0  0  0  0  0  0
   14.1847  -19.7532   24.2076 C   0  0  0  0  0  0  0  0  0  0  0  0
   13.5520  -20.6762   23.6302 O   0  0  0  0  0  0  0  0  0  0  0  0
   13.6939  -16.2266   21.8854 C   0  0  0  0  0  0  0  0  0  0  0  0
   13.5961  -16.2058   20.5229 O   0  0  0  0  0  0  0  0  0  0  0  0
   14.9922  -20.1303   25.2824 O   0  0  0  0  0  0  0  0  0  0  0  0
   14.7471  -15.8569   22.4559 O   0  0  0  0  0  0  0  0  0  0  0  0
  2  1  1  1
  2 13  1  0
  2  3  1  0
  3  4  1  0
  4  5  2  0
  5  6  1  0
  7  6  1  0
  8  7  2  0
  9  8  1  0
 10 11  1  0
 10  9  2  0
 11 12  2  0
 12  4  1  0
 12  7  1  0
 13 14  2  0
 15 13  1  0
 15 16  1  0
 16 17  1  6
 17 18  1  0
 19 20  2  0
 19 16  1  0
 21 19  1  0
 22 21  1  0
 22 23  1  6
 24 25  1  0
 24 23  1  0
 25 26  2  0
 25 29  1  0
 27 22  1  0
 27 28  1  0
 30 27  2  0
M  END
$$$$
