WCE.pdb
     RDKit          3D

 30 31  0  0  1  0  0  0  0  0999 V2000
    6.4741  -18.0118   24.2392 N   0  0  0  0  0  0  0  0  0  0  0  0
    7.1747  -16.8571   23.7133 C   0  0  1  0  0  0  0  0  0  0  0  0
    7.9509  -16.1963   24.8327 C   0  0  0  0  0  0  0  0  0  0  0  0
    7.1097  -15.2386   25.5770 C   0  0  0  0  0  0  0  0  0  0  0  0
    6.0433  -15.5852   26.3867 C   0  0  0  0  0  0  0  0  0  0  0  0
    5.5468  -14.4417   26.8743 N   0  0  0  0  0  0  0  0  0  0  0  0
    6.2600  -13.3974   26.4017 C   0  0  0  0  0  0  0  0  0  0  0  0
    6.1468  -12.0404   26.6055 C   0  0  0  0  0  0  0  0  0  0  0  0
    7.0081  -11.1361   26.0045 C   0  0  0  0  0  0  0  0  0  0  0  0
    7.9835  -11.6455   25.1940 C   0  0  0  0  0  0  0  0  0  0  0  0
    8.1297  -12.9875   24.9653 C   0  0  0  0  0  0  0  0  0  0  0  0
    7.2604  -13.8742   25.5742 C   0  0  0  0  0  0  0  0  0  0  0  0
    8.1965  -17.3737   22.7339 C   0  0  0  0  0  0  0  0  0  0  0  0
    8.6900  -18.5259   22.8509 O   0  0  0  0  0  0  0  0  0  0  0  0
    8.6414  -16.5800   21.6423 N   0  0  0  0  0  0  0  0  0  0  0  0
    9.7030  -17.0371   20.8004 C   0  0  1  0  0  0  0  0  0  0  0  0
    9.8094  -16.1655   19.5882 C   0  0  0  0  0  0  0  0  0  0  0  0
   11.0110  -16.8757   18.4081 S   0  0  0  0  0  0  0  0  0  0  0  0
   10.9843  -16.8996   21.5856 C   0  0  0  0  0  0  0  0  0  0  0  0
   11.2457  -15.8608   22.2442 O   0  0  0  0  0  0  0  0  0  0  0  0
   11.9518  -17.9385   21.6147 N   0  0  0  0  0  0  0  0  0  0  0  0
   13.2118  -17.7243   22.2892 C   0  0  1  0  0  0  0  0  0  0  0  0
   13.3310  -18.8131   23.3443 C   0  0  0  0  0  0  0  0  0  0  0  0
   12.2692  -18.7010   24.3911 C   0  0  0  0  0  0  0  0  0  0  0  0
   12.4692  -19.8100   25.3617 C   0  0  0  0  0  0  0  0  0  0  0  0
   13.3985  -20.6522   25.2491 O   0  0  0  0  0  0  0  0  0  0  0  0
   14.3246  -17.8140   21.3120 C   0  0  0  0  0  0  0  0  0  0  0  0
   14.0686  -18.1919   20.0244 O   0  0  0  0  0  0  0  0  0  0  0  0
   11.6185  -19.9651   26.4580 O   0  0  0  0  0  0  0  0  0  0  0  0
   15.4923  -17.5415   21.6777 O   0  0  0  0  0  0  0  0  0  0  0  0
  2  1  1  1
  2 13  1  0
  2  3  1  0
  3  4  1  0
  4  5  2  0
  5  6  1  0
  7  6  1  0
  8  7  2  0
  9  8  1  0
 10 11  1  0
 10  9  2  0
 11 12  2  0
 12  4  1  0
 12  7  1  0
 13 14  2  0
 15 13  1  0
 15 16  1  0
 16 17  1  6
 17 18  1  0
 19 20  2  0
 19 16  1  0
 21 19  1  0
 22 21  1  0
 22 23  1  1
 24 25  1  0
 24 23  1  0
 25 26  2  0
 25 29  1  0
 27 22  1  0
 27 28  1  0
 30 27  2  0
M  END
$$$$
