WCE.pdb
     RDKit          3D

 30 31  0  0  1  0  0  0  0  0999 V2000
    6.6350  -18.2333   24.5625 N   0  0  0  0  0  0  0  0  0  0  0  0
    7.0556  -16.8772   24.2710 C   0  0  1  0  0  0  0  0  0  0  0  0
    7.7654  -16.3077   25.4810 C   0  0  0  0  0  0  0  0  0  0  0  0
    7.0073  -15.1862   26.0697 C   0  0  0  0  0  0  0  0  0  0  0  0
    5.8192  -15.3137   26.7663 C   0  0  0  0  0  0  0  0  0  0  0  0
    5.4560  -14.0779   27.1308 N   0  0  0  0  0  0  0  0  0  0  0  0
    6.3690  -13.1863   26.6902 C   0  0  0  0  0  0  0  0  0  0  0  0
    6.4458  -11.8166   26.8069 C   0  0  0  0  0  0  0  0  0  0  0  0
    7.4963  -11.0940   26.2636 C   0  0  0  0  0  0  0  0  0  0  0  0
    8.4627  -11.7976   25.6011 C   0  0  0  0  0  0  0  0  0  0  0  0
    8.4231  -13.1592   25.4628 C   0  0  0  0  0  0  0  0  0  0  0  0
    7.3667  -13.8626   26.0120 C   0  0  0  0  0  0  0  0  0  0  0  0
    8.0860  -16.9646   23.1751 C   0  0  0  0  0  0  0  0  0  0  0  0
    8.9104  -17.9148   23.1272 O   0  0  0  0  0  0  0  0  0  0  0  0
    8.1660  -15.9780   22.1554 N   0  0  0  0  0  0  0  0  0  0  0  0
    9.2166  -16.0225   21.1862 C   0  0  1  0  0  0  0  0  0  0  0  0
    8.9792  -14.9955   20.1235 C   0  0  0  0  0  0  0  0  0  0  0  0
    7.3697  -15.2943   19.3103 S   0  0  0  0  0  0  0  0  0  0  0  0
   10.4966  -15.6646   21.9008 C   0  0  0  0  0  0  0  0  0  0  0  0
   10.5756  -14.6546   22.6457 O   0  0  0  0  0  0  0  0  0  0  0  0
   11.6689  -16.4537   21.7627 N   0  0  0  0  0  0  0  0  0  0  0  0
   12.8679  -16.0858   22.4808 C   0  0  1  0  0  0  0  0  0  0  0  0
   12.7846  -16.7606   23.8412 C   0  0  0  0  0  0  0  0  0  0  0  0
   12.4315  -18.2093   23.7301 C   0  0  0  0  0  0  0  0  0  0  0  0
   12.4880  -18.7966   25.0953 C   0  0  0  0  0  0  0  0  0  0  0  0
   13.4772  -18.6453   25.8597 O   0  0  0  0  0  0  0  0  0  0  0  0
   14.0620  -16.5523   21.7339 C   0  0  0  0  0  0  0  0  0  0  0  0
   13.9049  -17.2876   20.5933 O   0  0  0  0  0  0  0  0  0  0  0  0
   11.4263  -19.5538   25.5943 O   0  0  0  0  0  0  0  0  0  0  0  0
   15.2069  -16.2667   22.1573 O   0  0  0  0  0  0  0  0  0  0  0  0
  2  1  1  1
  2 13  1  0
  2  3  1  0
  3  4  1  0
  4  5  2  0
  5  6  1  0
  7  6  1  0
  8  7  2  0
  9  8  1  0
 10 11  1  0
 10  9  2  0
 11 12  2  0
 12  4  1  0
 12  7  1  0
 13 14  2  0
 15 13  1  0
 15 16  1  0
 16 17  1  6
 17 18  1  0
 19 20  2  0
 19 16  1  0
 21 19  1  0
 22 21  1  0
 22 23  1  1
 24 25  1  0
 24 23  1  0
 25 26  2  0
 25 29  1  0
 27 22  1  0
 27 28  1  0
 30 27  2  0
M  END
$$$$
