WCE.pdb
     RDKit          3D

 30 31  0  0  1  0  0  0  0  0999 V2000
    6.3798  -17.8556   24.1963 N   0  0  0  0  0  0  0  0  0  0  0  0
    6.9687  -16.6044   23.7623 C   0  0  1  0  0  0  0  0  0  0  0  0
    7.7977  -16.0291   24.8910 C   0  0  0  0  0  0  0  0  0  0  0  0
    6.9915  -15.1403   25.7505 C   0  0  0  0  0  0  0  0  0  0  0  0
    6.0047  -15.5643   26.6220 C   0  0  0  0  0  0  0  0  0  0  0  0
    5.5156  -14.4651   27.2088 N   0  0  0  0  0  0  0  0  0  0  0  0
    6.1571  -13.3741   26.7388 C   0  0  0  0  0  0  0  0  0  0  0  0
    6.0206  -12.0342   27.0244 C   0  0  0  0  0  0  0  0  0  0  0  0
    6.8033  -11.0713   26.4071 C   0  0  0  0  0  0  0  0  0  0  0  0
    7.7247  -11.5046   25.4955 C   0  0  0  0  0  0  0  0  0  0  0  0
    7.8916  -12.8273   25.1833 C   0  0  0  0  0  0  0  0  0  0  0  0
    7.1009  -13.7732   25.8100 C   0  0  0  0  0  0  0  0  0  0  0  0
    7.9324  -16.9358   22.6524 C   0  0  0  0  0  0  0  0  0  0  0  0
    8.5651  -18.0241   22.6394 O   0  0  0  0  0  0  0  0  0  0  0  0
    8.1633  -16.0328   21.5797 N   0  0  0  0  0  0  0  0  0  0  0  0
    9.1500  -16.3255   20.5870 C   0  0  1  0  0  0  0  0  0  0  0  0
    8.9559  -15.4432   19.3935 C   0  0  0  0  0  0  0  0  0  0  0  0
    8.0938  -13.9073   19.8822 S   0  0  0  0  0  0  0  0  0  0  0  0
   10.4958  -16.0037   21.1889 C   0  0  0  0  0  0  0  0  0  0  0  0
   10.6093  -15.2332   22.1761 O   0  0  0  0  0  0  0  0  0  0  0  0
   11.6941  -16.5576   20.6658 N   0  0  0  0  0  0  0  0  0  0  0  0
   12.8250  -16.7711   21.5398 C   0  0  1  0  0  0  0  0  0  0  0  0
   12.4582  -17.9329   22.4500 C   0  0  0  0  0  0  0  0  0  0  0  0
   13.0011  -17.7581   23.8322 C   0  0  0  0  0  0  0  0  0  0  0  0
   12.1008  -18.4820   24.7688 C   0  0  0  0  0  0  0  0  0  0  0  0
   11.2422  -19.3161   24.3779 O   0  0  0  0  0  0  0  0  0  0  0  0
   14.0277  -17.0936   20.7330 C   0  0  0  0  0  0  0  0  0  0  0  0
   13.8925  -17.4190   19.4130 O   0  0  0  0  0  0  0  0  0  0  0  0
   12.1725  -18.2622   26.1458 O   0  0  0  0  0  0  0  0  0  0  0  0
   15.1595  -17.0648   21.2712 O   0  0  0  0  0  0  0  0  0  0  0  0
  2  1  1  1
  2 13  1  0
  2  3  1  0
  3  4  1  0
  4  5  2  0
  5  6  1  0
  7  6  1  0
  8  7  2  0
  9  8  1  0
 10 11  1  0
 10  9  2  0
 11 12  2  0
 12  4  1  0
 12  7  1  0
 13 14  2  0
 15 13  1  0
 15 16  1  0
 16 17  1  6
 17 18  1  0
 19 20  2  0
 19 16  1  0
 21 19  1  0
 22 21  1  0
 22 23  1  1
 24 25  1  0
 24 23  1  0
 25 26  2  0
 25 29  1  0
 27 22  1  0
 27 28  1  0
 30 27  2  0
M  END
$$$$
