WCE.pdb
     RDKit          3D

 30 31  0  0  1  0  0  0  0  0999 V2000
    7.4695  -18.1722   25.5360 N   0  0  0  0  0  0  0  0  0  0  0  0
    7.2722  -16.9210   24.8315 C   0  0  1  0  0  0  0  0  0  0  0  0
    8.0269  -15.8231   25.5506 C   0  0  0  0  0  0  0  0  0  0  0  0
    7.1051  -14.8123   26.1051 C   0  0  0  0  0  0  0  0  0  0  0  0
    5.8013  -15.0597   26.4947 C   0  0  0  0  0  0  0  0  0  0  0  0
    5.3077  -13.8966   26.9368 N   0  0  0  0  0  0  0  0  0  0  0  0
    6.2504  -12.9352   26.8387 C   0  0  0  0  0  0  0  0  0  0  0  0
    6.2333  -11.5961   27.1582 C   0  0  0  0  0  0  0  0  0  0  0  0
    7.3406  -10.7845   26.9683 C   0  0  0  0  0  0  0  0  0  0  0  0
    8.4613  -11.3678   26.4470 C   0  0  0  0  0  0  0  0  0  0  0  0
    8.5191  -12.6952   26.1160 C   0  0  0  0  0  0  0  0  0  0  0  0
    7.4037  -13.4887   26.3129 C   0  0  0  0  0  0  0  0  0  0  0  0
    7.9239  -17.0716   23.4812 C   0  0  0  0  0  0  0  0  0  0  0  0
    8.5439  -18.1215   23.1681 O   0  0  0  0  0  0  0  0  0  0  0  0
    7.8635  -16.0345   22.5115 N   0  0  0  0  0  0  0  0  0  0  0  0
    8.4733  -16.2059   21.2296 C   0  0  1  0  0  0  0  0  0  0  0  0
    8.0826  -15.0831   20.3202 C   0  0  0  0  0  0  0  0  0  0  0  0
    8.8131  -15.3339   18.6636 S   0  0  0  0  0  0  0  0  0  0  0  0
    9.9668  -16.1396   21.4349 C   0  0  0  0  0  0  0  0  0  0  0  0
   10.4973  -15.2356   22.1296 O   0  0  0  0  0  0  0  0  0  0  0  0
   10.8391  -17.0960   20.8515 N   0  0  0  0  0  0  0  0  0  0  0  0
   12.2576  -17.0282   21.1195 C   0  0  1  0  0  0  0  0  0  0  0  0
   12.7479  -18.4633   21.2337 C   0  0  0  0  0  0  0  0  0  0  0  0
   14.2361  -18.5416   21.3556 C   0  0  0  0  0  0  0  0  0  0  0  0
   14.6067  -19.9763   21.4819 C   0  0  0  0  0  0  0  0  0  0  0  0
   14.8748  -20.6992   20.4862 O   0  0  0  0  0  0  0  0  0  0  0  0
   12.9442  -16.3241   20.0086 C   0  0  0  0  0  0  0  0  0  0  0  0
   13.9947  -15.4933   20.2777 O   0  0  0  0  0  0  0  0  0  0  0  0
   14.6739  -20.5918   22.7334 O   0  0  0  0  0  0  0  0  0  0  0  0
   12.5529  -16.4982   18.8304 O   0  0  0  0  0  0  0  0  0  0  0  0
  2  1  1  1
  2 13  1  0
  2  3  1  0
  3  4  1  0
  4  5  2  0
  5  6  1  0
  7  6  1  0
  8  7  2  0
  9  8  1  0
 10 11  1  0
 10  9  2  0
 11 12  2  0
 12  4  1  0
 12  7  1  0
 13 14  2  0
 15 13  1  0
 15 16  1  0
 16 17  1  6
 17 18  1  0
 19 20  2  0
 19 16  1  0
 21 19  1  0
 22 21  1  0
 22 23  1  6
 24 25  1  0
 24 23  1  0
 25 26  2  0
 25 29  1  0
 27 22  1  0
 27 28  1  0
 30 27  2  0
M  END
$$$$
