WCE.pdb
     RDKit          3D

 30 31  0  0  1  0  0  0  0  0999 V2000
    7.3239  -17.6205   25.8835 N   0  0  0  0  0  0  0  0  0  0  0  0
    7.5128  -16.4060   25.1154 C   0  0  1  0  0  0  0  0  0  0  0  0
    8.6380  -15.6008   25.7300 C   0  0  0  0  0  0  0  0  0  0  0  0
    8.1347  -14.6812   26.7692 C   0  0  0  0  0  0  0  0  0  0  0  0
    8.2836  -14.8691   28.1314 C   0  0  0  0  0  0  0  0  0  0  0  0
    7.6943  -13.8254   28.7274 N   0  0  0  0  0  0  0  0  0  0  0  0
    7.1847  -12.9953   27.7926 C   0  0  0  0  0  0  0  0  0  0  0  0
    6.4968  -11.8072   27.8963 C   0  0  0  0  0  0  0  0  0  0  0  0
    6.0614  -11.1141   26.7779 C   0  0  0  0  0  0  0  0  0  0  0  0
    6.3425  -11.6585   25.5562 C   0  0  0  0  0  0  0  0  0  0  0  0
    7.0235  -12.8373   25.4102 C   0  0  0  0  0  0  0  0  0  0  0  0
    7.4498  -13.5142   26.5384 C   0  0  0  0  0  0  0  0  0  0  0  0
    7.9859  -16.8228   23.7468 C   0  0  0  0  0  0  0  0  0  0  0  0
    8.5645  -17.9256   23.5631 O   0  0  0  0  0  0  0  0  0  0  0  0
    7.7972  -15.9869   22.6131 N   0  0  0  0  0  0  0  0  0  0  0  0
    8.2287  -16.4147   21.3187 C   0  0  1  0  0  0  0  0  0  0  0  0
    7.7393  -15.4622   20.2730 C   0  0  0  0  0  0  0  0  0  0  0  0
    5.9120  -15.4629   20.2293 S   0  0  0  0  0  0  0  0  0  0  0  0
    9.7371  -16.3728   21.3162 C   0  0  0  0  0  0  0  0  0  0  0  0
   10.3679  -15.3194   21.5875 O   0  0  0  0  0  0  0  0  0  0  0  0
   10.5107  -17.5225   21.0068 N   0  0  0  0  0  0  0  0  0  0  0  0
   11.9447  -17.4049   20.8705 C   0  0  1  0  0  0  0  0  0  0  0  0
   12.5578  -18.3260   21.9138 C   0  0  0  0  0  0  0  0  0  0  0  0
   12.3653  -17.8092   23.3036 C   0  0  0  0  0  0  0  0  0  0  0  0
   13.0097  -18.7694   24.2388 C   0  0  0  0  0  0  0  0  0  0  0  0
   13.2370  -19.9691   23.9309 O   0  0  0  0  0  0  0  0  0  0  0  0
   12.3530  -17.8120   19.5035 C   0  0  0  0  0  0  0  0  0  0  0  0
   13.6461  -17.6344   19.1000 O   0  0  0  0  0  0  0  0  0  0  0  0
   13.3963  -18.3721   25.5202 O   0  0  0  0  0  0  0  0  0  0  0  0
   11.5058  -18.3164   18.7294 O   0  0  0  0  0  0  0  0  0  0  0  0
  2  1  1  1
  2 13  1  0
  2  3  1  0
  3  4  1  0
  4  5  2  0
  5  6  1  0
  7  6  1  0
  8  7  2  0
  9  8  1  0
 10 11  1  0
 10  9  2  0
 11 12  2  0
 12  4  1  0
 12  7  1  0
 13 14  2  0
 15 13  1  0
 15 16  1  0
 16 17  1  6
 17 18  1  0
 19 20  2  0
 19 16  1  0
 21 19  1  0
 22 21  1  0
 22 23  1  1
 24 25  1  0
 24 23  1  0
 25 26  2  0
 25 29  1  0
 27 22  1  0
 27 28  1  0
 30 27  2  0
M  END
$$$$
