WCE.pdb
     RDKit          3D

 30 31  0  0  1  0  0  0  0  0999 V2000
    6.4398  -17.0395   24.7519 N   0  0  0  0  0  0  0  0  0  0  0  0
    6.8228  -15.7683   24.1702 C   0  0  1  0  0  0  0  0  0  0  0  0
    8.0792  -15.2698   24.8522 C   0  0  0  0  0  0  0  0  0  0  0  0
    7.7637  -14.5624   26.1086 C   0  0  0  0  0  0  0  0  0  0  0  0
    7.6782  -15.1601   27.3531 C   0  0  0  0  0  0  0  0  0  0  0  0
    7.3745  -14.1889   28.2229 N   0  0  0  0  0  0  0  0  0  0  0  0
    7.2675  -13.0113   27.5715 C   0  0  0  0  0  0  0  0  0  0  0  0
    6.9764  -11.7403   28.0137 C   0  0  0  0  0  0  0  0  0  0  0  0
    6.9193  -10.6597   27.1477 C   0  0  0  0  0  0  0  0  0  0  0  0
    7.1647  -10.9043   25.8256 C   0  0  0  0  0  0  0  0  0  0  0  0
    7.4574  -12.1528   25.3458 C   0  0  0  0  0  0  0  0  0  0  0  0
    7.5099  -13.2184   26.2258 C   0  0  0  0  0  0  0  0  0  0  0  0
    7.1956  -16.0380   22.7354 C   0  0  0  0  0  0  0  0  0  0  0  0
    7.6046  -17.1705   22.3681 O   0  0  0  0  0  0  0  0  0  0  0  0
    7.0998  -15.0246   21.7438 N   0  0  0  0  0  0  0  0  0  0  0  0
    7.6864  -15.2165   20.4539 C   0  0  1  0  0  0  0  0  0  0  0  0
    7.6380  -13.9409   19.6723 C   0  0  0  0  0  0  0  0  0  0  0  0
    8.4458  -14.1687   18.0486 S   0  0  0  0  0  0  0  0  0  0  0  0
    9.1363  -15.5726   20.6730 C   0  0  0  0  0  0  0  0  0  0  0  0
    9.8437  -14.9666   21.5177 O   0  0  0  0  0  0  0  0  0  0  0  0
    9.7657  -16.6086   19.9337 N   0  0  0  0  0  0  0  0  0  0  0  0
   11.1744  -16.8694   20.1239 C   0  0  1  0  0  0  0  0  0  0  0  0
   11.2744  -18.1681   20.9088 C   0  0  0  0  0  0  0  0  0  0  0  0
   12.6869  -18.6421   21.0351 C   0  0  0  0  0  0  0  0  0  0  0  0
   12.6684  -19.9339   21.7717 C   0  0  0  0  0  0  0  0  0  0  0  0
   11.6010  -20.4888   22.1438 O   0  0  0  0  0  0  0  0  0  0  0  0
   11.8424  -16.9983   18.8054 C   0  0  0  0  0  0  0  0  0  0  0  0
   13.1818  -16.7520   18.6959 O   0  0  0  0  0  0  0  0  0  0  0  0
   13.8564  -20.5966   22.0866 O   0  0  0  0  0  0  0  0  0  0  0  0
   11.1702  -17.3327   17.8015 O   0  0  0  0  0  0  0  0  0  0  0  0
  2  1  1  1
  2 13  1  0
  2  3  1  0
  3  4  1  0
  4  5  2  0
  5  6  1  0
  7  6  1  0
  8  7  2  0
  9  8  1  0
 10 11  1  0
 10  9  2  0
 11 12  2  0
 12  4  1  0
 12  7  1  0
 13 14  2  0
 15 13  1  0
 15 16  1  0
 16 17  1  6
 17 18  1  0
 19 20  2  0
 19 16  1  0
 21 19  1  0
 22 21  1  0
 22 23  1  1
 24 25  1  0
 24 23  1  0
 25 26  2  0
 25 29  1  0
 27 22  1  0
 27 28  1  0
 30 27  2  0
M  END
$$$$
