WCE.pdb
     RDKit          3D

 30 31  0  0  1  0  0  0  0  0999 V2000
    7.0191  -18.1143   25.6274 N   0  0  0  0  0  0  0  0  0  0  0  0
    6.4794  -17.3614   24.5126 C   0  0  1  0  0  0  0  0  0  0  0  0
    5.9508  -16.0362   25.0193 C   0  0  0  0  0  0  0  0  0  0  0  0
    6.8800  -15.4225   25.9881 C   0  0  0  0  0  0  0  0  0  0  0  0
    7.8486  -16.1080   26.6988 C   0  0  0  0  0  0  0  0  0  0  0  0
    8.4734  -15.2035   27.4626 N   0  0  0  0  0  0  0  0  0  0  0  0
    7.9340  -13.9831   27.2568 C   0  0  0  0  0  0  0  0  0  0  0  0
    8.2223  -12.7489   27.7948 C   0  0  0  0  0  0  0  0  0  0  0  0
    7.5232  -11.6098   27.4279 C   0  0  0  0  0  0  0  0  0  0  0  0
    6.5274  -11.7577   26.5037 C   0  0  0  0  0  0  0  0  0  0  0  0
    6.2095  -12.9668   25.9452 C   0  0  0  0  0  0  0  0  0  0  0  0
    6.9186  -14.0921   26.3241 C   0  0  0  0  0  0  0  0  0  0  0  0
    7.6356  -17.0383   23.6020 C   0  0  0  0  0  0  0  0  0  0  0  0
    8.6817  -17.7388   23.6001 O   0  0  0  0  0  0  0  0  0  0  0  0
    7.5889  -15.9313   22.7122 N   0  0  0  0  0  0  0  0  0  0  0  0
    8.6079  -15.7526   21.7251 C   0  0  1  0  0  0  0  0  0  0  0  0
    8.3078  -14.5481   20.8887 C   0  0  0  0  0  0  0  0  0  0  0  0
    6.8682  -14.8753   19.8110 S   0  0  0  0  0  0  0  0  0  0  0  0
    9.9003  -15.4972   22.4610 C   0  0  0  0  0  0  0  0  0  0  0  0
    9.9367  -14.8001   23.5069 O   0  0  0  0  0  0  0  0  0  0  0  0
   11.1330  -16.0333   22.0037 N   0  0  0  0  0  0  0  0  0  0  0  0
   12.2882  -16.0130   22.8717 C   0  0  1  0  0  0  0  0  0  0  0  0
   11.9733  -16.9383   24.0368 C   0  0  0  0  0  0  0  0  0  0  0  0
   13.1357  -17.0902   24.9650 C   0  0  0  0  0  0  0  0  0  0  0  0
   12.7366  -18.0352   26.0419 C   0  0  0  0  0  0  0  0  0  0  0  0
   12.8293  -17.7500   27.2649 O   0  0  0  0  0  0  0  0  0  0  0  0
   13.4812  -16.4889   22.1290 C   0  0  0  0  0  0  0  0  0  0  0  0
   13.3235  -17.1610   20.9501 O   0  0  0  0  0  0  0  0  0  0  0  0
   12.2334  -19.3009   25.7346 O   0  0  0  0  0  0  0  0  0  0  0  0
   14.6257  -16.2694   22.5911 O   0  0  0  0  0  0  0  0  0  0  0  0
  2  1  1  1
  2 13  1  0
  2  3  1  0
  3  4  1  0
  4  5  2  0
  5  6  1  0
  7  6  1  0
  8  7  2  0
  9  8  1  0
 10 11  1  0
 10  9  2  0
 11 12  2  0
 12  4  1  0
 12  7  1  0
 13 14  2  0
 15 13  1  0
 15 16  1  0
 16 17  1  6
 17 18  1  0
 19 20  2  0
 19 16  1  0
 21 19  1  0
 22 21  1  0
 22 23  1  1
 24 25  1  0
 24 23  1  0
 25 26  2  0
 25 29  1  0
 27 22  1  0
 27 28  1  0
 30 27  2  0
M  END
$$$$
