PFI.pdb
     RDKit          3D

 27 28  0  0  1  0  0  0  0  0999 V2000
   28.1486  -20.8771  -17.3076 N   0  0  0  0  0  0  0  0  0  0  0  0
   29.3083  -21.0000  -18.1374 C   0  0  0  0  0  0  0  0  0  0  0  0
   29.7677  -22.4233  -18.0822 C   0  0  0  0  0  0  0  0  0  0  0  0
   29.0495  -22.9509  -16.8415 C   0  0  0  0  0  0  0  0  0  0  0  0
   27.7455  -22.1950  -16.9381 C   0  0  1  0  0  0  0  0  0  0  0  0
   26.9922  -22.2369  -15.6641 C   0  0  0  0  0  0  0  0  0  0  0  0
   26.4729  -23.3213  -15.3075 O   0  0  0  0  0  0  0  0  0  0  0  0
   26.8420  -21.1061  -14.8480 N   0  0  0  0  0  0  0  0  0  0  0  0
   26.1206  -21.1372  -13.6024 C   0  0  1  0  0  0  0  0  0  0  0  0
   26.8431  -20.3632  -12.5229 C   0  0  0  0  0  0  0  0  0  0  0  0
   26.1611  -20.4673  -11.2089 C   0  0  0  0  0  0  0  0  0  0  0  0
   26.4584  -21.4723  -10.3139 C   0  0  0  0  0  0  0  0  0  0  0  0
   25.8074  -21.5568   -9.0771 C   0  0  0  0  0  0  0  0  0  0  0  0
   24.8496  -20.6334   -8.7226 C   0  0  0  0  0  0  0  0  0  0  0  0
   24.5604  -19.6330   -9.6262 C   0  0  0  0  0  0  0  0  0  0  0  0
   25.1965  -19.5431  -10.8449 C   0  0  0  0  0  0  0  0  0  0  0  0
   24.7152  -20.6819  -13.7585 C   0  0  0  0  0  0  0  0  0  0  0  0
   24.5328  -19.5407  -14.2491 O   0  0  0  0  0  0  0  0  0  0  0  0
   21.5740  -22.4862  -17.0449 C   0  0  0  0  0  0  0  0  0  0  0  0
   22.1806  -21.6025  -16.0035 C   0  0  0  0  0  0  0  0  0  0  0  0
   21.5594  -21.7173  -14.6393 C   0  0  2  0  0  0  0  0  0  0  0  0
   20.0880  -21.3485  -14.7883 C   0  0  0  0  0  0  0  0  0  0  0  0
   22.2304  -20.9411  -13.5646 C   0  0  2  0  0  0  0  0  0  0  0  0
   23.5838  -21.4482  -13.3908 N   0  0  0  0  0  0  0  0  0  0  0  0
   21.4880  -20.9245  -12.2870 C   0  0  0  0  0  0  0  0  0  0  0  0
   20.4318  -20.2159  -12.1757 O   0  0  0  0  0  0  0  0  0  0  0  0
   21.8584  -21.6392  -11.1667 O   0  0  0  0  0  0  0  0  0  0  0  0
  1  2  1  0
  2  3  1  0
  4  3  1  0
  5  1  1  0
  5  4  1  0
  5  6  1  1
  7  6  2  0
  8  6  1  0
  9  8  1  0
  9 10  1  1
 10 11  1  0
 11 12  2  0
 12 13  1  0
 14 13  2  0
 15 14  1  0
 16 11  1  0
 16 15  2  0
 17 24  1  0
 17  9  1  0
 18 17  2  0
 20 19  1  0
 21 20  1  0
 21 22  1  6
 23 21  1  0
 23 24  1  1
 25 23  1  0
 26 25  2  0
 27 25  1  0
M  END
$$$$
