PFI.pdb
     RDKit          3D

 27 28  0  0  1  0  0  0  0  0999 V2000
   21.7379  -15.0858  -19.2369 N   0  0  0  0  0  0  0  0  0  0  0  0
   21.5342  -16.4346  -19.6703 C   0  0  0  0  0  0  0  0  0  0  0  0
   20.9308  -17.1994  -18.5342 C   0  0  0  0  0  0  0  0  0  0  0  0
   21.2253  -16.2954  -17.3385 C   0  0  0  0  0  0  0  0  0  0  0  0
   21.0783  -14.9362  -17.9805 C   0  0  1  0  0  0  0  0  0  0  0  0
   21.6638  -13.8670  -17.1401 C   0  0  0  0  0  0  0  0  0  0  0  0
   21.2910  -13.7675  -15.9468 O   0  0  0  0  0  0  0  0  0  0  0  0
   22.6180  -12.9663  -17.6355 N   0  0  0  0  0  0  0  0  0  0  0  0
   23.1932  -11.9218  -16.8284 C   0  0  1  0  0  0  0  0  0  0  0  0
   24.6671  -11.7457  -17.1161 C   0  0  0  0  0  0  0  0  0  0  0  0
   25.4384  -12.9880  -16.8625 C   0  0  0  0  0  0  0  0  0  0  0  0
   25.7557  -13.3980  -15.5856 C   0  0  0  0  0  0  0  0  0  0  0  0
   26.4830  -14.5734  -15.3619 C   0  0  0  0  0  0  0  0  0  0  0  0
   26.9012  -15.3525  -16.4172 C   0  0  0  0  0  0  0  0  0  0  0  0
   26.5783  -14.9320  -17.6899 C   0  0  0  0  0  0  0  0  0  0  0  0
   25.8630  -13.7770  -17.9181 C   0  0  0  0  0  0  0  0  0  0  0  0
   22.4507  -10.6417  -16.9583 C   0  0  0  0  0  0  0  0  0  0  0  0
   22.1348  -10.2765  -18.1173 O   0  0  0  0  0  0  0  0  0  0  0  0
   17.5394   -7.9865  -15.6464 C   0  0  0  0  0  0  0  0  0  0  0  0
   18.9959   -7.6541  -15.6838 C   0  0  0  0  0  0  0  0  0  0  0  0
   19.9157   -8.8404  -15.6008 C   0  0  2  0  0  0  0  0  0  0  0  0
   19.8552   -9.3503  -14.1656 C   0  0  0  0  0  0  0  0  0  0  0  0
   21.3094   -8.6011  -16.0570 C   0  0  2  0  0  0  0  0  0  0  0  0
   22.0839   -9.8189  -15.8670 N   0  0  0  0  0  0  0  0  0  0  0  0
   21.9574   -7.4391  -15.4138 C   0  0  0  0  0  0  0  0  0  0  0  0
   22.8580   -7.6243  -14.5280 O   0  0  0  0  0  0  0  0  0  0  0  0
   21.6563   -6.1248  -15.7054 O   0  0  0  0  0  0  0  0  0  0  0  0
  1  2  1  0
  2  3  1  0
  4  3  1  0
  5  1  1  0
  5  4  1  0
  5  6  1  1
  7  6  2  0
  8  6  1  0
  9  8  1  0
  9 10  1  6
 10 11  1  0
 11 12  2  0
 12 13  1  0
 14 13  2  0
 15 14  1  0
 16 11  1  0
 16 15  2  0
 17 24  1  0
 17  9  1  0
 18 17  2  0
 20 19  1  0
 21 20  1  0
 21 22  1  1
 23 21  1  0
 23 24  1  1
 25 23  1  0
 26 25  2  0
 27 25  1  0
M  END
$$$$
