PFI.pdb
     RDKit          3D

 27 28  0  0  1  0  0  0  0  0999 V2000
   27.3491  -21.6506  -17.4695 N   0  0  0  0  0  0  0  0  0  0  0  0
   28.3540  -21.6097  -18.4879 C   0  0  0  0  0  0  0  0  0  0  0  0
   29.4715  -22.5139  -18.0716 C   0  0  0  0  0  0  0  0  0  0  0  0
   29.2024  -22.7008  -16.5795 C   0  0  0  0  0  0  0  0  0  0  0  0
   27.6921  -22.7060  -16.5726 C   0  0  1  0  0  0  0  0  0  0  0  0
   27.1497  -22.5093  -15.2090 C   0  0  0  0  0  0  0  0  0  0  0  0
   27.4277  -23.3527  -14.3234 O   0  0  0  0  0  0  0  0  0  0  0  0
   26.3383  -21.4140  -14.8790 N   0  0  0  0  0  0  0  0  0  0  0  0
   26.0427  -21.0479  -13.5182 C   0  0  1  0  0  0  0  0  0  0  0  0
   26.7946  -19.8038  -13.1020 C   0  0  0  0  0  0  0  0  0  0  0  0
   28.1333  -20.1200  -12.5448 C   0  0  0  0  0  0  0  0  0  0  0  0
   29.2938  -19.7854  -13.2085 C   0  0  0  0  0  0  0  0  0  0  0  0
   30.5499  -20.0891  -12.6695 C   0  0  0  0  0  0  0  0  0  0  0  0
   30.6573  -20.7325  -11.4570 C   0  0  0  0  0  0  0  0  0  0  0  0
   29.4895  -21.0625  -10.8026 C   0  0  0  0  0  0  0  0  0  0  0  0
   28.2501  -20.7671  -11.3264 C   0  0  0  0  0  0  0  0  0  0  0  0
   24.5826  -20.9136  -13.2798 C   0  0  0  0  0  0  0  0  0  0  0  0
   23.8292  -20.9770  -14.2822 O   0  0  0  0  0  0  0  0  0  0  0  0
   22.5209  -21.3670   -8.0569 C   0  0  0  0  0  0  0  0  0  0  0  0
   22.7782  -21.5501   -9.5176 C   0  0  0  0  0  0  0  0  0  0  0  0
   22.2490  -20.4492  -10.3940 C   0  0  2  0  0  0  0  0  0  0  0  0
   20.7515  -20.3499  -10.1278 C   0  0  0  0  0  0  0  0  0  0  0  0
   22.5580  -20.5808  -11.8414 C   0  0  2  0  0  0  0  0  0  0  0  0
   23.9977  -20.7196  -12.0059 N   0  0  0  0  0  0  0  0  0  0  0  0
   22.0198  -19.4815  -12.6696 C   0  0  0  0  0  0  0  0  0  0  0  0
   22.6837  -18.3983  -12.7958 O   0  0  0  0  0  0  0  0  0  0  0  0
   20.8157  -19.5354  -13.3406 O   0  0  0  0  0  0  0  0  0  0  0  0
  1  2  1  0
  2  3  1  0
  4  3  1  0
  5  1  1  0
  5  4  1  0
  5  6  1  1
  7  6  2  0
  8  6  1  0
  9  8  1  0
  9 10  1  6
 10 11  1  0
 11 12  2  0
 12 13  1  0
 14 13  2  0
 15 14  1  0
 16 11  1  0
 16 15  2  0
 17 24  1  0
 17  9  1  0
 18 17  2  0
 20 19  1  0
 21 20  1  0
 21 22  1  6
 23 21  1  0
 23 24  1  1
 25 23  1  0
 26 25  2  0
 27 25  1  0
M  END
$$$$
