PFI.pdb
     RDKit          3D

 27 28  0  0  1  0  0  0  0  0999 V2000
   27.6033  -20.1687  -18.7174 N   0  0  0  0  0  0  0  0  0  0  0  0
   28.3529  -19.9698  -19.9204 C   0  0  0  0  0  0  0  0  0  0  0  0
   29.6770  -19.3799  -19.5480 C   0  0  0  0  0  0  0  0  0  0  0  0
   29.4227  -18.8752  -18.1288 C   0  0  0  0  0  0  0  0  0  0  0  0
   28.4886  -19.9477  -17.6204 C   0  0  1  0  0  0  0  0  0  0  0  0
   27.7898  -19.5253  -16.3853 C   0  0  0  0  0  0  0  0  0  0  0  0
   28.4755  -19.2149  -15.3821 O   0  0  0  0  0  0  0  0  0  0  0  0
   26.3911  -19.4623  -16.3032 N   0  0  0  0  0  0  0  0  0  0  0  0
   25.7038  -18.8954  -15.1721 C   0  0  1  0  0  0  0  0  0  0  0  0
   24.7855  -17.7685  -15.5880 C   0  0  0  0  0  0  0  0  0  0  0  0
   25.5375  -16.5518  -15.9841 C   0  0  0  0  0  0  0  0  0  0  0  0
   26.2645  -15.8182  -15.0717 C   0  0  0  0  0  0  0  0  0  0  0  0
   26.9702  -14.6731  -15.4606 C   0  0  0  0  0  0  0  0  0  0  0  0
   26.9552  -14.2496  -16.7706 C   0  0  0  0  0  0  0  0  0  0  0  0
   26.2241  -14.9912  -17.6741 C   0  0  0  0  0  0  0  0  0  0  0  0
   25.5273  -16.1190  -17.2992 C   0  0  0  0  0  0  0  0  0  0  0  0
   24.9854  -19.9265  -14.3801 C   0  0  0  0  0  0  0  0  0  0  0  0
   24.4066  -20.8400  -15.0180 O   0  0  0  0  0  0  0  0  0  0  0  0
   25.9262  -20.8476   -8.7827 C   0  0  0  0  0  0  0  0  0  0  0  0
   25.1940  -20.3795   -9.9985 C   0  0  0  0  0  0  0  0  0  0  0  0
   25.0489  -21.4104  -11.0831 C   0  0  2  0  0  0  0  0  0  0  0  0
   26.4569  -21.8290  -11.4899 C   0  0  0  0  0  0  0  0  0  0  0  0
   24.2229  -20.9999  -12.2480 C   0  0  2  0  0  0  0  0  0  0  0  0
   24.9145  -19.9396  -12.9668 N   0  0  0  0  0  0  0  0  0  0  0  0
   22.8435  -20.6057  -11.8932 C   0  0  0  0  0  0  0  0  0  0  0  0
   22.4653  -19.3980  -12.0615 O   0  0  0  0  0  0  0  0  0  0  0  0
   21.8996  -21.4695  -11.3773 O   0  0  0  0  0  0  0  0  0  0  0  0
  1  2  1  0
  2  3  1  0
  4  3  1  0
  5  1  1  0
  5  4  1  0
  5  6  1  1
  7  6  2  0
  8  6  1  0
  9  8  1  0
  9 10  1  6
 10 11  1  0
 11 12  2  0
 12 13  1  0
 14 13  2  0
 15 14  1  0
 16 11  1  0
 16 15  2  0
 17 24  1  0
 17  9  1  0
 18 17  2  0
 20 19  1  0
 21 20  1  0
 21 22  1  6
 23 21  1  0
 23 24  1  1
 25 23  1  0
 26 25  2  0
 27 25  1  0
M  END
$$$$
