PFI.pdb
     RDKit          3D

 27 28  0  0  1  0  0  0  0  0999 V2000
   28.4572  -20.3911  -15.1553 N   0  0  0  0  0  0  0  0  0  0  0  0
   28.9309  -19.4485  -16.1227 C   0  0  0  0  0  0  0  0  0  0  0  0
   28.4446  -18.0909  -15.7222 C   0  0  0  0  0  0  0  0  0  0  0  0
   27.3286  -18.4219  -14.7329 C   0  0  0  0  0  0  0  0  0  0  0  0
   27.9074  -19.6484  -14.0681 C   0  0  1  0  0  0  0  0  0  0  0  0
   26.8788  -20.3989  -13.3125 C   0  0  0  0  0  0  0  0  0  0  0  0
   26.4093  -21.4479  -13.8145 O   0  0  0  0  0  0  0  0  0  0  0  0
   26.4157  -19.9746  -12.0585 N   0  0  0  0  0  0  0  0  0  0  0  0
   25.3266  -20.6205  -11.3730 C   0  0  1  0  0  0  0  0  0  0  0  0
   25.2257  -20.1627   -9.9355 C   0  0  0  0  0  0  0  0  0  0  0  0
   26.4884  -20.3852   -9.1881 C   0  0  0  0  0  0  0  0  0  0  0  0
   26.7933  -19.6722   -8.0488 C   0  0  0  0  0  0  0  0  0  0  0  0
   27.9882  -19.8941   -7.3534 C   0  0  0  0  0  0  0  0  0  0  0  0
   28.8925  -20.8347   -7.7927 C   0  0  0  0  0  0  0  0  0  0  0  0
   28.5768  -21.5414   -8.9336 C   0  0  0  0  0  0  0  0  0  0  0  0
   27.4033  -21.3289   -9.6233 C   0  0  0  0  0  0  0  0  0  0  0  0
   24.0377  -20.4584  -12.0936 C   0  0  0  0  0  0  0  0  0  0  0  0
   23.7629  -19.3127  -12.5273 O   0  0  0  0  0  0  0  0  0  0  0  0
   20.7023  -23.4055  -16.1586 C   0  0  0  0  0  0  0  0  0  0  0  0
   20.7110  -22.3428  -15.1078 C   0  0  0  0  0  0  0  0  0  0  0  0
   21.8841  -22.3940  -14.1689 C   0  0  2  0  0  0  0  0  0  0  0  0
   21.8935  -23.7844  -13.5444 C   0  0  0  0  0  0  0  0  0  0  0  0
   21.9323  -21.3158  -13.1477 C   0  0  2  0  0  0  0  0  0  0  0  0
   23.1121  -21.5054  -12.3164 N   0  0  0  0  0  0  0  0  0  0  0  0
   20.7044  -21.2097  -12.3323 C   0  0  0  0  0  0  0  0  0  0  0  0
   20.7417  -21.4955  -11.0885 O   0  0  0  0  0  0  0  0  0  0  0  0
   19.4790  -20.8121  -12.8257 O   0  0  0  0  0  0  0  0  0  0  0  0
  1  2  1  0
  2  3  1  0
  4  3  1  0
  5  1  1  0
  5  4  1  0
  5  6  1  6
  7  6  2  0
  8  6  1  0
  9  8  1  0
  9 10  1  1
 10 11  1  0
 11 12  2  0
 12 13  1  0
 14 13  2  0
 15 14  1  0
 16 11  1  0
 16 15  2  0
 17 24  1  0
 17  9  1  0
 18 17  2  0
 20 19  1  0
 21 20  1  0
 21 22  1  1
 23 21  1  0
 23 24  1  1
 25 23  1  0
 26 25  2  0
 27 25  1  0
M  END
$$$$
