PFI.pdb
     RDKit          3D

 27 28  0  0  1  0  0  0  0  0999 V2000
   28.2435  -20.7321  -16.9054 N   0  0  0  0  0  0  0  0  0  0  0  0
   29.4648  -20.9272  -17.6259 C   0  0  0  0  0  0  0  0  0  0  0  0
   29.7717  -22.3920  -17.6276 C   0  0  0  0  0  0  0  0  0  0  0  0
   28.8801  -22.9143  -16.5026 C   0  0  0  0  0  0  0  0  0  0  0  0
   27.6750  -22.0196  -16.6709 C   0  0  1  0  0  0  0  0  0  0  0  0
   26.7935  -22.0581  -15.4819 C   0  0  0  0  0  0  0  0  0  0  0  0
   26.1378  -23.1023  -15.2525 O   0  0  0  0  0  0  0  0  0  0  0  0
   26.6698  -20.9677  -14.6085 N   0  0  0  0  0  0  0  0  0  0  0  0
   25.8774  -21.0200  -13.4075 C   0  0  1  0  0  0  0  0  0  0  0  0
   26.4958  -20.1996  -12.2980 C   0  0  0  0  0  0  0  0  0  0  0  0
   25.7624  -20.3496  -11.0166 C   0  0  0  0  0  0  0  0  0  0  0  0
   24.6064  -19.6465  -10.7548 C   0  0  0  0  0  0  0  0  0  0  0  0
   23.9246  -19.7994   -9.5414 C   0  0  0  0  0  0  0  0  0  0  0  0
   24.3943  -20.6604   -8.5752 C   0  0  0  0  0  0  0  0  0  0  0  0
   25.5517  -21.3579   -8.8482 C   0  0  0  0  0  0  0  0  0  0  0  0
   26.2282  -21.2129  -10.0395 C   0  0  0  0  0  0  0  0  0  0  0  0
   24.4636  -20.6358  -13.6532 C   0  0  0  0  0  0  0  0  0  0  0  0
   24.2488  -19.4678  -14.0605 O   0  0  0  0  0  0  0  0  0  0  0  0
   21.5547  -22.2992  -17.2741 C   0  0  0  0  0  0  0  0  0  0  0  0
   22.0983  -21.5096  -16.1276 C   0  0  0  0  0  0  0  0  0  0  0  0
   21.4028  -21.7426  -14.8153 C   0  0  2  0  0  0  0  0  0  0  0  0
   19.9333  -21.3954  -15.0232 C   0  0  0  0  0  0  0  0  0  0  0  0
   21.9902  -21.0370  -13.6471 C   0  0  2  0  0  0  0  0  0  0  0  0
   23.3581  -21.4971  -13.4567 N   0  0  0  0  0  0  0  0  0  0  0  0
   21.1953  -21.1684  -12.4082 C   0  0  0  0  0  0  0  0  0  0  0  0
   20.3182  -20.2866  -12.1202 O   0  0  0  0  0  0  0  0  0  0  0  0
   21.3305  -22.2046  -11.5075 O   0  0  0  0  0  0  0  0  0  0  0  0
  1  2  1  0
  2  3  1  0
  4  3  1  0
  5  1  1  0
  5  4  1  0
  5  6  1  1
  7  6  2  0
  8  6  1  0
  9  8  1  0
  9 10  1  1
 10 11  1  0
 11 12  2  0
 12 13  1  0
 14 13  2  0
 15 14  1  0
 16 11  1  0
 16 15  2  0
 17 24  1  0
 17  9  1  0
 18 17  2  0
 20 19  1  0
 21 20  1  0
 21 22  1  6
 23 21  1  0
 23 24  1  1
 25 23  1  0
 26 25  2  0
 27 25  1  0
M  END
$$$$
