PFI.pdb
     RDKit          3D

 27 28  0  0  1  0  0  0  0  0999 V2000
   28.1789  -20.8725  -14.9249 N   0  0  0  0  0  0  0  0  0  0  0  0
   28.4643  -20.6896  -16.3155 C   0  0  0  0  0  0  0  0  0  0  0  0
   28.4196  -19.2225  -16.6077 C   0  0  0  0  0  0  0  0  0  0  0  0
   27.6709  -18.6703  -15.3960 C   0  0  0  0  0  0  0  0  0  0  0  0
   28.1928  -19.5838  -14.3124 C   0  0  1  0  0  0  0  0  0  0  0  0
   27.3623  -19.5127  -13.0887 C   0  0  0  0  0  0  0  0  0  0  0  0
   27.2687  -18.4159  -12.4879 O   0  0  0  0  0  0  0  0  0  0  0  0
   26.6805  -20.6293  -12.5832 N   0  0  0  0  0  0  0  0  0  0  0  0
   25.7304  -20.5372  -11.5053 C   0  0  1  0  0  0  0  0  0  0  0  0
   24.4355  -21.2401  -11.8449 C   0  0  0  0  0  0  0  0  0  0  0  0
   23.6683  -20.5227  -12.8934 C   0  0  0  0  0  0  0  0  0  0  0  0
   23.7708  -20.8583  -14.2261 C   0  0  0  0  0  0  0  0  0  0  0  0
   23.0396  -20.1730  -15.2040 C   0  0  0  0  0  0  0  0  0  0  0  0
   22.1959  -19.1420  -14.8567 C   0  0  0  0  0  0  0  0  0  0  0  0
   22.1020  -18.8150  -13.5206 C   0  0  0  0  0  0  0  0  0  0  0  0
   22.8181  -19.4844  -12.5527 C   0  0  0  0  0  0  0  0  0  0  0  0
   26.2961  -21.0180  -10.2186 C   0  0  0  0  0  0  0  0  0  0  0  0
   26.7833  -22.1751  -10.2026 O   0  0  0  0  0  0  0  0  0  0  0  0
   29.1399  -19.3114   -5.1113 C   0  0  0  0  0  0  0  0  0  0  0  0
   28.2355  -20.3007   -5.7722 C   0  0  0  0  0  0  0  0  0  0  0  0
   27.6981  -19.8693   -7.1084 C   0  0  2  0  0  0  0  0  0  0  0  0
   27.0617  -18.4985   -6.9102 C   0  0  0  0  0  0  0  0  0  0  0  0
   26.7756  -20.8305   -7.7663 C   0  0  2  0  0  0  0  0  0  0  0  0
   26.3173  -20.2592   -9.0243 N   0  0  0  0  0  0  0  0  0  0  0  0
   25.6425  -21.2494   -6.9150 C   0  0  0  0  0  0  0  0  0  0  0  0
   24.4560  -20.8836   -7.2122 O   0  0  0  0  0  0  0  0  0  0  0  0
   25.7699  -22.0320   -5.7860 O   0  0  0  0  0  0  0  0  0  0  0  0
  1  2  1  0
  2  3  1  0
  4  3  1  0
  5  1  1  0
  5  4  1  0
  5  6  1  1
  7  6  2  0
  8  6  1  0
  9  8  1  0
  9 10  1  6
 10 11  1  0
 11 12  2  0
 12 13  1  0
 14 13  2  0
 15 14  1  0
 16 11  1  0
 16 15  2  0
 17 24  1  0
 17  9  1  0
 18 17  2  0
 20 19  1  0
 21 20  1  0
 21 22  1  1
 23 21  1  0
 23 24  1  6
 25 23  1  0
 26 25  2  0
 27 25  1  0
M  END
$$$$
