PFI.pdb
     RDKit          3D

 27 28  0  0  1  0  0  0  0  0999 V2000
   27.5890  -20.9194  -17.3177 N   0  0  0  0  0  0  0  0  0  0  0  0
   28.7520  -20.9089  -18.1518 C   0  0  0  0  0  0  0  0  0  0  0  0
   29.5487  -22.1394  -17.8501 C   0  0  0  0  0  0  0  0  0  0  0  0
   28.9699  -22.5826  -16.5077 C   0  0  0  0  0  0  0  0  0  0  0  0
   27.5206  -22.2016  -16.6955 C   0  0  1  0  0  0  0  0  0  0  0  0
   26.7872  -22.1853  -15.4093 C   0  0  0  0  0  0  0  0  0  0  0  0
   25.9058  -23.0546  -15.2082 O   0  0  0  0  0  0  0  0  0  0  0  0
   27.0466  -21.2319  -14.4139 N   0  0  0  0  0  0  0  0  0  0  0  0
   26.3458  -21.2111  -13.1563 C   0  0  1  0  0  0  0  0  0  0  0  0
   27.2010  -20.6287  -12.0537 C   0  0  0  0  0  0  0  0  0  0  0  0
   26.4612  -20.5178  -10.7720 C   0  0  0  0  0  0  0  0  0  0  0  0
   26.2246  -21.6152   -9.9726 C   0  0  0  0  0  0  0  0  0  0  0  0
   25.5261  -21.4947   -8.7650 C   0  0  0  0  0  0  0  0  0  0  0  0
   25.0561  -20.2709   -8.3443 C   0  0  0  0  0  0  0  0  0  0  0  0
   25.2984  -19.1806   -9.1524 C   0  0  0  0  0  0  0  0  0  0  0  0
   25.9848  -19.2910  -10.3418 C   0  0  0  0  0  0  0  0  0  0  0  0
   25.0345  -20.5205  -13.2582 C   0  0  0  0  0  0  0  0  0  0  0  0
   25.0447  -19.3216  -13.6307 O   0  0  0  0  0  0  0  0  0  0  0  0
   20.5166  -22.7532  -15.3527 C   0  0  0  0  0  0  0  0  0  0  0  0
   21.2607  -22.2761  -14.1477 C   0  0  0  0  0  0  0  0  0  0  0  0
   21.7856  -20.8708  -14.2462 C   0  0  2  0  0  0  0  0  0  0  0  0
   22.6066  -20.7916  -15.5280 C   0  0  0  0  0  0  0  0  0  0  0  0
   22.5401  -20.3863  -13.0613 C   0  0  2  0  0  0  0  0  0  0  0  0
   23.7900  -21.1259  -12.9629 N   0  0  0  0  0  0  0  0  0  0  0  0
   21.7731  -20.4451  -11.7996 C   0  0  0  0  0  0  0  0  0  0  0  0
   22.1097  -21.2756  -10.8902 O   0  0  0  0  0  0  0  0  0  0  0  0
   20.6850  -19.6456  -11.5167 O   0  0  0  0  0  0  0  0  0  0  0  0
  1  2  1  0
  2  3  1  0
  4  3  1  0
  5  1  1  0
  5  4  1  0
  5  6  1  1
  7  6  2  0
  8  6  1  0
  9  8  1  0
  9 10  1  1
 10 11  1  0
 11 12  2  0
 12 13  1  0
 14 13  2  0
 15 14  1  0
 16 11  1  0
 16 15  2  0
 17 24  1  0
 17  9  1  0
 18 17  2  0
 20 19  1  0
 21 20  1  0
 21 22  1  6
 23 21  1  0
 23 24  1  1
 25 23  1  0
 26 25  2  0
 27 25  1  0
M  END
$$$$
