PFI.pdb
     RDKit          3D

 27 28  0  0  1  0  0  0  0  0999 V2000
   28.2168  -20.7229  -17.2412 N   0  0  0  0  0  0  0  0  0  0  0  0
   29.3563  -20.8465  -18.0984 C   0  0  0  0  0  0  0  0  0  0  0  0
   29.7946  -22.2774  -18.0814 C   0  0  0  0  0  0  0  0  0  0  0  0
   29.0954  -22.8190  -16.8360 C   0  0  0  0  0  0  0  0  0  0  0  0
   27.8014  -22.0418  -16.8891 C   0  0  1  0  0  0  0  0  0  0  0  0
   27.0752  -22.0979  -15.6000 C   0  0  0  0  0  0  0  0  0  0  0  0
   26.5551  -23.1838  -15.2491 O   0  0  0  0  0  0  0  0  0  0  0  0
   26.9515  -20.9790  -14.7634 N   0  0  0  0  0  0  0  0  0  0  0  0
   26.3034  -21.0369  -13.4790 C   0  0  1  0  0  0  0  0  0  0  0  0
   27.0926  -20.2938  -12.4248 C   0  0  0  0  0  0  0  0  0  0  0  0
   26.4302  -20.3359  -11.0974 C   0  0  0  0  0  0  0  0  0  0  0  0
   26.8344  -21.2097  -10.1114 C   0  0  0  0  0  0  0  0  0  0  0  0
   26.2004  -21.2370   -8.8632 C   0  0  0  0  0  0  0  0  0  0  0  0
   25.1525  -20.3872   -8.5887 C   0  0  0  0  0  0  0  0  0  0  0  0
   24.7568  -19.5179   -9.5829 C   0  0  0  0  0  0  0  0  0  0  0  0
   25.3755  -19.4851  -10.8134 C   0  0  0  0  0  0  0  0  0  0  0  0
   24.8945  -20.5704  -13.5419 C   0  0  0  0  0  0  0  0  0  0  0  0
   24.6862  -19.4406  -14.0485 O   0  0  0  0  0  0  0  0  0  0  0  0
   19.9666  -21.7163  -16.1362 C   0  0  0  0  0  0  0  0  0  0  0  0
   20.4587  -21.1463  -14.8454 C   0  0  0  0  0  0  0  0  0  0  0  0
   21.8691  -21.5234  -14.4866 C   0  0  2  0  0  0  0  0  0  0  0  0
   21.9103  -23.0435  -14.3828 C   0  0  0  0  0  0  0  0  0  0  0  0
   22.4196  -20.8594  -13.2766 C   0  0  2  0  0  0  0  0  0  0  0  0
   23.7869  -21.3140  -13.0697 N   0  0  0  0  0  0  0  0  0  0  0  0
   21.5952  -21.0474  -12.0647 C   0  0  0  0  0  0  0  0  0  0  0  0
   22.0198  -21.7902  -11.1170 O   0  0  0  0  0  0  0  0  0  0  0  0
   20.3608  -20.4631  -11.8693 O   0  0  0  0  0  0  0  0  0  0  0  0
  1  2  1  0
  2  3  1  0
  4  3  1  0
  5  1  1  0
  5  4  1  0
  5  6  1  1
  7  6  2  0
  8  6  1  0
  9  8  1  0
  9 10  1  1
 10 11  1  0
 11 12  2  0
 12 13  1  0
 14 13  2  0
 15 14  1  0
 16 11  1  0
 16 15  2  0
 17 24  1  0
 17  9  1  0
 18 17  2  0
 20 19  1  0
 21 20  1  0
 21 22  1  1
 23 21  1  0
 23 24  1  1
 25 23  1  0
 26 25  2  0
 27 25  1  0
M  END
$$$$
