PFI.pdb
     RDKit          3D

 27 28  0  0  1  0  0  0  0  0999 V2000
   26.6218  -19.7258  -12.7473 N   0  0  0  0  0  0  0  0  0  0  0  0
   27.0151  -19.7243  -14.1235 C   0  0  0  0  0  0  0  0  0  0  0  0
   27.3570  -21.1296  -14.5083 C   0  0  0  0  0  0  0  0  0  0  0  0
   27.5403  -21.8051  -13.1505 C   0  0  0  0  0  0  0  0  0  0  0  0
   26.4847  -21.0874  -12.3432 C   0  0  1  0  0  0  0  0  0  0  0  0
   26.6789  -21.2846  -10.8887 C   0  0  0  0  0  0  0  0  0  0  0  0
   26.3552  -22.3852  -10.3822 O   0  0  0  0  0  0  0  0  0  0  0  0
   27.2111  -20.2827  -10.0640 N   0  0  0  0  0  0  0  0  0  0  0  0
   27.4172  -20.4676   -8.6510 C   0  0  1  0  0  0  0  0  0  0  0  0
   28.5882  -19.6530   -8.1494 C   0  0  0  0  0  0  0  0  0  0  0  0
   28.7307  -19.7288   -6.6741 C   0  0  0  0  0  0  0  0  0  0  0  0
   29.2897  -20.8252   -6.0538 C   0  0  0  0  0  0  0  0  0  0  0  0
   29.4188  -20.8818   -4.6607 C   0  0  0  0  0  0  0  0  0  0  0  0
   28.9884  -19.8384   -3.8722 C   0  0  0  0  0  0  0  0  0  0  0  0
   28.4305  -18.7473   -4.5039 C   0  0  0  0  0  0  0  0  0  0  0  0
   28.3001  -18.6841   -5.8739 C   0  0  0  0  0  0  0  0  0  0  0  0
   26.1846  -20.1998   -7.8664 C   0  0  0  0  0  0  0  0  0  0  0  0
   25.5499  -19.1504   -8.1351 O   0  0  0  0  0  0  0  0  0  0  0  0
   21.0007  -21.0583   -6.7321 C   0  0  0  0  0  0  0  0  0  0  0  0
   22.0874  -21.5821   -5.8499 C   0  0  0  0  0  0  0  0  0  0  0  0
   23.4228  -21.7420   -6.5216 C   0  0  2  0  0  0  0  0  0  0  0  0
   23.8790  -23.1742   -6.2688 C   0  0  0  0  0  0  0  0  0  0  0  0
   24.4546  -20.7444   -6.1373 C   0  0  2  0  0  0  0  0  0  0  0  0
   25.6900  -21.0461   -6.8458 N   0  0  0  0  0  0  0  0  0  0  0  0
   24.6749  -20.6440   -4.6794 C   0  0  0  0  0  0  0  0  0  0  0  0
   25.7242  -21.1525   -4.1595 O   0  0  0  0  0  0  0  0  0  0  0  0
   23.8068  -20.0222   -3.8060 O   0  0  0  0  0  0  0  0  0  0  0  0
  1  2  1  0
  2  3  1  0
  4  3  1  0
  5  1  1  0
  5  4  1  0
  5  6  1  1
  7  6  2  0
  8  6  1  0
  9  8  1  0
  9 10  1  1
 10 11  1  0
 11 12  2  0
 12 13  1  0
 14 13  2  0
 15 14  1  0
 16 11  1  0
 16 15  2  0
 17 24  1  0
 17  9  1  0
 18 17  2  0
 20 19  1  0
 21 20  1  0
 21 22  1  1
 23 21  1  0
 23 24  1  6
 25 23  1  0
 26 25  2  0
 27 25  1  0
M  END
$$$$
