PFI.pdb
     RDKit          3D

 27 28  0  0  1  0  0  0  0  0999 V2000
   28.5250  -20.7706  -17.5087 N   0  0  0  0  0  0  0  0  0  0  0  0
   29.6657  -20.9144  -18.3612 C   0  0  0  0  0  0  0  0  0  0  0  0
   30.0610  -22.3579  -18.3652 C   0  0  0  0  0  0  0  0  0  0  0  0
   29.3380  -22.8984  -17.1329 C   0  0  0  0  0  0  0  0  0  0  0  0
   28.0682  -22.0819  -17.1808 C   0  0  1  0  0  0  0  0  0  0  0  0
   27.3325  -22.1371  -15.8970 C   0  0  0  0  0  0  0  0  0  0  0  0
   26.7432  -23.1997  -15.5865 O   0  0  0  0  0  0  0  0  0  0  0  0
   27.2746  -21.0426  -15.0220 N   0  0  0  0  0  0  0  0  0  0  0  0
   26.6087  -21.1016  -13.7468 C   0  0  1  0  0  0  0  0  0  0  0  0
   27.4651  -20.5182  -12.6456 C   0  0  0  0  0  0  0  0  0  0  0  0
   26.7604  -20.5000  -11.3396 C   0  0  0  0  0  0  0  0  0  0  0  0
   26.7498  -21.5964  -10.5048 C   0  0  0  0  0  0  0  0  0  0  0  0
   26.0816  -21.5639   -9.2747 C   0  0  0  0  0  0  0  0  0  0  0  0
   25.4155  -20.4301   -8.8668 C   0  0  0  0  0  0  0  0  0  0  0  0
   25.4327  -19.3398   -9.7105 C   0  0  0  0  0  0  0  0  0  0  0  0
   26.0879  -19.3641  -10.9221 C   0  0  0  0  0  0  0  0  0  0  0  0
   25.2635  -20.4729  -13.7888 C   0  0  0  0  0  0  0  0  0  0  0  0
   25.2087  -19.2539  -14.0845 O   0  0  0  0  0  0  0  0  0  0  0  0
   20.1690  -20.4137  -16.4358 C   0  0  0  0  0  0  0  0  0  0  0  0
   20.7657  -20.1706  -15.0874 C   0  0  0  0  0  0  0  0  0  0  0  0
   22.1146  -20.7986  -14.8722 C   0  0  2  0  0  0  0  0  0  0  0  0
   21.9458  -22.2984  -15.0853 C   0  0  0  0  0  0  0  0  0  0  0  0
   22.7668  -20.4822  -13.5752 C   0  0  2  0  0  0  0  0  0  0  0  0
   24.0551  -21.1576  -13.5176 N   0  0  0  0  0  0  0  0  0  0  0  0
   21.9347  -20.7974  -12.3953 C   0  0  0  0  0  0  0  0  0  0  0  0
   22.1374  -21.8779  -11.7461 O   0  0  0  0  0  0  0  0  0  0  0  0
   20.9218  -19.9884  -11.9234 O   0  0  0  0  0  0  0  0  0  0  0  0
  1  2  1  0
  2  3  1  0
  4  3  1  0
  5  1  1  0
  5  4  1  0
  5  6  1  1
  7  6  2  0
  8  6  1  0
  9  8  1  0
  9 10  1  1
 10 11  1  0
 11 12  2  0
 12 13  1  0
 14 13  2  0
 15 14  1  0
 16 11  1  0
 16 15  2  0
 17 24  1  0
 17  9  1  0
 18 17  2  0
 20 19  1  0
 21 20  1  0
 21 22  1  1
 23 21  1  0
 23 24  1  1
 25 23  1  0
 26 25  2  0
 27 25  1  0
M  END
$$$$
