PFI.pdb
     RDKit          3D

 27 28  0  0  1  0  0  0  0  0999 V2000
   27.8576  -20.6565  -16.8972 N   0  0  0  0  0  0  0  0  0  0  0  0
   28.9167  -20.7842  -17.8514 C   0  0  0  0  0  0  0  0  0  0  0  0
   29.4386  -22.1850  -17.7783 C   0  0  0  0  0  0  0  0  0  0  0  0
   28.8928  -22.6677  -16.4357 C   0  0  0  0  0  0  0  0  0  0  0  0
   27.5559  -21.9652  -16.4154 C   0  0  1  0  0  0  0  0  0  0  0  0
   26.9588  -21.9627  -15.0605 C   0  0  0  0  0  0  0  0  0  0  0  0
   26.2091  -22.9127  -14.7315 O   0  0  0  0  0  0  0  0  0  0  0  0
   27.2046  -20.9350  -14.1382 N   0  0  0  0  0  0  0  0  0  0  0  0
   26.6810  -20.9529  -12.7971 C   0  0  1  0  0  0  0  0  0  0  0  0
   27.5865  -20.2143  -11.8375 C   0  0  0  0  0  0  0  0  0  0  0  0
   27.0458  -20.2024  -10.4555 C   0  0  0  0  0  0  0  0  0  0  0  0
   26.1238  -19.2642  -10.0444 C   0  0  0  0  0  0  0  0  0  0  0  0
   25.6215  -19.2664   -8.7374 C   0  0  0  0  0  0  0  0  0  0  0  0
   26.0382  -20.2106   -7.8262 C   0  0  0  0  0  0  0  0  0  0  0  0
   26.9610  -21.1436   -8.2487 C   0  0  0  0  0  0  0  0  0  0  0  0
   27.4598  -21.1481   -9.5329 C   0  0  0  0  0  0  0  0  0  0  0  0
   25.2852  -20.4483  -12.7349 C   0  0  0  0  0  0  0  0  0  0  0  0
   25.0706  -19.2969  -13.1872 O   0  0  0  0  0  0  0  0  0  0  0  0
   22.2202  -20.5381  -15.6037 C   0  0  0  0  0  0  0  0  0  0  0  0
   22.7012  -21.6570  -14.7376 C   0  0  0  0  0  0  0  0  0  0  0  0
   22.1461  -21.6563  -13.3404 C   0  0  2  0  0  0  0  0  0  0  0  0
   20.6524  -21.3759  -13.4555 C   0  0  0  0  0  0  0  0  0  0  0  0
   22.8210  -20.7396  -12.3856 C   0  0  2  0  0  0  0  0  0  0  0  0
   24.1967  -21.1787  -12.2019 N   0  0  0  0  0  0  0  0  0  0  0  0
   22.1181  -20.5997  -11.0932 C   0  0  0  0  0  0  0  0  0  0  0  0
   22.4338  -21.3555  -10.1139 O   0  0  0  0  0  0  0  0  0  0  0  0
   21.1136  -19.6852  -10.8529 O   0  0  0  0  0  0  0  0  0  0  0  0
  1  2  1  0
  2  3  1  0
  4  3  1  0
  5  1  1  0
  5  4  1  0
  5  6  1  1
  7  6  2  0
  8  6  1  0
  9  8  1  0
  9 10  1  1
 10 11  1  0
 11 12  2  0
 12 13  1  0
 14 13  2  0
 15 14  1  0
 16 11  1  0
 16 15  2  0
 17 24  1  0
 17  9  1  0
 18 17  2  0
 20 19  1  0
 21 20  1  0
 21 22  1  6
 23 21  1  0
 23 24  1  1
 25 23  1  0
 26 25  2  0
 27 25  1  0
M  END
$$$$
