PFI.pdb
     RDKit          3D

 27 28  0  0  1  0  0  0  0  0999 V2000
   28.7777  -21.8887  -14.3019 N   0  0  0  0  0  0  0  0  0  0  0  0
   28.6042  -21.3475  -15.6155 C   0  0  0  0  0  0  0  0  0  0  0  0
   28.3033  -19.8878  -15.4783 C   0  0  0  0  0  0  0  0  0  0  0  0
   27.8991  -19.7739  -14.0096 C   0  0  0  0  0  0  0  0  0  0  0  0
   28.8275  -20.7918  -13.3906 C   0  0  1  0  0  0  0  0  0  0  0  0
   28.4053  -21.1559  -12.0190 C   0  0  0  0  0  0  0  0  0  0  0  0
   27.5773  -22.0861  -11.8712 O   0  0  0  0  0  0  0  0  0  0  0  0
   28.9005  -20.4952  -10.8853 N   0  0  0  0  0  0  0  0  0  0  0  0
   28.2922  -20.6188   -9.5862 C   0  0  1  0  0  0  0  0  0  0  0  0
   29.1054  -19.9155   -8.5230 C   0  0  0  0  0  0  0  0  0  0  0  0
   28.4791  -20.0177   -7.1814 C   0  0  0  0  0  0  0  0  0  0  0  0
   27.5621  -19.0906   -6.7354 C   0  0  0  0  0  0  0  0  0  0  0  0
   26.9785  -19.2009   -5.4674 C   0  0  0  0  0  0  0  0  0  0  0  0
   27.3078  -20.2435   -4.6307 C   0  0  0  0  0  0  0  0  0  0  0  0
   28.2265  -21.1644   -5.0875 C   0  0  0  0  0  0  0  0  0  0  0  0
   28.8050  -21.0627   -6.3337 C   0  0  0  0  0  0  0  0  0  0  0  0
   26.8774  -20.1659   -9.5858 C   0  0  0  0  0  0  0  0  0  0  0  0
   26.6551  -18.9778   -9.9254 O   0  0  0  0  0  0  0  0  0  0  0  0
   23.9340  -20.4843  -13.1464 C   0  0  0  0  0  0  0  0  0  0  0  0
   24.5037  -20.1365  -11.8093 C   0  0  0  0  0  0  0  0  0  0  0  0
   23.8562  -20.8358  -10.6467 C   0  0  2  0  0  0  0  0  0  0  0  0
   22.3596  -20.5625  -10.7409 C   0  0  0  0  0  0  0  0  0  0  0  0
   24.4090  -20.4979   -9.3096 C   0  0  2  0  0  0  0  0  0  0  0  0
   25.7790  -20.9836   -9.2288 N   0  0  0  0  0  0  0  0  0  0  0  0
   23.5903  -20.9909   -8.1825 C   0  0  0  0  0  0  0  0  0  0  0  0
   23.9613  -22.0259   -7.5335 O   0  0  0  0  0  0  0  0  0  0  0  0
   22.4169  -20.4004   -7.7611 O   0  0  0  0  0  0  0  0  0  0  0  0
  1  2  1  0
  2  3  1  0
  4  3  1  0
  5  1  1  0
  5  4  1  0
  5  6  1  1
  7  6  2  0
  8  6  1  0
  9  8  1  0
  9 10  1  1
 10 11  1  0
 11 12  2  0
 12 13  1  0
 14 13  2  0
 15 14  1  0
 16 11  1  0
 16 15  2  0
 17 24  1  0
 17  9  1  0
 18 17  2  0
 20 19  1  0
 21 20  1  0
 21 22  1  1
 23 21  1  0
 23 24  1  1
 25 23  1  0
 26 25  2  0
 27 25  1  0
M  END
$$$$
