PFI.pdb
     RDKit          3D

 27 28  0  0  1  0  0  0  0  0999 V2000
   27.4900  -18.9858  -17.5567 N   0  0  0  0  0  0  0  0  0  0  0  0
   28.2563  -18.8046  -18.7519 C   0  0  0  0  0  0  0  0  0  0  0  0
   28.7375  -20.1488  -19.2010 C   0  0  0  0  0  0  0  0  0  0  0  0
   28.5504  -20.9992  -17.9458 C   0  0  0  0  0  0  0  0  0  0  0  0
   27.2873  -20.3880  -17.3871 C   0  0  1  0  0  0  0  0  0  0  0  0
   27.0682  -20.7771  -15.9754 C   0  0  0  0  0  0  0  0  0  0  0  0
   26.7341  -21.9591  -15.7220 O   0  0  0  0  0  0  0  0  0  0  0  0
   27.2219  -19.8686  -14.9180 N   0  0  0  0  0  0  0  0  0  0  0  0
   26.9951  -20.2309  -13.5431 C   0  0  1  0  0  0  0  0  0  0  0  0
   27.9702  -19.5381  -12.6182 C   0  0  0  0  0  0  0  0  0  0  0  0
   27.7381  -19.8909  -11.1954 C   0  0  0  0  0  0  0  0  0  0  0  0
   26.9126  -19.1404  -10.3864 C   0  0  0  0  0  0  0  0  0  0  0  0
   26.7022  -19.4865   -9.0460 C   0  0  0  0  0  0  0  0  0  0  0  0
   27.3177  -20.5906   -8.5005 C   0  0  0  0  0  0  0  0  0  0  0  0
   28.1415  -21.3334   -9.3194 C   0  0  0  0  0  0  0  0  0  0  0  0
   28.3535  -20.9993  -10.6390 C   0  0  0  0  0  0  0  0  0  0  0  0
   25.5869  -20.0016  -13.1294 C   0  0  0  0  0  0  0  0  0  0  0  0
   25.1024  -18.8643  -13.3485 O   0  0  0  0  0  0  0  0  0  0  0  0
   21.9164  -22.1291  -15.3879 C   0  0  0  0  0  0  0  0  0  0  0  0
   22.5284  -21.1164  -14.4751 C   0  0  0  0  0  0  0  0  0  0  0  0
   22.4835  -21.4742  -13.0156 C   0  0  2  0  0  0  0  0  0  0  0  0
   21.0268  -21.3753  -12.5781 C   0  0  0  0  0  0  0  0  0  0  0  0
   23.3913  -20.6911  -12.1378 C   0  0  2  0  0  0  0  0  0  0  0  0
   24.7695  -20.9765  -12.5097 N   0  0  0  0  0  0  0  0  0  0  0  0
   23.1617  -20.9092  -10.6944 C   0  0  0  0  0  0  0  0  0  0  0  0
   23.8647  -21.7672  -10.0623 O   0  0  0  0  0  0  0  0  0  0  0  0
   22.2156  -20.2352   -9.9502 O   0  0  0  0  0  0  0  0  0  0  0  0
  1  2  1  0
  2  3  1  0
  4  3  1  0
  5  1  1  0
  5  4  1  0
  5  6  1  1
  7  6  2  0
  8  6  1  0
  9  8  1  0
  9 10  1  1
 10 11  1  0
 11 12  2  0
 12 13  1  0
 14 13  2  0
 15 14  1  0
 16 11  1  0
 16 15  2  0
 17 24  1  0
 17  9  1  0
 18 17  2  0
 20 19  1  0
 21 20  1  0
 21 22  1  1
 23 21  1  0
 23 24  1  6
 25 23  1  0
 26 25  2  0
 27 25  1  0
M  END
$$$$
