PRH.pdb
     RDKit          3D

 29 30  0  0  1  0  0  0  0  0999 V2000
   28.1566  -19.0702  -15.9603 N   0  0  0  0  0  0  0  0  0  0  0  0
   29.3771  -18.6588  -16.5941 C   0  0  0  0  0  0  0  0  0  0  0  0
   29.9749  -19.9181  -17.2299 C   0  0  0  0  0  0  0  0  0  0  0  0
   29.3671  -20.9874  -16.3119 C   0  0  0  0  0  0  0  0  0  0  0  0
   27.9430  -20.4561  -16.2315 C   0  0  1  0  0  0  0  0  0  0  0  0
   27.1558  -21.1560  -15.2150 C   0  0  0  0  0  0  0  0  0  0  0  0
   26.9046  -22.3744  -15.3638 O   0  0  0  0  0  0  0  0  0  0  0  0
   30.6248  -21.2368   -8.2260 N   0  0  0  0  0  0  0  0  0  0  0  0
   31.0360  -21.9059   -9.4115 C   0  0  0  0  0  0  0  0  0  0  0  0
   32.2035  -22.4490   -9.5188 N   0  0  0  0  0  0  0  0  0  0  0  0
   30.1363  -21.9860  -10.5261 N   0  0  0  0  0  0  0  0  0  0  0  0
   28.7907  -21.4901  -10.3919 C   0  0  0  0  0  0  0  0  0  0  0  0
   28.1019  -21.6020  -11.7449 C   0  0  0  0  0  0  0  0  0  0  0  0
   26.7370  -21.0078  -11.7383 C   0  0  0  0  0  0  0  0  0  0  0  0
   25.9424  -21.1881  -12.9970 C   0  0  2  0  0  0  0  0  0  0  0  0
   26.6629  -20.4994  -14.0580 N   0  0  0  0  0  0  0  0  0  0  0  0
   24.5794  -20.6342  -12.8271 C   0  0  0  0  0  0  0  0  0  0  0  0
   24.4384  -19.4036  -12.6421 O   0  0  0  0  0  0  0  0  0  0  0  0
   32.4673  -22.8567  -10.4467 N   0  0  0  0  0  0  0  0  0  0  0  0
   23.3990  -21.4341  -12.8624 C   0  0  2  0  0  0  0  0  0  0  0  0
   22.0871  -20.7978  -12.7117 C   0  0  0  0  0  0  0  0  0  0  0  0
   21.0278  -21.7617  -13.2008 C   0  0  0  0  0  0  0  0  0  0  0  0
   20.1863  -21.1607  -14.2637 C   0  0  0  0  0  0  0  0  0  0  0  0
   20.2027  -19.8413  -14.7063 N   0  0  0  0  0  0  0  0  0  0  0  0
   19.2857  -19.7211  -15.6783 C   0  0  0  0  0  0  0  0  0  0  0  0
   18.6828  -20.9042  -15.8779 N   0  0  0  0  0  0  0  0  0  0  0  0
   19.2397  -21.7611  -15.0147 C   0  0  0  0  0  0  0  0  0  0  0  0
   21.8684  -20.4276  -11.2969 O   0  0  0  0  0  0  0  0  0  0  0  0
   22.5502  -20.9559  -10.3578 O   0  0  0  0  0  0  0  0  0  0  0  0
  1  2  1  0
  3  2  1  0
  4  5  1  0
  4  3  1  0
  5  6  1  1
  5  1  1  0
  6  7  2  0
  9 11  1  0
  9  8  1  0
 10  9  2  0
 12 13  1  0
 12 11  1  0
 13 14  1  0
 15 14  1  1
 16 15  1  0
 16  6  1  0
 17 15  1  0
 18 17  2  0
 19 17  1  0
 20 27  1  0
 20 19  1  0
 20 21  1  6
 22 21  1  0
 23 22  2  0
 24 23  1  0
 25 24  1  0
 25 26  2  0
 26 22  1  0
 27 29  1  0
 28 27  2  0
M  END
$$$$
