PRH.pdb
     RDKit          3D

 29 30  0  0  1  0  0  0  0  0999 V2000
   23.6354  -22.5327  -12.9426 N   0  0  0  0  0  0  0  0  0  0  0  0
   24.7793  -23.3131  -13.3208 C   0  0  0  0  0  0  0  0  0  0  0  0
   25.9650  -22.3435  -13.3592 C   0  0  0  0  0  0  0  0  0  0  0  0
   25.2210  -21.0330  -13.6504 C   0  0  0  0  0  0  0  0  0  0  0  0
   24.0588  -21.1942  -12.6807 C   0  0  1  0  0  0  0  0  0  0  0  0
   23.0246  -20.1807  -12.8949 C   0  0  0  0  0  0  0  0  0  0  0  0
   23.3212  -18.9681  -12.7879 O   0  0  0  0  0  0  0  0  0  0  0  0
   24.5684  -18.9637  -18.6359 N   0  0  0  0  0  0  0  0  0  0  0  0
   23.5024  -19.2317  -19.5382 C   0  0  0  0  0  0  0  0  0  0  0  0
   23.3888  -18.6090  -20.6646 N   0  0  0  0  0  0  0  0  0  0  0  0
   22.5197  -20.2198  -19.1975 N   0  0  0  0  0  0  0  0  0  0  0  0
   22.6581  -20.9700  -17.9757 C   0  0  0  0  0  0  0  0  0  0  0  0
   21.6397  -20.4450  -16.9734 C   0  0  0  0  0  0  0  0  0  0  0  0
   22.0543  -20.6844  -15.5639 C   0  0  0  0  0  0  0  0  0  0  0  0
   21.0834  -20.2336  -14.5141 C   0  0  2  0  0  0  0  0  0  0  0  0
   21.6875  -20.5244  -13.2220 N   0  0  0  0  0  0  0  0  0  0  0  0
   19.7912  -20.9396  -14.6731 C   0  0  0  0  0  0  0  0  0  0  0  0
   19.1501  -20.8078  -15.7409 O   0  0  0  0  0  0  0  0  0  0  0  0
   22.5669  -18.8437  -21.2698 N   0  0  0  0  0  0  0  0  0  0  0  0
   19.2256  -21.7744  -13.6644 C   0  0  1  0  0  0  0  0  0  0  0  0
   17.9235  -22.4075  -13.8933 C   0  0  0  0  0  0  0  0  0  0  0  0
   17.8580  -23.6786  -13.0743 C   0  0  0  0  0  0  0  0  0  0  0  0
   18.8459  -24.6827  -13.5378 C   0  0  0  0  0  0  0  0  0  0  0  0
   19.6599  -24.6063  -14.6642 N   0  0  0  0  0  0  0  0  0  0  0  0
   20.4017  -25.7233  -14.7132 C   0  0  0  0  0  0  0  0  0  0  0  0
   20.0992  -26.5113  -13.6689 N   0  0  0  0  0  0  0  0  0  0  0  0
   19.1581  -25.8664  -12.9705 C   0  0  0  0  0  0  0  0  0  0  0  0
   16.8389  -21.4720  -13.5256 O   0  0  0  0  0  0  0  0  0  0  0  0
   17.0441  -20.4932  -12.7346 O   0  0  0  0  0  0  0  0  0  0  0  0
  1  2  1  0
  3  2  1  0
  4  5  1  0
  4  3  1  0
  5  6  1  6
  5  1  1  0
  6  7  2  0
  9 11  1  0
  9  8  1  0
 10  9  2  0
 12 13  1  0
 12 11  1  0
 13 14  1  0
 15 14  1  6
 16 15  1  0
 16  6  1  0
 17 15  1  0
 18 17  2  0
 19 17  1  0
 20 27  1  0
 20 19  1  0
 20 21  1  6
 22 21  1  0
 23 22  2  0
 24 23  1  0
 25 24  1  0
 25 26  2  0
 26 22  1  0
 27 29  1  0
 28 27  2  0
M  END
$$$$
