PRH.pdb
     RDKit          3D

 29 30  0  0  1  0  0  0  0  0999 V2000
   26.0392  -13.2432  -15.9813 N   0  0  0  0  0  0  0  0  0  0  0  0
   26.6938  -14.5171  -15.8848 C   0  0  0  0  0  0  0  0  0  0  0  0
   26.7295  -15.0886  -17.3059 C   0  0  0  0  0  0  0  0  0  0  0  0
   25.5081  -14.3772  -17.9039 C   0  0  0  0  0  0  0  0  0  0  0  0
   25.7501  -12.9784  -17.3546 C   0  0  1  0  0  0  0  0  0  0  0  0
   24.5991  -12.1002  -17.5710 C   0  0  0  0  0  0  0  0  0  0  0  0
   24.2893  -11.7702  -18.7392 O   0  0  0  0  0  0  0  0  0  0  0  0
   18.3319   -9.2804  -13.0271 N   0  0  0  0  0  0  0  0  0  0  0  0
   17.6662   -9.4019  -14.2778 C   0  0  0  0  0  0  0  0  0  0  0  0
   16.7874   -8.5397  -14.6700 N   0  0  0  0  0  0  0  0  0  0  0  0
   17.9718  -10.5100  -15.1364 N   0  0  0  0  0  0  0  0  0  0  0  0
   19.2084  -11.2274  -14.9600 C   0  0  0  0  0  0  0  0  0  0  0  0
   20.2705  -10.5726  -15.8323 C   0  0  0  0  0  0  0  0  0  0  0  0
   21.5433  -11.3443  -15.8530 C   0  0  0  0  0  0  0  0  0  0  0  0
   22.6442  -10.7619  -16.6879 C   0  0  2  0  0  0  0  0  0  0  0  0
   23.8152  -11.6053  -16.4971 N   0  0  0  0  0  0  0  0  0  0  0  0
   22.9161   -9.3653  -16.2767 C   0  0  0  0  0  0  0  0  0  0  0  0
   23.3669   -9.1428  -15.1296 O   0  0  0  0  0  0  0  0  0  0  0  0
   16.3108   -8.7128  -15.5863 N   0  0  0  0  0  0  0  0  0  0  0  0
   22.6907   -8.2411  -17.1250 C   0  0  2  0  0  0  0  0  0  0  0  0
   22.9646   -6.8902  -16.6266 C   0  0  0  0  0  0  0  0  0  0  0  0
   22.9554   -5.9351  -17.8007 C   0  0  0  0  0  0  0  0  0  0  0  0
   23.2530   -4.5445  -17.3804 C   0  0  0  0  0  0  0  0  0  0  0  0
   24.3970   -4.0862  -16.7334 N   0  0  0  0  0  0  0  0  0  0  0  0
   24.2594   -2.7659  -16.5387 C   0  0  0  0  0  0  0  0  0  0  0  0
   23.0789   -2.3581  -17.0318 N   0  0  0  0  0  0  0  0  0  0  0  0
   22.4854   -3.4458  -17.5359 C   0  0  0  0  0  0  0  0  0  0  0  0
   21.9531   -6.5132  -15.6161 O   0  0  0  0  0  0  0  0  0  0  0  0
   20.7360   -6.8777  -15.7246 O   0  0  0  0  0  0  0  0  0  0  0  0
  1  2  1  0
  3  2  1  0
  4  5  1  0
  4  3  1  0
  5  6  1  1
  5  1  1  0
  6  7  2  0
  9 11  1  0
  9  8  1  0
 10  9  2  0
 12 13  1  0
 12 11  1  0
 13 14  1  0
 15 14  1  1
 16 15  1  0
 16  6  1  0
 17 15  1  0
 18 17  2  0
 19 17  1  0
 20 27  1  0
 20 19  1  0
 20 21  1  6
 22 21  1  0
 23 22  2  0
 24 23  1  0
 25 24  1  0
 25 26  2  0
 26 22  1  0
 27 29  1  0
 28 27  2  0
M  END
$$$$
