PRH.pdb
     RDKit          3D

 29 30  0  0  1  0  0  0  0  0999 V2000
   30.8291  -24.2668  -16.3620 N   0  0  0  0  0  0  0  0  0  0  0  0
   32.2017  -23.9459  -16.6327 C   0  0  0  0  0  0  0  0  0  0  0  0
   32.2488  -23.4571  -18.0840 C   0  0  0  0  0  0  0  0  0  0  0  0
   31.0252  -24.1928  -18.6469 C   0  0  0  0  0  0  0  0  0  0  0  0
   30.0456  -23.9380  -17.5100 C   0  0  1  0  0  0  0  0  0  0  0  0
   28.8235  -24.7306  -17.6544 C   0  0  0  0  0  0  0  0  0  0  0  0
   27.9603  -24.3815  -18.4927 O   0  0  0  0  0  0  0  0  0  0  0  0
   26.7035  -32.0112  -14.7005 N   0  0  0  0  0  0  0  0  0  0  0  0
   26.5584  -32.4401  -16.0486 C   0  0  0  0  0  0  0  0  0  0  0  0
   25.6909  -33.3345  -16.3907 N   0  0  0  0  0  0  0  0  0  0  0  0
   27.3942  -31.8696  -17.0655 N   0  0  0  0  0  0  0  0  0  0  0  0
   28.2361  -30.7450  -16.7472 C   0  0  0  0  0  0  0  0  0  0  0  0
   27.4994  -29.4704  -17.1349 C   0  0  0  0  0  0  0  0  0  0  0  0
   28.3299  -28.2513  -16.9352 C   0  0  0  0  0  0  0  0  0  0  0  0
   27.6710  -26.9504  -17.2841 C   0  0  2  0  0  0  0  0  0  0  0  0
   28.5789  -25.8894  -16.8732 N   0  0  0  0  0  0  0  0  0  0  0  0
   26.3650  -26.8357  -16.5951 C   0  0  0  0  0  0  0  0  0  0  0  0
   26.3314  -26.8477  -15.3432 O   0  0  0  0  0  0  0  0  0  0  0  0
   25.5821  -33.5416  -17.4116 N   0  0  0  0  0  0  0  0  0  0  0  0
   25.1235  -26.7103  -17.2858 C   0  0  2  0  0  0  0  0  0  0  0  0
   23.8756  -26.6147  -16.5228 C   0  0  0  0  0  0  0  0  0  0  0  0
   23.1141  -25.3968  -16.9998 C   0  0  0  0  0  0  0  0  0  0  0  0
   21.8468  -25.2132  -16.2520 C   0  0  0  0  0  0  0  0  0  0  0  0
   21.6922  -25.0825  -14.8750 N   0  0  0  0  0  0  0  0  0  0  0  0
   20.3832  -24.9364  -14.6192 C   0  0  0  0  0  0  0  0  0  0  0  0
   19.6928  -24.9676  -15.7705 N   0  0  0  0  0  0  0  0  0  0  0  0
   20.5933  -25.1354  -16.7453 C   0  0  0  0  0  0  0  0  0  0  0  0
   23.0831  -27.8505  -16.6999 O   0  0  0  0  0  0  0  0  0  0  0  0
   23.1694  -28.5498  -17.7626 O   0  0  0  0  0  0  0  0  0  0  0  0
  1  2  1  0
  3  2  1  0
  4  5  1  0
  4  3  1  0
  5  6  1  6
  5  1  1  0
  6  7  2  0
  9 11  1  0
  9  8  1  0
 10  9  2  0
 12 13  1  0
 12 11  1  0
 13 14  1  0
 15 14  1  1
 16 15  1  0
 16  6  1  0
 17 15  1  0
 18 17  2  0
 19 17  1  0
 20 27  1  0
 20 19  1  0
 20 21  1  6
 22 21  1  0
 23 22  2  0
 24 23  1  0
 25 24  1  0
 25 26  2  0
 26 22  1  0
 27 29  1  0
 28 27  2  0
M  END
$$$$
