PRH.pdb
     RDKit          3D

 29 30  0  0  1  0  0  0  0  0999 V2000
   24.2805  -23.1984  -14.5086 N   0  0  0  0  0  0  0  0  0  0  0  0
   25.4318  -23.0326  -15.3497 C   0  0  0  0  0  0  0  0  0  0  0  0
   26.1109  -21.7366  -14.8951 C   0  0  0  0  0  0  0  0  0  0  0  0
   24.8987  -20.9975  -14.3121 C   0  0  0  0  0  0  0  0  0  0  0  0
   24.2621  -22.1464  -13.5428 C   0  0  1  0  0  0  0  0  0  0  0  0
   22.9272  -21.8010  -13.0514 C   0  0  0  0  0  0  0  0  0  0  0  0
   22.8009  -20.8782  -12.2134 O   0  0  0  0  0  0  0  0  0  0  0  0
   15.3729  -20.0007  -14.4064 N   0  0  0  0  0  0  0  0  0  0  0  0
   16.3638  -19.6717  -15.3719 C   0  0  0  0  0  0  0  0  0  0  0  0
   16.4584  -18.4857  -15.8759 N   0  0  0  0  0  0  0  0  0  0  0  0
   17.2897  -20.6781  -15.8056 N   0  0  0  0  0  0  0  0  0  0  0  0
   17.2398  -21.9922  -15.2179 C   0  0  0  0  0  0  0  0  0  0  0  0
   18.0763  -21.9801  -13.9460 C   0  0  0  0  0  0  0  0  0  0  0  0
   19.5344  -22.0922  -14.2241 C   0  0  0  0  0  0  0  0  0  0  0  0
   20.4240  -22.1556  -13.0188 C   0  0  2  0  0  0  0  0  0  0  0  0
   21.7618  -22.4786  -13.4933 N   0  0  0  0  0  0  0  0  0  0  0  0
   19.9297  -23.1793  -12.0695 C   0  0  0  0  0  0  0  0  0  0  0  0
   20.0653  -24.3917  -12.3529 O   0  0  0  0  0  0  0  0  0  0  0  0
   17.2142  -18.3152  -16.5806 N   0  0  0  0  0  0  0  0  0  0  0  0
   19.2982  -22.8593  -10.8314 C   0  0  2  0  0  0  0  0  0  0  0  0
   18.8391  -23.9379   -9.9515 C   0  0  0  0  0  0  0  0  0  0  0  0
   18.8177  -23.4202   -8.5294 C   0  0  0  0  0  0  0  0  0  0  0  0
   18.2764  -24.4278   -7.5856 C   0  0  0  0  0  0  0  0  0  0  0  0
   17.8620  -25.7230   -7.8821 N   0  0  0  0  0  0  0  0  0  0  0  0
   17.4429  -26.2928   -6.7419 C   0  0  0  0  0  0  0  0  0  0  0  0
   17.5702  -25.4206   -5.7289 N   0  0  0  0  0  0  0  0  0  0  0  0
   18.0750  -24.3003   -6.2576 C   0  0  0  0  0  0  0  0  0  0  0  0
   17.5004  -24.3986  -10.3784 O   0  0  0  0  0  0  0  0  0  0  0  0
   16.6486  -23.5936  -10.8809 O   0  0  0  0  0  0  0  0  0  0  0  0
  1  2  1  0
  3  2  1  0
  4  5  1  0
  4  3  1  0
  5  6  1  6
  5  1  1  0
  6  7  2  0
  9 11  1  0
  9  8  1  0
 10  9  2  0
 12 13  1  0
 12 11  1  0
 13 14  1  0
 15 14  1  6
 16 15  1  0
 16  6  1  0
 17 15  1  0
 18 17  2  0
 19 17  1  0
 20 27  1  0
 20 19  1  0
 20 21  1  1
 22 21  1  0
 23 22  2  0
 24 23  1  0
 25 24  1  0
 25 26  2  0
 26 22  1  0
 27 29  1  0
 28 27  2  0
M  END
$$$$
