PRH.pdb
     RDKit          3D

 29 30  0  0  1  0  0  0  0  0999 V2000
   26.8874  -20.7685  -16.5467 N   0  0  0  0  0  0  0  0  0  0  0  0
   27.7823  -21.8805  -16.6990 C   0  0  0  0  0  0  0  0  0  0  0  0
   26.9051  -23.1365  -16.7165 C   0  0  0  0  0  0  0  0  0  0  0  0
   25.7046  -22.6276  -15.9070 C   0  0  0  0  0  0  0  0  0  0  0  0
   25.5450  -21.2560  -16.5475 C   0  0  1  0  0  0  0  0  0  0  0  0
   24.5974  -20.4170  -15.8120 C   0  0  0  0  0  0  0  0  0  0  0  0
   25.0235  -19.6412  -14.9253 O   0  0  0  0  0  0  0  0  0  0  0  0
   17.5309  -15.3609  -16.0819 N   0  0  0  0  0  0  0  0  0  0  0  0
   18.8726  -14.8925  -16.1343 C   0  0  0  0  0  0  0  0  0  0  0  0
   19.1698  -13.6499  -15.9417 N   0  0  0  0  0  0  0  0  0  0  0  0
   19.9340  -15.8181  -16.4081 N   0  0  0  0  0  0  0  0  0  0  0  0
   19.6241  -17.2012  -16.6643 C   0  0  0  0  0  0  0  0  0  0  0  0
   20.3505  -18.0537  -15.6332 C   0  0  0  0  0  0  0  0  0  0  0  0
   21.4785  -18.8234  -16.2255 C   0  0  0  0  0  0  0  0  0  0  0  0
   22.2287  -19.7117  -15.2787 C   0  0  2  0  0  0  0  0  0  0  0  0
   23.2025  -20.4507  -16.0690 N   0  0  0  0  0  0  0  0  0  0  0  0
   21.2941  -20.6281  -14.5855 C   0  0  0  0  0  0  0  0  0  0  0  0
   20.9467  -21.6898  -15.1516 O   0  0  0  0  0  0  0  0  0  0  0  0
   20.1843  -13.3931  -15.8987 N   0  0  0  0  0  0  0  0  0  0  0  0
   20.7583  -20.3671  -13.2898 C   0  0  2  0  0  0  0  0  0  0  0  0
   19.8155  -21.3160  -12.6904 C   0  0  0  0  0  0  0  0  0  0  0  0
   20.5079  -22.0197  -11.5432 C   0  0  0  0  0  0  0  0  0  0  0  0
   19.5983  -22.9612  -10.8465 C   0  0  0  0  0  0  0  0  0  0  0  0
   18.2576  -23.2036  -11.1309 N   0  0  0  0  0  0  0  0  0  0  0  0
   17.8122  -24.1248  -10.2629 C   0  0  0  0  0  0  0  0  0  0  0  0
   18.8074  -24.4831   -9.4358 N   0  0  0  0  0  0  0  0  0  0  0  0
   19.8778  -23.7701   -9.8034 C   0  0  0  0  0  0  0  0  0  0  0  0
   18.6052  -20.6000  -12.2330 O   0  0  0  0  0  0  0  0  0  0  0  0
   18.6546  -19.3829  -11.8563 O   0  0  0  0  0  0  0  0  0  0  0  0
  1  2  1  0
  3  2  1  0
  4  5  1  0
  4  3  1  0
  5  6  1  1
  5  1  1  0
  6  7  2  0
  9 11  1  0
  9  8  1  0
 10  9  2  0
 12 13  1  0
 12 11  1  0
 13 14  1  0
 15 14  1  6
 16 15  1  0
 16  6  1  0
 17 15  1  0
 18 17  2  0
 19 17  1  0
 20 27  1  0
 20 19  1  0
 20 21  1  1
 22 21  1  0
 23 22  2  0
 24 23  1  0
 25 24  1  0
 25 26  2  0
 26 22  1  0
 27 29  1  0
 28 27  2  0
M  END
$$$$
