PRH.pdb
     RDKit          3D

 29 30  0  0  1  0  0  0  0  0999 V2000
   29.3578  -19.5104  -17.8592 N   0  0  0  0  0  0  0  0  0  0  0  0
   30.1937  -18.7215  -18.7191 C   0  0  0  0  0  0  0  0  0  0  0  0
   29.4969  -17.3649  -18.8662 C   0  0  0  0  0  0  0  0  0  0  0  0
   28.0432  -17.7901  -18.6186 C   0  0  0  0  0  0  0  0  0  0  0  0
   28.2598  -18.7078  -17.4236 C   0  0  1  0  0  0  0  0  0  0  0  0
   27.0522  -19.4655  -17.0913 C   0  0  0  0  0  0  0  0  0  0  0  0
   26.0837  -18.8753  -16.5591 O   0  0  0  0  0  0  0  0  0  0  0  0
   28.6118  -26.7352  -16.3582 N   0  0  0  0  0  0  0  0  0  0  0  0
   27.2122  -26.8961  -16.5514 C   0  0  0  0  0  0  0  0  0  0  0  0
   26.5328  -27.7888  -15.9103 N   0  0  0  0  0  0  0  0  0  0  0  0
   26.5251  -26.0480  -17.4826 N   0  0  0  0  0  0  0  0  0  0  0  0
   27.2510  -25.0122  -18.1717 C   0  0  0  0  0  0  0  0  0  0  0  0
   27.1218  -23.7234  -17.3717 C   0  0  0  0  0  0  0  0  0  0  0  0
   25.8947  -22.9575  -17.7228 C   0  0  0  0  0  0  0  0  0  0  0  0
   25.7419  -21.6274  -17.0477 C   0  0  2  0  0  0  0  0  0  0  0  0
   26.9378  -20.8554  -17.3521 N   0  0  0  0  0  0  0  0  0  0  0  0
   25.5781  -21.8093  -15.5870 C   0  0  0  0  0  0  0  0  0  0  0  0
   26.3436  -22.5920  -14.9789 O   0  0  0  0  0  0  0  0  0  0  0  0
   25.5036  -27.8435  -16.0962 N   0  0  0  0  0  0  0  0  0  0  0  0
   24.5829  -21.1337  -14.8205 C   0  0  1  0  0  0  0  0  0  0  0  0
   24.5123  -21.3500  -13.3724 C   0  0  0  0  0  0  0  0  0  0  0  0
   25.4451  -20.3692  -12.6953 C   0  0  0  0  0  0  0  0  0  0  0  0
   25.3530  -20.4535  -11.2176 C   0  0  0  0  0  0  0  0  0  0  0  0
   24.5340  -21.2956  -10.4711 N   0  0  0  0  0  0  0  0  0  0  0  0
   24.7634  -21.0485   -9.1724 C   0  0  0  0  0  0  0  0  0  0  0  0
   25.6923  -20.0862   -9.0538 N   0  0  0  0  0  0  0  0  0  0  0  0
   26.0363  -19.7394  -10.2991 C   0  0  0  0  0  0  0  0  0  0  0  0
   23.1192  -21.1794  -12.9068 O   0  0  0  0  0  0  0  0  0  0  0  0
   22.8197  -21.2362  -11.6687 O   0  0  0  0  0  0  0  0  0  0  0  0
  1  2  1  0
  3  2  1  0
  4  5  1  0
  4  3  1  0
  5  6  1  6
  5  1  1  0
  6  7  2  0
  9 11  1  0
  9  8  1  0
 10  9  2  0
 12 13  1  0
 12 11  1  0
 13 14  1  0
 15 14  1  6
 16 15  1  0
 16  6  1  0
 17 15  1  0
 18 17  2  0
 19 17  1  0
 20 27  1  0
 20 19  1  0
 20 21  1  1
 22 21  1  0
 23 22  2  0
 24 23  1  0
 25 24  1  0
 25 26  2  0
 26 22  1  0
 27 29  1  0
 28 27  2  0
M  END
$$$$
