PRH.pdb
     RDKit          3D

 29 30  0  0  1  0  0  0  0  0999 V2000
   22.6755  -19.0463  -19.9751 N   0  0  0  0  0  0  0  0  0  0  0  0
   23.1468  -18.7627  -21.3009 C   0  0  0  0  0  0  0  0  0  0  0  0
   23.2278  -20.1110  -22.0240 C   0  0  0  0  0  0  0  0  0  0  0  0
   23.4325  -21.0407  -20.8201 C   0  0  0  0  0  0  0  0  0  0  0  0
   22.3990  -20.4439  -19.8752 C   0  0  1  0  0  0  0  0  0  0  0  0
   22.5184  -20.9880  -18.5215 C   0  0  0  0  0  0  0  0  0  0  0  0
   22.2913  -22.2045  -18.3262 O   0  0  0  0  0  0  0  0  0  0  0  0
   28.7830  -22.2418  -15.8054 N   0  0  0  0  0  0  0  0  0  0  0  0
   28.6222  -21.1244  -16.6700 C   0  0  0  0  0  0  0  0  0  0  0  0
   29.2523  -21.0353  -17.7946 N   0  0  0  0  0  0  0  0  0  0  0  0
   27.7375  -20.0600  -16.2924 N   0  0  0  0  0  0  0  0  0  0  0  0
   26.7905  -20.2657  -15.2267 C   0  0  0  0  0  0  0  0  0  0  0  0
   25.5425  -20.9109  -15.8129 C   0  0  0  0  0  0  0  0  0  0  0  0
   24.3075  -20.1365  -15.5113 C   0  0  0  0  0  0  0  0  0  0  0  0
   23.0332  -20.7026  -16.0626 C   0  0  2  0  0  0  0  0  0  0  0  0
   22.8848  -20.1812  -17.4136 N   0  0  0  0  0  0  0  0  0  0  0  0
   21.8873  -20.3137  -15.2087 C   0  0  0  0  0  0  0  0  0  0  0  0
   21.6088  -19.1000  -15.0752 O   0  0  0  0  0  0  0  0  0  0  0  0
   29.0880  -20.1813  -18.3782 N   0  0  0  0  0  0  0  0  0  0  0  0
   21.0694  -21.2566  -14.5185 C   0  0  2  0  0  0  0  0  0  0  0  0
   20.0307  -20.7804  -13.6004 C   0  0  0  0  0  0  0  0  0  0  0  0
   18.9047  -21.7916  -13.5846 C   0  0  0  0  0  0  0  0  0  0  0  0
   17.8035  -21.3741  -12.6834 C   0  0  0  0  0  0  0  0  0  0  0  0
   17.1459  -20.1475  -12.6686 N   0  0  0  0  0  0  0  0  0  0  0  0
   16.2188  -20.1887  -11.6996 C   0  0  0  0  0  0  0  0  0  0  0  0
   16.2532  -21.3863  -11.0934 N   0  0  0  0  0  0  0  0  0  0  0  0
   17.2162  -22.0884  -11.7010 C   0  0  0  0  0  0  0  0  0  0  0  0
   20.6032  -20.5888  -12.2506 O   0  0  0  0  0  0  0  0  0  0  0  0
   21.5292  -21.3449  -11.8070 O   0  0  0  0  0  0  0  0  0  0  0  0
  1  2  1  0
  3  2  1  0
  4  5  1  0
  4  3  1  0
  5  6  1  1
  5  1  1  0
  6  7  2  0
  9 11  1  0
  9  8  1  0
 10  9  2  0
 12 13  1  0
 12 11  1  0
 13 14  1  0
 15 14  1  1
 16 15  1  0
 16  6  1  0
 17 15  1  0
 18 17  2  0
 19 17  1  0
 20 27  1  0
 20 19  1  0
 20 21  1  6
 22 21  1  0
 23 22  2  0
 24 23  1  0
 25 24  1  0
 25 26  2  0
 26 22  1  0
 27 29  1  0
 28 27  2  0
M  END
$$$$
