PRH.pdb
     RDKit          3D

 29 30  0  0  1  0  0  0  0  0999 V2000
   29.2095  -20.8748  -13.1044 N   0  0  0  0  0  0  0  0  0  0  0  0
   30.1584  -21.0981  -12.0507 C   0  0  0  0  0  0  0  0  0  0  0  0
   29.3740  -20.9922  -10.7389 C   0  0  0  0  0  0  0  0  0  0  0  0
   28.2340  -20.0691  -11.1903 C   0  0  0  0  0  0  0  0  0  0  0  0
   27.9119  -20.7191  -12.5284 C   0  0  1  0  0  0  0  0  0  0  0  0
   26.9918  -19.9044  -13.3237 C   0  0  0  0  0  0  0  0  0  0  0  0
   27.1109  -18.6572  -13.3144 O   0  0  0  0  0  0  0  0  0  0  0  0
   26.1137  -19.5762  -21.4598 N   0  0  0  0  0  0  0  0  0  0  0  0
   26.3108  -18.4187  -20.6576 C   0  0  0  0  0  0  0  0  0  0  0  0
   26.9154  -17.3700  -21.1095 N   0  0  0  0  0  0  0  0  0  0  0  0
   25.8284  -18.4045  -19.3066 N   0  0  0  0  0  0  0  0  0  0  0  0
   25.0780  -19.5278  -18.8067 C   0  0  0  0  0  0  0  0  0  0  0  0
   24.6349  -19.2132  -17.3847 C   0  0  0  0  0  0  0  0  0  0  0  0
   25.4471  -19.9314  -16.3647 C   0  0  0  0  0  0  0  0  0  0  0  0
   25.0560  -19.6949  -14.9366 C   0  0  2  0  0  0  0  0  0  0  0  0
   25.9619  -20.4804  -14.1112 N   0  0  0  0  0  0  0  0  0  0  0  0
   23.6470  -20.0952  -14.7174 C   0  0  0  0  0  0  0  0  0  0  0  0
   23.3518  -21.3122  -14.7088 O   0  0  0  0  0  0  0  0  0  0  0  0
   27.0673  -16.5726  -20.4476 N   0  0  0  0  0  0  0  0  0  0  0  0
   22.5900  -19.1598  -14.5123 C   0  0  2  0  0  0  0  0  0  0  0  0
   21.2464  -19.6447  -14.1833 C   0  0  0  0  0  0  0  0  0  0  0  0
   20.7837  -18.9537  -12.9188 C   0  0  0  0  0  0  0  0  0  0  0  0
   21.3225  -19.6119  -11.7041 C   0  0  0  0  0  0  0  0  0  0  0  0
   22.1491  -20.7302  -11.6480 N   0  0  0  0  0  0  0  0  0  0  0  0
   22.3998  -20.9930  -10.3563 C   0  0  0  0  0  0  0  0  0  0  0  0
   21.7710  -20.0933   -9.5830 N   0  0  0  0  0  0  0  0  0  0  0  0
   21.1257  -19.2676  -10.4144 C   0  0  0  0  0  0  0  0  0  0  0  0
   20.3271  -19.3796  -15.3108 O   0  0  0  0  0  0  0  0  0  0  0  0
   20.6060  -18.5179  -16.2083 O   0  0  0  0  0  0  0  0  0  0  0  0
  1  2  1  0
  3  2  1  0
  4  5  1  0
  4  3  1  0
  5  6  1  6
  5  1  1  0
  6  7  2  0
  9 11  1  0
  9  8  1  0
 10  9  2  0
 12 13  1  0
 12 11  1  0
 13 14  1  0
 15 14  1  6
 16 15  1  0
 16  6  1  0
 17 15  1  0
 18 17  2  0
 19 17  1  0
 20 27  1  0
 20 19  1  0
 20 21  1  1
 22 21  1  0
 23 22  2  0
 24 23  1  0
 25 24  1  0
 25 26  2  0
 26 22  1  0
 27 29  1  0
 28 27  2  0
M  END
$$$$
