PRH.pdb
     RDKit          3D

 29 30  0  0  1  0  0  0  0  0999 V2000
   23.7141  -22.7837  -13.2982 N   0  0  0  0  0  0  0  0  0  0  0  0
   25.0807  -22.5686  -13.6812 C   0  0  0  0  0  0  0  0  0  0  0  0
   25.0849  -21.3197  -14.5687 C   0  0  0  0  0  0  0  0  0  0  0  0
   23.6515  -21.3823  -15.1139 C   0  0  0  0  0  0  0  0  0  0  0  0
   22.9171  -21.7219  -13.8246 C   0  0  1  0  0  0  0  0  0  0  0  0
   21.5194  -22.0807  -14.0708 C   0  0  0  0  0  0  0  0  0  0  0  0
   20.7177  -21.1987  -14.4569 O   0  0  0  0  0  0  0  0  0  0  0  0
   19.3359  -28.4771  -18.7098 N   0  0  0  0  0  0  0  0  0  0  0  0
   19.6945  -27.1055  -18.8213 C   0  0  0  0  0  0  0  0  0  0  0  0
   20.3097  -26.6430  -19.8591 N   0  0  0  0  0  0  0  0  0  0  0  0
   19.3684  -26.2010  -17.7565 N   0  0  0  0  0  0  0  0  0  0  0  0
   18.6725  -26.6907  -16.5944 C   0  0  0  0  0  0  0  0  0  0  0  0
   18.4824  -25.5314  -15.6261 C   0  0  0  0  0  0  0  0  0  0  0  0
   19.7766  -24.9705  -15.1505 C   0  0  0  0  0  0  0  0  0  0  0  0
   19.6756  -23.8049  -14.2127 C   0  0  2  0  0  0  0  0  0  0  0  0
   21.0357  -23.4016  -13.8865 N   0  0  0  0  0  0  0  0  0  0  0  0
   18.9235  -24.1890  -12.9960 C   0  0  0  0  0  0  0  0  0  0  0  0
   19.3742  -25.0965  -12.2600 O   0  0  0  0  0  0  0  0  0  0  0  0
   20.5204  -25.6173  -19.8831 N   0  0  0  0  0  0  0  0  0  0  0  0
   17.6960  -23.5751  -12.6078 C   0  0  1  0  0  0  0  0  0  0  0  0
   16.9873  -24.0592  -11.4195 C   0  0  0  0  0  0  0  0  0  0  0  0
   17.2106  -23.0729  -10.2934 C   0  0  0  0  0  0  0  0  0  0  0  0
   18.2233  -23.5621   -9.3269 C   0  0  0  0  0  0  0  0  0  0  0  0
   18.9121  -24.7708   -9.3676 N   0  0  0  0  0  0  0  0  0  0  0  0
   19.7310  -24.8145   -8.3056 C   0  0  0  0  0  0  0  0  0  0  0  0
   19.5974  -23.6882   -7.5868 N   0  0  0  0  0  0  0  0  0  0  0  0
   18.6828  -22.9443   -8.2189 C   0  0  0  0  0  0  0  0  0  0  0  0
   15.5485  -24.2161  -11.7223 O   0  0  0  0  0  0  0  0  0  0  0  0
   14.9865  -23.5447  -12.6493 O   0  0  0  0  0  0  0  0  0  0  0  0
  1  2  1  0
  3  2  1  0
  4  5  1  0
  4  3  1  0
  5  6  1  6
  5  1  1  0
  6  7  2  0
  9 11  1  0
  9  8  1  0
 10  9  2  0
 12 13  1  0
 12 11  1  0
 13 14  1  0
 15 14  1  6
 16 15  1  0
 16  6  1  0
 17 15  1  0
 18 17  2  0
 19 17  1  0
 20 27  1  0
 20 19  1  0
 20 21  1  1
 22 21  1  0
 23 22  2  0
 24 23  1  0
 25 24  1  0
 25 26  2  0
 26 22  1  0
 27 29  1  0
 28 27  2  0
M  END
$$$$
