PRH.pdb
     RDKit          3D

 29 30  0  0  1  0  0  0  0  0999 V2000
   25.7748  -10.3863  -15.4302 N   0  0  0  0  0  0  0  0  0  0  0  0
   26.6411  -11.5291  -15.4936 C   0  0  0  0  0  0  0  0  0  0  0  0
   27.0046  -11.7092  -16.9711 C   0  0  0  0  0  0  0  0  0  0  0  0
   25.7752  -11.0619  -17.6229 C   0  0  0  0  0  0  0  0  0  0  0  0
   25.6542   -9.8283  -16.7393 C   0  0  1  0  0  0  0  0  0  0  0  0
   24.4020   -9.1081  -16.9758 C   0  0  0  0  0  0  0  0  0  0  0  0
   24.1947   -8.5882  -18.0967 O   0  0  0  0  0  0  0  0  0  0  0  0
   17.9490  -13.4652  -14.8707 N   0  0  0  0  0  0  0  0  0  0  0  0
   18.4818  -13.5181  -16.1881 C   0  0  0  0  0  0  0  0  0  0  0  0
   18.1808  -14.4701  -17.0084 N   0  0  0  0  0  0  0  0  0  0  0  0
   19.3802  -12.4901  -16.6291 N   0  0  0  0  0  0  0  0  0  0  0  0
   19.6434  -11.3604  -15.7752 C   0  0  0  0  0  0  0  0  0  0  0  0
   20.6452  -10.4534  -16.4762 C   0  0  0  0  0  0  0  0  0  0  0  0
   21.0827   -9.3192  -15.6170 C   0  0  0  0  0  0  0  0  0  0  0  0
   22.0955   -8.3953  -16.2244 C   0  0  2  0  0  0  0  0  0  0  0  0
   23.4064   -8.9763  -15.9737 N   0  0  0  0  0  0  0  0  0  0  0  0
   21.9833   -7.0456  -15.6250 C   0  0  0  0  0  0  0  0  0  0  0  0
   22.3836   -6.8624  -14.4525 O   0  0  0  0  0  0  0  0  0  0  0  0
   18.5980  -14.4354  -17.9684 N   0  0  0  0  0  0  0  0  0  0  0  0
   21.4370   -5.9244  -16.3169 C   0  0  1  0  0  0  0  0  0  0  0  0
   21.3006   -4.6404  -15.6231 C   0  0  0  0  0  0  0  0  0  0  0  0
   21.7890   -3.5435  -16.5445 C   0  0  0  0  0  0  0  0  0  0  0  0
   23.2239   -3.7069  -16.8813 C   0  0  0  0  0  0  0  0  0  0  0  0
   23.7597   -4.2366  -18.0515 N   0  0  0  0  0  0  0  0  0  0  0  0
   25.0968   -4.2005  -17.9457 C   0  0  0  0  0  0  0  0  0  0  0  0
   25.4411   -3.6715  -16.7606 N   0  0  0  0  0  0  0  0  0  0  0  0
   24.2971   -3.3796  -16.1318 C   0  0  0  0  0  0  0  0  0  0  0  0
   19.8904   -4.4287  -15.2318 O   0  0  0  0  0  0  0  0  0  0  0  0
   18.9805   -5.2660  -15.5430 O   0  0  0  0  0  0  0  0  0  0  0  0
  1  2  1  0
  3  2  1  0
  4  5  1  0
  4  3  1  0
  5  6  1  1
  5  1  1  0
  6  7  2  0
  9 11  1  0
  9  8  1  0
 10  9  2  0
 12 13  1  0
 12 11  1  0
 13 14  1  0
 15 14  1  1
 16 15  1  0
 16  6  1  0
 17 15  1  0
 18 17  2  0
 19 17  1  0
 20 27  1  0
 20 19  1  0
 20 21  1  1
 22 21  1  0
 23 22  2  0
 24 23  1  0
 25 24  1  0
 25 26  2  0
 26 22  1  0
 27 29  1  0
 28 27  2  0
M  END
$$$$
