PRH.pdb
     RDKit          3D

 29 30  0  0  1  0  0  0  0  0999 V2000
   28.6515  -23.1210  -16.3471 N   0  0  0  0  0  0  0  0  0  0  0  0
   29.9696  -23.3126  -16.8824 C   0  0  0  0  0  0  0  0  0  0  0  0
   30.2985  -22.0430  -17.6745 C   0  0  0  0  0  0  0  0  0  0  0  0
   28.8788  -21.5877  -18.0388 C   0  0  0  0  0  0  0  0  0  0  0  0
   28.2008  -21.8111  -16.6944 C   0  0  1  0  0  0  0  0  0  0  0  0
   26.7460  -21.6779  -16.7879 C   0  0  0  0  0  0  0  0  0  0  0  0
   26.2379  -20.5359  -16.8729 O   0  0  0  0  0  0  0  0  0  0  0  0
   19.3684  -25.6041  -16.4270 N   0  0  0  0  0  0  0  0  0  0  0  0
   19.4692  -25.3686  -17.8258 C   0  0  0  0  0  0  0  0  0  0  0  0
   18.4276  -25.1463  -18.5573 N   0  0  0  0  0  0  0  0  0  0  0  0
   20.7597  -25.3760  -18.4525 N   0  0  0  0  0  0  0  0  0  0  0  0
   21.9422  -25.5352  -17.6456 C   0  0  0  0  0  0  0  0  0  0  0  0
   22.4083  -24.1556  -17.2015 C   0  0  0  0  0  0  0  0  0  0  0  0
   23.8912  -24.0267  -17.2113 C   0  0  0  0  0  0  0  0  0  0  0  0
   24.4319  -22.6965  -16.7797 C   0  0  2  0  0  0  0  0  0  0  0  0
   25.8836  -22.8044  -16.7858 N   0  0  0  0  0  0  0  0  0  0  0  0
   23.9254  -22.3496  -15.4318 C   0  0  0  0  0  0  0  0  0  0  0  0
   24.3994  -22.9353  -14.4315 O   0  0  0  0  0  0  0  0  0  0  0  0
   18.5770  -24.9891  -19.5819 N   0  0  0  0  0  0  0  0  0  0  0  0
   22.9129  -21.3714  -15.2036 C   0  0  1  0  0  0  0  0  0  0  0  0
   22.6137  -20.9436  -13.8339 C   0  0  0  0  0  0  0  0  0  0  0  0
   23.6927  -19.9816  -13.3856 C   0  0  0  0  0  0  0  0  0  0  0  0
   24.3999  -20.4726  -12.1782 C   0  0  0  0  0  0  0  0  0  0  0  0
   24.1194  -21.6231  -11.4468 N   0  0  0  0  0  0  0  0  0  0  0  0
   24.9972  -21.6921  -10.4344 C   0  0  0  0  0  0  0  0  0  0  0  0
   25.8270  -20.6376  -10.4847 N   0  0  0  0  0  0  0  0  0  0  0  0
   25.4510  -19.9126  -11.5441 C   0  0  0  0  0  0  0  0  0  0  0  0
   21.2760  -20.3152  -13.7852 O   0  0  0  0  0  0  0  0  0  0  0  0
   20.6852  -19.9248  -14.8456 O   0  0  0  0  0  0  0  0  0  0  0  0
  1  2  1  0
  3  2  1  0
  4  5  1  0
  4  3  1  0
  5  6  1  6
  5  1  1  0
  6  7  2  0
  9 11  1  0
  9  8  1  0
 10  9  2  0
 12 13  1  0
 12 11  1  0
 13 14  1  0
 15 14  1  1
 16 15  1  0
 16  6  1  0
 17 15  1  0
 18 17  2  0
 19 17  1  0
 20 27  1  0
 20 19  1  0
 20 21  1  1
 22 21  1  0
 23 22  2  0
 24 23  1  0
 25 24  1  0
 25 26  2  0
 26 22  1  0
 27 29  1  0
 28 27  2  0
M  END
$$$$
