PRH.pdb
     RDKit          3D

 29 30  0  0  1  0  0  0  0  0999 V2000
   16.1442  -21.7080  -15.7668 N   0  0  0  0  0  0  0  0  0  0  0  0
   16.7767  -21.0787  -16.8913 C   0  0  0  0  0  0  0  0  0  0  0  0
   18.2725  -21.3868  -16.7686 C   0  0  0  0  0  0  0  0  0  0  0  0
   18.3757  -21.5782  -15.2493 C   0  0  0  0  0  0  0  0  0  0  0  0
   17.1320  -22.4272  -15.0275 C   0  0  1  0  0  0  0  0  0  0  0  0
   16.8254  -22.5852  -13.6049 C   0  0  0  0  0  0  0  0  0  0  0  0
   17.6445  -23.1738  -12.8617 O   0  0  0  0  0  0  0  0  0  0  0  0
   10.8702  -18.0734   -8.8746 N   0  0  0  0  0  0  0  0  0  0  0  0
   11.5365  -18.8663   -7.9001 C   0  0  0  0  0  0  0  0  0  0  0  0
   11.2761  -18.7595   -6.6391 N   0  0  0  0  0  0  0  0  0  0  0  0
   12.5280  -19.8151   -8.3186 N   0  0  0  0  0  0  0  0  0  0  0  0
   13.1320  -19.6864   -9.6199 C   0  0  0  0  0  0  0  0  0  0  0  0
   14.0062  -20.9084   -9.8651 C   0  0  0  0  0  0  0  0  0  0  0  0
   14.5605  -20.9423  -11.2462 C   0  0  0  0  0  0  0  0  0  0  0  0
   15.3250  -22.1796  -11.6107 C   0  0  2  0  0  0  0  0  0  0  0  0
   15.6247  -22.0919  -13.0325 N   0  0  0  0  0  0  0  0  0  0  0  0
   14.5232  -23.3868  -11.3050 C   0  0  0  0  0  0  0  0  0  0  0  0
   13.4616  -23.5916  -11.9370 O   0  0  0  0  0  0  0  0  0  0  0  0
   11.7944  -19.3873   -5.9801 N   0  0  0  0  0  0  0  0  0  0  0  0
   14.8962  -24.3450  -10.3166 C   0  0  2  0  0  0  0  0  0  0  0  0
   14.0200  -25.4892  -10.0488 C   0  0  0  0  0  0  0  0  0  0  0  0
   14.8054  -26.5226   -9.2705 C   0  0  0  0  0  0  0  0  0  0  0  0
   14.0221  -27.7640   -9.0594 C   0  0  0  0  0  0  0  0  0  0  0  0
   12.7425  -28.0433   -9.5301 N   0  0  0  0  0  0  0  0  0  0  0  0
   12.4092  -29.2740   -9.1125 C   0  0  0  0  0  0  0  0  0  0  0  0
   13.4178  -29.7953   -8.3956 N   0  0  0  0  0  0  0  0  0  0  0  0
   14.3828  -28.8691   -8.3745 C   0  0  0  0  0  0  0  0  0  0  0  0
   12.8257  -25.0424   -9.3001 O   0  0  0  0  0  0  0  0  0  0  0  0
   12.8689  -24.0373   -8.5166 O   0  0  0  0  0  0  0  0  0  0  0  0
  1  2  1  0
  3  2  1  0
  4  5  1  0
  4  3  1  0
  5  6  1  1
  5  1  1  0
  6  7  2  0
  9 11  1  0
  9  8  1  0
 10  9  2  0
 12 13  1  0
 12 11  1  0
 13 14  1  0
 15 14  1  6
 16 15  1  0
 16  6  1  0
 17 15  1  0
 18 17  2  0
 19 17  1  0
 20 27  1  0
 20 19  1  0
 20 21  1  1
 22 21  1  0
 23 22  2  0
 24 23  1  0
 25 24  1  0
 25 26  2  0
 26 22  1  0
 27 29  1  0
 28 27  2  0
M  END
$$$$
