PRH.pdb
     RDKit          3D

 29 30  0  0  1  0  0  0  0  0999 V2000
   28.3127  -21.3276  -17.2457 N   0  0  0  0  0  0  0  0  0  0  0  0
   29.1099  -21.2895  -18.4389 C   0  0  0  0  0  0  0  0  0  0  0  0
   29.8379  -19.9415  -18.4242 C   0  0  0  0  0  0  0  0  0  0  0  0
   28.8540  -19.1227  -17.5774 C   0  0  0  0  0  0  0  0  0  0  0  0
   28.5653  -20.1445  -16.4867 C   0  0  1  0  0  0  0  0  0  0  0  0
   27.4543  -19.7284  -15.6292 C   0  0  0  0  0  0  0  0  0  0  0  0
   27.6056  -18.7527  -14.8580 O   0  0  0  0  0  0  0  0  0  0  0  0
   19.7643  -20.2417  -13.2360 N   0  0  0  0  0  0  0  0  0  0  0  0
   19.5325  -19.3621  -14.3291 C   0  0  0  0  0  0  0  0  0  0  0  0
   18.6537  -18.4167  -14.2700 N   0  0  0  0  0  0  0  0  0  0  0  0
   20.2907  -19.5205  -15.5367 N   0  0  0  0  0  0  0  0  0  0  0  0
   21.3413  -20.5041  -15.5939 C   0  0  0  0  0  0  0  0  0  0  0  0
   22.5576  -19.9487  -14.8660 C   0  0  0  0  0  0  0  0  0  0  0  0
   23.8314  -20.2557  -15.5723 C   0  0  0  0  0  0  0  0  0  0  0  0
   25.0860  -20.0082  -14.7893 C   0  0  2  0  0  0  0  0  0  0  0  0
   26.2022  -20.3954  -15.6397 N   0  0  0  0  0  0  0  0  0  0  0  0
   25.0705  -20.7936  -13.5337 C   0  0  0  0  0  0  0  0  0  0  0  0
   25.0406  -22.0441  -13.5954 O   0  0  0  0  0  0  0  0  0  0  0  0
   18.5414  -17.8033  -15.1115 N   0  0  0  0  0  0  0  0  0  0  0  0
   25.0879  -20.1986  -12.2376 C   0  0  2  0  0  0  0  0  0  0  0  0
   25.1611  -21.0527  -11.0486 C   0  0  0  0  0  0  0  0  0  0  0  0
   26.0976  -20.4061  -10.0509 C   0  0  0  0  0  0  0  0  0  0  0  0
   27.4998  -20.4054  -10.5336 C   0  0  0  0  0  0  0  0  0  0  0  0
   27.9762  -20.9121  -11.7391 N   0  0  0  0  0  0  0  0  0  0  0  0
   29.3017  -20.7078  -11.7770 C   0  0  0  0  0  0  0  0  0  0  0  0
   29.6954  -20.0930  -10.6500 N   0  0  0  0  0  0  0  0  0  0  0  0
   28.5937  -19.9188   -9.9115 C   0  0  0  0  0  0  0  0  0  0  0  0
   23.8091  -21.2371  -10.4790 O   0  0  0  0  0  0  0  0  0  0  0  0
   23.6209  -21.9212   -9.4196 O   0  0  0  0  0  0  0  0  0  0  0  0
  1  2  1  0
  3  2  1  0
  4  5  1  0
  4  3  1  0
  5  6  1  6
  5  1  1  0
  6  7  2  0
  9 11  1  0
  9  8  1  0
 10  9  2  0
 12 13  1  0
 12 11  1  0
 13 14  1  0
 15 14  1  6
 16 15  1  0
 16  6  1  0
 17 15  1  0
 18 17  2  0
 19 17  1  0
 20 27  1  0
 20 19  1  0
 20 21  1  6
 22 21  1  0
 23 22  2  0
 24 23  1  0
 25 24  1  0
 25 26  2  0
 26 22  1  0
 27 29  1  0
 28 27  2  0
M  END
$$$$
