VFP.pdb
     RDKit          3D

 26 27  0  0  1  0  0  0  0  0999 V2000
   23.1380  -19.5774  -12.7980 C   0  0  0  0  0  0  0  0  0  0  0  0
   23.7645  -20.0910  -11.5441 C   0  0  1  0  0  0  0  0  0  0  0  0
   22.9926  -21.2917  -11.0544 C   0  0  0  0  0  0  0  0  0  0  0  0
   25.2397  -20.3880  -11.6838 C   0  0  2  0  0  0  0  0  0  0  0  0
   25.3854  -21.5101  -12.5945 N   0  0  0  0  0  0  0  0  0  0  0  0
   25.7801  -20.7405  -10.3465 C   0  0  0  0  0  0  0  0  0  0  0  0
   25.7451  -21.9511  -10.0084 O   0  0  0  0  0  0  0  0  0  0  0  0
   26.3281  -19.7447   -9.4561 N   0  0  0  0  0  0  0  0  0  0  0  0
   26.8314  -20.1611   -8.1955 C   0  0  1  0  0  0  0  0  0  0  0  0
   28.0156  -19.2566   -7.8884 C   0  0  0  0  0  0  0  0  0  0  0  0
   28.6203  -19.4478   -6.5817 C   0  0  0  0  0  0  0  0  0  0  0  0
   29.5219  -20.4628   -6.3646 C   0  0  0  0  0  0  0  0  0  0  0  0
   30.1214  -20.6806   -5.1363 C   0  0  0  0  0  0  0  0  0  0  0  0
   29.8242  -19.8651   -4.0672 C   0  0  0  0  0  0  0  0  0  0  0  0
   28.9262  -18.8455   -4.2632 C   0  0  0  0  0  0  0  0  0  0  0  0
   28.3314  -18.6308   -5.4851 C   0  0  0  0  0  0  0  0  0  0  0  0
   25.9063  -20.3159   -7.0877 C   0  0  0  0  0  0  0  0  0  0  0  0
   25.2147  -19.2712   -6.8230 O   0  0  0  0  0  0  0  0  0  0  0  0
   25.6625  -21.4476   -6.2656 N   0  0  0  0  0  0  0  0  0  0  0  0
   26.2373  -22.7546   -6.6231 C   0  0  0  0  0  0  0  0  0  0  0  0
   26.0564  -23.6162   -5.3831 C   0  0  0  0  0  0  0  0  0  0  0  0
   25.7800  -22.6241   -4.2786 C   0  0  0  0  0  0  0  0  0  0  0  0
   24.9104  -21.6228   -5.0870 C   0  0  1  0  0  0  0  0  0  0  0  0
   24.6003  -20.4759   -4.2479 C   0  0  0  0  0  0  0  0  0  0  0  0
   25.2700  -19.3059   -4.0626 O   0  0  0  0  0  0  0  0  0  0  0  0
   23.5114  -20.5863   -3.5630 O   0  0  0  0  0  0  0  0  0  0  0  0
  2  4  1  0
  2  1  1  6
  3  2  1  0
  4  5  1  6
  6  4  1  0
  6  7  2  0
  8  6  1  0
  9  8  1  0
  9 10  1  1
 11 10  1  0
 11 12  2  0
 13 12  1  0
 14 13  2  0
 15 16  2  0
 15 14  1  0
 16 11  1  0
 17 19  1  0
 17  9  1  0
 18 17  2  0
 19 20  1  0
 21 20  1  0
 22 23  1  0
 22 21  1  0
 23 19  1  0
 23 24  1  1
 25 24  1  0
 26 24  2  0
M  END
$$$$
