VFP.pdb
     RDKit          3D

 26 27  0  0  1  0  0  0  0  0999 V2000
   23.6545  -19.8957  -13.1770 C   0  0  0  0  0  0  0  0  0  0  0  0
   24.2423  -20.4010  -11.9010 C   0  0  1  0  0  0  0  0  0  0  0  0
   23.7027  -21.7806  -11.6133 C   0  0  0  0  0  0  0  0  0  0  0  0
   25.7531  -20.3706  -11.8783 C   0  0  2  0  0  0  0  0  0  0  0  0
   26.2343  -21.3718  -12.8142 N   0  0  0  0  0  0  0  0  0  0  0  0
   26.2122  -20.6925  -10.5034 C   0  0  0  0  0  0  0  0  0  0  0  0
   26.4249  -21.9017  -10.2320 O   0  0  0  0  0  0  0  0  0  0  0  0
   26.4117  -19.6692   -9.5045 N   0  0  0  0  0  0  0  0  0  0  0  0
   26.8918  -20.0516   -8.2242 C   0  0  1  0  0  0  0  0  0  0  0  0
   27.7753  -18.9111   -7.7410 C   0  0  0  0  0  0  0  0  0  0  0  0
   28.4096  -19.1206   -6.4513 C   0  0  0  0  0  0  0  0  0  0  0  0
   27.8828  -18.5657   -5.3089 C   0  0  0  0  0  0  0  0  0  0  0  0
   28.4546  -18.7399   -4.0606 C   0  0  0  0  0  0  0  0  0  0  0  0
   29.5984  -19.4942   -3.9228 C   0  0  0  0  0  0  0  0  0  0  0  0
   30.1403  -20.0570   -5.0515 C   0  0  0  0  0  0  0  0  0  0  0  0
   29.5702  -19.8826   -6.2915 C   0  0  0  0  0  0  0  0  0  0  0  0
   25.9430  -20.5221   -7.2315 C   0  0  0  0  0  0  0  0  0  0  0  0
   24.8767  -19.8189   -7.1404 O   0  0  0  0  0  0  0  0  0  0  0  0
   26.0285  -21.6379   -6.3575 N   0  0  0  0  0  0  0  0  0  0  0  0
   27.1330  -22.6004   -6.4986 C   0  0  0  0  0  0  0  0  0  0  0  0
   27.0911  -23.4358   -5.2285 C   0  0  0  0  0  0  0  0  0  0  0  0
   26.2455  -22.6232   -4.2771 C   0  0  0  0  0  0  0  0  0  0  0  0
   25.2097  -22.0832   -5.3007 C   0  0  1  0  0  0  0  0  0  0  0  0
   24.3199  -21.1485   -4.6298 C   0  0  0  0  0  0  0  0  0  0  0  0
   24.5933  -20.0915   -3.8176 O   0  0  0  0  0  0  0  0  0  0  0  0
   23.0625  -21.3571   -4.8358 O   0  0  0  0  0  0  0  0  0  0  0  0
  2  4  1  0
  2  1  1  6
  3  2  1  0
  4  5  1  6
  6  4  1  0
  6  7  2  0
  8  6  1  0
  9  8  1  0
  9 10  1  1
 11 10  1  0
 11 12  2  0
 13 12  1  0
 14 13  2  0
 15 16  2  0
 15 14  1  0
 16 11  1  0
 17 19  1  0
 17  9  1  0
 18 17  2  0
 19 20  1  0
 21 20  1  0
 22 23  1  0
 22 21  1  0
 23 19  1  0
 23 24  1  1
 25 24  1  0
 26 24  2  0
M  END
$$$$
