VFP.pdb
     RDKit          3D

 26 27  0  0  1  0  0  0  0  0999 V2000
   21.0206  -16.3951  -19.7776 C   0  0  0  0  0  0  0  0  0  0  0  0
   22.2222  -16.9219  -19.0653 C   0  0  1  0  0  0  0  0  0  0  0  0
   23.3392  -17.1339  -20.0576 C   0  0  0  0  0  0  0  0  0  0  0  0
   22.6583  -16.0636  -17.9005 C   0  0  2  0  0  0  0  0  0  0  0  0
   23.1087  -14.7879  -18.4293 N   0  0  0  0  0  0  0  0  0  0  0  0
   23.7730  -16.7491  -17.1989 C   0  0  0  0  0  0  0  0  0  0  0  0
   24.9431  -16.4928  -17.5815 O   0  0  0  0  0  0  0  0  0  0  0  0
   23.5405  -17.6770  -16.1173 N   0  0  0  0  0  0  0  0  0  0  0  0
   24.6592  -18.2837  -15.4880 C   0  0  1  0  0  0  0  0  0  0  0  0
   24.3006  -18.4174  -14.0155 C   0  0  0  0  0  0  0  0  0  0  0  0
   25.2379  -19.1863  -13.2155 C   0  0  0  0  0  0  0  0  0  0  0  0
   26.4925  -18.6974  -12.9369 C   0  0  0  0  0  0  0  0  0  0  0  0
   27.4161  -19.3963  -12.1793 C   0  0  0  0  0  0  0  0  0  0  0  0
   27.0969  -20.6348  -11.6689 C   0  0  0  0  0  0  0  0  0  0  0  0
   25.8491  -21.1408  -11.9357 C   0  0  0  0  0  0  0  0  0  0  0  0
   24.9324  -20.4443  -12.6891 C   0  0  0  0  0  0  0  0  0  0  0  0
   25.2216  -19.4895  -16.0685 C   0  0  0  0  0  0  0  0  0  0  0  0
   24.4037  -20.4714  -16.1500 O   0  0  0  0  0  0  0  0  0  0  0  0
   26.5342  -19.7319  -16.5527 N   0  0  0  0  0  0  0  0  0  0  0  0
   27.4698  -18.6106  -16.7362 C   0  0  0  0  0  0  0  0  0  0  0  0
   28.8299  -19.2616  -16.9333 C   0  0  0  0  0  0  0  0  0  0  0  0
   28.6425  -20.6731  -16.4302 C   0  0  0  0  0  0  0  0  0  0  0  0
   27.1986  -20.9088  -16.9515 C   0  0  1  0  0  0  0  0  0  0  0  0
   26.7275  -22.2020  -16.4812 C   0  0  0  0  0  0  0  0  0  0  0  0
   26.5611  -22.6790  -15.2177 O   0  0  0  0  0  0  0  0  0  0  0  0
   26.4188  -23.0371  -17.4161 O   0  0  0  0  0  0  0  0  0  0  0  0
  2  4  1  0
  2  1  1  6
  3  2  1  0
  4  5  1  6
  6  4  1  0
  6  7  2  0
  8  6  1  0
  9  8  1  0
  9 10  1  1
 11 10  1  0
 11 12  2  0
 13 12  1  0
 14 13  2  0
 15 16  2  0
 15 14  1  0
 16 11  1  0
 17 19  1  0
 17  9  1  0
 18 17  2  0
 19 20  1  0
 21 20  1  0
 22 23  1  0
 22 21  1  0
 23 19  1  0
 23 24  1  1
 25 24  1  0
 26 24  2  0
M  END
$$$$
