VFP.pdb
     RDKit          3D

 26 27  0  0  1  0  0  0  0  0999 V2000
   22.7066  -21.7517  -15.1482 C   0  0  0  0  0  0  0  0  0  0  0  0
   21.5471  -20.9263  -14.6976 C   0  0  1  0  0  0  0  0  0  0  0  0
   20.2864  -21.4343  -15.3531 C   0  0  0  0  0  0  0  0  0  0  0  0
   21.4091  -20.8484  -13.1947 C   0  0  2  0  0  0  0  0  0  0  0  0
   20.3628  -19.8876  -12.8912 N   0  0  0  0  0  0  0  0  0  0  0  0
   22.7023  -20.3944  -12.6236 C   0  0  0  0  0  0  0  0  0  0  0  0
   22.9734  -19.1694  -12.7056 O   0  0  0  0  0  0  0  0  0  0  0  0
   23.6245  -21.3105  -11.9951 N   0  0  0  0  0  0  0  0  0  0  0  0
   24.9083  -20.8342  -11.6198 C   0  0  1  0  0  0  0  0  0  0  0  0
   25.2042  -21.4347  -10.2536 C   0  0  0  0  0  0  0  0  0  0  0  0
   26.3008  -20.8173   -9.5284 C   0  0  0  0  0  0  0  0  0  0  0  0
   26.0700  -19.7924   -8.6414 C   0  0  0  0  0  0  0  0  0  0  0  0
   27.0849  -19.1764   -7.9300 C   0  0  0  0  0  0  0  0  0  0  0  0
   28.3903  -19.5829   -8.0943 C   0  0  0  0  0  0  0  0  0  0  0  0
   28.6419  -20.6049   -8.9755 C   0  0  0  0  0  0  0  0  0  0  0  0
   27.6315  -21.2160   -9.6817 C   0  0  0  0  0  0  0  0  0  0  0  0
   26.0039  -20.9530  -12.5646 C   0  0  0  0  0  0  0  0  0  0  0  0
   26.4816  -22.1356  -12.6783 O   0  0  0  0  0  0  0  0  0  0  0  0
   26.6139  -19.9559  -13.3707 N   0  0  0  0  0  0  0  0  0  0  0  0
   26.1805  -18.5535  -13.2606 C   0  0  0  0  0  0  0  0  0  0  0  0
   27.2459  -17.7540  -13.9943 C   0  0  0  0  0  0  0  0  0  0  0  0
   28.4151  -18.7037  -14.1014 C   0  0  0  0  0  0  0  0  0  0  0  0
   27.6197  -20.0132  -14.3559 C   0  0  1  0  0  0  0  0  0  0  0  0
   28.5450  -21.1350  -14.3826 C   0  0  0  0  0  0  0  0  0  0  0  0
   29.2728  -21.6598  -15.4057 O   0  0  0  0  0  0  0  0  0  0  0  0
   28.7001  -21.7345  -13.2497 O   0  0  0  0  0  0  0  0  0  0  0  0
  2  4  1  0
  2  1  1  1
  3  2  1  0
  4  5  1  6
  6  4  1  0
  6  7  2  0
  8  6  1  0
  9  8  1  0
  9 10  1  1
 11 10  1  0
 11 12  2  0
 13 12  1  0
 14 13  2  0
 15 16  2  0
 15 14  1  0
 16 11  1  0
 17 19  1  0
 17  9  1  0
 18 17  2  0
 19 20  1  0
 21 20  1  0
 22 23  1  0
 22 21  1  0
 23 19  1  0
 23 24  1  1
 25 24  1  0
 26 24  2  0
M  END
$$$$
