VFP.pdb
     RDKit          3D

 26 27  0  0  1  0  0  0  0  0999 V2000
   23.4675  -19.8659  -14.2422 C   0  0  0  0  0  0  0  0  0  0  0  0
   24.5900  -20.0821  -13.2819 C   0  0  1  0  0  0  0  0  0  0  0  0
   25.6111  -21.0022  -13.9047 C   0  0  0  0  0  0  0  0  0  0  0  0
   25.2157  -18.7992  -12.7855 C   0  0  2  0  0  0  0  0  0  0  0  0
   25.8676  -18.1547  -13.9122 N   0  0  0  0  0  0  0  0  0  0  0  0
   26.2145  -19.1339  -11.7390 C   0  0  0  0  0  0  0  0  0  0  0  0
   27.4119  -19.2618  -12.1010 O   0  0  0  0  0  0  0  0  0  0  0  0
   25.8427  -19.3093  -10.3549 N   0  0  0  0  0  0  0  0  0  0  0  0
   26.8548  -19.6336   -9.4136 C   0  0  1  0  0  0  0  0  0  0  0  0
   26.3071  -19.2483   -8.0475 C   0  0  0  0  0  0  0  0  0  0  0  0
   27.2513  -19.3510   -6.9485 C   0  0  0  0  0  0  0  0  0  0  0  0
   28.0656  -18.2934   -6.6185 C   0  0  0  0  0  0  0  0  0  0  0  0
   28.9785  -18.3484   -5.5798 C   0  0  0  0  0  0  0  0  0  0  0  0
   29.1012  -19.4946   -4.8264 C   0  0  0  0  0  0  0  0  0  0  0  0
   28.2971  -20.5620   -5.1399 C   0  0  0  0  0  0  0  0  0  0  0  0
   27.3901  -20.5053   -6.1729 C   0  0  0  0  0  0  0  0  0  0  0  0
   27.4542  -20.9550   -9.4559 C   0  0  0  0  0  0  0  0  0  0  0  0
   26.6251  -21.9195   -9.3073 O   0  0  0  0  0  0  0  0  0  0  0  0
   28.8130  -21.3254   -9.6363 N   0  0  0  0  0  0  0  0  0  0  0  0
   29.8023  -20.3168  -10.0492 C   0  0  0  0  0  0  0  0  0  0  0  0
   31.1539  -20.9743   -9.8182 C   0  0  0  0  0  0  0  0  0  0  0  0
   30.8502  -22.1363   -8.9027 C   0  0  0  0  0  0  0  0  0  0  0  0
   29.4870  -22.5570   -9.5166 C   0  0  1  0  0  0  0  0  0  0  0  0
   28.9112  -23.6233   -8.7122 C   0  0  0  0  0  0  0  0  0  0  0  0
   27.8832  -23.6051   -7.8208 O   0  0  0  0  0  0  0  0  0  0  0  0
   29.4687  -24.7775   -8.8663 O   0  0  0  0  0  0  0  0  0  0  0  0
  2  4  1  0
  2  1  1  6
  3  2  1  0
  4  5  1  6
  6  4  1  0
  6  7  2  0
  8  6  1  0
  9  8  1  0
  9 10  1  1
 11 10  1  0
 11 12  2  0
 13 12  1  0
 14 13  2  0
 15 16  2  0
 15 14  1  0
 16 11  1  0
 17 19  1  0
 17  9  1  0
 18 17  2  0
 19 20  1  0
 21 20  1  0
 22 23  1  0
 22 21  1  0
 23 19  1  0
 23 24  1  1
 25 24  1  0
 26 24  2  0
M  END
$$$$
