VFP.pdb
     RDKit          3D

 26 27  0  0  1  0  0  0  0  0999 V2000
   21.3875  -22.6914  -14.3694 C   0  0  0  0  0  0  0  0  0  0  0  0
   22.6025  -22.0895  -13.7447 C   0  0  1  0  0  0  0  0  0  0  0  0
   23.6071  -21.7590  -14.8211 C   0  0  0  0  0  0  0  0  0  0  0  0
   22.3023  -20.8957  -12.8680 C   0  0  2  0  0  0  0  0  0  0  0  0
   21.7636  -19.8446  -13.7135 N   0  0  0  0  0  0  0  0  0  0  0  0
   23.5668  -20.4448  -12.2335 C   0  0  0  0  0  0  0  0  0  0  0  0
   24.2414  -19.5747  -12.8409 O   0  0  0  0  0  0  0  0  0  0  0  0
   24.0191  -20.9743  -10.9687 N   0  0  0  0  0  0  0  0  0  0  0  0
   25.2966  -20.5863  -10.4856 C   0  0  1  0  0  0  0  0  0  0  0  0
   25.2653  -20.7959   -8.9790 C   0  0  0  0  0  0  0  0  0  0  0  0
   26.4090  -20.2691   -8.2550 C   0  0  0  0  0  0  0  0  0  0  0  0
   26.4336  -18.9608   -7.8329 C   0  0  0  0  0  0  0  0  0  0  0  0
   27.5023  -18.4184   -7.1407 C   0  0  0  0  0  0  0  0  0  0  0  0
   28.6015  -19.1940   -6.8467 C   0  0  0  0  0  0  0  0  0  0  0  0
   28.5966  -20.5031   -7.2595 C   0  0  0  0  0  0  0  0  0  0  0  0
   27.5332  -21.0404   -7.9475 C   0  0  0  0  0  0  0  0  0  0  0  0
   26.4820  -21.1220  -11.1298 C   0  0  0  0  0  0  0  0  0  0  0  0
   26.7770  -22.3202  -10.7878 O   0  0  0  0  0  0  0  0  0  0  0  0
   27.3505  -20.5131  -12.0737 N   0  0  0  0  0  0  0  0  0  0  0  0
   26.9598  -19.2538  -12.7281 C   0  0  0  0  0  0  0  0  0  0  0  0
   28.2307  -18.7435  -13.3892 C   0  0  0  0  0  0  0  0  0  0  0  0
   29.3373  -19.5196  -12.7155 C   0  0  0  0  0  0  0  0  0  0  0  0
   28.6089  -20.8853  -12.5867 C   0  0  1  0  0  0  0  0  0  0  0  0
   29.4522  -21.8063  -11.8407 C   0  0  0  0  0  0  0  0  0  0  0  0
   30.5229  -22.5468  -12.2366 O   0  0  0  0  0  0  0  0  0  0  0  0
   29.1307  -21.9473  -10.5983 O   0  0  0  0  0  0  0  0  0  0  0  0
  2  4  1  0
  2  1  1  6
  3  2  1  0
  4  5  1  6
  6  4  1  0
  6  7  2  0
  8  6  1  0
  9  8  1  0
  9 10  1  1
 11 10  1  0
 11 12  2  0
 13 12  1  0
 14 13  2  0
 15 16  2  0
 15 14  1  0
 16 11  1  0
 17 19  1  0
 17  9  1  0
 18 17  2  0
 19 20  1  0
 21 20  1  0
 22 23  1  0
 22 21  1  0
 23 19  1  0
 23 24  1  1
 25 24  1  0
 26 24  2  0
M  END
$$$$
