VFP.pdb
     RDKit          3D

 26 27  0  0  1  0  0  0  0  0999 V2000
   23.5003  -19.2316  -13.5427 C   0  0  0  0  0  0  0  0  0  0  0  0
   24.1776  -19.8130  -12.3460 C   0  0  1  0  0  0  0  0  0  0  0  0
   23.9795  -21.3089  -12.3365 C   0  0  0  0  0  0  0  0  0  0  0  0
   25.6371  -19.4369  -12.2359 C   0  0  2  0  0  0  0  0  0  0  0  0
   26.3420  -20.0513  -13.3475 N   0  0  0  0  0  0  0  0  0  0  0  0
   26.1631  -19.9545  -10.9474 C   0  0  0  0  0  0  0  0  0  0  0  0
   26.5994  -21.1336  -10.9317 O   0  0  0  0  0  0  0  0  0  0  0  0
   26.1805  -19.1487   -9.7494 N   0  0  0  0  0  0  0  0  0  0  0  0
   26.6908  -19.7179   -8.5531 C   0  0  1  0  0  0  0  0  0  0  0  0
   27.2421  -18.5621   -7.7313 C   0  0  0  0  0  0  0  0  0  0  0  0
   27.9105  -18.9402   -6.4985 C   0  0  0  0  0  0  0  0  0  0  0  0
   27.2364  -18.9306   -5.3002 C   0  0  0  0  0  0  0  0  0  0  0  0
   27.8344  -19.2832   -4.1029 C   0  0  0  0  0  0  0  0  0  0  0  0
   29.1574  -19.6642   -4.0762 C   0  0  0  0  0  0  0  0  0  0  0  0
   29.8484  -19.6805   -5.2623 C   0  0  0  0  0  0  0  0  0  0  0  0
   29.2520  -19.3295   -6.4514 C   0  0  0  0  0  0  0  0  0  0  0  0
   25.8519  -20.6299   -7.7971 C   0  0  0  0  0  0  0  0  0  0  0  0
   24.6782  -20.1854   -7.5430 O   0  0  0  0  0  0  0  0  0  0  0  0
   26.1446  -21.9292   -7.3050 N   0  0  0  0  0  0  0  0  0  0  0  0
   27.3669  -22.6235   -7.7413 C   0  0  0  0  0  0  0  0  0  0  0  0
   27.5149  -23.7972   -6.7857 C   0  0  0  0  0  0  0  0  0  0  0  0
   26.6140  -23.4472   -5.6253 C   0  0  0  0  0  0  0  0  0  0  0  0
   25.4572  -22.7911   -6.4275 C   0  0  1  0  0  0  0  0  0  0  0  0
   24.4798  -22.2489   -5.4967 C   0  0  0  0  0  0  0  0  0  0  0  0
   24.3698  -21.0078   -4.9498 O   0  0  0  0  0  0  0  0  0  0  0  0
   23.5670  -23.0830   -5.1251 O   0  0  0  0  0  0  0  0  0  0  0  0
  2  4  1  0
  2  1  1  6
  3  2  1  0
  4  5  1  6
  6  4  1  0
  6  7  2  0
  8  6  1  0
  9  8  1  0
  9 10  1  1
 11 10  1  0
 11 12  2  0
 13 12  1  0
 14 13  2  0
 15 16  2  0
 15 14  1  0
 16 11  1  0
 17 19  1  0
 17  9  1  0
 18 17  2  0
 19 20  1  0
 21 20  1  0
 22 23  1  0
 22 21  1  0
 23 19  1  0
 23 24  1  1
 25 24  1  0
 26 24  2  0
M  END
$$$$
