VFP.pdb
     RDKit          3D

 26 27  0  0  1  0  0  0  0  0999 V2000
   16.2388  -11.3349  -17.2850 C   0  0  0  0  0  0  0  0  0  0  0  0
   16.9615  -12.6413  -17.2874 C   0  0  1  0  0  0  0  0  0  0  0  0
   16.1303  -13.6715  -18.0120 C   0  0  0  0  0  0  0  0  0  0  0  0
   18.3635  -12.5549  -17.8447 C   0  0  2  0  0  0  0  0  0  0  0  0
   18.9896  -13.8556  -17.6832 N   0  0  0  0  0  0  0  0  0  0  0  0
   19.1141  -11.5270  -17.0799 C   0  0  0  0  0  0  0  0  0  0  0  0
   19.6161  -11.8746  -15.9808 O   0  0  0  0  0  0  0  0  0  0  0  0
   19.2711  -10.1760  -17.5648 N   0  0  0  0  0  0  0  0  0  0  0  0
   19.9438   -9.2321  -16.7450 C   0  0  1  0  0  0  0  0  0  0  0  0
   21.0445   -8.6277  -17.6042 C   0  0  0  0  0  0  0  0  0  0  0  0
   21.8059   -7.5611  -16.9779 C   0  0  0  0  0  0  0  0  0  0  0  0
   21.5080   -6.2424  -17.2282 C   0  0  0  0  0  0  0  0  0  0  0  0
   22.2073   -5.1957  -16.6531 C   0  0  0  0  0  0  0  0  0  0  0  0
   23.2498   -5.4513  -15.7904 C   0  0  0  0  0  0  0  0  0  0  0  0
   23.5633   -6.7616  -15.5273 C   0  0  0  0  0  0  0  0  0  0  0  0
   22.8667   -7.8007  -16.1001 C   0  0  0  0  0  0  0  0  0  0  0  0
   19.1598   -8.2509  -16.0173 C   0  0  0  0  0  0  0  0  0  0  0  0
   18.4199   -7.5096  -16.7540 O   0  0  0  0  0  0  0  0  0  0  0  0
   19.0977   -7.9993  -14.6212 N   0  0  0  0  0  0  0  0  0  0  0  0
   19.7002   -8.9514  -13.6742 C   0  0  0  0  0  0  0  0  0  0  0  0
   19.7389   -8.2130  -12.3453 C   0  0  0  0  0  0  0  0  0  0  0  0
   19.5500   -6.7625  -12.7208 C   0  0  0  0  0  0  0  0  0  0  0  0
   18.5206   -6.9582  -13.8671 C   0  0  1  0  0  0  0  0  0  0  0  0
   18.2536   -5.6723  -14.4922 C   0  0  0  0  0  0  0  0  0  0  0  0
   17.3475   -4.7061  -14.1806 O   0  0  0  0  0  0  0  0  0  0  0  0
   18.9966   -5.4034  -15.5133 O   0  0  0  0  0  0  0  0  0  0  0  0
  2  4  1  0
  2  1  1  6
  3  2  1  0
  4  5  1  1
  6  4  1  0
  6  7  2  0
  8  6  1  0
  9  8  1  0
  9 10  1  6
 11 10  1  0
 11 12  2  0
 13 12  1  0
 14 13  2  0
 15 16  2  0
 15 14  1  0
 16 11  1  0
 17 19  1  0
 17  9  1  0
 18 17  2  0
 19 20  1  0
 21 20  1  0
 22 23  1  0
 22 21  1  0
 23 19  1  0
 23 24  1  6
 25 24  1  0
 26 24  2  0
M  END
$$$$
