VFP.pdb
     RDKit          3D

 26 27  0  0  1  0  0  0  0  0999 V2000
   23.1627  -21.0000  -13.1429 C   0  0  0  0  0  0  0  0  0  0  0  0
   24.3814  -21.0144  -12.2807 C   0  0  1  0  0  0  0  0  0  0  0  0
   25.4200  -21.9190  -12.8974 C   0  0  0  0  0  0  0  0  0  0  0  0
   24.9331  -19.6375  -11.9918 C   0  0  2  0  0  0  0  0  0  0  0  0
   25.3979  -19.0702  -13.2457 N   0  0  0  0  0  0  0  0  0  0  0  0
   26.0648  -19.7714  -11.0399 C   0  0  0  0  0  0  0  0  0  0  0  0
   27.2150  -19.9225  -11.5251 O   0  0  0  0  0  0  0  0  0  0  0  0
   25.8701  -19.7319   -9.6098 N   0  0  0  0  0  0  0  0  0  0  0  0
   27.0036  -19.8586   -8.7643 C   0  0  1  0  0  0  0  0  0  0  0  0
   26.6007  -19.2733   -7.4190 C   0  0  0  0  0  0  0  0  0  0  0  0
   27.6224  -19.3260   -6.3880 C   0  0  0  0  0  0  0  0  0  0  0  0
   28.4374  -18.2449   -6.1483 C   0  0  0  0  0  0  0  0  0  0  0  0
   29.4228  -18.2523   -5.1764 C   0  0  0  0  0  0  0  0  0  0  0  0
   29.6209  -19.3726   -4.4005 C   0  0  0  0  0  0  0  0  0  0  0  0
   28.8174  -20.4629   -4.6241 C   0  0  0  0  0  0  0  0  0  0  0  0
   27.8383  -20.4534   -5.5908 C   0  0  0  0  0  0  0  0  0  0  0  0
   27.6679  -21.1459   -8.6707 C   0  0  0  0  0  0  0  0  0  0  0  0
   26.9186  -22.1025   -8.2669 O   0  0  0  0  0  0  0  0  0  0  0  0
   29.0147  -21.4906   -8.9597 N   0  0  0  0  0  0  0  0  0  0  0  0
   29.8439  -20.5941   -9.7814 C   0  0  0  0  0  0  0  0  0  0  0  0
   31.2668  -21.0996   -9.6013 C   0  0  0  0  0  0  0  0  0  0  0  0
   31.1981  -21.9721   -8.3706 C   0  0  0  0  0  0  0  0  0  0  0  0
   29.8038  -22.6082   -8.6225 C   0  0  1  0  0  0  0  0  0  0  0  0
   29.4427  -23.4322   -7.4795 C   0  0  0  0  0  0  0  0  0  0  0  0
   29.8544  -24.6781   -7.1193 O   0  0  0  0  0  0  0  0  0  0  0  0
   28.5881  -22.8948   -6.6747 O   0  0  0  0  0  0  0  0  0  0  0  0
  2  4  1  0
  2  1  1  6
  3  2  1  0
  4  5  1  6
  6  4  1  0
  6  7  2  0
  8  6  1  0
  9  8  1  0
  9 10  1  1
 11 10  1  0
 11 12  2  0
 13 12  1  0
 14 13  2  0
 15 16  2  0
 15 14  1  0
 16 11  1  0
 17 19  1  0
 17  9  1  0
 18 17  2  0
 19 20  1  0
 21 20  1  0
 22 23  1  0
 22 21  1  0
 23 19  1  0
 23 24  1  1
 25 24  1  0
 26 24  2  0
M  END
$$$$
