VFP.pdb
     RDKit          3D

 26 27  0  0  1  0  0  0  0  0999 V2000
   25.8546  -16.3005  -19.5997 C   0  0  0  0  0  0  0  0  0  0  0  0
   25.7837  -17.3558  -18.5461 C   0  0  1  0  0  0  0  0  0  0  0  0
   25.1126  -18.5833  -19.1117 C   0  0  0  0  0  0  0  0  0  0  0  0
   27.1228  -17.6808  -17.9256 C   0  0  2  0  0  0  0  0  0  0  0  0
   27.9637  -18.2630  -18.9571 N   0  0  0  0  0  0  0  0  0  0  0  0
   26.9108  -18.6566  -16.8267 C   0  0  0  0  0  0  0  0  0  0  0  0
   26.9565  -19.8784  -17.1202 O   0  0  0  0  0  0  0  0  0  0  0  0
   26.6606  -18.2362  -15.4683 N   0  0  0  0  0  0  0  0  0  0  0  0
   26.3531  -19.2236  -14.4955 C   0  0  1  0  0  0  0  0  0  0  0  0
   26.9619  -18.7393  -13.1879 C   0  0  0  0  0  0  0  0  0  0  0  0
   26.7680  -19.6198  -12.0492 C   0  0  0  0  0  0  0  0  0  0  0  0
   27.6031  -20.6913  -11.8371 C   0  0  0  0  0  0  0  0  0  0  0  0
   27.4543  -21.5547  -10.7657 C   0  0  0  0  0  0  0  0  0  0  0  0
   26.4384  -21.3606   -9.8566 C   0  0  0  0  0  0  0  0  0  0  0  0
   25.5935  -20.2961  -10.0505 C   0  0  0  0  0  0  0  0  0  0  0  0
   25.7432  -19.4390  -11.1162 C   0  0  0  0  0  0  0  0  0  0  0  0
   24.9815  -19.6824  -14.3716 C   0  0  0  0  0  0  0  0  0  0  0  0
   24.1299  -18.7549  -14.1386 O   0  0  0  0  0  0  0  0  0  0  0  0
   24.4565  -20.9979  -14.4705 N   0  0  0  0  0  0  0  0  0  0  0  0
   25.3144  -22.0999  -14.9354 C   0  0  0  0  0  0  0  0  0  0  0  0
   24.5434  -23.3670  -14.5999 C   0  0  0  0  0  0  0  0  0  0  0  0
   23.5079  -22.9171  -13.5968 C   0  0  0  0  0  0  0  0  0  0  0  0
   23.1774  -21.5329  -14.2191 C   0  0  1  0  0  0  0  0  0  0  0  0
   22.2549  -20.8257  -13.3447 C   0  0  0  0  0  0  0  0  0  0  0  0
   22.4457  -20.2722  -12.1163 O   0  0  0  0  0  0  0  0  0  0  0  0
   21.0561  -20.7051  -13.8084 O   0  0  0  0  0  0  0  0  0  0  0  0
  2  4  1  0
  2  1  1  6
  3  2  1  0
  4  5  1  6
  6  4  1  0
  6  7  2  0
  8  6  1  0
  9  8  1  0
  9 10  1  1
 11 10  1  0
 11 12  2  0
 13 12  1  0
 14 13  2  0
 15 16  2  0
 15 14  1  0
 16 11  1  0
 17 19  1  0
 17  9  1  0
 18 17  2  0
 19 20  1  0
 21 20  1  0
 22 23  1  0
 22 21  1  0
 23 19  1  0
 23 24  1  1
 25 24  1  0
 26 24  2  0
M  END
$$$$
