VFP.pdb
     RDKit          3D

 26 27  0  0  1  0  0  0  0  0999 V2000
   11.7568  -18.2679    5.7815 C   0  0  0  0  0  0  0  0  0  0  0  0
   11.1999  -17.9611    4.4307 C   0  0  1  0  0  0  0  0  0  0  0  0
    9.8138  -17.3835    4.5804 C   0  0  0  0  0  0  0  0  0  0  0  0
   12.0937  -17.0729    3.5965 C   0  0  2  0  0  0  0  0  0  0  0  0
   11.5214  -16.9881    2.2641 N   0  0  0  0  0  0  0  0  0  0  0  0
   13.4450  -17.6851    3.5353 C   0  0  0  0  0  0  0  0  0  0  0  0
   13.6544  -18.5375    2.6349 O   0  0  0  0  0  0  0  0  0  0  0  0
   14.4897  -17.3274    4.4656 N   0  0  0  0  0  0  0  0  0  0  0  0
   15.7613  -17.9445    4.3320 C   0  0  1  0  0  0  0  0  0  0  0  0
   16.7922  -16.8732    4.6551 C   0  0  0  0  0  0  0  0  0  0  0  0
   17.4497  -16.2774    3.5052 C   0  0  0  0  0  0  0  0  0  0  0  0
   17.9997  -17.0655    2.5219 C   0  0  0  0  0  0  0  0  0  0  0  0
   18.6349  -16.5398    1.4102 C   0  0  0  0  0  0  0  0  0  0  0  0
   18.7372  -15.1756    1.2525 C   0  0  0  0  0  0  0  0  0  0  0  0
   18.1945  -14.3712    2.2234 C   0  0  0  0  0  0  0  0  0  0  0  0
   17.5635  -14.8959    3.3277 C   0  0  0  0  0  0  0  0  0  0  0  0
   15.9996  -19.2110    5.0001 C   0  0  0  0  0  0  0  0  0  0  0  0
   15.9696  -19.1511    6.2789 O   0  0  0  0  0  0  0  0  0  0  0  0
   16.2584  -20.4914    4.4436 N   0  0  0  0  0  0  0  0  0  0  0  0
   16.1043  -20.7097    2.9962 C   0  0  0  0  0  0  0  0  0  0  0  0
   16.7692  -22.0508    2.7279 C   0  0  0  0  0  0  0  0  0  0  0  0
   17.6170  -22.2968    3.9532 C   0  0  0  0  0  0  0  0  0  0  0  0
   16.6470  -21.7176    5.0189 C   0  0  1  0  0  0  0  0  0  0  0  0
   17.3015  -21.7338    6.3177 C   0  0  0  0  0  0  0  0  0  0  0  0
   17.5202  -22.7571    7.1876 O   0  0  0  0  0  0  0  0  0  0  0  0
   17.7464  -20.5880    6.7128 O   0  0  0  0  0  0  0  0  0  0  0  0
  2  4  1  0
  2  1  1  1
  3  2  1  0
  4  5  1  6
  6  4  1  0
  6  7  2  0
  8  6  1  0
  9  8  1  0
  9 10  1  1
 11 10  1  0
 11 12  2  0
 13 12  1  0
 14 13  2  0
 15 16  2  0
 15 14  1  0
 16 11  1  0
 17 19  1  0
 17  9  1  0
 18 17  2  0
 19 20  1  0
 21 20  1  0
 22 23  1  0
 22 21  1  0
 23 19  1  0
 23 24  1  1
 25 24  1  0
 26 24  2  0
M  END
$$$$
