HPP.pdb
     RDKit          3D

 25 27  0  0  1  0  0  0  0  0999 V2000
    9.4891  -15.1951   20.8381 N   0  0  0  0  0  0  0  0  0  0  0  0
    8.5242  -15.1266   21.8723 C   0  0  1  0  0  0  0  0  0  0  0  0
    7.7733  -16.4681   21.9005 C   0  0  0  0  0  0  0  0  0  0  0  0
    7.3472  -16.8453   20.5202 C   0  0  0  0  0  0  0  0  0  0  0  0
    6.4142  -16.2505   19.7057 C   0  0  0  0  0  0  0  0  0  0  0  0
    6.3442  -16.9116   18.5513 N   0  0  0  0  0  0  0  0  0  0  0  0
    7.2191  -17.9235   18.6121 C   0  0  0  0  0  0  0  0  0  0  0  0
    7.8363  -17.8940   19.8067 N   0  0  0  0  0  0  0  0  0  0  0  0
    8.9724  -14.7255   23.1939 C   0  0  0  0  0  0  0  0  0  0  0  0
   10.2396  -14.7471   23.3819 O   0  0  0  0  0  0  0  0  0  0  0  0
    8.1901  -14.3149   24.3017 N   0  0  0  0  0  0  0  0  0  0  0  0
    6.7579  -14.2259   24.3192 C   0  0  0  0  0  0  0  0  0  0  0  0
    6.4392  -13.2374   25.3932 C   0  0  0  0  0  0  0  0  0  0  0  0
    7.8031  -12.6595   25.8186 C   0  0  0  0  0  0  0  0  0  0  0  0
    8.6391  -13.9134   25.6208 C   0  0  1  0  0  0  0  0  0  0  0  0
    8.4560  -14.9262   26.6400 C   0  0  0  0  0  0  0  0  0  0  0  0
    7.4900  -15.7246   26.5627 O   0  0  0  0  0  0  0  0  0  0  0  0
    9.3364  -15.0465   27.7251 N   0  0  0  0  0  0  0  0  0  0  0  0
    9.2246  -14.2792   28.9672 C   0  0  0  0  0  0  0  0  0  0  0  0
   10.6232  -14.1163   29.4591 C   0  0  0  0  0  0  0  0  0  0  0  0
   11.4723  -14.9101   28.5215 C   0  0  0  0  0  0  0  0  0  0  0  0
   10.5107  -15.8901   27.8906 C   0  0  1  0  0  0  0  0  0  0  0  0
   10.2755  -16.9735   28.8862 C   0  0  0  0  0  0  0  0  0  0  0  0
    9.1708  -16.9895   29.4784 O   0  0  0  0  0  0  0  0  0  0  0  0
   11.2128  -17.9416   29.1739 O   0  0  0  0  0  0  0  0  0  0  0  0
  2  1  1  6
  3  2  1  0
  4  3  1  0
  5  4  2  0
  6  5  1  0
  7  6  1  0
  7  8  2  0
  8  4  1  0
  9  2  1  0
  9 11  1  0
 10  9  2  0
 11 15  1  0
 12 11  1  0
 12 13  1  0
 13 14  1  0
 15 14  1  0
 15 16  1  1
 16 17  2  0
 18 22  1  0
 18 16  1  0
 19 18  1  0
 20 19  1  0
 20 21  1  0
 21 22  1  0
 23 25  1  0
 22 23  1  1
 24 23  2  0
M  END
$$$$
