HPP.pdb
     RDKit          3D

 25 27  0  0  1  0  0  0  0  0999 V2000
    8.9705  -14.9332   20.4749 N   0  0  0  0  0  0  0  0  0  0  0  0
    8.4077  -15.4760   21.6556 C   0  0  1  0  0  0  0  0  0  0  0  0
    8.4651  -17.0081   21.5392 C   0  0  0  0  0  0  0  0  0  0  0  0
    7.7788  -17.6362   22.7069 C   0  0  0  0  0  0  0  0  0  0  0  0
    8.3244  -18.2429   23.8123 C   0  0  0  0  0  0  0  0  0  0  0  0
    7.3494  -18.6702   24.6131 N   0  0  0  0  0  0  0  0  0  0  0  0
    6.1841  -18.3468   24.0380 C   0  0  0  0  0  0  0  0  0  0  0  0
    6.4323  -17.7167   22.8760 N   0  0  0  0  0  0  0  0  0  0  0  0
    8.9210  -15.0070   22.9303 C   0  0  0  0  0  0  0  0  0  0  0  0
   10.1970  -14.9487   23.0288 O   0  0  0  0  0  0  0  0  0  0  0  0
    8.1934  -14.6072   24.0787 N   0  0  0  0  0  0  0  0  0  0  0  0
    6.7629  -14.5870   24.1898 C   0  0  0  0  0  0  0  0  0  0  0  0
    6.4665  -13.5886   25.2609 C   0  0  0  0  0  0  0  0  0  0  0  0
    7.8248  -12.9351   25.5817 C   0  0  0  0  0  0  0  0  0  0  0  0
    8.7074  -14.1517   25.3559 C   0  0  1  0  0  0  0  0  0  0  0  0
    8.6423  -15.1464   26.4067 C   0  0  0  0  0  0  0  0  0  0  0  0
    7.8552  -16.1189   26.3001 O   0  0  0  0  0  0  0  0  0  0  0  0
    9.4424  -15.0579   27.5551 N   0  0  0  0  0  0  0  0  0  0  0  0
    9.2175  -14.1074   28.6461 C   0  0  0  0  0  0  0  0  0  0  0  0
   10.5706  -13.8139   29.2005 C   0  0  0  0  0  0  0  0  0  0  0  0
   11.5086  -14.7131   28.4645 C   0  0  0  0  0  0  0  0  0  0  0  0
   10.6238  -15.8179   27.9356 C   0  0  1  0  0  0  0  0  0  0  0  0
   10.3449  -16.7371   29.0746 C   0  0  0  0  0  0  0  0  0  0  0  0
   11.2798  -17.4717   29.4717 O   0  0  0  0  0  0  0  0  0  0  0  0
    9.1172  -16.8072   29.6962 O   0  0  0  0  0  0  0  0  0  0  0  0
  2  1  1  6
  3  2  1  0
  4  3  1  0
  5  4  2  0
  6  5  1  0
  7  6  1  0
  7  8  2  0
  8  4  1  0
  9  2  1  0
  9 11  1  0
 10  9  2  0
 11 15  1  0
 12 11  1  0
 12 13  1  0
 13 14  1  0
 15 14  1  0
 15 16  1  1
 16 17  2  0
 18 22  1  0
 18 16  1  0
 19 18  1  0
 20 19  1  0
 20 21  1  0
 21 22  1  0
 23 25  1  0
 22 23  1  1
 24 23  2  0
M  END
$$$$
