HPP.pdb
     RDKit          3D

 25 27  0  0  1  0  0  0  0  0999 V2000
    9.0632  -15.5163   21.0724 N   0  0  0  0  0  0  0  0  0  0  0  0
    8.1748  -15.2174   22.1339 C   0  0  1  0  0  0  0  0  0  0  0  0
    7.2546  -16.4335   22.3298 C   0  0  0  0  0  0  0  0  0  0  0  0
    6.5693  -16.7689   21.0464 C   0  0  0  0  0  0  0  0  0  0  0  0
    5.3502  -16.3447   20.5757 C   0  0  0  0  0  0  0  0  0  0  0  0
    5.1196  -16.8886   19.3817 N   0  0  0  0  0  0  0  0  0  0  0  0
    6.1736  -17.6569   19.0780 C   0  0  0  0  0  0  0  0  0  0  0  0
    7.0635  -17.5925   20.0844 N   0  0  0  0  0  0  0  0  0  0  0  0
    8.7451  -14.7583   23.3878 C   0  0  0  0  0  0  0  0  0  0  0  0
   10.0212  -14.8290   23.4776 O   0  0  0  0  0  0  0  0  0  0  0  0
    8.0731  -14.2440   24.5244 N   0  0  0  0  0  0  0  0  0  0  0  0
    6.6545  -14.0594   24.6371 C   0  0  0  0  0  0  0  0  0  0  0  0
    6.4778  -13.0016   25.6772 C   0  0  0  0  0  0  0  0  0  0  0  0
    7.9026  -12.4957   25.9754 C   0  0  0  0  0  0  0  0  0  0  0  0
    8.6416  -13.8104   25.7860 C   0  0  1  0  0  0  0  0  0  0  0  0
    8.4702  -14.7588   26.8673 C   0  0  0  0  0  0  0  0  0  0  0  0
    7.4784  -15.5288   26.8733 O   0  0  0  0  0  0  0  0  0  0  0  0
    9.3902  -14.8470   27.9222 N   0  0  0  0  0  0  0  0  0  0  0  0
    9.3774  -13.9807   29.1026 C   0  0  0  0  0  0  0  0  0  0  0  0
   10.8035  -13.8637   29.5232 C   0  0  0  0  0  0  0  0  0  0  0  0
   11.5640  -14.7765   28.6184 C   0  0  0  0  0  0  0  0  0  0  0  0
   10.5216  -15.7435   28.1070 C   0  0  1  0  0  0  0  0  0  0  0  0
   10.2710  -16.7308   29.1944 C   0  0  0  0  0  0  0  0  0  0  0  0
    9.2439  -16.5753   29.8960 O   0  0  0  0  0  0  0  0  0  0  0  0
   11.1134  -17.7905   29.4517 O   0  0  0  0  0  0  0  0  0  0  0  0
  2  1  1  6
  3  2  1  0
  4  3  1  0
  5  4  2  0
  6  5  1  0
  7  6  1  0
  7  8  2  0
  8  4  1  0
  9  2  1  0
  9 11  1  0
 10  9  2  0
 11 15  1  0
 12 11  1  0
 12 13  1  0
 13 14  1  0
 15 14  1  0
 15 16  1  1
 16 17  2  0
 18 22  1  0
 18 16  1  0
 19 18  1  0
 20 19  1  0
 20 21  1  0
 21 22  1  0
 23 25  1  0
 22 23  1  1
 24 23  2  0
M  END
$$$$
