HPP.pdb
     RDKit          3D

 25 27  0  0  1  0  0  0  0  0999 V2000
    9.1594  -15.2550   20.6966 N   0  0  0  0  0  0  0  0  0  0  0  0
    8.3341  -15.3947   21.8388 C   0  0  1  0  0  0  0  0  0  0  0  0
    7.9387  -16.8764   21.9513 C   0  0  0  0  0  0  0  0  0  0  0  0
    7.3423  -17.3461   20.6657 C   0  0  0  0  0  0  0  0  0  0  0  0
    6.0686  -17.1679   20.1823 C   0  0  0  0  0  0  0  0  0  0  0  0
    5.9578  -17.7540   18.9912 N   0  0  0  0  0  0  0  0  0  0  0  0
    7.1427  -18.3070   18.7019 C   0  0  0  0  0  0  0  0  0  0  0  0
    7.9945  -18.0656   19.7143 N   0  0  0  0  0  0  0  0  0  0  0  0
    8.8230  -14.8642   23.0989 C   0  0  0  0  0  0  0  0  0  0  0  0
   10.0965  -14.7807   23.2107 O   0  0  0  0  0  0  0  0  0  0  0  0
    8.0742  -14.4288   24.2204 N   0  0  0  0  0  0  0  0  0  0  0  0
    6.6420  -14.3755   24.2923 C   0  0  0  0  0  0  0  0  0  0  0  0
    6.3395  -13.3523   25.3381 C   0  0  0  0  0  0  0  0  0  0  0  0
    7.7030  -12.7232   25.6846 C   0  0  0  0  0  0  0  0  0  0  0  0
    8.5640  -13.9625   25.5032 C   0  0  1  0  0  0  0  0  0  0  0  0
    8.4486  -14.9372   26.5683 C   0  0  0  0  0  0  0  0  0  0  0  0
    7.6164  -15.8727   26.4734 O   0  0  0  0  0  0  0  0  0  0  0  0
    9.2489  -14.8697   27.7181 N   0  0  0  0  0  0  0  0  0  0  0  0
    8.9725  -14.0036   28.8660 C   0  0  0  0  0  0  0  0  0  0  0  0
   10.3083  -13.6611   29.4341 C   0  0  0  0  0  0  0  0  0  0  0  0
   11.2955  -14.4537   28.6419 C   0  0  0  0  0  0  0  0  0  0  0  0
   10.4773  -15.5768   28.0482 C   0  0  1  0  0  0  0  0  0  0  0  0
   10.2629  -16.5796   29.1292 C   0  0  0  0  0  0  0  0  0  0  0  0
    9.1431  -16.5976   29.6923 O   0  0  0  0  0  0  0  0  0  0  0  0
   11.2349  -17.4725   29.5250 O   0  0  0  0  0  0  0  0  0  0  0  0
  2  1  1  6
  3  2  1  0
  4  3  1  0
  5  4  2  0
  6  5  1  0
  7  6  1  0
  7  8  2  0
  8  4  1  0
  9  2  1  0
  9 11  1  0
 10  9  2  0
 11 15  1  0
 12 11  1  0
 12 13  1  0
 13 14  1  0
 15 14  1  0
 15 16  1  1
 16 17  2  0
 18 22  1  0
 18 16  1  0
 19 18  1  0
 20 19  1  0
 20 21  1  0
 21 22  1  0
 23 25  1  0
 22 23  1  1
 24 23  2  0
M  END
$$$$
