HPP.pdb
     RDKit          3D

 25 27  0  0  1  0  0  0  0  0999 V2000
    9.1741  -14.8635   20.4921 N   0  0  0  0  0  0  0  0  0  0  0  0
    8.5177  -15.3878   21.6321 C   0  0  1  0  0  0  0  0  0  0  0  0
    8.4861  -16.9186   21.4905 C   0  0  0  0  0  0  0  0  0  0  0  0
    7.5697  -17.5082   22.5112 C   0  0  0  0  0  0  0  0  0  0  0  0
    7.8763  -18.1527   23.6852 C   0  0  0  0  0  0  0  0  0  0  0  0
    6.7524  -18.5222   24.2975 N   0  0  0  0  0  0  0  0  0  0  0  0
    5.7272  -18.1246   23.5333 C   0  0  0  0  0  0  0  0  0  0  0  0
    6.2120  -17.5057   22.4421 N   0  0  0  0  0  0  0  0  0  0  0  0
    8.9915  -14.9715   22.9400 C   0  0  0  0  0  0  0  0  0  0  0  0
   10.2639  -14.9311   23.0838 O   0  0  0  0  0  0  0  0  0  0  0  0
    8.2290  -14.6058   24.0770 N   0  0  0  0  0  0  0  0  0  0  0  0
    6.7958  -14.6041   24.1499 C   0  0  0  0  0  0  0  0  0  0  0  0
    6.4593  -13.6334   25.2347 C   0  0  0  0  0  0  0  0  0  0  0  0
    7.8008  -12.9724   25.6065 C   0  0  0  0  0  0  0  0  0  0  0  0
    8.7033  -14.1737   25.3774 C   0  0  1  0  0  0  0  0  0  0  0  0
    8.6217  -15.1926   26.4036 C   0  0  0  0  0  0  0  0  0  0  0  0
    7.8466  -16.1693   26.2558 O   0  0  0  0  0  0  0  0  0  0  0  0
    9.3928  -15.1233   27.5731 N   0  0  0  0  0  0  0  0  0  0  0  0
    9.0967  -14.2435   28.7055 C   0  0  0  0  0  0  0  0  0  0  0  0
   10.4211  -13.9107   29.3050 C   0  0  0  0  0  0  0  0  0  0  0  0
   11.4194  -14.7216   28.5459 C   0  0  0  0  0  0  0  0  0  0  0  0
   10.6041  -15.8410   27.9414 C   0  0  1  0  0  0  0  0  0  0  0  0
   10.3504  -16.8311   29.0255 C   0  0  0  0  0  0  0  0  0  0  0  0
    9.2304  -16.8041   29.5877 O   0  0  0  0  0  0  0  0  0  0  0  0
   11.2870  -17.7595   29.4250 O   0  0  0  0  0  0  0  0  0  0  0  0
  2  1  1  6
  3  2  1  0
  4  3  1  0
  5  4  2  0
  6  5  1  0
  7  6  1  0
  7  8  2  0
  8  4  1  0
  9  2  1  0
  9 11  1  0
 10  9  2  0
 11 15  1  0
 12 11  1  0
 12 13  1  0
 13 14  1  0
 15 14  1  0
 15 16  1  1
 16 17  2  0
 18 22  1  0
 18 16  1  0
 19 18  1  0
 20 19  1  0
 20 21  1  0
 21 22  1  0
 23 25  1  0
 22 23  1  1
 24 23  2  0
M  END
$$$$
