HPP.pdb
     RDKit          3D

 25 27  0  0  1  0  0  0  0  0999 V2000
    8.1746  -14.6633   20.5771 N   0  0  0  0  0  0  0  0  0  0  0  0
    7.4702  -14.5620   21.8014 C   0  0  1  0  0  0  0  0  0  0  0  0
    6.6150  -15.8306   21.9550 C   0  0  0  0  0  0  0  0  0  0  0  0
    7.4720  -17.0454   21.8171 C   0  0  0  0  0  0  0  0  0  0  0  0
    8.0097  -17.6054   20.6836 C   0  0  0  0  0  0  0  0  0  0  0  0
    8.7122  -18.6887   21.0116 N   0  0  0  0  0  0  0  0  0  0  0  0
    8.6335  -18.8333   22.3406 C   0  0  0  0  0  0  0  0  0  0  0  0
    7.8805  -17.8385   22.8429 N   0  0  0  0  0  0  0  0  0  0  0  0
    8.2333  -14.2709   23.0019 C   0  0  0  0  0  0  0  0  0  0  0  0
    9.5068  -14.2600   22.8626 O   0  0  0  0  0  0  0  0  0  0  0  0
    7.7518  -13.9989   24.3066 N   0  0  0  0  0  0  0  0  0  0  0  0
    6.3689  -13.9155   24.6806 C   0  0  0  0  0  0  0  0  0  0  0  0
    6.3450  -13.0648   25.9085 C   0  0  0  0  0  0  0  0  0  0  0  0
    7.7864  -12.5399   26.0562 C   0  0  0  0  0  0  0  0  0  0  0  0
    8.5157  -13.7590   25.5157 C   0  0  1  0  0  0  0  0  0  0  0  0
    8.5554  -14.8880   26.4221 C   0  0  0  0  0  0  0  0  0  0  0  0
    7.8011  -15.8730   26.2287 O   0  0  0  0  0  0  0  0  0  0  0  0
    9.4228  -14.9176   27.5239 N   0  0  0  0  0  0  0  0  0  0  0  0
    9.3917  -13.9523   28.6245 C   0  0  0  0  0  0  0  0  0  0  0  0
   10.8010  -13.8509   29.1019 C   0  0  0  0  0  0  0  0  0  0  0  0
   11.5641  -14.8658   28.3158 C   0  0  0  0  0  0  0  0  0  0  0  0
   10.5077  -15.8352   27.8386 C   0  0  1  0  0  0  0  0  0  0  0  0
   10.1688  -16.7146   28.9927 C   0  0  0  0  0  0  0  0  0  0  0  0
   10.9986  -17.5972   29.3149 O   0  0  0  0  0  0  0  0  0  0  0  0
    8.9961  -16.5943   29.7060 O   0  0  0  0  0  0  0  0  0  0  0  0
  2  1  1  6
  3  2  1  0
  4  3  1  0
  5  4  2  0
  6  5  1  0
  7  6  1  0
  7  8  2  0
  8  4  1  0
  9  2  1  0
  9 11  1  0
 10  9  2  0
 11 15  1  0
 12 11  1  0
 12 13  1  0
 13 14  1  0
 15 14  1  0
 15 16  1  1
 16 17  2  0
 18 22  1  0
 18 16  1  0
 19 18  1  0
 20 19  1  0
 20 21  1  0
 21 22  1  0
 23 25  1  0
 22 23  1  1
 24 23  2  0
M  END
$$$$
