HPP.pdb
     RDKit          3D

 25 27  0  0  1  0  0  0  0  0999 V2000
    9.9589  -14.2561   20.9564 N   0  0  0  0  0  0  0  0  0  0  0  0
    8.9250  -13.9085   21.8595 C   0  0  1  0  0  0  0  0  0  0  0  0
    7.6197  -14.5317   21.3379 C   0  0  0  0  0  0  0  0  0  0  0  0
    7.4926  -14.2985   19.8686 C   0  0  0  0  0  0  0  0  0  0  0  0
    7.5184  -13.1151   19.1711 C   0  0  0  0  0  0  0  0  0  0  0  0
    7.3681  -13.3609   17.8705 N   0  0  0  0  0  0  0  0  0  0  0  0
    7.2458  -14.6861   17.7218 C   0  0  0  0  0  0  0  0  0  0  0  0
    7.3198  -15.2685   18.9319 N   0  0  0  0  0  0  0  0  0  0  0  0
    9.1343  -14.1834   23.2698 C   0  0  0  0  0  0  0  0  0  0  0  0
   10.2457  -14.7468   23.5678 O   0  0  0  0  0  0  0  0  0  0  0  0
    8.2683  -13.9106   24.3577 N   0  0  0  0  0  0  0  0  0  0  0  0
    6.8385  -13.8187   24.2779 C   0  0  0  0  0  0  0  0  0  0  0  0
    6.4343  -12.9701   25.4391 C   0  0  0  0  0  0  0  0  0  0  0  0
    7.7590  -12.4550   26.0349 C   0  0  0  0  0  0  0  0  0  0  0  0
    8.6143  -13.6780   25.7466 C   0  0  1  0  0  0  0  0  0  0  0  0
    8.3602  -14.8089   26.6152 C   0  0  0  0  0  0  0  0  0  0  0  0
    7.4318  -15.6098   26.3448 O   0  0  0  0  0  0  0  0  0  0  0  0
    9.1298  -15.0423   27.7643 N   0  0  0  0  0  0  0  0  0  0  0  0
    8.8876  -14.4091   29.0622 C   0  0  0  0  0  0  0  0  0  0  0  0
   10.2287  -14.2990   29.7053 C   0  0  0  0  0  0  0  0  0  0  0  0
   11.1747  -14.9906   28.7795 C   0  0  0  0  0  0  0  0  0  0  0  0
   10.2903  -15.8990   27.9573 C   0  0  1  0  0  0  0  0  0  0  0  0
    9.9685  -17.0804   28.8062 C   0  0  0  0  0  0  0  0  0  0  0  0
    8.8318  -17.1264   29.3326 O   0  0  0  0  0  0  0  0  0  0  0  0
   10.8606  -18.1066   29.0294 O   0  0  0  0  0  0  0  0  0  0  0  0
  2  1  1  6
  3  2  1  0
  4  3  1  0
  5  4  2  0
  6  5  1  0
  7  6  1  0
  7  8  2  0
  8  4  1  0
  9  2  1  0
  9 11  1  0
 10  9  2  0
 11 15  1  0
 12 11  1  0
 12 13  1  0
 13 14  1  0
 15 14  1  0
 15 16  1  1
 16 17  2  0
 18 22  1  0
 18 16  1  0
 19 18  1  0
 20 19  1  0
 20 21  1  0
 21 22  1  0
 23 25  1  0
 22 23  1  1
 24 23  2  0
M  END
$$$$
