HPP.pdb
     RDKit          3D

 25 27  0  0  1  0  0  0  0  0999 V2000
    6.6341  -16.1499   19.8526 N   0  0  0  0  0  0  0  0  0  0  0  0
    7.2309  -15.1923   20.7083 C   0  0  1  0  0  0  0  0  0  0  0  0
    7.0227  -13.8063   20.0760 C   0  0  0  0  0  0  0  0  0  0  0  0
    7.7425  -13.7259   18.7703 C   0  0  0  0  0  0  0  0  0  0  0  0
    8.5339  -12.7180   18.2750 C   0  0  0  0  0  0  0  0  0  0  0  0
    8.9804  -13.0550   17.0661 N   0  0  0  0  0  0  0  0  0  0  0  0
    8.4869  -14.2658   16.7768 C   0  0  0  0  0  0  0  0  0  0  0  0
    7.7309  -14.6852   17.8071 N   0  0  0  0  0  0  0  0  0  0  0  0
    6.8607  -15.2117   22.1121 C   0  0  0  0  0  0  0  0  0  0  0  0
    5.8803  -14.4547   22.4395 O   0  0  0  0  0  0  0  0  0  0  0  0
    7.4441  -15.9581   23.1660 N   0  0  0  0  0  0  0  0  0  0  0  0
    8.4279  -16.9904   23.0065 C   0  0  0  0  0  0  0  0  0  0  0  0
    8.2961  -17.8493   24.2219 C   0  0  0  0  0  0  0  0  0  0  0  0
    7.0459  -17.3183   24.9499 C   0  0  0  0  0  0  0  0  0  0  0  0
    7.1956  -15.8490   24.5905 C   0  0  1  0  0  0  0  0  0  0  0  0
    8.2363  -15.1538   25.3194 C   0  0  0  0  0  0  0  0  0  0  0  0
    9.4242  -15.2045   24.9157 O   0  0  0  0  0  0  0  0  0  0  0  0
    7.9559  -14.4138   26.4774 N   0  0  0  0  0  0  0  0  0  0  0  0
    6.6596  -14.4072   27.1584 C   0  0  0  0  0  0  0  0  0  0  0  0
    6.5417  -13.0529   27.7718 C   0  0  0  0  0  0  0  0  0  0  0  0
    7.8472  -12.3780   27.5063 C   0  0  0  0  0  0  0  0  0  0  0  0
    8.8060  -13.5164   27.2454 C   0  0  1  0  0  0  0  0  0  0  0  0
    9.1659  -14.0964   28.5698 C   0  0  0  0  0  0  0  0  0  0  0  0
    8.5100  -15.0875   28.9685 O   0  0  0  0  0  0  0  0  0  0  0  0
   10.1766  -13.5909   29.3583 O   0  0  0  0  0  0  0  0  0  0  0  0
  2  1  1  6
  3  2  1  0
  4  3  1  0
  5  4  2  0
  6  5  1  0
  7  6  1  0
  7  8  2  0
  8  4  1  0
  9  2  1  0
  9 11  1  0
 10  9  2  0
 11 15  1  0
 12 11  1  0
 12 13  1  0
 13 14  1  0
 15 14  1  0
 15 16  1  1
 16 17  2  0
 18 22  1  0
 18 16  1  0
 19 18  1  0
 20 19  1  0
 20 21  1  0
 21 22  1  0
 23 25  1  0
 22 23  1  1
 24 23  2  0
M  END
$$$$
