HPP.pdb
     RDKit          3D

 25 27  0  0  1  0  0  0  0  0999 V2000
   10.5997  -17.8035   20.5298 N   0  0  0  0  0  0  0  0  0  0  0  0
    9.3391  -17.2647   20.8847 C   0  0  1  0  0  0  0  0  0  0  0  0
    8.4352  -18.4327   21.3125 C   0  0  0  0  0  0  0  0  0  0  0  0
    8.2411  -19.3746   20.1704 C   0  0  0  0  0  0  0  0  0  0  0  0
    7.6382  -19.1549   18.9556 C   0  0  0  0  0  0  0  0  0  0  0  0
    7.6805  -20.2704   18.2287 N   0  0  0  0  0  0  0  0  0  0  0  0
    8.3022  -21.2047   18.9592 C   0  0  0  0  0  0  0  0  0  0  0  0
    8.6485  -20.6714   20.1444 N   0  0  0  0  0  0  0  0  0  0  0  0
    9.3120  -16.1753   21.8442 C   0  0  0  0  0  0  0  0  0  0  0  0
   10.3122  -16.1119   22.6424 O   0  0  0  0  0  0  0  0  0  0  0  0
    8.3225  -15.1750   22.0126 N   0  0  0  0  0  0  0  0  0  0  0  0
    7.1926  -14.9718   21.1517 C   0  0  0  0  0  0  0  0  0  0  0  0
    6.8067  -13.5411   21.3416 C   0  0  0  0  0  0  0  0  0  0  0  0
    7.9245  -12.9410   22.2165 C   0  0  0  0  0  0  0  0  0  0  0  0
    8.2253  -14.1721   23.0555 C   0  0  1  0  0  0  0  0  0  0  0  0
    7.2327  -14.4682   24.0679 C   0  0  0  0  0  0  0  0  0  0  0  0
    6.2759  -15.2362   23.8009 O   0  0  0  0  0  0  0  0  0  0  0  0
    7.3077  -13.9180   25.3558 N   0  0  0  0  0  0  0  0  0  0  0  0
    6.1619  -13.3775   26.0901 C   0  0  0  0  0  0  0  0  0  0  0  0
    6.7184  -12.2932   26.9496 C   0  0  0  0  0  0  0  0  0  0  0  0
    8.1975  -12.3429   26.7494 C   0  0  0  0  0  0  0  0  0  0  0  0
    8.4545  -13.7398   26.2339 C   0  0  1  0  0  0  0  0  0  0  0  0
    8.3979  -14.6557   27.4077 C   0  0  0  0  0  0  0  0  0  0  0  0
    7.3794  -15.3751   27.5358 O   0  0  0  0  0  0  0  0  0  0  0  0
    9.4080  -14.7388   28.3413 O   0  0  0  0  0  0  0  0  0  0  0  0
  2  1  1  1
  3  2  1  0
  4  3  1  0
  5  4  2  0
  6  5  1  0
  7  6  1  0
  7  8  2  0
  8  4  1  0
  9  2  1  0
  9 11  1  0
 10  9  2  0
 11 15  1  0
 12 11  1  0
 12 13  1  0
 13 14  1  0
 15 14  1  0
 15 16  1  1
 16 17  2  0
 18 22  1  0
 18 16  1  0
 19 18  1  0
 20 19  1  0
 20 21  1  0
 21 22  1  0
 23 25  1  0
 22 23  1  1
 24 23  2  0
M  END
$$$$
