HPP.pdb
     RDKit          3D

 25 27  0  0  1  0  0  0  0  0999 V2000
    6.7485  -13.7206   20.6418 N   0  0  0  0  0  0  0  0  0  0  0  0
    7.6634  -14.5998   21.2704 C   0  0  1  0  0  0  0  0  0  0  0  0
    9.0368  -14.3960   20.6096 C   0  0  0  0  0  0  0  0  0  0  0  0
    8.8824  -14.2985   19.1278 C   0  0  0  0  0  0  0  0  0  0  0  0
    8.6118  -13.1966   18.3529 C   0  0  0  0  0  0  0  0  0  0  0  0
    8.5570  -13.5556   17.0713 N   0  0  0  0  0  0  0  0  0  0  0  0
    8.7884  -14.8732   17.0110 C   0  0  0  0  0  0  0  0  0  0  0  0
    8.9880  -15.3375   18.2575 N   0  0  0  0  0  0  0  0  0  0  0  0
    7.7466  -14.5708   22.7197 C   0  0  0  0  0  0  0  0  0  0  0  0
    7.8809  -13.4105   23.2462 O   0  0  0  0  0  0  0  0  0  0  0  0
    7.6999  -15.6591   23.6260 N   0  0  0  0  0  0  0  0  0  0  0  0
    7.6361  -17.0444   23.2572 C   0  0  0  0  0  0  0  0  0  0  0  0
    7.0233  -17.7354   24.4316 C   0  0  0  0  0  0  0  0  0  0  0  0
    6.5867  -16.5997   25.3773 C   0  0  0  0  0  0  0  0  0  0  0  0
    7.7124  -15.6239   25.0757 C   0  0  1  0  0  0  0  0  0  0  0  0
    8.9885  -15.9763   25.6633 C   0  0  0  0  0  0  0  0  0  0  0  0
    9.8255  -16.6321   24.9956 O   0  0  0  0  0  0  0  0  0  0  0  0
    9.3248  -15.6019   26.9725 N   0  0  0  0  0  0  0  0  0  0  0  0
    8.3528  -15.1986   27.9907 C   0  0  0  0  0  0  0  0  0  0  0  0
    9.0721  -14.2236   28.8604 C   0  0  0  0  0  0  0  0  0  0  0  0
   10.4790  -14.2026   28.3598 C   0  0  0  0  0  0  0  0  0  0  0  0
   10.6268  -15.5096   27.6160 C   0  0  1  0  0  0  0  0  0  0  0  0
   10.8127  -16.5760   28.6399 C   0  0  0  0  0  0  0  0  0  0  0  0
    9.8050  -17.2410   28.9769 O   0  0  0  0  0  0  0  0  0  0  0  0
   12.0320  -16.8525   29.2193 O   0  0  0  0  0  0  0  0  0  0  0  0
  2  1  1  6
  3  2  1  0
  4  3  1  0
  5  4  2  0
  6  5  1  0
  7  6  1  0
  7  8  2  0
  8  4  1  0
  9  2  1  0
  9 11  1  0
 10  9  2  0
 11 15  1  0
 12 11  1  0
 12 13  1  0
 13 14  1  0
 15 14  1  0
 15 16  1  1
 16 17  2  0
 18 22  1  0
 18 16  1  0
 19 18  1  0
 20 19  1  0
 20 21  1  0
 21 22  1  0
 23 25  1  0
 22 23  1  1
 24 23  2  0
M  END
$$$$
