HPP.pdb
     RDKit          3D

 25 27  0  0  1  0  0  0  0  0999 V2000
    9.3558  -15.4278   20.8489 N   0  0  0  0  0  0  0  0  0  0  0  0
    8.4128  -15.2925   21.8966 C   0  0  1  0  0  0  0  0  0  0  0  0
    7.6503  -16.6226   22.0139 C   0  0  0  0  0  0  0  0  0  0  0  0
    7.2445  -17.1012   20.6591 C   0  0  0  0  0  0  0  0  0  0  0  0
    6.7811  -16.3799   19.5855 C   0  0  0  0  0  0  0  0  0  0  0  0
    6.5347  -17.2036   18.5680 N   0  0  0  0  0  0  0  0  0  0  0  0
    6.8330  -18.4449   18.9724 C   0  0  0  0  0  0  0  0  0  0  0  0
    7.2664  -18.3958   20.2447 N   0  0  0  0  0  0  0  0  0  0  0  0
    8.8915  -14.8237   23.1848 C   0  0  0  0  0  0  0  0  0  0  0  0
   10.1602  -14.8702   23.3573 O   0  0  0  0  0  0  0  0  0  0  0  0
    8.1373  -14.3233   24.2751 N   0  0  0  0  0  0  0  0  0  0  0  0
    6.7099  -14.1786   24.3002 C   0  0  0  0  0  0  0  0  0  0  0  0
    6.4405  -13.1211   25.3207 C   0  0  0  0  0  0  0  0  0  0  0  0
    7.8298  -12.5735   25.7015 C   0  0  0  0  0  0  0  0  0  0  0  0
    8.6156  -13.8676   25.5660 C   0  0  1  0  0  0  0  0  0  0  0  0
    8.4054  -14.8152   26.6411 C   0  0  0  0  0  0  0  0  0  0  0  0
    7.4538  -15.6319   26.5785 O   0  0  0  0  0  0  0  0  0  0  0  0
    9.2434  -14.8514   27.7651 N   0  0  0  0  0  0  0  0  0  0  0  0
    8.9753  -14.1413   29.0173 C   0  0  0  0  0  0  0  0  0  0  0  0
   10.3164  -13.8124   29.5808 C   0  0  0  0  0  0  0  0  0  0  0  0
   11.3043  -14.4617   28.6683 C   0  0  0  0  0  0  0  0  0  0  0  0
   10.5094  -15.5397   27.9689 C   0  0  1  0  0  0  0  0  0  0  0  0
   10.3731  -16.6727   28.9269 C   0  0  0  0  0  0  0  0  0  0  0  0
    9.2652  -16.8258   29.4931 O   0  0  0  0  0  0  0  0  0  0  0  0
   11.4036  -17.5432   29.2077 O   0  0  0  0  0  0  0  0  0  0  0  0
  2  1  1  6
  3  2  1  0
  4  3  1  0
  5  4  2  0
  6  5  1  0
  7  6  1  0
  7  8  2  0
  8  4  1  0
  9  2  1  0
  9 11  1  0
 10  9  2  0
 11 15  1  0
 12 11  1  0
 12 13  1  0
 13 14  1  0
 15 14  1  0
 15 16  1  1
 16 17  2  0
 18 22  1  0
 18 16  1  0
 19 18  1  0
 20 19  1  0
 20 21  1  0
 21 22  1  0
 23 25  1  0
 22 23  1  1
 24 23  2  0
M  END
$$$$
