HPP.pdb
     RDKit          3D

 25 27  0  0  1  0  0  0  0  0999 V2000
    8.4521  -14.5131   20.3623 N   0  0  0  0  0  0  0  0  0  0  0  0
    8.0129  -15.1289   21.5595 C   0  0  1  0  0  0  0  0  0  0  0  0
    8.0618  -16.6510   21.3474 C   0  0  0  0  0  0  0  0  0  0  0  0
    7.6327  -17.3553   22.5920 C   0  0  0  0  0  0  0  0  0  0  0  0
    8.3986  -17.9947   23.5366 C   0  0  0  0  0  0  0  0  0  0  0  0
    7.6099  -18.4908   24.4886 N   0  0  0  0  0  0  0  0  0  0  0  0
    6.3472  -18.1794   24.1694 C   0  0  0  0  0  0  0  0  0  0  0  0
    6.3478  -17.4878   23.0158 N   0  0  0  0  0  0  0  0  0  0  0  0
    8.6514  -14.7313   22.8015 C   0  0  0  0  0  0  0  0  0  0  0  0
    9.9317  -14.6905   22.7807 O   0  0  0  0  0  0  0  0  0  0  0  0
    8.0418  -14.3842   24.0327 N   0  0  0  0  0  0  0  0  0  0  0  0
    6.6281  -14.3260   24.2719 C   0  0  0  0  0  0  0  0  0  0  0  0
    6.4633  -13.3905   25.4250 C   0  0  0  0  0  0  0  0  0  0  0  0
    7.8677  -12.8027   25.6635 C   0  0  0  0  0  0  0  0  0  0  0  0
    8.6814  -14.0294   25.2849 C   0  0  1  0  0  0  0  0  0  0  0  0
    8.6707  -15.0879   26.2735 C   0  0  0  0  0  0  0  0  0  0  0  0
    7.9633  -16.1089   26.0898 O   0  0  0  0  0  0  0  0  0  0  0  0
    9.4371  -15.0087   27.4454 N   0  0  0  0  0  0  0  0  0  0  0  0
    9.2498  -13.9966   28.4869 C   0  0  0  0  0  0  0  0  0  0  0  0
   10.6023  -13.7809   29.0771 C   0  0  0  0  0  0  0  0  0  0  0  0
   11.4926  -14.7797   28.4137 C   0  0  0  0  0  0  0  0  0  0  0  0
   10.5438  -15.8374   27.8997 C   0  0  1  0  0  0  0  0  0  0  0  0
   10.1582  -16.6817   29.0653 C   0  0  0  0  0  0  0  0  0  0  0  0
   11.0027  -17.5032   29.4934 O   0  0  0  0  0  0  0  0  0  0  0  0
    8.9276  -16.5930   29.6788 O   0  0  0  0  0  0  0  0  0  0  0  0
  2  1  1  6
  3  2  1  0
  4  3  1  0
  5  4  2  0
  6  5  1  0
  7  6  1  0
  7  8  2  0
  8  4  1  0
  9  2  1  0
  9 11  1  0
 10  9  2  0
 11 15  1  0
 12 11  1  0
 12 13  1  0
 13 14  1  0
 15 14  1  0
 15 16  1  1
 16 17  2  0
 18 22  1  0
 18 16  1  0
 19 18  1  0
 20 19  1  0
 20 21  1  0
 21 22  1  0
 23 25  1  0
 22 23  1  1
 24 23  2  0
M  END
$$$$
