HPP.pdb
     RDKit          3D

 25 27  0  0  1  0  0  0  0  0999 V2000
    8.2435  -14.8784   20.7246 N   0  0  0  0  0  0  0  0  0  0  0  0
    7.5041  -14.5123   21.8756 C   0  0  1  0  0  0  0  0  0  0  0  0
    6.4073  -15.5698   22.0825 C   0  0  0  0  0  0  0  0  0  0  0  0
    7.0243  -16.9138   22.2878 C   0  0  0  0  0  0  0  0  0  0  0  0
    8.3444  -17.2855   22.2063 C   0  0  0  0  0  0  0  0  0  0  0  0
    8.4574  -18.5879   22.4621 N   0  0  0  0  0  0  0  0  0  0  0  0
    7.2281  -19.0592   22.7069 C   0  0  0  0  0  0  0  0  0  0  0  0
    6.3462  -18.0490   22.6036 N   0  0  0  0  0  0  0  0  0  0  0  0
    8.2398  -14.2441   23.0984 C   0  0  0  0  0  0  0  0  0  0  0  0
    9.5165  -14.2856   23.0000 O   0  0  0  0  0  0  0  0  0  0  0  0
    7.7284  -13.9441   24.3854 N   0  0  0  0  0  0  0  0  0  0  0  0
    6.3394  -13.7925   24.7122 C   0  0  0  0  0  0  0  0  0  0  0  0
    6.3154  -12.9369   25.9367 C   0  0  0  0  0  0  0  0  0  0  0  0
    7.7748  -12.4818   26.1319 C   0  0  0  0  0  0  0  0  0  0  0  0
    8.4619  -13.7368   25.6191 C   0  0  1  0  0  0  0  0  0  0  0  0
    8.4163  -14.8629   26.5289 C   0  0  0  0  0  0  0  0  0  0  0  0
    7.5276  -15.7398   26.3955 O   0  0  0  0  0  0  0  0  0  0  0  0
    9.3471  -15.0082   27.5679 N   0  0  0  0  0  0  0  0  0  0  0  0
    9.3974  -14.1538   28.7560 C   0  0  0  0  0  0  0  0  0  0  0  0
   10.8341  -14.1141   29.1544 C   0  0  0  0  0  0  0  0  0  0  0  0
   11.5322  -15.0561   28.2294 C   0  0  0  0  0  0  0  0  0  0  0  0
   10.4336  -15.9634   27.7265 C   0  0  1  0  0  0  0  0  0  0  0  0
   10.1496  -16.9469   28.8092 C   0  0  0  0  0  0  0  0  0  0  0  0
   11.0040  -17.8386   29.0239 O   0  0  0  0  0  0  0  0  0  0  0  0
    9.0011  -16.9116   29.5696 O   0  0  0  0  0  0  0  0  0  0  0  0
  2  1  1  6
  3  2  1  0
  4  3  1  0
  5  4  2  0
  6  5  1  0
  7  6  1  0
  7  8  2  0
  8  4  1  0
  9  2  1  0
  9 11  1  0
 10  9  2  0
 11 15  1  0
 12 11  1  0
 12 13  1  0
 13 14  1  0
 15 14  1  0
 15 16  1  1
 16 17  2  0
 18 22  1  0
 18 16  1  0
 19 18  1  0
 20 19  1  0
 20 21  1  0
 21 22  1  0
 23 25  1  0
 22 23  1  1
 24 23  2  0
M  END
$$$$
