HPP.pdb
     RDKit          3D

 25 27  0  0  1  0  0  0  0  0999 V2000
    9.2616  -15.2783   20.9084 N   0  0  0  0  0  0  0  0  0  0  0  0
    8.3313  -15.1697   21.9705 C   0  0  1  0  0  0  0  0  0  0  0  0
    7.5711  -16.5030   22.0641 C   0  0  0  0  0  0  0  0  0  0  0  0
    7.1740  -16.9626   20.7002 C   0  0  0  0  0  0  0  0  0  0  0  0
    6.2842  -16.3990   19.8181 C   0  0  0  0  0  0  0  0  0  0  0  0
    6.2274  -17.1363   18.7101 N   0  0  0  0  0  0  0  0  0  0  0  0
    7.0682  -18.1666   18.8675 C   0  0  0  0  0  0  0  0  0  0  0  0
    7.6508  -18.0722   20.0760 N   0  0  0  0  0  0  0  0  0  0  0  0
    8.8253  -14.7325   23.2640 C   0  0  0  0  0  0  0  0  0  0  0  0
   10.0977  -14.7593   23.4116 O   0  0  0  0  0  0  0  0  0  0  0  0
    8.0826  -14.2817   24.3834 N   0  0  0  0  0  0  0  0  0  0  0  0
    6.6534  -14.1658   24.4393 C   0  0  0  0  0  0  0  0  0  0  0  0
    6.3834  -13.1467   25.4979 C   0  0  0  0  0  0  0  0  0  0  0  0
    7.7690  -12.5843   25.8705 C   0  0  0  0  0  0  0  0  0  0  0  0
    8.5764  -13.8578   25.6793 C   0  0  1  0  0  0  0  0  0  0  0  0
    8.4046  -14.8429   26.7271 C   0  0  0  0  0  0  0  0  0  0  0  0
    7.4035  -15.6006   26.7159 O   0  0  0  0  0  0  0  0  0  0  0  0
    9.3346  -14.9806   27.7680 N   0  0  0  0  0  0  0  0  0  0  0  0
    9.2501  -14.2753   29.0484 C   0  0  0  0  0  0  0  0  0  0  0  0
   10.6621  -14.0844   29.4890 C   0  0  0  0  0  0  0  0  0  0  0  0
   11.4969  -14.8033   28.4807 C   0  0  0  0  0  0  0  0  0  0  0  0
   10.5431  -15.7878   27.8448 C   0  0  1  0  0  0  0  0  0  0  0  0
   10.3882  -16.9232   28.7971 C   0  0  0  0  0  0  0  0  0  0  0  0
    9.3271  -16.9847   29.4616 O   0  0  0  0  0  0  0  0  0  0  0  0
   11.3533  -17.8914   28.9703 O   0  0  0  0  0  0  0  0  0  0  0  0
  2  1  1  6
  3  2  1  0
  4  3  1  0
  5  4  2  0
  6  5  1  0
  7  6  1  0
  7  8  2  0
  8  4  1  0
  9  2  1  0
  9 11  1  0
 10  9  2  0
 11 15  1  0
 12 11  1  0
 12 13  1  0
 13 14  1  0
 15 14  1  0
 15 16  1  1
 16 17  2  0
 18 22  1  0
 18 16  1  0
 19 18  1  0
 20 19  1  0
 20 21  1  0
 21 22  1  0
 23 25  1  0
 22 23  1  1
 24 23  2  0
M  END
$$$$
