HPP.pdb
     RDKit          3D

 25 27  0  0  1  0  0  0  0  0999 V2000
    9.1236  -15.3626   20.5452 N   0  0  0  0  0  0  0  0  0  0  0  0
    8.3434  -15.5190   21.7166 C   0  0  1  0  0  0  0  0  0  0  0  0
    8.0447  -17.0182   21.8825 C   0  0  0  0  0  0  0  0  0  0  0  0
    7.6850  -17.6175   20.5632 C   0  0  0  0  0  0  0  0  0  0  0  0
    6.7144  -17.2333   19.6699 C   0  0  0  0  0  0  0  0  0  0  0  0
    6.7322  -18.0467   18.6151 N   0  0  0  0  0  0  0  0  0  0  0  0
    7.7008  -18.9490   18.8178 C   0  0  0  0  0  0  0  0  0  0  0  0
    8.2885  -18.6983   20.0013 N   0  0  0  0  0  0  0  0  0  0  0  0
    8.8361  -14.9225   22.9453 C   0  0  0  0  0  0  0  0  0  0  0  0
   10.0882  -14.6522   22.9695 O   0  0  0  0  0  0  0  0  0  0  0  0
    8.1118  -14.6023   24.1204 N   0  0  0  0  0  0  0  0  0  0  0  0
    6.6856  -14.6736   24.2618 C   0  0  0  0  0  0  0  0  0  0  0  0
    6.3532  -13.7274   25.3692 C   0  0  0  0  0  0  0  0  0  0  0  0
    7.6762  -13.0012   25.6817 C   0  0  0  0  0  0  0  0  0  0  0  0
    8.6259  -14.1540   25.4001 C   0  0  1  0  0  0  0  0  0  0  0  0
    8.6453  -15.1815   26.4208 C   0  0  0  0  0  0  0  0  0  0  0  0
    7.9503  -16.2176   26.2793 O   0  0  0  0  0  0  0  0  0  0  0  0
    9.4277  -15.0553   27.5779 N   0  0  0  0  0  0  0  0  0  0  0  0
    9.2110  -14.0436   28.6141 C   0  0  0  0  0  0  0  0  0  0  0  0
   10.5620  -13.7587   29.1779 C   0  0  0  0  0  0  0  0  0  0  0  0
   11.4868  -14.7203   28.5068 C   0  0  0  0  0  0  0  0  0  0  0  0
   10.5804  -15.8265   28.0190 C   0  0  1  0  0  0  0  0  0  0  0  0
   10.2560  -16.6773   29.1984 C   0  0  0  0  0  0  0  0  0  0  0  0
   11.1717  -17.3920   29.6697 O   0  0  0  0  0  0  0  0  0  0  0  0
    9.0069  -16.7058   29.7795 O   0  0  0  0  0  0  0  0  0  0  0  0
  2  1  1  6
  3  2  1  0
  4  3  1  0
  5  4  2  0
  6  5  1  0
  7  6  1  0
  7  8  2  0
  8  4  1  0
  9  2  1  0
  9 11  1  0
 10  9  2  0
 11 15  1  0
 12 11  1  0
 12 13  1  0
 13 14  1  0
 15 14  1  0
 15 16  1  1
 16 17  2  0
 18 22  1  0
 18 16  1  0
 19 18  1  0
 20 19  1  0
 20 21  1  0
 21 22  1  0
 23 25  1  0
 22 23  1  1
 24 23  2  0
M  END
$$$$
