YYN.pdb
     RDKit          3D

 33 34  0  0  1  0  0  0  0  0999 V2000
   23.5008  -10.6098  -23.1269 O   0  0  0  0  0  0  0  0  0  0  0  0
   22.8869  -10.2085  -21.9589 C   0  0  0  0  0  0  0  0  0  0  0  0
   21.7128  -10.8452  -21.5753 C   0  0  0  0  0  0  0  0  0  0  0  0
   21.0834  -10.4471  -20.3956 C   0  0  0  0  0  0  0  0  0  0  0  0
   21.6177   -9.4474  -19.6347 C   0  0  0  0  0  0  0  0  0  0  0  0
   20.9388   -9.0331  -18.3827 C   0  0  0  0  0  0  0  0  0  0  0  0
   21.7571   -9.3941  -17.1574 C   0  0  2  0  0  0  0  0  0  0  0  0
   21.9393  -10.8099  -17.0504 N   0  0  0  0  0  0  0  0  0  0  0  0
   21.0740   -8.8035  -15.9796 C   0  0  0  0  0  0  0  0  0  0  0  0
   20.1359   -9.4588  -15.4620 O   0  0  0  0  0  0  0  0  0  0  0  0
   22.7985   -8.8226  -20.0409 C   0  0  0  0  0  0  0  0  0  0  0  0
   23.4352   -9.1974  -21.1976 C   0  0  0  0  0  0  0  0  0  0  0  0
   18.9305   -4.6072   -8.6974 O   0  0  0  0  0  0  0  0  0  0  0  0
   19.6048   -5.0038   -9.8452 C   0  0  0  0  0  0  0  0  0  0  0  0
   19.7822   -4.1499  -10.9076 C   0  0  0  0  0  0  0  0  0  0  0  0
   20.4574   -4.5563  -12.0492 C   0  0  0  0  0  0  0  0  0  0  0  0
   20.9759   -5.8350  -12.1588 C   0  0  0  0  0  0  0  0  0  0  0  0
   21.6937   -6.2239  -13.4057 C   0  0  0  0  0  0  0  0  0  0  0  0
   20.7820   -7.0347  -14.3006 C   0  0  2  0  0  0  0  0  0  0  0  0
   21.4558   -7.5500  -15.4502 N   0  0  0  0  0  0  0  0  0  0  0  0
   19.6644   -6.1190  -14.7235 C   0  0  0  0  0  0  0  0  0  0  0  0
   19.8252   -5.2168  -15.5778 O   0  0  0  0  0  0  0  0  0  0  0  0
   20.8009   -6.6876  -11.1026 C   0  0  0  0  0  0  0  0  0  0  0  0
   20.1248   -6.2812   -9.9589 C   0  0  0  0  0  0  0  0  0  0  0  0
   14.7947   -4.0790  -14.7795 N   0  0  0  0  0  0  0  0  0  0  0  0
   14.8673   -5.4942  -14.9963 C   0  0  0  0  0  0  0  0  0  0  0  0
   13.9527   -6.0009  -15.7077 O   0  0  0  0  0  0  0  0  0  0  0  0
   15.9753   -6.2742  -14.3962 C   0  0  0  0  0  0  0  0  0  0  0  0
   17.2392   -5.4898  -14.4413 C   0  0  2  0  0  0  0  0  0  0  0  0
   18.4076   -6.2917  -14.1348 N   0  0  0  0  0  0  0  0  0  0  0  0
   17.2334   -4.2835  -13.5874 C   0  0  0  0  0  0  0  0  0  0  0  0
   17.4854   -3.1218  -13.9907 O   0  0  0  0  0  0  0  0  0  0  0  0
   16.9245   -4.4482  -12.2308 O   0  0  0  0  0  0  0  0  0  0  0  0
  2  3  2  0
  2  1  1  0
  4  3  1  0
  5  4  2  0
  6  5  1  0
  7  6  1  0
  7  8  1  1
  9  7  1  0
  9 10  2  0
 11  5  1  0
 11 12  2  0
 12  2  1  0
 13 14  1  0
 14 24  2  0
 15 16  2  0
 15 14  1  0
 16 17  1  0
 17 23  2  0
 17 18  1  0
 19 20  1  0
 19 18  1  1
 20  9  1  0
 21 19  1  0
 22 21  2  0
 24 23  1  0
 25 26  1  0
 26 28  1  0
 27 26  2  0
 29 28  1  1
 29 30  1  0
 30 21  1  0
 31 29  1  0
 31 33  1  0
 32 31  2  0
M  END
$$$$
