YYN.pdb
     RDKit          3D

 33 34  0  0  1  0  0  0  0  0999 V2000
   22.0707  -17.9042  -25.3428 O   0  0  0  0  0  0  0  0  0  0  0  0
   21.9272  -18.3332  -24.0399 C   0  0  0  0  0  0  0  0  0  0  0  0
   22.2912  -19.6376  -23.7283 C   0  0  0  0  0  0  0  0  0  0  0  0
   22.1501  -20.0820  -22.4134 C   0  0  0  0  0  0  0  0  0  0  0  0
   21.6616  -19.2438  -21.4529 C   0  0  0  0  0  0  0  0  0  0  0  0
   21.5160  -19.7283  -20.0586 C   0  0  0  0  0  0  0  0  0  0  0  0
   22.6259  -19.2053  -19.1664 C   0  0  2  0  0  0  0  0  0  0  0  0
   23.9014  -19.7178  -19.5658 N   0  0  0  0  0  0  0  0  0  0  0  0
   22.2698  -19.5524  -17.7680 C   0  0  0  0  0  0  0  0  0  0  0  0
   22.4760  -20.7325  -17.3911 O   0  0  0  0  0  0  0  0  0  0  0  0
   21.3025  -17.9372  -21.7904 C   0  0  0  0  0  0  0  0  0  0  0  0
   21.4326  -17.4781  -23.0773 C   0  0  0  0  0  0  0  0  0  0  0  0
   20.1277  -19.6826   -9.3512 O   0  0  0  0  0  0  0  0  0  0  0  0
   20.4459  -19.2300  -10.6254 C   0  0  0  0  0  0  0  0  0  0  0  0
   21.5951  -19.6293  -11.2653 C   0  0  0  0  0  0  0  0  0  0  0  0
   21.9032  -19.1712  -12.5379 C   0  0  0  0  0  0  0  0  0  0  0  0
   21.0652  -18.2967  -13.2078 C   0  0  0  0  0  0  0  0  0  0  0  0
   21.4400  -17.8334  -14.5738 C   0  0  0  0  0  0  0  0  0  0  0  0
   21.3763  -18.9867  -15.5512 C   0  0  2  0  0  0  0  0  0  0  0  0
   21.7182  -18.5987  -16.8829 N   0  0  0  0  0  0  0  0  0  0  0  0
   19.9655  -19.5106  -15.5112 C   0  0  0  0  0  0  0  0  0  0  0  0
   19.0382  -18.9873  -16.1716 O   0  0  0  0  0  0  0  0  0  0  0  0
   19.9202  -17.8974  -12.5732 C   0  0  0  0  0  0  0  0  0  0  0  0
   19.6109  -18.3557  -11.2986 C   0  0  0  0  0  0  0  0  0  0  0  0
   16.3792  -22.2818  -13.1331 N   0  0  0  0  0  0  0  0  0  0  0  0
   17.3992  -23.2094  -13.5257 C   0  0  0  0  0  0  0  0  0  0  0  0
   17.2614  -24.3998  -13.1214 O   0  0  0  0  0  0  0  0  0  0  0  0
   18.5326  -22.7463  -14.3606 C   0  0  0  0  0  0  0  0  0  0  0  0
   18.4085  -21.2883  -14.6322 C   0  0  2  0  0  0  0  0  0  0  0  0
   19.6934  -20.6205  -14.7051 N   0  0  0  0  0  0  0  0  0  0  0  0
   17.5338  -20.5683  -13.6832 C   0  0  0  0  0  0  0  0  0  0  0  0
   17.9095  -19.6351  -12.9325 O   0  0  0  0  0  0  0  0  0  0  0  0
   16.1887  -20.9549  -13.6165 O   0  0  0  0  0  0  0  0  0  0  0  0
  2  3  2  0
  2  1  1  0
  4  3  1  0
  5  4  2  0
  6  5  1  0
  7  6  1  0
  7  8  1  6
  9  7  1  0
  9 10  2  0
 11  5  1  0
 11 12  2  0
 12  2  1  0
 13 14  1  0
 14 24  2  0
 15 16  2  0
 15 14  1  0
 16 17  1  0
 17 23  2  0
 17 18  1  0
 19 20  1  0
 19 18  1  1
 20  9  1  0
 21 19  1  0
 22 21  2  0
 24 23  1  0
 25 26  1  0
 26 28  1  0
 27 26  2  0
 29 28  1  1
 29 30  1  0
 30 21  1  0
 31 29  1  0
 31 33  1  0
 32 31  2  0
M  END
$$$$
