YYN.pdb
     RDKit          3D

 33 34  0  0  1  0  0  0  0  0999 V2000
   30.3392  -12.4841  -16.8862 O   0  0  0  0  0  0  0  0  0  0  0  0
   29.1540  -11.8048  -16.6963 C   0  0  0  0  0  0  0  0  0  0  0  0
   28.8624  -10.7352  -17.5341 C   0  0  0  0  0  0  0  0  0  0  0  0
   27.6662  -10.0409  -17.3508 C   0  0  0  0  0  0  0  0  0  0  0  0
   26.8005  -10.4115  -16.3624 C   0  0  0  0  0  0  0  0  0  0  0  0
   25.5321   -9.6651  -16.1774 C   0  0  0  0  0  0  0  0  0  0  0  0
   24.3231  -10.5576  -16.3844 C   0  0  2  0  0  0  0  0  0  0  0  0
   24.3946  -11.2511  -17.6347 N   0  0  0  0  0  0  0  0  0  0  0  0
   23.1160   -9.7032  -16.2598 C   0  0  0  0  0  0  0  0  0  0  0  0
   22.5959   -9.2730  -17.3189 O   0  0  0  0  0  0  0  0  0  0  0  0
   27.1157  -11.4898  -15.5331 C   0  0  0  0  0  0  0  0  0  0  0  0
   28.2865  -12.1876  -15.6947 C   0  0  0  0  0  0  0  0  0  0  0  0
   17.6617  -13.4514  -16.7904 O   0  0  0  0  0  0  0  0  0  0  0  0
   18.3104  -12.4224  -16.1196 C   0  0  0  0  0  0  0  0  0  0  0  0
   17.8389  -11.1317  -16.1525 C   0  0  0  0  0  0  0  0  0  0  0  0
   18.4945  -10.1115  -15.4789 C   0  0  0  0  0  0  0  0  0  0  0  0
   19.6457  -10.3570  -14.7507 C   0  0  0  0  0  0  0  0  0  0  0  0
   20.3135   -9.2274  -14.0440 C   0  0  0  0  0  0  0  0  0  0  0  0
   21.3641   -8.6028  -14.9359 C   0  0  2  0  0  0  0  0  0  0  0  0
   22.5623   -9.3782  -15.0008 N   0  0  0  0  0  0  0  0  0  0  0  0
   21.6599   -7.2405  -14.3677 C   0  0  0  0  0  0  0  0  0  0  0  0
   22.6589   -7.0193  -13.6446 O   0  0  0  0  0  0  0  0  0  0  0  0
   20.1177  -11.6412  -14.7161 C   0  0  0  0  0  0  0  0  0  0  0  0
   19.4616  -12.6635  -15.3904 C   0  0  0  0  0  0  0  0  0  0  0  0
   23.4800   -2.3123  -15.9742 N   0  0  0  0  0  0  0  0  0  0  0  0
   22.7802   -3.0474  -14.9617 C   0  0  0  0  0  0  0  0  0  0  0  0
   22.4932   -2.4141  -13.9053 O   0  0  0  0  0  0  0  0  0  0  0  0
   22.4360   -4.4704  -15.1915 C   0  0  0  0  0  0  0  0  0  0  0  0
   21.1191   -4.7865  -14.5745 C   0  0  2  0  0  0  0  0  0  0  0  0
   20.7814   -6.1936  -14.6646 N   0  0  0  0  0  0  0  0  0  0  0  0
   19.9971   -3.9777  -15.0954 C   0  0  0  0  0  0  0  0  0  0  0  0
   19.5855   -4.0068  -16.2808 O   0  0  0  0  0  0  0  0  0  0  0  0
   19.3461   -3.1168  -14.2020 O   0  0  0  0  0  0  0  0  0  0  0  0
  2  3  2  0
  2  1  1  0
  4  3  1  0
  5  4  2  0
  6  5  1  0
  7  6  1  0
  7  8  1  6
  9  7  1  0
  9 10  2  0
 11  5  1  0
 11 12  2  0
 12  2  1  0
 13 14  1  0
 14 24  2  0
 15 16  2  0
 15 14  1  0
 16 17  1  0
 17 23  2  0
 17 18  1  0
 19 20  1  0
 19 18  1  1
 20  9  1  0
 21 19  1  0
 22 21  2  0
 24 23  1  0
 25 26  1  0
 26 28  1  0
 27 26  2  0
 29 28  1  6
 29 30  1  0
 30 21  1  0
 31 29  1  0
 31 33  1  0
 32 31  2  0
M  END
$$$$
