YYN.pdb
     RDKit          3D

 33 34  0  0  1  0  0  0  0  0999 V2000
   29.9887  -11.5954  -15.8167 O   0  0  0  0  0  0  0  0  0  0  0  0
   28.7310  -11.0509  -15.9722 C   0  0  0  0  0  0  0  0  0  0  0  0
   28.5179  -10.1655  -17.0217 C   0  0  0  0  0  0  0  0  0  0  0  0
   27.2495   -9.6088  -17.1882 C   0  0  0  0  0  0  0  0  0  0  0  0
   26.2383   -9.9329  -16.3302 C   0  0  0  0  0  0  0  0  0  0  0  0
   24.8943   -9.3340  -16.5176 C   0  0  0  0  0  0  0  0  0  0  0  0
   23.8791  -10.3682  -16.9659 C   0  0  2  0  0  0  0  0  0  0  0  0
   24.3195  -11.0561  -18.1414 N   0  0  0  0  0  0  0  0  0  0  0  0
   22.5848   -9.6660  -17.1516 C   0  0  0  0  0  0  0  0  0  0  0  0
   22.2686   -9.3282  -18.3192 O   0  0  0  0  0  0  0  0  0  0  0  0
   26.4769  -10.8251  -15.2830 C   0  0  0  0  0  0  0  0  0  0  0  0
   27.7165  -11.3852  -15.0996 C   0  0  0  0  0  0  0  0  0  0  0  0
   17.9123  -14.3923  -18.1798 O   0  0  0  0  0  0  0  0  0  0  0  0
   18.2604  -13.2120  -17.5355 C   0  0  0  0  0  0  0  0  0  0  0  0
   19.2204  -13.1846  -16.5521 C   0  0  0  0  0  0  0  0  0  0  0  0
   19.5605  -12.0002  -15.9151 C   0  0  0  0  0  0  0  0  0  0  0  0
   18.9458  -10.8052  -16.2468 C   0  0  0  0  0  0  0  0  0  0  0  0
   19.3462   -9.5592  -15.5337 C   0  0  0  0  0  0  0  0  0  0  0  0
   20.4307   -8.8416  -16.3073 C   0  0  2  0  0  0  0  0  0  0  0  0
   21.7304   -9.3819  -16.0624 N   0  0  0  0  0  0  0  0  0  0  0  0
   20.3823   -7.3981  -15.8827 C   0  0  0  0  0  0  0  0  0  0  0  0
   20.8309   -7.0095  -14.7792 O   0  0  0  0  0  0  0  0  0  0  0  0
   17.9895  -10.8293  -17.2256 C   0  0  0  0  0  0  0  0  0  0  0  0
   17.6483  -12.0152  -17.8641 C   0  0  0  0  0  0  0  0  0  0  0  0
   18.9067   -1.9659  -16.6661 N   0  0  0  0  0  0  0  0  0  0  0  0
   19.6499   -2.8626  -17.5021 C   0  0  0  0  0  0  0  0  0  0  0  0
   20.6654   -2.3794  -18.0805 O   0  0  0  0  0  0  0  0  0  0  0  0
   19.2086   -4.2700  -17.6458 C   0  0  0  0  0  0  0  0  0  0  0  0
   19.6247   -5.0629  -16.4571 C   0  0  2  0  0  0  0  0  0  0  0  0
   19.8144   -6.4682  -16.7593 N   0  0  0  0  0  0  0  0  0  0  0  0
   18.7231   -4.9279  -15.2938 C   0  0  0  0  0  0  0  0  0  0  0  0
   17.6721   -5.5927  -15.1239 O   0  0  0  0  0  0  0  0  0  0  0  0
   19.0661   -3.9909  -14.3102 O   0  0  0  0  0  0  0  0  0  0  0  0
  2  3  2  0
  2  1  1  0
  4  3  1  0
  5  4  2  0
  6  5  1  0
  7  6  1  0
  7  8  1  6
  9  7  1  0
  9 10  2  0
 11  5  1  0
 11 12  2  0
 12  2  1  0
 13 14  1  0
 14 24  2  0
 15 16  2  0
 15 14  1  0
 16 17  1  0
 17 23  2  0
 17 18  1  0
 19 20  1  0
 19 18  1  1
 20  9  1  0
 21 19  1  0
 22 21  2  0
 24 23  1  0
 25 26  1  0
 26 28  1  0
 27 26  2  0
 29 28  1  6
 29 30  1  0
 30 21  1  0
 31 29  1  0
 31 33  1  0
 32 31  2  0
M  END
$$$$
