YYN.pdb
     RDKit          3D

 33 34  0  0  1  0  0  0  0  0999 V2000
   18.0598  -23.9688  -16.6274 O   0  0  0  0  0  0  0  0  0  0  0  0
   19.1511  -23.3584  -16.0455 C   0  0  0  0  0  0  0  0  0  0  0  0
   19.2782  -21.9794  -16.1608 C   0  0  0  0  0  0  0  0  0  0  0  0
   20.3784  -21.3517  -15.5760 C   0  0  0  0  0  0  0  0  0  0  0  0
   21.3115  -22.0862  -14.9026 C   0  0  0  0  0  0  0  0  0  0  0  0
   22.4769  -21.4071  -14.2855 C   0  0  0  0  0  0  0  0  0  0  0  0
   22.2745  -21.1909  -12.7978 C   0  0  2  0  0  0  0  0  0  0  0  0
   21.1774  -20.3072  -12.5436 N   0  0  0  0  0  0  0  0  0  0  0  0
   23.5602  -20.6987  -12.2434 C   0  0  0  0  0  0  0  0  0  0  0  0
   23.7891  -19.4657  -12.3116 O   0  0  0  0  0  0  0  0  0  0  0  0
   21.1620  -23.4708  -14.8002 C   0  0  0  0  0  0  0  0  0  0  0  0
   20.0880  -24.1100  -15.3674 C   0  0  0  0  0  0  0  0  0  0  0  0
   28.5468  -18.4662   -6.0849 O   0  0  0  0  0  0  0  0  0  0  0  0
   28.0060  -19.3030   -7.0529 C   0  0  0  0  0  0  0  0  0  0  0  0
   26.6595  -19.3087   -7.3291 C   0  0  0  0  0  0  0  0  0  0  0  0
   26.1300  -20.1484   -8.2979 C   0  0  0  0  0  0  0  0  0  0  0  0
   26.9379  -21.0095   -9.0201 C   0  0  0  0  0  0  0  0  0  0  0  0
   26.3215  -21.8920  -10.0509 C   0  0  0  0  0  0  0  0  0  0  0  0
   25.7409  -21.0577  -11.1717 C   0  0  2  0  0  0  0  0  0  0  0  0
   24.5011  -21.5754  -11.6574 N   0  0  0  0  0  0  0  0  0  0  0  0
   26.7639  -21.0443  -12.2760 C   0  0  0  0  0  0  0  0  0  0  0  0
   27.5318  -22.0111  -12.4889 O   0  0  0  0  0  0  0  0  0  0  0  0
   28.2791  -21.0061   -8.7474 C   0  0  0  0  0  0  0  0  0  0  0  0
   28.8102  -20.1653   -7.7771 C   0  0  0  0  0  0  0  0  0  0  0  0
   29.2490  -21.3784  -16.7011 N   0  0  0  0  0  0  0  0  0  0  0  0
   27.9600  -20.7688  -16.5526 C   0  0  0  0  0  0  0  0  0  0  0  0
   27.5286  -20.1184  -17.5476 O   0  0  0  0  0  0  0  0  0  0  0  0
   27.2154  -20.9237  -15.2807 C   0  0  0  0  0  0  0  0  0  0  0  0
   27.5881  -19.8395  -14.3318 C   0  0  2  0  0  0  0  0  0  0  0  0
   26.8501  -19.9072  -13.0856 N   0  0  0  0  0  0  0  0  0  0  0  0
   27.4770  -18.4777  -14.8953 C   0  0  0  0  0  0  0  0  0  0  0  0
   26.5173  -17.6955  -14.6889 O   0  0  0  0  0  0  0  0  0  0  0  0
   28.5174  -18.0274  -15.7186 O   0  0  0  0  0  0  0  0  0  0  0  0
  2  3  2  0
  2  1  1  0
  4  3  1  0
  5  4  2  0
  6  5  1  0
  7  6  1  0
  7  8  1  6
  9  7  1  0
  9 10  2  0
 11  5  1  0
 11 12  2  0
 12  2  1  0
 13 14  1  0
 14 24  2  0
 15 16  2  0
 15 14  1  0
 16 17  1  0
 17 23  2  0
 17 18  1  0
 19 20  1  0
 19 18  1  1
 20  9  1  0
 21 19  1  0
 22 21  2  0
 24 23  1  0
 25 26  1  0
 26 28  1  0
 27 26  2  0
 29 28  1  6
 29 30  1  0
 30 21  1  0
 31 29  1  0
 31 33  1  0
 32 31  2  0
M  END
$$$$
