YYN.pdb
     RDKit          3D

 33 34  0  0  1  0  0  0  0  0999 V2000
   31.0915   -7.2585  -24.2433 O   0  0  0  0  0  0  0  0  0  0  0  0
   30.0846   -7.5679  -23.3529 C   0  0  0  0  0  0  0  0  0  0  0  0
   28.8491   -6.9517  -23.5102 C   0  0  0  0  0  0  0  0  0  0  0  0
   27.8235   -7.2573  -22.6151 C   0  0  0  0  0  0  0  0  0  0  0  0
   28.0369   -8.1485  -21.6032 C   0  0  0  0  0  0  0  0  0  0  0  0
   26.9385   -8.4648  -20.6578 C   0  0  0  0  0  0  0  0  0  0  0  0
   27.2533   -9.6941  -19.8265 C   0  0  2  0  0  0  0  0  0  0  0  0
   27.3395  -10.8673  -20.6421 N   0  0  0  0  0  0  0  0  0  0  0  0
   26.2142   -9.7925  -18.7714 C   0  0  0  0  0  0  0  0  0  0  0  0
   25.2123  -10.5123  -19.0070 O   0  0  0  0  0  0  0  0  0  0  0  0
   29.2872   -8.7549  -21.4656 C   0  0  0  0  0  0  0  0  0  0  0  0
   30.3109   -8.4696  -22.3341 C   0  0  0  0  0  0  0  0  0  0  0  0
   28.0214  -15.0025  -15.7294 O   0  0  0  0  0  0  0  0  0  0  0  0
   27.5047  -13.7193  -15.6031 C   0  0  0  0  0  0  0  0  0  0  0  0
   28.2715  -12.6064  -15.8540 C   0  0  0  0  0  0  0  0  0  0  0  0
   27.7454  -11.3293  -15.7249 C   0  0  0  0  0  0  0  0  0  0  0  0
   26.4310  -11.1307  -15.3393 C   0  0  0  0  0  0  0  0  0  0  0  0
   25.9121   -9.7391  -15.2151 C   0  0  0  0  0  0  0  0  0  0  0  0
   25.3362   -9.2777  -16.5360 C   0  0  2  0  0  0  0  0  0  0  0  0
   26.3359   -9.1061  -17.5421 N   0  0  0  0  0  0  0  0  0  0  0  0
   24.6391   -7.9700  -16.2712 C   0  0  0  0  0  0  0  0  0  0  0  0
   25.1973   -6.8640  -16.4582 O   0  0  0  0  0  0  0  0  0  0  0  0
   25.6650  -12.2369  -15.0887 C   0  0  0  0  0  0  0  0  0  0  0  0
   26.1912  -13.5163  -15.2178 C   0  0  0  0  0  0  0  0  0  0  0  0
   21.9677   -3.6793  -16.1085 N   0  0  0  0  0  0  0  0  0  0  0  0
   21.4964   -4.8772  -16.7394 C   0  0  0  0  0  0  0  0  0  0  0  0
   20.2888   -4.8763  -17.1148 O   0  0  0  0  0  0  0  0  0  0  0  0
   22.4163   -6.0254  -16.9172 C   0  0  0  0  0  0  0  0  0  0  0  0
   22.4642   -6.8426  -15.6743 C   0  0  2  0  0  0  0  0  0  0  0  0
   23.3227   -8.0043  -15.8002 N   0  0  0  0  0  0  0  0  0  0  0  0
   21.1382   -7.2635  -15.1753 C   0  0  0  0  0  0  0  0  0  0  0  0
   20.6816   -8.4298  -15.2570 O   0  0  0  0  0  0  0  0  0  0  0  0
   20.3333   -6.2911  -14.5674 O   0  0  0  0  0  0  0  0  0  0  0  0
  2  3  2  0
  2  1  1  0
  4  3  1  0
  5  4  2  0
  6  5  1  0
  7  6  1  0
  7  8  1  6
  9  7  1  0
  9 10  2  0
 11  5  1  0
 11 12  2  0
 12  2  1  0
 13 14  1  0
 14 24  2  0
 15 16  2  0
 15 14  1  0
 16 17  1  0
 17 23  2  0
 17 18  1  0
 19 20  1  0
 19 18  1  1
 20  9  1  0
 21 19  1  0
 22 21  2  0
 24 23  1  0
 25 26  1  0
 26 28  1  0
 27 26  2  0
 29 28  1  6
 29 30  1  0
 30 21  1  0
 31 29  1  0
 31 33  1  0
 32 31  2  0
M  END
$$$$
