YYN.pdb
     RDKit          3D

 33 34  0  0  1  0  0  0  0  0999 V2000
   16.4857  -22.8846  -17.7265 O   0  0  0  0  0  0  0  0  0  0  0  0
   17.0064  -21.6119  -17.8340 C   0  0  0  0  0  0  0  0  0  0  0  0
   17.3824  -20.9500  -16.6715 C   0  0  0  0  0  0  0  0  0  0  0  0
   17.9102  -19.6622  -16.7687 C   0  0  0  0  0  0  0  0  0  0  0  0
   18.0525  -19.0676  -17.9893 C   0  0  0  0  0  0  0  0  0  0  0  0
   18.6147  -17.6980  -18.0793 C   0  0  0  0  0  0  0  0  0  0  0  0
   20.0762  -17.7193  -18.4851 C   0  0  2  0  0  0  0  0  0  0  0  0
   20.8844  -18.3573  -17.4906 N   0  0  0  0  0  0  0  0  0  0  0  0
   20.4811  -16.3169  -18.7538 C   0  0  0  0  0  0  0  0  0  0  0  0
   20.7630  -15.5935  -17.7665 O   0  0  0  0  0  0  0  0  0  0  0  0
   17.6675  -19.7530  -19.1434 C   0  0  0  0  0  0  0  0  0  0  0  0
   17.1458  -21.0205  -19.0722 C   0  0  0  0  0  0  0  0  0  0  0  0
   26.4596  -16.6543  -22.5782 O   0  0  0  0  0  0  0  0  0  0  0  0
   25.2271  -16.0520  -22.3598 C   0  0  0  0  0  0  0  0  0  0  0  0
   25.1030  -14.6881  -22.2424 C   0  0  0  0  0  0  0  0  0  0  0  0
   23.8672  -14.0968  -22.0244 C   0  0  0  0  0  0  0  0  0  0  0  0
   22.7165  -14.8586  -21.9175 C   0  0  0  0  0  0  0  0  0  0  0  0
   21.4121  -14.1765  -21.6836 C   0  0  0  0  0  0  0  0  0  0  0  0
   20.9313  -14.4406  -20.2735 C   0  0  2  0  0  0  0  0  0  0  0  0
   20.5508  -15.8023  -20.0681 N   0  0  0  0  0  0  0  0  0  0  0  0
   19.7525  -13.5336  -20.0411 C   0  0  0  0  0  0  0  0  0  0  0  0
   18.5730  -13.9563  -20.0383 O   0  0  0  0  0  0  0  0  0  0  0  0
   22.8369  -16.2169  -22.0340 C   0  0  0  0  0  0  0  0  0  0  0  0
   24.0743  -16.8099  -22.2523 C   0  0  0  0  0  0  0  0  0  0  0  0
   17.1118   -9.3257  -18.8833 N   0  0  0  0  0  0  0  0  0  0  0  0
   17.1318  -10.5132  -18.0805 C   0  0  0  0  0  0  0  0  0  0  0  0
   16.2849  -10.5714  -17.1430 O   0  0  0  0  0  0  0  0  0  0  0  0
   18.1123  -11.5843  -18.3760 C   0  0  0  0  0  0  0  0  0  0  0  0
   18.9698  -11.1925  -19.5275 C   0  0  2  0  0  0  0  0  0  0  0  0
   19.9956  -12.1740  -19.8219 N   0  0  0  0  0  0  0  0  0  0  0  0
   19.5907   -9.8581  -19.3931 C   0  0  0  0  0  0  0  0  0  0  0  0
   18.9687   -8.8066  -19.1048 O   0  0  0  0  0  0  0  0  0  0  0  0
   20.9726   -9.7595  -19.6023 O   0  0  0  0  0  0  0  0  0  0  0  0
  2  3  2  0
  2  1  1  0
  4  3  1  0
  5  4  2  0
  6  5  1  0
  7  6  1  0
  7  8  1  1
  9  7  1  0
  9 10  2  0
 11  5  1  0
 11 12  2  0
 12  2  1  0
 13 14  1  0
 14 24  2  0
 15 16  2  0
 15 14  1  0
 16 17  1  0
 17 23  2  0
 17 18  1  0
 19 20  1  0
 19 18  1  6
 20  9  1  0
 21 19  1  0
 22 21  2  0
 24 23  1  0
 25 26  1  0
 26 28  1  0
 27 26  2  0
 29 28  1  1
 29 30  1  0
 30 21  1  0
 31 29  1  0
 31 33  1  0
 32 31  2  0
M  END
$$$$
