YYN.pdb
     RDKit          3D

 33 34  0  0  1  0  0  0  0  0999 V2000
   28.6172  -19.3281  -23.1404 O   0  0  0  0  0  0  0  0  0  0  0  0
   28.0023  -19.7064  -21.9652 C   0  0  0  0  0  0  0  0  0  0  0  0
   28.1196  -18.8740  -20.8587 C   0  0  0  0  0  0  0  0  0  0  0  0
   27.5017  -19.2472  -19.6648 C   0  0  0  0  0  0  0  0  0  0  0  0
   26.7946  -20.4127  -19.5914 C   0  0  0  0  0  0  0  0  0  0  0  0
   26.1425  -20.7984  -18.3163 C   0  0  0  0  0  0  0  0  0  0  0  0
   27.0662  -21.6281  -17.4447 C   0  0  2  0  0  0  0  0  0  0  0  0
   27.3669  -22.8878  -18.0546 N   0  0  0  0  0  0  0  0  0  0  0  0
   26.4180  -21.7632  -16.1165 C   0  0  0  0  0  0  0  0  0  0  0  0
   25.5670  -22.6760  -15.9747 O   0  0  0  0  0  0  0  0  0  0  0  0
   26.6910  -21.2326  -20.7170 C   0  0  0  0  0  0  0  0  0  0  0  0
   27.2904  -20.8861  -21.9020 C   0  0  0  0  0  0  0  0  0  0  0  0
   23.7179  -20.7331   -7.8679 O   0  0  0  0  0  0  0  0  0  0  0  0
   24.4671  -20.6487   -9.0346 C   0  0  0  0  0  0  0  0  0  0  0  0
   24.4430  -19.5251   -9.8260 C   0  0  0  0  0  0  0  0  0  0  0  0
   25.1952  -19.4513  -10.9892 C   0  0  0  0  0  0  0  0  0  0  0  0
   25.9959  -20.5054  -11.3937 C   0  0  0  0  0  0  0  0  0  0  0  0
   26.7856  -20.3776  -12.6512 C   0  0  0  0  0  0  0  0  0  0  0  0
   26.0555  -21.0462  -13.7954 C   0  0  2  0  0  0  0  0  0  0  0  0
   26.7380  -20.9025  -15.0423 N   0  0  0  0  0  0  0  0  0  0  0  0
   24.6951  -20.4063  -13.8737 C   0  0  0  0  0  0  0  0  0  0  0  0
   24.4855  -19.3569  -14.5253 O   0  0  0  0  0  0  0  0  0  0  0  0
   26.0219  -21.6255  -10.6077 C   0  0  0  0  0  0  0  0  0  0  0  0
   25.2688  -21.7002   -9.4426 C   0  0  0  0  0  0  0  0  0  0  0  0
   21.7177  -18.6650  -15.1025 N   0  0  0  0  0  0  0  0  0  0  0  0
   21.5930  -19.9768  -15.6669 C   0  0  0  0  0  0  0  0  0  0  0  0
   21.2947  -20.0338  -16.8946 O   0  0  0  0  0  0  0  0  0  0  0  0
   21.8123  -21.1684  -14.8136 C   0  0  0  0  0  0  0  0  0  0  0  0
   22.2341  -20.7521  -13.4484 C   0  0  2  0  0  0  0  0  0  0  0  0
   23.6367  -21.0141  -13.1910 N   0  0  0  0  0  0  0  0  0  0  0  0
   21.4184  -21.3309  -12.3603 C   0  0  0  0  0  0  0  0  0  0  0  0
   21.1714  -22.5542  -12.2259 O   0  0  0  0  0  0  0  0  0  0  0  0
   20.8824  -20.4512  -11.4106 O   0  0  0  0  0  0  0  0  0  0  0  0
  2  3  2  0
  2  1  1  0
  4  3  1  0
  5  4  2  0
  6  5  1  0
  7  6  1  0
  7  8  1  6
  9  7  1  0
  9 10  2  0
 11  5  1  0
 11 12  2  0
 12  2  1  0
 13 14  1  0
 14 24  2  0
 15 16  2  0
 15 14  1  0
 16 17  1  0
 17 23  2  0
 17 18  1  0
 19 20  1  0
 19 18  1  1
 20  9  1  0
 21 19  1  0
 22 21  2  0
 24 23  1  0
 25 26  1  0
 26 28  1  0
 27 26  2  0
 29 28  1  6
 29 30  1  0
 30 21  1  0
 31 29  1  0
 31 33  1  0
 32 31  2  0
M  END
$$$$
