YYN.pdb
     RDKit          3D

 33 34  0  0  1  0  0  0  0  0999 V2000
   29.7259  -19.6173  -22.6812 O   0  0  0  0  0  0  0  0  0  0  0  0
   29.0152  -19.8682  -21.5261 C   0  0  0  0  0  0  0  0  0  0  0  0
   27.9418  -20.7486  -21.5872 C   0  0  0  0  0  0  0  0  0  0  0  0
   27.2159  -21.0096  -20.4247 C   0  0  0  0  0  0  0  0  0  0  0  0
   27.5599  -20.4065  -19.2493 C   0  0  0  0  0  0  0  0  0  0  0  0
   26.7800  -20.6919  -18.0203 C   0  0  0  0  0  0  0  0  0  0  0  0
   27.4954  -21.6832  -17.1220 C   0  0  2  0  0  0  0  0  0  0  0  0
   27.5660  -22.9787  -17.7269 N   0  0  0  0  0  0  0  0  0  0  0  0
   26.7892  -21.6869  -15.8167 C   0  0  0  0  0  0  0  0  0  0  0  0
   25.8161  -22.4697  -15.6839 O   0  0  0  0  0  0  0  0  0  0  0  0
   28.6426  -19.5254  -19.2130 C   0  0  0  0  0  0  0  0  0  0  0  0
   29.3712  -19.2535  -20.3439 C   0  0  0  0  0  0  0  0  0  0  0  0
   24.2811  -20.3855   -7.5473 O   0  0  0  0  0  0  0  0  0  0  0  0
   25.0306  -20.4061   -8.7166 C   0  0  0  0  0  0  0  0  0  0  0  0
   25.1941  -19.2796   -9.4871 C   0  0  0  0  0  0  0  0  0  0  0  0
   25.9448  -19.3114  -10.6532 C   0  0  0  0  0  0  0  0  0  0  0  0
   26.5552  -20.4774  -11.0817 C   0  0  0  0  0  0  0  0  0  0  0  0
   27.3518  -20.4605  -12.3413 C   0  0  0  0  0  0  0  0  0  0  0  0
   26.4957  -20.9092  -13.5054 C   0  0  2  0  0  0  0  0  0  0  0  0
   27.1874  -20.8449  -14.7538 N   0  0  0  0  0  0  0  0  0  0  0  0
   25.2936  -20.0034  -13.5331 C   0  0  0  0  0  0  0  0  0  0  0  0
   25.2969  -18.9048  -14.1354 O   0  0  0  0  0  0  0  0  0  0  0  0
   26.3942  -21.6008  -10.3166 C   0  0  0  0  0  0  0  0  0  0  0  0
   25.6424  -21.5698   -9.1486 C   0  0  0  0  0  0  0  0  0  0  0  0
   20.2766  -19.8123  -14.2867 N   0  0  0  0  0  0  0  0  0  0  0  0
   21.1749  -20.5346  -15.1390 C   0  0  0  0  0  0  0  0  0  0  0  0
   20.7041  -20.9307  -16.2438 O   0  0  0  0  0  0  0  0  0  0  0  0
   22.5697  -20.7767  -14.7007 C   0  0  0  0  0  0  0  0  0  0  0  0
   22.7877  -20.2078  -13.3429 C   0  0  2  0  0  0  0  0  0  0  0  0
   24.1389  -20.4140  -12.8592 N   0  0  0  0  0  0  0  0  0  0  0  0
   21.8246  -20.6812  -12.3267 C   0  0  0  0  0  0  0  0  0  0  0  0
   20.5999  -20.4060  -12.3205 O   0  0  0  0  0  0  0  0  0  0  0  0
   22.3133  -21.4954  -11.2965 O   0  0  0  0  0  0  0  0  0  0  0  0
  2  3  2  0
  2  1  1  0
  4  3  1  0
  5  4  2  0
  6  5  1  0
  7  6  1  0
  7  8  1  6
  9  7  1  0
  9 10  2  0
 11  5  1  0
 11 12  2  0
 12  2  1  0
 13 14  1  0
 14 24  2  0
 15 16  2  0
 15 14  1  0
 16 17  1  0
 17 23  2  0
 17 18  1  0
 19 20  1  0
 19 18  1  1
 20  9  1  0
 21 19  1  0
 22 21  2  0
 24 23  1  0
 25 26  1  0
 26 28  1  0
 27 26  2  0
 29 28  1  6
 29 30  1  0
 30 21  1  0
 31 29  1  0
 31 33  1  0
 32 31  2  0
M  END
$$$$
