YYN.pdb
     RDKit          3D

 33 34  0  0  1  0  0  0  0  0999 V2000
   15.4467  -14.0291  -21.9334 O   0  0  0  0  0  0  0  0  0  0  0  0
   16.3391  -13.0256  -21.6193 C   0  0  0  0  0  0  0  0  0  0  0  0
   16.3948  -12.5764  -20.3055 C   0  0  0  0  0  0  0  0  0  0  0  0
   17.2940  -11.5616  -19.9766 C   0  0  0  0  0  0  0  0  0  0  0  0
   18.1034  -11.0228  -20.9350 C   0  0  0  0  0  0  0  0  0  0  0  0
   19.0549   -9.9441  -20.5728 C   0  0  0  0  0  0  0  0  0  0  0  0
   18.3398   -8.6313  -20.3151 C   0  0  2  0  0  0  0  0  0  0  0  0
   17.6824   -8.1552  -21.4941 N   0  0  0  0  0  0  0  0  0  0  0  0
   19.3445   -7.6776  -19.7822 C   0  0  0  0  0  0  0  0  0  0  0  0
   19.9515   -6.9508  -20.6073 O   0  0  0  0  0  0  0  0  0  0  0  0
   18.0291  -11.4909  -22.2485 C   0  0  0  0  0  0  0  0  0  0  0  0
   17.1523  -12.4882  -22.5952 C   0  0  0  0  0  0  0  0  0  0  0  0
   24.1115   -2.2044  -15.0236 O   0  0  0  0  0  0  0  0  0  0  0  0
   23.2156   -3.2051  -15.3779 C   0  0  0  0  0  0  0  0  0  0  0  0
   21.9728   -2.9118  -15.8867 C   0  0  0  0  0  0  0  0  0  0  0  0
   21.0859   -3.9191  -16.2374 C   0  0  0  0  0  0  0  0  0  0  0  0
   21.4206   -5.2538  -16.0875 C   0  0  0  0  0  0  0  0  0  0  0  0
   20.4332   -6.2993  -16.4791 C   0  0  0  0  0  0  0  0  0  0  0  0
   20.6086   -6.6617  -17.9376 C   0  0  2  0  0  0  0  0  0  0  0  0
   19.6173   -7.5813  -18.3989 N   0  0  0  0  0  0  0  0  0  0  0  0
   21.9795   -7.2694  -18.0707 C   0  0  0  0  0  0  0  0  0  0  0  0
   22.2424   -8.4242  -17.6621 O   0  0  0  0  0  0  0  0  0  0  0  0
   22.6573   -5.5489  -15.5811 C   0  0  0  0  0  0  0  0  0  0  0  0
   23.5462   -4.5406  -15.2296 C   0  0  0  0  0  0  0  0  0  0  0  0
   26.4474   -9.2736  -20.4493 N   0  0  0  0  0  0  0  0  0  0  0  0
   26.0532   -7.9038  -20.2965 C   0  0  0  0  0  0  0  0  0  0  0  0
   26.9852   -7.0491  -20.2873 O   0  0  0  0  0  0  0  0  0  0  0  0
   24.6175   -7.5625  -20.1606 C   0  0  0  0  0  0  0  0  0  0  0  0
   24.3605   -6.9415  -18.8328 C   0  0  2  0  0  0  0  0  0  0  0  0
   22.9860   -6.5082  -18.6735 N   0  0  0  0  0  0  0  0  0  0  0  0
   25.2694   -5.8242  -18.5012 C   0  0  0  0  0  0  0  0  0  0  0  0
   24.9988   -4.6099  -18.6673 O   0  0  0  0  0  0  0  0  0  0  0  0
   26.5229   -6.1433  -17.9626 O   0  0  0  0  0  0  0  0  0  0  0  0
  2  3  2  0
  2  1  1  0
  4  3  1  0
  5  4  2  0
  6  5  1  0
  7  6  1  0
  7  8  1  6
  9  7  1  0
  9 10  2  0
 11  5  1  0
 11 12  2  0
 12  2  1  0
 13 14  1  0
 14 24  2  0
 15 16  2  0
 15 14  1  0
 16 17  1  0
 17 23  2  0
 17 18  1  0
 19 20  1  0
 19 18  1  1
 20  9  1  0
 21 19  1  0
 22 21  2  0
 24 23  1  0
 25 26  1  0
 26 28  1  0
 27 26  2  0
 29 28  1  6
 29 30  1  0
 30 21  1  0
 31 29  1  0
 31 33  1  0
 32 31  2  0
M  END
$$$$
