YYN.pdb
     RDKit          3D

 33 34  0  0  1  0  0  0  0  0999 V2000
   28.5550   -6.3452  -25.2963 O   0  0  0  0  0  0  0  0  0  0  0  0
   27.8546   -6.7318  -24.1728 C   0  0  0  0  0  0  0  0  0  0  0  0
   26.4942   -6.9870  -24.2958 C   0  0  0  0  0  0  0  0  0  0  0  0
   25.7760   -7.3786  -23.1656 C   0  0  0  0  0  0  0  0  0  0  0  0
   26.4057   -7.5071  -21.9611 C   0  0  0  0  0  0  0  0  0  0  0  0
   25.6310   -7.9238  -20.7668 C   0  0  0  0  0  0  0  0  0  0  0  0
   26.2924   -9.0850  -20.0488 C   0  0  2  0  0  0  0  0  0  0  0  0
   26.4175  -10.2249  -20.9056 N   0  0  0  0  0  0  0  0  0  0  0  0
   25.4976   -9.3592  -18.8258 C   0  0  0  0  0  0  0  0  0  0  0  0
   24.4432  -10.0292  -18.9553 O   0  0  0  0  0  0  0  0  0  0  0  0
   27.7737   -7.2450  -21.8626 C   0  0  0  0  0  0  0  0  0  0  0  0
   28.5006   -6.8585  -22.9607 C   0  0  0  0  0  0  0  0  0  0  0  0
   28.5880  -14.5034  -16.1330 O   0  0  0  0  0  0  0  0  0  0  0  0
   27.9371  -13.2977  -15.9043 C   0  0  0  0  0  0  0  0  0  0  0  0
   28.4842  -12.0987  -16.2945 C   0  0  0  0  0  0  0  0  0  0  0  0
   27.8255  -10.9004  -16.0612 C   0  0  0  0  0  0  0  0  0  0  0  0
   26.5952  -10.8697  -15.4278 C   0  0  0  0  0  0  0  0  0  0  0  0
   25.9271   -9.5570  -15.2003 C   0  0  0  0  0  0  0  0  0  0  0  0
   25.1000   -9.1767  -16.4089 C   0  0  2  0  0  0  0  0  0  0  0  0
   25.9018   -8.8891  -17.5558 N   0  0  0  0  0  0  0  0  0  0  0  0
   24.2987   -7.9629  -16.0205 C   0  0  0  0  0  0  0  0  0  0  0  0
   24.7439   -6.7985  -16.1464 O   0  0  0  0  0  0  0  0  0  0  0  0
   26.0478  -12.0620  -15.0381 C   0  0  0  0  0  0  0  0  0  0  0  0
   26.7069  -13.2627  -15.2714 C   0  0  0  0  0  0  0  0  0  0  0  0
   21.0701   -4.1938  -15.2285 N   0  0  0  0  0  0  0  0  0  0  0  0
   20.8157   -5.2111  -16.2060 C   0  0  0  0  0  0  0  0  0  0  0  0
   19.6945   -5.1616  -16.7890 O   0  0  0  0  0  0  0  0  0  0  0  0
   21.8449   -6.2414  -16.4803 C   0  0  0  0  0  0  0  0  0  0  0  0
   22.0510   -7.0945  -15.2784 C   0  0  2  0  0  0  0  0  0  0  0  0
   23.0140   -8.1549  -15.5023 N   0  0  0  0  0  0  0  0  0  0  0  0
   20.8073   -7.6692  -14.7239 C   0  0  0  0  0  0  0  0  0  0  0  0
   20.4934   -8.8831  -14.7825 O   0  0  0  0  0  0  0  0  0  0  0  0
   19.9149   -6.7968  -14.0871 O   0  0  0  0  0  0  0  0  0  0  0  0
  2  3  2  0
  2  1  1  0
  4  3  1  0
  5  4  2  0
  6  5  1  0
  7  6  1  0
  7  8  1  6
  9  7  1  0
  9 10  2  0
 11  5  1  0
 11 12  2  0
 12  2  1  0
 13 14  1  0
 14 24  2  0
 15 16  2  0
 15 14  1  0
 16 17  1  0
 17 23  2  0
 17 18  1  0
 19 20  1  0
 19 18  1  1
 20  9  1  0
 21 19  1  0
 22 21  2  0
 24 23  1  0
 25 26  1  0
 26 28  1  0
 27 26  2  0
 29 28  1  6
 29 30  1  0
 30 21  1  0
 31 29  1  0
 31 33  1  0
 32 31  2  0
M  END
$$$$
