YYN.pdb
     RDKit          3D

 33 34  0  0  1  0  0  0  0  0999 V2000
   19.2226  -17.4941  -20.2080 O   0  0  0  0  0  0  0  0  0  0  0  0
   19.2873  -16.2007  -19.7333 C   0  0  0  0  0  0  0  0  0  0  0  0
   18.1124  -15.4623  -19.6610 C   0  0  0  0  0  0  0  0  0  0  0  0
   18.1664  -14.1529  -19.1824 C   0  0  0  0  0  0  0  0  0  0  0  0
   19.3577  -13.6118  -18.7929 C   0  0  0  0  0  0  0  0  0  0  0  0
   19.4020  -12.2184  -18.2861 C   0  0  0  0  0  0  0  0  0  0  0  0
   19.5827  -12.1768  -16.7805 C   0  0  2  0  0  0  0  0  0  0  0  0
   18.4856  -12.8016  -16.1060 N   0  0  0  0  0  0  0  0  0  0  0  0
   19.7701  -10.7555  -16.3967 C   0  0  0  0  0  0  0  0  0  0  0  0
   18.7440  -10.0368  -16.3077 O   0  0  0  0  0  0  0  0  0  0  0  0
   20.5250  -14.3737  -18.8749 C   0  0  0  0  0  0  0  0  0  0  0  0
   20.4961  -15.6637  -19.3424 C   0  0  0  0  0  0  0  0  0  0  0  0
   22.9536   -2.9247  -14.1822 O   0  0  0  0  0  0  0  0  0  0  0  0
   22.8277   -4.2925  -14.3896 C   0  0  0  0  0  0  0  0  0  0  0  0
   23.5004   -4.9321  -15.4033 C   0  0  0  0  0  0  0  0  0  0  0  0
   23.3675   -6.2986  -15.6014 C   0  0  0  0  0  0  0  0  0  0  0  0
   22.5534   -7.0657  -14.7862 C   0  0  0  0  0  0  0  0  0  0  0  0
   22.4439   -8.5303  -15.0394 C   0  0  0  0  0  0  0  0  0  0  0  0
   21.1843   -8.8313  -15.8218 C   0  0  2  0  0  0  0  0  0  0  0  0
   21.0514  -10.2182  -16.1381 N   0  0  0  0  0  0  0  0  0  0  0  0
   21.2551   -8.0171  -17.0861 C   0  0  0  0  0  0  0  0  0  0  0  0
   22.0203   -8.3151  -18.0323 O   0  0  0  0  0  0  0  0  0  0  0  0
   21.8822   -6.4316  -13.7759 C   0  0  0  0  0  0  0  0  0  0  0  0
   22.0148   -5.0630  -13.5768 C   0  0  0  0  0  0  0  0  0  0  0  0
   20.8633   -4.9578  -20.9245 N   0  0  0  0  0  0  0  0  0  0  0  0
   19.5640   -5.4050  -20.5158 C   0  0  0  0  0  0  0  0  0  0  0  0
   18.5853   -4.9837  -21.1970 O   0  0  0  0  0  0  0  0  0  0  0  0
   19.4309   -6.3116  -19.3512 C   0  0  0  0  0  0  0  0  0  0  0  0
   20.4448   -5.9708  -18.3164 C   0  0  2  0  0  0  0  0  0  0  0  0
   20.4330   -6.8910  -17.1959 N   0  0  0  0  0  0  0  0  0  0  0  0
   20.3541   -4.5838  -17.8140 C   0  0  0  0  0  0  0  0  0  0  0  0
   19.5171   -4.1837  -16.9685 O   0  0  0  0  0  0  0  0  0  0  0  0
   21.2679   -3.6486  -18.3173 O   0  0  0  0  0  0  0  0  0  0  0  0
  2  3  2  0
  2  1  1  0
  4  3  1  0
  5  4  2  0
  6  5  1  0
  7  6  1  0
  7  8  1  1
  9  7  1  0
  9 10  2  0
 11  5  1  0
 11 12  2  0
 12  2  1  0
 13 14  1  0
 14 24  2  0
 15 16  2  0
 15 14  1  0
 16 17  1  0
 17 23  2  0
 17 18  1  0
 19 20  1  0
 19 18  1  6
 20  9  1  0
 21 19  1  0
 22 21  2  0
 24 23  1  0
 25 26  1  0
 26 28  1  0
 27 26  2  0
 29 28  1  6
 29 30  1  0
 30 21  1  0
 31 29  1  0
 31 33  1  0
 32 31  2  0
M  END
$$$$
