YCD.pdb
     RDKit          3D

 27 27  0  0  1  0  0  0  0  0999 V2000
    7.6411  -11.4256   18.1603 O   0  0  0  0  0  0  0  0  0  0  0  0
    7.8041  -12.4126   19.1104 C   0  0  0  0  0  0  0  0  0  0  0  0
    9.0770  -12.7014   19.5844 C   0  0  0  0  0  0  0  0  0  0  0  0
    9.2319  -13.6842   20.5290 C   0  0  0  0  0  0  0  0  0  0  0  0
    8.1651  -14.3895   21.0184 C   0  0  0  0  0  0  0  0  0  0  0  0
    8.2815  -15.4480   22.0259 C   0  0  0  0  0  0  0  0  0  0  0  0
    8.6191  -16.7687   21.3679 C   0  0  2  0  0  0  0  0  0  0  0  0
    7.6813  -17.7462   21.8142 N   0  0  0  0  0  0  0  0  0  0  0  0
   10.0209  -17.0900   21.7780 C   0  0  0  0  0  0  0  0  0  0  0  0
   10.1914  -17.8026   22.7817 O   0  0  0  0  0  0  0  0  0  0  0  0
    6.8960  -14.0911   20.5363 C   0  0  0  0  0  0  0  0  0  0  0  0
    6.7049  -13.1003   19.5782 C   0  0  0  0  0  0  0  0  0  0  0  0
   11.1469  -16.6200   21.0771 N   0  0  0  0  0  0  0  0  0  0  0  0
   12.5165  -16.9116   21.3953 C   0  0  1  0  0  0  0  0  0  0  0  0
   13.5141  -16.2976   20.4882 C   0  0  0  0  0  0  0  0  0  0  0  0
   13.0870  -16.2585   18.7649 S   0  0  0  0  0  0  0  0  0  0  0  0
   12.8041  -16.7003   22.8496 C   0  0  0  0  0  0  0  0  0  0  0  0
   11.9615  -16.1707   23.6186 O   0  0  0  0  0  0  0  0  0  0  0  0
   14.0526  -17.0979   23.4025 N   0  0  0  0  0  0  0  0  0  0  0  0
   14.1197  -17.5269   24.8208 C   0  0  1  0  0  0  0  0  0  0  0  0
   13.3083  -18.7927   24.9839 C   0  0  0  0  0  0  0  0  0  0  0  0
   12.6139  -18.9099   26.2438 C   0  0  0  0  0  0  0  0  0  0  0  0
   11.4444  -18.5272   26.4453 O   0  0  0  0  0  0  0  0  0  0  0  0
   15.5409  -17.8564   25.0442 C   0  0  0  0  0  0  0  0  0  0  0  0
   16.0746  -18.8002   24.4270 O   0  0  0  0  0  0  0  0  0  0  0  0
   13.2674  -19.4874   27.3354 O   0  0  0  0  0  0  0  0  0  0  0  0
   16.3035  -17.1387   25.9271 O   0  0  0  0  0  0  0  0  0  0  0  0
  2 12  2  0
  2  1  1  0
  3  2  1  0
  4  5  1  0
  4  3  2  0
  5 11  2  0
  6  7  1  0
  6  5  1  0
  7  9  1  0
  7  8  1  1
  9 13  1  0
  9 10  2  0
 11 12  1  0
 13 14  1  0
 14 15  1  6
 14 17  1  0
 16 15  1  0
 17 18  2  0
 19 20  1  0
 19 17  1  0
 20 24  1  0
 21 22  1  0
 20 21  1  6
 22 26  1  0
 23 22  2  0
 24 27  1  0
 25 24  2  0
M  END
$$$$
