YCD.pdb
     RDKit          3D

 27 27  0  0  1  0  0  0  0  0999 V2000
    1.8679  -19.6751   20.2704 O   0  0  0  0  0  0  0  0  0  0  0  0
    2.9458  -18.8748   20.5882 C   0  0  0  0  0  0  0  0  0  0  0  0
    2.9731  -17.5583   20.1472 C   0  0  0  0  0  0  0  0  0  0  0  0
    4.0481  -16.7681   20.4667 C   0  0  0  0  0  0  0  0  0  0  0  0
    5.0965  -17.2415   21.2093 C   0  0  0  0  0  0  0  0  0  0  0  0
    6.2659  -16.4362   21.5740 C   0  0  0  0  0  0  0  0  0  0  0  0
    6.3200  -16.2322   23.0729 C   0  0  2  0  0  0  0  0  0  0  0  0
    5.1948  -15.4463   23.4608 N   0  0  0  0  0  0  0  0  0  0  0  0
    7.6203  -15.5480   23.3516 C   0  0  0  0  0  0  0  0  0  0  0  0
    7.7949  -14.4067   22.8921 O   0  0  0  0  0  0  0  0  0  0  0  0
    5.0576  -18.5609   21.6450 C   0  0  0  0  0  0  0  0  0  0  0  0
    3.9820  -19.3885   21.3380 C   0  0  0  0  0  0  0  0  0  0  0  0
    8.6474  -16.1420   24.1083 N   0  0  0  0  0  0  0  0  0  0  0  0
    9.2071  -15.6179   25.3223 C   0  0  1  0  0  0  0  0  0  0  0  0
    8.2200  -15.0652   26.2790 C   0  0  0  0  0  0  0  0  0  0  0  0
    8.8686  -14.0118   27.5531 S   0  0  0  0  0  0  0  0  0  0  0  0
   10.1846  -16.5708   25.9379 C   0  0  0  0  0  0  0  0  0  0  0  0
   11.3270  -16.7544   25.4448 O   0  0  0  0  0  0  0  0  0  0  0  0
    9.8399  -17.3003   27.1091 N   0  0  0  0  0  0  0  0  0  0  0  0
   10.8433  -18.1976   27.7322 C   0  0  1  0  0  0  0  0  0  0  0  0
   12.0745  -18.2325   26.8547 C   0  0  0  0  0  0  0  0  0  0  0  0
   12.9851  -19.3180   27.1302 C   0  0  0  0  0  0  0  0  0  0  0  0
   12.6360  -20.4625   27.4810 O   0  0  0  0  0  0  0  0  0  0  0  0
   11.1989  -17.5350   29.0021 C   0  0  0  0  0  0  0  0  0  0  0  0
   10.7060  -16.4272   29.2958 O   0  0  0  0  0  0  0  0  0  0  0  0
   14.3606  -19.1071   27.0053 O   0  0  0  0  0  0  0  0  0  0  0  0
   12.0715  -18.1164   29.8835 O   0  0  0  0  0  0  0  0  0  0  0  0
  2 12  2  0
  2  1  1  0
  3  2  1  0
  4  5  1  0
  4  3  2  0
  5 11  2  0
  6  7  1  0
  6  5  1  0
  7  9  1  0
  7  8  1  6
  9 13  1  0
  9 10  2  0
 11 12  1  0
 13 14  1  0
 14 15  1  1
 14 17  1  0
 16 15  1  0
 17 18  2  0
 19 20  1  0
 19 17  1  0
 20 24  1  0
 21 22  1  0
 20 21  1  6
 22 26  1  0
 23 22  2  0
 24 27  1  0
 25 24  2  0
M  END
$$$$
