YCD.pdb
     RDKit          3D

 27 27  0  0  1  0  0  0  0  0999 V2000
   12.8261  -20.4124   13.9075 O   0  0  0  0  0  0  0  0  0  0  0  0
   12.8529  -20.1226   15.2561 C   0  0  0  0  0  0  0  0  0  0  0  0
   11.6577  -19.9912   15.9508 C   0  0  0  0  0  0  0  0  0  0  0  0
   11.6917  -19.7028   17.2916 C   0  0  0  0  0  0  0  0  0  0  0  0
   12.8726  -19.5407   17.9653 C   0  0  0  0  0  0  0  0  0  0  0  0
   12.9587  -19.2310   19.3956 C   0  0  0  0  0  0  0  0  0  0  0  0
   12.4809  -17.8193   19.6601 C   0  0  2  0  0  0  0  0  0  0  0  0
   13.4160  -16.9119   19.0800 N   0  0  0  0  0  0  0  0  0  0  0  0
   12.3958  -17.6819   21.1468 C   0  0  0  0  0  0  0  0  0  0  0  0
   13.4517  -17.7077   21.8014 O   0  0  0  0  0  0  0  0  0  0  0  0
   14.0623  -19.6749   17.2591 C   0  0  0  0  0  0  0  0  0  0  0  0
   14.0624  -19.9669   15.8986 C   0  0  0  0  0  0  0  0  0  0  0  0
   11.1750  -17.5262   21.8293 N   0  0  0  0  0  0  0  0  0  0  0  0
   11.0229  -17.3172   23.2417 C   0  0  1  0  0  0  0  0  0  0  0  0
    9.8039  -16.5735   23.6367 C   0  0  0  0  0  0  0  0  0  0  0  0
    9.6916  -14.8947   23.0686 S   0  0  0  0  0  0  0  0  0  0  0  0
   11.2433  -18.5804   24.0152 C   0  0  0  0  0  0  0  0  0  0  0  0
   10.6489  -19.6482   23.7180 O   0  0  0  0  0  0  0  0  0  0  0  0
   12.1407  -18.6028   25.1183 N   0  0  0  0  0  0  0  0  0  0  0  0
   12.2909  -19.8465   25.9124 C   0  0  1  0  0  0  0  0  0  0  0  0
   13.7650  -20.1406   26.0793 C   0  0  0  0  0  0  0  0  0  0  0  0
   14.0903  -21.5377   26.2399 C   0  0  0  0  0  0  0  0  0  0  0  0
   13.2496  -22.4498   26.3662 O   0  0  0  0  0  0  0  0  0  0  0  0
   11.7328  -19.5130   27.2373 C   0  0  0  0  0  0  0  0  0  0  0  0
   11.5780  -18.3222   27.5756 O   0  0  0  0  0  0  0  0  0  0  0  0
   15.4308  -21.9313   26.2598 O   0  0  0  0  0  0  0  0  0  0  0  0
   11.3725  -20.4956   28.1211 O   0  0  0  0  0  0  0  0  0  0  0  0
  2 12  2  0
  2  1  1  0
  3  2  1  0
  4  5  1  0
  4  3  2  0
  5 11  2  0
  6  7  1  0
  6  5  1  0
  7  9  1  0
  7  8  1  1
  9 13  1  0
  9 10  2  0
 11 12  1  0
 13 14  1  0
 14 15  1  6
 14 17  1  0
 16 15  1  0
 17 18  2  0
 19 20  1  0
 19 17  1  0
 20 24  1  0
 21 22  1  0
 20 21  1  1
 22 26  1  0
 23 22  2  0
 24 27  1  0
 25 24  2  0
M  END
$$$$
