YCD.pdb
     RDKit          3D

 27 27  0  0  1  0  0  0  0  0999 V2000
    5.0351  -10.9929   28.1689 O   0  0  0  0  0  0  0  0  0  0  0  0
    5.8086  -11.9161   27.4960 C   0  0  0  0  0  0  0  0  0  0  0  0
    6.8015  -12.6044   28.1806 C   0  0  0  0  0  0  0  0  0  0  0  0
    7.5672  -13.5209   27.5053 C   0  0  0  0  0  0  0  0  0  0  0  0
    7.3797  -13.7765   26.1733 C   0  0  0  0  0  0  0  0  0  0  0  0
    8.1728  -14.7445   25.4100 C   0  0  0  0  0  0  0  0  0  0  0  0
    7.2675  -15.7439   24.7223 C   0  0  2  0  0  0  0  0  0  0  0  0
    6.8966  -16.7420   25.6711 N   0  0  0  0  0  0  0  0  0  0  0  0
    8.0573  -16.3027   23.5818 C   0  0  0  0  0  0  0  0  0  0  0  0
    8.6510  -17.3813   23.7500 O   0  0  0  0  0  0  0  0  0  0  0  0
    6.3826  -13.0813   25.4990 C   0  0  0  0  0  0  0  0  0  0  0  0
    5.5888  -12.1453   26.1548 C   0  0  0  0  0  0  0  0  0  0  0  0
    8.1543  -15.6592   22.3341 N   0  0  0  0  0  0  0  0  0  0  0  0
    8.9306  -16.1111   21.2139 C   0  0  1  0  0  0  0  0  0  0  0  0
    8.7255  -15.3470   19.9612 C   0  0  0  0  0  0  0  0  0  0  0  0
    7.0389  -15.0820   19.4722 S   0  0  0  0  0  0  0  0  0  0  0  0
   10.3696  -16.3058   21.5800 C   0  0  0  0  0  0  0  0  0  0  0  0
   10.9697  -15.5076   22.3446 O   0  0  0  0  0  0  0  0  0  0  0  0
   11.1009  -17.4115   21.0650 N   0  0  0  0  0  0  0  0  0  0  0  0
   12.4545  -17.7031   21.5968 C   0  0  1  0  0  0  0  0  0  0  0  0
   12.3766  -18.9322   22.4746 C   0  0  0  0  0  0  0  0  0  0  0  0
   13.6493  -19.4192   22.9506 C   0  0  0  0  0  0  0  0  0  0  0  0
   14.7491  -18.8886   22.6981 O   0  0  0  0  0  0  0  0  0  0  0  0
   13.2598  -18.0357   20.4055 C   0  0  0  0  0  0  0  0  0  0  0  0
   12.7911  -18.7683   19.5110 O   0  0  0  0  0  0  0  0  0  0  0  0
   13.6890  -20.5625   23.7526 O   0  0  0  0  0  0  0  0  0  0  0  0
   14.5318  -17.5508   20.2532 O   0  0  0  0  0  0  0  0  0  0  0  0
  2 12  2  0
  2  1  1  0
  3  2  1  0
  4  5  1  0
  4  3  2  0
  5 11  2  0
  6  7  1  0
  6  5  1  0
  7  9  1  0
  7  8  1  1
  9 13  1  0
  9 10  2  0
 11 12  1  0
 13 14  1  0
 14 15  1  6
 14 17  1  0
 16 15  1  0
 17 18  2  0
 19 20  1  0
 19 17  1  0
 20 24  1  0
 21 22  1  0
 20 21  1  1
 22 26  1  0
 23 22  2  0
 24 27  1  0
 25 24  2  0
M  END
$$$$
