YCD.pdb
     RDKit          3D

 27 27  0  0  1  0  0  0  0  0999 V2000
    6.0744  -10.3252   27.5066 O   0  0  0  0  0  0  0  0  0  0  0  0
    6.5103  -11.6003   27.2101 C   0  0  0  0  0  0  0  0  0  0  0  0
    5.5999  -12.6488   27.2006 C   0  0  0  0  0  0  0  0  0  0  0  0
    6.0401  -13.9141   26.9051 C   0  0  0  0  0  0  0  0  0  0  0  0
    7.3539  -14.1727   26.6188 C   0  0  0  0  0  0  0  0  0  0  0  0
    7.8707  -15.5067   26.2989 C   0  0  0  0  0  0  0  0  0  0  0  0
    6.8466  -16.2949   25.5107 C   0  0  2  0  0  0  0  0  0  0  0  0
    6.5817  -17.5110   26.2071 N   0  0  0  0  0  0  0  0  0  0  0  0
    7.4499  -16.5265   24.1620 C   0  0  0  0  0  0  0  0  0  0  0  0
    8.0949  -17.5725   23.9779 O   0  0  0  0  0  0  0  0  0  0  0  0
    8.2556  -13.1149   26.6314 C   0  0  0  0  0  0  0  0  0  0  0  0
    7.8413  -11.8199   26.9272 C   0  0  0  0  0  0  0  0  0  0  0  0
    7.3171  -15.6124   23.1004 N   0  0  0  0  0  0  0  0  0  0  0  0
    7.8884  -15.7569   21.7910 C   0  0  1  0  0  0  0  0  0  0  0  0
    7.4343  -14.7573   20.7962 C   0  0  0  0  0  0  0  0  0  0  0  0
    8.1396  -14.8920   19.1719 S   0  0  0  0  0  0  0  0  0  0  0  0
    9.3753  -15.9245   21.8511 C   0  0  0  0  0  0  0  0  0  0  0  0
   10.1068  -15.1086   22.4685 O   0  0  0  0  0  0  0  0  0  0  0  0
   10.0035  -17.0235   21.2030 N   0  0  0  0  0  0  0  0  0  0  0  0
   11.4800  -17.1549   21.2544 C   0  0  1  0  0  0  0  0  0  0  0  0
   11.8279  -18.4522   21.9498 C   0  0  0  0  0  0  0  0  0  0  0  0
   13.2346  -18.7756   21.9619 C   0  0  0  0  0  0  0  0  0  0  0  0
   14.1310  -18.0515   21.4855 O   0  0  0  0  0  0  0  0  0  0  0  0
   11.8946  -17.2615   19.8420 C   0  0  0  0  0  0  0  0  0  0  0  0
   11.1014  -17.6953   18.9822 O   0  0  0  0  0  0  0  0  0  0  0  0
   13.6569  -19.9756   22.5395 O   0  0  0  0  0  0  0  0  0  0  0  0
   13.1508  -16.8884   19.4431 O   0  0  0  0  0  0  0  0  0  0  0  0
  2 12  2  0
  2  1  1  0
  3  2  1  0
  4  5  1  0
  4  3  2  0
  5 11  2  0
  6  7  1  0
  6  5  1  0
  7  9  1  0
  7  8  1  1
  9 13  1  0
  9 10  2  0
 11 12  1  0
 13 14  1  0
 14 15  1  6
 14 17  1  0
 16 15  1  0
 17 18  2  0
 19 20  1  0
 19 17  1  0
 20 24  1  0
 21 22  1  0
 20 21  1  1
 22 26  1  0
 23 22  2  0
 24 27  1  0
 25 24  2  0
M  END
$$$$
