YCD.pdb
     RDKit          3D

 27 27  0  0  1  0  0  0  0  0999 V2000
    1.5779  -22.0579   21.3052 O   0  0  0  0  0  0  0  0  0  0  0  0
    2.6574  -21.3524   21.7958 C   0  0  0  0  0  0  0  0  0  0  0  0
    2.4551  -20.1019   22.3646 C   0  0  0  0  0  0  0  0  0  0  0  0
    3.5329  -19.4058   22.8503 C   0  0  0  0  0  0  0  0  0  0  0  0
    4.8045  -19.9100   22.7900 C   0  0  0  0  0  0  0  0  0  0  0  0
    5.9858  -19.2034   23.2940 C   0  0  0  0  0  0  0  0  0  0  0  0
    6.0685  -17.8168   22.6925 C   0  0  2  0  0  0  0  0  0  0  0  0
    6.2960  -17.9475   21.2907 N   0  0  0  0  0  0  0  0  0  0  0  0
    7.1947  -17.1269   23.3940 C   0  0  0  0  0  0  0  0  0  0  0  0
    8.2913  -17.0523   22.8143 O   0  0  0  0  0  0  0  0  0  0  0  0
    4.9941  -21.1628   22.2185 C   0  0  0  0  0  0  0  0  0  0  0  0
    3.9222  -21.8944   21.7166 C   0  0  0  0  0  0  0  0  0  0  0  0
    7.0626  -16.5630   24.6766 N   0  0  0  0  0  0  0  0  0  0  0  0
    8.1398  -16.1018   25.5065 C   0  0  1  0  0  0  0  0  0  0  0  0
    7.8090  -14.9514   26.3794 C   0  0  0  0  0  0  0  0  0  0  0  0
    6.2513  -14.1562   26.0712 S   0  0  0  0  0  0  0  0  0  0  0  0
    8.8132  -17.2336   26.2193 C   0  0  0  0  0  0  0  0  0  0  0  0
    8.1619  -18.2119   26.6674 O   0  0  0  0  0  0  0  0  0  0  0  0
   10.2226  -17.2289   26.4095 N   0  0  0  0  0  0  0  0  0  0  0  0
   10.8746  -18.3871   27.0679 C   0  0  1  0  0  0  0  0  0  0  0  0
   12.3316  -18.4182   26.6637 C   0  0  0  0  0  0  0  0  0  0  0  0
   12.5653  -18.5895   25.2496 C   0  0  0  0  0  0  0  0  0  0  0  0
   12.0261  -19.4653   24.5446 O   0  0  0  0  0  0  0  0  0  0  0  0
   10.8011  -18.0861   28.5109 C   0  0  0  0  0  0  0  0  0  0  0  0
   10.2958  -17.0166   28.9077 O   0  0  0  0  0  0  0  0  0  0  0  0
   13.4514  -17.7321   24.5926 O   0  0  0  0  0  0  0  0  0  0  0  0
   11.2814  -18.9674   29.4430 O   0  0  0  0  0  0  0  0  0  0  0  0
  2 12  2  0
  2  1  1  0
  3  2  1  0
  4  5  1  0
  4  3  2  0
  5 11  2  0
  6  7  1  0
  6  5  1  0
  7  9  1  0
  7  8  1  6
  9 13  1  0
  9 10  2  0
 11 12  1  0
 13 14  1  0
 14 15  1  1
 14 17  1  0
 16 15  1  0
 17 18  2  0
 19 20  1  0
 19 17  1  0
 20 24  1  0
 21 22  1  0
 20 21  1  6
 22 26  1  0
 23 22  2  0
 24 27  1  0
 25 24  2  0
M  END
$$$$
