YCD.pdb
     RDKit          3D

 27 27  0  0  1  0  0  0  0  0999 V2000
    7.1032  -13.4544   16.8169 O   0  0  0  0  0  0  0  0  0  0  0  0
    7.1957  -13.5670   18.1889 C   0  0  0  0  0  0  0  0  0  0  0  0
    7.8355  -12.5708   18.9146 C   0  0  0  0  0  0  0  0  0  0  0  0
    7.9241  -12.6891   20.2786 C   0  0  0  0  0  0  0  0  0  0  0  0
    7.3986  -13.7633   20.9455 C   0  0  0  0  0  0  0  0  0  0  0  0
    7.4699  -13.9337   22.3998 C   0  0  0  0  0  0  0  0  0  0  0  0
    8.8080  -14.5185   22.7982 C   0  0  2  0  0  0  0  0  0  0  0  0
    8.8649  -15.8667   22.3366 N   0  0  0  0  0  0  0  0  0  0  0  0
    8.8765  -14.4196   24.2888 C   0  0  0  0  0  0  0  0  0  0  0  0
    8.5793  -13.3367   24.8209 O   0  0  0  0  0  0  0  0  0  0  0  0
    6.7605  -14.7538   20.2080 C   0  0  0  0  0  0  0  0  0  0  0  0
    6.6538  -14.6639   18.8236 C   0  0  0  0  0  0  0  0  0  0  0  0
    9.2621  -15.4975   25.1073 N   0  0  0  0  0  0  0  0  0  0  0  0
   10.1217  -15.4155   26.2546 C   0  0  1  0  0  0  0  0  0  0  0  0
    9.8210  -14.3013   27.1837 C   0  0  0  0  0  0  0  0  0  0  0  0
    9.3194  -14.7622   28.8237 S   0  0  0  0  0  0  0  0  0  0  0  0
   10.2758  -16.7446   26.9270 C   0  0  0  0  0  0  0  0  0  0  0  0
    9.3059  -17.5347   27.0570 O   0  0  0  0  0  0  0  0  0  0  0  0
   11.5383  -17.1499   27.4414 N   0  0  0  0  0  0  0  0  0  0  0  0
   11.7196  -18.5428   27.9180 C   0  0  1  0  0  0  0  0  0  0  0  0
   13.1251  -18.9906   27.5848 C   0  0  0  0  0  0  0  0  0  0  0  0
   13.2072  -20.2106   26.8177 C   0  0  0  0  0  0  0  0  0  0  0  0
   12.2303  -20.9259   26.5197 O   0  0  0  0  0  0  0  0  0  0  0  0
   11.5983  -18.4536   29.3862 C   0  0  0  0  0  0  0  0  0  0  0  0
   11.5510  -19.4896   30.0798 O   0  0  0  0  0  0  0  0  0  0  0  0
   14.4522  -20.6507   26.3612 O   0  0  0  0  0  0  0  0  0  0  0  0
   11.5364  -17.2403   30.0188 O   0  0  0  0  0  0  0  0  0  0  0  0
  2 12  2  0
  2  1  1  0
  3  2  1  0
  4  5  1  0
  4  3  2  0
  5 11  2  0
  6  7  1  0
  6  5  1  0
  7  9  1  0
  7  8  1  1
  9 13  1  0
  9 10  2  0
 11 12  1  0
 13 14  1  0
 14 15  1  1
 14 17  1  0
 16 15  1  0
 17 18  2  0
 19 20  1  0
 19 17  1  0
 20 24  1  0
 21 22  1  0
 20 21  1  1
 22 26  1  0
 23 22  2  0
 24 27  1  0
 25 24  2  0
M  END
$$$$
