YCD.pdb
     RDKit          3D

 27 27  0  0  1  0  0  0  0  0999 V2000
    6.7430  -13.2336   16.4266 O   0  0  0  0  0  0  0  0  0  0  0  0
    7.0786  -13.6702   17.6916 C   0  0  0  0  0  0  0  0  0  0  0  0
    7.0928  -15.0320   17.9632 C   0  0  0  0  0  0  0  0  0  0  0  0
    7.4273  -15.4592   19.2232 C   0  0  0  0  0  0  0  0  0  0  0  0
    7.7481  -14.5794   20.2222 C   0  0  0  0  0  0  0  0  0  0  0  0
    8.1103  -14.9882   21.5826 C   0  0  0  0  0  0  0  0  0  0  0  0
    9.5599  -14.6569   21.8654 C   0  0  2  0  0  0  0  0  0  0  0  0
   10.3701  -15.3202   20.8970 N   0  0  0  0  0  0  0  0  0  0  0  0
    9.8292  -15.1297   23.2584 C   0  0  0  0  0  0  0  0  0  0  0  0
   10.5829  -16.1056   23.4131 O   0  0  0  0  0  0  0  0  0  0  0  0
    7.7305  -13.2189   19.9380 C   0  0  0  0  0  0  0  0  0  0  0  0
    7.3955  -12.7530   18.6704 C   0  0  0  0  0  0  0  0  0  0  0  0
    9.2662  -14.5173   24.3934 N   0  0  0  0  0  0  0  0  0  0  0  0
    9.7413  -14.6495   25.7420 C   0  0  1  0  0  0  0  0  0  0  0  0
    9.2964  -13.5834   26.6697 C   0  0  0  0  0  0  0  0  0  0  0  0
    7.5776  -13.5998   27.1158 S   0  0  0  0  0  0  0  0  0  0  0  0
    9.5388  -16.0373   26.2669 C   0  0  0  0  0  0  0  0  0  0  0  0
    8.4076  -16.5871   26.2591 O   0  0  0  0  0  0  0  0  0  0  0  0
   10.6343  -16.7756   26.7935 N   0  0  0  0  0  0  0  0  0  0  0  0
   10.4006  -18.1285   27.3549 C   0  0  1  0  0  0  0  0  0  0  0  0
   11.6049  -18.9929   27.0554 C   0  0  0  0  0  0  0  0  0  0  0  0
   11.6814  -19.4771   25.6977 C   0  0  0  0  0  0  0  0  0  0  0  0
   10.7854  -19.3310   24.8431 O   0  0  0  0  0  0  0  0  0  0  0  0
   10.3322  -17.9202   28.8144 C   0  0  0  0  0  0  0  0  0  0  0  0
   10.0882  -18.8764   29.5778 O   0  0  0  0  0  0  0  0  0  0  0  0
   12.8247  -20.1615   25.2777 O   0  0  0  0  0  0  0  0  0  0  0  0
   10.5345  -16.6814   29.3627 O   0  0  0  0  0  0  0  0  0  0  0  0
  2 12  2  0
  2  1  1  0
  3  2  1  0
  4  5  1  0
  4  3  2  0
  5 11  2  0
  6  7  1  0
  6  5  1  0
  7  9  1  0
  7  8  1  6
  9 13  1  0
  9 10  2  0
 11 12  1  0
 13 14  1  0
 14 15  1  1
 14 17  1  0
 16 15  1  0
 17 18  2  0
 19 20  1  0
 19 17  1  0
 20 24  1  0
 21 22  1  0
 20 21  1  1
 22 26  1  0
 23 22  2  0
 24 27  1  0
 25 24  2  0
M  END
$$$$
