YCD.pdb
     RDKit          3D

 27 27  0  0  1  0  0  0  0  0999 V2000
    7.8872  -14.0470   14.7441 O   0  0  0  0  0  0  0  0  0  0  0  0
    7.7854  -14.0341   16.1200 C   0  0  0  0  0  0  0  0  0  0  0  0
    8.0026  -15.2062   16.8323 C   0  0  0  0  0  0  0  0  0  0  0  0
    7.8996  -15.1864   18.2002 C   0  0  0  0  0  0  0  0  0  0  0  0
    7.5882  -14.0417   18.8840 C   0  0  0  0  0  0  0  0  0  0  0  0
    7.4659  -13.9722   20.3432 C   0  0  0  0  0  0  0  0  0  0  0  0
    8.0943  -15.1908   20.9846 C   0  0  2  0  0  0  0  0  0  0  0  0
    7.1795  -16.2794   20.8742 N   0  0  0  0  0  0  0  0  0  0  0  0
    8.3700  -14.8157   22.4058 C   0  0  0  0  0  0  0  0  0  0  0  0
    8.3685  -13.6101   22.7069 O   0  0  0  0  0  0  0  0  0  0  0  0
    7.3732  -12.8749   18.1599 C   0  0  0  0  0  0  0  0  0  0  0  0
    7.4699  -12.8614   16.7718 C   0  0  0  0  0  0  0  0  0  0  0  0
    8.6299  -15.7679   23.4088 N   0  0  0  0  0  0  0  0  0  0  0  0
    8.7964  -15.4903   24.8077 C   0  0  1  0  0  0  0  0  0  0  0  0
    7.8065  -14.5488   25.3811 C   0  0  0  0  0  0  0  0  0  0  0  0
    7.6965  -14.5106   27.1532 S   0  0  0  0  0  0  0  0  0  0  0  0
    8.9751  -16.7460   25.6039 C   0  0  0  0  0  0  0  0  0  0  0  0
    8.2111  -17.7343   25.4576 O   0  0  0  0  0  0  0  0  0  0  0  0
   10.0256  -16.8519   26.5566 N   0  0  0  0  0  0  0  0  0  0  0  0
   10.8944  -18.0541   26.5551 C   0  0  1  0  0  0  0  0  0  0  0  0
   12.0065  -17.8479   25.5511 C   0  0  0  0  0  0  0  0  0  0  0  0
   13.0138  -18.8817   25.5409 C   0  0  0  0  0  0  0  0  0  0  0  0
   13.0575  -19.8347   26.3438 O   0  0  0  0  0  0  0  0  0  0  0  0
   11.4900  -18.0859   27.9051 C   0  0  0  0  0  0  0  0  0  0  0  0
   12.3082  -18.9759   28.2134 O   0  0  0  0  0  0  0  0  0  0  0  0
   14.0256  -18.8432   24.5781 O   0  0  0  0  0  0  0  0  0  0  0  0
   11.1624  -17.1452   28.8454 O   0  0  0  0  0  0  0  0  0  0  0  0
  2 12  2  0
  2  1  1  0
  3  2  1  0
  4  5  1  0
  4  3  2  0
  5 11  2  0
  6  7  1  0
  6  5  1  0
  7  9  1  0
  7  8  1  1
  9 13  1  0
  9 10  2  0
 11 12  1  0
 13 14  1  0
 14 15  1  1
 14 17  1  0
 16 15  1  0
 17 18  2  0
 19 20  1  0
 19 17  1  0
 20 24  1  0
 21 22  1  0
 20 21  1  6
 22 26  1  0
 23 22  2  0
 24 27  1  0
 25 24  2  0
M  END
$$$$
