YCD.pdb
     RDKit          3D

 27 27  0  0  1  0  0  0  0  0999 V2000
    5.3368  -11.6824   27.3631 O   0  0  0  0  0  0  0  0  0  0  0  0
    6.2255  -12.1218   26.4035 C   0  0  0  0  0  0  0  0  0  0  0  0
    7.5383  -12.3971   26.7628 C   0  0  0  0  0  0  0  0  0  0  0  0
    8.4167  -12.8336   25.8036 C   0  0  0  0  0  0  0  0  0  0  0  0
    8.0349  -13.0056   24.4999 C   0  0  0  0  0  0  0  0  0  0  0  0
    8.9371  -13.4679   23.4411 C   0  0  0  0  0  0  0  0  0  0  0  0
    8.6553  -14.9159   23.1018 C   0  0  2  0  0  0  0  0  0  0  0  0
    7.2493  -15.0694   22.9185 N   0  0  0  0  0  0  0  0  0  0  0  0
    9.1745  -15.7198   24.2511 C   0  0  0  0  0  0  0  0  0  0  0  0
    9.3401  -15.1478   25.3418 O   0  0  0  0  0  0  0  0  0  0  0  0
    6.7182  -12.7268   24.1527 C   0  0  0  0  0  0  0  0  0  0  0  0
    5.8025  -12.2826   25.1015 C   0  0  0  0  0  0  0  0  0  0  0  0
    9.4813  -17.0892   24.1466 N   0  0  0  0  0  0  0  0  0  0  0  0
    8.8235  -18.1536   24.8510 C   0  0  1  0  0  0  0  0  0  0  0  0
    7.5779  -18.6469   24.2183 C   0  0  0  0  0  0  0  0  0  0  0  0
    6.5837  -19.7455   25.1972 S   0  0  0  0  0  0  0  0  0  0  0  0
    9.7819  -19.2379   25.2362 C   0  0  0  0  0  0  0  0  0  0  0  0
    9.7497  -20.3710   24.6915 O   0  0  0  0  0  0  0  0  0  0  0  0
   10.7631  -19.0093   26.2400 N   0  0  0  0  0  0  0  0  0  0  0  0
   11.6537  -20.1197   26.6569 C   0  0  1  0  0  0  0  0  0  0  0  0
   13.0439  -19.5685   26.8820 C   0  0  0  0  0  0  0  0  0  0  0  0
   13.6902  -19.0515   25.6994 C   0  0  0  0  0  0  0  0  0  0  0  0
   13.8614  -19.6980   24.6470 O   0  0  0  0  0  0  0  0  0  0  0  0
   11.1150  -20.5617   27.9580 C   0  0  0  0  0  0  0  0  0  0  0  0
   10.1280  -19.9874   28.4605 O   0  0  0  0  0  0  0  0  0  0  0  0
   14.1696  -17.7392   25.6987 O   0  0  0  0  0  0  0  0  0  0  0  0
   11.6805  -21.6063   28.6401 O   0  0  0  0  0  0  0  0  0  0  0  0
  2 12  2  0
  2  1  1  0
  3  2  1  0
  4  5  1  0
  4  3  2  0
  5 11  2  0
  6  7  1  0
  6  5  1  0
  7  9  1  0
  7  8  1  1
  9 13  1  0
  9 10  2  0
 11 12  1  0
 13 14  1  0
 14 15  1  6
 14 17  1  0
 16 15  1  0
 17 18  2  0
 19 20  1  0
 19 17  1  0
 20 24  1  0
 21 22  1  0
 20 21  1  1
 22 26  1  0
 23 22  2  0
 24 27  1  0
 25 24  2  0
M  END
$$$$
