WCH.pdb
     RDKit          3D

 31 33  0  0  1  0  0  0  0  0999 V2000
    6.3117  -18.4008   24.7291 N   0  0  0  0  0  0  0  0  0  0  0  0
    6.8341  -17.2074   24.1527 C   0  0  1  0  0  0  0  0  0  0  0  0
    7.7557  -16.5282   25.1279 C   0  0  0  0  0  0  0  0  0  0  0  0
    7.1769  -15.4131   25.8698 C   0  0  0  0  0  0  0  0  0  0  0  0
    6.2035  -15.5590   26.8325 C   0  0  0  0  0  0  0  0  0  0  0  0
    5.8972  -14.3363   27.2791 N   0  0  0  0  0  0  0  0  0  0  0  0
    6.6346  -13.3777   26.6466 C   0  0  0  0  0  0  0  0  0  0  0  0
    6.6793  -12.0090   26.7644 C   0  0  0  0  0  0  0  0  0  0  0  0
    7.5385  -11.2791   25.9927 C   0  0  0  0  0  0  0  0  0  0  0  0
    8.3558  -11.9372   25.0983 C   0  0  0  0  0  0  0  0  0  0  0  0
    8.3024  -13.3034   24.9892 C   0  0  0  0  0  0  0  0  0  0  0  0
    7.4373  -14.0710   25.7611 C   0  0  0  0  0  0  0  0  0  0  0  0
    7.5774  -17.4417   22.8746 C   0  0  0  0  0  0  0  0  0  0  0  0
    8.0407  -18.5824   22.5979 O   0  0  0  0  0  0  0  0  0  0  0  0
    7.8091  -16.4256   21.9073 N   0  0  0  0  0  0  0  0  0  0  0  0
    8.8134  -16.5739   20.8741 C   0  0  1  0  0  0  0  0  0  0  0  0
    8.5277  -15.5468   19.7996 C   0  0  0  0  0  0  0  0  0  0  0  0
    7.4192  -14.2958   20.5019 S   0  0  0  0  0  0  0  0  0  0  0  0
   10.1813  -16.3117   21.3773 C   0  0  0  0  0  0  0  0  0  0  0  0
   10.5819  -15.2179   21.8369 O   0  0  0  0  0  0  0  0  0  0  0  0
   11.1082  -17.3874   21.3336 N   0  0  0  0  0  0  0  0  0  0  0  0
   12.4547  -17.2230   21.9151 C   0  0  1  0  0  0  0  0  0  0  0  0
   12.6891  -18.4382   22.7714 C   0  0  0  0  0  0  0  0  0  0  0  0
   12.0202  -18.4498   24.0625 C   0  0  0  0  0  0  0  0  0  0  0  0
   12.4215  -17.9616   25.2746 C   0  0  0  0  0  0  0  0  0  0  0  0
   11.4167  -18.1621   26.1657 N   0  0  0  0  0  0  0  0  0  0  0  0
   10.4137  -18.7556   25.5386 C   0  0  0  0  0  0  0  0  0  0  0  0
   10.7564  -18.9365   24.2758 N   0  0  0  0  0  0  0  0  0  0  0  0
   13.3843  -17.3556   20.7364 C   0  0  0  0  0  0  0  0  0  0  0  0
   12.9973  -17.5563   19.4346 O   0  0  0  0  0  0  0  0  0  0  0  0
   14.6358  -17.2708   20.9877 O   0  0  0  0  0  0  0  0  0  0  0  0
  2  1  1  1
  2  3  1  0
  3  4  1  0
  4  5  2  0
  6  5  1  0
  7  6  1  0
  8  7  2  0
  9  8  1  0
 10 11  1  0
 10  9  2  0
 11 12  2  0
 12  7  1  0
 12  4  1  0
 13  2  1  0
 13 15  1  0
 14 13  2  0
 16 15  1  0
 16 17  1  6
 17 18  1  0
 19 16  1  0
 20 19  2  0
 21 19  1  0
 22 21  1  0
 23 24  1  0
 22 23  1  1
 24 25  2  0
 26 25  1  0
 27 26  1  0
 28 27  2  0
 28 24  1  0
 29 22  1  0
 29 30  1  0
 31 29  2  0
M  END
$$$$
