WCH.pdb
     RDKit          3D

 31 33  0  0  1  0  0  0  0  0999 V2000
    6.9296  -17.7677   23.7819 N   0  0  0  0  0  0  0  0  0  0  0  0
    7.0513  -16.4273   23.3150 C   0  0  1  0  0  0  0  0  0  0  0  0
    7.9880  -15.6579   24.2051 C   0  0  0  0  0  0  0  0  0  0  0  0
    7.3572  -14.9132   25.2898 C   0  0  0  0  0  0  0  0  0  0  0  0
    6.4857  -15.4744   26.1961 C   0  0  0  0  0  0  0  0  0  0  0  0
    6.0898  -14.5018   27.0240 N   0  0  0  0  0  0  0  0  0  0  0  0
    6.6685  -13.3087   26.7010 C   0  0  0  0  0  0  0  0  0  0  0  0
    6.5783  -12.0517   27.2495 C   0  0  0  0  0  0  0  0  0  0  0  0
    7.2906  -11.0149   26.7161 C   0  0  0  0  0  0  0  0  0  0  0  0
    8.0975  -11.2516   25.6234 C   0  0  0  0  0  0  0  0  0  0  0  0
    8.1794  -12.5102   25.0844 C   0  0  0  0  0  0  0  0  0  0  0  0
    7.4652  -13.5832   25.6061 C   0  0  0  0  0  0  0  0  0  0  0  0
    7.5444  -16.3326   21.9047 C   0  0  0  0  0  0  0  0  0  0  0  0
    8.4113  -17.1395   21.4691 O   0  0  0  0  0  0  0  0  0  0  0  0
    7.0854  -15.3548   20.9800 N   0  0  0  0  0  0  0  0  0  0  0  0
    7.7574  -15.1278   19.7170 C   0  0  1  0  0  0  0  0  0  0  0  0
    7.5936  -13.6657   19.3615 C   0  0  0  0  0  0  0  0  0  0  0  0
    8.3355  -13.4002   17.7287 S   0  0  0  0  0  0  0  0  0  0  0  0
    9.2112  -15.3984   19.7967 C   0  0  0  0  0  0  0  0  0  0  0  0
   10.0127  -14.8079   20.5564 O   0  0  0  0  0  0  0  0  0  0  0  0
    9.7333  -16.4071   18.9435 N   0  0  0  0  0  0  0  0  0  0  0  0
   11.1865  -16.6620   18.9083 C   0  0  1  0  0  0  0  0  0  0  0  0
   11.4026  -17.9429   19.6680 C   0  0  0  0  0  0  0  0  0  0  0  0
   11.5011  -17.8205   21.1136 C   0  0  0  0  0  0  0  0  0  0  0  0
   11.4878  -16.7123   21.9137 C   0  0  0  0  0  0  0  0  0  0  0  0
   11.5473  -17.1225   23.2067 N   0  0  0  0  0  0  0  0  0  0  0  0
   11.5953  -18.4450   23.2242 C   0  0  0  0  0  0  0  0  0  0  0  0
   11.5684  -18.8825   21.9781 N   0  0  0  0  0  0  0  0  0  0  0  0
   11.4706  -16.9794   17.4627 C   0  0  0  0  0  0  0  0  0  0  0  0
   10.5425  -16.9870   16.4510 O   0  0  0  0  0  0  0  0  0  0  0  0
   12.6836  -17.2626   17.1711 O   0  0  0  0  0  0  0  0  0  0  0  0
  2  1  1  1
  2  3  1  0
  3  4  1  0
  4  5  2  0
  6  5  1  0
  7  6  1  0
  8  7  2  0
  9  8  1  0
 10 11  1  0
 10  9  2  0
 11 12  2  0
 12  7  1  0
 12  4  1  0
 13  2  1  0
 13 15  1  0
 14 13  2  0
 16 15  1  0
 16 17  1  1
 17 18  1  0
 19 16  1  0
 20 19  2  0
 21 19  1  0
 22 21  1  0
 23 24  1  0
 22 23  1  1
 24 25  2  0
 26 25  1  0
 27 26  1  0
 28 27  2  0
 28 24  1  0
 29 22  1  0
 29 30  1  0
 31 29  2  0
M  END
$$$$
