WCH.pdb
     RDKit          3D

 31 33  0  0  1  0  0  0  0  0999 V2000
    9.9247  -17.2764   22.1400 N   0  0  0  0  0  0  0  0  0  0  0  0
    9.6007  -16.2089   23.0260 C   0  0  1  0  0  0  0  0  0  0  0  0
    8.1073  -16.0796   23.1478 C   0  0  0  0  0  0  0  0  0  0  0  0
    7.5974  -14.7147   23.2253 C   0  0  0  0  0  0  0  0  0  0  0  0
    7.5011  -13.8722   22.1406 C   0  0  0  0  0  0  0  0  0  0  0  0
    7.0194  -12.7057   22.5827 N   0  0  0  0  0  0  0  0  0  0  0  0
    6.7900  -12.7411   23.9277 C   0  0  0  0  0  0  0  0  0  0  0  0
    6.3040  -11.8097   24.8138 C   0  0  0  0  0  0  0  0  0  0  0  0
    6.1676  -12.1232   26.1367 C   0  0  0  0  0  0  0  0  0  0  0  0
    6.5245  -13.3847   26.5640 C   0  0  0  0  0  0  0  0  0  0  0  0
    7.0085  -14.3059   25.6705 C   0  0  0  0  0  0  0  0  0  0  0  0
    7.1585  -14.0138   24.3193 C   0  0  0  0  0  0  0  0  0  0  0  0
   10.1803  -16.3780   24.3958 C   0  0  0  0  0  0  0  0  0  0  0  0
   10.4985  -17.5213   24.8248 O   0  0  0  0  0  0  0  0  0  0  0  0
   10.4078  -15.2942   25.2877 N   0  0  0  0  0  0  0  0  0  0  0  0
   10.9899  -15.4973   26.5985 C   0  0  1  0  0  0  0  0  0  0  0  0
   10.6773  -14.2773   27.4381 C   0  0  0  0  0  0  0  0  0  0  0  0
   11.0685  -14.6706   29.1642 S   0  0  0  0  0  0  0  0  0  0  0  0
   10.4108  -16.6683   27.2960 C   0  0  0  0  0  0  0  0  0  0  0  0
    9.1899  -16.8483   27.5086 O   0  0  0  0  0  0  0  0  0  0  0  0
   11.3139  -17.6628   27.7581 N   0  0  0  0  0  0  0  0  0  0  0  0
   10.7960  -18.8858   28.4016 C   0  0  1  0  0  0  0  0  0  0  0  0
   11.5839  -20.0279   27.8188 C   0  0  0  0  0  0  0  0  0  0  0  0
   11.2146  -20.4395   26.4739 C   0  0  0  0  0  0  0  0  0  0  0  0
   10.0160  -20.3664   25.8208 C   0  0  0  0  0  0  0  0  0  0  0  0
   10.1943  -20.8258   24.5555 N   0  0  0  0  0  0  0  0  0  0  0  0
   11.4625  -21.1764   24.4126 C   0  0  0  0  0  0  0  0  0  0  0  0
   12.0910  -20.9519   25.5525 N   0  0  0  0  0  0  0  0  0  0  0  0
   11.2369  -18.7624   29.8373 C   0  0  0  0  0  0  0  0  0  0  0  0
   10.8561  -19.5927   30.8622 O   0  0  0  0  0  0  0  0  0  0  0  0
   12.0333  -17.7980   30.1061 O   0  0  0  0  0  0  0  0  0  0  0  0
  2  1  1  6
  2  3  1  0
  3  4  1  0
  4  5  2  0
  6  5  1  0
  7  6  1  0
  8  7  2  0
  9  8  1  0
 10 11  1  0
 10  9  2  0
 11 12  2  0
 12  7  1  0
 12  4  1  0
 13  2  1  0
 13 15  1  0
 14 13  2  0
 16 15  1  0
 16 17  1  1
 17 18  1  0
 19 16  1  0
 20 19  2  0
 21 19  1  0
 22 21  1  0
 23 24  1  0
 22 23  1  6
 24 25  2  0
 26 25  1  0
 27 26  1  0
 28 27  2  0
 28 24  1  0
 29 22  1  0
 29 30  1  0
 31 29  2  0
M  END
$$$$
