WCH.pdb
     RDKit          3D

 31 33  0  0  1  0  0  0  0  0999 V2000
    6.0222  -17.6750   24.0154 N   0  0  0  0  0  0  0  0  0  0  0  0
    7.2365  -16.9300   24.0117 C   0  0  1  0  0  0  0  0  0  0  0  0
    7.5319  -16.4251   25.3971 C   0  0  0  0  0  0  0  0  0  0  0  0
    6.9321  -15.1401   25.7406 C   0  0  0  0  0  0  0  0  0  0  0  0
    5.8459  -15.0026   26.5754 C   0  0  0  0  0  0  0  0  0  0  0  0
    5.5569  -13.6988   26.6430 N   0  0  0  0  0  0  0  0  0  0  0  0
    6.4149  -12.9599   25.8810 C   0  0  0  0  0  0  0  0  0  0  0  0
    6.5204  -11.6108   25.6406 C   0  0  0  0  0  0  0  0  0  0  0  0
    7.5030  -11.1321   24.8208 C   0  0  0  0  0  0  0  0  0  0  0  0
    8.3823  -12.0227   24.2421 C   0  0  0  0  0  0  0  0  0  0  0  0
    8.2672  -13.3669   24.4891 C   0  0  0  0  0  0  0  0  0  0  0  0
    7.2767  -13.8817   25.3182 C   0  0  0  0  0  0  0  0  0  0  0  0
    8.4141  -17.7172   23.5273 C   0  0  0  0  0  0  0  0  0  0  0  0
    8.5272  -18.9435   23.8023 O   0  0  0  0  0  0  0  0  0  0  0  0
    9.4609  -17.1566   22.7450 N   0  0  0  0  0  0  0  0  0  0  0  0
   10.7524  -17.8022   22.6284 C   0  0  1  0  0  0  0  0  0  0  0  0
   11.6200  -16.9436   21.7333 C   0  0  0  0  0  0  0  0  0  0  0  0
   13.1546  -17.8511   21.4040 S   0  0  0  0  0  0  0  0  0  0  0  0
   11.4453  -17.9141   23.9324 C   0  0  0  0  0  0  0  0  0  0  0  0
   11.7469  -16.9498   24.6723 O   0  0  0  0  0  0  0  0  0  0  0  0
   11.7931  -19.2185   24.3748 N   0  0  0  0  0  0  0  0  0  0  0  0
   12.5862  -19.3907   25.6075 C   0  0  1  0  0  0  0  0  0  0  0  0
   11.9070  -20.4821   26.3899 C   0  0  0  0  0  0  0  0  0  0  0  0
   10.6768  -20.1108   27.0704 C   0  0  0  0  0  0  0  0  0  0  0  0
   10.3889  -19.0312   27.8580 C   0  0  0  0  0  0  0  0  0  0  0  0
    9.0795  -19.1013   28.2108 N   0  0  0  0  0  0  0  0  0  0  0  0
    8.5565  -20.1873   27.6642 C   0  0  0  0  0  0  0  0  0  0  0  0
    9.4989  -20.8062   26.9759 N   0  0  0  0  0  0  0  0  0  0  0  0
   13.8923  -19.9697   25.1280 C   0  0  0  0  0  0  0  0  0  0  0  0
   14.9578  -20.3025   25.9272 O   0  0  0  0  0  0  0  0  0  0  0  0
   14.0000  -20.1616   23.8678 O   0  0  0  0  0  0  0  0  0  0  0  0
  2  1  1  1
  2  3  1  0
  3  4  1  0
  4  5  2  0
  6  5  1  0
  7  6  1  0
  8  7  2  0
  9  8  1  0
 10 11  1  0
 10  9  2  0
 11 12  2  0
 12  7  1  0
 12  4  1  0
 13  2  1  0
 13 15  1  0
 14 13  2  0
 16 15  1  0
 16 17  1  6
 17 18  1  0
 19 16  1  0
 20 19  2  0
 21 19  1  0
 22 21  1  0
 23 24  1  0
 22 23  1  1
 24 25  2  0
 26 25  1  0
 27 26  1  0
 28 27  2  0
 28 24  1  0
 29 22  1  0
 29 30  1  0
 31 29  2  0
M  END
$$$$
