WCH.pdb
     RDKit          3D

 31 33  0  0  1  0  0  0  0  0999 V2000
    8.8515  -17.3138   22.3717 N   0  0  0  0  0  0  0  0  0  0  0  0
    8.8304  -15.9327   22.7201 C   0  0  1  0  0  0  0  0  0  0  0  0
    7.4092  -15.4514   22.8206 C   0  0  0  0  0  0  0  0  0  0  0  0
    7.2438  -14.0412   23.1569 C   0  0  0  0  0  0  0  0  0  0  0  0
    7.4840  -13.0120   22.2746 C   0  0  0  0  0  0  0  0  0  0  0  0
    7.2548  -11.8665   22.9254 N   0  0  0  0  0  0  0  0  0  0  0  0
    6.8686  -12.0965   24.2141 C   0  0  0  0  0  0  0  0  0  0  0  0
    6.5259  -11.2571   25.2470 C   0  0  0  0  0  0  0  0  0  0  0  0
    6.1636  -11.7704   26.4603 C   0  0  0  0  0  0  0  0  0  0  0  0
    6.1481  -13.1389   26.6285 C   0  0  0  0  0  0  0  0  0  0  0  0
    6.4923  -13.9668   25.5906 C   0  0  0  0  0  0  0  0  0  0  0  0
    6.8658  -13.4719   24.3459 C   0  0  0  0  0  0  0  0  0  0  0  0
    9.5294  -15.6353   24.0100 C   0  0  0  0  0  0  0  0  0  0  0  0
    9.6844  -14.4453   24.4001 O   0  0  0  0  0  0  0  0  0  0  0  0
   10.0547  -16.6428   24.8650 N   0  0  0  0  0  0  0  0  0  0  0  0
   10.6948  -16.3153   26.1225 C   0  0  1  0  0  0  0  0  0  0  0  0
    9.9760  -15.1200   26.7104 C   0  0  0  0  0  0  0  0  0  0  0  0
   10.7971  -14.6830   28.2667 S   0  0  0  0  0  0  0  0  0  0  0  0
   10.5933  -17.4153   27.1087 C   0  0  0  0  0  0  0  0  0  0  0  0
    9.5332  -17.7955   27.6565 O   0  0  0  0  0  0  0  0  0  0  0  0
   11.7941  -18.0893   27.4579 N   0  0  0  0  0  0  0  0  0  0  0  0
   11.7419  -19.2906   28.3136 C   0  0  1  0  0  0  0  0  0  0  0  0
   12.9911  -20.0727   28.0091 C   0  0  0  0  0  0  0  0  0  0  0  0
   13.1421  -20.5282   26.6365 C   0  0  0  0  0  0  0  0  0  0  0  0
   12.3914  -21.4052   25.9045 C   0  0  0  0  0  0  0  0  0  0  0  0
   12.9033  -21.4547   24.6478 N   0  0  0  0  0  0  0  0  0  0  0  0
   13.9415  -20.6362   24.5864 C   0  0  0  0  0  0  0  0  0  0  0  0
   14.1007  -20.0707   25.7696 N   0  0  0  0  0  0  0  0  0  0  0  0
   11.9133  -18.7553   29.7119 C   0  0  0  0  0  0  0  0  0  0  0  0
   11.8707  -19.5032   30.8625 O   0  0  0  0  0  0  0  0  0  0  0  0
   12.1154  -17.4965   29.8174 O   0  0  0  0  0  0  0  0  0  0  0  0
  2  1  1  1
  2  3  1  0
  3  4  1  0
  4  5  2  0
  6  5  1  0
  7  6  1  0
  8  7  2  0
  9  8  1  0
 10 11  1  0
 10  9  2  0
 11 12  2  0
 12  7  1  0
 12  4  1  0
 13  2  1  0
 13 15  1  0
 14 13  2  0
 16 15  1  0
 16 17  1  1
 17 18  1  0
 19 16  1  0
 20 19  2  0
 21 19  1  0
 22 21  1  0
 23 24  1  0
 22 23  1  6
 24 25  2  0
 26 25  1  0
 27 26  1  0
 28 27  2  0
 28 24  1  0
 29 22  1  0
 29 30  1  0
 31 29  2  0
M  END
$$$$
