WCH.pdb
     RDKit          3D

 31 33  0  0  1  0  0  0  0  0999 V2000
    6.9043  -17.5171   23.3862 N   0  0  0  0  0  0  0  0  0  0  0  0
    8.0598  -16.7253   23.6457 C   0  0  1  0  0  0  0  0  0  0  0  0
    8.1618  -16.4352   25.1178 C   0  0  0  0  0  0  0  0  0  0  0  0
    7.2215  -15.4448   25.6315 C   0  0  0  0  0  0  0  0  0  0  0  0
    5.9668  -15.7562   26.1053 C   0  0  0  0  0  0  0  0  0  0  0  0
    5.3809  -14.6098   26.4670 N   0  0  0  0  0  0  0  0  0  0  0  0
    6.2033  -13.5422   26.2510 C   0  0  0  0  0  0  0  0  0  0  0  0
    6.0525  -12.1929   26.4646 C   0  0  0  0  0  0  0  0  0  0  0  0
    7.0655  -11.3294   26.1562 C   0  0  0  0  0  0  0  0  0  0  0  0
    8.2357  -11.8340   25.6297 C   0  0  0  0  0  0  0  0  0  0  0  0
    8.3747  -13.1824   25.4206 C   0  0  0  0  0  0  0  0  0  0  0  0
    7.3602  -14.0836   25.7243 C   0  0  0  0  0  0  0  0  0  0  0  0
    9.3338  -17.3690   23.1947 C   0  0  0  0  0  0  0  0  0  0  0  0
    9.4372  -18.6255   23.1396 O   0  0  0  0  0  0  0  0  0  0  0  0
   10.4871  -16.6331   22.8072 N   0  0  0  0  0  0  0  0  0  0  0  0
   11.7722  -17.2753   22.6217 C   0  0  1  0  0  0  0  0  0  0  0  0
   12.2627  -16.9364   21.2304 C   0  0  0  0  0  0  0  0  0  0  0  0
   11.5920  -15.3132   20.7805 S   0  0  0  0  0  0  0  0  0  0  0  0
   12.7908  -16.7822   23.5769 C   0  0  0  0  0  0  0  0  0  0  0  0
   13.5943  -15.8479   23.3537 O   0  0  0  0  0  0  0  0  0  0  0  0
   12.8584  -17.4211   24.8439 N   0  0  0  0  0  0  0  0  0  0  0  0
   14.0226  -17.1937   25.7219 C   0  0  1  0  0  0  0  0  0  0  0  0
   13.6431  -17.7495   27.0680 C   0  0  0  0  0  0  0  0  0  0  0  0
   12.4847  -17.1452   27.7062 C   0  0  0  0  0  0  0  0  0  0  0  0
   11.9793  -15.8785   27.6123 C   0  0  0  0  0  0  0  0  0  0  0  0
   10.8439  -15.8193   28.3547 N   0  0  0  0  0  0  0  0  0  0  0  0
   10.6373  -17.0080   28.8987 C   0  0  0  0  0  0  0  0  0  0  0  0
   11.6108  -17.8172   28.5213 N   0  0  0  0  0  0  0  0  0  0  0  0
   15.0836  -18.1126   25.1733 C   0  0  0  0  0  0  0  0  0  0  0  0
   16.3584  -18.2420   25.6663 O   0  0  0  0  0  0  0  0  0  0  0  0
   14.7515  -18.8252   24.1641 O   0  0  0  0  0  0  0  0  0  0  0  0
  2  1  1  1
  2  3  1  0
  3  4  1  0
  4  5  2  0
  6  5  1  0
  7  6  1  0
  8  7  2  0
  9  8  1  0
 10 11  1  0
 10  9  2  0
 11 12  2  0
 12  7  1  0
 12  4  1  0
 13  2  1  0
 13 15  1  0
 14 13  2  0
 16 15  1  0
 16 17  1  6
 17 18  1  0
 19 16  1  0
 20 19  2  0
 21 19  1  0
 22 21  1  0
 23 24  1  0
 22 23  1  1
 24 25  2  0
 26 25  1  0
 27 26  1  0
 28 27  2  0
 28 24  1  0
 29 22  1  0
 29 30  1  0
 31 29  2  0
M  END
$$$$
