WCH.pdb
     RDKit          3D

 31 33  0  0  1  0  0  0  0  0999 V2000
    5.5386  -17.4630   23.6898 N   0  0  0  0  0  0  0  0  0  0  0  0
    6.5899  -16.5552   23.3732 C   0  0  1  0  0  0  0  0  0  0  0  0
    7.4187  -16.2838   24.5984 C   0  0  0  0  0  0  0  0  0  0  0  0
    6.8740  -15.2932   25.5209 C   0  0  0  0  0  0  0  0  0  0  0  0
    5.8880  -15.5675   26.4418 C   0  0  0  0  0  0  0  0  0  0  0  0
    5.6219  -14.4300   27.0925 N   0  0  0  0  0  0  0  0  0  0  0  0
    6.3983  -13.4042   26.6369 C   0  0  0  0  0  0  0  0  0  0  0  0
    6.4908  -12.0790   26.9898 C   0  0  0  0  0  0  0  0  0  0  0  0
    7.3820  -11.2587   26.3577 C   0  0  0  0  0  0  0  0  0  0  0  0
    8.1827  -11.7819   25.3646 C   0  0  0  0  0  0  0  0  0  0  0  0
    8.0814  -13.1058   25.0207 C   0  0  0  0  0  0  0  0  0  0  0  0
    7.1830  -13.9630   25.6465 C   0  0  0  0  0  0  0  0  0  0  0  0
    7.4913  -17.0477   22.2843 C   0  0  0  0  0  0  0  0  0  0  0  0
    7.1812  -18.0612   21.5994 O   0  0  0  0  0  0  0  0  0  0  0  0
    8.7271  -16.4277   21.9521 N   0  0  0  0  0  0  0  0  0  0  0  0
    9.3767  -16.6607   20.6785 C   0  0  1  0  0  0  0  0  0  0  0  0
    8.4922  -16.0824   19.5949 C   0  0  0  0  0  0  0  0  0  0  0  0
    8.0759  -14.3805   20.0612 S   0  0  0  0  0  0  0  0  0  0  0  0
   10.6881  -15.9794   20.5828 C   0  0  0  0  0  0  0  0  0  0  0  0
   10.8522  -14.7704   20.3009 O   0  0  0  0  0  0  0  0  0  0  0  0
   11.8477  -16.7617   20.8309 N   0  0  0  0  0  0  0  0  0  0  0  0
   12.7649  -16.3917   21.9262 C   0  0  1  0  0  0  0  0  0  0  0  0
   12.8551  -17.5997   22.8191 C   0  0  0  0  0  0  0  0  0  0  0  0
   12.0497  -17.5624   24.0292 C   0  0  0  0  0  0  0  0  0  0  0  0
   11.2386  -16.5806   24.5259 C   0  0  0  0  0  0  0  0  0  0  0  0
   10.6535  -17.0474   25.6588 N   0  0  0  0  0  0  0  0  0  0  0  0
   11.0788  -18.2826   25.8710 C   0  0  0  0  0  0  0  0  0  0  0  0
   11.9170  -18.6097   24.9040 N   0  0  0  0  0  0  0  0  0  0  0  0
   14.1086  -16.2653   21.2555 C   0  0  0  0  0  0  0  0  0  0  0  0
   14.3828  -16.5960   19.9516 O   0  0  0  0  0  0  0  0  0  0  0  0
   15.0623  -15.8091   21.9759 O   0  0  0  0  0  0  0  0  0  0  0  0
  2  1  1  1
  2  3  1  0
  3  4  1  0
  4  5  2  0
  6  5  1  0
  7  6  1  0
  8  7  2  0
  9  8  1  0
 10 11  1  0
 10  9  2  0
 11 12  2  0
 12  7  1  0
 12  4  1  0
 13  2  1  0
 13 15  1  0
 14 13  2  0
 16 15  1  0
 16 17  1  6
 17 18  1  0
 19 16  1  0
 20 19  2  0
 21 19  1  0
 22 21  1  0
 23 24  1  0
 22 23  1  1
 24 25  2  0
 26 25  1  0
 27 26  1  0
 28 27  2  0
 28 24  1  0
 29 22  1  0
 29 30  1  0
 31 29  2  0
M  END
$$$$
