WCH.pdb
     RDKit          3D

 31 33  0  0  1  0  0  0  0  0999 V2000
    6.2645  -18.6705   24.2276 N   0  0  0  0  0  0  0  0  0  0  0  0
    6.7486  -17.3386   24.0830 C   0  0  1  0  0  0  0  0  0  0  0  0
    7.3397  -16.8646   25.3821 C   0  0  0  0  0  0  0  0  0  0  0  0
    6.5943  -15.8140   26.0673 C   0  0  0  0  0  0  0  0  0  0  0  0
    5.6067  -16.0585   26.9950 C   0  0  0  0  0  0  0  0  0  0  0  0
    5.1305  -14.8739   27.3928 N   0  0  0  0  0  0  0  0  0  0  0  0
    5.7679  -13.8453   26.7615 C   0  0  0  0  0  0  0  0  0  0  0  0
    5.6352  -12.4796   26.8404 C   0  0  0  0  0  0  0  0  0  0  0  0
    6.4280  -11.6657   26.0816 C   0  0  0  0  0  0  0  0  0  0  0  0
    7.3590  -12.2367   25.2399 C   0  0  0  0  0  0  0  0  0  0  0  0
    7.4823  -13.6009   25.1694 C   0  0  0  0  0  0  0  0  0  0  0  0
    6.6884  -14.4528   25.9292 C   0  0  0  0  0  0  0  0  0  0  0  0
    7.7794  -17.1953   23.0070 C   0  0  0  0  0  0  0  0  0  0  0  0
    8.5222  -18.1656   22.6923 O   0  0  0  0  0  0  0  0  0  0  0  0
    7.9908  -15.9903   22.2823 N   0  0  0  0  0  0  0  0  0  0  0  0
    8.9238  -15.9217   21.1763 C   0  0  1  0  0  0  0  0  0  0  0  0
    8.6414  -14.6470   20.4107 C   0  0  0  0  0  0  0  0  0  0  0  0
    8.4690  -13.2995   21.6114 S   0  0  0  0  0  0  0  0  0  0  0  0
   10.3316  -15.8562   21.6311 C   0  0  0  0  0  0  0  0  0  0  0  0
   11.2531  -15.2526   21.0354 O   0  0  0  0  0  0  0  0  0  0  0  0
   10.6582  -16.5316   22.8374 N   0  0  0  0  0  0  0  0  0  0  0  0
   12.0681  -16.6483   23.2574 C   0  0  1  0  0  0  0  0  0  0  0  0
   12.0383  -17.0354   24.7114 C   0  0  0  0  0  0  0  0  0  0  0  0
   11.7537  -15.9643   25.6528 C   0  0  0  0  0  0  0  0  0  0  0  0
   11.5434  -14.6301   25.4426 C   0  0  0  0  0  0  0  0  0  0  0  0
   11.2549  -14.0533   26.6375 N   0  0  0  0  0  0  0  0  0  0  0  0
   11.2804  -14.9906   27.5715 C   0  0  0  0  0  0  0  0  0  0  0  0
   11.5775  -16.1440   27.0005 N   0  0  0  0  0  0  0  0  0  0  0  0
   12.5762  -17.8561   22.5128 C   0  0  0  0  0  0  0  0  0  0  0  0
   11.8214  -18.6702   21.7051 O   0  0  0  0  0  0  0  0  0  0  0  0
   13.8173  -18.1310   22.6560 O   0  0  0  0  0  0  0  0  0  0  0  0
  2  1  1  1
  2  3  1  0
  3  4  1  0
  4  5  2  0
  6  5  1  0
  7  6  1  0
  8  7  2  0
  9  8  1  0
 10 11  1  0
 10  9  2  0
 11 12  2  0
 12  7  1  0
 12  4  1  0
 13  2  1  0
 13 15  1  0
 14 13  2  0
 16 15  1  0
 16 17  1  1
 17 18  1  0
 19 16  1  0
 20 19  2  0
 21 19  1  0
 22 21  1  0
 23 24  1  0
 22 23  1  1
 24 25  2  0
 26 25  1  0
 27 26  1  0
 28 27  2  0
 28 24  1  0
 29 22  1  0
 29 30  1  0
 31 29  2  0
M  END
$$$$
