WCH.pdb
     RDKit          3D

 31 33  0  0  1  0  0  0  0  0999 V2000
    6.5523  -18.3387   24.5179 N   0  0  0  0  0  0  0  0  0  0  0  0
    7.0546  -17.0351   24.2389 C   0  0  1  0  0  0  0  0  0  0  0  0
    7.5164  -16.3809   25.5119 C   0  0  0  0  0  0  0  0  0  0  0  0
    6.6831  -15.2851   25.9954 C   0  0  0  0  0  0  0  0  0  0  0  0
    5.4015  -15.4518   26.4701 C   0  0  0  0  0  0  0  0  0  0  0  0
    4.9373  -14.2418   26.7997 N   0  0  0  0  0  0  0  0  0  0  0  0
    5.8672  -13.2715   26.5613 C   0  0  0  0  0  0  0  0  0  0  0  0
    5.8574  -11.9088   26.7400 C   0  0  0  0  0  0  0  0  0  0  0  0
    6.9557  -11.1638   26.4155 C   0  0  0  0  0  0  0  0  0  0  0  0
    8.0683  -11.8008   25.9081 C   0  0  0  0  0  0  0  0  0  0  0  0
    8.0665  -13.1613   25.7338 C   0  0  0  0  0  0  0  0  0  0  0  0
    6.9628  -13.9438   26.0547 C   0  0  0  0  0  0  0  0  0  0  0  0
    8.1875  -17.0326   23.2605 C   0  0  0  0  0  0  0  0  0  0  0  0
    8.9632  -18.0238   23.1695 O   0  0  0  0  0  0  0  0  0  0  0  0
    8.4646  -15.9446   22.3879 N   0  0  0  0  0  0  0  0  0  0  0  0
    9.5177  -16.0146   21.3957 C   0  0  1  0  0  0  0  0  0  0  0  0
    9.2276  -14.9713   20.3382 C   0  0  0  0  0  0  0  0  0  0  0  0
    7.5634  -15.2804   19.6886 S   0  0  0  0  0  0  0  0  0  0  0  0
   10.8487  -15.7023   21.9649 C   0  0  0  0  0  0  0  0  0  0  0  0
   11.4427  -14.6062   21.8471 O   0  0  0  0  0  0  0  0  0  0  0  0
   11.4988  -16.7285   22.7013 N   0  0  0  0  0  0  0  0  0  0  0  0
   12.0205  -16.4473   24.0528 C   0  0  1  0  0  0  0  0  0  0  0  0
   10.8180  -16.1639   24.9121 C   0  0  0  0  0  0  0  0  0  0  0  0
   11.0919  -15.7376   26.2751 C   0  0  0  0  0  0  0  0  0  0  0  0
   12.2751  -15.4394   26.8913 C   0  0  0  0  0  0  0  0  0  0  0  0
   12.0023  -15.0309   28.1572 N   0  0  0  0  0  0  0  0  0  0  0  0
   10.6914  -15.0681   28.3355 C   0  0  0  0  0  0  0  0  0  0  0  0
   10.1276  -15.4894   27.2176 N   0  0  0  0  0  0  0  0  0  0  0  0
   12.5667  -17.7717   24.5205 C   0  0  0  0  0  0  0  0  0  0  0  0
   11.9535  -18.9892   24.3574 O   0  0  0  0  0  0  0  0  0  0  0  0
   13.6980  -17.7409   25.1169 O   0  0  0  0  0  0  0  0  0  0  0  0
  2  1  1  1
  2  3  1  0
  3  4  1  0
  4  5  2  0
  6  5  1  0
  7  6  1  0
  8  7  2  0
  9  8  1  0
 10 11  1  0
 10  9  2  0
 11 12  2  0
 12  7  1  0
 12  4  1  0
 13  2  1  0
 13 15  1  0
 14 13  2  0
 16 15  1  0
 16 17  1  6
 17 18  1  0
 19 16  1  0
 20 19  2  0
 21 19  1  0
 22 21  1  0
 23 24  1  0
 22 23  1  1
 24 25  2  0
 26 25  1  0
 27 26  1  0
 28 27  2  0
 28 24  1  0
 29 22  1  0
 29 30  1  0
 31 29  2  0
M  END
$$$$
