WCH.pdb
     RDKit          3D

 31 33  0  0  1  0  0  0  0  0999 V2000
    6.2074  -16.8988   24.6627 N   0  0  0  0  0  0  0  0  0  0  0  0
    7.5406  -16.6312   24.2381 C   0  0  1  0  0  0  0  0  0  0  0  0
    7.9021  -15.2057   24.5526 C   0  0  0  0  0  0  0  0  0  0  0  0
    7.2927  -14.1967   23.6926 C   0  0  0  0  0  0  0  0  0  0  0  0
    6.2792  -13.3579   24.0986 C   0  0  0  0  0  0  0  0  0  0  0  0
    5.9546  -12.5891   23.0537 N   0  0  0  0  0  0  0  0  0  0  0  0
    6.7185  -12.8864   21.9624 C   0  0  0  0  0  0  0  0  0  0  0  0
    6.7585  -12.3755   20.6871 C   0  0  0  0  0  0  0  0  0  0  0  0
    7.6500  -12.8673   19.7759 C   0  0  0  0  0  0  0  0  0  0  0  0
    8.5043  -13.8800   20.1573 C   0  0  0  0  0  0  0  0  0  0  0  0
    8.4552  -14.3822   21.4327 C   0  0  0  0  0  0  0  0  0  0  0  0
    7.5578  -13.9014   22.3799 C   0  0  0  0  0  0  0  0  0  0  0  0
    8.5562  -17.5332   24.8674 C   0  0  0  0  0  0  0  0  0  0  0  0
    8.4853  -17.8286   26.0922 O   0  0  0  0  0  0  0  0  0  0  0  0
    9.6434  -18.1058   24.1520 N   0  0  0  0  0  0  0  0  0  0  0  0
   10.6734  -18.8741   24.8207 C   0  0  1  0  0  0  0  0  0  0  0  0
   11.6404  -19.3685   23.7664 C   0  0  0  0  0  0  0  0  0  0  0  0
   12.8801  -20.4065   24.5867 S   0  0  0  0  0  0  0  0  0  0  0  0
   11.4518  -18.0569   25.7795 C   0  0  0  0  0  0  0  0  0  0  0  0
   12.2149  -17.1141   25.4681 O   0  0  0  0  0  0  0  0  0  0  0  0
   11.3196  -18.3699   27.1589 N   0  0  0  0  0  0  0  0  0  0  0  0
   12.2171  -17.7393   28.1462 C   0  0  1  0  0  0  0  0  0  0  0  0
   11.3371  -16.8963   29.0293 C   0  0  0  0  0  0  0  0  0  0  0  0
   10.7945  -15.6893   28.4268 C   0  0  0  0  0  0  0  0  0  0  0  0
   10.9155  -15.1996   27.1562 C   0  0  0  0  0  0  0  0  0  0  0  0
   10.1721  -14.0669   27.0663 N   0  0  0  0  0  0  0  0  0  0  0  0
    9.5995  -13.8481   28.2392 C   0  0  0  0  0  0  0  0  0  0  0  0
    9.9604  -14.8107   29.0686 N   0  0  0  0  0  0  0  0  0  0  0  0
   12.6910  -18.8870   29.0002 C   0  0  0  0  0  0  0  0  0  0  0  0
   12.3362  -20.2029   28.8351 O   0  0  0  0  0  0  0  0  0  0  0  0
   13.4912  -18.5927   29.9540 O   0  0  0  0  0  0  0  0  0  0  0  0
  2  1  1  1
  2  3  1  0
  3  4  1  0
  4  5  2  0
  6  5  1  0
  7  6  1  0
  8  7  2  0
  9  8  1  0
 10 11  1  0
 10  9  2  0
 11 12  2  0
 12  7  1  0
 12  4  1  0
 13  2  1  0
 13 15  1  0
 14 13  2  0
 16 15  1  0
 16 17  1  6
 17 18  1  0
 19 16  1  0
 20 19  2  0
 21 19  1  0
 22 21  1  0
 23 24  1  0
 22 23  1  1
 24 25  2  0
 26 25  1  0
 27 26  1  0
 28 27  2  0
 28 24  1  0
 29 22  1  0
 29 30  1  0
 31 29  2  0
M  END
$$$$
