WCH.pdb
     RDKit          3D

 31 33  0  0  1  0  0  0  0  0999 V2000
    7.6368  -17.2082   23.0641 N   0  0  0  0  0  0  0  0  0  0  0  0
    8.3706  -16.0078   22.8401 C   0  0  1  0  0  0  0  0  0  0  0  0
    7.4502  -14.8215   22.9247 C   0  0  0  0  0  0  0  0  0  0  0  0
    6.8819  -14.5577   24.2425 C   0  0  0  0  0  0  0  0  0  0  0  0
    6.1884  -15.4934   24.9768 C   0  0  0  0  0  0  0  0  0  0  0  0
    5.7977  -14.9016   26.1105 N   0  0  0  0  0  0  0  0  0  0  0  0
    6.2079  -13.6007   26.1583 C   0  0  0  0  0  0  0  0  0  0  0  0
    6.0562  -12.6108   27.0997 C   0  0  0  0  0  0  0  0  0  0  0  0
    6.5889  -11.3707   26.8870 C   0  0  0  0  0  0  0  0  0  0  0  0
    7.2778  -11.1319   25.7168 C   0  0  0  0  0  0  0  0  0  0  0  0
    7.4227  -12.1273   24.7844 C   0  0  0  0  0  0  0  0  0  0  0  0
    6.8905  -13.3979   24.9742 C   0  0  0  0  0  0  0  0  0  0  0  0
    9.4961  -15.8110   23.8071 C   0  0  0  0  0  0  0  0  0  0  0  0
   10.4515  -15.0328   23.5351 O   0  0  0  0  0  0  0  0  0  0  0  0
    9.5691  -16.4679   25.0661 N   0  0  0  0  0  0  0  0  0  0  0  0
   10.8011  -16.5205   25.8262 C   0  0  1  0  0  0  0  0  0  0  0  0
   10.7266  -15.4590   26.9028 C   0  0  0  0  0  0  0  0  0  0  0  0
    9.4202  -15.9334   28.0670 S   0  0  0  0  0  0  0  0  0  0  0  0
   10.9868  -17.8222   26.5075 C   0  0  0  0  0  0  0  0  0  0  0  0
   10.0873  -18.4572   27.1040 O   0  0  0  0  0  0  0  0  0  0  0  0
   12.2880  -18.3916   26.4798 N   0  0  0  0  0  0  0  0  0  0  0  0
   12.4928  -19.7823   26.9291 C   0  0  1  0  0  0  0  0  0  0  0  0
   13.8815  -20.1610   26.4901 C   0  0  0  0  0  0  0  0  0  0  0  0
   14.2881  -21.5300   26.7640 C   0  0  0  0  0  0  0  0  0  0  0  0
   13.5700  -22.5908   27.2409 C   0  0  0  0  0  0  0  0  0  0  0  0
   14.3846  -23.6769   27.2657 N   0  0  0  0  0  0  0  0  0  0  0  0
   15.5768  -23.3160   26.8186 C   0  0  0  0  0  0  0  0  0  0  0  0
   15.5390  -22.0317   26.5122 N   0  0  0  0  0  0  0  0  0  0  0  0
   12.5416  -19.6811   28.4320 C   0  0  0  0  0  0  0  0  0  0  0  0
   12.6563  -18.5161   29.1491 O   0  0  0  0  0  0  0  0  0  0  0  0
   12.4681  -20.7828   29.0781 O   0  0  0  0  0  0  0  0  0  0  0  0
  2  1  1  1
  2  3  1  0
  3  4  1  0
  4  5  2  0
  6  5  1  0
  7  6  1  0
  8  7  2  0
  9  8  1  0
 10 11  1  0
 10  9  2  0
 11 12  2  0
 12  7  1  0
 12  4  1  0
 13  2  1  0
 13 15  1  0
 14 13  2  0
 16 15  1  0
 16 17  1  1
 17 18  1  0
 19 16  1  0
 20 19  2  0
 21 19  1  0
 22 21  1  0
 23 24  1  0
 22 23  1  6
 24 25  2  0
 26 25  1  0
 27 26  1  0
 28 27  2  0
 28 24  1  0
 29 22  1  0
 29 30  1  0
 31 29  2  0
M  END
$$$$
