VRW.pdb
     RDKit          3D

 33 34  0  0  1  0  0  0  0  0999 V2000
    7.0872  -14.1927   18.8770 C   0  0  0  0  0  0  0  0  0  0  0  0
    7.9984  -13.0854   19.4046 C   0  0  2  0  0  0  0  0  0  0  0  0
    8.3104  -12.0694   18.3529 C   0  0  0  0  0  0  0  0  0  0  0  0
    9.1907  -13.7528   20.0153 C   0  0  2  0  0  0  0  0  0  0  0  0
    9.9650  -14.3304   18.9283 N   0  0  0  0  0  0  0  0  0  0  0  0
    8.8675  -14.7481   21.0588 C   0  0  0  0  0  0  0  0  0  0  0  0
    8.1183  -14.4149   22.0108 O   0  0  0  0  0  0  0  0  0  0  0  0
   10.0895  -23.0847   19.3298 N   0  0  0  0  0  0  0  0  0  0  0  0
    8.8891  -22.4355   18.8884 C   0  0  0  0  0  0  0  0  0  0  0  0
    8.1127  -22.9896   18.0246 N   0  0  0  0  0  0  0  0  0  0  0  0
    8.5025  -21.1533   19.3875 N   0  0  0  0  0  0  0  0  0  0  0  0
    9.2593  -20.4167   20.3480 C   0  0  0  0  0  0  0  0  0  0  0  0
    8.6823  -19.0352   20.6481 C   0  0  0  0  0  0  0  0  0  0  0  0
    9.5246  -18.4517   21.7427 C   0  0  0  0  0  0  0  0  0  0  0  0
    9.1387  -17.0380   22.1210 C   0  0  2  0  0  0  0  0  0  0  0  0
    9.3550  -16.0794   21.0600 N   0  0  0  0  0  0  0  0  0  0  0  0
    9.9589  -16.6330   23.2768 C   0  0  0  0  0  0  0  0  0  0  0  0
   10.9500  -15.8990   23.0995 O   0  0  0  0  0  0  0  0  0  0  0  0
    7.2496  -22.4839   17.7317 N   0  0  0  0  0  0  0  0  0  0  0  0
    9.6101  -17.0833   24.5710 C   0  0  2  0  0  0  0  0  0  0  0  0
   10.2165  -16.5383   25.7990 C   0  0  0  0  0  0  0  0  0  0  0  0
    9.9316  -15.0760   25.9111 C   0  0  0  0  0  0  0  0  0  0  0  0
    8.4911  -14.8145   26.0809 C   0  0  0  0  0  0  0  0  0  0  0  0
    7.5325  -15.7980   25.8333 N   0  0  0  0  0  0  0  0  0  0  0  0
    6.3179  -15.3035   26.1190 C   0  0  0  0  0  0  0  0  0  0  0  0
    6.4825  -14.0404   26.5371 C   0  0  0  0  0  0  0  0  0  0  0  0
    5.6004  -13.0686   26.9440 C   0  0  0  0  0  0  0  0  0  0  0  0
    5.9920  -11.8062   27.3279 C   0  0  0  0  0  0  0  0  0  0  0  0
    7.3382  -11.5023   27.3018 C   0  0  0  0  0  0  0  0  0  0  0  0
    8.2499  -12.4483   26.9010 C   0  0  0  0  0  0  0  0  0  0  0  0
    7.8373  -13.7077   26.5220 C   0  0  0  0  0  0  0  0  0  0  0  0
    9.7931  -17.3038   26.9533 O   0  0  0  0  0  0  0  0  0  0  0  0
   10.2276  -17.0764   28.1368 O   0  0  0  0  0  0  0  0  0  0  0  0
  2  1  1  6
  2  3  1  0
  4  2  1  0
  4  5  1  6
  6  7  2  0
  6  4  1  0
  9 10  2  0
  9  8  1  0
 11  9  1  0
 12 11  1  0
 13 12  1  0
 13 14  1  0
 15 14  1  6
 15 16  1  0
 16  6  1  0
 17 19  1  0
 17 15  1  0
 18 17  2  0
 20 19  1  0
 20 21  1  6
 21 22  1  0
 22 30  1  0
 23 22  2  0
 23 24  1  0
 24 25  1  0
 25 26  1  0
 26 27  2  0
 28 27  1  0
 29 28  2  0
 30 25  2  0
 30 29  1  0
 31 20  1  0
 32 31  2  0
 33 31  1  0
M  END
$$$$
