VRW.pdb
     RDKit          3D

 33 34  0  0  1  0  0  0  0  0999 V2000
    7.0507  -15.1614   19.3634 C   0  0  0  0  0  0  0  0  0  0  0  0
    7.2367  -13.7578   19.9378 C   0  0  2  0  0  0  0  0  0  0  0  0
    7.1247  -12.7029   18.8841 C   0  0  0  0  0  0  0  0  0  0  0  0
    8.5270  -13.7621   20.6963 C   0  0  2  0  0  0  0  0  0  0  0  0
    9.6017  -13.8082   19.7179 N   0  0  0  0  0  0  0  0  0  0  0  0
    8.6424  -14.8391   21.7016 C   0  0  0  0  0  0  0  0  0  0  0  0
    7.7283  -14.9832   22.5514 O   0  0  0  0  0  0  0  0  0  0  0  0
   11.3461  -18.1293   17.4802 N   0  0  0  0  0  0  0  0  0  0  0  0
   12.3455  -18.9750   18.0662 C   0  0  0  0  0  0  0  0  0  0  0  0
   13.5161  -19.0821   17.5425 N   0  0  0  0  0  0  0  0  0  0  0  0
   12.0882  -19.7295   19.2524 N   0  0  0  0  0  0  0  0  0  0  0  0
   12.0500  -19.1594   20.5605 C   0  0  0  0  0  0  0  0  0  0  0  0
   10.8113  -18.3040   20.8161 C   0  0  0  0  0  0  0  0  0  0  0  0
   10.8756  -17.8820   22.2534 C   0  0  0  0  0  0  0  0  0  0  0  0
    9.8015  -16.8907   22.6463 C   0  0  2  0  0  0  0  0  0  0  0  0
    9.7360  -15.7385   21.7750 N   0  0  0  0  0  0  0  0  0  0  0  0
   10.0936  -16.4158   24.0108 C   0  0  0  0  0  0  0  0  0  0  0  0
   10.9252  -15.5031   24.1786 O   0  0  0  0  0  0  0  0  0  0  0  0
   14.2171  -19.6974   18.0078 N   0  0  0  0  0  0  0  0  0  0  0  0
    9.4266  -17.0026   25.1109 C   0  0  1  0  0  0  0  0  0  0  0  0
    9.7200  -16.6430   26.5100 C   0  0  0  0  0  0  0  0  0  0  0  0
    8.4492  -16.4551   27.2726 C   0  0  0  0  0  0  0  0  0  0  0  0
    7.5664  -15.4695   26.6233 C   0  0  0  0  0  0  0  0  0  0  0  0
    6.4489  -15.8600   25.8841 N   0  0  0  0  0  0  0  0  0  0  0  0
    5.8047  -14.7627   25.4571 C   0  0  0  0  0  0  0  0  0  0  0  0
    6.4820  -13.6954   25.9035 C   0  0  0  0  0  0  0  0  0  0  0  0
    6.2907  -12.3419   25.7631 C   0  0  0  0  0  0  0  0  0  0  0  0
    7.1347  -11.3998   26.3058 C   0  0  0  0  0  0  0  0  0  0  0  0
    8.2276  -11.8376   27.0262 C   0  0  0  0  0  0  0  0  0  0  0  0
    8.4514  -13.1831   27.1880 C   0  0  0  0  0  0  0  0  0  0  0  0
    7.5930  -14.1108   26.6379 C   0  0  0  0  0  0  0  0  0  0  0  0
   10.6164  -17.6139   27.1029 O   0  0  0  0  0  0  0  0  0  0  0  0
   10.9737  -18.6882   26.5034 O   0  0  0  0  0  0  0  0  0  0  0  0
  2  1  1  6
  2  3  1  0
  4  2  1  0
  4  5  1  6
  6  7  2  0
  6  4  1  0
  9 10  2  0
  9  8  1  0
 11  9  1  0
 12 11  1  0
 13 12  1  0
 13 14  1  0
 15 14  1  6
 15 16  1  0
 16  6  1  0
 17 19  1  0
 17 15  1  0
 18 17  2  0
 20 19  1  0
 20 21  1  1
 21 22  1  0
 22 30  1  0
 23 22  2  0
 23 24  1  0
 24 25  1  0
 25 26  1  0
 26 27  2  0
 28 27  1  0
 29 28  2  0
 30 25  2  0
 30 29  1  0
 31 20  1  0
 32 31  2  0
 33 31  1  0
M  END
$$$$
