VRW.pdb
     RDKit          3D

 33 34  0  0  1  0  0  0  0  0999 V2000
    7.4579  -14.8735   18.5277 C   0  0  0  0  0  0  0  0  0  0  0  0
    7.5221  -13.6370   19.4231 C   0  0  2  0  0  0  0  0  0  0  0  0
    7.1130  -12.3971   18.6944 C   0  0  0  0  0  0  0  0  0  0  0  0
    8.8943  -13.5986   20.0195 C   0  0  2  0  0  0  0  0  0  0  0  0
    9.8291  -13.3499   18.9338 N   0  0  0  0  0  0  0  0  0  0  0  0
    9.2556  -14.7993   20.8015 C   0  0  0  0  0  0  0  0  0  0  0  0
    8.5340  -15.1366   21.7731 O   0  0  0  0  0  0  0  0  0  0  0  0
   15.4210  -13.8796   21.0016 N   0  0  0  0  0  0  0  0  0  0  0  0
   15.6177  -14.5522   19.7501 C   0  0  0  0  0  0  0  0  0  0  0  0
   16.1770  -13.9566   18.7559 N   0  0  0  0  0  0  0  0  0  0  0  0
   15.2064  -15.9068   19.5536 N   0  0  0  0  0  0  0  0  0  0  0  0
   14.2751  -16.5819   20.3991 C   0  0  0  0  0  0  0  0  0  0  0  0
   12.8509  -16.5937   19.8490 C   0  0  0  0  0  0  0  0  0  0  0  0
   12.0390  -17.4327   20.7898 C   0  0  0  0  0  0  0  0  0  0  0  0
   10.8199  -16.7249   21.3404 C   0  0  2  0  0  0  0  0  0  0  0  0
   10.3836  -15.6129   20.5256 N   0  0  0  0  0  0  0  0  0  0  0  0
   11.1567  -16.2065   22.6785 C   0  0  0  0  0  0  0  0  0  0  0  0
   11.8913  -15.2052   22.7821 O   0  0  0  0  0  0  0  0  0  0  0  0
   16.3001  -14.4817   17.8639 N   0  0  0  0  0  0  0  0  0  0  0  0
   10.6422  -16.8525   23.8263 C   0  0  1  0  0  0  0  0  0  0  0  0
    9.7313  -16.1902   24.7773 C   0  0  0  0  0  0  0  0  0  0  0  0
    8.6037  -15.5392   24.0449 C   0  0  0  0  0  0  0  0  0  0  0  0
    7.6560  -14.8926   24.9702 C   0  0  0  0  0  0  0  0  0  0  0  0
    6.5612  -15.5788   25.4975 N   0  0  0  0  0  0  0  0  0  0  0  0
    5.9067  -14.7688   26.3441 C   0  0  0  0  0  0  0  0  0  0  0  0
    6.5545  -13.5953   26.3649 C   0  0  0  0  0  0  0  0  0  0  0  0
    6.3300  -12.4160   27.0335 C   0  0  0  0  0  0  0  0  0  0  0  0
    7.1314  -11.3055   26.8956 C   0  0  0  0  0  0  0  0  0  0  0  0
    8.2137  -11.3812   26.0424 C   0  0  0  0  0  0  0  0  0  0  0  0
    8.4701  -12.5437   25.3571 C   0  0  0  0  0  0  0  0  0  0  0  0
    7.6562  -13.6456   25.5105 C   0  0  0  0  0  0  0  0  0  0  0  0
    9.3009  -17.1242   25.7971 O   0  0  0  0  0  0  0  0  0  0  0  0
    9.0242  -18.3497   25.5462 O   0  0  0  0  0  0  0  0  0  0  0  0
  2  1  1  6
  2  3  1  0
  4  2  1  0
  4  5  1  6
  6  7  2  0
  6  4  1  0
  9 10  2  0
  9  8  1  0
 11  9  1  0
 12 11  1  0
 13 12  1  0
 13 14  1  0
 15 14  1  6
 15 16  1  0
 16  6  1  0
 17 19  1  0
 17 15  1  0
 18 17  2  0
 20 19  1  0
 20 21  1  1
 21 22  1  0
 22 30  1  0
 23 22  2  0
 23 24  1  0
 24 25  1  0
 25 26  1  0
 26 27  2  0
 28 27  1  0
 29 28  2  0
 30 25  2  0
 30 29  1  0
 31 20  1  0
 32 31  2  0
 33 31  1  0
M  END
$$$$
