VRW.pdb
     RDKit          3D

 33 34  0  0  1  0  0  0  0  0999 V2000
    9.3898  -18.1241   18.0751 C   0  0  0  0  0  0  0  0  0  0  0  0
   10.1366  -19.1842   18.8834 C   0  0  2  0  0  0  0  0  0  0  0  0
    9.7631  -20.5709   18.4668 C   0  0  0  0  0  0  0  0  0  0  0  0
    9.9090  -18.8735   20.3297 C   0  0  2  0  0  0  0  0  0  0  0  0
    8.5585  -19.3033   20.6553 N   0  0  0  0  0  0  0  0  0  0  0  0
   10.1483  -17.4624   20.6976 C   0  0  0  0  0  0  0  0  0  0  0  0
   11.2967  -16.9766   20.5441 O   0  0  0  0  0  0  0  0  0  0  0  0
    8.3594  -15.2932   17.2630 N   0  0  0  0  0  0  0  0  0  0  0  0
    7.8572  -14.0185   16.8384 C   0  0  0  0  0  0  0  0  0  0  0  0
    7.9240  -13.6546   15.6059 N   0  0  0  0  0  0  0  0  0  0  0  0
    7.2612  -13.1025   17.7593 N   0  0  0  0  0  0  0  0  0  0  0  0
    7.4896  -13.1350   19.1681 C   0  0  0  0  0  0  0  0  0  0  0  0
    8.4761  -14.2174   19.6002 C   0  0  0  0  0  0  0  0  0  0  0  0
    8.4654  -14.2279   21.0994 C   0  0  0  0  0  0  0  0  0  0  0  0
    9.3890  -15.2608   21.7083 C   0  0  2  0  0  0  0  0  0  0  0  0
    9.1513  -16.6021   21.2229 N   0  0  0  0  0  0  0  0  0  0  0  0
    9.1794  -15.2591   23.1674 C   0  0  0  0  0  0  0  0  0  0  0  0
    8.0215  -15.1830   23.6214 O   0  0  0  0  0  0  0  0  0  0  0  0
    7.5201  -12.7329   15.3345 N   0  0  0  0  0  0  0  0  0  0  0  0
   10.2952  -15.3433   24.0319 C   0  0  2  0  0  0  0  0  0  0  0  0
   10.1747  -15.6619   25.4661 C   0  0  0  0  0  0  0  0  0  0  0  0
    8.8545  -16.3036   25.7439 C   0  0  0  0  0  0  0  0  0  0  0  0
    7.7716  -15.3070   25.8226 C   0  0  0  0  0  0  0  0  0  0  0  0
    6.4598  -15.6186   25.4625 N   0  0  0  0  0  0  0  0  0  0  0  0
    5.6819  -14.5476   25.6835 C   0  0  0  0  0  0  0  0  0  0  0  0
    6.4629  -13.5726   26.1700 C   0  0  0  0  0  0  0  0  0  0  0  0
    6.2099  -12.2788   26.5575 C   0  0  0  0  0  0  0  0  0  0  0  0
    7.1840  -11.4267   27.0260 C   0  0  0  0  0  0  0  0  0  0  0  0
    8.4792  -11.8963   27.1098 C   0  0  0  0  0  0  0  0  0  0  0  0
    8.7704  -13.1843   26.7318 C   0  0  0  0  0  0  0  0  0  0  0  0
    7.7798  -14.0226   26.2666 C   0  0  0  0  0  0  0  0  0  0  0  0
   11.3084  -16.4492   25.9048 O   0  0  0  0  0  0  0  0  0  0  0  0
   12.2299  -16.8463   25.1083 O   0  0  0  0  0  0  0  0  0  0  0  0
  2  1  1  6
  2  3  1  0
  4  2  1  0
  4  5  1  6
  6  7  2  0
  6  4  1  0
  9 10  2  0
  9  8  1  0
 11  9  1  0
 12 11  1  0
 13 12  1  0
 13 14  1  0
 15 14  1  6
 15 16  1  0
 16  6  1  0
 17 19  1  0
 17 15  1  0
 18 17  2  0
 20 19  1  0
 20 21  1  1
 21 22  1  0
 22 30  1  0
 23 22  2  0
 23 24  1  0
 24 25  1  0
 25 26  1  0
 26 27  2  0
 28 27  1  0
 29 28  2  0
 30 25  2  0
 30 29  1  0
 31 20  1  0
 32 31  2  0
 33 31  1  0
M  END
$$$$
