VRW.pdb
     RDKit          3D

 33 34  0  0  1  0  0  0  0  0999 V2000
   10.9314  -20.5738   19.8477 C   0  0  0  0  0  0  0  0  0  0  0  0
   10.9442  -19.2998   20.6911 C   0  0  2  0  0  0  0  0  0  0  0  0
   10.6382  -19.5775   22.1281 C   0  0  0  0  0  0  0  0  0  0  0  0
   10.0263  -18.3236   20.0244 C   0  0  2  0  0  0  0  0  0  0  0  0
   10.3661  -18.3092   18.6106 N   0  0  0  0  0  0  0  0  0  0  0  0
   10.0406  -16.9688   20.6144 C   0  0  0  0  0  0  0  0  0  0  0  0
   11.0535  -16.2428   20.4550 O   0  0  0  0  0  0  0  0  0  0  0  0
    8.0761  -12.6174   16.2505 N   0  0  0  0  0  0  0  0  0  0  0  0
    8.0906  -14.0426   16.4114 C   0  0  0  0  0  0  0  0  0  0  0  0
    8.3728  -14.8201   15.4255 N   0  0  0  0  0  0  0  0  0  0  0  0
    7.7971  -14.6588   17.6670 N   0  0  0  0  0  0  0  0  0  0  0  0
    7.5762  -13.9297   18.8743 C   0  0  0  0  0  0  0  0  0  0  0  0
    7.2256  -14.8173   20.0662 C   0  0  0  0  0  0  0  0  0  0  0  0
    7.8835  -14.1997   21.2637 C   0  0  0  0  0  0  0  0  0  0  0  0
    8.9370  -15.0793   21.9017 C   0  0  2  0  0  0  0  0  0  0  0  0
    8.9687  -16.4211   21.3636 N   0  0  0  0  0  0  0  0  0  0  0  0
    8.6445  -15.1719   23.3435 C   0  0  0  0  0  0  0  0  0  0  0  0
    7.8175  -14.3918   23.8536 O   0  0  0  0  0  0  0  0  0  0  0  0
    8.4060  -15.8482   15.5938 N   0  0  0  0  0  0  0  0  0  0  0  0
    9.3065  -16.1443   24.1280 C   0  0  1  0  0  0  0  0  0  0  0  0
    9.9142  -15.8398   25.4360 C   0  0  0  0  0  0  0  0  0  0  0  0
    8.8993  -15.9817   26.5230 C   0  0  0  0  0  0  0  0  0  0  0  0
    7.7441  -15.0922   26.3076 C   0  0  0  0  0  0  0  0  0  0  0  0
    6.4877  -15.5917   25.9619 N   0  0  0  0  0  0  0  0  0  0  0  0
    5.6202  -14.5706   25.8831 C   0  0  0  0  0  0  0  0  0  0  0  0
    6.2914  -13.4455   26.1672 C   0  0  0  0  0  0  0  0  0  0  0  0
    5.9181  -12.1244   26.2253 C   0  0  0  0  0  0  0  0  0  0  0  0
    6.7916  -11.1056   26.5311 C   0  0  0  0  0  0  0  0  0  0  0  0
    8.1081  -11.4284   26.7915 C   0  0  0  0  0  0  0  0  0  0  0  0
    8.5183  -12.7383   26.7431 C   0  0  0  0  0  0  0  0  0  0  0  0
    7.6272  -13.7444   26.4366 C   0  0  0  0  0  0  0  0  0  0  0  0
   11.1017  -16.6436   25.6397 O   0  0  0  0  0  0  0  0  0  0  0  0
   11.8337  -16.5506   26.6870 O   0  0  0  0  0  0  0  0  0  0  0  0
  2  1  1  6
  2  3  1  0
  4  2  1  0
  4  5  1  6
  6  7  2  0
  6  4  1  0
  9 10  2  0
  9  8  1  0
 11  9  1  0
 12 11  1  0
 13 12  1  0
 13 14  1  0
 15 14  1  6
 15 16  1  0
 16  6  1  0
 17 19  1  0
 17 15  1  0
 18 17  2  0
 20 19  1  0
 20 21  1  6
 21 22  1  0
 22 30  1  0
 23 22  2  0
 23 24  1  0
 24 25  1  0
 25 26  1  0
 26 27  2  0
 28 27  1  0
 29 28  2  0
 30 25  2  0
 30 29  1  0
 31 20  1  0
 32 31  2  0
 33 31  1  0
M  END
$$$$
