VRW.pdb
     RDKit          3D

 33 34  0  0  1  0  0  0  0  0999 V2000
    8.1782  -11.8633   18.8443 C   0  0  0  0  0  0  0  0  0  0  0  0
    7.9603  -12.9333   19.9130 C   0  0  2  0  0  0  0  0  0  0  0  0
    8.7242  -12.6380   21.1640 C   0  0  0  0  0  0  0  0  0  0  0  0
    8.2669  -14.2542   19.2795 C   0  0  2  0  0  0  0  0  0  0  0  0
    7.3956  -14.3901   18.1232 N   0  0  0  0  0  0  0  0  0  0  0  0
    8.1631  -15.4104   20.1940 C   0  0  0  0  0  0  0  0  0  0  0  0
    7.0275  -15.8707   20.4716 O   0  0  0  0  0  0  0  0  0  0  0  0
    8.4567  -22.9235   20.8820 N   0  0  0  0  0  0  0  0  0  0  0  0
    9.3144  -22.9270   22.0316 C   0  0  0  0  0  0  0  0  0  0  0  0
    9.1620  -23.7918   22.9722 N   0  0  0  0  0  0  0  0  0  0  0  0
   10.3721  -21.9775   22.1813 N   0  0  0  0  0  0  0  0  0  0  0  0
   10.4509  -20.7575   21.4443 C   0  0  0  0  0  0  0  0  0  0  0  0
    9.7680  -19.5815   22.1385 C   0  0  0  0  0  0  0  0  0  0  0  0
    9.8555  -18.4210   21.1931 C   0  0  0  0  0  0  0  0  0  0  0  0
    9.1999  -17.1601   21.7136 C   0  0  2  0  0  0  0  0  0  0  0  0
    9.2791  -16.0484   20.7921 N   0  0  0  0  0  0  0  0  0  0  0  0
    9.8829  -16.7698   22.9602 C   0  0  0  0  0  0  0  0  0  0  0  0
   10.8341  -15.9663   22.9136 O   0  0  0  0  0  0  0  0  0  0  0  0
    9.7736  -23.7276   23.8138 N   0  0  0  0  0  0  0  0  0  0  0  0
    9.4497  -17.3129   24.1918 C   0  0  2  0  0  0  0  0  0  0  0  0
   10.0298  -16.9198   25.4886 C   0  0  0  0  0  0  0  0  0  0  0  0
    9.8955  -15.4454   25.6892 C   0  0  0  0  0  0  0  0  0  0  0  0
    8.4823  -15.0289   25.7289 C   0  0  0  0  0  0  0  0  0  0  0  0
    7.4418  -15.9497   25.5981 N   0  0  0  0  0  0  0  0  0  0  0  0
    6.2716  -15.3048   25.7250 C   0  0  0  0  0  0  0  0  0  0  0  0
    6.5434  -14.0083   25.9304 C   0  0  0  0  0  0  0  0  0  0  0  0
    5.7460  -12.9044   26.1143 C   0  0  0  0  0  0  0  0  0  0  0  0
    6.2449  -11.6350   26.2992 C   0  0  0  0  0  0  0  0  0  0  0  0
    7.6144  -11.4635   26.2990 C   0  0  0  0  0  0  0  0  0  0  0  0
    8.4435  -12.5436   26.1184 C   0  0  0  0  0  0  0  0  0  0  0  0
    7.9239  -13.8074   25.9366 C   0  0  0  0  0  0  0  0  0  0  0  0
    9.4534  -17.7076   26.5585 O   0  0  0  0  0  0  0  0  0  0  0  0
    9.7723  -17.5491   27.7891 O   0  0  0  0  0  0  0  0  0  0  0  0
  2  1  1  6
  2  3  1  0
  4  2  1  0
  4  5  1  6
  6  7  2  0
  6  4  1  0
  9 10  2  0
  9  8  1  0
 11  9  1  0
 12 11  1  0
 13 12  1  0
 13 14  1  0
 15 14  1  6
 15 16  1  0
 16  6  1  0
 17 19  1  0
 17 15  1  0
 18 17  2  0
 20 19  1  0
 20 21  1  6
 21 22  1  0
 22 30  1  0
 23 22  2  0
 23 24  1  0
 24 25  1  0
 25 26  1  0
 26 27  2  0
 28 27  1  0
 29 28  2  0
 30 25  2  0
 30 29  1  0
 31 20  1  0
 32 31  2  0
 33 31  1  0
M  END
$$$$
