VRW.pdb
     RDKit          3D

 33 34  0  0  1  0  0  0  0  0999 V2000
    7.1467  -12.2950   18.9404 C   0  0  0  0  0  0  0  0  0  0  0  0
    7.2628  -13.3167   20.0706 C   0  0  2  0  0  0  0  0  0  0  0  0
    7.9811  -12.7586   21.2573 C   0  0  0  0  0  0  0  0  0  0  0  0
    7.8713  -14.5519   19.4840 C   0  0  2  0  0  0  0  0  0  0  0  0
    7.0182  -14.9717   18.3838 N   0  0  0  0  0  0  0  0  0  0  0  0
    8.1032  -15.6408   20.4558 C   0  0  0  0  0  0  0  0  0  0  0  0
    7.1172  -16.2635   20.9234 O   0  0  0  0  0  0  0  0  0  0  0  0
   14.1571  -19.9249   24.2145 N   0  0  0  0  0  0  0  0  0  0  0  0
   13.5263  -21.0951   23.6760 C   0  0  0  0  0  0  0  0  0  0  0  0
   13.7144  -22.2540   24.2030 N   0  0  0  0  0  0  0  0  0  0  0  0
   12.6635  -21.0262   22.5387 N   0  0  0  0  0  0  0  0  0  0  0  0
   12.3591  -19.8144   21.8483 C   0  0  0  0  0  0  0  0  0  0  0  0
   11.0784  -19.1409   22.3358 C   0  0  0  0  0  0  0  0  0  0  0  0
   10.8557  -17.9560   21.4445 C   0  0  0  0  0  0  0  0  0  0  0  0
    9.6415  -17.1328   21.8169 C   0  0  2  0  0  0  0  0  0  0  0  0
    9.3873  -16.0386   20.9063 N   0  0  0  0  0  0  0  0  0  0  0  0
    9.8658  -16.5673   23.1595 C   0  0  0  0  0  0  0  0  0  0  0  0
   10.6001  -15.5691   23.2906 O   0  0  0  0  0  0  0  0  0  0  0  0
   13.2167  -23.0745   23.7962 N   0  0  0  0  0  0  0  0  0  0  0  0
    9.2452  -17.1654   24.2804 C   0  0  2  0  0  0  0  0  0  0  0  0
    9.5674  -16.7905   25.6691 C   0  0  0  0  0  0  0  0  0  0  0  0
    8.3179  -16.6987   26.4829 C   0  0  0  0  0  0  0  0  0  0  0  0
    7.5314  -15.5010   26.1377 C   0  0  0  0  0  0  0  0  0  0  0  0
    6.3112  -15.5926   25.4665 N   0  0  0  0  0  0  0  0  0  0  0  0
    5.7946  -14.3611   25.3329 C   0  0  0  0  0  0  0  0  0  0  0  0
    6.6515  -13.4985   25.8977 C   0  0  0  0  0  0  0  0  0  0  0  0
    6.6422  -12.1321   26.0423 C   0  0  0  0  0  0  0  0  0  0  0  0
    7.6539  -11.4311   26.6584 C   0  0  0  0  0  0  0  0  0  0  0  0
    8.7311  -12.1370   27.1547 C   0  0  0  0  0  0  0  0  0  0  0  0
    8.7754  -13.5041   27.0290 C   0  0  0  0  0  0  0  0  0  0  0  0
    7.7509  -14.1877   26.4100 C   0  0  0  0  0  0  0  0  0  0  0  0
   10.5552  -17.6954   26.2196 O   0  0  0  0  0  0  0  0  0  0  0  0
   10.9445  -18.7539   25.6119 O   0  0  0  0  0  0  0  0  0  0  0  0
  2  1  1  6
  2  3  1  0
  4  2  1  0
  4  5  1  6
  6  7  2  0
  6  4  1  0
  9 10  2  0
  9  8  1  0
 11  9  1  0
 12 11  1  0
 13 12  1  0
 13 14  1  0
 15 14  1  6
 15 16  1  0
 16  6  1  0
 17 19  1  0
 17 15  1  0
 18 17  2  0
 20 19  1  0
 20 21  1  1
 21 22  1  0
 22 30  1  0
 23 22  2  0
 23 24  1  0
 24 25  1  0
 25 26  1  0
 26 27  2  0
 28 27  1  0
 29 28  2  0
 30 25  2  0
 30 29  1  0
 31 20  1  0
 32 31  2  0
 33 31  1  0
M  END
$$$$
