VRW.pdb
     RDKit          3D

 33 34  0  0  1  0  0  0  0  0999 V2000
    7.9874  -12.0974   18.7628 C   0  0  0  0  0  0  0  0  0  0  0  0
    7.8663  -13.0743   19.9314 C   0  0  2  0  0  0  0  0  0  0  0  0
    8.5723  -12.5765   21.1519 C   0  0  0  0  0  0  0  0  0  0  0  0
    8.3234  -14.4103   19.4350 C   0  0  2  0  0  0  0  0  0  0  0  0
    7.5099  -14.7405   18.2758 N   0  0  0  0  0  0  0  0  0  0  0  0
    8.3029  -15.4813   20.4531 C   0  0  0  0  0  0  0  0  0  0  0  0
    7.2161  -16.0536   20.7170 O   0  0  0  0  0  0  0  0  0  0  0  0
   10.7971  -23.3725   22.6821 N   0  0  0  0  0  0  0  0  0  0  0  0
   11.8936  -22.5704   23.1419 C   0  0  0  0  0  0  0  0  0  0  0  0
   12.9428  -23.1102   23.6556 N   0  0  0  0  0  0  0  0  0  0  0  0
   11.8713  -21.1444   23.0479 N   0  0  0  0  0  0  0  0  0  0  0  0
   11.1250  -20.4275   22.0645 C   0  0  0  0  0  0  0  0  0  0  0  0
   10.2326  -19.3372   22.6527 C   0  0  0  0  0  0  0  0  0  0  0  0
   10.2734  -18.1891   21.6892 C   0  0  0  0  0  0  0  0  0  0  0  0
    9.4612  -16.9917   22.1331 C   0  0  2  0  0  0  0  0  0  0  0  0
    9.4482  -15.9156   21.1672 N   0  0  0  0  0  0  0  0  0  0  0  0
   10.0496  -16.4769   23.3827 C   0  0  0  0  0  0  0  0  0  0  0  0
   11.0306  -15.7104   23.3294 O   0  0  0  0  0  0  0  0  0  0  0  0
   13.7108  -22.4900   23.9904 N   0  0  0  0  0  0  0  0  0  0  0  0
    9.4933  -16.8602   24.6248 C   0  0  2  0  0  0  0  0  0  0  0  0
    9.9719  -16.3303   25.9144 C   0  0  0  0  0  0  0  0  0  0  0  0
    8.8348  -16.2031   26.8749 C   0  0  0  0  0  0  0  0  0  0  0  0
    7.7756  -15.3231   26.3497 C   0  0  0  0  0  0  0  0  0  0  0  0
    6.5898  -15.8361   25.8221 N   0  0  0  0  0  0  0  0  0  0  0  0
    5.7919  -14.8153   25.4720 C   0  0  0  0  0  0  0  0  0  0  0  0
    6.4386  -13.6774   25.7618 C   0  0  0  0  0  0  0  0  0  0  0  0
    6.1107  -12.3517   25.6094 C   0  0  0  0  0  0  0  0  0  0  0  0
    6.9477  -11.3205   25.9704 C   0  0  0  0  0  0  0  0  0  0  0  0
    8.1778  -11.6350   26.5118 C   0  0  0  0  0  0  0  0  0  0  0  0
    8.5405  -12.9491   26.6796 C   0  0  0  0  0  0  0  0  0  0  0  0
    7.6868  -13.9674   26.3132 C   0  0  0  0  0  0  0  0  0  0  0  0
   11.0686  -17.1336   26.4139 O   0  0  0  0  0  0  0  0  0  0  0  0
   11.6929  -16.8613   27.4989 O   0  0  0  0  0  0  0  0  0  0  0  0
  2  1  1  6
  2  3  1  0
  4  2  1  0
  4  5  1  6
  6  7  2  0
  6  4  1  0
  9 10  2  0
  9  8  1  0
 11  9  1  0
 12 11  1  0
 13 12  1  0
 13 14  1  0
 15 14  1  6
 15 16  1  0
 16  6  1  0
 17 19  1  0
 17 15  1  0
 18 17  2  0
 20 19  1  0
 20 21  1  1
 21 22  1  0
 22 30  1  0
 23 22  2  0
 23 24  1  0
 24 25  1  0
 25 26  1  0
 26 27  2  0
 28 27  1  0
 29 28  2  0
 30 25  2  0
 30 29  1  0
 31 20  1  0
 32 31  2  0
 33 31  1  0
M  END
$$$$
