VRW.pdb
     RDKit          3D

 33 34  0  0  1  0  0  0  0  0999 V2000
    6.8113  -21.7985   25.9137 C   0  0  0  0  0  0  0  0  0  0  0  0
    7.6568  -20.7403   25.2066 C   0  0  2  0  0  0  0  0  0  0  0  0
    7.9591  -19.5787   26.0982 C   0  0  0  0  0  0  0  0  0  0  0  0
    6.9514  -20.3951   23.9325 C   0  0  2  0  0  0  0  0  0  0  0  0
    6.7163  -21.6403   23.2193 N   0  0  0  0  0  0  0  0  0  0  0  0
    7.6513  -19.3978   23.0962 C   0  0  0  0  0  0  0  0  0  0  0  0
    8.6681  -19.7493   22.4472 O   0  0  0  0  0  0  0  0  0  0  0  0
    8.2013  -14.4934   17.7602 N   0  0  0  0  0  0  0  0  0  0  0  0
    8.0116  -13.1796   18.3034 C   0  0  0  0  0  0  0  0  0  0  0  0
    8.5722  -12.1519   17.7691 N   0  0  0  0  0  0  0  0  0  0  0  0
    7.1940  -12.9543   19.4538 N   0  0  0  0  0  0  0  0  0  0  0  0
    6.6729  -14.0015   20.2721 C   0  0  0  0  0  0  0  0  0  0  0  0
    7.7438  -14.9567   20.7939 C   0  0  0  0  0  0  0  0  0  0  0  0
    7.0291  -15.9903   21.6118 C   0  0  0  0  0  0  0  0  0  0  0  0
    7.9453  -17.0392   22.2043 C   0  0  2  0  0  0  0  0  0  0  0  0
    7.2466  -18.0445   22.9738 N   0  0  0  0  0  0  0  0  0  0  0  0
    8.9000  -16.3605   23.0991 C   0  0  0  0  0  0  0  0  0  0  0  0
    9.7290  -15.5624   22.6210 O   0  0  0  0  0  0  0  0  0  0  0  0
    8.4335  -11.2194   18.2138 N   0  0  0  0  0  0  0  0  0  0  0  0
    8.8626  -16.6246   24.4877 C   0  0  1  0  0  0  0  0  0  0  0  0
    9.8382  -16.0592   25.4370 C   0  0  0  0  0  0  0  0  0  0  0  0
    9.1669  -15.7213   26.7281 C   0  0  0  0  0  0  0  0  0  0  0  0
    7.9503  -14.9174   26.5140 C   0  0  0  0  0  0  0  0  0  0  0  0
    6.6870  -15.5051   26.4347 N   0  0  0  0  0  0  0  0  0  0  0  0
    5.7661  -14.5393   26.2917 C   0  0  0  0  0  0  0  0  0  0  0  0
    6.4103  -13.3637   26.2775 C   0  0  0  0  0  0  0  0  0  0  0  0
    5.9812  -12.0647   26.1481 C   0  0  0  0  0  0  0  0  0  0  0  0
    6.8339  -10.9844   26.1470 C   0  0  0  0  0  0  0  0  0  0  0  0
    8.1874  -11.2187   26.2820 C   0  0  0  0  0  0  0  0  0  0  0  0
    8.6538  -12.5039   26.4140 C   0  0  0  0  0  0  0  0  0  0  0  0
    7.7828  -13.5724   26.4145 C   0  0  0  0  0  0  0  0  0  0  0  0
   10.9712  -16.9491   25.5857 O   0  0  0  0  0  0  0  0  0  0  0  0
   11.0351  -18.0954   25.0173 O   0  0  0  0  0  0  0  0  0  0  0  0
  2  1  1  1
  2  3  1  0
  4  2  1  0
  4  5  1  6
  6  7  2  0
  6  4  1  0
  9 10  2  0
  9  8  1  0
 11  9  1  0
 12 11  1  0
 13 12  1  0
 13 14  1  0
 15 14  1  1
 15 16  1  0
 16  6  1  0
 17 19  1  0
 17 15  1  0
 18 17  2  0
 20 19  1  0
 20 21  1  1
 21 22  1  0
 22 30  1  0
 23 22  2  0
 23 24  1  0
 24 25  1  0
 25 26  1  0
 26 27  2  0
 28 27  1  0
 29 28  2  0
 30 25  2  0
 30 29  1  0
 31 20  1  0
 32 31  2  0
 33 31  1  0
M  END
$$$$
