VRW.pdb
     RDKit          3D

 33 34  0  0  1  0  0  0  0  0999 V2000
    6.4378  -19.3086   25.7882 C   0  0  0  0  0  0  0  0  0  0  0  0
    6.5417  -20.6086   24.9921 C   0  0  2  0  0  0  0  0  0  0  0  0
    7.8579  -21.2873   25.1988 C   0  0  0  0  0  0  0  0  0  0  0  0
    6.2148  -20.2785   23.5693 C   0  0  2  0  0  0  0  0  0  0  0  0
    6.1271  -21.5361   22.8445 N   0  0  0  0  0  0  0  0  0  0  0  0
    7.1519  -19.3315   22.9299 C   0  0  0  0  0  0  0  0  0  0  0  0
    8.2866  -19.7387   22.5759 O   0  0  0  0  0  0  0  0  0  0  0  0
    8.6359  -12.5502   16.2055 N   0  0  0  0  0  0  0  0  0  0  0  0
    7.7383  -13.2110   17.1082 C   0  0  0  0  0  0  0  0  0  0  0  0
    6.4643  -13.1623   16.9335 N   0  0  0  0  0  0  0  0  0  0  0  0
    8.2162  -13.9508   18.2338 N   0  0  0  0  0  0  0  0  0  0  0  0
    7.3651  -14.6596   19.1344 C   0  0  0  0  0  0  0  0  0  0  0  0
    8.1001  -15.2300   20.3452 C   0  0  0  0  0  0  0  0  0  0  0  0
    7.1315  -16.1390   21.0406 C   0  0  0  0  0  0  0  0  0  0  0  0
    7.7684  -17.0129   22.0995 C   0  0  2  0  0  0  0  0  0  0  0  0
    6.8529  -17.9675   22.6842 N   0  0  0  0  0  0  0  0  0  0  0  0
    8.2661  -16.1383   23.1766 C   0  0  0  0  0  0  0  0  0  0  0  0
    7.4752  -15.3730   23.7610 O   0  0  0  0  0  0  0  0  0  0  0  0
    5.8532  -13.7412   17.5482 N   0  0  0  0  0  0  0  0  0  0  0  0
    9.6341  -16.1793   23.5317 C   0  0  1  0  0  0  0  0  0  0  0  0
   10.1790  -15.4699   24.7033 C   0  0  0  0  0  0  0  0  0  0  0  0
    9.3315  -15.7307   25.9056 C   0  0  0  0  0  0  0  0  0  0  0  0
    8.1256  -14.8832   25.9146 C   0  0  0  0  0  0  0  0  0  0  0  0
    6.8435  -15.4305   25.8510 N   0  0  0  0  0  0  0  0  0  0  0  0
    5.9427  -14.4388   25.9305 C   0  0  0  0  0  0  0  0  0  0  0  0
    6.6177  -13.2858   26.0410 C   0  0  0  0  0  0  0  0  0  0  0  0
    6.2176  -11.9752   26.1440 C   0  0  0  0  0  0  0  0  0  0  0  0
    7.0987  -10.9219   26.2360 C   0  0  0  0  0  0  0  0  0  0  0  0
    8.4512  -11.1969   26.2236 C   0  0  0  0  0  0  0  0  0  0  0  0
    8.8889  -12.4949   26.1222 C   0  0  0  0  0  0  0  0  0  0  0  0
    7.9901  -13.5361   26.0328 C   0  0  0  0  0  0  0  0  0  0  0  0
   11.5753  -15.8054   24.8916 O   0  0  0  0  0  0  0  0  0  0  0  0
   12.2879  -15.3138   25.8359 O   0  0  0  0  0  0  0  0  0  0  0  0
  2  1  1  1
  2  3  1  0
  4  2  1  0
  4  5  1  6
  6  7  2  0
  6  4  1  0
  9 10  2  0
  9  8  1  0
 11  9  1  0
 12 11  1  0
 13 12  1  0
 13 14  1  0
 15 14  1  6
 15 16  1  0
 16  6  1  0
 17 19  1  0
 17 15  1  0
 18 17  2  0
 20 19  1  0
 20 21  1  6
 21 22  1  0
 22 30  1  0
 23 22  2  0
 23 24  1  0
 24 25  1  0
 25 26  1  0
 26 27  2  0
 28 27  1  0
 29 28  2  0
 30 25  2  0
 30 29  1  0
 31 20  1  0
 32 31  2  0
 33 31  1  0
M  END
$$$$
