VRW.pdb
     RDKit          3D

 33 34  0  0  1  0  0  0  0  0999 V2000
   14.6379  -20.3906   20.4593 C   0  0  0  0  0  0  0  0  0  0  0  0
   13.7337  -19.5032   21.3134 C   0  0  2  0  0  0  0  0  0  0  0  0
   13.1183  -20.2589   22.4473 C   0  0  0  0  0  0  0  0  0  0  0  0
   12.7595  -18.8479   20.3851 C   0  0  2  0  0  0  0  0  0  0  0  0
   13.5293  -18.2413   19.3108 N   0  0  0  0  0  0  0  0  0  0  0  0
   11.8513  -17.8799   21.0348 C   0  0  0  0  0  0  0  0  0  0  0  0
   12.3375  -16.9765   21.7599 O   0  0  0  0  0  0  0  0  0  0  0  0
    7.2570  -12.7898   20.0915 N   0  0  0  0  0  0  0  0  0  0  0  0
    7.9484  -13.3910   18.9880 C   0  0  0  0  0  0  0  0  0  0  0  0
    8.6311  -12.6775   18.1627 N   0  0  0  0  0  0  0  0  0  0  0  0
    7.9126  -14.8013   18.7587 N   0  0  0  0  0  0  0  0  0  0  0  0
    7.0776  -15.7008   19.4877 C   0  0  0  0  0  0  0  0  0  0  0  0
    7.4456  -15.8111   20.9655 C   0  0  0  0  0  0  0  0  0  0  0  0
    8.0962  -17.1503   21.1424 C   0  0  0  0  0  0  0  0  0  0  0  0
    9.5222  -17.0737   21.6437 C   0  0  2  0  0  0  0  0  0  0  0  0
   10.4407  -17.9014   20.8937 N   0  0  0  0  0  0  0  0  0  0  0  0
    9.5396  -17.5269   23.0462 C   0  0  0  0  0  0  0  0  0  0  0  0
   10.6200  -17.8584   23.5711 O   0  0  0  0  0  0  0  0  0  0  0  0
    9.1398  -13.1572   17.3897 N   0  0  0  0  0  0  0  0  0  0  0  0
    8.3301  -17.5797   23.7768 C   0  0  1  0  0  0  0  0  0  0  0  0
    8.0902  -16.7741   24.9877 C   0  0  0  0  0  0  0  0  0  0  0  0
    8.4648  -15.3488   24.7428 C   0  0  0  0  0  0  0  0  0  0  0  0
    8.3269  -14.5333   25.9628 C   0  0  0  0  0  0  0  0  0  0  0  0
    9.0315  -14.8333   27.1295 N   0  0  0  0  0  0  0  0  0  0  0  0
    8.7567  -13.9014   28.0554 C   0  0  0  0  0  0  0  0  0  0  0  0
    7.9013  -13.0261   27.5083 C   0  0  0  0  0  0  0  0  0  0  0  0
    7.2849  -11.8965   27.9902 C   0  0  0  0  0  0  0  0  0  0  0  0
    6.4128  -11.1360   27.2449 C   0  0  0  0  0  0  0  0  0  0  0  0
    6.1444  -11.5289   25.9493 C   0  0  0  0  0  0  0  0  0  0  0  0
    6.7421  -12.6525   25.4328 C   0  0  0  0  0  0  0  0  0  0  0  0
    7.6142  -13.3998   26.1952 C   0  0  0  0  0  0  0  0  0  0  0  0
    6.7274  -16.9471   25.4466 O   0  0  0  0  0  0  0  0  0  0  0  0
    5.7100  -16.7710   24.6883 O   0  0  0  0  0  0  0  0  0  0  0  0
  2  1  1  6
  2  3  1  0
  4  2  1  0
  4  5  1  6
  6  7  2  0
  6  4  1  0
  9 10  2  0
  9  8  1  0
 11  9  1  0
 12 11  1  0
 13 12  1  0
 13 14  1  0
 15 14  1  6
 15 16  1  0
 16  6  1  0
 17 19  1  0
 17 15  1  0
 18 17  2  0
 20 19  1  0
 20 21  1  1
 21 22  1  0
 22 30  1  0
 23 22  2  0
 23 24  1  0
 24 25  1  0
 25 26  1  0
 26 27  2  0
 28 27  1  0
 29 28  2  0
 30 25  2  0
 30 29  1  0
 31 20  1  0
 32 31  2  0
 33 31  1  0
M  END
$$$$
