VRW.pdb
     RDKit          3D

 33 34  0  0  1  0  0  0  0  0999 V2000
    7.7918  -12.2931   18.9511 C   0  0  0  0  0  0  0  0  0  0  0  0
    7.8054  -13.2669   20.1284 C   0  0  2  0  0  0  0  0  0  0  0  0
    8.3604  -12.6394   21.3669 C   0  0  0  0  0  0  0  0  0  0  0  0
    8.5176  -14.5004   19.6687 C   0  0  2  0  0  0  0  0  0  0  0  0
    7.8852  -14.9268   18.4306 N   0  0  0  0  0  0  0  0  0  0  0  0
    8.5698  -15.5861   20.6699 C   0  0  0  0  0  0  0  0  0  0  0  0
    7.5460  -16.2875   20.8656 O   0  0  0  0  0  0  0  0  0  0  0  0
   13.1172  -17.7589   17.9496 N   0  0  0  0  0  0  0  0  0  0  0  0
   12.6741  -19.1187   18.0593 C   0  0  0  0  0  0  0  0  0  0  0  0
   12.5432  -19.8615   17.0167 N   0  0  0  0  0  0  0  0  0  0  0  0
   12.3627  -19.7065   19.3243 N   0  0  0  0  0  0  0  0  0  0  0  0
   12.4304  -19.0007   20.5633 C   0  0  0  0  0  0  0  0  0  0  0  0
   11.3753  -17.9053   20.6985 C   0  0  0  0  0  0  0  0  0  0  0  0
   10.8341  -18.0065   22.0931 C   0  0  0  0  0  0  0  0  0  0  0  0
    9.7946  -16.9566   22.4212 C   0  0  2  0  0  0  0  0  0  0  0  0
    9.7186  -15.8964   21.4407 N   0  0  0  0  0  0  0  0  0  0  0  0
   10.1464  -16.3539   23.7195 C   0  0  0  0  0  0  0  0  0  0  0  0
   10.9545  -15.4061   23.7578 O   0  0  0  0  0  0  0  0  0  0  0  0
   12.1994  -20.8379   17.1389 N   0  0  0  0  0  0  0  0  0  0  0  0
    9.5625  -16.8596   24.9039 C   0  0  1  0  0  0  0  0  0  0  0  0
    9.9184  -16.3656   26.2463 C   0  0  0  0  0  0  0  0  0  0  0  0
    8.7210  -16.3878   27.1394 C   0  0  0  0  0  0  0  0  0  0  0  0
    7.6128  -15.5914   26.5826 C   0  0  0  0  0  0  0  0  0  0  0  0
    6.5378  -16.1897   25.9239 N   0  0  0  0  0  0  0  0  0  0  0  0
    5.6588  -15.2383   25.5726 C   0  0  0  0  0  0  0  0  0  0  0  0
    6.1475  -14.0613   25.9885 C   0  0  0  0  0  0  0  0  0  0  0  0
    5.6840  -12.7712   25.8933 C   0  0  0  0  0  0  0  0  0  0  0  0
    6.3678  -11.6847   26.3896 C   0  0  0  0  0  0  0  0  0  0  0  0
    7.5797  -11.9031   27.0131 C   0  0  0  0  0  0  0  0  0  0  0  0
    8.0751  -13.1791   27.1273 C   0  0  0  0  0  0  0  0  0  0  0  0
    7.3738  -14.2543   26.6250 C   0  0  0  0  0  0  0  0  0  0  0  0
   11.0496  -17.1020   26.7712 O   0  0  0  0  0  0  0  0  0  0  0  0
   11.6283  -16.7967   27.8726 O   0  0  0  0  0  0  0  0  0  0  0  0
  2  1  1  6
  2  3  1  0
  4  2  1  0
  4  5  1  6
  6  7  2  0
  6  4  1  0
  9 10  2  0
  9  8  1  0
 11  9  1  0
 12 11  1  0
 13 12  1  0
 13 14  1  0
 15 14  1  6
 15 16  1  0
 16  6  1  0
 17 19  1  0
 17 15  1  0
 18 17  2  0
 20 19  1  0
 20 21  1  6
 21 22  1  0
 22 30  1  0
 23 22  2  0
 23 24  1  0
 24 25  1  0
 25 26  1  0
 26 27  2  0
 28 27  1  0
 29 28  2  0
 30 25  2  0
 30 29  1  0
 31 20  1  0
 32 31  2  0
 33 31  1  0
M  END
$$$$
