RHA.pdb
     RDKit          3D

 27 27  0  0  1  0  0  0  0  0999 V2000
   14.6837  -15.7109  -14.5601 N   0  0  0  0  0  0  0  0  0  0  0  0
   14.0879  -14.4352  -14.2438 C   0  0  0  0  0  0  0  0  0  0  0  0
   12.9572  -14.4151  -13.6403 N   0  0  0  0  0  0  0  0  0  0  0  0
   14.7249  -13.2280  -14.5841 N   0  0  0  0  0  0  0  0  0  0  0  0
   15.6718  -13.1773  -15.7153 C   0  0  0  0  0  0  0  0  0  0  0  0
   17.0650  -13.3677  -15.2406 C   0  0  0  0  0  0  0  0  0  0  0  0
   17.9903  -12.2038  -15.3581 C   0  0  0  0  0  0  0  0  0  0  0  0
   18.2253  -11.7904  -16.7624 C   0  0  2  0  0  0  0  0  0  0  0  0
   18.7910  -12.8528  -17.5414 N   0  0  0  0  0  0  0  0  0  0  0  0
   19.0324  -10.5394  -16.8650 C   0  0  0  0  0  0  0  0  0  0  0  0
   20.2613  -10.6302  -17.0920 O   0  0  0  0  0  0  0  0  0  0  0  0
   12.4901  -13.5216  -13.4267 N   0  0  0  0  0  0  0  0  0  0  0  0
   18.4732   -9.2462  -16.7171 C   0  0  2  0  0  0  0  0  0  0  0  0
   19.2805   -8.0677  -16.7416 C   0  0  0  0  0  0  0  0  0  0  0  0
   18.5139   -6.8740  -17.3327 C   0  0  0  0  0  0  0  0  0  0  0  0
   18.2902   -7.0301  -18.7662 C   0  0  0  0  0  0  0  0  0  0  0  0
   19.2769   -7.1675  -19.7161 N   0  0  0  0  0  0  0  0  0  0  0  0
   18.6542   -7.2851  -20.9093 C   0  0  0  0  0  0  0  0  0  0  0  0
   17.3371   -7.2227  -20.7031 N   0  0  0  0  0  0  0  0  0  0  0  0
   17.0934   -7.0644  -19.3776 C   0  0  0  0  0  0  0  0  0  0  0  0
   19.8069   -7.7064  -15.3965 O   0  0  0  0  0  0  0  0  0  0  0  0
   19.0161   -7.4139  -14.4489 C   0  0  0  0  0  0  0  0  0  0  0  0
   23.0621   -7.9954  -13.5505 C   0  0  2  0  0  0  0  0  0  0  0  0
   21.7199   -7.3410  -13.7948 N   0  0  0  0  0  0  0  0  0  0  0  0
   21.1873   -7.6661  -15.0959 C   0  0  0  0  0  0  0  0  0  0  0  0
   21.7981   -5.8706  -13.5799 O   0  0  0  0  0  0  0  0  0  0  0  0
   21.7437   -5.1329  -14.6026 O   0  0  0  0  0  0  0  0  0  0  0  0
  2  4  1  0
  2  1  1  0
  3  2  2  0
  5  4  1  0
  5  6  1  0
  7  6  1  0
  7  8  1  0
  8  9  1  6
 10  8  1  0
 10 12  1  0
 11 10  2  0
 13 12  1  0
 13 14  1  6
 15 14  1  0
 15 16  2  0
 17 16  1  0
 18 17  1  0
 19 18  2  0
 19 15  1  0
 20 13  1  0
 21 20  2  0
 23 22  1  1
 23 24  1  0
 23 25  1  0
 24 20  1  0
 25 27  1  0
 26 25  2  0
M  END
$$$$
