RHA.pdb
     RDKit          3D

 27 27  0  0  1  0  0  0  0  0999 V2000
   11.5209  -23.7414    1.2837 N   0  0  0  0  0  0  0  0  0  0  0  0
   12.6814  -24.4696    0.8306 C   0  0  0  0  0  0  0  0  0  0  0  0
   12.6094  -25.1217   -0.2706 N   0  0  0  0  0  0  0  0  0  0  0  0
   13.8767  -24.4720    1.5724 N   0  0  0  0  0  0  0  0  0  0  0  0
   14.0367  -23.5729    2.7321 C   0  0  0  0  0  0  0  0  0  0  0  0
   14.5563  -22.2511    2.3016 C   0  0  0  0  0  0  0  0  0  0  0  0
   14.8495  -21.2528    3.3704 C   0  0  0  0  0  0  0  0  0  0  0  0
   15.3543  -19.9649    2.8369 C   0  0  2  0  0  0  0  0  0  0  0  0
   15.4838  -19.9953    1.4094 N   0  0  0  0  0  0  0  0  0  0  0  0
   16.6185  -19.5261    3.4975 C   0  0  0  0  0  0  0  0  0  0  0  0
   17.7060  -20.0034    3.0981 O   0  0  0  0  0  0  0  0  0  0  0  0
   13.4359  -25.6063   -0.6506 N   0  0  0  0  0  0  0  0  0  0  0  0
   16.6488  -18.5906    4.5608 C   0  0  1  0  0  0  0  0  0  0  0  0
   17.8778  -18.0950    5.0950 C   0  0  0  0  0  0  0  0  0  0  0  0
   17.7523  -16.6237    5.5209 C   0  0  0  0  0  0  0  0  0  0  0  0
   17.9488  -15.7154    4.3959 C   0  0  0  0  0  0  0  0  0  0  0  0
   18.2295  -16.0970    3.1035 N   0  0  0  0  0  0  0  0  0  0  0  0
   18.3344  -14.9627    2.3771 C   0  0  0  0  0  0  0  0  0  0  0  0
   18.1267  -13.9240    3.1890 N   0  0  0  0  0  0  0  0  0  0  0  0
   17.8858  -14.3734    4.4465 C   0  0  0  0  0  0  0  0  0  0  0  0
   18.3721  -18.9062    6.2415 O   0  0  0  0  0  0  0  0  0  0  0  0
   17.5665  -19.3529    7.1135 C   0  0  0  0  0  0  0  0  0  0  0  0
   21.6184  -20.5635    7.2490 C   0  0  2  0  0  0  0  0  0  0  0  0
   20.2386  -20.0094    7.5290 N   0  0  0  0  0  0  0  0  0  0  0  0
   19.7368  -19.2227    6.4283 C   0  0  0  0  0  0  0  0  0  0  0  0
   20.2206  -19.2483    8.8075 O   0  0  0  0  0  0  0  0  0  0  0  0
   20.5289  -19.8758    9.8585 O   0  0  0  0  0  0  0  0  0  0  0  0
  2  4  1  0
  2  1  1  0
  3  2  2  0
  5  4  1  0
  5  6  1  0
  7  6  1  0
  7  8  1  0
  8  9  1  6
 10  8  1  0
 10 12  1  0
 11 10  2  0
 13 12  1  0
 13 14  1  6
 15 14  1  0
 15 16  2  0
 17 16  1  0
 18 17  1  0
 19 18  2  0
 19 15  1  0
 20 13  1  0
 21 20  2  0
 23 22  1  6
 23 24  1  0
 23 25  1  0
 24 20  1  0
 25 27  1  0
 26 25  2  0
M  END
$$$$
