RHA.pdb
     RDKit          3D

 27 27  0  0  1  0  0  0  0  0999 V2000
   22.0141  -21.5165   -8.2716 N   0  0  0  0  0  0  0  0  0  0  0  0
   23.3540  -21.7107   -7.7724 C   0  0  0  0  0  0  0  0  0  0  0  0
   23.5109  -22.2520   -6.6211 N   0  0  0  0  0  0  0  0  0  0  0  0
   24.4766  -21.3194   -8.5244 N   0  0  0  0  0  0  0  0  0  0  0  0
   24.3174  -20.4432   -9.7015 C   0  0  0  0  0  0  0  0  0  0  0  0
   24.8826  -21.0870  -10.9134 C   0  0  0  0  0  0  0  0  0  0  0  0
   24.8947  -20.2831  -12.1697 C   0  0  0  0  0  0  0  0  0  0  0  0
   25.4868  -21.0114  -13.3174 C   0  0  2  0  0  0  0  0  0  0  0  0
   26.7661  -21.5696  -12.9896 N   0  0  0  0  0  0  0  0  0  0  0  0
   25.5472  -20.1800  -14.5552 C   0  0  0  0  0  0  0  0  0  0  0  0
   26.5870  -19.5218  -14.7908 O   0  0  0  0  0  0  0  0  0  0  0  0
   24.4534  -22.3840   -6.2254 N   0  0  0  0  0  0  0  0  0  0  0  0
   24.4793  -20.0984  -15.4825 C   0  0  1  0  0  0  0  0  0  0  0  0
   24.5630  -19.2947  -16.6608 C   0  0  0  0  0  0  0  0  0  0  0  0
   23.5735  -19.7702  -17.7364 C   0  0  0  0  0  0  0  0  0  0  0  0
   23.6549  -18.9568  -18.9451 C   0  0  0  0  0  0  0  0  0  0  0  0
   22.6903  -18.0757  -19.3789 N   0  0  0  0  0  0  0  0  0  0  0  0
   23.1501  -17.5295  -20.5258 C   0  0  0  0  0  0  0  0  0  0  0  0
   24.3495  -18.0527  -20.7883 N   0  0  0  0  0  0  0  0  0  0  0  0
   24.6783  -18.9411  -19.8167 C   0  0  0  0  0  0  0  0  0  0  0  0
   24.3425  -17.8484  -16.3841 O   0  0  0  0  0  0  0  0  0  0  0  0
   23.3526  -17.4657  -15.6896 C   0  0  0  0  0  0  0  0  0  0  0  0
   26.4244  -14.7420  -16.4946 C   0  0  2  0  0  0  0  0  0  0  0  0
   25.0825  -15.4409  -16.5067 N   0  0  0  0  0  0  0  0  0  0  0  0
   25.2000  -16.8335  -16.8660 C   0  0  0  0  0  0  0  0  0  0  0  0
   24.1166  -14.7226  -17.3815 O   0  0  0  0  0  0  0  0  0  0  0  0
   23.3672  -13.8666  -16.8349 O   0  0  0  0  0  0  0  0  0  0  0  0
  2  4  1  0
  2  1  1  0
  3  2  2  0
  5  4  1  0
  5  6  1  0
  7  6  1  0
  7  8  1  0
  8  9  1  1
 10  8  1  0
 10 12  1  0
 11 10  2  0
 13 12  1  0
 13 14  1  1
 15 14  1  0
 15 16  2  0
 17 16  1  0
 18 17  1  0
 19 18  2  0
 19 15  1  0
 20 13  1  0
 21 20  2  0
 23 22  1  1
 23 24  1  0
 23 25  1  0
 24 20  1  0
 25 27  1  0
 26 25  2  0
M  END
$$$$
