RHA.pdb
     RDKit          3D

 27 27  0  0  1  0  0  0  0  0999 V2000
   25.7567  -20.8941  -21.4402 N   0  0  0  0  0  0  0  0  0  0  0  0
   26.1759  -19.5140  -21.3986 C   0  0  0  0  0  0  0  0  0  0  0  0
   27.2357  -19.1717  -22.0334 N   0  0  0  0  0  0  0  0  0  0  0  0
   25.4448  -18.5507  -20.6799 N   0  0  0  0  0  0  0  0  0  0  0  0
   24.3911  -18.9671  -19.7337 C   0  0  0  0  0  0  0  0  0  0  0  0
   24.9332  -19.9194  -18.7327 C   0  0  0  0  0  0  0  0  0  0  0  0
   23.9735  -20.4867  -17.7419 C   0  0  0  0  0  0  0  0  0  0  0  0
   23.4478  -19.4713  -16.7981 C   0  0  2  0  0  0  0  0  0  0  0  0
   24.4903  -18.6287  -16.2894 N   0  0  0  0  0  0  0  0  0  0  0  0
   22.6385  -20.0743  -15.6987 C   0  0  0  0  0  0  0  0  0  0  0  0
   21.7687  -20.9286  -15.9874 O   0  0  0  0  0  0  0  0  0  0  0  0
   27.5992  -18.2094  -21.9709 N   0  0  0  0  0  0  0  0  0  0  0  0
   22.8070  -19.7252  -14.3361 C   0  0  1  0  0  0  0  0  0  0  0  0
   22.0306  -20.3304  -13.3006 C   0  0  0  0  0  0  0  0  0  0  0  0
   22.4640  -19.8355  -11.9116 C   0  0  0  0  0  0  0  0  0  0  0  0
   21.7986  -20.5722  -10.8421 C   0  0  0  0  0  0  0  0  0  0  0  0
   20.8320  -21.5359  -11.0203 N   0  0  0  0  0  0  0  0  0  0  0  0
   20.4809  -21.9669   -9.7889 C   0  0  0  0  0  0  0  0  0  0  0  0
   21.2019  -21.2960   -8.8883 N   0  0  0  0  0  0  0  0  0  0  0  0
   22.0254  -20.4256   -9.5251 C   0  0  0  0  0  0  0  0  0  0  0  0
   20.5690  -20.1076  -13.4764 O   0  0  0  0  0  0  0  0  0  0  0  0
   20.1164  -18.9502  -13.7298 C   0  0  0  0  0  0  0  0  0  0  0  0
   17.7319  -21.3932  -14.9247 C   0  0  2  0  0  0  0  0  0  0  0  0
   18.1956  -20.9558  -13.5525 N   0  0  0  0  0  0  0  0  0  0  0  0
   19.6149  -21.1453  -13.3741 C   0  0  0  0  0  0  0  0  0  0  0  0
   17.4081  -21.6302  -12.4851 O   0  0  0  0  0  0  0  0  0  0  0  0
   18.0280  -22.4211  -11.7213 O   0  0  0  0  0  0  0  0  0  0  0  0
  2  4  1  0
  2  1  1  0
  3  2  2  0
  5  4  1  0
  5  6  1  0
  7  6  1  0
  7  8  1  0
  8  9  1  1
 10  8  1  0
 10 12  1  0
 11 10  2  0
 13 12  1  0
 13 14  1  6
 15 14  1  0
 15 16  2  0
 17 16  1  0
 18 17  1  0
 19 18  2  0
 19 15  1  0
 20 13  1  0
 21 20  2  0
 23 22  1  6
 23 24  1  0
 23 25  1  0
 24 20  1  0
 25 27  1  0
 26 25  2  0
M  END
$$$$
