RHA.pdb
     RDKit          3D

 27 27  0  0  1  0  0  0  0  0999 V2000
   25.9155  -20.9495  -10.1955 N   0  0  0  0  0  0  0  0  0  0  0  0
   25.2615  -20.8611  -11.4787 C   0  0  0  0  0  0  0  0  0  0  0  0
   23.9940  -20.6733  -11.5134 N   0  0  0  0  0  0  0  0  0  0  0  0
   25.9885  -20.9759  -12.6775 N   0  0  0  0  0  0  0  0  0  0  0  0
   27.4584  -21.1080  -12.6488 C   0  0  0  0  0  0  0  0  0  0  0  0
   28.1054  -19.8602  -13.1251 C   0  0  0  0  0  0  0  0  0  0  0  0
   27.9105  -19.4952  -14.5581 C   0  0  0  0  0  0  0  0  0  0  0  0
   27.1762  -18.2196  -14.7358 C   0  0  2  0  0  0  0  0  0  0  0  0
   26.9279  -17.5702  -13.4819 N   0  0  0  0  0  0  0  0  0  0  0  0
   25.9238  -18.3842  -15.5305 C   0  0  0  0  0  0  0  0  0  0  0  0
   26.0081  -18.7834  -16.7152 O   0  0  0  0  0  0  0  0  0  0  0  0
   23.4940  -20.6201  -12.4131 N   0  0  0  0  0  0  0  0  0  0  0  0
   24.6364  -18.1092  -15.0073 C   0  0  1  0  0  0  0  0  0  0  0  0
   23.4583  -18.2113  -15.8092 C   0  0  0  0  0  0  0  0  0  0  0  0
   22.4578  -19.2136  -15.2122 C   0  0  0  0  0  0  0  0  0  0  0  0
   21.3272  -19.4473  -16.1047 C   0  0  0  0  0  0  0  0  0  0  0  0
   21.2758  -20.4060  -17.0911 N   0  0  0  0  0  0  0  0  0  0  0  0
   20.0660  -20.2919  -17.6816 C   0  0  0  0  0  0  0  0  0  0  0  0
   19.3988  -19.3030  -17.0833 N   0  0  0  0  0  0  0  0  0  0  0  0
   20.1674  -18.7674  -16.1016 C   0  0  0  0  0  0  0  0  0  0  0  0
   22.7881  -16.8974  -16.0118 O   0  0  0  0  0  0  0  0  0  0  0  0
   22.6498  -16.0855  -15.0471 C   0  0  0  0  0  0  0  0  0  0  0  0
   21.6250  -14.8197  -18.9437 C   0  0  2  0  0  0  0  0  0  0  0  0
   21.6254  -15.2105  -17.4820 N   0  0  0  0  0  0  0  0  0  0  0  0
   22.2744  -16.4802  -17.2607 C   0  0  0  0  0  0  0  0  0  0  0  0
   20.2456  -15.1892  -16.9253 O   0  0  0  0  0  0  0  0  0  0  0  0
   19.7271  -16.2994  -16.6222 O   0  0  0  0  0  0  0  0  0  0  0  0
  2  4  1  0
  2  1  1  0
  3  2  2  0
  5  4  1  0
  5  6  1  0
  7  6  1  0
  7  8  1  0
  8  9  1  1
 10  8  1  0
 10 12  1  0
 11 10  2  0
 13 12  1  0
 13 14  1  6
 15 14  1  0
 15 16  2  0
 17 16  1  0
 18 17  1  0
 19 18  2  0
 19 15  1  0
 20 13  1  0
 21 20  2  0
 23 22  1  1
 23 24  1  0
 23 25  1  0
 24 20  1  0
 25 27  1  0
 26 25  2  0
M  END
$$$$
