RHA.pdb
     RDKit          3D

 27 27  0  0  1  0  0  0  0  0999 V2000
   25.6415  -25.1915  -15.0855 N   0  0  0  0  0  0  0  0  0  0  0  0
   26.4486  -24.3005  -15.8836 C   0  0  0  0  0  0  0  0  0  0  0  0
   27.3914  -24.7949  -16.5975 N   0  0  0  0  0  0  0  0  0  0  0  0
   26.2160  -22.9131  -15.8890 N   0  0  0  0  0  0  0  0  0  0  0  0
   24.9196  -22.3723  -15.4352 C   0  0  0  0  0  0  0  0  0  0  0  0
   23.8108  -22.9057  -16.2651 C   0  0  0  0  0  0  0  0  0  0  0  0
   22.4313  -22.4411  -15.9397 C   0  0  0  0  0  0  0  0  0  0  0  0
   22.0549  -22.6894  -14.5274 C   0  0  2  0  0  0  0  0  0  0  0  0
   21.7003  -24.0607  -14.3052 N   0  0  0  0  0  0  0  0  0  0  0  0
   20.9930  -21.7586  -14.0443 C   0  0  0  0  0  0  0  0  0  0  0  0
   19.8097  -21.9506  -14.4090 O   0  0  0  0  0  0  0  0  0  0  0  0
   28.0151  -24.1823  -17.1434 N   0  0  0  0  0  0  0  0  0  0  0  0
   21.2597  -20.6617  -13.1884 C   0  0  2  0  0  0  0  0  0  0  0  0
   20.2134  -19.8430  -12.6628 C   0  0  0  0  0  0  0  0  0  0  0  0
   20.6078  -19.2265  -11.3114 C   0  0  0  0  0  0  0  0  0  0  0  0
   20.5216  -20.1988  -10.2267 C   0  0  0  0  0  0  0  0  0  0  0  0
   20.0708  -21.4934  -10.3512 N   0  0  0  0  0  0  0  0  0  0  0  0
   20.1512  -22.0529   -9.1241 C   0  0  0  0  0  0  0  0  0  0  0  0
   20.6321  -21.1401   -8.2776 N   0  0  0  0  0  0  0  0  0  0  0  0
   20.8676  -19.9827   -8.9457 C   0  0  0  0  0  0  0  0  0  0  0  0
   19.8038  -18.7638  -13.6033 O   0  0  0  0  0  0  0  0  0  0  0  0
   20.6399  -17.8938  -13.9940 C   0  0  0  0  0  0  0  0  0  0  0  0
   16.9417  -18.1440  -15.9438 C   0  0  2  0  0  0  0  0  0  0  0  0
   18.0899  -17.6585  -15.0863 N   0  0  0  0  0  0  0  0  0  0  0  0
   18.4895  -18.6415  -14.1084 C   0  0  0  0  0  0  0  0  0  0  0  0
   17.7666  -16.3498  -14.4561 O   0  0  0  0  0  0  0  0  0  0  0  0
   17.4147  -16.3628  -13.2440 O   0  0  0  0  0  0  0  0  0  0  0  0
  2  4  1  0
  2  1  1  0
  3  2  2  0
  5  4  1  0
  5  6  1  0
  7  6  1  0
  7  8  1  0
  8  9  1  6
 10  8  1  0
 10 12  1  0
 11 10  2  0
 13 12  1  0
 13 14  1  1
 15 14  1  0
 15 16  2  0
 17 16  1  0
 18 17  1  0
 19 18  2  0
 19 15  1  0
 20 13  1  0
 21 20  2  0
 23 22  1  6
 23 24  1  0
 23 25  1  0
 24 20  1  0
 25 27  1  0
 26 25  2  0
M  END
$$$$
