RHA.pdb
     RDKit          3D

 27 27  0  0  1  0  0  0  0  0999 V2000
   42.9422   -5.6072   -4.0203 N   0  0  0  0  0  0  0  0  0  0  0  0
   43.9607   -6.0386   -4.9470 C   0  0  0  0  0  0  0  0  0  0  0  0
   45.1751   -5.6858   -4.7371 N   0  0  0  0  0  0  0  0  0  0  0  0
   43.6422   -6.8326   -6.0636 N   0  0  0  0  0  0  0  0  0  0  0  0
   42.5813   -7.8550   -5.9737 C   0  0  0  0  0  0  0  0  0  0  0  0
   42.3936   -8.5309   -7.2815 C   0  0  0  0  0  0  0  0  0  0  0  0
   41.3167   -9.5591   -7.3692 C   0  0  0  0  0  0  0  0  0  0  0  0
   41.2529  -10.2189   -8.6954 C   0  0  2  0  0  0  0  0  0  0  0  0
   42.4639  -10.9249   -8.9964 N   0  0  0  0  0  0  0  0  0  0  0  0
   40.8769   -9.2751   -9.7885 C   0  0  0  0  0  0  0  0  0  0  0  0
   41.7630   -8.8921  -10.5874 O   0  0  0  0  0  0  0  0  0  0  0  0
   45.9221   -5.9526   -5.3950 N   0  0  0  0  0  0  0  0  0  0  0  0
   39.5588   -8.7881   -9.9678 C   0  0  1  0  0  0  0  0  0  0  0  0
   39.2418   -7.8198  -10.9695 C   0  0  0  0  0  0  0  0  0  0  0  0
   38.1361   -8.3255  -11.9095 C   0  0  0  0  0  0  0  0  0  0  0  0
   38.6202   -9.3756  -12.7997 C   0  0  0  0  0  0  0  0  0  0  0  0
   38.2795  -10.7069  -12.7204 N   0  0  0  0  0  0  0  0  0  0  0  0
   38.9362  -11.3365  -13.7193 C   0  0  0  0  0  0  0  0  0  0  0  0
   39.6525  -10.4299  -14.3871 N   0  0  0  0  0  0  0  0  0  0  0  0
   39.4680   -9.2067  -13.8293 C   0  0  0  0  0  0  0  0  0  0  0  0
   38.8435   -6.5070  -10.3909 O   0  0  0  0  0  0  0  0  0  0  0  0
   38.1126   -6.4508   -9.3559 C   0  0  0  0  0  0  0  0  0  0  0  0
   39.6900   -2.8589  -10.9840 C   0  0  2  0  0  0  0  0  0  0  0  0
   38.8604   -3.9855  -10.4080 N   0  0  0  0  0  0  0  0  0  0  0  0
   39.2432   -5.2694  -10.9441 C   0  0  0  0  0  0  0  0  0  0  0  0
   37.4070   -3.7213  -10.5876 O   0  0  0  0  0  0  0  0  0  0  0  0
   36.8303   -4.2934  -11.5536 O   0  0  0  0  0  0  0  0  0  0  0  0
  2  4  1  0
  2  1  1  0
  3  2  2  0
  5  4  1  0
  5  6  1  0
  7  6  1  0
  7  8  1  0
  8  9  1  6
 10  8  1  0
 10 12  1  0
 11 10  2  0
 13 12  1  0
 13 14  1  6
 15 14  1  0
 15 16  2  0
 17 16  1  0
 18 17  1  0
 19 18  2  0
 19 15  1  0
 20 13  1  0
 21 20  2  0
 23 22  1  1
 23 24  1  0
 23 25  1  0
 24 20  1  0
 25 27  1  0
 26 25  2  0
M  END
$$$$
