RHA.pdb
     RDKit          3D

 27 27  0  0  1  0  0  0  0  0999 V2000
   19.1679  -15.5097  -19.5088 N   0  0  0  0  0  0  0  0  0  0  0  0
   19.8964  -16.6849  -19.0959 C   0  0  0  0  0  0  0  0  0  0  0  0
   19.2735  -17.8028  -19.0231 N   0  0  0  0  0  0  0  0  0  0  0  0
   21.2650  -16.6204  -18.7774 N   0  0  0  0  0  0  0  0  0  0  0  0
   21.9770  -15.3277  -18.8040 C   0  0  0  0  0  0  0  0  0  0  0  0
   23.4054  -15.5094  -18.4445 C   0  0  0  0  0  0  0  0  0  0  0  0
   24.2420  -14.2797  -18.3325 C   0  0  0  0  0  0  0  0  0  0  0  0
   25.6292  -14.5614  -17.8913 C   0  0  2  0  0  0  0  0  0  0  0  0
   25.6579  -15.4276  -16.7493 N   0  0  0  0  0  0  0  0  0  0  0  0
   26.4222  -13.3181  -17.6623 C   0  0  0  0  0  0  0  0  0  0  0  0
   26.3940  -12.7836  -16.5294 O   0  0  0  0  0  0  0  0  0  0  0  0
   19.7683  -18.6644  -18.7492 N   0  0  0  0  0  0  0  0  0  0  0  0
   27.2101  -12.7090  -18.6698 C   0  0  2  0  0  0  0  0  0  0  0  0
   27.8372  -11.4403  -18.4734 C   0  0  0  0  0  0  0  0  0  0  0  0
   29.3029  -11.5997  -18.0395 C   0  0  0  0  0  0  0  0  0  0  0  0
   29.9556  -10.3082  -17.8512 C   0  0  0  0  0  0  0  0  0  0  0  0
   29.8442   -9.5150  -16.7317 N   0  0  0  0  0  0  0  0  0  0  0  0
   30.5973   -8.4162  -16.9571 C   0  0  0  0  0  0  0  0  0  0  0  0
   31.1505   -8.5278  -18.1665 N   0  0  0  0  0  0  0  0  0  0  0  0
   30.7625   -9.6969  -18.7358 C   0  0  0  0  0  0  0  0  0  0  0  0
   27.7657  -10.5733  -19.6817 O   0  0  0  0  0  0  0  0  0  0  0  0
   28.0439  -11.0373  -20.8289 C   0  0  0  0  0  0  0  0  0  0  0  0
   28.6541   -8.2883  -21.5197 C   0  0  1  0  0  0  0  0  0  0  0  0
   27.3330   -8.3473  -20.7844 N   0  0  0  0  0  0  0  0  0  0  0  0
   27.3933   -9.2109  -19.6300 C   0  0  0  0  0  0  0  0  0  0  0  0
   26.2285   -8.7297  -21.7053 O   0  0  0  0  0  0  0  0  0  0  0  0
   25.1579   -8.0650  -21.6318 O   0  0  0  0  0  0  0  0  0  0  0  0
  2  4  1  0
  2  1  1  0
  3  2  2  0
  5  4  1  0
  5  6  1  0
  7  6  1  0
  7  8  1  0
  8  9  1  1
 10  8  1  0
 10 12  1  0
 11 10  2  0
 13 12  1  0
 13 14  1  6
 15 14  1  0
 15 16  2  0
 17 16  1  0
 18 17  1  0
 19 18  2  0
 19 15  1  0
 20 13  1  0
 21 20  2  0
 23 22  1  1
 23 24  1  0
 23 25  1  0
 24 20  1  0
 25 27  1  0
 26 25  2  0
M  END
$$$$
