RHA.pdb
     RDKit          3D

 27 27  0  0  1  0  0  0  0  0999 V2000
   21.9464  -14.3670  -19.2190 N   0  0  0  0  0  0  0  0  0  0  0  0
   23.3051  -14.0340  -18.8650 C   0  0  0  0  0  0  0  0  0  0  0  0
   23.5446  -12.8843  -18.3513 N   0  0  0  0  0  0  0  0  0  0  0  0
   24.3572  -14.9444  -19.0727 N   0  0  0  0  0  0  0  0  0  0  0  0
   24.2219  -16.3509  -18.6457 C   0  0  0  0  0  0  0  0  0  0  0  0
   22.8907  -16.8869  -19.0240 C   0  0  0  0  0  0  0  0  0  0  0  0
   22.5841  -18.2921  -18.6287 C   0  0  0  0  0  0  0  0  0  0  0  0
   23.6765  -18.9266  -17.8527 C   0  0  2  0  0  0  0  0  0  0  0  0
   24.6969  -19.4578  -18.7084 N   0  0  0  0  0  0  0  0  0  0  0  0
   23.1761  -19.9496  -16.8882 C   0  0  0  0  0  0  0  0  0  0  0  0
   22.3605  -20.8114  -17.2906 O   0  0  0  0  0  0  0  0  0  0  0  0
   24.5020  -12.6195  -18.0764 N   0  0  0  0  0  0  0  0  0  0  0  0
   23.5808  -19.9937  -15.5313 C   0  0  2  0  0  0  0  0  0  0  0  0
   23.2009  -21.0645  -14.6650 C   0  0  0  0  0  0  0  0  0  0  0  0
   24.4046  -21.6013  -13.8746 C   0  0  0  0  0  0  0  0  0  0  0  0
   25.4492  -22.1100  -14.7575 C   0  0  0  0  0  0  0  0  0  0  0  0
   25.6183  -23.4287  -15.1142 N   0  0  0  0  0  0  0  0  0  0  0  0
   26.6885  -23.4746  -15.9376 C   0  0  0  0  0  0  0  0  0  0  0  0
   27.1597  -22.2344  -16.0825 N   0  0  0  0  0  0  0  0  0  0  0  0
   26.4018  -21.3744  -15.3563 C   0  0  0  0  0  0  0  0  0  0  0  0
   22.1155  -20.6796  -13.7213 O   0  0  0  0  0  0  0  0  0  0  0  0
   22.1921  -19.6067  -13.0492 C   0  0  0  0  0  0  0  0  0  0  0  0
   18.6701  -21.9930  -12.8130 C   0  0  2  0  0  0  0  0  0  0  0  0
   19.8733  -21.0914  -12.6434 N   0  0  0  0  0  0  0  0  0  0  0  0
   20.9586  -21.4656  -13.5177 C   0  0  0  0  0  0  0  0  0  0  0  0
   20.3020  -21.0389  -11.2194 O   0  0  0  0  0  0  0  0  0  0  0  0
   21.2946  -21.7446  -10.8879 O   0  0  0  0  0  0  0  0  0  0  0  0
  2  4  1  0
  2  1  1  0
  3  2  2  0
  5  4  1  0
  5  6  1  0
  7  6  1  0
  7  8  1  0
  8  9  1  6
 10  8  1  0
 10 12  1  0
 11 10  2  0
 13 12  1  0
 13 14  1  6
 15 14  1  0
 15 16  2  0
 17 16  1  0
 18 17  1  0
 19 18  2  0
 19 15  1  0
 20 13  1  0
 21 20  2  0
 23 22  1  6
 23 24  1  0
 23 25  1  0
 24 20  1  0
 25 27  1  0
 26 25  2  0
M  END
$$$$
