RHA.pdb
     RDKit          3D

 27 27  0  0  1  0  0  0  0  0999 V2000
   23.7515  -14.1048  -21.7460 N   0  0  0  0  0  0  0  0  0  0  0  0
   23.1351  -14.3942  -20.4738 C   0  0  0  0  0  0  0  0  0  0  0  0
   22.0016  -13.8608  -20.2019 N   0  0  0  0  0  0  0  0  0  0  0  0
   23.7540  -15.2449  -19.5399 N   0  0  0  0  0  0  0  0  0  0  0  0
   25.0329  -15.9059  -19.8659 C   0  0  0  0  0  0  0  0  0  0  0  0
   25.4760  -16.7705  -18.7440 C   0  0  0  0  0  0  0  0  0  0  0  0
   24.9994  -18.1838  -18.7431 C   0  0  0  0  0  0  0  0  0  0  0  0
   23.7390  -18.3692  -17.9847 C   0  0  2  0  0  0  0  0  0  0  0  0
   23.1514  -17.1145  -17.6158 N   0  0  0  0  0  0  0  0  0  0  0  0
   23.9055  -19.2694  -16.8061 C   0  0  0  0  0  0  0  0  0  0  0  0
   23.6744  -20.4932  -16.9432 O   0  0  0  0  0  0  0  0  0  0  0  0
   21.5194  -14.0717  -19.3158 N   0  0  0  0  0  0  0  0  0  0  0  0
   24.3144  -18.8044  -15.5320 C   0  0  2  0  0  0  0  0  0  0  0  0
   24.4144  -19.6785  -14.4062 C   0  0  0  0  0  0  0  0  0  0  0  0
   25.5914  -19.2908  -13.4971 C   0  0  0  0  0  0  0  0  0  0  0  0
   25.7108  -20.1887  -12.3530 C   0  0  0  0  0  0  0  0  0  0  0  0
   26.1247  -21.5003  -12.4095 N   0  0  0  0  0  0  0  0  0  0  0  0
   26.0962  -21.9719  -11.1437 C   0  0  0  0  0  0  0  0  0  0  0  0
   25.6816  -20.9907  -10.3398 N   0  0  0  0  0  0  0  0  0  0  0  0
   25.4377  -19.8761  -11.0743 C   0  0  0  0  0  0  0  0  0  0  0  0
   23.1599  -19.7266  -13.6057 O   0  0  0  0  0  0  0  0  0  0  0  0
   22.4506  -18.6867  -13.4505 C   0  0  0  0  0  0  0  0  0  0  0  0
   21.5678  -19.9559  -11.0191 C   0  0  1  0  0  0  0  0  0  0  0  0
   21.5135  -20.9613  -12.1485 N   0  0  0  0  0  0  0  0  0  0  0  0
   22.6903  -20.9046  -12.9816 C   0  0  0  0  0  0  0  0  0  0  0  0
   20.2647  -20.8027  -12.9421 O   0  0  0  0  0  0  0  0  0  0  0  0
   20.3896  -20.5644  -14.1753 O   0  0  0  0  0  0  0  0  0  0  0  0
  2  4  1  0
  2  1  1  0
  3  2  2  0
  5  4  1  0
  5  6  1  0
  7  6  1  0
  7  8  1  0
  8  9  1  1
 10  8  1  0
 10 12  1  0
 11 10  2  0
 13 12  1  0
 13 14  1  6
 15 14  1  0
 15 16  2  0
 17 16  1  0
 18 17  1  0
 19 18  2  0
 19 15  1  0
 20 13  1  0
 21 20  2  0
 23 22  1  1
 23 24  1  0
 23 25  1  0
 24 20  1  0
 25 27  1  0
 26 25  2  0
M  END
$$$$
