RHA.pdb
     RDKit          3D

 27 27  0  0  1  0  0  0  0  0999 V2000
   27.1902  -18.9660  -17.5626 N   0  0  0  0  0  0  0  0  0  0  0  0
   27.8553  -19.4771  -16.3885 C   0  0  0  0  0  0  0  0  0  0  0  0
   28.4903  -18.6584  -15.6337 N   0  0  0  0  0  0  0  0  0  0  0  0
   27.8154  -20.8455  -16.0649 N   0  0  0  0  0  0  0  0  0  0  0  0
   27.2468  -21.8206  -17.0160 C   0  0  0  0  0  0  0  0  0  0  0  0
   26.0197  -22.4415  -16.4581 C   0  0  0  0  0  0  0  0  0  0  0  0
   24.7099  -21.8948  -16.9168 C   0  0  0  0  0  0  0  0  0  0  0  0
   24.1390  -20.8974  -15.9801 C   0  0  2  0  0  0  0  0  0  0  0  0
   24.4531  -21.2085  -14.6163 N   0  0  0  0  0  0  0  0  0  0  0  0
   22.6734  -20.6975  -16.1780 C   0  0  0  0  0  0  0  0  0  0  0  0
   22.2606  -20.3245  -17.3007 O   0  0  0  0  0  0  0  0  0  0  0  0
   28.9872  -18.9927  -14.7949 N   0  0  0  0  0  0  0  0  0  0  0  0
   21.7203  -20.9101  -15.1517 C   0  0  2  0  0  0  0  0  0  0  0  0
   20.3291  -20.6505  -15.3483 C   0  0  0  0  0  0  0  0  0  0  0  0
   19.4697  -21.3679  -14.2953 C   0  0  0  0  0  0  0  0  0  0  0  0
   18.0435  -21.1936  -14.5499 C   0  0  0  0  0  0  0  0  0  0  0  0
   17.2712  -22.0077  -15.3472 N   0  0  0  0  0  0  0  0  0  0  0  0
   16.0173  -21.5056  -15.3168 C   0  0  0  0  0  0  0  0  0  0  0  0
   16.0168  -20.4258  -14.5325 N   0  0  0  0  0  0  0  0  0  0  0  0
   17.2671  -20.2176  -14.0479 C   0  0  0  0  0  0  0  0  0  0  0  0
   20.0122  -19.1957  -15.3446 O   0  0  0  0  0  0  0  0  0  0  0  0
   20.6406  -18.3982  -14.5845 C   0  0  0  0  0  0  0  0  0  0  0  0
   19.8571  -16.3552  -16.5630 C   0  0  2  0  0  0  0  0  0  0  0  0
   18.6797  -17.2201  -16.1690 N   0  0  0  0  0  0  0  0  0  0  0  0
   19.0150  -18.6235  -16.1666 C   0  0  0  0  0  0  0  0  0  0  0  0
   17.4988  -16.9340  -17.0280 O   0  0  0  0  0  0  0  0  0  0  0  0
   17.1229  -17.8452  -17.8165 O   0  0  0  0  0  0  0  0  0  0  0  0
  2  4  1  0
  2  1  1  0
  3  2  2  0
  5  4  1  0
  5  6  1  0
  7  6  1  0
  7  8  1  0
  8  9  1  1
 10  8  1  0
 10 12  1  0
 11 10  2  0
 13 12  1  0
 13 14  1  1
 15 14  1  0
 15 16  2  0
 17 16  1  0
 18 17  1  0
 19 18  2  0
 19 15  1  0
 20 13  1  0
 21 20  2  0
 23 22  1  1
 23 24  1  0
 23 25  1  0
 24 20  1  0
 25 27  1  0
 26 25  2  0
M  END
$$$$
