RHA.pdb
     RDKit          3D

 27 27  0  0  1  0  0  0  0  0999 V2000
   28.1922  -31.6494    4.0094 N   0  0  0  0  0  0  0  0  0  0  0  0
   26.8414  -31.6177    3.5029 C   0  0  0  0  0  0  0  0  0  0  0  0
   26.6524  -31.3348    2.2670 N   0  0  0  0  0  0  0  0  0  0  0  0
   25.7426  -31.8911    4.3377 N   0  0  0  0  0  0  0  0  0  0  0  0
   25.9159  -31.9544    5.8022 C   0  0  0  0  0  0  0  0  0  0  0  0
   24.6301  -32.2801    6.4678 C   0  0  0  0  0  0  0  0  0  0  0  0
   24.6308  -32.3441    7.9580 C   0  0  0  0  0  0  0  0  0  0  0  0
   23.3085  -32.7059    8.5225 C   0  0  2  0  0  0  0  0  0  0  0  0
   22.3218  -32.8779    7.4966 N   0  0  0  0  0  0  0  0  0  0  0  0
   22.8522  -31.7499    9.5736 C   0  0  0  0  0  0  0  0  0  0  0  0
   21.7539  -31.1657    9.4234 O   0  0  0  0  0  0  0  0  0  0  0  0
   25.7011  -31.3147    1.8709 N   0  0  0  0  0  0  0  0  0  0  0  0
   23.6052  -31.4689   10.7402 C   0  0  1  0  0  0  0  0  0  0  0  0
   23.1437  -30.5513   11.7334 C   0  0  0  0  0  0  0  0  0  0  0  0
   23.7590  -30.8558   13.1084 C   0  0  0  0  0  0  0  0  0  0  0  0
   23.1839  -30.0192   14.1566 C   0  0  0  0  0  0  0  0  0  0  0  0
   23.6962  -28.8161   14.5866 N   0  0  0  0  0  0  0  0  0  0  0  0
   22.8734  -28.3688   15.5603 C   0  0  0  0  0  0  0  0  0  0  0  0
   21.8936  -29.2601   15.7238 N   0  0  0  0  0  0  0  0  0  0  0  0
   22.0710  -30.2915   14.8600 C   0  0  0  0  0  0  0  0  0  0  0  0
   23.4107  -29.1324   11.3700 O   0  0  0  0  0  0  0  0  0  0  0  0
   24.4477  -28.8169   10.7114 C   0  0  0  0  0  0  0  0  0  0  0  0
   24.2826  -26.3427   11.6060 C   0  0  1  0  0  0  0  0  0  0  0  0
   22.8173  -26.6826   11.4423 N   0  0  0  0  0  0  0  0  0  0  0  0
   22.5480  -28.0713   11.7273 C   0  0  0  0  0  0  0  0  0  0  0  0
   22.3275  -26.2887   10.0936 O   0  0  0  0  0  0  0  0  0  0  0  0
   21.8327  -27.1970    9.3700 O   0  0  0  0  0  0  0  0  0  0  0  0
  2  4  1  0
  2  1  1  0
  3  2  2  0
  5  4  1  0
  5  6  1  0
  7  6  1  0
  7  8  1  0
  8  9  1  6
 10  8  1  0
 10 12  1  0
 11 10  2  0
 13 12  1  0
 13 14  1  1
 15 14  1  0
 15 16  2  0
 17 16  1  0
 18 17  1  0
 19 18  2  0
 19 15  1  0
 20 13  1  0
 21 20  2  0
 23 22  1  1
 23 24  1  0
 23 25  1  0
 24 20  1  0
 25 27  1  0
 26 25  2  0
M  END
$$$$
