IVW.pdb
     RDKit          3D

 30 31  0  0  1  0  0  0  0  0999 V2000
   20.2186  -18.6117  -15.2193 C   0  0  0  0  0  0  0  0  0  0  0  0
   21.6690  -18.3329  -15.4527 C   0  0  0  0  0  0  0  0  0  0  0  0
   22.5871  -19.4016  -14.8466 C   0  0  2  0  0  0  0  0  0  0  0  0
   22.2926  -19.5475  -13.3752 C   0  0  0  0  0  0  0  0  0  0  0  0
   24.0400  -19.0141  -15.0581 C   0  0  2  0  0  0  0  0  0  0  0  0
   24.2829  -18.9896  -16.5220 N   0  0  0  0  0  0  0  0  0  0  0  0
   24.9800  -20.0339  -14.5308 C   0  0  0  0  0  0  0  0  0  0  0  0
   24.9345  -21.2148  -14.9575 O   0  0  0  0  0  0  0  0  0  0  0  0
   28.6966  -19.2260  -12.7828 C   0  0  0  0  0  0  0  0  0  0  0  0
   28.2432  -20.5252  -13.4428 C   0  0  2  0  0  0  0  0  0  0  0  0
   28.4553  -20.3826  -14.9088 C   0  0  0  0  0  0  0  0  0  0  0  0
   26.7990  -20.8295  -13.0385 C   0  0  2  0  0  0  0  0  0  0  0  0
   25.9547  -19.7519  -13.5504 N   0  0  0  0  0  0  0  0  0  0  0  0
   26.6982  -20.9221  -11.5749 C   0  0  0  0  0  0  0  0  0  0  0  0
   27.7990  -21.0795  -10.9400 O   0  0  0  0  0  0  0  0  0  0  0  0
   25.5412  -20.8541  -10.7874 N   0  0  0  0  0  0  0  0  0  0  0  0
   25.5534  -20.9808   -9.3073 C   0  0  1  0  0  0  0  0  0  0  0  0
   26.7349  -20.2846   -8.7486 C   0  0  0  0  0  0  0  0  0  0  0  0
   26.7781  -20.3731   -7.2809 C   0  0  0  0  0  0  0  0  0  0  0  0
   25.7829  -20.8591   -6.4237 C   0  0  0  0  0  0  0  0  0  0  0  0
   26.1790  -20.7455   -5.1507 N   0  0  0  0  0  0  0  0  0  0  0  0
   27.4043  -20.2019   -5.1145 C   0  0  0  0  0  0  0  0  0  0  0  0
   28.2032  -19.9187   -4.0079 C   0  0  0  0  0  0  0  0  0  0  0  0
   29.4415  -19.3759   -4.2448 C   0  0  0  0  0  0  0  0  0  0  0  0
   29.8566  -19.1295   -5.5362 C   0  0  0  0  0  0  0  0  0  0  0  0
   29.0503  -19.4167   -6.6126 C   0  0  0  0  0  0  0  0  0  0  0  0
   27.7927  -19.9651   -6.4103 C   0  0  0  0  0  0  0  0  0  0  0  0
   24.2495  -20.7242   -8.7134 C   0  0  0  0  0  0  0  0  0  0  0  0
   23.7934  -21.4565   -7.6512 O   0  0  0  0  0  0  0  0  0  0  0  0
   23.5059  -19.8197   -9.1631 O   0  0  0  0  0  0  0  0  0  0  0  0
  2  1  1  0
  3  5  1  0
  3  2  1  0
  3  4  1  1
  5  6  1  6
  5  7  1  0
  7  8  2  0
 10 12  1  0
 10  9  1  1
 11 10  1  0
 13  7  1  0
 12 13  1  1
 14 12  1  0
 14 15  2  0
 16 14  1  0
 17 16  1  0
 17 28  1  0
 17 18  1  1
 19 27  1  0
 19 18  1  0
 20 19  2  0
 21 20  1  0
 21 22  1  0
 22 23  1  0
 22 27  2  0
 23 24  2  0
 24 25  1  0
 26 25  2  0
 27 26  1  0
 28 30  2  0
 28 29  1  0
M  END
$$$$
