IVW.pdb
     RDKit          3D

 30 31  0  0  1  0  0  0  0  0999 V2000
   26.0003  -12.3044  -15.7206 C   0  0  0  0  0  0  0  0  0  0  0  0
   26.7999  -13.2445  -16.5647 C   0  0  0  0  0  0  0  0  0  0  0  0
   26.3356  -14.7010  -16.4393 C   0  0  2  0  0  0  0  0  0  0  0  0
   26.5441  -15.1794  -15.0249 C   0  0  0  0  0  0  0  0  0  0  0  0
   27.1089  -15.5747  -17.4113 C   0  0  2  0  0  0  0  0  0  0  0  0
   26.8421  -15.0599  -18.7776 N   0  0  0  0  0  0  0  0  0  0  0  0
   26.6184  -16.9749  -17.4268 C   0  0  0  0  0  0  0  0  0  0  0  0
   25.4756  -17.2383  -17.8776 O   0  0  0  0  0  0  0  0  0  0  0  0
   29.0428  -20.4683  -17.0211 C   0  0  0  0  0  0  0  0  0  0  0  0
   27.6947  -20.3352  -17.7240 C   0  0  2  0  0  0  0  0  0  0  0  0
   27.9573  -19.8896  -19.1193 C   0  0  0  0  0  0  0  0  0  0  0  0
   26.7873  -19.4006  -16.9210 C   0  0  2  0  0  0  0  0  0  0  0  0
   27.3794  -18.0648  -16.9540 N   0  0  0  0  0  0  0  0  0  0  0  0
   26.6679  -19.8854  -15.5384 C   0  0  0  0  0  0  0  0  0  0  0  0
   27.4389  -19.3353  -14.6766 O   0  0  0  0  0  0  0  0  0  0  0  0
   25.8072  -20.8756  -15.0465 N   0  0  0  0  0  0  0  0  0  0  0  0
   25.6977  -21.2185  -13.6051 C   0  0  1  0  0  0  0  0  0  0  0  0
   25.4627  -19.9924  -12.8087 C   0  0  0  0  0  0  0  0  0  0  0  0
   25.2568  -20.2968  -11.3844 C   0  0  0  0  0  0  0  0  0  0  0  0
   26.2338  -20.4513  -10.3929 C   0  0  0  0  0  0  0  0  0  0  0  0
   25.6571  -20.7573   -9.2249 N   0  0  0  0  0  0  0  0  0  0  0  0
   24.3274  -20.8149   -9.3888 C   0  0  0  0  0  0  0  0  0  0  0  0
   23.3403  -21.0832   -8.4419 C   0  0  0  0  0  0  0  0  0  0  0  0
   22.0350  -21.0612   -8.8660 C   0  0  0  0  0  0  0  0  0  0  0  0
   21.7370  -20.7819  -10.1828 C   0  0  0  0  0  0  0  0  0  0  0  0
   22.7284  -20.5209  -11.0996 C   0  0  0  0  0  0  0  0  0  0  0  0
   24.0582  -20.5354  -10.7062 C   0  0  0  0  0  0  0  0  0  0  0  0
   24.8465  -22.3754  -13.3687 C   0  0  0  0  0  0  0  0  0  0  0  0
   25.2799  -23.4392  -12.6250 O   0  0  0  0  0  0  0  0  0  0  0  0
   23.6868  -22.4271  -13.8438 O   0  0  0  0  0  0  0  0  0  0  0  0
  2  1  1  0
  3  5  1  0
  3  2  1  0
  3  4  1  1
  5  6  1  6
  5  7  1  0
  7  8  2  0
 10 12  1  0
 10  9  1  1
 11 10  1  0
 13  7  1  0
 12 13  1  1
 14 12  1  0
 14 15  2  0
 16 14  1  0
 17 16  1  0
 17 28  1  0
 17 18  1  1
 19 27  1  0
 19 18  1  0
 20 19  2  0
 21 20  1  0
 21 22  1  0
 22 23  1  0
 22 27  2  0
 23 24  2  0
 24 25  1  0
 26 25  2  0
 27 26  1  0
 28 30  2  0
 28 29  1  0
M  END
$$$$
