IVW.pdb
     RDKit          3D

 30 31  0  0  1  0  0  0  0  0999 V2000
   28.2367  -14.8311  -17.7955 C   0  0  0  0  0  0  0  0  0  0  0  0
   28.2579  -16.3047  -18.0476 C   0  0  0  0  0  0  0  0  0  0  0  0
   27.2198  -17.0675  -17.2150 C   0  0  2  0  0  0  0  0  0  0  0  0
   27.5993  -17.0117  -15.7570 C   0  0  0  0  0  0  0  0  0  0  0  0
   27.1399  -18.5094  -17.6846 C   0  0  2  0  0  0  0  0  0  0  0  0
   26.7101  -18.4890  -19.1051 N   0  0  0  0  0  0  0  0  0  0  0  0
   26.0864  -19.2775  -16.9765 C   0  0  0  0  0  0  0  0  0  0  0  0
   24.8753  -18.9852  -17.1389 O   0  0  0  0  0  0  0  0  0  0  0  0
   25.4358  -23.4070  -14.6613 C   0  0  0  0  0  0  0  0  0  0  0  0
   25.2726  -22.4950  -15.8741 C   0  0  2  0  0  0  0  0  0  0  0  0
   26.3488  -22.8382  -16.8427 C   0  0  0  0  0  0  0  0  0  0  0  0
   25.2712  -21.0335  -15.4207 C   0  0  2  0  0  0  0  0  0  0  0  0
   26.3674  -20.3515  -16.1058 N   0  0  0  0  0  0  0  0  0  0  0  0
   25.4413  -20.9619  -13.9623 C   0  0  0  0  0  0  0  0  0  0  0  0
   26.6048  -21.2516  -13.5127 O   0  0  0  0  0  0  0  0  0  0  0  0
   24.4838  -20.6097  -13.0019 N   0  0  0  0  0  0  0  0  0  0  0  0
   24.6271  -20.9185  -11.5558 C   0  0  1  0  0  0  0  0  0  0  0  0
   25.9514  -20.4680  -11.0700 C   0  0  0  0  0  0  0  0  0  0  0  0
   26.0467  -20.5330   -9.6036 C   0  0  0  0  0  0  0  0  0  0  0  0
   25.5768  -21.5475   -8.7601 C   0  0  0  0  0  0  0  0  0  0  0  0
   25.8205  -21.2312   -7.4829 N   0  0  0  0  0  0  0  0  0  0  0  0
   26.4380  -20.0420   -7.4309 C   0  0  0  0  0  0  0  0  0  0  0  0
   26.8898  -19.3392   -6.3151 C   0  0  0  0  0  0  0  0  0  0  0  0
   27.5168  -18.1382   -6.5359 C   0  0  0  0  0  0  0  0  0  0  0  0
   27.6816  -17.6665   -7.8209 C   0  0  0  0  0  0  0  0  0  0  0  0
   27.2267  -18.3775   -8.9066 C   0  0  0  0  0  0  0  0  0  0  0  0
   26.5879  -19.5944   -8.7205 C   0  0  0  0  0  0  0  0  0  0  0  0
   23.4447  -20.5580  -10.7873 C   0  0  0  0  0  0  0  0  0  0  0  0
   23.1397  -21.1874   -9.6110 O   0  0  0  0  0  0  0  0  0  0  0  0
   22.6701  -19.6556  -11.1862 O   0  0  0  0  0  0  0  0  0  0  0  0
  2  1  1  0
  3  5  1  0
  3  2  1  0
  3  4  1  1
  5  6  1  6
  5  7  1  0
  7  8  2  0
 10 12  1  0
 10  9  1  1
 11 10  1  0
 13  7  1  0
 12 13  1  6
 14 12  1  0
 14 15  2  0
 16 14  1  0
 17 16  1  0
 17 28  1  0
 17 18  1  1
 19 27  1  0
 19 18  1  0
 20 19  2  0
 21 20  1  0
 21 22  1  0
 22 23  1  0
 22 27  2  0
 23 24  2  0
 24 25  1  0
 26 25  2  0
 27 26  1  0
 28 30  2  0
 28 29  1  0
M  END
$$$$
