IVW.pdb
     RDKit          3D

 30 31  0  0  1  0  0  0  0  0999 V2000
   27.2574  -26.5542  -19.4415 C   0  0  0  0  0  0  0  0  0  0  0  0
   27.6491  -25.1115  -19.4732 C   0  0  0  0  0  0  0  0  0  0  0  0
   27.9263  -24.5378  -18.0780 C   0  0  2  0  0  0  0  0  0  0  0  0
   26.7240  -24.7518  -17.1938 C   0  0  0  0  0  0  0  0  0  0  0  0
   28.2470  -23.0572  -18.1831 C   0  0  2  0  0  0  0  0  0  0  0  0
   29.5978  -22.9389  -18.7865 N   0  0  0  0  0  0  0  0  0  0  0  0
   28.3627  -22.4076  -16.8542 C   0  0  0  0  0  0  0  0  0  0  0  0
   29.3587  -22.6380  -16.1237 O   0  0  0  0  0  0  0  0  0  0  0  0
   26.2698  -18.9450  -15.7936 C   0  0  0  0  0  0  0  0  0  0  0  0
   27.5943  -19.4019  -15.1887 C   0  0  2  0  0  0  0  0  0  0  0  0
   28.6870  -18.8848  -16.0564 C   0  0  0  0  0  0  0  0  0  0  0  0
   27.5846  -20.9230  -15.0214 C   0  0  2  0  0  0  0  0  0  0  0  0
   27.3949  -21.5171  -16.3433 N   0  0  0  0  0  0  0  0  0  0  0  0
   26.5014  -21.3191  -14.1100 C   0  0  0  0  0  0  0  0  0  0  0  0
   26.4339  -22.5640  -13.8176 O   0  0  0  0  0  0  0  0  0  0  0  0
   25.5340  -20.4972  -13.5168 N   0  0  0  0  0  0  0  0  0  0  0  0
   25.1612  -20.5817  -12.0812 C   0  0  1  0  0  0  0  0  0  0  0  0
   26.3808  -20.6387  -11.2432 C   0  0  0  0  0  0  0  0  0  0  0  0
   26.0571  -20.6775   -9.8089 C   0  0  0  0  0  0  0  0  0  0  0  0
   24.9531  -21.2847   -9.1973 C   0  0  0  0  0  0  0  0  0  0  0  0
   24.9885  -21.0756   -7.8762 N   0  0  0  0  0  0  0  0  0  0  0  0
   26.0747  -20.3508   -7.5711 C   0  0  0  0  0  0  0  0  0  0  0  0
   26.5143  -19.9177   -6.3213 C   0  0  0  0  0  0  0  0  0  0  0  0
   27.6833  -19.1995   -6.2765 C   0  0  0  0  0  0  0  0  0  0  0  0
   28.3779  -18.9299   -7.4366 C   0  0  0  0  0  0  0  0  0  0  0  0
   27.9239  -19.3673   -8.6589 C   0  0  0  0  0  0  0  0  0  0  0  0
   26.7461  -20.0949   -8.7414 C   0  0  0  0  0  0  0  0  0  0  0  0
   24.1122  -19.6397  -11.7196 C   0  0  0  0  0  0  0  0  0  0  0  0
   23.0611  -20.0130  -10.9268 O   0  0  0  0  0  0  0  0  0  0  0  0
   24.1449  -18.4542  -12.1283 O   0  0  0  0  0  0  0  0  0  0  0  0
  2  1  1  0
  3  5  1  0
  3  2  1  0
  3  4  1  1
  5  6  1  1
  5  7  1  0
  7  8  2  0
 10 12  1  0
 10  9  1  6
 11 10  1  0
 13  7  1  0
 12 13  1  6
 14 12  1  0
 14 15  2  0
 16 14  1  0
 17 16  1  0
 17 28  1  0
 17 18  1  1
 19 27  1  0
 19 18  1  0
 20 19  2  0
 21 20  1  0
 21 22  1  0
 22 23  1  0
 22 27  2  0
 23 24  2  0
 24 25  1  0
 26 25  2  0
 27 26  1  0
 28 30  2  0
 28 29  1  0
M  END
$$$$
