IVW.pdb
     RDKit          3D

 30 31  0  0  1  0  0  0  0  0999 V2000
   20.7956  -14.6870  -14.9017 C   0  0  0  0  0  0  0  0  0  0  0  0
   21.1467  -15.9895  -15.5466 C   0  0  0  0  0  0  0  0  0  0  0  0
   21.7771  -16.9887  -14.5685 C   0  0  2  0  0  0  0  0  0  0  0  0
   23.1390  -16.4966  -14.1486 C   0  0  0  0  0  0  0  0  0  0  0  0
   21.8886  -18.3534  -15.2251 C   0  0  2  0  0  0  0  0  0  0  0  0
   20.5115  -18.8031  -15.5476 N   0  0  0  0  0  0  0  0  0  0  0  0
   22.4215  -19.3843  -14.3005 C   0  0  0  0  0  0  0  0  0  0  0  0
   21.6886  -19.8633  -13.3993 O   0  0  0  0  0  0  0  0  0  0  0  0
   23.9364  -22.6341  -15.3266 C   0  0  0  0  0  0  0  0  0  0  0  0
   24.9013  -21.9993  -14.3291 C   0  0  2  0  0  0  0  0  0  0  0  0
   25.5248  -23.0992  -13.5444 C   0  0  0  0  0  0  0  0  0  0  0  0
   24.1579  -20.9618  -13.4849 C   0  0  2  0  0  0  0  0  0  0  0  0
   23.7412  -19.8782  -14.3728 N   0  0  0  0  0  0  0  0  0  0  0  0
   25.0392  -20.4571  -12.4222 C   0  0  0  0  0  0  0  0  0  0  0  0
   25.1623  -19.1848  -12.3448 O   0  0  0  0  0  0  0  0  0  0  0  0
   25.7593  -21.2007  -11.4778 N   0  0  0  0  0  0  0  0  0  0  0  0
   26.5615  -20.5812  -10.3916 C   0  0  1  0  0  0  0  0  0  0  0  0
   25.6909  -19.7496   -9.5295 C   0  0  0  0  0  0  0  0  0  0  0  0
   26.4475  -19.1133   -8.4403 C   0  0  0  0  0  0  0  0  0  0  0  0
   27.0715  -17.8595   -8.4512 C   0  0  0  0  0  0  0  0  0  0  0  0
   27.6894  -17.6449   -7.2839 N   0  0  0  0  0  0  0  0  0  0  0  0
   27.5063  -18.7055   -6.4840 C   0  0  0  0  0  0  0  0  0  0  0  0
   27.9561  -18.9053   -5.1799 C   0  0  0  0  0  0  0  0  0  0  0  0
   27.6108  -20.0834   -4.5658 C   0  0  0  0  0  0  0  0  0  0  0  0
   26.8477  -21.0173   -5.2337 C   0  0  0  0  0  0  0  0  0  0  0  0
   26.4158  -20.7983   -6.5209 C   0  0  0  0  0  0  0  0  0  0  0  0
   26.7467  -19.6194   -7.1722 C   0  0  0  0  0  0  0  0  0  0  0  0
   27.4690  -21.5266   -9.7580 C   0  0  0  0  0  0  0  0  0  0  0  0
   28.6983  -21.1371   -9.2999 O   0  0  0  0  0  0  0  0  0  0  0  0
   27.1454  -22.7300   -9.6151 O   0  0  0  0  0  0  0  0  0  0  0  0
  2  1  1  0
  3  5  1  0
  3  2  1  0
  3  4  1  6
  5  6  1  1
  5  7  1  0
  7  8  2  0
 10 12  1  0
 10  9  1  6
 11 10  1  0
 13  7  1  0
 12 13  1  6
 14 12  1  0
 14 15  2  0
 16 14  1  0
 17 16  1  0
 17 28  1  0
 17 18  1  1
 19 27  1  0
 19 18  1  0
 20 19  2  0
 21 20  1  0
 21 22  1  0
 22 23  1  0
 22 27  2  0
 23 24  2  0
 24 25  1  0
 26 25  2  0
 27 26  1  0
 28 30  2  0
 28 29  1  0
M  END
$$$$
