IVW.pdb
     RDKit          3D

 30 31  0  0  1  0  0  0  0  0999 V2000
   27.3160  -14.4454  -16.1225 C   0  0  0  0  0  0  0  0  0  0  0  0
   27.3203  -15.9146  -16.4003 C   0  0  0  0  0  0  0  0  0  0  0  0
   26.6168  -16.7303  -15.3084 C   0  0  2  0  0  0  0  0  0  0  0  0
   27.4309  -16.6880  -14.0401 C   0  0  0  0  0  0  0  0  0  0  0  0
   26.4360  -18.1651  -15.7717 C   0  0  2  0  0  0  0  0  0  0  0  0
   25.5693  -18.1353  -16.9762 N   0  0  0  0  0  0  0  0  0  0  0  0
   25.6935  -18.9887  -14.7859 C   0  0  0  0  0  0  0  0  0  0  0  0
   24.4556  -18.8326  -14.6378 O   0  0  0  0  0  0  0  0  0  0  0  0
   24.7419  -23.0516  -12.4872 C   0  0  0  0  0  0  0  0  0  0  0  0
   25.4596  -22.1859  -13.5190 C   0  0  2  0  0  0  0  0  0  0  0  0
   26.7955  -22.7937  -13.7647 C   0  0  0  0  0  0  0  0  0  0  0  0
   25.5036  -20.7362  -13.0311 C   0  0  2  0  0  0  0  0  0  0  0  0
   26.3091  -19.9693  -13.9795 N   0  0  0  0  0  0  0  0  0  0  0  0
   26.0880  -20.6793  -11.6835 C   0  0  0  0  0  0  0  0  0  0  0  0
   27.3568  -20.5170  -11.6225 O   0  0  0  0  0  0  0  0  0  0  0  0
   25.4231  -20.7766  -10.4539 N   0  0  0  0  0  0  0  0  0  0  0  0
   26.1172  -20.6976   -9.1428 C   0  0  1  0  0  0  0  0  0  0  0  0
   27.0669  -19.5614   -9.1395 C   0  0  0  0  0  0  0  0  0  0  0  0
   27.5459  -19.2534   -7.7833 C   0  0  0  0  0  0  0  0  0  0  0  0
   27.1904  -18.1645   -6.9775 C   0  0  0  0  0  0  0  0  0  0  0  0
   27.8631  -18.2107   -5.8217 N   0  0  0  0  0  0  0  0  0  0  0  0
   28.6592  -19.2898   -5.8151 C   0  0  0  0  0  0  0  0  0  0  0  0
   29.5187  -19.7364   -4.8127 C   0  0  0  0  0  0  0  0  0  0  0  0
   30.2153  -20.8956   -5.0477 C   0  0  0  0  0  0  0  0  0  0  0  0
   30.0540  -21.5741   -6.2369 C   0  0  0  0  0  0  0  0  0  0  0  0
   29.2004  -21.1136   -7.2119 C   0  0  0  0  0  0  0  0  0  0  0  0
   28.4812  -19.9453   -7.0087 C   0  0  0  0  0  0  0  0  0  0  0  0
   25.2056  -20.8456   -8.0178 C   0  0  0  0  0  0  0  0  0  0  0  0
   23.8831  -20.5100   -8.1230 O   0  0  0  0  0  0  0  0  0  0  0  0
   25.6115  -21.2871   -6.9162 O   0  0  0  0  0  0  0  0  0  0  0  0
  2  1  1  0
  3  5  1  0
  3  2  1  0
  3  4  1  1
  5  6  1  6
  5  7  1  0
  7  8  2  0
 10 12  1  0
 10  9  1  1
 11 10  1  0
 13  7  1  0
 12 13  1  6
 14 12  1  0
 14 15  2  0
 16 14  1  0
 17 16  1  0
 17 28  1  0
 17 18  1  1
 19 27  1  0
 19 18  1  0
 20 19  2  0
 21 20  1  0
 21 22  1  0
 22 23  1  0
 22 27  2  0
 23 24  2  0
 24 25  1  0
 26 25  2  0
 27 26  1  0
 28 30  2  0
 28 29  1  0
M  END
$$$$
