IVW.pdb
     RDKit          3D

 30 31  0  0  1  0  0  0  0  0999 V2000
   21.5168  -18.2080  -17.6947 C   0  0  0  0  0  0  0  0  0  0  0  0
   22.2521  -17.8855  -16.4333 C   0  0  0  0  0  0  0  0  0  0  0  0
   23.0691  -19.0689  -15.8997 C   0  0  2  0  0  0  0  0  0  0  0  0
   22.1684  -20.2635  -15.7132 C   0  0  0  0  0  0  0  0  0  0  0  0
   23.7246  -18.6915  -14.5830 C   0  0  2  0  0  0  0  0  0  0  0  0
   24.6384  -17.5538  -14.8537 N   0  0  0  0  0  0  0  0  0  0  0  0
   24.5992  -19.7687  -14.0573 C   0  0  0  0  0  0  0  0  0  0  0  0
   24.1127  -20.8889  -13.7621 O   0  0  0  0  0  0  0  0  0  0  0  0
   29.0019  -19.8145  -12.5708 C   0  0  0  0  0  0  0  0  0  0  0  0
   28.2180  -20.5242  -13.6712 C   0  0  2  0  0  0  0  0  0  0  0  0
   28.4076  -19.7510  -14.9284 C   0  0  0  0  0  0  0  0  0  0  0  0
   26.7585  -20.6842  -13.2401 C   0  0  2  0  0  0  0  0  0  0  0  0
   25.9877  -19.6102  -13.8635 N   0  0  0  0  0  0  0  0  0  0  0  0
   26.6593  -20.6163  -11.7750 C   0  0  0  0  0  0  0  0  0  0  0  0
   26.7060  -19.4458  -11.2576 O   0  0  0  0  0  0  0  0  0  0  0  0
   26.5146  -21.6791  -10.8735 N   0  0  0  0  0  0  0  0  0  0  0  0
   26.3869  -21.4916   -9.4053 C   0  0  1  0  0  0  0  0  0  0  0  0
   27.7195  -21.2476   -8.8075 C   0  0  0  0  0  0  0  0  0  0  0  0
   27.6493  -20.3024   -7.6827 C   0  0  0  0  0  0  0  0  0  0  0  0
   26.7991  -19.1980   -7.5454 C   0  0  0  0  0  0  0  0  0  0  0  0
   27.0571  -18.5609   -6.3973 N   0  0  0  0  0  0  0  0  0  0  0  0
   28.0489  -19.1929   -5.7529 C   0  0  0  0  0  0  0  0  0  0  0  0
   28.6253  -18.8879   -4.5210 C   0  0  0  0  0  0  0  0  0  0  0  0
   29.6228  -19.7149   -4.0679 C   0  0  0  0  0  0  0  0  0  0  0  0
   30.0216  -20.7992   -4.8202 C   0  0  0  0  0  0  0  0  0  0  0  0
   29.4383  -21.0799   -6.0337 C   0  0  0  0  0  0  0  0  0  0  0  0
   28.4281  -20.2652   -6.5226 C   0  0  0  0  0  0  0  0  0  0  0  0
   25.2911  -20.6024   -9.0484 C   0  0  0  0  0  0  0  0  0  0  0  0
   24.4633  -20.8787   -7.9944 O   0  0  0  0  0  0  0  0  0  0  0  0
   25.0761  -19.5538   -9.7022 O   0  0  0  0  0  0  0  0  0  0  0  0
  2  1  1  0
  3  5  1  0
  3  2  1  0
  3  4  1  1
  5  6  1  6
  5  7  1  0
  7  8  2  0
 10 12  1  0
 10  9  1  1
 11 10  1  0
 13  7  1  0
 12 13  1  6
 14 12  1  0
 14 15  2  0
 16 14  1  0
 17 16  1  0
 17 28  1  0
 17 18  1  6
 19 27  1  0
 19 18  1  0
 20 19  2  0
 21 20  1  0
 21 22  1  0
 22 23  1  0
 22 27  2  0
 23 24  2  0
 24 25  1  0
 26 25  2  0
 27 26  1  0
 28 30  2  0
 28 29  1  0
M  END
$$$$
