IVW.pdb
     RDKit          3D

 30 31  0  0  1  0  0  0  0  0999 V2000
   19.5750  -23.6441  -12.6368 C   0  0  0  0  0  0  0  0  0  0  0  0
   19.7847  -25.0529  -12.1817 C   0  0  0  0  0  0  0  0  0  0  0  0
   18.7538  -25.5027  -11.1390 C   0  0  2  0  0  0  0  0  0  0  0  0
   18.9258  -24.6976   -9.8760 C   0  0  0  0  0  0  0  0  0  0  0  0
   18.9258  -26.9833  -10.8484 C   0  0  2  0  0  0  0  0  0  0  0  0
   18.5971  -27.7198  -12.0943 N   0  0  0  0  0  0  0  0  0  0  0  0
   17.9543  -27.4791   -9.8426 C   0  0  0  0  0  0  0  0  0  0  0  0
   16.7200  -27.3911  -10.0605 O   0  0  0  0  0  0  0  0  0  0  0  0
   17.1624  -30.7815   -8.2374 C   0  0  0  0  0  0  0  0  0  0  0  0
   17.5597  -29.8053   -7.1337 C   0  0  2  0  0  0  0  0  0  0  0  0
   16.8005  -30.1778   -5.9093 C   0  0  0  0  0  0  0  0  0  0  0  0
   17.3280  -28.3698   -7.6103 C   0  0  2  0  0  0  0  0  0  0  0  0
   18.3412  -28.0639   -8.6183 N   0  0  0  0  0  0  0  0  0  0  0  0
   17.4256  -27.4432   -6.4732 C   0  0  0  0  0  0  0  0  0  0  0  0
   18.5800  -27.3324   -5.9302 O   0  0  0  0  0  0  0  0  0  0  0  0
   16.4074  -26.6606   -5.9128 N   0  0  0  0  0  0  0  0  0  0  0  0
   16.6321  -25.7091   -4.7942 C   0  0  1  0  0  0  0  0  0  0  0  0
   16.6012  -24.3172   -5.2985 C   0  0  0  0  0  0  0  0  0  0  0  0
   15.2544  -23.9262   -5.7420 C   0  0  0  0  0  0  0  0  0  0  0  0
   14.0523  -24.0459   -5.0334 C   0  0  0  0  0  0  0  0  0  0  0  0
   13.0328  -23.6121   -5.7838 N   0  0  0  0  0  0  0  0  0  0  0  0
   13.5000  -23.2029   -6.9723 C   0  0  0  0  0  0  0  0  0  0  0  0
   12.7982  -22.6641   -8.0494 C   0  0  0  0  0  0  0  0  0  0  0  0
   13.5224  -22.3014   -9.1576 C   0  0  0  0  0  0  0  0  0  0  0  0
   14.8902  -22.4730   -9.1805 C   0  0  0  0  0  0  0  0  0  0  0  0
   15.5610  -23.0077   -8.1056 C   0  0  0  0  0  0  0  0  0  0  0  0
   14.8611  -23.3860   -6.9696 C   0  0  0  0  0  0  0  0  0  0  0  0
   15.8469  -26.0388   -3.6136 C   0  0  0  0  0  0  0  0  0  0  0  0
   16.1422  -25.5042   -2.3890 O   0  0  0  0  0  0  0  0  0  0  0  0
   14.8736  -26.8264   -3.6892 O   0  0  0  0  0  0  0  0  0  0  0  0
  2  1  1  0
  3  5  1  0
  3  2  1  0
  3  4  1  1
  5  6  1  6
  5  7  1  0
  7  8  2  0
 10 12  1  0
 10  9  1  6
 11 10  1  0
 13  7  1  0
 12 13  1  6
 14 12  1  0
 14 15  2  0
 16 14  1  0
 17 16  1  0
 17 28  1  0
 17 18  1  6
 19 27  1  0
 19 18  1  0
 20 19  2  0
 21 20  1  0
 21 22  1  0
 22 23  1  0
 22 27  2  0
 23 24  2  0
 24 25  1  0
 26 25  2  0
 27 26  1  0
 28 30  2  0
 28 29  1  0
M  END
$$$$
