IVW.pdb
     RDKit          3D

 30 31  0  0  1  0  0  0  0  0999 V2000
   29.4226  -17.0985  -16.9626 C   0  0  0  0  0  0  0  0  0  0  0  0
   28.4210  -18.1997  -16.8213 C   0  0  0  0  0  0  0  0  0  0  0  0
   27.7124  -18.1908  -15.4611 C   0  0  2  0  0  0  0  0  0  0  0  0
   28.7267  -18.3687  -14.3599 C   0  0  0  0  0  0  0  0  0  0  0  0
   26.6783  -19.3017  -15.4105 C   0  0  2  0  0  0  0  0  0  0  0  0
   25.6875  -19.0332  -16.4824 N   0  0  0  0  0  0  0  0  0  0  0  0
   25.8937  -19.2875  -14.1513 C   0  0  0  0  0  0  0  0  0  0  0  0
   24.8021  -18.6679  -14.0948 O   0  0  0  0  0  0  0  0  0  0  0  0
   24.4433  -22.1363  -12.6008 C   0  0  0  0  0  0  0  0  0  0  0  0
   24.1331  -20.6905  -12.2236 C   0  0  2  0  0  0  0  0  0  0  0  0
   23.4264  -20.0672  -13.3754 C   0  0  0  0  0  0  0  0  0  0  0  0
   25.4240  -19.9790  -11.8125 C   0  0  2  0  0  0  0  0  0  0  0  0
   26.3082  -19.9488  -12.9759 N   0  0  0  0  0  0  0  0  0  0  0  0
   26.0554  -20.6947  -10.6945 C   0  0  0  0  0  0  0  0  0  0  0  0
   27.1231  -21.3461  -10.9696 O   0  0  0  0  0  0  0  0  0  0  0  0
   25.6327  -20.7472   -9.3597 N   0  0  0  0  0  0  0  0  0  0  0  0
   26.4229  -21.3906   -8.2786 C   0  0  1  0  0  0  0  0  0  0  0  0
   27.7989  -20.8438   -8.2622 C   0  0  0  0  0  0  0  0  0  0  0  0
   27.9675  -19.8190   -7.2206 C   0  0  0  0  0  0  0  0  0  0  0  0
   27.4703  -18.5097   -7.2206 C   0  0  0  0  0  0  0  0  0  0  0  0
   27.8626  -17.8705   -6.1124 N   0  0  0  0  0  0  0  0  0  0  0  0
   28.6055  -18.6979   -5.3629 C   0  0  0  0  0  0  0  0  0  0  0  0
   29.2030  -18.4588   -4.1265 C   0  0  0  0  0  0  0  0  0  0  0  0
   29.9014  -19.4915   -3.5519 C   0  0  0  0  0  0  0  0  0  0  0  0
   29.9939  -20.7088   -4.1924 C   0  0  0  0  0  0  0  0  0  0  0  0
   29.3963  -20.9211   -5.4128 C   0  0  0  0  0  0  0  0  0  0  0  0
   28.6834  -19.8998   -6.0228 C   0  0  0  0  0  0  0  0  0  0  0  0
   25.6911  -21.4704   -7.0229 C   0  0  0  0  0  0  0  0  0  0  0  0
   24.4982  -20.8222   -6.8506 O   0  0  0  0  0  0  0  0  0  0  0  0
   26.1380  -22.1393   -6.0606 O   0  0  0  0  0  0  0  0  0  0  0  0
  2  1  1  0
  3  5  1  0
  3  2  1  0
  3  4  1  1
  5  6  1  6
  5  7  1  0
  7  8  2  0
 10 12  1  0
 10  9  1  6
 11 10  1  0
 13  7  1  0
 12 13  1  6
 14 12  1  0
 14 15  2  0
 16 14  1  0
 17 16  1  0
 17 28  1  0
 17 18  1  1
 19 27  1  0
 19 18  1  0
 20 19  2  0
 21 20  1  0
 21 22  1  0
 22 23  1  0
 22 27  2  0
 23 24  2  0
 24 25  1  0
 26 25  2  0
 27 26  1  0
 28 30  2  0
 28 29  1  0
M  END
$$$$
