IVW.pdb
     RDKit          3D

 30 31  0  0  1  0  0  0  0  0999 V2000
   17.6419  -12.9966    2.8815 C   0  0  0  0  0  0  0  0  0  0  0  0
   16.9944  -14.3430    2.9404 C   0  0  0  0  0  0  0  0  0  0  0  0
   17.8370  -15.3777    3.6968 C   0  0  2  0  0  0  0  0  0  0  0  0
   19.1938  -15.4969    3.0503 C   0  0  0  0  0  0  0  0  0  0  0  0
   17.1303  -16.7218    3.6920 C   0  0  2  0  0  0  0  0  0  0  0  0
   15.7997  -16.5244    4.3193 N   0  0  0  0  0  0  0  0  0  0  0  0
   17.8129  -17.7229    4.5483 C   0  0  0  0  0  0  0  0  0  0  0  0
   19.0138  -18.0234    4.3333 O   0  0  0  0  0  0  0  0  0  0  0  0
   18.0799  -20.6206    8.5141 C   0  0  0  0  0  0  0  0  0  0  0  0
   17.4885  -19.4164    7.7868 C   0  0  2  0  0  0  0  0  0  0  0  0
   16.0249  -19.4033    8.0553 C   0  0  0  0  0  0  0  0  0  0  0  0
   17.8597  -19.4794    6.3036 C   0  0  2  0  0  0  0  0  0  0  0  0
   17.1789  -18.3785    5.6249 N   0  0  0  0  0  0  0  0  0  0  0  0
   17.4502  -20.7739    5.7400 C   0  0  0  0  0  0  0  0  0  0  0  0
   16.4299  -20.7577    4.9664 O   0  0  0  0  0  0  0  0  0  0  0  0
   18.0452  -22.0261    5.9430 N   0  0  0  0  0  0  0  0  0  0  0  0
   18.0660  -23.0960    4.9124 C   0  0  1  0  0  0  0  0  0  0  0  0
   18.4776  -22.5335    3.6060 C   0  0  0  0  0  0  0  0  0  0  0  0
   18.5296  -23.5650    2.5587 C   0  0  0  0  0  0  0  0  0  0  0  0
   17.4545  -24.1334    1.8639 C   0  0  0  0  0  0  0  0  0  0  0  0
   17.9001  -25.0638    1.0116 N   0  0  0  0  0  0  0  0  0  0  0  0
   19.2355  -25.1455    1.1031 C   0  0  0  0  0  0  0  0  0  0  0  0
   20.1123  -25.9637    0.3928 C   0  0  0  0  0  0  0  0  0  0  0  0
   21.4525  -25.8380    0.6621 C   0  0  0  0  0  0  0  0  0  0  0  0
   21.8898  -24.9302    1.6031 C   0  0  0  0  0  0  0  0  0  0  0  0
   21.0054  -24.1337    2.2922 C   0  0  0  0  0  0  0  0  0  0  0  0
   19.6443  -24.2347    2.0462 C   0  0  0  0  0  0  0  0  0  0  0  0
   18.7143  -24.3118    5.3817 C   0  0  0  0  0  0  0  0  0  0  0  0
   18.2378  -25.5495    5.0445 O   0  0  0  0  0  0  0  0  0  0  0  0
   19.7326  -24.2556    6.1119 O   0  0  0  0  0  0  0  0  0  0  0  0
  2  1  1  0
  3  5  1  0
  3  2  1  0
  3  4  1  6
  5  6  1  1
  5  7  1  0
  7  8  2  0
 10 12  1  0
 10  9  1  1
 11 10  1  0
 13  7  1  0
 12 13  1  6
 14 12  1  0
 14 15  2  0
 16 14  1  0
 17 16  1  0
 17 28  1  0
 17 18  1  6
 19 27  1  0
 19 18  1  0
 20 19  2  0
 21 20  1  0
 21 22  1  0
 22 23  1  0
 22 27  2  0
 23 24  2  0
 24 25  1  0
 26 25  2  0
 27 26  1  0
 28 30  2  0
 28 29  1  0
M  END
$$$$
