IVW.pdb
     RDKit          3D

 30 31  0  0  1  0  0  0  0  0999 V2000
   25.2625  -13.6376  -15.3637 C   0  0  0  0  0  0  0  0  0  0  0  0
   26.1024  -14.8106  -15.7564 C   0  0  0  0  0  0  0  0  0  0  0  0
   25.8332  -16.0518  -14.8965 C   0  0  2  0  0  0  0  0  0  0  0  0
   26.2302  -15.7751  -13.4686 C   0  0  0  0  0  0  0  0  0  0  0  0
   26.6128  -17.2359  -15.4409 C   0  0  2  0  0  0  0  0  0  0  0  0
   26.1867  -17.4368  -16.8483 N   0  0  0  0  0  0  0  0  0  0  0  0
   26.2695  -18.5043  -14.7518 C   0  0  0  0  0  0  0  0  0  0  0  0
   25.1861  -19.0876  -15.0063 O   0  0  0  0  0  0  0  0  0  0  0  0
   29.1739  -21.0467  -13.1252 C   0  0  0  0  0  0  0  0  0  0  0  0
   27.8221  -21.4276  -13.7225 C   0  0  2  0  0  0  0  0  0  0  0  0
   27.9902  -21.5099  -15.1988 C   0  0  0  0  0  0  0  0  0  0  0  0
   26.7576  -20.4299  -13.2610 C   0  0  2  0  0  0  0  0  0  0  0  0
   27.1107  -19.1178  -13.7997 N   0  0  0  0  0  0  0  0  0  0  0  0
   26.7074  -20.3955  -11.7922 C   0  0  0  0  0  0  0  0  0  0  0  0
   27.6682  -19.7841  -11.2067 O   0  0  0  0  0  0  0  0  0  0  0  0
   25.7309  -20.9478  -10.9529 N   0  0  0  0  0  0  0  0  0  0  0  0
   25.8923  -21.0648   -9.4807 C   0  0  1  0  0  0  0  0  0  0  0  0
   26.3385  -19.7711   -8.9151 C   0  0  0  0  0  0  0  0  0  0  0  0
   26.4977  -19.8390   -7.4544 C   0  0  0  0  0  0  0  0  0  0  0  0
   25.5124  -20.1171   -6.4987 C   0  0  0  0  0  0  0  0  0  0  0  0
   26.0362  -20.0550   -5.2689 N   0  0  0  0  0  0  0  0  0  0  0  0
   27.3382  -19.7462   -5.3568 C   0  0  0  0  0  0  0  0  0  0  0  0
   28.2722  -19.5949   -4.3332 C   0  0  0  0  0  0  0  0  0  0  0  0
   29.5620  -19.2943   -4.6940 C   0  0  0  0  0  0  0  0  0  0  0  0
   29.8964  -19.1528   -6.0240 C   0  0  0  0  0  0  0  0  0  0  0  0
   28.9571  -19.3060   -7.0168 C   0  0  0  0  0  0  0  0  0  0  0  0
   27.6442  -19.6091   -6.6886 C   0  0  0  0  0  0  0  0  0  0  0  0
   24.7756  -21.7522   -8.8487 C   0  0  0  0  0  0  0  0  0  0  0  0
   24.9449  -22.4872   -7.7069 O   0  0  0  0  0  0  0  0  0  0  0  0
   23.6223  -21.6879   -9.3378 O   0  0  0  0  0  0  0  0  0  0  0  0
  2  1  1  0
  3  5  1  0
  3  2  1  0
  3  4  1  1
  5  6  1  6
  5  7  1  0
  7  8  2  0
 10 12  1  0
 10  9  1  1
 11 10  1  0
 13  7  1  0
 12 13  1  1
 14 12  1  0
 14 15  2  0
 16 14  1  0
 17 16  1  0
 17 28  1  0
 17 18  1  1
 19 27  1  0
 19 18  1  0
 20 19  2  0
 21 20  1  0
 21 22  1  0
 22 23  1  0
 22 27  2  0
 23 24  2  0
 24 25  1  0
 26 25  2  0
 27 26  1  0
 28 30  2  0
 28 29  1  0
M  END
$$$$
