YGH.pdb
     RDKit          3D

 27 28  0  0  1  0  0  0  0  0999 V2000
   28.7757  -18.4773   -3.3089 O   0  0  0  0  0  0  0  0  0  0  0  0
   28.4242  -19.1663   -4.4586 C   0  0  0  0  0  0  0  0  0  0  0  0
   27.8746  -20.4363   -4.4302 C   0  0  0  0  0  0  0  0  0  0  0  0
   27.5362  -21.0933   -5.5947 C   0  0  0  0  0  0  0  0  0  0  0  0
   27.7413  -20.4927   -6.8041 C   0  0  0  0  0  0  0  0  0  0  0  0
   27.3983  -21.1468   -8.1008 C   0  0  0  0  0  0  0  0  0  0  0  0
   26.1579  -20.4803   -8.6264 C   0  0  2  0  0  0  0  0  0  0  0  0
   25.0532  -20.7964   -7.7493 N   0  0  0  0  0  0  0  0  0  0  0  0
   25.8302  -20.8229  -10.0024 C   0  0  0  0  0  0  0  0  0  0  0  0
   25.2447  -21.9089  -10.2384 O   0  0  0  0  0  0  0  0  0  0  0  0
   28.2945  -19.2168   -6.8115 C   0  0  0  0  0  0  0  0  0  0  0  0
   28.6366  -18.5483   -5.6746 C   0  0  0  0  0  0  0  0  0  0  0  0
   26.1310  -20.0032  -11.1084 N   0  0  0  0  0  0  0  0  0  0  0  0
   25.8719  -20.4044  -12.4811 C   0  0  0  0  0  0  0  0  0  0  0  0
   24.7158  -19.6618  -13.0445 C   0  0  0  0  0  0  0  0  0  0  0  0
   23.9079  -19.1227  -12.2595 O   0  0  0  0  0  0  0  0  0  0  0  0
   24.5106  -19.5522  -14.4423 N   0  0  0  0  0  0  0  0  0  0  0  0
   23.4309  -18.6873  -14.9880 C   0  0  1  0  0  0  0  0  0  0  0  0
   23.9311  -17.9349  -16.1614 C   0  0  0  0  0  0  0  0  0  0  0  0
   25.0345  -16.9944  -15.9004 C   0  0  0  0  0  0  0  0  0  0  0  0
   25.2786  -16.0847  -14.9118 C   0  0  0  0  0  0  0  0  0  0  0  0
   26.5006  -15.5597  -15.1703 N   0  0  0  0  0  0  0  0  0  0  0  0
   27.0184  -16.1087  -16.2742 C   0  0  0  0  0  0  0  0  0  0  0  0
   26.1297  -16.9888  -16.7296 N   0  0  0  0  0  0  0  0  0  0  0  0
   22.3109  -19.6308  -15.3651 C   0  0  0  0  0  0  0  0  0  0  0  0
   22.5185  -21.0168  -15.3290 O   0  0  0  0  0  0  0  0  0  0  0  0
   21.2199  -19.2271  -15.7036 O   0  0  0  0  0  0  0  0  0  0  0  0
  2  3  2  0
  2  1  1  0
  4  3  1  0
  5  4  2  0
  6  7  1  0
  6  5  1  0
  7  8  1  1
  9  7  1  0
  9 13  1  0
 10  9  2  0
 11  5  1  0
 11 12  2  0
 12  2  1  0
 14 13  1  0
 15 14  1  0
 15 16  2  0
 17 18  1  0
 17 15  1  0
 18 19  1  6
 20 19  1  0
 20 21  2  0
 22 21  1  0
 23 22  1  0
 24 23  2  0
 24 20  1  0
 25 18  1  0
 26 25  1  0
 27 25  2  0
M  END
$$$$
