YGH.pdb
     RDKit          3D

 27 28  0  0  1  0  0  0  0  0999 V2000
   28.3038  -17.3298  -19.2362 O   0  0  0  0  0  0  0  0  0  0  0  0
   27.2444  -17.3806  -18.3443 C   0  0  0  0  0  0  0  0  0  0  0  0
   27.3382  -17.9928  -17.1066 C   0  0  0  0  0  0  0  0  0  0  0  0
   26.2631  -18.0248  -16.2432 C   0  0  0  0  0  0  0  0  0  0  0  0
   25.0792  -17.4464  -16.6024 C   0  0  0  0  0  0  0  0  0  0  0  0
   23.8779  -17.4451  -15.7170 C   0  0  0  0  0  0  0  0  0  0  0  0
   23.2466  -18.8056  -15.8135 C   0  0  2  0  0  0  0  0  0  0  0  0
   22.7968  -19.0141  -17.1713 N   0  0  0  0  0  0  0  0  0  0  0  0
   22.1562  -19.0288  -14.8757 C   0  0  0  0  0  0  0  0  0  0  0  0
   21.0315  -18.5233  -15.1154 O   0  0  0  0  0  0  0  0  0  0  0  0
   25.0050  -16.8363  -17.8499 C   0  0  0  0  0  0  0  0  0  0  0  0
   26.0532  -16.7922  -18.7193 C   0  0  0  0  0  0  0  0  0  0  0  0
   22.2794  -19.7877  -13.6948 N   0  0  0  0  0  0  0  0  0  0  0  0
   21.2131  -19.8982  -12.7134 C   0  0  0  0  0  0  0  0  0  0  0  0
   20.2177  -20.9223  -13.1205 C   0  0  0  0  0  0  0  0  0  0  0  0
   20.4458  -21.6109  -14.1372 O   0  0  0  0  0  0  0  0  0  0  0  0
   19.0240  -21.1340  -12.3869 N   0  0  0  0  0  0  0  0  0  0  0  0
   18.0970  -22.2407  -12.7435 C   0  0  1  0  0  0  0  0  0  0  0  0
   17.4186  -22.7432  -11.5267 C   0  0  0  0  0  0  0  0  0  0  0  0
   18.2563  -23.5209  -10.5975 C   0  0  0  0  0  0  0  0  0  0  0  0
   19.4738  -24.1279  -10.7148 C   0  0  0  0  0  0  0  0  0  0  0  0
   19.7670  -24.6332   -9.4922 N   0  0  0  0  0  0  0  0  0  0  0  0
   18.7828  -24.3616   -8.6286 C   0  0  0  0  0  0  0  0  0  0  0  0
   17.8527  -23.6807   -9.2942 N   0  0  0  0  0  0  0  0  0  0  0  0
   17.1140  -21.6424  -13.7247 C   0  0  0  0  0  0  0  0  0  0  0  0
   16.3783  -22.4764  -14.5781 O   0  0  0  0  0  0  0  0  0  0  0  0
   16.9344  -20.4467  -13.8029 O   0  0  0  0  0  0  0  0  0  0  0  0
  2  3  2  0
  2  1  1  0
  4  3  1  0
  5  4  2  0
  6  7  1  0
  6  5  1  0
  7  8  1  6
  9  7  1  0
  9 13  1  0
 10  9  2  0
 11  5  1  0
 11 12  2  0
 12  2  1  0
 14 13  1  0
 15 14  1  0
 15 16  2  0
 17 18  1  0
 17 15  1  0
 18 19  1  1
 20 19  1  0
 20 21  2  0
 22 21  1  0
 23 22  1  0
 24 23  2  0
 24 20  1  0
 25 18  1  0
 26 25  1  0
 27 25  2  0
M  END
$$$$
