YGH.pdb
     RDKit          3D

 27 28  0  0  1  0  0  0  0  0999 V2000
   27.6559  -20.4095   -6.3008 O   0  0  0  0  0  0  0  0  0  0  0  0
   27.4219  -20.3033   -7.6625 C   0  0  0  0  0  0  0  0  0  0  0  0
   26.1690  -20.0375   -8.1870 C   0  0  0  0  0  0  0  0  0  0  0  0
   25.9719  -19.9384   -9.5485 C   0  0  0  0  0  0  0  0  0  0  0  0
   27.0221  -20.1031  -10.4060 C   0  0  0  0  0  0  0  0  0  0  0  0
   26.8785  -20.0090  -11.8885 C   0  0  0  0  0  0  0  0  0  0  0  0
   25.8003  -20.9727  -12.2980 C   0  0  2  0  0  0  0  0  0  0  0  0
   26.3106  -22.3197  -12.1778 N   0  0  0  0  0  0  0  0  0  0  0  0
   25.2693  -20.7462  -13.6340 C   0  0  0  0  0  0  0  0  0  0  0  0
   25.9850  -21.0183  -14.6297 O   0  0  0  0  0  0  0  0  0  0  0  0
   28.2729  -20.3694   -9.8596 C   0  0  0  0  0  0  0  0  0  0  0  0
   28.4917  -20.4717   -8.5186 C   0  0  0  0  0  0  0  0  0  0  0  0
   23.9824  -20.2327  -13.8906 N   0  0  0  0  0  0  0  0  0  0  0  0
   23.5098  -19.9219  -15.2295 C   0  0  0  0  0  0  0  0  0  0  0  0
   22.1261  -19.3837  -15.1950 C   0  0  0  0  0  0  0  0  0  0  0  0
   21.5573  -19.2594  -14.0901 O   0  0  0  0  0  0  0  0  0  0  0  0
   21.4421  -19.0108  -16.3787 N   0  0  0  0  0  0  0  0  0  0  0  0
   20.0776  -18.4228  -16.3166 C   0  0  1  0  0  0  0  0  0  0  0  0
   20.0434  -17.1461  -17.0663 C   0  0  0  0  0  0  0  0  0  0  0  0
   20.8628  -16.0534  -16.5141 C   0  0  0  0  0  0  0  0  0  0  0  0
   20.6344  -15.0932  -15.5706 C   0  0  0  0  0  0  0  0  0  0  0  0
   21.7958  -14.4085  -15.4348 N   0  0  0  0  0  0  0  0  0  0  0  0
   22.7281  -14.9076  -16.2533 C   0  0  0  0  0  0  0  0  0  0  0  0
   22.1683  -15.9153  -16.9188 N   0  0  0  0  0  0  0  0  0  0  0  0
   19.1645  -19.4581  -16.9341 C   0  0  0  0  0  0  0  0  0  0  0  0
   17.7763  -19.3590  -16.7663 O   0  0  0  0  0  0  0  0  0  0  0  0
   19.5950  -20.3878  -17.5809 O   0  0  0  0  0  0  0  0  0  0  0  0
  2  3  2  0
  2  1  1  0
  4  3  1  0
  5  4  2  0
  6  7  1  0
  6  5  1  0
  7  8  1  6
  9  7  1  0
  9 13  1  0
 10  9  2  0
 11  5  1  0
 11 12  2  0
 12  2  1  0
 14 13  1  0
 15 14  1  0
 15 16  2  0
 17 18  1  0
 17 15  1  0
 18 19  1  6
 20 19  1  0
 20 21  2  0
 22 21  1  0
 23 22  1  0
 24 23  2  0
 24 20  1  0
 25 18  1  0
 26 25  1  0
 27 25  2  0
M  END
$$$$
