YGH.pdb
     RDKit          3D

 27 28  0  0  1  0  0  0  0  0999 V2000
   15.7018  -24.4342    1.6703 O   0  0  0  0  0  0  0  0  0  0  0  0
   15.9596  -23.1477    2.1160 C   0  0  0  0  0  0  0  0  0  0  0  0
   15.4868  -22.0221    1.4641 C   0  0  0  0  0  0  0  0  0  0  0  0
   15.7628  -20.7558    1.9358 C   0  0  0  0  0  0  0  0  0  0  0  0
   16.5144  -20.5945    3.0647 C   0  0  0  0  0  0  0  0  0  0  0  0
   16.8499  -19.2542    3.6287 C   0  0  0  0  0  0  0  0  0  0  0  0
   15.9403  -19.0194    4.8019 C   0  0  2  0  0  0  0  0  0  0  0  0
   14.6078  -18.7503    4.3105 N   0  0  0  0  0  0  0  0  0  0  0  0
   16.3774  -17.9581    5.6968 C   0  0  0  0  0  0  0  0  0  0  0  0
   15.9277  -16.7968    5.5321 O   0  0  0  0  0  0  0  0  0  0  0  0
   16.9801  -21.7376    3.7053 C   0  0  0  0  0  0  0  0  0  0  0  0
   16.7205  -22.9983    3.2582 C   0  0  0  0  0  0  0  0  0  0  0  0
   17.2879  -18.1489    6.7551 N   0  0  0  0  0  0  0  0  0  0  0  0
   17.6934  -17.0775    7.6495 C   0  0  0  0  0  0  0  0  0  0  0  0
   19.1537  -16.8257    7.5524 C   0  0  0  0  0  0  0  0  0  0  0  0
   19.8376  -17.5423    6.7916 O   0  0  0  0  0  0  0  0  0  0  0  0
   19.7838  -15.7984    8.2978 N   0  0  0  0  0  0  0  0  0  0  0  0
   21.2619  -15.6369    8.2736 C   0  0  1  0  0  0  0  0  0  0  0  0
   21.6330  -14.3041    8.8020 C   0  0  0  0  0  0  0  0  0  0  0  0
   21.2349  -13.1508    7.9764 C   0  0  0  0  0  0  0  0  0  0  0  0
   20.5536  -13.0294    6.7993 C   0  0  0  0  0  0  0  0  0  0  0  0
   20.4308  -11.7004    6.5654 N   0  0  0  0  0  0  0  0  0  0  0  0
   21.0060  -11.0002    7.5488 C   0  0  0  0  0  0  0  0  0  0  0  0
   21.5013  -11.8777    8.4185 N   0  0  0  0  0  0  0  0  0  0  0  0
   21.8031  -16.7520    9.1399 C   0  0  0  0  0  0  0  0  0  0  0  0
   23.0273  -17.3566    8.8222 O   0  0  0  0  0  0  0  0  0  0  0  0
   21.2077  -17.1506   10.1170 O   0  0  0  0  0  0  0  0  0  0  0  0
  2  3  2  0
  2  1  1  0
  4  3  1  0
  5  4  2  0
  6  7  1  0
  6  5  1  0
  7  8  1  6
  9  7  1  0
  9 13  1  0
 10  9  2  0
 11  5  1  0
 11 12  2  0
 12  2  1  0
 14 13  1  0
 15 14  1  0
 15 16  2  0
 17 18  1  0
 17 15  1  0
 18 19  1  1
 20 19  1  0
 20 21  2  0
 22 21  1  0
 23 22  1  0
 24 23  2  0
 24 20  1  0
 25 18  1  0
 26 25  1  0
 27 25  2  0
M  END
$$$$
