YGH.pdb
     RDKit          3D

 27 28  0  0  1  0  0  0  0  0999 V2000
   21.7663  -13.8637  -19.9210 O   0  0  0  0  0  0  0  0  0  0  0  0
   22.1154  -15.0949  -19.3895 C   0  0  0  0  0  0  0  0  0  0  0  0
   21.4829  -15.6385  -18.2850 C   0  0  0  0  0  0  0  0  0  0  0  0
   21.8563  -16.8674  -17.7821 C   0  0  0  0  0  0  0  0  0  0  0  0
   22.8660  -17.5713  -18.3741 C   0  0  0  0  0  0  0  0  0  0  0  0
   23.3194  -18.9050  -17.8815 C   0  0  0  0  0  0  0  0  0  0  0  0
   23.5850  -18.7737  -16.4080 C   0  0  2  0  0  0  0  0  0  0  0  0
   24.9914  -18.5039  -16.2115 N   0  0  0  0  0  0  0  0  0  0  0  0
   23.1719  -19.9249  -15.6193 C   0  0  0  0  0  0  0  0  0  0  0  0
   22.3613  -20.7462  -16.1157 O   0  0  0  0  0  0  0  0  0  0  0  0
   23.4888  -17.0082  -19.4827 C   0  0  0  0  0  0  0  0  0  0  0  0
   23.1374  -15.7964  -19.9971 C   0  0  0  0  0  0  0  0  0  0  0  0
   23.6284  -20.1853  -14.3118 N   0  0  0  0  0  0  0  0  0  0  0  0
   23.1467  -21.3021  -13.5160 C   0  0  0  0  0  0  0  0  0  0  0  0
   21.9410  -20.9211  -12.7371 C   0  0  0  0  0  0  0  0  0  0  0  0
   22.0925  -20.3511  -11.6362 O   0  0  0  0  0  0  0  0  0  0  0  0
   20.6327  -21.1877  -13.2115 N   0  0  0  0  0  0  0  0  0  0  0  0
   19.4418  -20.8747  -12.3778 C   0  0  1  0  0  0  0  0  0  0  0  0
   18.6190  -19.8375  -13.0416 C   0  0  0  0  0  0  0  0  0  0  0  0
   19.2833  -18.5446  -13.2806 C   0  0  0  0  0  0  0  0  0  0  0  0
   20.5513  -18.0865  -13.0647 C   0  0  0  0  0  0  0  0  0  0  0  0
   20.5892  -16.8241  -13.5557 N   0  0  0  0  0  0  0  0  0  0  0  0
   19.3995  -16.4875  -14.0651 C   0  0  0  0  0  0  0  0  0  0  0  0
   18.5922  -17.5333  -13.9025 N   0  0  0  0  0  0  0  0  0  0  0  0
   18.6914  -22.1805  -12.2411 C   0  0  0  0  0  0  0  0  0  0  0  0
   17.6231  -22.2851  -11.3394 O   0  0  0  0  0  0  0  0  0  0  0  0
   18.9836  -23.1586  -12.8937 O   0  0  0  0  0  0  0  0  0  0  0  0
  2  3  2  0
  2  1  1  0
  4  3  1  0
  5  4  2  0
  6  7  1  0
  6  5  1  0
  7  8  1  6
  9  7  1  0
  9 13  1  0
 10  9  2  0
 11  5  1  0
 11 12  2  0
 12  2  1  0
 14 13  1  0
 15 14  1  0
 15 16  2  0
 17 18  1  0
 17 15  1  0
 18 19  1  6
 20 19  1  0
 20 21  2  0
 22 21  1  0
 23 22  1  0
 24 23  2  0
 24 20  1  0
 25 18  1  0
 26 25  1  0
 27 25  2  0
M  END
$$$$
