YGH.pdb
     RDKit          3D

 27 28  0  0  1  0  0  0  0  0999 V2000
   17.1840  -21.1283  -17.4347 O   0  0  0  0  0  0  0  0  0  0  0  0
   17.8757  -19.9299  -17.3595 C   0  0  0  0  0  0  0  0  0  0  0  0
   17.6520  -18.8817  -18.2351 C   0  0  0  0  0  0  0  0  0  0  0  0
   18.3592  -17.7021  -18.1312 C   0  0  0  0  0  0  0  0  0  0  0  0
   19.2996  -17.5516  -17.1523 C   0  0  0  0  0  0  0  0  0  0  0  0
   20.0996  -16.3031  -16.9839 C   0  0  0  0  0  0  0  0  0  0  0  0
   21.0550  -16.2216  -18.1413 C   0  0  2  0  0  0  0  0  0  0  0  0
   22.0124  -17.2989  -18.0304 N   0  0  0  0  0  0  0  0  0  0  0  0
   21.7388  -14.9429  -18.2656 C   0  0  0  0  0  0  0  0  0  0  0  0
   22.9654  -14.8783  -18.0021 O   0  0  0  0  0  0  0  0  0  0  0  0
   19.5097  -18.6162  -16.2825 C   0  0  0  0  0  0  0  0  0  0  0  0
   18.8236  -19.7905  -16.3656 C   0  0  0  0  0  0  0  0  0  0  0  0
   21.1061  -13.7503  -18.6691 N   0  0  0  0  0  0  0  0  0  0  0  0
   21.8142  -12.4881  -18.8031 C   0  0  0  0  0  0  0  0  0  0  0  0
   21.3863  -11.5231  -17.7586 C   0  0  0  0  0  0  0  0  0  0  0  0
   20.3807  -11.7917  -17.0684 O   0  0  0  0  0  0  0  0  0  0  0  0
   22.0882  -10.3137  -17.5293 N   0  0  0  0  0  0  0  0  0  0  0  0
   21.5400   -9.2764  -16.6155 C   0  0  1  0  0  0  0  0  0  0  0  0
   22.5240   -8.1829  -16.4446 C   0  0  0  0  0  0  0  0  0  0  0  0
   22.0720   -7.0291  -15.6480 C   0  0  0  0  0  0  0  0  0  0  0  0
   20.9698   -6.7945  -14.8771 C   0  0  0  0  0  0  0  0  0  0  0  0
   21.1411   -5.5663  -14.3310 N   0  0  0  0  0  0  0  0  0  0  0  0
   22.3017   -5.0370  -14.7321 C   0  0  0  0  0  0  0  0  0  0  0  0
   22.8804   -5.9238  -15.5385 N   0  0  0  0  0  0  0  0  0  0  0  0
   20.2706   -8.7877  -17.2765 C   0  0  0  0  0  0  0  0  0  0  0  0
   20.2469   -8.5438  -18.6567 O   0  0  0  0  0  0  0  0  0  0  0  0
   19.2537   -8.5952  -16.6466 O   0  0  0  0  0  0  0  0  0  0  0  0
  2  3  2  0
  2  1  1  0
  4  3  1  0
  5  4  2  0
  6  7  1  0
  6  5  1  0
  7  8  1  1
  9  7  1  0
  9 13  1  0
 10  9  2  0
 11  5  1  0
 11 12  2  0
 12  2  1  0
 14 13  1  0
 15 14  1  0
 15 16  2  0
 17 18  1  0
 17 15  1  0
 18 19  1  6
 20 19  1  0
 20 21  2  0
 22 21  1  0
 23 22  1  0
 24 23  2  0
 24 20  1  0
 25 18  1  0
 26 25  1  0
 27 25  2  0
M  END
$$$$
