YGH.pdb
     RDKit          3D

 27 28  0  0  1  0  0  0  0  0999 V2000
   28.3677  -20.0264   -4.9251 O   0  0  0  0  0  0  0  0  0  0  0  0
   28.1391  -20.0265   -6.2919 C   0  0  0  0  0  0  0  0  0  0  0  0
   26.8842  -19.8253   -6.8397 C   0  0  0  0  0  0  0  0  0  0  0  0
   26.6927  -19.8318   -8.2056 C   0  0  0  0  0  0  0  0  0  0  0  0
   27.7505  -20.0392   -9.0443 C   0  0  0  0  0  0  0  0  0  0  0  0
   27.6133  -20.0587  -10.5301 C   0  0  0  0  0  0  0  0  0  0  0  0
   26.5288  -21.0427  -10.8688 C   0  0  2  0  0  0  0  0  0  0  0  0
   26.9987  -22.3753  -10.5640 N   0  0  0  0  0  0  0  0  0  0  0  0
   26.0611  -20.9696  -12.2450 C   0  0  0  0  0  0  0  0  0  0  0  0
   25.3244  -20.0123  -12.5895 O   0  0  0  0  0  0  0  0  0  0  0  0
   29.0032  -20.2395   -8.4744 C   0  0  0  0  0  0  0  0  0  0  0  0
   29.2166  -20.2373   -7.1287 C   0  0  0  0  0  0  0  0  0  0  0  0
   26.3849  -21.9181  -13.2356 N   0  0  0  0  0  0  0  0  0  0  0  0
   25.9255  -21.8109  -14.6103 C   0  0  0  0  0  0  0  0  0  0  0  0
   24.5068  -22.2321  -14.7329 C   0  0  0  0  0  0  0  0  0  0  0  0
   24.2563  -23.4075  -15.0729 O   0  0  0  0  0  0  0  0  0  0  0  0
   23.4390  -21.3371  -14.4746 N   0  0  0  0  0  0  0  0  0  0  0  0
   22.0263  -21.7961  -14.5460 C   0  0  1  0  0  0  0  0  0  0  0  0
   21.3334  -21.4979  -13.2715 C   0  0  0  0  0  0  0  0  0  0  0  0
   19.8836  -21.7580  -13.2510 C   0  0  0  0  0  0  0  0  0  0  0  0
   19.0027  -22.2382  -14.1772 C   0  0  0  0  0  0  0  0  0  0  0  0
   17.8028  -22.3236  -13.5535 N   0  0  0  0  0  0  0  0  0  0  0  0
   17.9089  -21.9179  -12.2838 C   0  0  0  0  0  0  0  0  0  0  0  0
   19.1785  -21.5695  -12.0872 N   0  0  0  0  0  0  0  0  0  0  0  0
   21.4152  -21.0401  -15.7045 C   0  0  0  0  0  0  0  0  0  0  0  0
   20.4451  -21.6535  -16.5093 O   0  0  0  0  0  0  0  0  0  0  0  0
   21.7381  -19.9026  -15.9687 O   0  0  0  0  0  0  0  0  0  0  0  0
  2  3  2  0
  2  1  1  0
  4  3  1  0
  5  4  2  0
  6  7  1  0
  6  5  1  0
  7  8  1  6
  9  7  1  0
  9 13  1  0
 10  9  2  0
 11  5  1  0
 11 12  2  0
 12  2  1  0
 14 13  1  0
 15 14  1  0
 15 16  2  0
 17 18  1  0
 17 15  1  0
 18 19  1  1
 20 19  1  0
 20 21  2  0
 22 21  1  0
 23 22  1  0
 24 23  2  0
 24 20  1  0
 25 18  1  0
 26 25  1  0
 27 25  2  0
M  END
$$$$
