YGH.pdb
     RDKit          3D

 27 28  0  0  1  0  0  0  0  0999 V2000
   28.1583  -20.4881   -5.9988 O   0  0  0  0  0  0  0  0  0  0  0  0
   27.8570  -20.5304   -7.3507 C   0  0  0  0  0  0  0  0  0  0  0  0
   26.7873  -19.8450   -7.8998 C   0  0  0  0  0  0  0  0  0  0  0  0
   26.5164  -19.9096   -9.2506 C   0  0  0  0  0  0  0  0  0  0  0  0
   27.3087  -20.6590  -10.0727 C   0  0  0  0  0  0  0  0  0  0  0  0
   27.0719  -20.7722  -11.5418 C   0  0  0  0  0  0  0  0  0  0  0  0
   25.6312  -21.1535  -11.7370 C   0  0  2  0  0  0  0  0  0  0  0  0
   25.4314  -22.4914  -11.2279 N   0  0  0  0  0  0  0  0  0  0  0  0
   25.1665  -21.0571  -13.1128 C   0  0  0  0  0  0  0  0  0  0  0  0
   25.2332  -19.9506  -13.7038 O   0  0  0  0  0  0  0  0  0  0  0  0
   28.3784  -21.3402   -9.5020 C   0  0  0  0  0  0  0  0  0  0  0  0
   28.6656  -21.2914   -8.1709 C   0  0  0  0  0  0  0  0  0  0  0  0
   24.6368  -22.1415  -13.8403 N   0  0  0  0  0  0  0  0  0  0  0  0
   24.0571  -21.9945  -15.1650 C   0  0  0  0  0  0  0  0  0  0  0  0
   22.6118  -21.6638  -15.0809 C   0  0  0  0  0  0  0  0  0  0  0  0
   21.9159  -21.7451  -16.1148 O   0  0  0  0  0  0  0  0  0  0  0  0
   22.0094  -21.2611  -13.8632 N   0  0  0  0  0  0  0  0  0  0  0  0
   20.5302  -21.1745  -13.7375 C   0  0  1  0  0  0  0  0  0  0  0  0
   20.1448  -21.1620  -12.3076 C   0  0  0  0  0  0  0  0  0  0  0  0
   20.1515  -22.4688  -11.6277 C   0  0  0  0  0  0  0  0  0  0  0  0
   20.4660  -23.7350  -12.0305 C   0  0  0  0  0  0  0  0  0  0  0  0
   20.3482  -24.5237  -10.9350 N   0  0  0  0  0  0  0  0  0  0  0  0
   19.9762  -23.7964   -9.8764 C   0  0  0  0  0  0  0  0  0  0  0  0
   19.8531  -22.5367  -10.2885 N   0  0  0  0  0  0  0  0  0  0  0  0
   20.1415  -19.8888  -14.4323 C   0  0  0  0  0  0  0  0  0  0  0  0
   18.8864  -19.7744  -15.0462 O   0  0  0  0  0  0  0  0  0  0  0  0
   20.8876  -18.9353  -14.4796 O   0  0  0  0  0  0  0  0  0  0  0  0
  2  3  2  0
  2  1  1  0
  4  3  1  0
  5  4  2  0
  6  7  1  0
  6  5  1  0
  7  8  1  6
  9  7  1  0
  9 13  1  0
 10  9  2  0
 11  5  1  0
 11 12  2  0
 12  2  1  0
 14 13  1  0
 15 14  1  0
 15 16  2  0
 17 18  1  0
 17 15  1  0
 18 19  1  1
 20 19  1  0
 20 21  2  0
 22 21  1  0
 23 22  1  0
 24 23  2  0
 24 20  1  0
 25 18  1  0
 26 25  1  0
 27 25  2  0
M  END
$$$$
