YGH.pdb
     RDKit          3D

 27 28  0  0  1  0  0  0  0  0999 V2000
   29.2046  -19.9579   -3.8857 O   0  0  0  0  0  0  0  0  0  0  0  0
   28.8172  -19.8776   -5.2138 C   0  0  0  0  0  0  0  0  0  0  0  0
   29.5332  -20.4717   -6.2384 C   0  0  0  0  0  0  0  0  0  0  0  0
   29.1184  -20.3716   -7.5499 C   0  0  0  0  0  0  0  0  0  0  0  0
   27.9833  -19.6773   -7.8579 C   0  0  0  0  0  0  0  0  0  0  0  0
   27.4788  -19.5301   -9.2546 C   0  0  0  0  0  0  0  0  0  0  0  0
   26.3300  -20.4848   -9.4209 C   0  0  2  0  0  0  0  0  0  0  0  0
   26.8480  -21.8339   -9.4550 N   0  0  0  0  0  0  0  0  0  0  0  0
   25.5007  -20.2277  -10.5889 C   0  0  0  0  0  0  0  0  0  0  0  0
   24.7641  -19.2102  -10.6027 O   0  0  0  0  0  0  0  0  0  0  0  0
   27.2779  -19.0877   -6.8145 C   0  0  0  0  0  0  0  0  0  0  0  0
   27.6681  -19.1730   -5.5118 C   0  0  0  0  0  0  0  0  0  0  0  0
   25.4675  -21.0586  -11.7265 N   0  0  0  0  0  0  0  0  0  0  0  0
   25.5477  -20.5425  -13.0828 C   0  0  0  0  0  0  0  0  0  0  0  0
   25.5380  -21.6472  -14.0752 C   0  0  0  0  0  0  0  0  0  0  0  0
   25.7229  -21.3742  -15.2798 O   0  0  0  0  0  0  0  0  0  0  0  0
   25.3251  -22.9938  -13.6888 N   0  0  0  0  0  0  0  0  0  0  0  0
   24.8821  -24.0096  -14.6804 C   0  0  1  0  0  0  0  0  0  0  0  0
   23.8666  -23.4231  -15.5849 C   0  0  0  0  0  0  0  0  0  0  0  0
   22.5945  -23.0292  -14.9550 C   0  0  0  0  0  0  0  0  0  0  0  0
   22.1105  -23.1178  -13.6813 C   0  0  0  0  0  0  0  0  0  0  0  0
   20.8951  -22.5189  -13.6929 N   0  0  0  0  0  0  0  0  0  0  0  0
   20.6123  -22.0649  -14.9185 C   0  0  0  0  0  0  0  0  0  0  0  0
   21.6457  -22.3713  -15.6995 N   0  0  0  0  0  0  0  0  0  0  0  0
   26.1320  -24.4127  -15.4301 C   0  0  0  0  0  0  0  0  0  0  0  0
   26.3196  -25.7473  -15.8158 O   0  0  0  0  0  0  0  0  0  0  0  0
   26.9942  -23.6108  -15.7158 O   0  0  0  0  0  0  0  0  0  0  0  0
  2  3  2  0
  2  1  1  0
  4  3  1  0
  5  4  2  0
  6  7  1  0
  6  5  1  0
  7  8  1  6
  9  7  1  0
  9 13  1  0
 10  9  2  0
 11  5  1  0
 11 12  2  0
 12  2  1  0
 14 13  1  0
 15 14  1  0
 15 16  2  0
 17 18  1  0
 17 15  1  0
 18 19  1  6
 20 19  1  0
 20 21  2  0
 22 21  1  0
 23 22  1  0
 24 23  2  0
 24 20  1  0
 25 18  1  0
 26 25  1  0
 27 25  2  0
M  END
$$$$
