YGH.pdb
     RDKit          3D

 27 28  0  0  1  0  0  0  0  0999 V2000
   19.9556  -32.1380   -9.3566 O   0  0  0  0  0  0  0  0  0  0  0  0
   21.3009  -32.1151   -9.0251 C   0  0  0  0  0  0  0  0  0  0  0  0
   22.0024  -33.2539   -8.6694 C   0  0  0  0  0  0  0  0  0  0  0  0
   23.3417  -33.1945   -8.3452 C   0  0  0  0  0  0  0  0  0  0  0  0
   24.0001  -31.9982   -8.3713 C   0  0  0  0  0  0  0  0  0  0  0  0
   25.4471  -31.8635   -8.0321 C   0  0  0  0  0  0  0  0  0  0  0  0
   26.1486  -33.0827   -8.5618 C   0  0  2  0  0  0  0  0  0  0  0  0
   25.9425  -33.1536   -9.9907 N   0  0  0  0  0  0  0  0  0  0  0  0
   25.7470  -34.3290   -7.9265 C   0  0  0  0  0  0  0  0  0  0  0  0
   25.0899  -35.1688   -8.5906 O   0  0  0  0  0  0  0  0  0  0  0  0
   23.2778  -30.8656   -8.7312 C   0  0  0  0  0  0  0  0  0  0  0  0
   21.9548  -30.8997   -9.0554 C   0  0  0  0  0  0  0  0  0  0  0  0
   26.0513  -34.6636   -6.5919 N   0  0  0  0  0  0  0  0  0  0  0  0
   25.5713  -35.8782   -5.9542 C   0  0  0  0  0  0  0  0  0  0  0  0
   26.6291  -36.4920   -5.1118 C   0  0  0  0  0  0  0  0  0  0  0  0
   27.4331  -35.7437   -4.5172 O   0  0  0  0  0  0  0  0  0  0  0  0
   26.7457  -37.8969   -4.9686 N   0  0  0  0  0  0  0  0  0  0  0  0
   27.7113  -38.4866   -4.0035 C   0  0  1  0  0  0  0  0  0  0  0  0
   27.3714  -38.0622   -2.6260 C   0  0  0  0  0  0  0  0  0  0  0  0
   28.0146  -36.8225   -2.1572 C   0  0  0  0  0  0  0  0  0  0  0  0
   27.5352  -35.6014   -1.7783 C   0  0  0  0  0  0  0  0  0  0  0  0
   28.6084  -34.8789   -1.3758 N   0  0  0  0  0  0  0  0  0  0  0  0
   29.7262  -35.6039   -1.4898 C   0  0  0  0  0  0  0  0  0  0  0  0
   29.3748  -36.7958   -1.9669 N   0  0  0  0  0  0  0  0  0  0  0  0
   27.5872  -39.9841   -4.1737 C   0  0  0  0  0  0  0  0  0  0  0  0
   28.7297  -40.7605   -4.4123 O   0  0  0  0  0  0  0  0  0  0  0  0
   26.5175  -40.5495   -4.1103 O   0  0  0  0  0  0  0  0  0  0  0  0
  2  3  2  0
  2  1  1  0
  4  3  1  0
  5  4  2  0
  6  7  1  0
  6  5  1  0
  7  8  1  6
  9  7  1  0
  9 13  1  0
 10  9  2  0
 11  5  1  0
 11 12  2  0
 12  2  1  0
 14 13  1  0
 15 14  1  0
 15 16  2  0
 17 18  1  0
 17 15  1  0
 18 19  1  1
 20 19  1  0
 20 21  2  0
 22 21  1  0
 23 22  1  0
 24 23  2  0
 24 20  1  0
 25 18  1  0
 26 25  1  0
 27 25  2  0
M  END
$$$$
