YGH.pdb
     RDKit          3D

 27 28  0  0  1  0  0  0  0  0999 V2000
   29.4816  -19.8482   -3.4395 O   0  0  0  0  0  0  0  0  0  0  0  0
   28.7748  -19.7626   -4.6284 C   0  0  0  0  0  0  0  0  0  0  0  0
   29.1749  -18.9557   -5.6793 C   0  0  0  0  0  0  0  0  0  0  0  0
   28.4469  -18.8948   -6.8491 C   0  0  0  0  0  0  0  0  0  0  0  0
   27.3093  -19.6379   -6.9871 C   0  0  0  0  0  0  0  0  0  0  0  0
   26.4755  -19.6188   -8.2247 C   0  0  0  0  0  0  0  0  0  0  0  0
   26.7304  -20.9054   -8.9587 C   0  0  2  0  0  0  0  0  0  0  0  0
   28.0744  -20.8789   -9.4901 N   0  0  0  0  0  0  0  0  0  0  0  0
   25.7708  -21.1940  -10.0140 C   0  0  0  0  0  0  0  0  0  0  0  0
   24.5871  -21.4767   -9.7025 O   0  0  0  0  0  0  0  0  0  0  0  0
   26.9240  -20.4423   -5.9201 C   0  0  0  0  0  0  0  0  0  0  0  0
   27.6268  -20.5188   -4.7552 C   0  0  0  0  0  0  0  0  0  0  0  0
   26.0857  -21.1776  -11.3874 N   0  0  0  0  0  0  0  0  0  0  0  0
   25.1825  -21.6791  -12.4098 C   0  0  0  0  0  0  0  0  0  0  0  0
   23.9654  -20.8340  -12.5073 C   0  0  0  0  0  0  0  0  0  0  0  0
   23.8126  -19.9039  -11.6879 O   0  0  0  0  0  0  0  0  0  0  0  0
   22.9809  -21.0576  -13.5017 N   0  0  0  0  0  0  0  0  0  0  0  0
   21.7810  -20.1842  -13.5953 C   0  0  1  0  0  0  0  0  0  0  0  0
   21.3553  -20.0606  -15.0084 C   0  0  0  0  0  0  0  0  0  0  0  0
   22.0676  -19.0499  -15.8091 C   0  0  0  0  0  0  0  0  0  0  0  0
   23.1916  -18.3045  -15.5956 C   0  0  0  0  0  0  0  0  0  0  0  0
   23.3985  -17.5935  -16.7303 N   0  0  0  0  0  0  0  0  0  0  0  0
   22.4509  -17.8709  -17.6321 C   0  0  0  0  0  0  0  0  0  0  0  0
   21.6308  -18.7617  -17.0793 N   0  0  0  0  0  0  0  0  0  0  0  0
   20.7242  -20.8596  -12.7504 C   0  0  0  0  0  0  0  0  0  0  0  0
   19.7192  -20.0960  -12.1405 O   0  0  0  0  0  0  0  0  0  0  0  0
   20.7126  -22.0588  -12.5770 O   0  0  0  0  0  0  0  0  0  0  0  0
  2  3  2  0
  2  1  1  0
  4  3  1  0
  5  4  2  0
  6  7  1  0
  6  5  1  0
  7  8  1  6
  9  7  1  0
  9 13  1  0
 10  9  2  0
 11  5  1  0
 11 12  2  0
 12  2  1  0
 14 13  1  0
 15 14  1  0
 15 16  2  0
 17 18  1  0
 17 15  1  0
 18 19  1  6
 20 19  1  0
 20 21  2  0
 22 21  1  0
 23 22  1  0
 24 23  2  0
 24 20  1  0
 25 18  1  0
 26 25  1  0
 27 25  2  0
M  END
$$$$
