YGH.pdb
     RDKit          3D

 27 28  0  0  1  0  0  0  0  0999 V2000
   26.8221  -32.3215    0.7488 O   0  0  0  0  0  0  0  0  0  0  0  0
   26.7225  -31.7432    2.0041 C   0  0  0  0  0  0  0  0  0  0  0  0
   27.4252  -32.2117    3.1006 C   0  0  0  0  0  0  0  0  0  0  0  0
   27.3021  -31.6116    4.3363 C   0  0  0  0  0  0  0  0  0  0  0  0
   26.4762  -30.5355    4.4957 C   0  0  0  0  0  0  0  0  0  0  0  0
   26.2969  -29.8399    5.8037 C   0  0  0  0  0  0  0  0  0  0  0  0
   25.3049  -30.6361    6.6043 C   0  0  2  0  0  0  0  0  0  0  0  0
   23.9963  -30.4803    6.0103 N   0  0  0  0  0  0  0  0  0  0  0  0
   25.2660  -30.2972    8.0191 C   0  0  0  0  0  0  0  0  0  0  0  0
   26.3069  -30.4347    8.7087 O   0  0  0  0  0  0  0  0  0  0  0  0
   25.7789  -30.0798    3.3820 C   0  0  0  0  0  0  0  0  0  0  0  0
   25.8844  -30.6562    2.1519 C   0  0  0  0  0  0  0  0  0  0  0  0
   24.1180  -29.8164    8.6799 N   0  0  0  0  0  0  0  0  0  0  0  0
   24.0775  -29.5692   10.1115 C   0  0  0  0  0  0  0  0  0  0  0  0
   24.4807  -28.1745   10.4235 C   0  0  0  0  0  0  0  0  0  0  0  0
   24.9370  -27.4614    9.5052 O   0  0  0  0  0  0  0  0  0  0  0  0
   24.3603  -27.6386   11.7298 N   0  0  0  0  0  0  0  0  0  0  0  0
   24.7947  -26.2475   12.0253 C   0  0  1  0  0  0  0  0  0  0  0  0
   26.1725  -26.0320   11.5268 C   0  0  0  0  0  0  0  0  0  0  0  0
   27.2448  -26.6886   12.2945 C   0  0  0  0  0  0  0  0  0  0  0  0
   27.2896  -27.2887   13.5202 C   0  0  0  0  0  0  0  0  0  0  0  0
   28.5459  -27.7768   13.6598 N   0  0  0  0  0  0  0  0  0  0  0  0
   29.2743  -27.5036   12.5722 C   0  0  0  0  0  0  0  0  0  0  0  0
   28.4879  -26.8379   11.7294 N   0  0  0  0  0  0  0  0  0  0  0  0
   23.7988  -25.3557   11.3184 C   0  0  0  0  0  0  0  0  0  0  0  0
   24.0154  -23.9721   11.2571 O   0  0  0  0  0  0  0  0  0  0  0  0
   22.8016  -25.7999   10.7928 O   0  0  0  0  0  0  0  0  0  0  0  0
  2  3  2  0
  2  1  1  0
  4  3  1  0
  5  4  2  0
  6  7  1  0
  6  5  1  0
  7  8  1  6
  9  7  1  0
  9 13  1  0
 10  9  2  0
 11  5  1  0
 11 12  2  0
 12  2  1  0
 14 13  1  0
 15 14  1  0
 15 16  2  0
 17 18  1  0
 17 15  1  0
 18 19  1  6
 20 19  1  0
 20 21  2  0
 22 21  1  0
 23 22  1  0
 24 23  2  0
 24 20  1  0
 25 18  1  0
 26 25  1  0
 27 25  2  0
M  END
$$$$
