YGH.pdb
     RDKit          3D

 27 28  0  0  1  0  0  0  0  0999 V2000
   23.7854  -21.1402   -7.7988 O   0  0  0  0  0  0  0  0  0  0  0  0
   24.3211  -20.9494   -9.0624 C   0  0  0  0  0  0  0  0  0  0  0  0
   25.6828  -20.8515   -9.2899 C   0  0  0  0  0  0  0  0  0  0  0  0
   26.1818  -20.6616  -10.5616 C   0  0  0  0  0  0  0  0  0  0  0  0
   25.3293  -20.5665  -11.6244 C   0  0  0  0  0  0  0  0  0  0  0  0
   25.8020  -20.3611  -13.0249 C   0  0  0  0  0  0  0  0  0  0  0  0
   24.9166  -21.1787  -13.9229 C   0  0  2  0  0  0  0  0  0  0  0  0
   25.5664  -22.4416  -14.1918 N   0  0  0  0  0  0  0  0  0  0  0  0
   24.5511  -20.5186  -15.1674 C   0  0  0  0  0  0  0  0  0  0  0  0
   25.2280  -20.7460  -16.2009 O   0  0  0  0  0  0  0  0  0  0  0  0
   23.9648  -20.6673  -11.3752 C   0  0  0  0  0  0  0  0  0  0  0  0
   23.4488  -20.8549  -10.1282 C   0  0  0  0  0  0  0  0  0  0  0  0
   23.4690  -19.6249  -15.2936 N   0  0  0  0  0  0  0  0  0  0  0  0
   23.1313  -18.9668  -16.5448 C   0  0  0  0  0  0  0  0  0  0  0  0
   21.9655  -18.0629  -16.3742 C   0  0  0  0  0  0  0  0  0  0  0  0
   21.3732  -18.0474  -15.2747 O   0  0  0  0  0  0  0  0  0  0  0  0
   21.5136  -17.2239  -17.4229 N   0  0  0  0  0  0  0  0  0  0  0  0
   20.3262  -16.3477  -17.2393 C   0  0  1  0  0  0  0  0  0  0  0  0
   20.2087  -15.4107  -18.3801 C   0  0  0  0  0  0  0  0  0  0  0  0
   19.0918  -14.4525  -18.3136 C   0  0  0  0  0  0  0  0  0  0  0  0
   18.4523  -13.8262  -17.2825 C   0  0  0  0  0  0  0  0  0  0  0  0
   17.5413  -12.9968  -17.8467 N   0  0  0  0  0  0  0  0  0  0  0  0
   17.5947  -13.0856  -19.1799 C   0  0  0  0  0  0  0  0  0  0  0  0
   18.5406  -13.9736  -19.4772 N   0  0  0  0  0  0  0  0  0  0  0  0
   19.1420  -17.2851  -17.1618 C   0  0  0  0  0  0  0  0  0  0  0  0
   18.1077  -17.0355  -16.2491 O   0  0  0  0  0  0  0  0  0  0  0  0
   19.0511  -18.2624  -17.8722 O   0  0  0  0  0  0  0  0  0  0  0  0
  2  3  2  0
  2  1  1  0
  4  3  1  0
  5  4  2  0
  6  7  1  0
  6  5  1  0
  7  8  1  6
  9  7  1  0
  9 13  1  0
 10  9  2  0
 11  5  1  0
 11 12  2  0
 12  2  1  0
 14 13  1  0
 15 14  1  0
 15 16  2  0
 17 18  1  0
 17 15  1  0
 18 19  1  6
 20 19  1  0
 20 21  2  0
 22 21  1  0
 23 22  1  0
 24 23  2  0
 24 20  1  0
 25 18  1  0
 26 25  1  0
 27 25  2  0
M  END
$$$$
