YGH.pdb
     RDKit          3D

 27 28  0  0  1  0  0  0  0  0999 V2000
   29.1724  -20.1521   -3.7314 O   0  0  0  0  0  0  0  0  0  0  0  0
   28.7204  -20.0416   -5.0367 C   0  0  0  0  0  0  0  0  0  0  0  0
   29.5293  -19.6103   -6.0737 C   0  0  0  0  0  0  0  0  0  0  0  0
   29.0462  -19.5122   -7.3618 C   0  0  0  0  0  0  0  0  0  0  0  0
   27.7493  -19.8431   -7.6337 C   0  0  0  0  0  0  0  0  0  0  0  0
   27.1633  -19.7600   -9.0036 C   0  0  0  0  0  0  0  0  0  0  0  0
   27.4386  -21.0681   -9.6907 C   0  0  2  0  0  0  0  0  0  0  0  0
   28.8689  -21.2642   -9.7611 N   0  0  0  0  0  0  0  0  0  0  0  0
   26.8420  -21.1884  -11.0127 C   0  0  0  0  0  0  0  0  0  0  0  0
   27.3723  -20.5859  -11.9790 O   0  0  0  0  0  0  0  0  0  0  0  0
   26.9528  -20.2743   -6.5785 C   0  0  0  0  0  0  0  0  0  0  0  0
   27.4077  -20.3792   -5.2983 C   0  0  0  0  0  0  0  0  0  0  0  0
   25.6881  -21.9493  -11.2870 N   0  0  0  0  0  0  0  0  0  0  0  0
   24.8911  -21.7680  -12.4888 C   0  0  0  0  0  0  0  0  0  0  0  0
   23.7009  -20.9225  -12.2168 C   0  0  0  0  0  0  0  0  0  0  0  0
   23.7463  -20.1078  -11.2713 O   0  0  0  0  0  0  0  0  0  0  0  0
   22.5240  -21.0187  -13.0001 N   0  0  0  0  0  0  0  0  0  0  0  0
   21.4033  -20.0596  -12.8117 C   0  0  1  0  0  0  0  0  0  0  0  0
   21.5940  -18.8815  -13.6887 C   0  0  0  0  0  0  0  0  0  0  0  0
   20.5531  -17.8424  -13.6061 C   0  0  0  0  0  0  0  0  0  0  0  0
   20.0518  -17.0952  -12.5789 C   0  0  0  0  0  0  0  0  0  0  0  0
   19.1502  -16.2468  -13.1296 N   0  0  0  0  0  0  0  0  0  0  0  0
   19.0770  -16.4395  -14.4508 C   0  0  0  0  0  0  0  0  0  0  0  0
   19.9318  -17.4138  -14.7539 N   0  0  0  0  0  0  0  0  0  0  0  0
   20.1512  -20.8274  -13.1717 C   0  0  0  0  0  0  0  0  0  0  0  0
   20.2403  -21.9909  -13.9485 O   0  0  0  0  0  0  0  0  0  0  0  0
   19.0528  -20.4686  -12.8074 O   0  0  0  0  0  0  0  0  0  0  0  0
  2  3  2  0
  2  1  1  0
  4  3  1  0
  5  4  2  0
  6  7  1  0
  6  5  1  0
  7  8  1  6
  9  7  1  0
  9 13  1  0
 10  9  2  0
 11  5  1  0
 11 12  2  0
 12  2  1  0
 14 13  1  0
 15 14  1  0
 15 16  2  0
 17 18  1  0
 17 15  1  0
 18 19  1  6
 20 19  1  0
 20 21  2  0
 22 21  1  0
 23 22  1  0
 24 23  2  0
 24 20  1  0
 25 18  1  0
 26 25  1  0
 27 25  2  0
M  END
$$$$
