YGH.pdb
     RDKit          3D

 27 28  0  0  1  0  0  0  0  0999 V2000
   24.6521  -18.3311  -16.6634 O   0  0  0  0  0  0  0  0  0  0  0  0
   24.6334  -17.1060  -16.0161 C   0  0  0  0  0  0  0  0  0  0  0  0
   23.4865  -16.5775  -15.4496 C   0  0  0  0  0  0  0  0  0  0  0  0
   23.5040  -15.3545  -14.8124 C   0  0  0  0  0  0  0  0  0  0  0  0
   24.6659  -14.6412  -14.7313 C   0  0  0  0  0  0  0  0  0  0  0  0
   24.7545  -13.3129  -14.0569 C   0  0  0  0  0  0  0  0  0  0  0  0
   23.9835  -12.3312  -14.8941 C   0  0  2  0  0  0  0  0  0  0  0  0
   24.6178  -12.2253  -16.1886 N   0  0  0  0  0  0  0  0  0  0  0  0
   23.8345  -11.0153  -14.2905 C   0  0  0  0  0  0  0  0  0  0  0  0
   24.7233  -10.1494  -14.4864 O   0  0  0  0  0  0  0  0  0  0  0  0
   25.8073  -15.1892  -15.3066 C   0  0  0  0  0  0  0  0  0  0  0  0
   25.8143  -16.3951  -15.9410 C   0  0  0  0  0  0  0  0  0  0  0  0
   22.7402  -10.6400  -13.4860 N   0  0  0  0  0  0  0  0  0  0  0  0
   22.6095   -9.3165  -12.8997 C   0  0  0  0  0  0  0  0  0  0  0  0
   21.8601   -8.4053  -13.8017 C   0  0  0  0  0  0  0  0  0  0  0  0
   21.5654   -7.2629  -13.3918 O   0  0  0  0  0  0  0  0  0  0  0  0
   21.4750   -8.8000  -15.1070 N   0  0  0  0  0  0  0  0  0  0  0  0
   20.6361   -7.9118  -15.9548 C   0  0  1  0  0  0  0  0  0  0  0  0
   21.2219   -7.8074  -17.3109 C   0  0  0  0  0  0  0  0  0  0  0  0
   20.4708   -6.9847  -18.2749 C   0  0  0  0  0  0  0  0  0  0  0  0
   20.2251   -5.6453  -18.3751 C   0  0  0  0  0  0  0  0  0  0  0  0
   19.5267   -5.4709  -19.5230 N   0  0  0  0  0  0  0  0  0  0  0  0
   19.3339   -6.6451  -20.1330 C   0  0  0  0  0  0  0  0  0  0  0  0
   19.9080   -7.5791  -19.3781 N   0  0  0  0  0  0  0  0  0  0  0  0
   19.2689   -8.5574  -15.9847 C   0  0  0  0  0  0  0  0  0  0  0  0
   18.1168   -7.7674  -15.8677 O   0  0  0  0  0  0  0  0  0  0  0  0
   19.1284   -9.7545  -16.1085 O   0  0  0  0  0  0  0  0  0  0  0  0
  2  3  2  0
  2  1  1  0
  4  3  1  0
  5  4  2  0
  6  7  1  0
  6  5  1  0
  7  8  1  6
  9  7  1  0
  9 13  1  0
 10  9  2  0
 11  5  1  0
 11 12  2  0
 12  2  1  0
 14 13  1  0
 15 14  1  0
 15 16  2  0
 17 18  1  0
 17 15  1  0
 18 19  1  6
 20 19  1  0
 20 21  2  0
 22 21  1  0
 23 22  1  0
 24 23  2  0
 24 20  1  0
 25 18  1  0
 26 25  1  0
 27 25  2  0
M  END
$$$$
