MAQ.pdb
     RDKit          3D

 23 22  0  0  1  0  0  0  0  0999 V2000
    5.3073  -11.0888   27.3491 C   0  0  0  0  0  0  0  0  0  0  0  0
    6.7225  -12.1427   26.8928 S   0  0  0  0  0  0  0  0  0  0  0  0
    6.1489  -13.5732   25.9011 C   0  0  0  0  0  0  0  0  0  0  0  0
    7.3175  -14.3154   25.3183 C   0  0  0  0  0  0  0  0  0  0  0  0
    6.9443  -15.4661   24.4411 C   0  0  2  0  0  0  0  0  0  0  0  0
    6.2203  -16.4134   25.2846 N   0  0  0  0  0  0  0  0  0  0  0  0
    8.0566  -16.0970   23.7255 C   0  0  0  0  0  0  0  0  0  0  0  0
    8.6925  -17.0756   24.2198 O   0  0  0  0  0  0  0  0  0  0  0  0
    9.6926  -15.6496   20.3758 C   0  0  0  0  0  0  0  0  0  0  0  0
    9.6427  -16.2780   21.7763 C   0  0  2  0  0  0  0  0  0  0  0  0
    8.5226  -15.6877   22.4399 N   0  0  0  0  0  0  0  0  0  0  0  0
   10.9177  -16.0993   22.4452 C   0  0  0  0  0  0  0  0  0  0  0  0
   11.4016  -14.9604   22.6000 O   0  0  0  0  0  0  0  0  0  0  0  0
   10.3030  -15.4988   27.8671 N   0  0  0  0  0  0  0  0  0  0  0  0
   11.5678  -15.9387   27.4403 C   0  0  0  0  0  0  0  0  0  0  0  0
   12.6064  -15.2923   27.6460 O   0  0  0  0  0  0  0  0  0  0  0  0
   11.6471  -17.2482   26.7064 C   0  0  0  0  0  0  0  0  0  0  0  0
   11.1020  -17.0707   25.3166 C   0  0  0  0  0  0  0  0  0  0  0  0
   12.1349  -17.3172   24.2989 C   0  0  2  0  0  0  0  0  0  0  0  0
   11.6396  -17.2078   22.9352 N   0  0  0  0  0  0  0  0  0  0  0  0
   12.8583  -18.5699   24.4289 C   0  0  0  0  0  0  0  0  0  0  0  0
   12.3799  -19.6559   23.9126 O   0  0  0  0  0  0  0  0  0  0  0  0
   14.0710  -18.7706   25.0707 O   0  0  0  0  0  0  0  0  0  0  0  0
  2  1  1  0
  3  2  1  0
  4  3  1  0
  5  4  1  0
  5  6  1  1
  7 11  1  0
  7  5  1  0
  8  7  2  0
 10  9  1  6
 10 11  1  0
 10 12  1  0
 12 20  1  0
 13 12  2  0
 14 15  1  0
 15 17  1  0
 16 15  2  0
 17 18  1  0
 19 21  1  0
 19 18  1  1
 20 19  1  0
 21 23  1  0
 22 21  2  0
M  END
$$$$
