MAQ.pdb
     RDKit          3D

 23 22  0  0  1  0  0  0  0  0999 V2000
    7.6270  -11.5909   20.1436 C   0  0  0  0  0  0  0  0  0  0  0  0
    7.2889  -12.7108   18.7459 S   0  0  0  0  0  0  0  0  0  0  0  0
    7.6156  -14.4462   19.2359 C   0  0  0  0  0  0  0  0  0  0  0  0
    8.8528  -14.5327   20.0831 C   0  0  0  0  0  0  0  0  0  0  0  0
    9.1477  -15.8997   20.6098 C   0  0  2  0  0  0  0  0  0  0  0  0
    8.1582  -16.7954   20.0166 N   0  0  0  0  0  0  0  0  0  0  0  0
    9.1955  -16.0135   22.0699 C   0  0  0  0  0  0  0  0  0  0  0  0
   10.0123  -15.3342   22.7612 O   0  0  0  0  0  0  0  0  0  0  0  0
    7.0047  -17.4181   24.7128 C   0  0  0  0  0  0  0  0  0  0  0  0
    8.4013  -16.9626   24.2644 C   0  0  2  0  0  0  0  0  0  0  0  0
    8.3542  -16.8730   22.8386 N   0  0  0  0  0  0  0  0  0  0  0  0
    9.4090  -17.8640   24.7907 C   0  0  0  0  0  0  0  0  0  0  0  0
    9.2462  -19.0995   24.7425 O   0  0  0  0  0  0  0  0  0  0  0  0
    9.5906  -13.7131   28.4904 N   0  0  0  0  0  0  0  0  0  0  0  0
   10.0673  -14.6793   29.3929 C   0  0  0  0  0  0  0  0  0  0  0  0
   10.3596  -14.4115   30.5684 O   0  0  0  0  0  0  0  0  0  0  0  0
   10.2232  -16.0898   28.8970 C   0  0  0  0  0  0  0  0  0  0  0  0
   10.0757  -16.1079   27.4010 C   0  0  0  0  0  0  0  0  0  0  0  0
   10.8080  -17.2344   26.8027 C   0  0  2  0  0  0  0  0  0  0  0  0
   10.5951  -17.3653   25.3693 N   0  0  0  0  0  0  0  0  0  0  0  0
   10.5853  -18.5286   27.4231 C   0  0  0  0  0  0  0  0  0  0  0  0
    9.3902  -19.0198   27.4964 O   0  0  0  0  0  0  0  0  0  0  0  0
   11.5426  -19.3625   27.9806 O   0  0  0  0  0  0  0  0  0  0  0  0
  2  1  1  0
  3  2  1  0
  4  3  1  0
  5  4  1  0
  5  6  1  1
  7 11  1  0
  7  5  1  0
  8  7  2  0
 10  9  1  6
 10 11  1  0
 10 12  1  0
 12 20  1  0
 13 12  2  0
 14 15  1  0
 15 17  1  0
 16 15  2  0
 17 18  1  0
 19 21  1  0
 19 18  1  1
 20 19  1  0
 21 23  1  0
 22 21  2  0
M  END
$$$$
