MAQ.pdb
     RDKit          3D

 23 22  0  0  1  0  0  0  0  0999 V2000
    5.8616  -11.5631   27.4468 C   0  0  0  0  0  0  0  0  0  0  0  0
    6.0935  -11.2860   25.6603 S   0  0  0  0  0  0  0  0  0  0  0  0
    7.1930  -12.5744   24.9605 C   0  0  0  0  0  0  0  0  0  0  0  0
    7.0031  -13.8794   25.6796 C   0  0  0  0  0  0  0  0  0  0  0  0
    7.8922  -14.9826   25.2047 C   0  0  2  0  0  0  0  0  0  0  0  0
    8.3720  -14.5889   23.8826 N   0  0  0  0  0  0  0  0  0  0  0  0
    7.2893  -16.3181   25.2018 C   0  0  0  0  0  0  0  0  0  0  0  0
    6.7312  -16.7954   26.2349 O   0  0  0  0  0  0  0  0  0  0  0  0
    6.4858  -18.9087   22.6353 C   0  0  0  0  0  0  0  0  0  0  0  0
    6.7276  -18.5128   24.0995 C   0  0  2  0  0  0  0  0  0  0  0  0
    7.2689  -17.1901   24.0720 N   0  0  0  0  0  0  0  0  0  0  0  0
    7.5627  -19.5054   24.7495 C   0  0  0  0  0  0  0  0  0  0  0  0
    7.1634  -20.6781   24.8936 O   0  0  0  0  0  0  0  0  0  0  0  0
   13.3804  -18.8569   23.1080 N   0  0  0  0  0  0  0  0  0  0  0  0
   13.0846  -19.5673   24.2840 C   0  0  0  0  0  0  0  0  0  0  0  0
   13.8078  -20.4776   24.7167 O   0  0  0  0  0  0  0  0  0  0  0  0
   11.8371  -19.1958   25.0360 C   0  0  0  0  0  0  0  0  0  0  0  0
   10.9518  -20.4051   25.1549 C   0  0  0  0  0  0  0  0  0  0  0  0
    9.7284  -20.1027   25.9132 C   0  0  2  0  0  0  0  0  0  0  0  0
    8.8441  -19.1682   25.2338 N   0  0  0  0  0  0  0  0  0  0  0  0
    9.9318  -19.6399   27.2749 C   0  0  0  0  0  0  0  0  0  0  0  0
   10.4586  -20.4249   28.1587 O   0  0  0  0  0  0  0  0  0  0  0  0
    9.6196  -18.3896   27.7866 O   0  0  0  0  0  0  0  0  0  0  0  0
  2  1  1  0
  3  2  1  0
  4  3  1  0
  5  4  1  0
  5  6  1  6
  7 11  1  0
  7  5  1  0
  8  7  2  0
 10  9  1  6
 10 11  1  0
 10 12  1  0
 12 20  1  0
 13 12  2  0
 14 15  1  0
 15 17  1  0
 16 15  2  0
 17 18  1  0
 19 21  1  0
 19 18  1  6
 20 19  1  0
 21 23  1  0
 22 21  2  0
M  END
$$$$
