MAQ.pdb
     RDKit          3D

 23 22  0  0  1  0  0  0  0  0999 V2000
    5.3438  -11.8132   26.9667 C   0  0  0  0  0  0  0  0  0  0  0  0
    6.8342  -12.7370   26.4697 S   0  0  0  0  0  0  0  0  0  0  0  0
    6.5486  -13.5785   24.8669 C   0  0  0  0  0  0  0  0  0  0  0  0
    5.6089  -14.7377   25.0382 C   0  0  0  0  0  0  0  0  0  0  0  0
    6.2640  -16.0793   24.9779 C   0  0  2  0  0  0  0  0  0  0  0  0
    6.9785  -16.2495   26.2404 N   0  0  0  0  0  0  0  0  0  0  0  0
    7.1278  -16.3050   23.8160 C   0  0  0  0  0  0  0  0  0  0  0  0
    6.9942  -17.3280   23.0796 O   0  0  0  0  0  0  0  0  0  0  0  0
    9.5677  -14.5550   21.6946 C   0  0  0  0  0  0  0  0  0  0  0  0
    9.2314  -15.8037   22.5233 C   0  0  2  0  0  0  0  0  0  0  0  0
    8.1741  -15.4243   23.4072 N   0  0  0  0  0  0  0  0  0  0  0  0
   10.4278  -16.3030   23.1747 C   0  0  0  0  0  0  0  0  0  0  0  0
   11.4684  -16.5141   22.5205 O   0  0  0  0  0  0  0  0  0  0  0  0
   11.2654  -15.5621   29.2348 N   0  0  0  0  0  0  0  0  0  0  0  0
   10.5255  -14.8174   28.3003 C   0  0  0  0  0  0  0  0  0  0  0  0
    9.8056  -13.8608   28.6251 O   0  0  0  0  0  0  0  0  0  0  0  0
   10.6221  -15.2096   26.8524 C   0  0  0  0  0  0  0  0  0  0  0  0
   11.5859  -16.3550   26.7128 C   0  0  0  0  0  0  0  0  0  0  0  0
   11.6505  -16.8364   25.3245 C   0  0  2  0  0  0  0  0  0  0  0  0
   10.4425  -16.5618   24.5614 N   0  0  0  0  0  0  0  0  0  0  0  0
   11.9915  -18.2388   25.1614 C   0  0  0  0  0  0  0  0  0  0  0  0
   11.1614  -19.0495   24.5881 O   0  0  0  0  0  0  0  0  0  0  0  0
   13.1626  -18.8647   25.5608 O   0  0  0  0  0  0  0  0  0  0  0  0
  2  1  1  0
  3  2  1  0
  4  3  1  0
  5  4  1  0
  5  6  1  1
  7 11  1  0
  7  5  1  0
  8  7  2  0
 10  9  1  1
 10 11  1  0
 10 12  1  0
 12 20  1  0
 13 12  2  0
 14 15  1  0
 15 17  1  0
 16 15  2  0
 17 18  1  0
 19 21  1  0
 19 18  1  1
 20 19  1  0
 21 23  1  0
 22 21  2  0
M  END
$$$$
