MAQ.pdb
     RDKit          3D

 23 22  0  0  1  0  0  0  0  0999 V2000
    8.6821  -11.9210   19.5691 C   0  0  0  0  0  0  0  0  0  0  0  0
    7.6790  -12.6084   20.9267 S   0  0  0  0  0  0  0  0  0  0  0  0
    7.7510  -14.4395   20.8985 C   0  0  0  0  0  0  0  0  0  0  0  0
    7.0029  -15.0162   22.0664 C   0  0  0  0  0  0  0  0  0  0  0  0
    6.9674  -16.5097   22.1018 C   0  0  2  0  0  0  0  0  0  0  0  0
    6.0998  -16.9304   21.0048 N   0  0  0  0  0  0  0  0  0  0  0  0
    6.5682  -17.0983   23.3829 C   0  0  0  0  0  0  0  0  0  0  0  0
    5.3494  -17.2908   23.6726 O   0  0  0  0  0  0  0  0  0  0  0  0
    6.4128  -19.5504   24.9463 C   0  0  0  0  0  0  0  0  0  0  0  0
    7.1137  -18.3113   25.5227 C   0  0  2  0  0  0  0  0  0  0  0  0
    7.4813  -17.5026   24.4029 N   0  0  0  0  0  0  0  0  0  0  0  0
    8.2148  -18.7170   26.3759 C   0  0  0  0  0  0  0  0  0  0  0  0
    8.1256  -18.6281   27.6166 O   0  0  0  0  0  0  0  0  0  0  0  0
    9.9184  -15.4143   23.9782 N   0  0  0  0  0  0  0  0  0  0  0  0
   10.9402  -16.1854   23.3978 C   0  0  0  0  0  0  0  0  0  0  0  0
   11.3677  -15.9776   22.2520 O   0  0  0  0  0  0  0  0  0  0  0  0
   11.5279  -17.3034   24.2129 C   0  0  0  0  0  0  0  0  0  0  0  0
   10.9045  -17.2995   25.5810 C   0  0  0  0  0  0  0  0  0  0  0  0
   10.7288  -18.6664   26.0950 C   0  0  2  0  0  0  0  0  0  0  0  0
    9.4112  -19.2205   25.8232 N   0  0  0  0  0  0  0  0  0  0  0  0
   11.0256  -18.8501   27.5048 C   0  0  0  0  0  0  0  0  0  0  0  0
   12.2458  -18.7748   27.9297 O   0  0  0  0  0  0  0  0  0  0  0  0
   10.1191  -19.1094   28.5216 O   0  0  0  0  0  0  0  0  0  0  0  0
  2  1  1  0
  3  2  1  0
  4  3  1  0
  5  4  1  0
  5  6  1  6
  7 11  1  0
  7  5  1  0
  8  7  2  0
 10  9  1  6
 10 11  1  0
 10 12  1  0
 12 20  1  0
 13 12  2  0
 14 15  1  0
 15 17  1  0
 16 15  2  0
 17 18  1  0
 19 21  1  0
 19 18  1  1
 20 19  1  0
 21 23  1  0
 22 21  2  0
M  END
$$$$
