MAQ.pdb
     RDKit          3D

 23 22  0  0  1  0  0  0  0  0999 V2000
    8.0833  -11.5564   20.1057 C   0  0  0  0  0  0  0  0  0  0  0  0
    7.7719  -12.5489   18.6091 S   0  0  0  0  0  0  0  0  0  0  0  0
    8.2868  -14.2857   18.8865 C   0  0  0  0  0  0  0  0  0  0  0  0
    7.7083  -14.8104   20.1696 C   0  0  0  0  0  0  0  0  0  0  0  0
    8.7115  -15.4092   21.1013 C   0  0  2  0  0  0  0  0  0  0  0  0
    9.5449  -16.2994   20.2976 N   0  0  0  0  0  0  0  0  0  0  0  0
    8.1533  -16.0820   22.2773 C   0  0  0  0  0  0  0  0  0  0  0  0
    7.1997  -15.5749   22.9406 O   0  0  0  0  0  0  0  0  0  0  0  0
    8.5365  -19.4458   23.8656 C   0  0  0  0  0  0  0  0  0  0  0  0
    8.0432  -17.9922   23.9164 C   0  0  2  0  0  0  0  0  0  0  0  0
    8.6111  -17.3371   22.7800 N   0  0  0  0  0  0  0  0  0  0  0  0
    8.3776  -17.4001   25.1981 C   0  0  0  0  0  0  0  0  0  0  0  0
    7.8839  -17.8448   26.2535 O   0  0  0  0  0  0  0  0  0  0  0  0
    7.0839  -12.8323   28.1036 N   0  0  0  0  0  0  0  0  0  0  0  0
    7.0740  -12.8892   26.6993 C   0  0  0  0  0  0  0  0  0  0  0  0
    6.4923  -12.0467   25.9987 O   0  0  0  0  0  0  0  0  0  0  0  0
    7.8032  -14.0239   26.0355 C   0  0  0  0  0  0  0  0  0  0  0  0
    8.4823  -14.8580   27.0858 C   0  0  0  0  0  0  0  0  0  0  0  0
    9.6028  -15.6251   26.5209 C   0  0  2  0  0  0  0  0  0  0  0  0
    9.2676  -16.3086   25.2809 N   0  0  0  0  0  0  0  0  0  0  0  0
   10.2274  -16.5793   27.4204 C   0  0  0  0  0  0  0  0  0  0  0  0
    9.5069  -17.4528   28.0472 O   0  0  0  0  0  0  0  0  0  0  0  0
   11.5781  -16.6884   27.7142 O   0  0  0  0  0  0  0  0  0  0  0  0
  2  1  1  0
  3  2  1  0
  4  3  1  0
  5  4  1  0
  5  6  1  6
  7 11  1  0
  7  5  1  0
  8  7  2  0
 10  9  1  1
 10 11  1  0
 10 12  1  0
 12 20  1  0
 13 12  2  0
 14 15  1  0
 15 17  1  0
 16 15  2  0
 17 18  1  0
 19 21  1  0
 19 18  1  1
 20 19  1  0
 21 23  1  0
 22 21  2  0
M  END
$$$$
