MAQ.pdb
     RDKit          3D

 23 22  0  0  1  0  0  0  0  0999 V2000
    5.9404  -11.0250   26.4976 C   0  0  0  0  0  0  0  0  0  0  0  0
    7.1345  -11.9641   25.4905 S   0  0  0  0  0  0  0  0  0  0  0  0
    6.2547  -12.9160   24.1949 C   0  0  0  0  0  0  0  0  0  0  0  0
    7.2328  -13.6421   23.3161 C   0  0  0  0  0  0  0  0  0  0  0  0
    7.5719  -15.0226   23.7767 C   0  0  2  0  0  0  0  0  0  0  0  0
    7.9024  -14.9173   25.1955 N   0  0  0  0  0  0  0  0  0  0  0  0
    8.6212  -15.7004   23.0107 C   0  0  0  0  0  0  0  0  0  0  0  0
    8.3431  -16.4663   22.0398 O   0  0  0  0  0  0  0  0  0  0  0  0
   12.1951  -15.8429   22.3647 C   0  0  0  0  0  0  0  0  0  0  0  0
   10.9818  -16.5789   22.9522 C   0  0  2  0  0  0  0  0  0  0  0  0
   10.0188  -15.5717   23.2707 N   0  0  0  0  0  0  0  0  0  0  0  0
   11.3976  -17.4069   24.0687 C   0  0  0  0  0  0  0  0  0  0  0  0
   12.3970  -18.1471   23.9754 O   0  0  0  0  0  0  0  0  0  0  0  0
    9.8911  -13.8429   28.5147 N   0  0  0  0  0  0  0  0  0  0  0  0
   10.6347  -15.0105   28.7576 C   0  0  0  0  0  0  0  0  0  0  0  0
   10.8707  -15.4286   29.9014 O   0  0  0  0  0  0  0  0  0  0  0  0
   11.1578  -15.7716   27.5715 C   0  0  0  0  0  0  0  0  0  0  0  0
   10.8043  -17.2251   27.7207 C   0  0  0  0  0  0  0  0  0  0  0  0
   11.1673  -17.9922   26.5194 C   0  0  2  0  0  0  0  0  0  0  0  0
   10.6821  -17.3950   25.2845 N   0  0  0  0  0  0  0  0  0  0  0  0
   10.7919  -19.3952   26.5329 C   0  0  0  0  0  0  0  0  0  0  0  0
    9.9350  -19.8494   25.6760 O   0  0  0  0  0  0  0  0  0  0  0  0
   11.2602  -20.3760   27.3939 O   0  0  0  0  0  0  0  0  0  0  0  0
  2  1  1  0
  3  2  1  0
  4  3  1  0
  5  4  1  0
  5  6  1  1
  7 11  1  0
  7  5  1  0
  8  7  2  0
 10  9  1  1
 10 11  1  0
 10 12  1  0
 12 20  1  0
 13 12  2  0
 14 15  1  0
 15 17  1  0
 16 15  2  0
 17 18  1  0
 19 21  1  0
 19 18  1  1
 20 19  1  0
 21 23  1  0
 22 21  2  0
M  END
$$$$
