MAQ.pdb
     RDKit          3D

 23 22  0  0  1  0  0  0  0  0999 V2000
    5.4114  -10.6654   26.2416 C   0  0  0  0  0  0  0  0  0  0  0  0
    6.7769  -11.8725   26.2326 S   0  0  0  0  0  0  0  0  0  0  0  0
    6.6531  -12.9528   24.7574 C   0  0  0  0  0  0  0  0  0  0  0  0
    7.8236  -13.8917   24.6897 C   0  0  0  0  0  0  0  0  0  0  0  0
    7.7096  -14.9478   23.6387 C   0  0  2  0  0  0  0  0  0  0  0  0
    6.3497  -15.4736   23.7244 N   0  0  0  0  0  0  0  0  0  0  0  0
    8.7198  -16.0073   23.7006 C   0  0  0  0  0  0  0  0  0  0  0  0
    8.5485  -17.0459   24.4068 O   0  0  0  0  0  0  0  0  0  0  0  0
   12.0526  -16.6643   22.1094 C   0  0  0  0  0  0  0  0  0  0  0  0
   11.0271  -16.9021   23.2277 C   0  0  2  0  0  0  0  0  0  0  0  0
    9.9601  -15.9798   22.9947 N   0  0  0  0  0  0  0  0  0  0  0  0
   11.6701  -16.7837   24.5229 C   0  0  0  0  0  0  0  0  0  0  0  0
   11.9144  -15.6632   25.0128 O   0  0  0  0  0  0  0  0  0  0  0  0
    9.9386  -14.9679   27.1842 N   0  0  0  0  0  0  0  0  0  0  0  0
   10.3988  -15.4396   28.4255 C   0  0  0  0  0  0  0  0  0  0  0  0
   10.5317  -14.7029   29.4147 O   0  0  0  0  0  0  0  0  0  0  0  0
   10.7393  -16.8992   28.5418 C   0  0  0  0  0  0  0  0  0  0  0  0
   10.5919  -17.5509   27.1951 C   0  0  0  0  0  0  0  0  0  0  0  0
   11.8809  -18.0568   26.6993 C   0  0  2  0  0  0  0  0  0  0  0  0
   12.0343  -17.9316   25.2578 N   0  0  0  0  0  0  0  0  0  0  0  0
   12.2107  -19.4183   27.0827 C   0  0  0  0  0  0  0  0  0  0  0  0
   11.9110  -20.4064   26.3024 O   0  0  0  0  0  0  0  0  0  0  0  0
   12.8461  -19.8271   28.2453 O   0  0  0  0  0  0  0  0  0  0  0  0
  2  1  1  0
  3  2  1  0
  4  3  1  0
  5  4  1  0
  5  6  1  1
  7 11  1  0
  7  5  1  0
  8  7  2  0
 10  9  1  6
 10 11  1  0
 10 12  1  0
 12 20  1  0
 13 12  2  0
 14 15  1  0
 15 17  1  0
 16 15  2  0
 17 18  1  0
 19 21  1  0
 19 18  1  6
 20 19  1  0
 21 23  1  0
 22 21  2  0
M  END
$$$$
