MAQ.pdb
     RDKit          3D

 23 22  0  0  1  0  0  0  0  0999 V2000
    6.6306  -10.8352   25.6460 C   0  0  0  0  0  0  0  0  0  0  0  0
    5.4433  -11.7086   26.7181 S   0  0  0  0  0  0  0  0  0  0  0  0
    5.9757  -13.4448   26.9643 C   0  0  0  0  0  0  0  0  0  0  0  0
    6.3041  -14.0891   25.6478 C   0  0  0  0  0  0  0  0  0  0  0  0
    7.4956  -14.9903   25.6801 C   0  0  2  0  0  0  0  0  0  0  0  0
    8.6153  -14.1811   26.1539 N   0  0  0  0  0  0  0  0  0  0  0  0
    7.7991  -15.6758   24.4211 C   0  0  0  0  0  0  0  0  0  0  0  0
    7.1053  -16.6563   24.0164 O   0  0  0  0  0  0  0  0  0  0  0  0
    9.0306  -15.2847   21.1820 C   0  0  0  0  0  0  0  0  0  0  0  0
    9.2941  -16.1214   22.4427 C   0  0  2  0  0  0  0  0  0  0  0  0
    8.8722  -15.3209   23.5494 N   0  0  0  0  0  0  0  0  0  0  0  0
   10.6835  -16.5377   22.4795 C   0  0  0  0  0  0  0  0  0  0  0  0
   11.0891  -17.4681   21.7549 O   0  0  0  0  0  0  0  0  0  0  0  0
   10.3478  -14.8938   27.7780 N   0  0  0  0  0  0  0  0  0  0  0  0
   11.0647  -16.0643   28.0798 C   0  0  0  0  0  0  0  0  0  0  0  0
   11.4030  -16.3636   29.2352 O   0  0  0  0  0  0  0  0  0  0  0  0
   11.4280  -16.9800   26.9443 C   0  0  0  0  0  0  0  0  0  0  0  0
   10.9711  -16.3682   25.6493 C   0  0  0  0  0  0  0  0  0  0  0  0
   12.0231  -16.4343   24.6234 C   0  0  2  0  0  0  0  0  0  0  0  0
   11.6073  -15.9013   23.3350 N   0  0  0  0  0  0  0  0  0  0  0  0
   12.6134  -17.7446   24.4129 C   0  0  0  0  0  0  0  0  0  0  0  0
   13.8939  -17.9062   24.5094 O   0  0  0  0  0  0  0  0  0  0  0  0
   11.9465  -18.9206   24.1051 O   0  0  0  0  0  0  0  0  0  0  0  0
  2  1  1  0
  3  2  1  0
  4  3  1  0
  5  4  1  0
  5  6  1  6
  7 11  1  0
  7  5  1  0
  8  7  2  0
 10  9  1  6
 10 11  1  0
 10 12  1  0
 12 20  1  0
 13 12  2  0
 14 15  1  0
 15 17  1  0
 16 15  2  0
 17 18  1  0
 19 21  1  0
 19 18  1  1
 20 19  1  0
 21 23  1  0
 22 21  2  0
M  END
$$$$
