MAQ.pdb
     RDKit          3D

 23 22  0  0  1  0  0  0  0  0999 V2000
    7.9249  -11.5396   26.0515 C   0  0  0  0  0  0  0  0  0  0  0  0
    6.1612  -11.9879   26.1522 S   0  0  0  0  0  0  0  0  0  0  0  0
    5.8986  -13.6690   25.4714 C   0  0  0  0  0  0  0  0  0  0  0  0
    7.2121  -14.3120   25.1288 C   0  0  0  0  0  0  0  0  0  0  0  0
    7.0943  -15.5893   24.3623 C   0  0  2  0  0  0  0  0  0  0  0  0
    6.2487  -16.4748   25.1586 N   0  0  0  0  0  0  0  0  0  0  0  0
    8.3645  -16.2191   23.9919 C   0  0  0  0  0  0  0  0  0  0  0  0
    8.7918  -17.2513   24.5907 O   0  0  0  0  0  0  0  0  0  0  0  0
   10.7611  -15.8163   21.1468 C   0  0  0  0  0  0  0  0  0  0  0  0
   10.3619  -16.4715   22.4773 C   0  0  2  0  0  0  0  0  0  0  0  0
    9.2229  -15.7502   22.9524 N   0  0  0  0  0  0  0  0  0  0  0  0
   11.4975  -16.4913   23.3801 C   0  0  0  0  0  0  0  0  0  0  0  0
   12.5282  -17.1320   23.0932 O   0  0  0  0  0  0  0  0  0  0  0  0
   10.7912  -14.7017   28.8991 N   0  0  0  0  0  0  0  0  0  0  0  0
   11.3890  -15.9201   29.2644 C   0  0  0  0  0  0  0  0  0  0  0  0
   11.7357  -16.1739   30.4281 O   0  0  0  0  0  0  0  0  0  0  0  0
   11.6098  -16.9465   28.1885 C   0  0  0  0  0  0  0  0  0  0  0  0
   10.9940  -16.4600   26.9062 C   0  0  0  0  0  0  0  0  0  0  0  0
   12.0062  -16.2999   25.8511 C   0  0  2  0  0  0  0  0  0  0  0  0
   11.4626  -15.7878   24.6024 N   0  0  0  0  0  0  0  0  0  0  0  0
   12.8015  -17.4798   25.5596 C   0  0  0  0  0  0  0  0  0  0  0  0
   13.6573  -17.9198   26.4251 O   0  0  0  0  0  0  0  0  0  0  0  0
   12.7625  -18.2482   24.4060 O   0  0  0  0  0  0  0  0  0  0  0  0
  2  1  1  0
  3  2  1  0
  4  3  1  0
  5  4  1  0
  5  6  1  1
  7 11  1  0
  7  5  1  0
  8  7  2  0
 10  9  1  6
 10 11  1  0
 10 12  1  0
 12 20  1  0
 13 12  2  0
 14 15  1  0
 15 17  1  0
 16 15  2  0
 17 18  1  0
 19 21  1  0
 19 18  1  1
 20 19  1  0
 21 23  1  0
 22 21  2  0
M  END
$$$$
