MAQ.pdb
     RDKit          3D

 23 22  0  0  1  0  0  0  0  0999 V2000
    6.4715  -12.7201   26.9538 C   0  0  0  0  0  0  0  0  0  0  0  0
    5.8661  -12.0198   25.3838 S   0  0  0  0  0  0  0  0  0  0  0  0
    6.8443  -12.6790   23.9812 C   0  0  0  0  0  0  0  0  0  0  0  0
    7.0065  -14.1673   24.1028 C   0  0  0  0  0  0  0  0  0  0  0  0
    8.3971  -14.6144   24.4181 C   0  0  2  0  0  0  0  0  0  0  0  0
    9.2758  -13.9395   23.4665 N   0  0  0  0  0  0  0  0  0  0  0  0
    8.6026  -16.0651   24.4316 C   0  0  0  0  0  0  0  0  0  0  0  0
    7.8255  -16.8386   25.0676 O   0  0  0  0  0  0  0  0  0  0  0  0
   10.8309  -18.4995   22.6773 C   0  0  0  0  0  0  0  0  0  0  0  0
    9.9119  -18.1386   23.8538 C   0  0  2  0  0  0  0  0  0  0  0  0
    9.6643  -16.7345   23.7518 N   0  0  0  0  0  0  0  0  0  0  0  0
   10.5140  -18.5676   25.1023 C   0  0  0  0  0  0  0  0  0  0  0  0
   10.8750  -19.7506   25.2620 O   0  0  0  0  0  0  0  0  0  0  0  0
   11.5643  -13.4444   28.0215 N   0  0  0  0  0  0  0  0  0  0  0  0
   11.0189  -14.5447   28.7051 C   0  0  0  0  0  0  0  0  0  0  0  0
   10.9196  -14.5832   29.9410 O   0  0  0  0  0  0  0  0  0  0  0  0
   10.5412  -15.7138   27.8898 C   0  0  0  0  0  0  0  0  0  0  0  0
   11.0799  -16.9852   28.4844 C   0  0  0  0  0  0  0  0  0  0  0  0
   11.2569  -18.0248   27.4591 C   0  0  2  0  0  0  0  0  0  0  0  0
   10.7046  -17.6583   26.1639 N   0  0  0  0  0  0  0  0  0  0  0  0
   10.7678  -19.3458   27.8131 C   0  0  0  0  0  0  0  0  0  0  0  0
    9.8307  -19.9028   27.1157 O   0  0  0  0  0  0  0  0  0  0  0  0
   11.1993  -20.1416   28.8634 O   0  0  0  0  0  0  0  0  0  0  0  0
  2  1  1  0
  3  2  1  0
  4  3  1  0
  5  4  1  0
  5  6  1  6
  7 11  1  0
  7  5  1  0
  8  7  2  0
 10  9  1  6
 10 11  1  0
 10 12  1  0
 12 20  1  0
 13 12  2  0
 14 15  1  0
 15 17  1  0
 16 15  2  0
 17 18  1  0
 19 21  1  0
 19 18  1  1
 20 19  1  0
 21 23  1  0
 22 21  2  0
M  END
$$$$
