MAQ.pdb
     RDKit          3D

 23 22  0  0  1  0  0  0  0  0999 V2000
    8.9982  -11.7511   20.4078 C   0  0  0  0  0  0  0  0  0  0  0  0
    7.5699  -12.7931   19.9650 S   0  0  0  0  0  0  0  0  0  0  0  0
    8.0313  -14.5646   20.0524 C   0  0  0  0  0  0  0  0  0  0  0  0
    8.2335  -14.9887   21.4791 C   0  0  0  0  0  0  0  0  0  0  0  0
    8.7916  -16.3652   21.6421 C   0  0  2  0  0  0  0  0  0  0  0  0
    8.0504  -17.2252   20.7232 N   0  0  0  0  0  0  0  0  0  0  0  0
    8.7910  -16.8852   23.0121 C   0  0  0  0  0  0  0  0  0  0  0  0
    8.0698  -17.8726   23.3458 O   0  0  0  0  0  0  0  0  0  0  0  0
   11.2542  -18.0196   24.2585 C   0  0  0  0  0  0  0  0  0  0  0  0
   10.2567  -17.1549   25.0435 C   0  0  2  0  0  0  0  0  0  0  0  0
    9.5773  -16.3506   24.0767 N   0  0  0  0  0  0  0  0  0  0  0  0
   10.9513  -16.4147   26.0801 C   0  0  0  0  0  0  0  0  0  0  0  0
   11.6688  -17.0047   26.9122 O   0  0  0  0  0  0  0  0  0  0  0  0
    6.6486  -12.9828   25.2395 N   0  0  0  0  0  0  0  0  0  0  0  0
    6.6100  -12.8148   26.6344 C   0  0  0  0  0  0  0  0  0  0  0  0
    5.8142  -12.0458   27.1948 O   0  0  0  0  0  0  0  0  0  0  0  0
    7.5796  -13.6073   27.4661 C   0  0  0  0  0  0  0  0  0  0  0  0
    8.5042  -14.3688   26.5576 C   0  0  0  0  0  0  0  0  0  0  0  0
    9.8902  -14.3320   27.0485 C   0  0  2  0  0  0  0  0  0  0  0  0
   10.8315  -15.0121   26.1718 N   0  0  0  0  0  0  0  0  0  0  0  0
   10.0894  -14.8146   28.4039 C   0  0  0  0  0  0  0  0  0  0  0  0
   10.4002  -16.0528   28.6163 O   0  0  0  0  0  0  0  0  0  0  0  0
    9.9871  -14.0792   29.5749 O   0  0  0  0  0  0  0  0  0  0  0  0
  2  1  1  0
  3  2  1  0
  4  3  1  0
  5  4  1  0
  5  6  1  6
  7 11  1  0
  7  5  1  0
  8  7  2  0
 10  9  1  6
 10 11  1  0
 10 12  1  0
 12 20  1  0
 13 12  2  0
 14 15  1  0
 15 17  1  0
 16 15  2  0
 17 18  1  0
 19 21  1  0
 19 18  1  6
 20 19  1  0
 21 23  1  0
 22 21  2  0
M  END
$$$$
