MAQ.pdb
     RDKit          3D

 23 22  0  0  1  0  0  0  0  0999 V2000
    7.7928  -11.4454   26.7152 C   0  0  0  0  0  0  0  0  0  0  0  0
    6.2367  -12.0667   25.9982 S   0  0  0  0  0  0  0  0  0  0  0  0
    6.5603  -12.8505   24.3735 C   0  0  0  0  0  0  0  0  0  0  0  0
    7.1996  -14.1976   24.5541 C   0  0  0  0  0  0  0  0  0  0  0  0
    7.9510  -14.6908   23.3603 C   0  0  2  0  0  0  0  0  0  0  0  0
    7.0160  -14.6584   22.2388 N   0  0  0  0  0  0  0  0  0  0  0  0
    8.5867  -16.0019   23.5158 C   0  0  0  0  0  0  0  0  0  0  0  0
    8.1281  -17.0333   22.9391 O   0  0  0  0  0  0  0  0  0  0  0  0
   11.2409  -17.0377   22.6399 C   0  0  0  0  0  0  0  0  0  0  0  0
   10.6818  -17.2966   24.0468 C   0  0  2  0  0  0  0  0  0  0  0  0
    9.7499  -16.2442   24.3067 N   0  0  0  0  0  0  0  0  0  0  0  0
   11.7700  -17.4035   25.0005 C   0  0  0  0  0  0  0  0  0  0  0  0
   12.7075  -18.2036   24.8101 O   0  0  0  0  0  0  0  0  0  0  0  0
   10.3941  -14.6572   29.7756 N   0  0  0  0  0  0  0  0  0  0  0  0
   10.4290  -14.5086   28.3784 C   0  0  0  0  0  0  0  0  0  0  0  0
   11.0972  -13.6285   27.8147 O   0  0  0  0  0  0  0  0  0  0  0  0
    9.6175  -15.4638   27.5484 C   0  0  0  0  0  0  0  0  0  0  0  0
   10.0457  -16.8722   27.8537 C   0  0  0  0  0  0  0  0  0  0  0  0
   11.4537  -17.0959   27.4918 C   0  0  2  0  0  0  0  0  0  0  0  0
   11.7933  -16.6065   26.1643 N   0  0  0  0  0  0  0  0  0  0  0  0
   11.9237  -18.4647   27.6141 C   0  0  0  0  0  0  0  0  0  0  0  0
   11.5619  -19.3582   26.7505 O   0  0  0  0  0  0  0  0  0  0  0  0
   12.7633  -18.9744   28.5928 O   0  0  0  0  0  0  0  0  0  0  0  0
  2  1  1  0
  3  2  1  0
  4  3  1  0
  5  4  1  0
  5  6  1  6
  7 11  1  0
  7  5  1  0
  8  7  2  0
 10  9  1  6
 10 11  1  0
 10 12  1  0
 12 20  1  0
 13 12  2  0
 14 15  1  0
 15 17  1  0
 16 15  2  0
 17 18  1  0
 19 21  1  0
 19 18  1  6
 20 19  1  0
 21 23  1  0
 22 21  2  0
M  END
$$$$
