MAQ.pdb
     RDKit          3D

 23 22  0  0  1  0  0  0  0  0999 V2000
    8.3940  -18.9460   28.3331 C   0  0  0  0  0  0  0  0  0  0  0  0
    6.7917  -19.5279   27.6884 S   0  0  0  0  0  0  0  0  0  0  0  0
    6.9889  -20.1448   25.9740 C   0  0  0  0  0  0  0  0  0  0  0  0
    7.4286  -19.0366   25.0604 C   0  0  0  0  0  0  0  0  0  0  0  0
    6.3164  -18.1830   24.5433 C   0  0  2  0  0  0  0  0  0  0  0  0
    5.7799  -18.8666   23.3694 N   0  0  0  0  0  0  0  0  0  0  0  0
    6.6729  -16.7902   24.2604 C   0  0  0  0  0  0  0  0  0  0  0  0
    7.2424  -16.4587   23.1776 O   0  0  0  0  0  0  0  0  0  0  0  0
    6.1375  -13.4613   25.8822 C   0  0  0  0  0  0  0  0  0  0  0  0
    6.9362  -14.3801   24.9457 C   0  0  2  0  0  0  0  0  0  0  0  0
    6.4231  -15.6991   25.1462 N   0  0  0  0  0  0  0  0  0  0  0  0
    8.3572  -14.2285   25.1965 C   0  0  0  0  0  0  0  0  0  0  0  0
    8.9247  -13.1347   25.0050 O   0  0  0  0  0  0  0  0  0  0  0  0
   11.4772  -15.9923   29.8340 N   0  0  0  0  0  0  0  0  0  0  0  0
   10.7776  -14.7948   29.6061 C   0  0  0  0  0  0  0  0  0  0  0  0
   10.4465  -14.0275   30.5228 O   0  0  0  0  0  0  0  0  0  0  0  0
   10.4243  -14.4449   28.1874 C   0  0  0  0  0  0  0  0  0  0  0  0
   10.9643  -15.5038   27.2670 C   0  0  0  0  0  0  0  0  0  0  0  0
   10.5683  -15.2560   25.8723 C   0  0  2  0  0  0  0  0  0  0  0  0
    9.1297  -15.3134   25.6618 N   0  0  0  0  0  0  0  0  0  0  0  0
   11.2148  -16.0938   24.8776 C   0  0  0  0  0  0  0  0  0  0  0  0
   10.5319  -16.9813   24.2289 O   0  0  0  0  0  0  0  0  0  0  0  0
   12.5500  -16.0669   24.5044 O   0  0  0  0  0  0  0  0  0  0  0  0
  2  1  1  0
  3  2  1  0
  4  3  1  0
  5  4  1  0
  5  6  1  6
  7 11  1  0
  7  5  1  0
  8  7  2  0
 10  9  1  1
 10 11  1  0
 10 12  1  0
 12 20  1  0
 13 12  2  0
 14 15  1  0
 15 17  1  0
 16 15  2  0
 17 18  1  0
 19 21  1  0
 19 18  1  1
 20 19  1  0
 21 23  1  0
 22 21  2  0
M  END
$$$$
