MAQ.pdb
     RDKit          3D

 23 22  0  0  1  0  0  0  0  0999 V2000
    7.2467  -11.8815   20.9432 C   0  0  0  0  0  0  0  0  0  0  0  0
    7.0404  -12.4262   19.2163 S   0  0  0  0  0  0  0  0  0  0  0  0
    8.1355  -13.8546   18.8712 C   0  0  0  0  0  0  0  0  0  0  0  0
    9.5785  -13.4580   18.9996 C   0  0  0  0  0  0  0  0  0  0  0  0
   10.5466  -14.5845   18.8367 C   0  0  2  0  0  0  0  0  0  0  0  0
   10.0133  -15.4407   17.7805 N   0  0  0  0  0  0  0  0  0  0  0  0
   10.8500  -15.3338   20.0589 C   0  0  0  0  0  0  0  0  0  0  0  0
   11.4691  -14.7994   21.0273 O   0  0  0  0  0  0  0  0  0  0  0  0
    9.8713  -18.6481   21.4788 C   0  0  0  0  0  0  0  0  0  0  0  0
   10.7855  -17.4139   21.4790 C   0  0  2  0  0  0  0  0  0  0  0  0
   10.4910  -16.6979   20.2773 N   0  0  0  0  0  0  0  0  0  0  0  0
   12.1697  -17.8227   21.6273 C   0  0  0  0  0  0  0  0  0  0  0  0
   12.7626  -18.4117   20.7016 O   0  0  0  0  0  0  0  0  0  0  0  0
   15.1998  -14.8404   19.7998 N   0  0  0  0  0  0  0  0  0  0  0  0
   15.9300  -14.4247   20.9265 C   0  0  0  0  0  0  0  0  0  0  0  0
   16.9545  -13.7304   20.8421 O   0  0  0  0  0  0  0  0  0  0  0  0
   15.4349  -14.8474   22.2815 C   0  0  0  0  0  0  0  0  0  0  0  0
   14.1355  -15.5872   22.1253 C   0  0  0  0  0  0  0  0  0  0  0  0
   14.1436  -16.8514   22.8770 C   0  0  2  0  0  0  0  0  0  0  0  0
   12.8767  -17.5647   22.8206 N   0  0  0  0  0  0  0  0  0  0  0  0
   14.5575  -16.7537   24.2658 C   0  0  0  0  0  0  0  0  0  0  0  0
   15.8114  -16.8210   24.5789 O   0  0  0  0  0  0  0  0  0  0  0  0
   13.7374  -16.5847   25.3710 O   0  0  0  0  0  0  0  0  0  0  0  0
  2  1  1  0
  3  2  1  0
  4  3  1  0
  5  4  1  0
  5  6  1  6
  7 11  1  0
  7  5  1  0
  8  7  2  0
 10  9  1  6
 10 11  1  0
 10 12  1  0
 12 20  1  0
 13 12  2  0
 14 15  1  0
 15 17  1  0
 16 15  2  0
 17 18  1  0
 19 21  1  0
 19 18  1  1
 20 19  1  0
 21 23  1  0
 22 21  2  0
M  END
$$$$
