QAT.pdb
     RDKit          3D

 22 21  0  0  1  0  0  0  0  0999 V2000
    8.0717  -12.8721   16.5475 N   0  0  0  0  0  0  0  0  0  0  0  0
    8.0247  -13.9216   15.5951 C   0  0  0  0  0  0  0  0  0  0  0  0
    8.3381  -13.7475   14.3824 O   0  0  0  0  0  0  0  0  0  0  0  0
    7.5880  -15.2612   16.0691 C   0  0  0  0  0  0  0  0  0  0  0  0
    8.8018  -16.1036   16.3965 C   0  0  0  0  0  0  0  0  0  0  0  0
    8.6854  -16.7997   17.7124 C   0  0  2  0  0  0  0  0  0  0  0  0
    7.3642  -17.3641   17.8647 N   0  0  0  0  0  0  0  0  0  0  0  0
    9.0967  -15.9822   18.8579 C   0  0  0  0  0  0  0  0  0  0  0  0
   10.2823  -15.5946   18.9443 O   0  0  0  0  0  0  0  0  0  0  0  0
    7.2684  -14.1518   21.5560 C   0  0  0  0  0  0  0  0  0  0  0  0
    8.4973  -14.9026   21.0459 C   0  0  2  0  0  0  0  0  0  0  0  0
    8.1566  -15.6308   19.8649 N   0  0  0  0  0  0  0  0  0  0  0  0
    9.0144  -15.8305   22.1083 C   0  0  0  0  0  0  0  0  0  0  0  0
    8.2372  -16.4718   22.8648 O   0  0  0  0  0  0  0  0  0  0  0  0
   10.1952  -18.9785   22.1220 C   0  0  0  0  0  0  0  0  0  0  0  0
   11.3799  -18.2315   22.6925 C   0  0  1  0  0  0  0  0  0  0  0  0
   12.1852  -17.8818   21.5838 O   0  0  0  0  0  0  0  0  0  0  0  0
   10.9275  -16.9214   23.3010 C   0  0  2  0  0  0  0  0  0  0  0  0
   10.4009  -16.0173   22.2972 N   0  0  0  0  0  0  0  0  0  0  0  0
   12.1293  -16.3062   23.9379 C   0  0  0  0  0  0  0  0  0  0  0  0
   12.7197  -15.3186   23.4393 O   0  0  0  0  0  0  0  0  0  0  0  0
   12.6222  -16.8219   25.1088 O   0  0  0  0  0  0  0  0  0  0  0  0
  2  4  1  0
  2  1  1  0
  3  2  2  0
  5  4  1  0
  6  5  1  0
  6  7  1  1
  8  9  2  0
  8  6  1  0
 11 10  1  1
 11 12  1  0
 12  8  1  0
 13 11  1  0
 13 19  1  0
 14 13  2  0
 16 18  1  0
 16 15  1  6
 17 16  1  0
 18 19  1  6
 18 20  1  0
 20 22  1  0
 21 20  2  0
M  END
$$$$
