QAT.pdb
     RDKit          3D

 22 21  0  0  1  0  0  0  0  0999 V2000
   10.2623  -20.9803   17.3931 N   0  0  0  0  0  0  0  0  0  0  0  0
   10.4391  -19.6716   17.9096 C   0  0  0  0  0  0  0  0  0  0  0  0
   10.8937  -19.4595   19.0704 O   0  0  0  0  0  0  0  0  0  0  0  0
   10.0683  -18.5302   17.0323 C   0  0  0  0  0  0  0  0  0  0  0  0
   10.1884  -17.2356   17.8068 C   0  0  0  0  0  0  0  0  0  0  0  0
    9.9531  -16.0296   16.9584 C   0  0  2  0  0  0  0  0  0  0  0  0
   10.8621  -16.0228   15.8354 N   0  0  0  0  0  0  0  0  0  0  0  0
    9.9513  -14.7671   17.7039 C   0  0  0  0  0  0  0  0  0  0  0  0
   11.0155  -14.1223   17.8263 O   0  0  0  0  0  0  0  0  0  0  0  0
    7.2505  -12.5301   19.0176 C   0  0  0  0  0  0  0  0  0  0  0  0
    8.6765  -13.0769   19.0567 C   0  0  2  0  0  0  0  0  0  0  0  0
    8.7499  -14.2768   18.2847 N   0  0  0  0  0  0  0  0  0  0  0  0
    9.0924  -13.3359   20.4770 C   0  0  0  0  0  0  0  0  0  0  0  0
    9.1014  -12.4209   21.3431 O   0  0  0  0  0  0  0  0  0  0  0  0
    7.5727  -15.3807   23.0888 C   0  0  0  0  0  0  0  0  0  0  0  0
    8.9591  -15.9501   22.8878 C   0  0  1  0  0  0  0  0  0  0  0  0
    8.8201  -16.9694   21.9173 O   0  0  0  0  0  0  0  0  0  0  0  0
    9.8655  -14.9104   22.2646 C   0  0  2  0  0  0  0  0  0  0  0  0
    9.4908  -14.6247   20.8934 N   0  0  0  0  0  0  0  0  0  0  0  0
   11.2476  -15.4740   22.2915 C   0  0  0  0  0  0  0  0  0  0  0  0
   11.8816  -15.6418   23.3604 O   0  0  0  0  0  0  0  0  0  0  0  0
   11.8649  -15.8275   21.1194 O   0  0  0  0  0  0  0  0  0  0  0  0
  2  4  1  0
  2  1  1  0
  3  2  2  0
  5  4  1  0
  6  5  1  0
  6  7  1  6
  8  9  2  0
  8  6  1  0
 11 10  1  1
 11 12  1  0
 12  8  1  0
 13 11  1  0
 13 19  1  0
 14 13  2  0
 16 18  1  0
 16 15  1  6
 17 16  1  0
 18 19  1  6
 18 20  1  0
 20 22  1  0
 21 20  2  0
M  END
$$$$
