QAT.pdb
     RDKit          3D

 22 21  0  0  1  0  0  0  0  0999 V2000
    8.6529  -12.1140   19.5554 N   0  0  0  0  0  0  0  0  0  0  0  0
    8.2632  -13.2028   18.7346 C   0  0  0  0  0  0  0  0  0  0  0  0
    8.8724  -13.4944   17.6656 O   0  0  0  0  0  0  0  0  0  0  0  0
    7.0945  -14.0103   19.1727 C   0  0  0  0  0  0  0  0  0  0  0  0
    7.0416  -14.0467   20.6847 C   0  0  0  0  0  0  0  0  0  0  0  0
    8.1507  -14.8474   21.2836 C   0  0  2  0  0  0  0  0  0  0  0  0
    8.4723  -15.9706   20.4336 N   0  0  0  0  0  0  0  0  0  0  0  0
    7.9229  -15.2304   22.6804 C   0  0  0  0  0  0  0  0  0  0  0  0
    7.3584  -14.4276   23.4551 O   0  0  0  0  0  0  0  0  0  0  0  0
    8.3883  -18.4115   24.6361 C   0  0  0  0  0  0  0  0  0  0  0  0
    8.2980  -16.8902   24.5288 C   0  0  2  0  0  0  0  0  0  0  0  0
    8.3397  -16.5045   23.1537 N   0  0  0  0  0  0  0  0  0  0  0  0
    9.4230  -16.2502   25.2916 C   0  0  0  0  0  0  0  0  0  0  0  0
   10.5779  -16.1375   24.8006 O   0  0  0  0  0  0  0  0  0  0  0  0
    9.6333  -12.7689   26.8345 C   0  0  0  0  0  0  0  0  0  0  0  0
    9.8370  -13.7867   27.9343 C   0  0  1  0  0  0  0  0  0  0  0  0
    8.5546  -14.0250   28.4811 O   0  0  0  0  0  0  0  0  0  0  0  0
   10.2849  -15.1078   27.3470 C   0  0  2  0  0  0  0  0  0  0  0  0
    9.2230  -15.7486   26.5960 N   0  0  0  0  0  0  0  0  0  0  0  0
   10.6726  -15.9790   28.4956 C   0  0  0  0  0  0  0  0  0  0  0  0
   10.0533  -17.0330   28.7754 O   0  0  0  0  0  0  0  0  0  0  0  0
   11.7390  -15.6348   29.2856 O   0  0  0  0  0  0  0  0  0  0  0  0
  2  4  1  0
  2  1  1  0
  3  2  2  0
  5  4  1  0
  6  5  1  0
  6  7  1  6
  8  9  2  0
  8  6  1  0
 11 10  1  6
 11 12  1  0
 12  8  1  0
 13 11  1  0
 13 19  1  0
 14 13  2  0
 16 18  1  0
 16 15  1  6
 17 16  1  0
 18 19  1  1
 18 20  1  0
 20 22  1  0
 21 20  2  0
M  END
$$$$
