QAT.pdb
     RDKit          3D

 22 21  0  0  1  0  0  0  0  0999 V2000
    9.3775  -13.8302   14.7612 N   0  0  0  0  0  0  0  0  0  0  0  0
    8.0819  -14.4054   14.8006 C   0  0  0  0  0  0  0  0  0  0  0  0
    7.4627  -14.7470   13.7523 O   0  0  0  0  0  0  0  0  0  0  0  0
    7.4566  -14.6008   16.1350 C   0  0  0  0  0  0  0  0  0  0  0  0
    8.3790  -14.0682   17.2100 C   0  0  0  0  0  0  0  0  0  0  0  0
    8.6351  -15.0601   18.2965 C   0  0  2  0  0  0  0  0  0  0  0  0
    7.5652  -16.0295   18.3513 N   0  0  0  0  0  0  0  0  0  0  0  0
    8.9296  -14.4549   19.5991 C   0  0  0  0  0  0  0  0  0  0  0  0
    9.9460  -13.7385   19.7300 O   0  0  0  0  0  0  0  0  0  0  0  0
    6.8630  -13.9220   22.6596 C   0  0  0  0  0  0  0  0  0  0  0  0
    8.2232  -14.0354   21.9733 C   0  0  2  0  0  0  0  0  0  0  0  0
    8.0679  -14.6792   20.7073 N   0  0  0  0  0  0  0  0  0  0  0  0
    9.1789  -14.8023   22.8426 C   0  0  0  0  0  0  0  0  0  0  0  0
    9.4166  -14.4586   24.0313 O   0  0  0  0  0  0  0  0  0  0  0  0
    9.3294  -18.7426   23.3004 C   0  0  0  0  0  0  0  0  0  0  0  0
   10.6722  -18.1967   22.8693 C   0  0  1  0  0  0  0  0  0  0  0  0
   10.6940  -18.2970   21.4587 O   0  0  0  0  0  0  0  0  0  0  0  0
   10.7579  -16.7173   23.1772 C   0  0  2  0  0  0  0  0  0  0  0  0
    9.8492  -15.9443   22.3532 N   0  0  0  0  0  0  0  0  0  0  0  0
   12.1619  -16.2994   22.8896 C   0  0  0  0  0  0  0  0  0  0  0  0
   12.4568  -15.5706   21.9127 O   0  0  0  0  0  0  0  0  0  0  0  0
   13.1803  -16.7148   23.7083 O   0  0  0  0  0  0  0  0  0  0  0  0
  2  4  1  0
  2  1  1  0
  3  2  2  0
  5  4  1  0
  6  5  1  0
  6  7  1  1
  8  9  2  0
  8  6  1  0
 11 10  1  1
 11 12  1  0
 12  8  1  0
 13 11  1  0
 13 19  1  0
 14 13  2  0
 16 18  1  0
 16 15  1  6
 17 16  1  0
 18 19  1  6
 18 20  1  0
 20 22  1  0
 21 20  2  0
M  END
$$$$
