QAT.pdb
     RDKit          3D

 22 21  0  0  1  0  0  0  0  0999 V2000
   11.0958  -14.7974   17.8216 N   0  0  0  0  0  0  0  0  0  0  0  0
   11.0424  -13.7574   18.7841 C   0  0  0  0  0  0  0  0  0  0  0  0
   11.8935  -13.6534   19.7136 O   0  0  0  0  0  0  0  0  0  0  0  0
    9.9361  -12.7710   18.6701 C   0  0  0  0  0  0  0  0  0  0  0  0
    8.9645  -12.9644   19.8141 C   0  0  0  0  0  0  0  0  0  0  0  0
    8.3773  -14.3369   19.8490 C   0  0  2  0  0  0  0  0  0  0  0  0
    7.3932  -14.4868   18.8018 N   0  0  0  0  0  0  0  0  0  0  0  0
    7.8787  -14.7388   21.1680 C   0  0  0  0  0  0  0  0  0  0  0  0
    6.7086  -14.4480   21.4992 O   0  0  0  0  0  0  0  0  0  0  0  0
    8.9225  -17.3166   23.5909 C   0  0  0  0  0  0  0  0  0  0  0  0
    8.2768  -15.9570   23.3289 C   0  0  2  0  0  0  0  0  0  0  0  0
    8.7170  -15.4540   22.0661 N   0  0  0  0  0  0  0  0  0  0  0  0
    8.6260  -14.9975   24.4309 C   0  0  0  0  0  0  0  0  0  0  0  0
    9.7232  -14.3784   24.4487 O   0  0  0  0  0  0  0  0  0  0  0  0
    6.3585  -12.0733   25.7750 C   0  0  0  0  0  0  0  0  0  0  0  0
    6.7606  -12.9962   26.9034 C   0  0  1  0  0  0  0  0  0  0  0  0
    5.7252  -13.9541   27.0054 O   0  0  0  0  0  0  0  0  0  0  0  0
    8.0032  -13.7732   26.5251 C   0  0  2  0  0  0  0  0  0  0  0  0
    7.7289  -14.7545   25.4936 N   0  0  0  0  0  0  0  0  0  0  0  0
    8.4656  -14.4718   27.7607 C   0  0  0  0  0  0  0  0  0  0  0  0
    8.4779  -15.7220   27.8583 O   0  0  0  0  0  0  0  0  0  0  0  0
    8.8961  -13.7418   28.8386 O   0  0  0  0  0  0  0  0  0  0  0  0
  2  4  1  0
  2  1  1  0
  3  2  2  0
  5  4  1  0
  6  5  1  0
  6  7  1  6
  8  9  2  0
  8  6  1  0
 11 10  1  1
 11 12  1  0
 12  8  1  0
 13 11  1  0
 13 19  1  0
 14 13  2  0
 16 18  1  0
 16 15  1  6
 17 16  1  0
 18 19  1  6
 18 20  1  0
 20 22  1  0
 21 20  2  0
M  END
$$$$
