QAT.pdb
     RDKit          3D

 22 21  0  0  1  0  0  0  0  0999 V2000
    9.6089  -13.0773   18.7215 N   0  0  0  0  0  0  0  0  0  0  0  0
    8.3719  -13.6556   18.3392 C   0  0  0  0  0  0  0  0  0  0  0  0
    8.1226  -13.9886   17.1450 O   0  0  0  0  0  0  0  0  0  0  0  0
    7.3533  -13.8652   19.4015 C   0  0  0  0  0  0  0  0  0  0  0  0
    7.9012  -13.3904   20.7299 C   0  0  0  0  0  0  0  0  0  0  0  0
    7.7799  -14.4179   21.8065 C   0  0  2  0  0  0  0  0  0  0  0  0
    6.4345  -14.9429   21.8479 N   0  0  0  0  0  0  0  0  0  0  0  0
    8.2621  -13.9690   23.1164 C   0  0  0  0  0  0  0  0  0  0  0  0
    9.4738  -13.7000   23.2678 O   0  0  0  0  0  0  0  0  0  0  0  0
    6.6376  -12.6060   26.1557 C   0  0  0  0  0  0  0  0  0  0  0  0
    7.7582  -13.4246   25.5168 C   0  0  2  0  0  0  0  0  0  0  0  0
    7.3612  -13.8393   24.2084 N   0  0  0  0  0  0  0  0  0  0  0  0
    8.0816  -14.6158   26.3733 C   0  0  0  0  0  0  0  0  0  0  0  0
    7.2339  -15.5201   26.5996 O   0  0  0  0  0  0  0  0  0  0  0  0
   10.2975  -17.3484   25.8641 C   0  0  0  0  0  0  0  0  0  0  0  0
   10.7855  -16.7480   27.1634 C   0  0  1  0  0  0  0  0  0  0  0  0
   11.8151  -15.8458   26.8083 O   0  0  0  0  0  0  0  0  0  0  0  0
    9.6970  -15.9030   27.7897 C   0  0  2  0  0  0  0  0  0  0  0  0
    9.3574  -14.7640   26.9592 N   0  0  0  0  0  0  0  0  0  0  0  0
   10.2283  -15.4191   29.0982 C   0  0  0  0  0  0  0  0  0  0  0  0
   10.4784  -14.2092   29.3131 O   0  0  0  0  0  0  0  0  0  0  0  0
   10.4586  -16.3102   30.1144 O   0  0  0  0  0  0  0  0  0  0  0  0
  2  4  1  0
  2  1  1  0
  3  2  2  0
  5  4  1  0
  6  5  1  0
  6  7  1  1
  8  9  2  0
  8  6  1  0
 11 10  1  1
 11 12  1  0
 12  8  1  0
 13 11  1  0
 13 19  1  0
 14 13  2  0
 16 18  1  0
 16 15  1  6
 17 16  1  0
 18 19  1  6
 18 20  1  0
 20 22  1  0
 21 20  2  0
M  END
$$$$
