QAT.pdb
     RDKit          3D

 22 21  0  0  1  0  0  0  0  0999 V2000
   11.6224  -14.0338   20.1600 N   0  0  0  0  0  0  0  0  0  0  0  0
   11.4798  -13.5186   18.8465 C   0  0  0  0  0  0  0  0  0  0  0  0
   12.4723  -13.3132   18.0904 O   0  0  0  0  0  0  0  0  0  0  0  0
   10.1036  -13.2197   18.3708 C   0  0  0  0  0  0  0  0  0  0  0  0
    9.1049  -13.5802   19.4493 C   0  0  0  0  0  0  0  0  0  0  0  0
    8.9090  -15.0540   19.5875 C   0  0  2  0  0  0  0  0  0  0  0  0
    8.2275  -15.5791   18.4267 N   0  0  0  0  0  0  0  0  0  0  0  0
    8.2847  -15.4567   20.8515 C   0  0  0  0  0  0  0  0  0  0  0  0
    7.0396  -15.4248   20.9614 O   0  0  0  0  0  0  0  0  0  0  0  0
    9.2667  -17.4879   23.7411 C   0  0  0  0  0  0  0  0  0  0  0  0
    8.5558  -16.2384   23.2238 C   0  0  2  0  0  0  0  0  0  0  0  0
    9.0864  -15.8809   21.9462 N   0  0  0  0  0  0  0  0  0  0  0  0
    8.7206  -15.1081   24.1997 C   0  0  0  0  0  0  0  0  0  0  0  0
    9.7095  -14.3288   24.1515 O   0  0  0  0  0  0  0  0  0  0  0  0
    6.6621  -11.9270   27.2945 C   0  0  0  0  0  0  0  0  0  0  0  0
    6.5092  -13.1459   26.4125 C   0  0  1  0  0  0  0  0  0  0  0  0
    6.0352  -12.6652   25.1698 O   0  0  0  0  0  0  0  0  0  0  0  0
    7.8641  -13.7571   26.1268 C   0  0  2  0  0  0  0  0  0  0  0  0
    7.7648  -14.8784   25.2129 N   0  0  0  0  0  0  0  0  0  0  0  0
    8.4053  -14.2323   27.4344 C   0  0  0  0  0  0  0  0  0  0  0  0
    8.5067  -15.4505   27.7141 O   0  0  0  0  0  0  0  0  0  0  0  0
    8.8115  -13.3235   28.3772 O   0  0  0  0  0  0  0  0  0  0  0  0
  2  4  1  0
  2  1  1  0
  3  2  2  0
  5  4  1  0
  6  5  1  0
  6  7  1  6
  8  9  2  0
  8  6  1  0
 11 10  1  1
 11 12  1  0
 12  8  1  0
 13 11  1  0
 13 19  1  0
 14 13  2  0
 16 18  1  0
 16 15  1  1
 17 16  1  0
 18 19  1  6
 18 20  1  0
 20 22  1  0
 21 20  2  0
M  END
$$$$
