QAT.pdb
     RDKit          3D

 22 21  0  0  1  0  0  0  0  0999 V2000
    5.7764  -19.8488   18.7321 N   0  0  0  0  0  0  0  0  0  0  0  0
    5.6775  -19.7072   17.3246 C   0  0  0  0  0  0  0  0  0  0  0  0
    5.0012  -20.5032   16.6118 O   0  0  0  0  0  0  0  0  0  0  0  0
    6.4053  -18.5743   16.6947 C   0  0  0  0  0  0  0  0  0  0  0  0
    7.1060  -17.7646   17.7641 C   0  0  0  0  0  0  0  0  0  0  0  0
    7.8745  -16.6120   17.2069 C   0  0  2  0  0  0  0  0  0  0  0  0
    8.7173  -17.0518   16.1188 N   0  0  0  0  0  0  0  0  0  0  0  0
    8.5989  -15.8342   18.2168 C   0  0  0  0  0  0  0  0  0  0  0  0
    9.7766  -16.1414   18.5031 O   0  0  0  0  0  0  0  0  0  0  0  0
    7.6895  -12.8099   20.2961 C   0  0  0  0  0  0  0  0  0  0  0  0
    8.5570  -14.0203   19.9546 C   0  0  2  0  0  0  0  0  0  0  0  0
    7.9697  -14.7381   18.8678 N   0  0  0  0  0  0  0  0  0  0  0  0
    8.7023  -14.9084   21.1576 C   0  0  0  0  0  0  0  0  0  0  0  0
    7.7168  -15.2104   21.8823 O   0  0  0  0  0  0  0  0  0  0  0  0
    9.2137  -18.3336   21.6264 C   0  0  0  0  0  0  0  0  0  0  0  0
   10.4215  -17.7197   22.2981 C   0  0  1  0  0  0  0  0  0  0  0  0
   11.4237  -17.6530   21.3024 O   0  0  0  0  0  0  0  0  0  0  0  0
   10.1312  -16.2856   22.6854 C   0  0  2  0  0  0  0  0  0  0  0  0
    9.9589  -15.4397   21.5205 N   0  0  0  0  0  0  0  0  0  0  0  0
   11.3055  -15.8074   23.4735 C   0  0  0  0  0  0  0  0  0  0  0  0
   12.1326  -14.9861   23.0110 O   0  0  0  0  0  0  0  0  0  0  0  0
   11.5066  -16.2686   24.7489 O   0  0  0  0  0  0  0  0  0  0  0  0
  2  4  1  0
  2  1  1  0
  3  2  2  0
  5  4  1  0
  6  5  1  0
  6  7  1  6
  8  9  2  0
  8  6  1  0
 11 10  1  1
 11 12  1  0
 12  8  1  0
 13 11  1  0
 13 19  1  0
 14 13  2  0
 16 18  1  0
 16 15  1  6
 17 16  1  0
 18 19  1  6
 18 20  1  0
 20 22  1  0
 21 20  2  0
M  END
$$$$
