QAT.pdb
     RDKit          3D

 22 21  0  0  1  0  0  0  0  0999 V2000
   13.0647  -13.8299   20.2971 N   0  0  0  0  0  0  0  0  0  0  0  0
   12.7763  -14.5499   19.1099 C   0  0  0  0  0  0  0  0  0  0  0  0
   13.6842  -14.9559   18.3290 O   0  0  0  0  0  0  0  0  0  0  0  0
   11.3479  -14.8211   18.8001 C   0  0  0  0  0  0  0  0  0  0  0  0
   10.4735  -14.2397   19.8900 C   0  0  0  0  0  0  0  0  0  0  0  0
    9.0251  -14.5459   19.6951 C   0  0  2  0  0  0  0  0  0  0  0  0
    8.4403  -13.6197   18.7530 N   0  0  0  0  0  0  0  0  0  0  0  0
    8.2647  -14.6521   20.9441 C   0  0  0  0  0  0  0  0  0  0  0  0
    7.6169  -13.6655   21.3568 O   0  0  0  0  0  0  0  0  0  0  0  0
    7.5868  -17.5124   23.3178 C   0  0  0  0  0  0  0  0  0  0  0  0
    7.5731  -16.0365   22.9234 C   0  0  2  0  0  0  0  0  0  0  0  0
    8.2618  -15.8666   21.6831 N   0  0  0  0  0  0  0  0  0  0  0  0
    8.2124  -15.2072   24.0007 C   0  0  0  0  0  0  0  0  0  0  0  0
    9.4489  -14.9649   24.0059 O   0  0  0  0  0  0  0  0  0  0  0  0
    6.6621  -11.7966   25.5406 C   0  0  0  0  0  0  0  0  0  0  0  0
    7.0091  -12.8150   26.6033 C   0  0  1  0  0  0  0  0  0  0  0  0
    5.8262  -13.5572   26.8266 O   0  0  0  0  0  0  0  0  0  0  0  0
    8.0204  -13.8054   26.0673 C   0  0  2  0  0  0  0  0  0  0  0  0
    7.4429  -14.6662   25.0535 N   0  0  0  0  0  0  0  0  0  0  0  0
    8.4640  -14.6358   27.2259 C   0  0  0  0  0  0  0  0  0  0  0  0
    8.1903  -15.8561   27.3187 O   0  0  0  0  0  0  0  0  0  0  0  0
    9.1968  -14.0660   28.2349 O   0  0  0  0  0  0  0  0  0  0  0  0
  2  4  1  0
  2  1  1  0
  3  2  2  0
  5  4  1  0
  6  5  1  0
  6  7  1  6
  8  9  2  0
  8  6  1  0
 11 10  1  1
 11 12  1  0
 12  8  1  0
 13 11  1  0
 13 19  1  0
 14 13  2  0
 16 18  1  0
 16 15  1  6
 17 16  1  0
 18 19  1  6
 18 20  1  0
 20 22  1  0
 21 20  2  0
M  END
$$$$
