QAT.pdb
     RDKit          3D

 22 21  0  0  1  0  0  0  0  0999 V2000
    7.9549  -14.2523   15.5191 N   0  0  0  0  0  0  0  0  0  0  0  0
    7.6632  -15.4249   14.7770 C   0  0  0  0  0  0  0  0  0  0  0  0
    6.7593  -15.4574   13.8933 O   0  0  0  0  0  0  0  0  0  0  0  0
    8.4648  -16.6418   15.0709 C   0  0  0  0  0  0  0  0  0  0  0  0
    9.5658  -16.2992   16.0511 C   0  0  0  0  0  0  0  0  0  0  0  0
    9.5167  -17.1304   17.2906 C   0  0  2  0  0  0  0  0  0  0  0  0
    8.1743  -17.6152   17.5150 N   0  0  0  0  0  0  0  0  0  0  0  0
   10.0970  -16.4789   18.4689 C   0  0  0  0  0  0  0  0  0  0  0  0
   11.2502  -16.0004   18.4030 O   0  0  0  0  0  0  0  0  0  0  0  0
    8.7067  -15.4877   21.8239 C   0  0  0  0  0  0  0  0  0  0  0  0
    9.8640  -15.7971   20.8758 C   0  0  2  0  0  0  0  0  0  0  0  0
    9.3564  -16.3903   19.6792 N   0  0  0  0  0  0  0  0  0  0  0  0
   10.8489  -16.7142   21.5437 C   0  0  0  0  0  0  0  0  0  0  0  0
   10.6558  -17.9573   21.6140 O   0  0  0  0  0  0  0  0  0  0  0  0
   15.3956  -17.4050   23.3610 C   0  0  0  0  0  0  0  0  0  0  0  0
   14.3887  -16.4440   22.7696 C   0  0  1  0  0  0  0  0  0  0  0  0
   14.7563  -16.2875   21.4130 O   0  0  0  0  0  0  0  0  0  0  0  0
   13.0128  -17.0744   22.7522 C   0  0  2  0  0  0  0  0  0  0  0  0
   12.0348  -16.2102   22.1205 N   0  0  0  0  0  0  0  0  0  0  0  0
   12.6257  -17.3001   24.1762 C   0  0  0  0  0  0  0  0  0  0  0  0
   11.9493  -16.4679   24.8261 O   0  0  0  0  0  0  0  0  0  0  0  0
   13.0118  -18.4497   24.8158 O   0  0  0  0  0  0  0  0  0  0  0  0
  2  4  1  0
  2  1  1  0
  3  2  2  0
  5  4  1  0
  6  5  1  0
  6  7  1  1
  8  9  2  0
  8  6  1  0
 11 10  1  1
 11 12  1  0
 12  8  1  0
 13 11  1  0
 13 19  1  0
 14 13  2  0
 16 18  1  0
 16 15  1  1
 17 16  1  0
 18 19  1  1
 18 20  1  0
 20 22  1  0
 21 20  2  0
M  END
$$$$
