QAT.pdb
     RDKit          3D

 22 21  0  0  1  0  0  0  0  0999 V2000
    7.8264  -22.0842   23.8267 N   0  0  0  0  0  0  0  0  0  0  0  0
    6.4370  -22.0541   24.1085 C   0  0  0  0  0  0  0  0  0  0  0  0
    5.7854  -23.0966   24.4048 O   0  0  0  0  0  0  0  0  0  0  0  0
    5.7509  -20.7369   24.0453 C   0  0  0  0  0  0  0  0  0  0  0  0
    6.7134  -19.6881   23.5317 C   0  0  0  0  0  0  0  0  0  0  0  0
    6.4380  -18.3289   24.0854 C   0  0  2  0  0  0  0  0  0  0  0  0
    5.0531  -17.9745   23.8757 N   0  0  0  0  0  0  0  0  0  0  0  0
    7.3716  -17.2967   23.6243 C   0  0  0  0  0  0  0  0  0  0  0  0
    8.6026  -17.4848   23.7364 O   0  0  0  0  0  0  0  0  0  0  0  0
    6.9717  -14.1509   21.6144 C   0  0  0  0  0  0  0  0  0  0  0  0
    7.7287  -15.0247   22.6131 C   0  0  2  0  0  0  0  0  0  0  0  0
    6.8839  -16.0895   23.0534 N   0  0  0  0  0  0  0  0  0  0  0  0
    8.1880  -14.1974   23.7800 C   0  0  0  0  0  0  0  0  0  0  0  0
    8.9839  -13.2312   23.6361 O   0  0  0  0  0  0  0  0  0  0  0  0
    6.6603  -11.6930   25.8103 C   0  0  0  0  0  0  0  0  0  0  0  0
    6.9504  -12.8467   26.7440 C   0  0  1  0  0  0  0  0  0  0  0  0
    5.8249  -13.6994   26.6641 O   0  0  0  0  0  0  0  0  0  0  0  0
    8.1180  -13.6580   26.2247 C   0  0  2  0  0  0  0  0  0  0  0  0
    7.7397  -14.4765   25.0893 N   0  0  0  0  0  0  0  0  0  0  0  0
    8.5592  -14.5409   27.3447 C   0  0  0  0  0  0  0  0  0  0  0  0
    8.9694  -14.0821   28.4373 O   0  0  0  0  0  0  0  0  0  0  0  0
    8.5236  -15.9035   27.1961 O   0  0  0  0  0  0  0  0  0  0  0  0
  2  4  1  0
  2  1  1  0
  3  2  2  0
  5  4  1  0
  6  5  1  0
  6  7  1  6
  8  9  2  0
  8  6  1  0
 11 10  1  6
 11 12  1  0
 12  8  1  0
 13 11  1  0
 13 19  1  0
 14 13  2  0
 16 18  1  0
 16 15  1  6
 17 16  1  0
 18 19  1  6
 18 20  1  0
 20 22  1  0
 21 20  2  0
M  END
$$$$
