QAT.pdb
     RDKit          3D

 22 21  0  0  1  0  0  0  0  0999 V2000
    7.4001  -19.9305   15.6258 N   0  0  0  0  0  0  0  0  0  0  0  0
    7.1342  -18.5558   15.4012 C   0  0  0  0  0  0  0  0  0  0  0  0
    6.6174  -18.1349   14.3266 O   0  0  0  0  0  0  0  0  0  0  0  0
    7.4861  -17.6013   16.4851 C   0  0  0  0  0  0  0  0  0  0  0  0
    6.9980  -16.2163   16.1192 C   0  0  0  0  0  0  0  0  0  0  0  0
    8.1070  -15.2226   16.0072 C   0  0  2  0  0  0  0  0  0  0  0  0
    9.0554  -15.6426   15.0015 N   0  0  0  0  0  0  0  0  0  0  0  0
    8.7379  -14.8864   17.2873 C   0  0  0  0  0  0  0  0  0  0  0  0
    9.8076  -15.4459   17.6128 O   0  0  0  0  0  0  0  0  0  0  0  0
    7.8770  -12.3994   20.0039 C   0  0  0  0  0  0  0  0  0  0  0  0
    8.7084  -13.5316   19.4030 C   0  0  2  0  0  0  0  0  0  0  0  0
    8.1402  -13.9314   18.1545 N   0  0  0  0  0  0  0  0  0  0  0  0
    8.7648  -14.6931   20.3542 C   0  0  0  0  0  0  0  0  0  0  0  0
    7.7201  -15.2098   20.8332 O   0  0  0  0  0  0  0  0  0  0  0  0
    9.5399  -18.0428   19.9081 C   0  0  0  0  0  0  0  0  0  0  0  0
   10.5460  -17.6326   20.9599 C   0  0  1  0  0  0  0  0  0  0  0  0
   11.7167  -17.2715   20.2532 O   0  0  0  0  0  0  0  0  0  0  0  0
   10.0846  -16.3731   21.6612 C   0  0  2  0  0  0  0  0  0  0  0  0
   10.0008  -15.2504   20.7474 N   0  0  0  0  0  0  0  0  0  0  0  0
   11.0959  -16.0750   22.7181 C   0  0  0  0  0  0  0  0  0  0  0  0
   11.2270  -16.7900   23.7400 O   0  0  0  0  0  0  0  0  0  0  0  0
   11.9205  -14.9873   22.5883 O   0  0  0  0  0  0  0  0  0  0  0  0
  2  4  1  0
  2  1  1  0
  3  2  2  0
  5  4  1  0
  6  5  1  0
  6  7  1  6
  8  9  2  0
  8  6  1  0
 11 10  1  1
 11 12  1  0
 12  8  1  0
 13 11  1  0
 13 19  1  0
 14 13  2  0
 16 18  1  0
 16 15  1  6
 17 16  1  0
 18 19  1  6
 18 20  1  0
 20 22  1  0
 21 20  2  0
M  END
$$$$
