ACW.pdb
     RDKit          3D

 26 27  0  0  1  0  0  0  0  0999 V2000
   25.4981  -14.7250  -15.4645 C   0  0  0  0  0  0  0  0  0  0  0  0
   26.5122  -15.4912  -16.2796 C   0  0  2  0  0  0  0  0  0  0  0  0
   26.2649  -15.3965  -17.7048 N   0  0  0  0  0  0  0  0  0  0  0  0
   26.4937  -16.9269  -15.9003 C   0  0  0  0  0  0  0  0  0  0  0  0
   25.4731  -17.6244  -16.1754 O   0  0  0  0  0  0  0  0  0  0  0  0
   27.5744  -17.5466  -15.2423 N   0  0  0  0  0  0  0  0  0  0  0  0
   27.5081  -18.9406  -14.8647 C   0  0  1  0  0  0  0  0  0  0  0  0
   28.8700  -19.6045  -14.8807 C   0  0  0  0  0  0  0  0  0  0  0  0
   28.8656  -21.2082  -14.0708 S   0  0  0  0  0  0  0  0  0  0  0  0
   26.8359  -19.1135  -13.5462 C   0  0  0  0  0  0  0  0  0  0  0  0
   27.2812  -18.4570  -12.5753 O   0  0  0  0  0  0  0  0  0  0  0  0
   25.7391  -19.9694  -13.3503 N   0  0  0  0  0  0  0  0  0  0  0  0
   25.1602  -20.3096  -12.0545 C   0  0  1  0  0  0  0  0  0  0  0  0
   23.7045  -20.0432  -12.0236 C   0  0  0  0  0  0  0  0  0  0  0  0
   23.0759  -20.5018  -10.7780 C   0  0  0  0  0  0  0  0  0  0  0  0
   23.4128  -20.1178   -9.4740 C   0  0  0  0  0  0  0  0  0  0  0  0
   22.6497  -20.7705   -8.5988 N   0  0  0  0  0  0  0  0  0  0  0  0
   21.8281  -21.5656   -9.2943 C   0  0  0  0  0  0  0  0  0  0  0  0
   20.8362  -22.4320   -8.8431 C   0  0  0  0  0  0  0  0  0  0  0  0
   20.1063  -23.1339   -9.7753 C   0  0  0  0  0  0  0  0  0  0  0  0
   20.3176  -23.0137  -11.1336 C   0  0  0  0  0  0  0  0  0  0  0  0
   21.3001  -22.1560  -11.5704 C   0  0  0  0  0  0  0  0  0  0  0  0
   22.0449  -21.4422  -10.6479 C   0  0  0  0  0  0  0  0  0  0  0  0
   25.6231  -21.5600  -11.4848 C   0  0  0  0  0  0  0  0  0  0  0  0
   25.6437  -22.6233  -12.1573 O   0  0  0  0  0  0  0  0  0  0  0  0
   26.0783  -21.6515  -10.1610 O   0  0  0  0  0  0  0  0  0  0  0  0
  2  4  1  0
  2  1  1  1
  3  2  1  0
  4  5  2  0
  6  7  1  0
  6  4  1  0
  8  9  1  0
  7  8  1  1
 10 12  1  0
 10  7  1  0
 11 10  2  0
 13 12  1  0
 13 14  1  6
 14 15  1  0
 15 16  2  0
 16 17  1  0
 18 19  2  0
 18 17  1  0
 20 19  1  0
 21 20  2  0
 22 21  1  0
 22 23  2  0
 23 15  1  0
 23 18  1  0
 24 13  1  0
 25 24  2  0
 26 24  1  0
M  END
$$$$
