ACW.pdb
     RDKit          3D

 26 27  0  0  1  0  0  0  0  0999 V2000
   16.2812  -10.8216  -13.9006 C   0  0  0  0  0  0  0  0  0  0  0  0
   17.1188   -9.8323  -14.6749 C   0  0  2  0  0  0  0  0  0  0  0  0
   18.3798  -10.3964  -15.1141 N   0  0  0  0  0  0  0  0  0  0  0  0
   17.4106   -8.6421  -13.8359 C   0  0  0  0  0  0  0  0  0  0  0  0
   18.4398   -8.6451  -13.0980 O   0  0  0  0  0  0  0  0  0  0  0  0
   16.5815   -7.5031  -13.8293 N   0  0  0  0  0  0  0  0  0  0  0  0
   16.9305   -6.3400  -13.0447 C   0  0  1  0  0  0  0  0  0  0  0  0
   16.9881   -5.0791  -13.8828 C   0  0  0  0  0  0  0  0  0  0  0  0
   15.5293   -4.8654  -14.9094 S   0  0  0  0  0  0  0  0  0  0  0  0
   16.0142   -6.1765  -11.8811 C   0  0  0  0  0  0  0  0  0  0  0  0
   14.7939   -6.3974  -12.0655 O   0  0  0  0  0  0  0  0  0  0  0  0
   16.4562   -5.7910  -10.6044 N   0  0  0  0  0  0  0  0  0  0  0  0
   15.5875   -5.4446   -9.4840 C   0  0  1  0  0  0  0  0  0  0  0  0
   15.7478   -6.3936   -8.3594 C   0  0  0  0  0  0  0  0  0  0  0  0
   15.3324   -7.7576   -8.7120 C   0  0  0  0  0  0  0  0  0  0  0  0
   16.1411   -8.7757   -9.2326 C   0  0  0  0  0  0  0  0  0  0  0  0
   15.4071   -9.8632   -9.4628 N   0  0  0  0  0  0  0  0  0  0  0  0
   14.1478   -9.5825   -9.1074 C   0  0  0  0  0  0  0  0  0  0  0  0
   13.0136  -10.3889   -9.1411 C   0  0  0  0  0  0  0  0  0  0  0  0
   11.8223   -9.8624   -8.6961 C   0  0  0  0  0  0  0  0  0  0  0  0
   11.7078   -8.5723   -8.2200 C   0  0  0  0  0  0  0  0  0  0  0  0
   12.8333   -7.7823   -8.1910 C   0  0  0  0  0  0  0  0  0  0  0  0
   14.0401   -8.2942   -8.6349 C   0  0  0  0  0  0  0  0  0  0  0  0
   15.5331   -4.0316   -9.1635 C   0  0  0  0  0  0  0  0  0  0  0  0
   16.3248   -3.2058   -9.6875 O   0  0  0  0  0  0  0  0  0  0  0  0
   14.5946   -3.5084   -8.2616 O   0  0  0  0  0  0  0  0  0  0  0  0
  2  4  1  0
  2  1  1  1
  3  2  1  0
  4  5  2  0
  6  7  1  0
  6  4  1  0
  8  9  1  0
  7  8  1  6
 10 12  1  0
 10  7  1  0
 11 10  2  0
 13 12  1  0
 13 14  1  1
 14 15  1  0
 15 16  2  0
 16 17  1  0
 18 19  2  0
 18 17  1  0
 20 19  1  0
 21 20  2  0
 22 21  1  0
 22 23  2  0
 23 15  1  0
 23 18  1  0
 24 13  1  0
 25 24  2  0
 26 24  1  0
M  END
$$$$
