ACW.pdb
     RDKit          3D

 26 27  0  0  1  0  0  0  0  0999 V2000
   26.3645  -14.2640  -15.4552 C   0  0  0  0  0  0  0  0  0  0  0  0
   26.3666  -15.3339  -16.5207 C   0  0  2  0  0  0  0  0  0  0  0  0
   25.4981  -15.0094  -17.6351 N   0  0  0  0  0  0  0  0  0  0  0  0
   25.9196  -16.6285  -15.9465 C   0  0  0  0  0  0  0  0  0  0  0  0
   24.7644  -16.7098  -15.4340 O   0  0  0  0  0  0  0  0  0  0  0  0
   26.7363  -17.7765  -15.9498 N   0  0  0  0  0  0  0  0  0  0  0  0
   26.2460  -19.0333  -15.4298 C   0  0  1  0  0  0  0  0  0  0  0  0
   26.4968  -20.1849  -16.3820 C   0  0  0  0  0  0  0  0  0  0  0  0
   28.1994  -20.7570  -16.3398 S   0  0  0  0  0  0  0  0  0  0  0  0
   26.8055  -19.3156  -14.0779 C   0  0  0  0  0  0  0  0  0  0  0  0
   27.9993  -18.9975  -13.8640 O   0  0  0  0  0  0  0  0  0  0  0  0
   26.0601  -19.9144  -13.0485 N   0  0  0  0  0  0  0  0  0  0  0  0
   26.6055  -20.3761  -11.7760 C   0  0  1  0  0  0  0  0  0  0  0  0
   26.1472  -19.5310  -10.6505 C   0  0  0  0  0  0  0  0  0  0  0  0
   25.2756  -20.2597   -9.7196 C   0  0  0  0  0  0  0  0  0  0  0  0
   25.6300  -20.7847   -8.4705 C   0  0  0  0  0  0  0  0  0  0  0  0
   24.5862  -21.4119   -7.9307 N   0  0  0  0  0  0  0  0  0  0  0  0
   23.5658  -21.3099   -8.7904 C   0  0  0  0  0  0  0  0  0  0  0  0
   22.2613  -21.7838   -8.6824 C   0  0  0  0  0  0  0  0  0  0  0  0
   21.3840  -21.5274   -9.7115 C   0  0  0  0  0  0  0  0  0  0  0  0
   21.7445  -20.8223  -10.8415 C   0  0  0  0  0  0  0  0  0  0  0  0
   23.0355  -20.3584  -10.9402 C   0  0  0  0  0  0  0  0  0  0  0  0
   23.9321  -20.6070   -9.9157 C   0  0  0  0  0  0  0  0  0  0  0  0
   26.5844  -21.8132  -11.5845 C   0  0  0  0  0  0  0  0  0  0  0  0
   25.8124  -22.5551  -12.2454 O   0  0  0  0  0  0  0  0  0  0  0  0
   27.4248  -22.4536  -10.6617 O   0  0  0  0  0  0  0  0  0  0  0  0
  2  4  1  0
  2  1  1  1
  3  2  1  0
  4  5  2  0
  6  7  1  0
  6  4  1  0
  8  9  1  0
  7  8  1  6
 10 12  1  0
 10  7  1  0
 11 10  2  0
 13 12  1  0
 13 14  1  1
 14 15  1  0
 15 16  2  0
 16 17  1  0
 18 19  2  0
 18 17  1  0
 20 19  1  0
 21 20  2  0
 22 21  1  0
 22 23  2  0
 23 15  1  0
 23 18  1  0
 24 13  1  0
 25 24  2  0
 26 24  1  0
M  END
$$$$
