ACW.pdb
     RDKit          3D

 26 27  0  0  1  0  0  0  0  0999 V2000
   15.4274  -23.1675    7.7639 C   0  0  0  0  0  0  0  0  0  0  0  0
   15.7191  -23.7777    6.4139 C   0  0  2  0  0  0  0  0  0  0  0  0
   16.5987  -24.9266    6.5024 N   0  0  0  0  0  0  0  0  0  0  0  0
   16.3568  -22.7731    5.5254 C   0  0  0  0  0  0  0  0  0  0  0  0
   17.6158  -22.7815    5.3887 O   0  0  0  0  0  0  0  0  0  0  0  0
   15.6107  -21.8050    4.8248 N   0  0  0  0  0  0  0  0  0  0  0  0
   16.2620  -20.8777    3.9269 C   0  0  1  0  0  0  0  0  0  0  0  0
   15.6727  -20.9203    2.5318 C   0  0  0  0  0  0  0  0  0  0  0  0
   16.4435  -19.7375    1.4206 S   0  0  0  0  0  0  0  0  0  0  0  0
   16.2528  -19.4932    4.4776 C   0  0  0  0  0  0  0  0  0  0  0  0
   15.2025  -19.0955    5.0351 O   0  0  0  0  0  0  0  0  0  0  0  0
   17.3573  -18.6285    4.3990 N   0  0  0  0  0  0  0  0  0  0  0  0
   17.3510  -17.2208    4.7839 C   0  0  1  0  0  0  0  0  0  0  0  0
   18.7257  -16.6906    4.9255 C   0  0  0  0  0  0  0  0  0  0  0  0
   18.7471  -15.3156    5.4414 C   0  0  0  0  0  0  0  0  0  0  0  0
   18.6581  -14.9177    6.7812 C   0  0  0  0  0  0  0  0  0  0  0  0
   18.6734  -13.5881    6.8602 N   0  0  0  0  0  0  0  0  0  0  0  0
   18.7701  -13.1112    5.6136 C   0  0  0  0  0  0  0  0  0  0  0  0
   18.8381  -11.7940    5.1683 C   0  0  0  0  0  0  0  0  0  0  0  0
   18.9547  -11.5650    3.8161 C   0  0  0  0  0  0  0  0  0  0  0  0
   19.0066  -12.5849    2.8881 C   0  0  0  0  0  0  0  0  0  0  0  0
   18.9380  -13.8832    3.3368 C   0  0  0  0  0  0  0  0  0  0  0  0
   18.8199  -14.1331    4.6929 C   0  0  0  0  0  0  0  0  0  0  0  0
   16.3860  -16.3970    4.0822 C   0  0  0  0  0  0  0  0  0  0  0  0
   16.2183  -16.4922    2.8387 O   0  0  0  0  0  0  0  0  0  0  0  0
   15.5844  -15.4582    4.7486 O   0  0  0  0  0  0  0  0  0  0  0  0
  2  4  1  0
  2  1  1  1
  3  2  1  0
  4  5  2  0
  6  7  1  0
  6  4  1  0
  8  9  1  0
  7  8  1  6
 10 12  1  0
 10  7  1  0
 11 10  2  0
 13 12  1  0
 13 14  1  6
 14 15  1  0
 15 16  2  0
 16 17  1  0
 18 19  2  0
 18 17  1  0
 20 19  1  0
 21 20  2  0
 22 21  1  0
 22 23  2  0
 23 15  1  0
 23 18  1  0
 24 13  1  0
 25 24  2  0
 26 24  1  0
M  END
$$$$
