ACW.pdb
     RDKit          3D

 26 27  0  0  1  0  0  0  0  0999 V2000
   16.6814  -11.7221  -14.3078 C   0  0  0  0  0  0  0  0  0  0  0  0
   17.0957  -12.3983  -15.5927 C   0  0  2  0  0  0  0  0  0  0  0  0
   17.0965  -13.8439  -15.4841 N   0  0  0  0  0  0  0  0  0  0  0  0
   18.4604  -11.9621  -15.9834 C   0  0  0  0  0  0  0  0  0  0  0  0
   19.4551  -12.6663  -15.6392 O   0  0  0  0  0  0  0  0  0  0  0  0
   18.6925  -10.7879  -16.7265 N   0  0  0  0  0  0  0  0  0  0  0  0
   20.0288  -10.4330  -17.1488 C   0  0  1  0  0  0  0  0  0  0  0  0
   20.1767  -10.4475  -18.6567 C   0  0  0  0  0  0  0  0  0  0  0  0
   21.7907   -9.8726  -19.1975 S   0  0  0  0  0  0  0  0  0  0  0  0
   20.4485   -9.1234  -16.5753 C   0  0  0  0  0  0  0  0  0  0  0  0
   19.5950   -8.2058  -16.5337 O   0  0  0  0  0  0  0  0  0  0  0  0
   21.7426   -8.8791  -16.0858 N   0  0  0  0  0  0  0  0  0  0  0  0
   22.2065   -7.6098  -15.5349 C   0  0  1  0  0  0  0  0  0  0  0  0
   23.4338   -7.7853  -14.7262 C   0  0  0  0  0  0  0  0  0  0  0  0
   24.6194   -8.0444  -15.5536 C   0  0  0  0  0  0  0  0  0  0  0  0
   25.2049   -7.1740  -16.4815 C   0  0  0  0  0  0  0  0  0  0  0  0
   26.2425   -7.7691  -17.0677 N   0  0  0  0  0  0  0  0  0  0  0  0
   26.3485   -8.9980  -16.5488 C   0  0  0  0  0  0  0  0  0  0  0  0
   27.2763  -10.0002  -16.8187 C   0  0  0  0  0  0  0  0  0  0  0  0
   27.1797  -11.1858  -16.1262 C   0  0  0  0  0  0  0  0  0  0  0  0
   26.2038  -11.4198  -15.1792 C   0  0  0  0  0  0  0  0  0  0  0  0
   25.2908  -10.4245  -14.9194 C   0  0  0  0  0  0  0  0  0  0  0  0
   25.3716   -9.2256  -15.6062 C   0  0  0  0  0  0  0  0  0  0  0  0
   22.1670   -6.4902  -16.4554 C   0  0  0  0  0  0  0  0  0  0  0  0
   22.2648   -6.6553  -17.6989 O   0  0  0  0  0  0  0  0  0  0  0  0
   22.0109   -5.1681  -16.0131 O   0  0  0  0  0  0  0  0  0  0  0  0
  2  4  1  0
  2  1  1  1
  3  2  1  0
  4  5  2  0
  6  7  1  0
  6  4  1  0
  8  9  1  0
  7  8  1  6
 10 12  1  0
 10  7  1  0
 11 10  2  0
 13 12  1  0
 13 14  1  6
 14 15  1  0
 15 16  2  0
 16 17  1  0
 18 19  2  0
 18 17  1  0
 20 19  1  0
 21 20  2  0
 22 21  1  0
 22 23  2  0
 23 15  1  0
 23 18  1  0
 24 13  1  0
 25 24  2  0
 26 24  1  0
M  END
$$$$
