ACW.pdb
     RDKit          3D

 26 27  0  0  1  0  0  0  0  0999 V2000
   27.5560  -19.3529  -15.7702 C   0  0  0  0  0  0  0  0  0  0  0  0
   27.9817  -20.6709  -15.1689 C   0  0  2  0  0  0  0  0  0  0  0  0
   28.1875  -21.6978  -16.1712 N   0  0  0  0  0  0  0  0  0  0  0  0
   26.9514  -21.1543  -14.2148 C   0  0  0  0  0  0  0  0  0  0  0  0
   26.0831  -21.9855  -14.6136 O   0  0  0  0  0  0  0  0  0  0  0  0
   26.9024  -20.7212  -12.8751 N   0  0  0  0  0  0  0  0  0  0  0  0
   25.8933  -21.2269  -11.9717 C   0  0  1  0  0  0  0  0  0  0  0  0
   26.3945  -21.3176  -10.5447 C   0  0  0  0  0  0  0  0  0  0  0  0
   25.0578  -21.3555   -9.3448 S   0  0  0  0  0  0  0  0  0  0  0  0
   24.6397  -20.4259  -12.0564 C   0  0  0  0  0  0  0  0  0  0  0  0
   24.7165  -19.1976  -11.8167 O   0  0  0  0  0  0  0  0  0  0  0  0
   23.3938  -20.9831  -12.3896 N   0  0  0  0  0  0  0  0  0  0  0  0
   22.1475  -20.2353  -12.5214 C   0  0  1  0  0  0  0  0  0  0  0  0
   22.1840  -19.3204  -13.6845 C   0  0  0  0  0  0  0  0  0  0  0  0
   22.0815  -20.0342  -14.9640 C   0  0  0  0  0  0  0  0  0  0  0  0
   21.0085  -20.8175  -15.4074 C   0  0  0  0  0  0  0  0  0  0  0  0
   21.2903  -21.3365  -16.6014 N   0  0  0  0  0  0  0  0  0  0  0  0
   22.5123  -20.9140  -16.9465 C   0  0  0  0  0  0  0  0  0  0  0  0
   23.2468  -21.1656  -18.1020 C   0  0  0  0  0  0  0  0  0  0  0  0
   24.4906  -20.5894  -18.2259 C   0  0  0  0  0  0  0  0  0  0  0  0
   25.0365  -19.7758  -17.2542 C   0  0  0  0  0  0  0  0  0  0  0  0
   24.3043  -19.5332  -16.1155 C   0  0  0  0  0  0  0  0  0  0  0  0
   23.0518  -20.1044  -15.9728 C   0  0  0  0  0  0  0  0  0  0  0  0
   20.9406  -21.0134  -12.3207 C   0  0  0  0  0  0  0  0  0  0  0  0
   20.9550  -22.2714  -12.3485 O   0  0  0  0  0  0  0  0  0  0  0  0
   19.6977  -20.4101  -12.0781 O   0  0  0  0  0  0  0  0  0  0  0  0
  2  4  1  0
  2  1  1  6
  3  2  1  0
  4  5  2  0
  6  7  1  0
  6  4  1  0
  8  9  1  0
  7  8  1  1
 10 12  1  0
 10  7  1  0
 11 10  2  0
 13 12  1  0
 13 14  1  6
 14 15  1  0
 15 16  2  0
 16 17  1  0
 18 19  2  0
 18 17  1  0
 20 19  1  0
 21 20  2  0
 22 21  1  0
 22 23  2  0
 23 15  1  0
 23 18  1  0
 24 13  1  0
 25 24  2  0
 26 24  1  0
M  END
$$$$
