ACW.pdb
     RDKit          3D

 26 27  0  0  1  0  0  0  0  0999 V2000
   30.1923  -16.0025  -17.4239 C   0  0  0  0  0  0  0  0  0  0  0  0
   29.8732  -16.7891  -18.6727 C   0  0  2  0  0  0  0  0  0  0  0  0
   29.4421  -15.9422  -19.7673 N   0  0  0  0  0  0  0  0  0  0  0  0
   28.7960  -17.7733  -18.3960 C   0  0  0  0  0  0  0  0  0  0  0  0
   27.6521  -17.3545  -18.0496 O   0  0  0  0  0  0  0  0  0  0  0  0
   28.9989  -19.1631  -18.5045 N   0  0  0  0  0  0  0  0  0  0  0  0
   27.9383  -20.0918  -18.1837 C   0  0  1  0  0  0  0  0  0  0  0  0
   27.9156  -21.2825  -19.1204 C   0  0  0  0  0  0  0  0  0  0  0  0
   26.8134  -22.5840  -18.5556 S   0  0  0  0  0  0  0  0  0  0  0  0
   28.0085  -20.5235  -16.7593 C   0  0  0  0  0  0  0  0  0  0  0  0
   29.0877  -21.0155  -16.3527 O   0  0  0  0  0  0  0  0  0  0  0  0
   26.9303  -20.4028  -15.8666 N   0  0  0  0  0  0  0  0  0  0  0  0
   26.8680  -21.0048  -14.5386 C   0  0  1  0  0  0  0  0  0  0  0  0
   26.9817  -19.9830  -13.4737 C   0  0  0  0  0  0  0  0  0  0  0  0
   26.2495  -20.3564  -12.2565 C   0  0  0  0  0  0  0  0  0  0  0  0
   26.7879  -20.9007  -11.0838 C   0  0  0  0  0  0  0  0  0  0  0  0
   25.8132  -21.1444  -10.2092 N   0  0  0  0  0  0  0  0  0  0  0  0
   24.6595  -20.7749  -10.7778 C   0  0  0  0  0  0  0  0  0  0  0  0
   23.3645  -20.8143  -10.2685 C   0  0  0  0  0  0  0  0  0  0  0  0
   22.3361  -20.3514  -11.0576 C   0  0  0  0  0  0  0  0  0  0  0  0
   22.5367  -19.8519  -12.3282 C   0  0  0  0  0  0  0  0  0  0  0  0
   23.8193  -19.8173  -12.8236 C   0  0  0  0  0  0  0  0  0  0  0  0
   24.8662  -20.2791  -12.0451 C   0  0  0  0  0  0  0  0  0  0  0  0
   25.8553  -22.0296  -14.3761 C   0  0  0  0  0  0  0  0  0  0  0  0
   26.0323  -23.0166  -13.6159 O   0  0  0  0  0  0  0  0  0  0  0  0
   24.6253  -21.9739  -15.0483 O   0  0  0  0  0  0  0  0  0  0  0  0
  2  4  1  0
  2  1  1  1
  3  2  1  0
  4  5  2  0
  6  7  1  0
  6  4  1  0
  8  9  1  0
  7  8  1  6
 10 12  1  0
 10  7  1  0
 11 10  2  0
 13 12  1  0
 13 14  1  1
 14 15  1  0
 15 16  2  0
 16 17  1  0
 18 19  2  0
 18 17  1  0
 20 19  1  0
 21 20  2  0
 22 21  1  0
 22 23  2  0
 23 15  1  0
 23 18  1  0
 24 13  1  0
 25 24  2  0
 26 24  1  0
M  END
$$$$
