ACW.pdb
     RDKit          3D

 26 27  0  0  1  0  0  0  0  0999 V2000
   47.0039  -14.7690   -9.8609 C   0  0  0  0  0  0  0  0  0  0  0  0
   46.5967  -13.3330  -10.0886 C   0  0  2  0  0  0  0  0  0  0  0  0
   47.6714  -12.4005   -9.8115 N   0  0  0  0  0  0  0  0  0  0  0  0
   45.4445  -12.9841   -9.2190 C   0  0  0  0  0  0  0  0  0  0  0  0
   44.3171  -13.5141   -9.4469 O   0  0  0  0  0  0  0  0  0  0  0  0
   45.5580  -12.0807   -8.1440 N   0  0  0  0  0  0  0  0  0  0  0  0
   44.3997  -11.7176   -7.3587 C   0  0  1  0  0  0  0  0  0  0  0  0
   44.7652  -11.3431   -5.9368 C   0  0  0  0  0  0  0  0  0  0  0  0
   43.3800  -10.6474   -5.0285 S   0  0  0  0  0  0  0  0  0  0  0  0
   43.6141  -10.6374   -8.0192 C   0  0  0  0  0  0  0  0  0  0  0  0
   44.2480   -9.6727   -8.5085 O   0  0  0  0  0  0  0  0  0  0  0  0
   42.2125  -10.6565   -8.1148 N   0  0  0  0  0  0  0  0  0  0  0  0
   41.3896   -9.5580   -8.6108 C   0  0  1  0  0  0  0  0  0  0  0  0
   40.0250  -10.0155   -8.9566 C   0  0  0  0  0  0  0  0  0  0  0  0
   39.0033   -8.9988   -8.6741 C   0  0  0  0  0  0  0  0  0  0  0  0
   38.6204   -7.9372   -9.5034 C   0  0  0  0  0  0  0  0  0  0  0  0
   37.6912   -7.2010   -8.8959 N   0  0  0  0  0  0  0  0  0  0  0  0
   37.4591   -7.7522   -7.6987 C   0  0  0  0  0  0  0  0  0  0  0  0
   36.5692   -7.3671   -6.6999 C   0  0  0  0  0  0  0  0  0  0  0  0
   36.5060   -8.1236   -5.5518 C   0  0  0  0  0  0  0  0  0  0  0  0
   37.2864   -9.2439   -5.3521 C   0  0  0  0  0  0  0  0  0  0  0  0
   38.1634   -9.6168   -6.3438 C   0  0  0  0  0  0  0  0  0  0  0  0
   38.2415   -8.8680   -7.5051 C   0  0  0  0  0  0  0  0  0  0  0  0
   41.5110   -8.3173   -7.8706 C   0  0  0  0  0  0  0  0  0  0  0  0
   41.5359   -8.2998   -6.6126 O   0  0  0  0  0  0  0  0  0  0  0  0
   41.6147   -7.0744   -8.5128 O   0  0  0  0  0  0  0  0  0  0  0  0
  2  4  1  0
  2  1  1  1
  3  2  1  0
  4  5  2  0
  6  7  1  0
  6  4  1  0
  8  9  1  0
  7  8  1  1
 10 12  1  0
 10  7  1  0
 11 10  2  0
 13 12  1  0
 13 14  1  1
 14 15  1  0
 15 16  2  0
 16 17  1  0
 18 19  2  0
 18 17  1  0
 20 19  1  0
 21 20  2  0
 22 21  1  0
 22 23  2  0
 23 15  1  0
 23 18  1  0
 24 13  1  0
 25 24  2  0
 26 24  1  0
M  END
$$$$
