ACW.pdb
     RDKit          3D

 26 27  0  0  1  0  0  0  0  0999 V2000
   28.7197  -17.5361  -15.1853 C   0  0  0  0  0  0  0  0  0  0  0  0
   27.7664  -18.6049  -15.6633 C   0  0  2  0  0  0  0  0  0  0  0  0
   27.0273  -18.2022  -16.8436 N   0  0  0  0  0  0  0  0  0  0  0  0
   26.7893  -18.9339  -14.5944 C   0  0  0  0  0  0  0  0  0  0  0  0
   26.0145  -18.0279  -14.1670 O   0  0  0  0  0  0  0  0  0  0  0  0
   26.6905  -20.2227  -14.0342 N   0  0  0  0  0  0  0  0  0  0  0  0
   25.6991  -20.5149  -13.0233 C   0  0  1  0  0  0  0  0  0  0  0  0
   24.7447  -21.6094  -13.4554 C   0  0  0  0  0  0  0  0  0  0  0  0
   23.2105  -20.9611  -14.1290 S   0  0  0  0  0  0  0  0  0  0  0  0
   26.3370  -20.8365  -11.7157 C   0  0  0  0  0  0  0  0  0  0  0  0
   26.9572  -21.9221  -11.6220 O   0  0  0  0  0  0  0  0  0  0  0  0
   26.2729  -19.9846  -10.6003 N   0  0  0  0  0  0  0  0  0  0  0  0
   26.2023  -20.4244   -9.2105 C   0  0  1  0  0  0  0  0  0  0  0  0
   26.8201  -19.4372   -8.2968 C   0  0  0  0  0  0  0  0  0  0  0  0
   26.8802  -19.9165   -6.9098 C   0  0  0  0  0  0  0  0  0  0  0  0
   25.9216  -20.6910   -6.2444 C   0  0  0  0  0  0  0  0  0  0  0  0
   26.3030  -20.8994   -4.9853 N   0  0  0  0  0  0  0  0  0  0  0  0
   27.4792  -20.2847   -4.8132 C   0  0  0  0  0  0  0  0  0  0  0  0
   28.2921  -20.2201   -3.6849 C   0  0  0  0  0  0  0  0  0  0  0  0
   29.4800  -19.5304   -3.7723 C   0  0  0  0  0  0  0  0  0  0  0  0
   29.8955  -18.9028   -4.9288 C   0  0  0  0  0  0  0  0  0  0  0  0
   29.0858  -18.9711   -6.0385 C   0  0  0  0  0  0  0  0  0  0  0  0
   27.8873  -19.6595   -5.9696 C   0  0  0  0  0  0  0  0  0  0  0  0
   24.9324  -21.0000   -8.8127 C   0  0  0  0  0  0  0  0  0  0  0  0
   23.8383  -20.5184   -9.2055 O   0  0  0  0  0  0  0  0  0  0  0  0
   24.8538  -22.1248   -7.9781 O   0  0  0  0  0  0  0  0  0  0  0  0
  2  4  1  0
  2  1  1  1
  3  2  1  0
  4  5  2  0
  6  7  1  0
  6  4  1  0
  8  9  1  0
  7  8  1  6
 10 12  1  0
 10  7  1  0
 11 10  2  0
 13 12  1  0
 13 14  1  1
 14 15  1  0
 15 16  2  0
 16 17  1  0
 18 19  2  0
 18 17  1  0
 20 19  1  0
 21 20  2  0
 22 21  1  0
 22 23  2  0
 23 15  1  0
 23 18  1  0
 24 13  1  0
 25 24  2  0
 26 24  1  0
M  END
$$$$
