ACW.pdb
     RDKit          3D

 26 27  0  0  1  0  0  0  0  0999 V2000
   28.5602  -23.2346  -17.2823 C   0  0  0  0  0  0  0  0  0  0  0  0
   27.9330  -21.8781  -17.0670 C   0  0  2  0  0  0  0  0  0  0  0  0
   28.4212  -20.8856  -18.0040 N   0  0  0  0  0  0  0  0  0  0  0  0
   28.2169  -21.3959  -15.6914 C   0  0  0  0  0  0  0  0  0  0  0  0
   29.3022  -21.7318  -15.1318 O   0  0  0  0  0  0  0  0  0  0  0  0
   27.3198  -20.5744  -14.9806 N   0  0  0  0  0  0  0  0  0  0  0  0
   27.6769  -20.0372  -13.6867 C   0  0  1  0  0  0  0  0  0  0  0  0
   27.5735  -18.5261  -13.6447 C   0  0  0  0  0  0  0  0  0  0  0  0
   25.9042  -17.9396  -13.9569 S   0  0  0  0  0  0  0  0  0  0  0  0
   26.8759  -20.6661  -12.5990 C   0  0  0  0  0  0  0  0  0  0  0  0
   25.7034  -21.0187  -12.8690 O   0  0  0  0  0  0  0  0  0  0  0  0
   27.3744  -20.8773  -11.3025 N   0  0  0  0  0  0  0  0  0  0  0  0
   26.5839  -21.3289  -10.1620 C   0  0  1  0  0  0  0  0  0  0  0  0
   27.4441  -21.6740   -9.0079 C   0  0  0  0  0  0  0  0  0  0  0  0
   27.3979  -20.6573   -7.9490 C   0  0  0  0  0  0  0  0  0  0  0  0
   26.5842  -19.5180   -7.9108 C   0  0  0  0  0  0  0  0  0  0  0  0
   26.8467  -18.8112   -6.8126 N   0  0  0  0  0  0  0  0  0  0  0  0
   27.8049  -19.4566   -6.1372 C   0  0  0  0  0  0  0  0  0  0  0  0
   28.4099  -19.1341   -4.9256 C   0  0  0  0  0  0  0  0  0  0  0  0
   29.3702  -19.9844   -4.4263 C   0  0  0  0  0  0  0  0  0  0  0  0
   29.7556  -21.1391   -5.0762 C   0  0  0  0  0  0  0  0  0  0  0  0
   29.1531  -21.4496   -6.2730 C   0  0  0  0  0  0  0  0  0  0  0  0
   28.1859  -20.6063   -6.7912 C   0  0  0  0  0  0  0  0  0  0  0  0
   25.3896  -20.5508   -9.8963 C   0  0  0  0  0  0  0  0  0  0  0  0
   25.3406  -19.3162  -10.1344 O   0  0  0  0  0  0  0  0  0  0  0  0
   24.2259  -21.1299   -9.3687 O   0  0  0  0  0  0  0  0  0  0  0  0
  2  4  1  0
  2  1  1  6
  3  2  1  0
  4  5  2  0
  6  7  1  0
  6  4  1  0
  8  9  1  0
  7  8  1  6
 10 12  1  0
 10  7  1  0
 11 10  2  0
 13 12  1  0
 13 14  1  1
 14 15  1  0
 15 16  2  0
 16 17  1  0
 18 19  2  0
 18 17  1  0
 20 19  1  0
 21 20  2  0
 22 21  1  0
 22 23  2  0
 23 15  1  0
 23 18  1  0
 24 13  1  0
 25 24  2  0
 26 24  1  0
M  END
$$$$
