HPY.pdb
     RDKit          3D

 30 32  0  0  1  0  0  0  0  0999 V2000
   22.8573   -6.0233  -18.8539 N   0  0  0  0  0  0  0  0  0  0  0  0
   21.8771   -5.9127  -17.8230 C   0  0  1  0  0  0  0  0  0  0  0  0
   20.9095   -4.7992  -18.2068 C   0  0  0  0  0  0  0  0  0  0  0  0
   21.6964   -3.5129  -18.2623 C   0  0  0  0  0  0  0  0  0  0  0  0
   21.9635   -2.7517  -19.3754 C   0  0  0  0  0  0  0  0  0  0  0  0
   22.6906   -1.6845  -18.9957 N   0  0  0  0  0  0  0  0  0  0  0  0
   22.8940   -1.7418  -17.6797 C   0  0  0  0  0  0  0  0  0  0  0  0
   22.2863   -2.8584  -17.2320 N   0  0  0  0  0  0  0  0  0  0  0  0
   21.2091   -7.1541  -17.4291 C   0  0  0  0  0  0  0  0  0  0  0  0
   20.6112   -7.7945  -18.3239 O   0  0  0  0  0  0  0  0  0  0  0  0
   21.1845   -7.6952  -16.0923 N   0  0  0  0  0  0  0  0  0  0  0  0
   22.2121   -7.3173  -15.1522 C   0  0  0  0  0  0  0  0  0  0  0  0
   21.9251   -8.1250  -13.9049 C   0  0  0  0  0  0  0  0  0  0  0  0
   20.4162   -8.3159  -13.9757 C   0  0  0  0  0  0  0  0  0  0  0  0
   20.2910   -8.6001  -15.4792 C   0  0  1  0  0  0  0  0  0  0  0  0
   18.8656   -8.5066  -15.8714 C   0  0  0  0  0  0  0  0  0  0  0  0
   18.3471   -7.4140  -16.1445 O   0  0  0  0  0  0  0  0  0  0  0  0
   17.6523  -15.9512  -15.9778 O   0  0  0  0  0  0  0  0  0  0  0  0
   17.3370  -14.6435  -16.3316 C   0  0  0  0  0  0  0  0  0  0  0  0
   16.0954  -14.0879  -16.1298 C   0  0  0  0  0  0  0  0  0  0  0  0
   15.7844  -12.7754  -16.4854 C   0  0  0  0  0  0  0  0  0  0  0  0
   16.7531  -11.9858  -17.0663 C   0  0  0  0  0  0  0  0  0  0  0  0
   16.4417  -10.5904  -17.4469 C   0  0  0  0  0  0  0  0  0  0  0  0
   16.6417   -9.6384  -16.2631 C   0  0  2  0  0  0  0  0  0  0  0  0
   18.0327   -9.6719  -15.9506 N   0  0  0  0  0  0  0  0  0  0  0  0
   15.7686  -10.1020  -15.1722 C   0  0  0  0  0  0  0  0  0  0  0  0
   16.2473  -10.6056  -14.1188 O   0  0  0  0  0  0  0  0  0  0  0  0
   17.9992  -12.5449  -17.2681 C   0  0  0  0  0  0  0  0  0  0  0  0
   18.2962  -13.8412  -16.9142 C   0  0  0  0  0  0  0  0  0  0  0  0
   14.3927  -10.0094  -15.2459 O   0  0  0  0  0  0  0  0  0  0  0  0
  2  1  1  6
  3  2  1  0
  3  4  1  0
  4  5  2  0
  4  8  1  0
  5  6  1  0
  6  7  1  0
  8  7  2  0
  9  2  1  0
 10  9  2  0
 11  9  1  0
 12 11  1  0
 13 12  1  0
 14 13  1  0
 15 14  1  0
 15 11  1  0
 15 16  1  6
 17 16  2  0
 19 20  2  0
 19 18  1  0
 21 20  1  0
 22 21  2  0
 23 22  1  0
 24 23  1  6
 24 25  1  0
 25 16  1  0
 26 24  1  0
 26 30  1  0
 27 26  2  0
 28 22  1  0
 28 29  2  0
 29 19  1  0
M  END
$$$$
