HPY.pdb
     RDKit          3D

 30 32  0  0  1  0  0  0  0  0999 V2000
   26.2934  -21.1258  -13.0837 N   0  0  0  0  0  0  0  0  0  0  0  0
   27.4128  -20.5596  -12.4041 C   0  0  1  0  0  0  0  0  0  0  0  0
   27.2732  -19.0422  -12.4439 C   0  0  0  0  0  0  0  0  0  0  0  0
   27.2893  -18.6225  -13.8932 C   0  0  0  0  0  0  0  0  0  0  0  0
   28.3922  -18.4644  -14.6983 C   0  0  0  0  0  0  0  0  0  0  0  0
   27.9751  -18.0845  -15.9204 N   0  0  0  0  0  0  0  0  0  0  0  0
   26.6451  -17.9962  -15.9188 C   0  0  0  0  0  0  0  0  0  0  0  0
   26.2266  -18.3253  -14.6806 N   0  0  0  0  0  0  0  0  0  0  0  0
   27.6906  -21.0836  -11.0659 C   0  0  0  0  0  0  0  0  0  0  0  0
   26.7525  -21.0690  -10.2364 O   0  0  0  0  0  0  0  0  0  0  0  0
   28.9591  -21.6127  -10.6286 N   0  0  0  0  0  0  0  0  0  0  0  0
   29.8484  -22.2170  -11.5913 C   0  0  0  0  0  0  0  0  0  0  0  0
   31.0207  -22.7281  -10.7820 C   0  0  0  0  0  0  0  0  0  0  0  0
   31.0517  -21.7659   -9.6025 C   0  0  0  0  0  0  0  0  0  0  0  0
   29.5413  -21.6709   -9.3439 C   0  0  1  0  0  0  0  0  0  0  0  0
   29.2777  -20.5316   -8.4346 C   0  0  0  0  0  0  0  0  0  0  0  0
   29.0955  -19.3879   -8.8774 O   0  0  0  0  0  0  0  0  0  0  0  0
   23.2759  -22.1385   -6.3797 O   0  0  0  0  0  0  0  0  0  0  0  0
   24.4068  -21.3295   -6.4117 C   0  0  0  0  0  0  0  0  0  0  0  0
   24.9508  -20.8424   -7.5769 C   0  0  0  0  0  0  0  0  0  0  0  0
   26.0847  -20.0302   -7.6036 C   0  0  0  0  0  0  0  0  0  0  0  0
   26.7002  -19.6910   -6.4182 C   0  0  0  0  0  0  0  0  0  0  0  0
   27.9018  -18.8280   -6.4276 C   0  0  0  0  0  0  0  0  0  0  0  0
   29.1595  -19.6303   -6.0779 C   0  0  2  0  0  0  0  0  0  0  0  0
   29.2228  -20.7062   -7.0117 N   0  0  0  0  0  0  0  0  0  0  0  0
   29.0336  -20.0580   -4.6749 C   0  0  0  0  0  0  0  0  0  0  0  0
   28.9197  -21.2769   -4.3691 O   0  0  0  0  0  0  0  0  0  0  0  0
   26.1528  -20.1807   -5.2491 C   0  0  0  0  0  0  0  0  0  0  0  0
   25.0339  -20.9817   -5.2332 C   0  0  0  0  0  0  0  0  0  0  0  0
   29.0343  -19.1540   -3.6309 O   0  0  0  0  0  0  0  0  0  0  0  0
  2  1  1  1
  3  2  1  0
  3  4  1  0
  4  5  2  0
  4  8  1  0
  5  6  1  0
  6  7  1  0
  8  7  2  0
  9  2  1  0
 10  9  2  0
 11  9  1  0
 12 11  1  0
 13 12  1  0
 14 13  1  0
 15 14  1  0
 15 11  1  0
 15 16  1  1
 17 16  2  0
 19 20  2  0
 19 18  1  0
 21 20  1  0
 22 21  2  0
 23 22  1  0
 24 23  1  6
 24 25  1  0
 25 16  1  0
 26 24  1  0
 26 30  1  0
 27 26  2  0
 28 22  1  0
 28 29  2  0
 29 19  1  0
M  END
$$$$
