HPY.pdb
     RDKit          3D

 30 32  0  0  1  0  0  0  0  0999 V2000
   23.6392  -28.5548  -17.3738 N   0  0  0  0  0  0  0  0  0  0  0  0
   23.7413  -27.1684  -17.6950 C   0  0  1  0  0  0  0  0  0  0  0  0
   22.6236  -26.8251  -18.6730 C   0  0  0  0  0  0  0  0  0  0  0  0
   23.2659  -26.4834  -19.9949 C   0  0  0  0  0  0  0  0  0  0  0  0
   23.2092  -27.2143  -21.1578 C   0  0  0  0  0  0  0  0  0  0  0  0
   23.9103  -26.5624  -22.1039 N   0  0  0  0  0  0  0  0  0  0  0  0
   24.4101  -25.4425  -21.5817 C   0  0  0  0  0  0  0  0  0  0  0  0
   24.0160  -25.3944  -20.2937 N   0  0  0  0  0  0  0  0  0  0  0  0
   23.8269  -26.2459  -16.5618 C   0  0  0  0  0  0  0  0  0  0  0  0
   23.0185  -26.4149  -15.6204 O   0  0  0  0  0  0  0  0  0  0  0  0
   24.7670  -25.1582  -16.4463 N   0  0  0  0  0  0  0  0  0  0  0  0
   25.9195  -25.1180  -17.3139 C   0  0  0  0  0  0  0  0  0  0  0  0
   26.7133  -23.9109  -16.8632 C   0  0  0  0  0  0  0  0  0  0  0  0
   25.6320  -22.9928  -16.3101 C   0  0  0  0  0  0  0  0  0  0  0  0
   24.7895  -24.0462  -15.5768 C   0  0  1  0  0  0  0  0  0  0  0  0
   23.4825  -23.4515  -15.2127 C   0  0  0  0  0  0  0  0  0  0  0  0
   22.5658  -23.3633  -16.0429 O   0  0  0  0  0  0  0  0  0  0  0  0
   26.3695  -19.9009   -9.5189 O   0  0  0  0  0  0  0  0  0  0  0  0
   25.2984  -20.5526  -10.1211 C   0  0  0  0  0  0  0  0  0  0  0  0
   25.4146  -21.7717  -10.7465 C   0  0  0  0  0  0  0  0  0  0  0  0
   24.3370  -22.4219  -11.3481 C   0  0  0  0  0  0  0  0  0  0  0  0
   23.0927  -21.8300  -11.3241 C   0  0  0  0  0  0  0  0  0  0  0  0
   21.9379  -22.5068  -11.9544 C   0  0  0  0  0  0  0  0  0  0  0  0
   21.9896  -22.3789  -13.4804 C   0  0  2  0  0  0  0  0  0  0  0  0
   23.2272  -22.9566  -13.8907 N   0  0  0  0  0  0  0  0  0  0  0  0
   21.8547  -20.9500  -13.8078 C   0  0  0  0  0  0  0  0  0  0  0  0
   22.8482  -20.2661  -14.1788 O   0  0  0  0  0  0  0  0  0  0  0  0
   22.9775  -20.6060  -10.6958 C   0  0  0  0  0  0  0  0  0  0  0  0
   24.0470  -19.9723  -10.1054 C   0  0  0  0  0  0  0  0  0  0  0  0
   20.6437  -20.2914  -13.7267 O   0  0  0  0  0  0  0  0  0  0  0  0
  2  1  1  1
  3  2  1  0
  3  4  1  0
  4  5  2  0
  4  8  1  0
  5  6  1  0
  6  7  1  0
  8  7  2  0
  9  2  1  0
 10  9  2  0
 11  9  1  0
 12 11  1  0
 13 12  1  0
 14 13  1  0
 15 14  1  0
 15 11  1  0
 15 16  1  6
 17 16  2  0
 19 20  2  0
 19 18  1  0
 21 20  1  0
 22 21  2  0
 23 22  1  0
 24 23  1  1
 24 25  1  0
 25 16  1  0
 26 24  1  0
 26 30  1  0
 27 26  2  0
 28 22  1  0
 28 29  2  0
 29 19  1  0
M  END
$$$$
