HPY.pdb
     RDKit          3D

 30 32  0  0  1  0  0  0  0  0999 V2000
   24.7585  -22.1354  -17.0178 N   0  0  0  0  0  0  0  0  0  0  0  0
   24.8192  -21.1327  -16.0046 C   0  0  1  0  0  0  0  0  0  0  0  0
   23.3923  -20.7820  -15.5990 C   0  0  0  0  0  0  0  0  0  0  0  0
   23.0096  -19.5190  -16.3307 C   0  0  0  0  0  0  0  0  0  0  0  0
   23.1304  -18.2278  -15.8748 C   0  0  0  0  0  0  0  0  0  0  0  0
   22.6799  -17.3954  -16.8318 N   0  0  0  0  0  0  0  0  0  0  0  0
   22.2774  -18.1138  -17.8798 C   0  0  0  0  0  0  0  0  0  0  0  0
   22.4793  -19.4108  -17.5736 N   0  0  0  0  0  0  0  0  0  0  0  0
   25.6951  -21.4147  -14.8663 C   0  0  0  0  0  0  0  0  0  0  0  0
   25.5165  -22.4941  -14.2568 O   0  0  0  0  0  0  0  0  0  0  0  0
   26.7448  -20.5468  -14.3919 N   0  0  0  0  0  0  0  0  0  0  0  0
   27.3888  -19.6399  -15.3114 C   0  0  0  0  0  0  0  0  0  0  0  0
   28.4750  -18.9620  -14.5044 C   0  0  0  0  0  0  0  0  0  0  0  0
   27.9028  -18.9881  -13.0937 C   0  0  0  0  0  0  0  0  0  0  0  0
   27.3182  -20.4077  -13.1094 C   0  0  1  0  0  0  0  0  0  0  0  0
   26.4135  -20.5703  -11.9477 C   0  0  0  0  0  0  0  0  0  0  0  0
   25.2442  -20.1594  -11.9845 O   0  0  0  0  0  0  0  0  0  0  0  0
   29.3920  -18.4380   -5.0280 O   0  0  0  0  0  0  0  0  0  0  0  0
   28.7980  -19.3465   -5.8976 C   0  0  0  0  0  0  0  0  0  0  0  0
   29.5164  -20.2265   -6.6725 C   0  0  0  0  0  0  0  0  0  0  0  0
   28.9158  -21.1367   -7.5425 C   0  0  0  0  0  0  0  0  0  0  0  0
   27.5417  -21.1690   -7.6425 C   0  0  0  0  0  0  0  0  0  0  0  0
   26.8878  -22.1300   -8.5578 C   0  0  0  0  0  0  0  0  0  0  0  0
   26.0252  -21.4038   -9.5952 C   0  0  2  0  0  0  0  0  0  0  0  0
   26.8528  -21.2071  -10.7397 N   0  0  0  0  0  0  0  0  0  0  0  0
   25.5481  -20.1562   -8.9761 C   0  0  0  0  0  0  0  0  0  0  0  0
   24.5519  -20.1483   -8.2016 O   0  0  0  0  0  0  0  0  0  0  0  0
   26.8218  -20.2850   -6.8638 C   0  0  0  0  0  0  0  0  0  0  0  0
   27.4236  -19.3904   -6.0087 C   0  0  0  0  0  0  0  0  0  0  0  0
   26.1622  -18.9415   -9.2094 O   0  0  0  0  0  0  0  0  0  0  0  0
  2  1  1  6
  3  2  1  0
  3  4  1  0
  4  5  2  0
  4  8  1  0
  5  6  1  0
  6  7  1  0
  8  7  2  0
  9  2  1  0
 10  9  2  0
 11  9  1  0
 12 11  1  0
 13 12  1  0
 14 13  1  0
 15 14  1  0
 15 11  1  0
 15 16  1  1
 17 16  2  0
 19 20  2  0
 19 18  1  0
 21 20  1  0
 22 21  2  0
 23 22  1  0
 24 23  1  1
 24 25  1  0
 25 16  1  0
 26 24  1  0
 26 30  1  0
 27 26  2  0
 28 22  1  0
 28 29  2  0
 29 19  1  0
M  END
$$$$
