HPY.pdb
     RDKit          3D

 30 32  0  0  1  0  0  0  0  0999 V2000
   14.5945  -26.4551   -7.6360 N   0  0  0  0  0  0  0  0  0  0  0  0
   14.6762  -25.6979   -6.4295 C   0  0  1  0  0  0  0  0  0  0  0  0
   13.4582  -24.7841   -6.3602 C   0  0  0  0  0  0  0  0  0  0  0  0
   13.4927  -23.8886   -7.5743 C   0  0  0  0  0  0  0  0  0  0  0  0
   14.1477  -22.6866   -7.6996 C   0  0  0  0  0  0  0  0  0  0  0  0
   13.9294  -22.2110   -8.9397 N   0  0  0  0  0  0  0  0  0  0  0  0
   13.1584  -23.0700   -9.6062 C   0  0  0  0  0  0  0  0  0  0  0  0
   12.8922  -24.0948   -8.7721 N   0  0  0  0  0  0  0  0  0  0  0  0
   14.9022  -26.4605   -5.2006 C   0  0  0  0  0  0  0  0  0  0  0  0
   13.9073  -27.0073   -4.6719 O   0  0  0  0  0  0  0  0  0  0  0  0
   16.1792  -26.6291   -4.5516 N   0  0  0  0  0  0  0  0  0  0  0  0
   17.3927  -26.4792   -5.3181 C   0  0  0  0  0  0  0  0  0  0  0  0
   18.5134  -26.8037   -4.3540 C   0  0  0  0  0  0  0  0  0  0  0  0
   17.9198  -26.4012   -3.0110 C   0  0  0  0  0  0  0  0  0  0  0  0
   16.4998  -26.9482   -3.2143 C   0  0  1  0  0  0  0  0  0  0  0  0
   15.6148  -26.3977   -2.1616 C   0  0  0  0  0  0  0  0  0  0  0  0
   15.1828  -25.2375   -2.2306 O   0  0  0  0  0  0  0  0  0  0  0  0
   14.9712  -33.0001    1.0733 O   0  0  0  0  0  0  0  0  0  0  0  0
   14.5315  -31.7082    0.8040 C   0  0  0  0  0  0  0  0  0  0  0  0
   14.1287  -31.2954   -0.4443 C   0  0  0  0  0  0  0  0  0  0  0  0
   13.6874  -29.9988   -0.7091 C   0  0  0  0  0  0  0  0  0  0  0  0
   13.6470  -29.0772    0.3147 C   0  0  0  0  0  0  0  0  0  0  0  0
   13.1788  -27.6984    0.0526 C   0  0  0  0  0  0  0  0  0  0  0  0
   14.3543  -26.7169    0.0039 C   0  0  2  0  0  0  0  0  0  0  0  0
   15.2243  -27.1822   -1.0258 N   0  0  0  0  0  0  0  0  0  0  0  0
   14.9653  -26.6941    1.3430 C   0  0  0  0  0  0  0  0  0  0  0  0
   14.3127  -26.3160    2.3547 O   0  0  0  0  0  0  0  0  0  0  0  0
   14.0517  -29.4932    1.5675 C   0  0  0  0  0  0  0  0  0  0  0  0
   14.4859  -30.7747    1.8186 C   0  0  0  0  0  0  0  0  0  0  0  0
   16.2729  -27.0828    1.5581 O   0  0  0  0  0  0  0  0  0  0  0  0
  2  1  1  6
  3  2  1  0
  3  4  1  0
  4  5  2  0
  4  8  1  0
  5  6  1  0
  6  7  1  0
  8  7  2  0
  9  2  1  0
 10  9  2  0
 11  9  1  0
 12 11  1  0
 13 12  1  0
 14 13  1  0
 15 14  1  0
 15 11  1  0
 15 16  1  1
 17 16  2  0
 19 20  2  0
 19 18  1  0
 21 20  1  0
 22 21  2  0
 23 22  1  0
 24 23  1  1
 24 25  1  0
 25 16  1  0
 26 24  1  0
 26 30  1  0
 27 26  2  0
 28 22  1  0
 28 29  2  0
 29 19  1  0
M  END
$$$$
