HPY.pdb
     RDKit          3D

 30 32  0  0  1  0  0  0  0  0999 V2000
   23.5251  -18.9047  -17.7170 N   0  0  0  0  0  0  0  0  0  0  0  0
   24.2756  -18.3356  -16.6453 C   0  0  1  0  0  0  0  0  0  0  0  0
   23.4355  -17.2326  -16.0119 C   0  0  0  0  0  0  0  0  0  0  0  0
   23.1507  -16.2075  -17.0819 C   0  0  0  0  0  0  0  0  0  0  0  0
   24.0063  -15.2393  -17.5512 C   0  0  0  0  0  0  0  0  0  0  0  0
   23.3685  -14.5345  -18.5043 N   0  0  0  0  0  0  0  0  0  0  0  0
   22.1374  -15.0222  -18.6563 C   0  0  0  0  0  0  0  0  0  0  0  0
   22.0048  -16.0442  -17.7877 N   0  0  0  0  0  0  0  0  0  0  0  0
   24.8296  -19.2774  -15.6713 C   0  0  0  0  0  0  0  0  0  0  0  0
   24.0186  -19.9027  -14.9505 O   0  0  0  0  0  0  0  0  0  0  0  0
   26.2345  -19.5392  -15.4763 N   0  0  0  0  0  0  0  0  0  0  0  0
   27.1604  -19.2974  -16.5564 C   0  0  0  0  0  0  0  0  0  0  0  0
   28.5058  -19.7544  -16.0352 C   0  0  0  0  0  0  0  0  0  0  0  0
   28.3723  -19.5291  -14.5354 C   0  0  0  0  0  0  0  0  0  0  0  0
   26.9339  -20.0346  -14.3545 C   0  0  1  0  0  0  0  0  0  0  0  0
   26.4413  -19.6222  -13.0197 C   0  0  0  0  0  0  0  0  0  0  0  0
   26.2419  -18.4282  -12.7517 O   0  0  0  0  0  0  0  0  0  0  0  0
   20.1310  -21.9486  -12.3409 O   0  0  0  0  0  0  0  0  0  0  0  0
   21.2730  -21.3102  -11.8686 C   0  0  0  0  0  0  0  0  0  0  0  0
   21.4800  -21.0245  -10.5395 C   0  0  0  0  0  0  0  0  0  0  0  0
   22.6276  -20.3850  -10.0705 C   0  0  0  0  0  0  0  0  0  0  0  0
   23.6083  -20.0159  -10.9657 C   0  0  0  0  0  0  0  0  0  0  0  0
   24.8334  -19.3397  -10.4855 C   0  0  0  0  0  0  0  0  0  0  0  0
   26.0536  -20.2585  -10.6062 C   0  0  2  0  0  0  0  0  0  0  0  0
   26.1765  -20.5843  -11.9891 N   0  0  0  0  0  0  0  0  0  0  0  0
   25.8188  -21.4202   -9.7329 C   0  0  0  0  0  0  0  0  0  0  0  0
   25.7938  -22.5937  -10.1961 O   0  0  0  0  0  0  0  0  0  0  0  0
   23.3991  -20.3036  -12.2997 C   0  0  0  0  0  0  0  0  0  0  0  0
   22.2631  -20.9346  -12.7527 C   0  0  0  0  0  0  0  0  0  0  0  0
   25.6161  -21.2853   -8.3736 O   0  0  0  0  0  0  0  0  0  0  0  0
  2  1  1  6
  3  2  1  0
  3  4  1  0
  4  5  2  0
  4  8  1  0
  5  6  1  0
  6  7  1  0
  8  7  2  0
  9  2  1  0
 10  9  2  0
 11  9  1  0
 12 11  1  0
 13 12  1  0
 14 13  1  0
 15 14  1  0
 15 11  1  0
 15 16  1  1
 17 16  2  0
 19 20  2  0
 19 18  1  0
 21 20  1  0
 22 21  2  0
 23 22  1  0
 24 23  1  6
 24 25  1  0
 25 16  1  0
 26 24  1  0
 26 30  1  0
 27 26  2  0
 28 22  1  0
 28 29  2  0
 29 19  1  0
M  END
$$$$
