HPY.pdb
     RDKit          3D

 30 32  0  0  1  0  0  0  0  0999 V2000
   27.7403  -22.1528  -17.2635 N   0  0  0  0  0  0  0  0  0  0  0  0
   27.5578  -21.0181  -16.4182 C   0  0  1  0  0  0  0  0  0  0  0  0
   26.5181  -20.1090  -17.0632 C   0  0  0  0  0  0  0  0  0  0  0  0
   27.0249  -18.6918  -16.9561 C   0  0  0  0  0  0  0  0  0  0  0  0
   28.2284  -18.2788  -16.4357 C   0  0  0  0  0  0  0  0  0  0  0  0
   28.2941  -16.9377  -16.5298 N   0  0  0  0  0  0  0  0  0  0  0  0
   27.1737  -16.4850  -17.0923 C   0  0  0  0  0  0  0  0  0  0  0  0
   26.3989  -17.5567  -17.3529 N   0  0  0  0  0  0  0  0  0  0  0  0
   27.2901  -21.2986  -15.0067 C   0  0  0  0  0  0  0  0  0  0  0  0
   26.1633  -21.7616  -14.7160 O   0  0  0  0  0  0  0  0  0  0  0  0
   28.2209  -21.0820  -13.9264 N   0  0  0  0  0  0  0  0  0  0  0  0
   29.6274  -20.9397  -14.2163 C   0  0  0  0  0  0  0  0  0  0  0  0
   30.2999  -20.8152  -12.8661 C   0  0  0  0  0  0  0  0  0  0  0  0
   29.2106  -20.1806  -12.0124 C   0  0  0  0  0  0  0  0  0  0  0  0
   28.0120  -20.9861  -12.5335 C   0  0  1  0  0  0  0  0  0  0  0  0
   26.7599  -20.3336  -12.0852 C   0  0  0  0  0  0  0  0  0  0  0  0
   26.2354  -19.4290  -12.7514 O   0  0  0  0  0  0  0  0  0  0  0  0
   18.5322  -19.0214  -10.5129 O   0  0  0  0  0  0  0  0  0  0  0  0
   19.8232  -19.4917  -10.7287 C   0  0  0  0  0  0  0  0  0  0  0  0
   20.3762  -20.5274  -10.0128 C   0  0  0  0  0  0  0  0  0  0  0  0
   21.6713  -20.9963  -10.2338 C   0  0  0  0  0  0  0  0  0  0  0  0
   22.4454  -20.4066  -11.2097 C   0  0  0  0  0  0  0  0  0  0  0  0
   23.8200  -20.8932  -11.4598 C   0  0  0  0  0  0  0  0  0  0  0  0
   24.8140  -20.2670  -10.4762 C   0  0  2  0  0  0  0  0  0  0  0  0
   26.1077  -20.7214  -10.8678 N   0  0  0  0  0  0  0  0  0  0  0  0
   24.4148  -20.6827   -9.1216 C   0  0  0  0  0  0  0  0  0  0  0  0
   24.6099  -21.8607   -8.7135 O   0  0  0  0  0  0  0  0  0  0  0  0
   21.8887  -19.3671  -11.9277 C   0  0  0  0  0  0  0  0  0  0  0  0
   20.6100  -18.9113  -11.7019 C   0  0  0  0  0  0  0  0  0  0  0  0
   23.8120  -19.8112   -8.2360 O   0  0  0  0  0  0  0  0  0  0  0  0
  2  1  1  6
  3  2  1  0
  3  4  1  0
  4  5  2  0
  4  8  1  0
  5  6  1  0
  6  7  1  0
  8  7  2  0
  9  2  1  0
 10  9  2  0
 11  9  1  0
 12 11  1  0
 13 12  1  0
 14 13  1  0
 15 14  1  0
 15 11  1  0
 15 16  1  6
 17 16  2  0
 19 20  2  0
 19 18  1  0
 21 20  1  0
 22 21  2  0
 23 22  1  0
 24 23  1  6
 24 25  1  0
 25 16  1  0
 26 24  1  0
 26 30  1  0
 27 26  2  0
 28 22  1  0
 28 29  2  0
 29 19  1  0
M  END
$$$$
