HPY.pdb
     RDKit          3D

 30 32  0  0  1  0  0  0  0  0999 V2000
   27.9734  -18.4940  -12.7435 N   0  0  0  0  0  0  0  0  0  0  0  0
   27.7613  -19.5327  -13.6983 C   0  0  1  0  0  0  0  0  0  0  0  0
   27.6000  -20.8461  -12.9416 C   0  0  0  0  0  0  0  0  0  0  0  0
   28.7810  -20.9828  -12.0123 C   0  0  0  0  0  0  0  0  0  0  0  0
   29.7437  -20.0372  -11.7506 C   0  0  0  0  0  0  0  0  0  0  0  0
   30.6163  -20.5531  -10.8650 N   0  0  0  0  0  0  0  0  0  0  0  0
   30.2403  -21.7938  -10.5553 C   0  0  0  0  0  0  0  0  0  0  0  0
   29.1191  -22.0558  -11.2559 N   0  0  0  0  0  0  0  0  0  0  0  0
   26.7081  -19.2978  -14.6873 C   0  0  0  0  0  0  0  0  0  0  0  0
   25.6180  -18.8439  -14.2699 O   0  0  0  0  0  0  0  0  0  0  0  0
   26.8274  -19.5497  -16.1025 N   0  0  0  0  0  0  0  0  0  0  0  0
   28.1365  -19.6125  -16.7065 C   0  0  0  0  0  0  0  0  0  0  0  0
   27.8817  -19.8020  -18.1863 C   0  0  0  0  0  0  0  0  0  0  0  0
   26.5497  -20.5393  -18.1998 C   0  0  0  0  0  0  0  0  0  0  0  0
   25.8394  -19.7504  -17.0907 C   0  0  1  0  0  0  0  0  0  0  0  0
   24.6193  -20.4842  -16.6815 C   0  0  0  0  0  0  0  0  0  0  0  0
   24.6908  -21.6162  -16.1806 O   0  0  0  0  0  0  0  0  0  0  0  0
   17.8314  -22.0800  -11.7765 O   0  0  0  0  0  0  0  0  0  0  0  0
   18.9112  -21.5881  -12.5022 C   0  0  0  0  0  0  0  0  0  0  0  0
   18.8923  -20.3755  -13.1504 C   0  0  0  0  0  0  0  0  0  0  0  0
   19.9784  -19.8858  -13.8761 C   0  0  0  0  0  0  0  0  0  0  0  0
   21.1302  -20.6382  -13.9576 C   0  0  0  0  0  0  0  0  0  0  0  0
   22.2929  -20.1331  -14.7203 C   0  0  0  0  0  0  0  0  0  0  0  0
   22.1373  -20.4205  -16.2172 C   0  0  2  0  0  0  0  0  0  0  0  0
   23.3126  -19.9161  -16.8479 N   0  0  0  0  0  0  0  0  0  0  0  0
   20.8913  -19.7754  -16.6627 C   0  0  0  0  0  0  0  0  0  0  0  0
   19.8374  -20.4441  -16.8488 O   0  0  0  0  0  0  0  0  0  0  0  0
   21.1477  -21.8554  -13.3061 C   0  0  0  0  0  0  0  0  0  0  0  0
   20.0706  -22.3300  -12.5929 C   0  0  0  0  0  0  0  0  0  0  0  0
   20.8134  -18.4167  -16.8971 O   0  0  0  0  0  0  0  0  0  0  0  0
  2  1  1  1
  3  2  1  0
  3  4  1  0
  4  5  2  0
  4  8  1  0
  5  6  1  0
  6  7  1  0
  8  7  2  0
  9  2  1  0
 10  9  2  0
 11  9  1  0
 12 11  1  0
 13 12  1  0
 14 13  1  0
 15 14  1  0
 15 11  1  0
 15 16  1  1
 17 16  2  0
 19 20  2  0
 19 18  1  0
 21 20  1  0
 22 21  2  0
 23 22  1  0
 24 23  1  1
 24 25  1  0
 25 16  1  0
 26 24  1  0
 26 30  1  0
 27 26  2  0
 28 22  1  0
 28 29  2  0
 29 19  1  0
M  END
$$$$
