HPY.pdb
     RDKit          3D

 30 32  0  0  1  0  0  0  0  0999 V2000
   24.3286  -14.3231  -18.5113 N   0  0  0  0  0  0  0  0  0  0  0  0
   24.8878  -13.0132  -18.5968 C   0  0  1  0  0  0  0  0  0  0  0  0
   24.6609  -12.4926  -20.0114 C   0  0  0  0  0  0  0  0  0  0  0  0
   25.3283  -13.4557  -20.9622 C   0  0  0  0  0  0  0  0  0  0  0  0
   26.3216  -13.1711  -21.8689 C   0  0  0  0  0  0  0  0  0  0  0  0
   26.6413  -14.3056  -22.5188 N   0  0  0  0  0  0  0  0  0  0  0  0
   25.8853  -15.3008  -22.0557 C   0  0  0  0  0  0  0  0  0  0  0  0
   25.0837  -14.7814  -21.1046 N   0  0  0  0  0  0  0  0  0  0  0  0
   24.4822  -12.0669  -17.5563 C   0  0  0  0  0  0  0  0  0  0  0  0
   23.2689  -12.0371  -17.2474 O   0  0  0  0  0  0  0  0  0  0  0  0
   25.3695  -11.1666  -16.8618 N   0  0  0  0  0  0  0  0  0  0  0  0
   26.7673  -11.5018  -16.7345 C   0  0  0  0  0  0  0  0  0  0  0  0
   27.3651  -10.3960  -15.8915 C   0  0  0  0  0  0  0  0  0  0  0  0
   26.4715   -9.2087  -16.2232 C   0  0  0  0  0  0  0  0  0  0  0  0
   25.1178   -9.9331  -16.2229 C   0  0  1  0  0  0  0  0  0  0  0  0
   24.0988   -9.0525  -16.8398 C   0  0  0  0  0  0  0  0  0  0  0  0
   23.8818   -9.0815  -18.0602 O   0  0  0  0  0  0  0  0  0  0  0  0
   18.0914   -9.7610  -12.4927 O   0  0  0  0  0  0  0  0  0  0  0  0
   18.8452   -9.3880  -13.6005 C   0  0  0  0  0  0  0  0  0  0  0  0
   19.4052  -10.2948  -14.4695 C   0  0  0  0  0  0  0  0  0  0  0  0
   20.1596   -9.9157  -15.5799 C   0  0  0  0  0  0  0  0  0  0  0  0
   20.3629   -8.5763  -15.8325 C   0  0  0  0  0  0  0  0  0  0  0  0
   21.1577   -8.1561  -17.0075 C   0  0  0  0  0  0  0  0  0  0  0  0
   22.3318   -7.2651  -16.5888 C   0  0  2  0  0  0  0  0  0  0  0  0
   23.3260   -8.1355  -16.0525 N   0  0  0  0  0  0  0  0  0  0  0  0
   21.8147   -6.2776  -15.6272 C   0  0  0  0  0  0  0  0  0  0  0  0
   21.0485   -5.3445  -15.9943 O   0  0  0  0  0  0  0  0  0  0  0  0
   19.7999   -7.6671  -14.9593 C   0  0  0  0  0  0  0  0  0  0  0  0
   19.0575   -8.0511  -13.8661 C   0  0  0  0  0  0  0  0  0  0  0  0
   22.1389   -6.3225  -14.2856 O   0  0  0  0  0  0  0  0  0  0  0  0
  2  1  1  1
  3  2  1  0
  3  4  1  0
  4  5  2  0
  4  8  1  0
  5  6  1  0
  6  7  1  0
  8  7  2  0
  9  2  1  0
 10  9  2  0
 11  9  1  0
 12 11  1  0
 13 12  1  0
 14 13  1  0
 15 14  1  0
 15 11  1  0
 15 16  1  6
 17 16  2  0
 19 20  2  0
 19 18  1  0
 21 20  1  0
 22 21  2  0
 23 22  1  0
 24 23  1  1
 24 25  1  0
 25 16  1  0
 26 24  1  0
 26 30  1  0
 27 26  2  0
 28 22  1  0
 28 29  2  0
 29 19  1  0
M  END
$$$$
