HPY.pdb
     RDKit          3D

 30 32  0  0  1  0  0  0  0  0999 V2000
   13.9884  -24.5913  -12.0273 N   0  0  0  0  0  0  0  0  0  0  0  0
   15.0427  -24.0748  -11.2165 C   0  0  1  0  0  0  0  0  0  0  0  0
   14.6037  -22.7190  -10.6757 C   0  0  0  0  0  0  0  0  0  0  0  0
   14.4083  -21.8005  -11.8569 C   0  0  0  0  0  0  0  0  0  0  0  0
   14.1966  -20.4427  -11.8252 C   0  0  0  0  0  0  0  0  0  0  0  0
   14.0759  -20.0018  -13.0913 N   0  0  0  0  0  0  0  0  0  0  0  0
   14.2040  -21.0332  -13.9257 C   0  0  0  0  0  0  0  0  0  0  0  0
   14.4074  -22.1316  -13.1715 N   0  0  0  0  0  0  0  0  0  0  0  0
   15.5644  -24.9719  -10.1842 C   0  0  0  0  0  0  0  0  0  0  0  0
   14.7851  -25.3011   -9.2609 O   0  0  0  0  0  0  0  0  0  0  0  0
   16.9047  -25.5036  -10.1470 N   0  0  0  0  0  0  0  0  0  0  0  0
   17.6678  -25.5970  -11.3683 C   0  0  0  0  0  0  0  0  0  0  0  0
   18.9668  -26.2662  -10.9741 C   0  0  0  0  0  0  0  0  0  0  0  0
   19.1298  -25.8397   -9.5216 C   0  0  0  0  0  0  0  0  0  0  0  0
   17.6712  -25.9997   -9.0702 C   0  0  1  0  0  0  0  0  0  0  0  0
   17.4958  -25.3346   -7.7582 C   0  0  0  0  0  0  0  0  0  0  0  0
   17.1066  -24.1598   -7.6829 O   0  0  0  0  0  0  0  0  0  0  0  0
   13.9026  -30.6634   -4.6009 O   0  0  0  0  0  0  0  0  0  0  0  0
   14.4232  -29.3792   -4.7206 C   0  0  0  0  0  0  0  0  0  0  0  0
   14.3199  -28.6293   -5.8686 C   0  0  0  0  0  0  0  0  0  0  0  0
   14.8428  -27.3411   -5.9832 C   0  0  0  0  0  0  0  0  0  0  0  0
   15.4956  -26.7793   -4.9074 C   0  0  0  0  0  0  0  0  0  0  0  0
   16.0537  -25.4130   -5.0103 C   0  0  0  0  0  0  0  0  0  0  0  0
   17.5687  -25.4519   -5.2361 C   0  0  2  0  0  0  0  0  0  0  0  0
   17.7682  -26.0210   -6.5283 N   0  0  0  0  0  0  0  0  0  0  0  0
   18.1583  -26.2336   -4.1368 C   0  0  0  0  0  0  0  0  0  0  0  0
   18.7143  -27.3463   -4.3488 O   0  0  0  0  0  0  0  0  0  0  0  0
   15.5985  -27.5334   -3.7555 C   0  0  0  0  0  0  0  0  0  0  0  0
   15.0795  -28.8038   -3.6523 C   0  0  0  0  0  0  0  0  0  0  0  0
   18.1333  -25.7918   -2.8286 O   0  0  0  0  0  0  0  0  0  0  0  0
  2  1  1  1
  3  2  1  0
  3  4  1  0
  4  5  2  0
  4  8  1  0
  5  6  1  0
  6  7  1  0
  8  7  2  0
  9  2  1  0
 10  9  2  0
 11  9  1  0
 12 11  1  0
 13 12  1  0
 14 13  1  0
 15 14  1  0
 15 11  1  0
 15 16  1  1
 17 16  2  0
 19 20  2  0
 19 18  1  0
 21 20  1  0
 22 21  2  0
 23 22  1  0
 24 23  1  1
 24 25  1  0
 25 16  1  0
 26 24  1  0
 26 30  1  0
 27 26  2  0
 28 22  1  0
 28 29  2  0
 29 19  1  0
M  END
$$$$
