HPY.pdb
     RDKit          3D

 30 32  0  0  1  0  0  0  0  0999 V2000
   28.1964  -23.7908  -16.9826 N   0  0  0  0  0  0  0  0  0  0  0  0
   27.2537  -22.7237  -16.8907 C   0  0  1  0  0  0  0  0  0  0  0  0
   25.8972  -23.2494  -17.3457 C   0  0  0  0  0  0  0  0  0  0  0  0
   25.9468  -23.3946  -18.8468 C   0  0  0  0  0  0  0  0  0  0  0  0
   26.0736  -24.5610  -19.5632 C   0  0  0  0  0  0  0  0  0  0  0  0
   26.0729  -24.2565  -20.8743 N   0  0  0  0  0  0  0  0  0  0  0  0
   25.9499  -22.9368  -21.0150 C   0  0  0  0  0  0  0  0  0  0  0  0
   25.8724  -22.4107  -19.7765 N   0  0  0  0  0  0  0  0  0  0  0  0
   27.2033  -22.0128  -15.6121 C   0  0  0  0  0  0  0  0  0  0  0  0
   27.1927  -22.7056  -14.5689 O   0  0  0  0  0  0  0  0  0  0  0  0
   27.1632  -20.5790  -15.4608 N   0  0  0  0  0  0  0  0  0  0  0  0
   27.7316  -19.7386  -16.4870 C   0  0  0  0  0  0  0  0  0  0  0  0
   27.5912  -18.3250  -15.9649 C   0  0  0  0  0  0  0  0  0  0  0  0
   26.3542  -18.4208  -15.0824 C   0  0  0  0  0  0  0  0  0  0  0  0
   26.6482  -19.7748  -14.4211 C   0  0  1  0  0  0  0  0  0  0  0  0
   25.4229  -20.2572  -13.7426 C   0  0  0  0  0  0  0  0  0  0  0  0
   24.6438  -21.0390  -14.3076 O   0  0  0  0  0  0  0  0  0  0  0  0
   28.5949  -21.1183   -7.4666 O   0  0  0  0  0  0  0  0  0  0  0  0
   27.4711  -20.7230   -8.1844 C   0  0  0  0  0  0  0  0  0  0  0  0
   27.5340  -19.9185   -9.2978 C   0  0  0  0  0  0  0  0  0  0  0  0
   26.4039  -19.5256  -10.0151 C   0  0  0  0  0  0  0  0  0  0  0  0
   25.1603  -19.9538   -9.6033 C   0  0  0  0  0  0  0  0  0  0  0  0
   23.9513  -19.5495  -10.3539 C   0  0  0  0  0  0  0  0  0  0  0  0
   23.9017  -20.2288  -11.7264 C   0  0  2  0  0  0  0  0  0  0  0  0
   25.0911  -19.8405  -12.4106 N   0  0  0  0  0  0  0  0  0  0  0  0
   22.6591  -19.7968  -12.3874 C   0  0  0  0  0  0  0  0  0  0  0  0
   21.5322  -20.2106  -11.9987 O   0  0  0  0  0  0  0  0  0  0  0  0
   25.0988  -20.7616   -8.4853 C   0  0  0  0  0  0  0  0  0  0  0  0
   26.2197  -21.1434   -7.7841 C   0  0  0  0  0  0  0  0  0  0  0  0
   22.6642  -18.9235  -13.4571 O   0  0  0  0  0  0  0  0  0  0  0  0
  2  1  1  1
  3  2  1  0
  3  4  1  0
  4  5  2  0
  4  8  1  0
  5  6  1  0
  6  7  1  0
  8  7  2  0
  9  2  1  0
 10  9  2  0
 11  9  1  0
 12 11  1  0
 13 12  1  0
 14 13  1  0
 15 14  1  0
 15 11  1  0
 15 16  1  6
 17 16  2  0
 19 20  2  0
 19 18  1  0
 21 20  1  0
 22 21  2  0
 23 22  1  0
 24 23  1  1
 24 25  1  0
 25 16  1  0
 26 24  1  0
 26 30  1  0
 27 26  2  0
 28 22  1  0
 28 29  2  0
 29 19  1  0
M  END
$$$$
