HPY.pdb
     RDKit          3D

 30 32  0  0  1  0  0  0  0  0999 V2000
   14.9555  -16.3946    2.8530 N   0  0  0  0  0  0  0  0  0  0  0  0
   15.3241  -17.5030    3.6723 C   0  0  1  0  0  0  0  0  0  0  0  0
   15.8396  -18.6130    2.7638 C   0  0  0  0  0  0  0  0  0  0  0  0
   14.6848  -19.0727    1.9082 C   0  0  0  0  0  0  0  0  0  0  0  0
   14.0348  -20.2822    1.9732 C   0  0  0  0  0  0  0  0  0  0  0  0
   13.0629  -20.2928    1.0421 N   0  0  0  0  0  0  0  0  0  0  0  0
   13.0734  -19.1314    0.3882 C   0  0  0  0  0  0  0  0  0  0  0  0
   14.0638  -18.3863    0.9178 N   0  0  0  0  0  0  0  0  0  0  0  0
   16.2153  -17.2095    4.7958 C   0  0  0  0  0  0  0  0  0  0  0  0
   17.3073  -16.6550    4.5340 O   0  0  0  0  0  0  0  0  0  0  0  0
   15.9348  -17.5104    6.1782 N   0  0  0  0  0  0  0  0  0  0  0  0
   14.5660  -17.5577    6.6329 C   0  0  0  0  0  0  0  0  0  0  0  0
   14.6516  -17.8096    8.1229 C   0  0  0  0  0  0  0  0  0  0  0  0
   15.9554  -18.5851    8.2518 C   0  0  0  0  0  0  0  0  0  0  0  0
   16.8027  -17.7764    7.2594 C   0  0  1  0  0  0  0  0  0  0  0  0
   18.0419  -18.5294    6.9565 C   0  0  0  0  0  0  0  0  0  0  0  0
   18.2819  -18.9322    5.8087 O   0  0  0  0  0  0  0  0  0  0  0  0
   22.9453  -14.0844    9.1878 O   0  0  0  0  0  0  0  0  0  0  0  0
   22.4754  -15.2557    8.6032 C   0  0  0  0  0  0  0  0  0  0  0  0
   21.4471  -15.2813    7.6906 C   0  0  0  0  0  0  0  0  0  0  0  0
   20.9801  -16.4587    7.1062 C   0  0  0  0  0  0  0  0  0  0  0  0
   21.5641  -17.6594    7.4473 C   0  0  0  0  0  0  0  0  0  0  0  0
   21.0837  -18.9176    6.8349 C   0  0  0  0  0  0  0  0  0  0  0  0
   20.1407  -19.6668    7.7821 C   0  0  2  0  0  0  0  0  0  0  0  0
   19.0090  -18.8208    7.9752 N   0  0  0  0  0  0  0  0  0  0  0  0
   20.8924  -19.9567    9.0142 C   0  0  0  0  0  0  0  0  0  0  0  0
   20.6415  -19.3513   10.0926 O   0  0  0  0  0  0  0  0  0  0  0  0
   22.5965  -17.6322    8.3636 C   0  0  0  0  0  0  0  0  0  0  0  0
   23.0499  -16.4653    8.9350 C   0  0  0  0  0  0  0  0  0  0  0  0
   21.9015  -20.8987    9.0518 O   0  0  0  0  0  0  0  0  0  0  0  0
  2  1  1  6
  3  2  1  0
  3  4  1  0
  4  5  2  0
  4  8  1  0
  5  6  1  0
  6  7  1  0
  8  7  2  0
  9  2  1  0
 10  9  2  0
 11  9  1  0
 12 11  1  0
 13 12  1  0
 14 13  1  0
 15 14  1  0
 15 11  1  0
 15 16  1  6
 17 16  2  0
 19 20  2  0
 19 18  1  0
 21 20  1  0
 22 21  2  0
 23 22  1  0
 24 23  1  6
 24 25  1  0
 25 16  1  0
 26 24  1  0
 26 30  1  0
 27 26  2  0
 28 22  1  0
 28 29  2  0
 29 19  1  0
M  END
$$$$
