HPY.pdb
     RDKit          3D

 30 32  0  0  1  0  0  0  0  0999 V2000
   19.9476  -13.1492  -18.1924 N   0  0  0  0  0  0  0  0  0  0  0  0
   21.1143  -12.3613  -17.9605 C   0  0  1  0  0  0  0  0  0  0  0  0
   21.6555  -11.9072  -19.3112 C   0  0  0  0  0  0  0  0  0  0  0  0
   21.9614  -13.1455  -20.1174 C   0  0  0  0  0  0  0  0  0  0  0  0
   23.0306  -13.9948  -19.9590 C   0  0  0  0  0  0  0  0  0  0  0  0
   22.9326  -14.9765  -20.8747 N   0  0  0  0  0  0  0  0  0  0  0  0
   21.8378  -14.7797  -21.6089 C   0  0  0  0  0  0  0  0  0  0  0  0
   21.2445  -13.6615  -21.1459 N   0  0  0  0  0  0  0  0  0  0  0  0
   20.9780  -11.2721  -16.9922 C   0  0  0  0  0  0  0  0  0  0  0  0
   20.0107  -10.4902  -17.1385 O   0  0  0  0  0  0  0  0  0  0  0  0
   21.8706  -11.0288  -15.8856 N   0  0  0  0  0  0  0  0  0  0  0  0
   22.6968  -12.1023  -15.3881 C   0  0  0  0  0  0  0  0  0  0  0  0
   23.4256  -11.5217  -14.1955 C   0  0  0  0  0  0  0  0  0  0  0  0
   23.5151  -10.0439  -14.5511 C   0  0  0  0  0  0  0  0  0  0  0  0
   22.1041   -9.8608  -15.1279 C   0  0  1  0  0  0  0  0  0  0  0  0
   22.0411   -8.5683  -15.8490 C   0  0  0  0  0  0  0  0  0  0  0  0
   22.4466   -8.4660  -17.0163 O   0  0  0  0  0  0  0  0  0  0  0  0
   15.0368   -6.4017  -15.1330 O   0  0  0  0  0  0  0  0  0  0  0  0
   16.3468   -6.3655  -15.5992 C   0  0  0  0  0  0  0  0  0  0  0  0
   17.0345   -5.1956  -15.8210 C   0  0  0  0  0  0  0  0  0  0  0  0
   18.3487   -5.1646  -16.2876 C   0  0  0  0  0  0  0  0  0  0  0  0
   19.0026   -6.3505  -16.5430 C   0  0  0  0  0  0  0  0  0  0  0  0
   20.3977   -6.3365  -17.0353 C   0  0  0  0  0  0  0  0  0  0  0  0
   21.3866   -6.1290  -15.8835 C   0  0  2  0  0  0  0  0  0  0  0  0
   21.5104   -7.3892  -15.2277 N   0  0  0  0  0  0  0  0  0  0  0  0
   20.8499   -5.0566  -15.0296 C   0  0  0  0  0  0  0  0  0  0  0  0
   20.3416   -5.3089  -13.9025 O   0  0  0  0  0  0  0  0  0  0  0  0
   18.3109   -7.5243  -16.3197 C   0  0  0  0  0  0  0  0  0  0  0  0
   17.0141   -7.5445  -15.8595 C   0  0  0  0  0  0  0  0  0  0  0  0
   20.8760   -3.7309  -15.4156 O   0  0  0  0  0  0  0  0  0  0  0  0
  2  1  1  6
  3  2  1  0
  3  4  1  0
  4  5  2  0
  4  8  1  0
  5  6  1  0
  6  7  1  0
  8  7  2  0
  9  2  1  0
 10  9  2  0
 11  9  1  0
 12 11  1  0
 13 12  1  0
 14 13  1  0
 15 14  1  0
 15 11  1  0
 15 16  1  6
 17 16  2  0
 19 20  2  0
 19 18  1  0
 21 20  1  0
 22 21  2  0
 23 22  1  0
 24 23  1  6
 24 25  1  0
 25 16  1  0
 26 24  1  0
 26 30  1  0
 27 26  2  0
 28 22  1  0
 28 29  2  0
 29 19  1  0
M  END
$$$$
