HPY.pdb
     RDKit          3D

 30 32  0  0  1  0  0  0  0  0999 V2000
   25.1949  -20.2132  -19.1677 N   0  0  0  0  0  0  0  0  0  0  0  0
   24.9090  -19.5753  -17.9240 C   0  0  1  0  0  0  0  0  0  0  0  0
   23.3976  -19.5788  -17.7261 C   0  0  0  0  0  0  0  0  0  0  0  0
   22.8059  -18.6206  -18.7305 C   0  0  0  0  0  0  0  0  0  0  0  0
   22.6513  -17.2621  -18.5890 C   0  0  0  0  0  0  0  0  0  0  0  0
   22.0873  -16.7794  -19.7118 N   0  0  0  0  0  0  0  0  0  0  0  0
   21.8788  -17.7849  -20.5615 C   0  0  0  0  0  0  0  0  0  0  0  0
   22.3181  -18.9093  -19.9620 N   0  0  0  0  0  0  0  0  0  0  0  0
   25.6494  -20.0648  -16.7600 C   0  0  0  0  0  0  0  0  0  0  0  0
   25.5530  -21.2834  -16.4879 O   0  0  0  0  0  0  0  0  0  0  0  0
   26.4784  -19.2537  -15.9026 N   0  0  0  0  0  0  0  0  0  0  0  0
   27.0909  -18.0576  -16.4287 C   0  0  0  0  0  0  0  0  0  0  0  0
   27.9406  -17.5173  -15.2988 C   0  0  0  0  0  0  0  0  0  0  0  0
   27.1957  -18.0049  -14.0637 C   0  0  0  0  0  0  0  0  0  0  0  0
   26.8463  -19.4187  -14.5497 C   0  0  1  0  0  0  0  0  0  0  0  0
   25.8305  -20.0036  -13.6438 C   0  0  0  0  0  0  0  0  0  0  0  0
   24.6208  -19.7953  -13.8188 O   0  0  0  0  0  0  0  0  0  0  0  0
   27.7287  -18.0719   -6.8852 O   0  0  0  0  0  0  0  0  0  0  0  0
   27.3086  -19.0588   -7.7707 C   0  0  0  0  0  0  0  0  0  0  0  0
   26.0137  -19.5182   -7.8263 C   0  0  0  0  0  0  0  0  0  0  0  0
   25.5970  -20.5075   -8.7171 C   0  0  0  0  0  0  0  0  0  0  0  0
   26.5111  -21.0604   -9.5877 C   0  0  0  0  0  0  0  0  0  0  0  0
   26.0859  -22.1085  -10.5415 C   0  0  0  0  0  0  0  0  0  0  0  0
   25.2730  -21.5087  -11.6934 C   0  0  2  0  0  0  0  0  0  0  0  0
   26.2051  -20.8306  -12.5331 N   0  0  0  0  0  0  0  0  0  0  0  0
   24.2490  -20.6326  -11.1009 C   0  0  0  0  0  0  0  0  0  0  0  0
   24.4179  -19.3843  -11.0265 O   0  0  0  0  0  0  0  0  0  0  0  0
   27.8107  -20.5981   -9.5308 C   0  0  0  0  0  0  0  0  0  0  0  0
   28.2122  -19.6218   -8.6480 C   0  0  0  0  0  0  0  0  0  0  0  0
   23.0611  -21.1287  -10.6010 O   0  0  0  0  0  0  0  0  0  0  0  0
  2  1  1  6
  3  2  1  0
  3  4  1  0
  4  5  2  0
  4  8  1  0
  5  6  1  0
  6  7  1  0
  8  7  2  0
  9  2  1  0
 10  9  2  0
 11  9  1  0
 12 11  1  0
 13 12  1  0
 14 13  1  0
 15 14  1  0
 15 11  1  0
 15 16  1  1
 17 16  2  0
 19 20  2  0
 19 18  1  0
 21 20  1  0
 22 21  2  0
 23 22  1  0
 24 23  1  1
 24 25  1  0
 25 16  1  0
 26 24  1  0
 26 30  1  0
 27 26  2  0
 28 22  1  0
 28 29  2  0
 29 19  1  0
M  END
$$$$
