EDY.pdb
     RDKit          3D

 30 30  0  0  1  0  0  0  0  0999 V2000
    9.3714  -14.1807   20.6587 N   0  0  0  0  0  0  0  0  0  0  0  0
    8.2691  -14.9304   21.2448 C   0  0  1  0  0  0  0  0  0  0  0  0
    7.5487  -15.6227   20.1086 C   0  0  0  0  0  0  0  0  0  0  0  0
    7.7566  -14.9501   18.7947 C   0  0  0  0  0  0  0  0  0  0  0  0
    6.9565  -15.6381   17.7589 C   0  0  0  0  0  0  0  0  0  0  0  0
    6.2582  -16.6246   18.0890 O   0  0  0  0  0  0  0  0  0  0  0  0
    8.7153  -15.8611   22.2841 C   0  0  0  0  0  0  0  0  0  0  0  0
    7.8829  -16.6284   22.8278 O   0  0  0  0  0  0  0  0  0  0  0  0
    6.9250  -15.2605   16.4257 O   0  0  0  0  0  0  0  0  0  0  0  0
   10.0497  -15.9257   22.6966 N   0  0  0  0  0  0  0  0  0  0  0  0
   10.5851  -16.7725   23.7190 C   0  0  1  0  0  0  0  0  0  0  0  0
   11.9893  -17.2367   23.3993 C   0  0  0  0  0  0  0  0  0  0  0  0
   12.0669  -18.1582   22.2653 C   0  0  0  0  0  0  0  0  0  0  0  0
   12.9465  -17.9924   21.3894 O   0  0  0  0  0  0  0  0  0  0  0  0
   10.6164  -16.1222   25.0478 C   0  0  0  0  0  0  0  0  0  0  0  0
   11.3252  -15.0932   25.1779 O   0  0  0  0  0  0  0  0  0  0  0  0
   11.1870  -19.2151   22.1360 O   0  0  0  0  0  0  0  0  0  0  0  0
    6.4179  -11.2656   24.8295 O   0  0  0  0  0  0  0  0  0  0  0  0
    6.9614  -12.3034   25.6065 C   0  0  0  0  0  0  0  0  0  0  0  0
    6.5741  -13.6154   25.3698 C   0  0  0  0  0  0  0  0  0  0  0  0
    7.1279  -14.6257   26.1537 C   0  0  0  0  0  0  0  0  0  0  0  0
    8.0411  -14.3640   27.1490 C   0  0  0  0  0  0  0  0  0  0  0  0
    8.5933  -15.4847   27.9449 C   0  0  0  0  0  0  0  0  0  0  0  0
    9.9583  -15.9334   27.4748 C   0  0  2  0  0  0  0  0  0  0  0  0
    9.9032  -16.5781   26.1840 N   0  0  0  0  0  0  0  0  0  0  0  0
   10.5135  -16.8760   28.4593 C   0  0  0  0  0  0  0  0  0  0  0  0
   10.8481  -16.5119   29.7598 O   0  0  0  0  0  0  0  0  0  0  0  0
    8.4096  -13.0565   27.3650 C   0  0  0  0  0  0  0  0  0  0  0  0
    7.8778  -12.0343   26.6041 C   0  0  0  0  0  0  0  0  0  0  0  0
   10.7061  -18.0705   28.1410 O   0  0  0  0  0  0  0  0  0  0  0  0
  2  1  1  6
  3  2  1  0
  4  3  1  0
  5  4  1  0
  5  6  2  0
  7  2  1  0
  7  8  2  0
  9  5  1  0
 10  7  1  0
 11 10  1  0
 11 12  1  6
 12 13  1  0
 13 14  2  0
 15 11  1  0
 16 15  2  0
 17 13  1  0
 18 19  1  0
 19 20  2  0
 19 29  1  0
 20 21  1  0
 21 22  2  0
 22 23  1  0
 24 23  1  1
 24 25  1  0
 25 15  1  0
 26 27  1  0
 26 24  1  0
 28 22  1  0
 29 28  2  0
 30 26  2  0
M  END
$$$$
