EDY.pdb
     RDKit          3D

 30 30  0  0  1  0  0  0  0  0999 V2000
    9.4993  -16.3733   20.0989 N   0  0  0  0  0  0  0  0  0  0  0  0
    8.4870  -16.6012   21.1208 C   0  0  1  0  0  0  0  0  0  0  0  0
    7.5810  -17.7006   20.6114 C   0  0  0  0  0  0  0  0  0  0  0  0
    7.6963  -17.9123   19.1404 C   0  0  0  0  0  0  0  0  0  0  0  0
    6.7822  -18.9987   18.7275 C   0  0  0  0  0  0  0  0  0  0  0  0
    6.1961  -18.9104   17.6236 O   0  0  0  0  0  0  0  0  0  0  0  0
    9.0711  -16.9081   22.4285 C   0  0  0  0  0  0  0  0  0  0  0  0
    8.3258  -17.2809   23.3680 O   0  0  0  0  0  0  0  0  0  0  0  0
    6.5247  -20.1270   19.4901 O   0  0  0  0  0  0  0  0  0  0  0  0
   10.4439  -16.7991   22.6701 N   0  0  0  0  0  0  0  0  0  0  0  0
   11.1116  -17.0383   23.9135 C   0  0  1  0  0  0  0  0  0  0  0  0
   12.6144  -17.1090   23.7508 C   0  0  0  0  0  0  0  0  0  0  0  0
   13.0670  -18.1887   22.8730 C   0  0  0  0  0  0  0  0  0  0  0  0
   12.4531  -19.2802   22.8639 O   0  0  0  0  0  0  0  0  0  0  0  0
   10.8161  -16.0081   24.9336 C   0  0  0  0  0  0  0  0  0  0  0  0
   11.5575  -14.9946   24.9720 O   0  0  0  0  0  0  0  0  0  0  0  0
   14.1633  -18.0326   22.0474 O   0  0  0  0  0  0  0  0  0  0  0  0
    6.9070  -12.2764   21.6896 O   0  0  0  0  0  0  0  0  0  0  0  0
    7.2024  -12.8246   22.9499 C   0  0  0  0  0  0  0  0  0  0  0  0
    6.8778  -14.1475   23.2179 C   0  0  0  0  0  0  0  0  0  0  0  0
    7.1816  -14.6669   24.4748 C   0  0  0  0  0  0  0  0  0  0  0  0
    7.7896  -13.9131   25.4521 C   0  0  0  0  0  0  0  0  0  0  0  0
    8.0870  -14.5270   26.7671 C   0  0  0  0  0  0  0  0  0  0  0  0
    9.4941  -15.0711   26.8657 C   0  0  2  0  0  0  0  0  0  0  0  0
    9.7559  -16.0837   25.8703 N   0  0  0  0  0  0  0  0  0  0  0  0
    9.6858  -15.6523   28.2042 C   0  0  0  0  0  0  0  0  0  0  0  0
    9.7105  -14.8925   29.3696 O   0  0  0  0  0  0  0  0  0  0  0  0
    8.1017  -12.6050   25.1634 C   0  0  0  0  0  0  0  0  0  0  0  0
    7.8129  -12.0628   23.9267 C   0  0  0  0  0  0  0  0  0  0  0  0
    9.8370  -16.8875   28.3333 O   0  0  0  0  0  0  0  0  0  0  0  0
  2  1  1  6
  3  2  1  0
  4  3  1  0
  5  4  1  0
  5  6  2  0
  7  2  1  0
  7  8  2  0
  9  5  1  0
 10  7  1  0
 11 10  1  0
 11 12  1  6
 12 13  1  0
 13 14  2  0
 15 11  1  0
 16 15  2  0
 17 13  1  0
 18 19  1  0
 19 20  2  0
 19 29  1  0
 20 21  1  0
 21 22  2  0
 22 23  1  0
 24 23  1  1
 24 25  1  0
 25 15  1  0
 26 27  1  0
 26 24  1  0
 28 22  1  0
 29 28  2  0
 30 26  2  0
M  END
$$$$
