EDY.pdb
     RDKit          3D

 30 30  0  0  1  0  0  0  0  0999 V2000
    6.1328  -18.0085   19.7967 N   0  0  0  0  0  0  0  0  0  0  0  0
    7.3825  -18.4427   20.4055 C   0  0  1  0  0  0  0  0  0  0  0  0
    8.5054  -17.7953   19.6250 C   0  0  0  0  0  0  0  0  0  0  0  0
    8.7576  -18.4580   18.3138 C   0  0  0  0  0  0  0  0  0  0  0  0
    9.8368  -17.7413   17.6011 C   0  0  0  0  0  0  0  0  0  0  0  0
   10.6648  -18.4031   16.9330 O   0  0  0  0  0  0  0  0  0  0  0  0
    7.4410  -18.1427   21.8380 C   0  0  0  0  0  0  0  0  0  0  0  0
    6.9622  -17.0632   22.2651 O   0  0  0  0  0  0  0  0  0  0  0  0
    9.9984  -16.3650   17.6213 O   0  0  0  0  0  0  0  0  0  0  0  0
    8.0176  -19.0254   22.7562 N   0  0  0  0  0  0  0  0  0  0  0  0
    8.1343  -18.8285   24.1692 C   0  0  1  0  0  0  0  0  0  0  0  0
    8.3380  -20.1306   24.9128 C   0  0  0  0  0  0  0  0  0  0  0  0
    8.4704  -19.9732   26.3615 C   0  0  0  0  0  0  0  0  0  0  0  0
    9.2544  -20.7141   26.9976 O   0  0  0  0  0  0  0  0  0  0  0  0
    9.2448  -17.9216   24.5347 C   0  0  0  0  0  0  0  0  0  0  0  0
   10.3998  -18.2261   24.1457 O   0  0  0  0  0  0  0  0  0  0  0  0
    7.7462  -19.0200   27.0505 O   0  0  0  0  0  0  0  0  0  0  0  0
    4.9546  -12.3815   26.9654 O   0  0  0  0  0  0  0  0  0  0  0  0
    6.1911  -12.8855   26.5260 C   0  0  0  0  0  0  0  0  0  0  0  0
    6.2536  -13.6317   25.3569 C   0  0  0  0  0  0  0  0  0  0  0  0
    7.4915  -14.1196   24.9429 C   0  0  0  0  0  0  0  0  0  0  0  0
    8.6465  -13.8858   25.6531 C   0  0  0  0  0  0  0  0  0  0  0  0
    9.9310  -14.4316   25.1566 C   0  0  0  0  0  0  0  0  0  0  0  0
   10.1924  -15.8488   25.6137 C   0  0  2  0  0  0  0  0  0  0  0  0
    9.0976  -16.7336   25.2927 N   0  0  0  0  0  0  0  0  0  0  0  0
   10.3975  -15.8474   27.0711 C   0  0  0  0  0  0  0  0  0  0  0  0
    9.6043  -16.5736   27.9540 O   0  0  0  0  0  0  0  0  0  0  0  0
    8.5597  -13.1439   26.8081 C   0  0  0  0  0  0  0  0  0  0  0  0
    7.3470  -12.6473   27.2433 C   0  0  0  0  0  0  0  0  0  0  0  0
   11.3223  -15.1693   27.5713 O   0  0  0  0  0  0  0  0  0  0  0  0
  2  1  1  6
  3  2  1  0
  4  3  1  0
  5  4  1  0
  5  6  2  0
  7  2  1  0
  7  8  2  0
  9  5  1  0
 10  7  1  0
 11 10  1  0
 11 12  1  1
 12 13  1  0
 13 14  2  0
 15 11  1  0
 16 15  2  0
 17 13  1  0
 18 19  1  0
 19 20  2  0
 19 29  1  0
 20 21  1  0
 21 22  2  0
 22 23  1  0
 24 23  1  1
 24 25  1  0
 25 15  1  0
 26 27  1  0
 26 24  1  0
 28 22  1  0
 29 28  2  0
 30 26  2  0
M  END
$$$$
