EDY.pdb
     RDKit          3D

 30 30  0  0  1  0  0  0  0  0999 V2000
   10.1216  -20.7213   21.1265 N   0  0  0  0  0  0  0  0  0  0  0  0
    9.2614  -19.8144   21.8738 C   0  0  1  0  0  0  0  0  0  0  0  0
    9.0350  -20.4365   23.2343 C   0  0  0  0  0  0  0  0  0  0  0  0
    8.2918  -21.7268   23.1655 C   0  0  0  0  0  0  0  0  0  0  0  0
    6.8590  -21.4556   22.9202 C   0  0  0  0  0  0  0  0  0  0  0  0
    6.3787  -21.7120   21.7918 O   0  0  0  0  0  0  0  0  0  0  0  0
    9.8124  -18.4596   21.9543 C   0  0  0  0  0  0  0  0  0  0  0  0
   11.0501  -18.3013   22.0967 O   0  0  0  0  0  0  0  0  0  0  0  0
    5.9964  -20.9287   23.8684 O   0  0  0  0  0  0  0  0  0  0  0  0
    8.9999  -17.3243   21.8776 N   0  0  0  0  0  0  0  0  0  0  0  0
    9.4118  -15.9673   22.0726 C   0  0  1  0  0  0  0  0  0  0  0  0
    8.4497  -14.9823   21.4453 C   0  0  0  0  0  0  0  0  0  0  0  0
    8.3554  -15.0889   19.9890 C   0  0  0  0  0  0  0  0  0  0  0  0
    9.3562  -15.4465   19.3264 O   0  0  0  0  0  0  0  0  0  0  0  0
    9.5571  -15.6090   23.5009 C   0  0  0  0  0  0  0  0  0  0  0  0
   10.0386  -14.4813   23.7740 O   0  0  0  0  0  0  0  0  0  0  0  0
    7.1806  -14.8027   19.3214 O   0  0  0  0  0  0  0  0  0  0  0  0
    6.1066  -10.5267   26.2357 O   0  0  0  0  0  0  0  0  0  0  0  0
    6.5701  -11.8506   26.3284 C   0  0  0  0  0  0  0  0  0  0  0  0
    7.4740  -12.1950   27.3243 C   0  0  0  0  0  0  0  0  0  0  0  0
    7.9177  -13.5140   27.3948 C   0  0  0  0  0  0  0  0  0  0  0  0
    7.4900  -14.4795   26.5128 C   0  0  0  0  0  0  0  0  0  0  0  0
    7.9993  -15.8643   26.6441 C   0  0  0  0  0  0  0  0  0  0  0  0
    9.3360  -16.0738   25.9695 C   0  0  2  0  0  0  0  0  0  0  0  0
    9.1914  -16.4480   24.5824 N   0  0  0  0  0  0  0  0  0  0  0  0
   10.0653  -17.1363   26.6802 C   0  0  0  0  0  0  0  0  0  0  0  0
   10.4534  -18.3294   26.0785 O   0  0  0  0  0  0  0  0  0  0  0  0
    6.5944  -14.1146   25.5346 C   0  0  0  0  0  0  0  0  0  0  0  0
    6.1370  -12.8152   25.4400 C   0  0  0  0  0  0  0  0  0  0  0  0
   10.3654  -16.9892   27.8859 O   0  0  0  0  0  0  0  0  0  0  0  0
  2  1  1  6
  3  2  1  0
  4  3  1  0
  5  4  1  0
  5  6  2  0
  7  2  1  0
  7  8  2  0
  9  5  1  0
 10  7  1  0
 11 10  1  0
 11 12  1  1
 12 13  1  0
 13 14  2  0
 15 11  1  0
 16 15  2  0
 17 13  1  0
 18 19  1  0
 19 20  2  0
 19 29  1  0
 20 21  1  0
 21 22  2  0
 22 23  1  0
 24 23  1  1
 24 25  1  0
 25 15  1  0
 26 27  1  0
 26 24  1  0
 28 22  1  0
 29 28  2  0
 30 26  2  0
M  END
$$$$
