EDY.pdb
     RDKit          3D

 30 30  0  0  1  0  0  0  0  0999 V2000
    9.1705  -16.1031   20.7298 N   0  0  0  0  0  0  0  0  0  0  0  0
    8.6775  -16.1604   22.0989 C   0  0  1  0  0  0  0  0  0  0  0  0
    7.3981  -16.9679   22.0771 C   0  0  0  0  0  0  0  0  0  0  0  0
    6.7820  -17.1149   23.4264 C   0  0  0  0  0  0  0  0  0  0  0  0
    5.6013  -18.0001   23.3332 C   0  0  0  0  0  0  0  0  0  0  0  0
    4.8996  -17.9666   22.2957 O   0  0  0  0  0  0  0  0  0  0  0  0
    9.6720  -16.6986   23.0298 C   0  0  0  0  0  0  0  0  0  0  0  0
    9.3874  -17.7026   23.7285 O   0  0  0  0  0  0  0  0  0  0  0  0
    5.2108  -18.8792   24.3309 O   0  0  0  0  0  0  0  0  0  0  0  0
   10.9406  -16.1276   23.1694 N   0  0  0  0  0  0  0  0  0  0  0  0
   11.9529  -16.5192   24.1027 C   0  0  1  0  0  0  0  0  0  0  0  0
   13.3476  -16.2808   23.5664 C   0  0  0  0  0  0  0  0  0  0  0  0
   13.5968  -16.8978   22.2633 C   0  0  0  0  0  0  0  0  0  0  0  0
   13.4058  -18.1261   22.1111 O   0  0  0  0  0  0  0  0  0  0  0  0
   11.8424  -15.8173   25.4006 C   0  0  0  0  0  0  0  0  0  0  0  0
   12.3983  -14.6957   25.5073 O   0  0  0  0  0  0  0  0  0  0  0  0
   14.0408  -16.1532   21.1880 O   0  0  0  0  0  0  0  0  0  0  0  0
    5.8255  -13.7560   25.1230 O   0  0  0  0  0  0  0  0  0  0  0  0
    7.0438  -13.8946   25.8104 C   0  0  0  0  0  0  0  0  0  0  0  0
    7.1355  -14.7792   26.8765 C   0  0  0  0  0  0  0  0  0  0  0  0
    8.3545  -14.8983   27.5410 C   0  0  0  0  0  0  0  0  0  0  0  0
    9.4632  -14.1704   27.1749 C   0  0  0  0  0  0  0  0  0  0  0  0
   10.7301  -14.3459   27.9223 C   0  0  0  0  0  0  0  0  0  0  0  0
   11.2703  -15.7564   27.8558 C   0  0  2  0  0  0  0  0  0  0  0  0
   11.1538  -16.3207   26.5318 N   0  0  0  0  0  0  0  0  0  0  0  0
   10.5215  -16.5969   28.8039 C   0  0  0  0  0  0  0  0  0  0  0  0
   10.5038  -16.3690   30.1764 O   0  0  0  0  0  0  0  0  0  0  0  0
    9.3482  -13.3004   26.1157 C   0  0  0  0  0  0  0  0  0  0  0  0
    8.1532  -13.1611   25.4381 C   0  0  0  0  0  0  0  0  0  0  0  0
    9.8588  -17.5722   28.3857 O   0  0  0  0  0  0  0  0  0  0  0  0
  2  1  1  6
  3  2  1  0
  4  3  1  0
  5  4  1  0
  5  6  2  0
  7  2  1  0
  7  8  2  0
  9  5  1  0
 10  7  1  0
 11 10  1  0
 11 12  1  6
 12 13  1  0
 13 14  2  0
 15 11  1  0
 16 15  2  0
 17 13  1  0
 18 19  1  0
 19 20  2  0
 19 29  1  0
 20 21  1  0
 21 22  2  0
 22 23  1  0
 24 23  1  6
 24 25  1  0
 25 15  1  0
 26 27  1  0
 26 24  1  0
 28 22  1  0
 29 28  2  0
 30 26  2  0
M  END
$$$$
