EDY.pdb
     RDKit          3D

 30 30  0  0  1  0  0  0  0  0999 V2000
    8.3139  -12.9833   19.1071 N   0  0  0  0  0  0  0  0  0  0  0  0
    8.7556  -14.3695   19.1716 C   0  0  1  0  0  0  0  0  0  0  0  0
   10.2178  -14.3885   18.7830 C   0  0  0  0  0  0  0  0  0  0  0  0
   11.0590  -13.5126   19.6473 C   0  0  0  0  0  0  0  0  0  0  0  0
   12.4859  -13.7325   19.3280 C   0  0  0  0  0  0  0  0  0  0  0  0
   13.2906  -13.9434   20.2650 O   0  0  0  0  0  0  0  0  0  0  0  0
    8.5093  -14.9750   20.4824 C   0  0  0  0  0  0  0  0  0  0  0  0
    7.8118  -14.3612   21.3273 O   0  0  0  0  0  0  0  0  0  0  0  0
   13.0033  -13.7214   18.0423 O   0  0  0  0  0  0  0  0  0  0  0  0
    9.0291  -16.2256   20.8296 N   0  0  0  0  0  0  0  0  0  0  0  0
    8.6588  -17.0170   21.9635 C   0  0  1  0  0  0  0  0  0  0  0  0
    8.9068  -18.4923   21.7362 C   0  0  0  0  0  0  0  0  0  0  0  0
    7.9711  -19.1148   20.7992 C   0  0  0  0  0  0  0  0  0  0  0  0
    6.7774  -18.7371   20.7705 O   0  0  0  0  0  0  0  0  0  0  0  0
    9.3732  -16.6242   23.1983 C   0  0  0  0  0  0  0  0  0  0  0  0
   10.5736  -16.2695   23.0908 O   0  0  0  0  0  0  0  0  0  0  0  0
    8.3749  -20.1168   19.9385 O   0  0  0  0  0  0  0  0  0  0  0  0
    6.1802  -10.7385   25.3850 O   0  0  0  0  0  0  0  0  0  0  0  0
    6.7851  -11.9605   25.7270 C   0  0  0  0  0  0  0  0  0  0  0  0
    6.0569  -13.1387   25.6331 C   0  0  0  0  0  0  0  0  0  0  0  0
    6.6798  -14.3367   25.9776 C   0  0  0  0  0  0  0  0  0  0  0  0
    7.9865  -14.3869   26.4054 C   0  0  0  0  0  0  0  0  0  0  0  0
    8.5898  -15.6941   26.7544 C   0  0  0  0  0  0  0  0  0  0  0  0
    9.5151  -16.2277   25.6845 C   0  0  2  0  0  0  0  0  0  0  0  0
    8.7992  -16.6199   24.4935 N   0  0  0  0  0  0  0  0  0  0  0  0
   10.2352  -17.3949   26.2185 C   0  0  0  0  0  0  0  0  0  0  0  0
   10.1145  -18.6749   25.6864 O   0  0  0  0  0  0  0  0  0  0  0  0
    8.6879  -13.2068   26.4903 C   0  0  0  0  0  0  0  0  0  0  0  0
    8.0972  -12.0044   26.1556 C   0  0  0  0  0  0  0  0  0  0  0  0
   11.0008  -17.2619   27.1990 O   0  0  0  0  0  0  0  0  0  0  0  0
  2  1  1  1
  3  2  1  0
  4  3  1  0
  5  4  1  0
  5  6  2  0
  7  2  1  0
  7  8  2  0
  9  5  1  0
 10  7  1  0
 11 10  1  0
 11 12  1  6
 12 13  1  0
 13 14  2  0
 15 11  1  0
 16 15  2  0
 17 13  1  0
 18 19  1  0
 19 20  2  0
 19 29  1  0
 20 21  1  0
 21 22  2  0
 22 23  1  0
 24 23  1  1
 24 25  1  0
 25 15  1  0
 26 27  1  0
 26 24  1  0
 28 22  1  0
 29 28  2  0
 30 26  2  0
M  END
$$$$
