EDY.pdb
     RDKit          3D

 30 30  0  0  1  0  0  0  0  0999 V2000
   11.6385  -18.8234   22.0651 N   0  0  0  0  0  0  0  0  0  0  0  0
   10.2297  -18.5576   22.3210 C   0  0  1  0  0  0  0  0  0  0  0  0
    9.8003  -19.4783   23.4422 C   0  0  0  0  0  0  0  0  0  0  0  0
   10.9014  -19.7764   24.4017 C   0  0  0  0  0  0  0  0  0  0  0  0
   10.4007  -20.6828   25.4573 C   0  0  0  0  0  0  0  0  0  0  0  0
   10.6856  -21.9013   25.3944 O   0  0  0  0  0  0  0  0  0  0  0  0
    9.9709  -17.1463   22.6155 C   0  0  0  0  0  0  0  0  0  0  0  0
   10.7810  -16.5033   23.3279 O   0  0  0  0  0  0  0  0  0  0  0  0
    9.6252  -20.2705   26.5294 O   0  0  0  0  0  0  0  0  0  0  0  0
    8.8416  -16.4829   22.1263 N   0  0  0  0  0  0  0  0  0  0  0  0
    8.4704  -15.1257   22.3893 C   0  0  1  0  0  0  0  0  0  0  0  0
    7.5515  -14.5680   21.3242 C   0  0  0  0  0  0  0  0  0  0  0  0
    8.0336  -14.7710   19.9577 C   0  0  0  0  0  0  0  0  0  0  0  0
    9.1556  -14.3271   19.6226 O   0  0  0  0  0  0  0  0  0  0  0  0
    7.8007  -14.9548   23.6976 C   0  0  0  0  0  0  0  0  0  0  0  0
    6.9815  -15.8379   24.0542 O   0  0  0  0  0  0  0  0  0  0  0  0
    7.2757  -15.4457   19.0205 O   0  0  0  0  0  0  0  0  0  0  0  0
   11.7391  -16.9910   29.2598 O   0  0  0  0  0  0  0  0  0  0  0  0
   10.8832  -16.0454   28.6688 C   0  0  0  0  0  0  0  0  0  0  0  0
   10.1836  -15.1543   29.4714 C   0  0  0  0  0  0  0  0  0  0  0  0
    9.3419  -14.2266   28.8608 C   0  0  0  0  0  0  0  0  0  0  0  0
    9.1841  -14.1674   27.4953 C   0  0  0  0  0  0  0  0  0  0  0  0
    8.2747  -13.1552   26.9097 C   0  0  0  0  0  0  0  0  0  0  0  0
    7.3554  -13.7216   25.8516 C   0  0  2  0  0  0  0  0  0  0  0  0
    8.0181  -13.8654   24.5769 N   0  0  0  0  0  0  0  0  0  0  0  0
    6.2013  -12.8220   25.6943 C   0  0  0  0  0  0  0  0  0  0  0  0
    5.2061  -12.6821   26.6565 O   0  0  0  0  0  0  0  0  0  0  0  0
    9.8874  -15.0603   26.7208 C   0  0  0  0  0  0  0  0  0  0  0  0
   10.7290  -15.9909   27.2975 C   0  0  0  0  0  0  0  0  0  0  0  0
    6.0808  -12.1361   24.6548 O   0  0  0  0  0  0  0  0  0  0  0  0
  2  1  1  1
  3  2  1  0
  4  3  1  0
  5  4  1  0
  5  6  2  0
  7  2  1  0
  7  8  2  0
  9  5  1  0
 10  7  1  0
 11 10  1  0
 11 12  1  6
 12 13  1  0
 13 14  2  0
 15 11  1  0
 16 15  2  0
 17 13  1  0
 18 19  1  0
 19 20  2  0
 19 29  1  0
 20 21  1  0
 21 22  2  0
 22 23  1  0
 24 23  1  1
 24 25  1  0
 25 15  1  0
 26 27  1  0
 26 24  1  0
 28 22  1  0
 29 28  2  0
 30 26  2  0
M  END
$$$$
