EDY.pdb
     RDKit          3D

 30 30  0  0  1  0  0  0  0  0999 V2000
   10.9120  -19.5018   21.5886 N   0  0  0  0  0  0  0  0  0  0  0  0
   11.8334  -18.3818   21.4561 C   0  0  1  0  0  0  0  0  0  0  0  0
   12.3886  -18.4272   20.0494 C   0  0  0  0  0  0  0  0  0  0  0  0
   13.4958  -17.4533   19.8311 C   0  0  0  0  0  0  0  0  0  0  0  0
   13.9276  -17.5095   18.4180 C   0  0  0  0  0  0  0  0  0  0  0  0
   13.6772  -16.5367   17.6691 O   0  0  0  0  0  0  0  0  0  0  0  0
   11.2042  -17.0985   21.7764 C   0  0  0  0  0  0  0  0  0  0  0  0
   11.9234  -16.0894   21.9803 O   0  0  0  0  0  0  0  0  0  0  0  0
   14.6016  -18.5819   17.8555 O   0  0  0  0  0  0  0  0  0  0  0  0
    9.8161  -16.9561   21.8640 N   0  0  0  0  0  0  0  0  0  0  0  0
    9.1002  -15.7516   22.1571 C   0  0  1  0  0  0  0  0  0  0  0  0
    7.6468  -15.8358   21.7443 C   0  0  0  0  0  0  0  0  0  0  0  0
    7.4161  -16.6365   20.5415 C   0  0  0  0  0  0  0  0  0  0  0  0
    8.3732  -16.9009   19.7784 O   0  0  0  0  0  0  0  0  0  0  0  0
    9.1417  -15.3913   23.5916 C   0  0  0  0  0  0  0  0  0  0  0  0
    8.6888  -14.2680   23.9250 O   0  0  0  0  0  0  0  0  0  0  0  0
    6.1586  -17.1119   20.2243 O   0  0  0  0  0  0  0  0  0  0  0  0
    6.1329  -10.5161   26.5671 O   0  0  0  0  0  0  0  0  0  0  0  0
    6.6920  -11.8057   26.5884 C   0  0  0  0  0  0  0  0  0  0  0  0
    5.9124  -12.8995   26.2377 C   0  0  0  0  0  0  0  0  0  0  0  0
    6.4906  -14.1671   26.2667 C   0  0  0  0  0  0  0  0  0  0  0  0
    7.8026  -14.3661   26.6302 C   0  0  0  0  0  0  0  0  0  0  0  0
    8.3565  -15.7400   26.6381 C   0  0  0  0  0  0  0  0  0  0  0  0
    9.7259  -15.8337   26.0044 C   0  0  2  0  0  0  0  0  0  0  0  0
    9.6563  -16.2239   24.6160 N   0  0  0  0  0  0  0  0  0  0  0  0
   10.5240  -16.8257   26.7428 C   0  0  0  0  0  0  0  0  0  0  0  0
   11.1069  -17.9367   26.1412 O   0  0  0  0  0  0  0  0  0  0  0  0
    8.5553  -13.2674   26.9736 C   0  0  0  0  0  0  0  0  0  0  0  0
    8.0096  -11.9990   26.9542 C   0  0  0  0  0  0  0  0  0  0  0  0
   10.7049  -16.6911   27.9734 O   0  0  0  0  0  0  0  0  0  0  0  0
  2  1  1  6
  3  2  1  0
  4  3  1  0
  5  4  1  0
  5  6  2  0
  7  2  1  0
  7  8  2  0
  9  5  1  0
 10  7  1  0
 11 10  1  0
 11 12  1  1
 12 13  1  0
 13 14  2  0
 15 11  1  0
 16 15  2  0
 17 13  1  0
 18 19  1  0
 19 20  2  0
 19 29  1  0
 20 21  1  0
 21 22  2  0
 22 23  1  0
 24 23  1  1
 24 25  1  0
 25 15  1  0
 26 27  1  0
 26 24  1  0
 28 22  1  0
 29 28  2  0
 30 26  2  0
M  END
$$$$
