EDY.pdb
     RDKit          3D

 30 30  0  0  1  0  0  0  0  0999 V2000
    9.5899  -14.1479   19.6708 N   0  0  0  0  0  0  0  0  0  0  0  0
    8.5503  -13.8631   20.6501 C   0  0  1  0  0  0  0  0  0  0  0  0
    7.2454  -13.7498   19.8928 C   0  0  0  0  0  0  0  0  0  0  0  0
    7.3655  -12.9376   18.6486 C   0  0  0  0  0  0  0  0  0  0  0  0
    7.8699  -13.7914   17.5518 C   0  0  0  0  0  0  0  0  0  0  0  0
    7.3245  -14.9009   17.3482 O   0  0  0  0  0  0  0  0  0  0  0  0
    8.5003  -14.8625   21.7198 C   0  0  0  0  0  0  0  0  0  0  0  0
    7.5260  -14.8738   22.5122 O   0  0  0  0  0  0  0  0  0  0  0  0
    8.9220  -13.4432   16.7195 O   0  0  0  0  0  0  0  0  0  0  0  0
    9.5100  -15.8142   21.8916 N   0  0  0  0  0  0  0  0  0  0  0  0
    9.5191  -16.8842   22.8424 C   0  0  1  0  0  0  0  0  0  0  0  0
   10.4799  -17.9864   22.4531 C   0  0  0  0  0  0  0  0  0  0  0  0
   10.1122  -18.6884   21.2231 C   0  0  0  0  0  0  0  0  0  0  0  0
    8.9217  -19.0283   21.0343 O   0  0  0  0  0  0  0  0  0  0  0  0
    9.8734  -16.4382   24.2081 C   0  0  0  0  0  0  0  0  0  0  0  0
   10.9065  -15.7365   24.3438 O   0  0  0  0  0  0  0  0  0  0  0  0
   11.0529  -18.9878   20.2571 O   0  0  0  0  0  0  0  0  0  0  0  0
    6.0216  -11.1005   25.1233 O   0  0  0  0  0  0  0  0  0  0  0  0
    6.5930  -12.2468   25.7028 C   0  0  0  0  0  0  0  0  0  0  0  0
    5.8548  -13.4201   25.7786 C   0  0  0  0  0  0  0  0  0  0  0  0
    6.4444  -14.5424   26.3573 C   0  0  0  0  0  0  0  0  0  0  0  0
    7.7277  -14.5229   26.8529 C   0  0  0  0  0  0  0  0  0  0  0  0
    8.2959  -15.7518   27.4541 C   0  0  0  0  0  0  0  0  0  0  0  0
    9.4881  -16.2896   26.6957 C   0  0  2  0  0  0  0  0  0  0  0  0
    9.1297  -16.7467   25.3739 N   0  0  0  0  0  0  0  0  0  0  0  0
   10.0651  -17.4123   27.4524 C   0  0  0  0  0  0  0  0  0  0  0  0
   10.6263  -17.2714   28.7177 O   0  0  0  0  0  0  0  0  0  0  0  0
    8.4395  -13.3491   26.7667 C   0  0  0  0  0  0  0  0  0  0  0  0
    7.8817  -12.2209   26.1985 C   0  0  0  0  0  0  0  0  0  0  0  0
   10.0663  -18.5625   26.9600 O   0  0  0  0  0  0  0  0  0  0  0  0
  2  1  1  6
  3  2  1  0
  4  3  1  0
  5  4  1  0
  5  6  2  0
  7  2  1  0
  7  8  2  0
  9  5  1  0
 10  7  1  0
 11 10  1  0
 11 12  1  6
 12 13  1  0
 13 14  2  0
 15 11  1  0
 16 15  2  0
 17 13  1  0
 18 19  1  0
 19 20  2  0
 19 29  1  0
 20 21  1  0
 21 22  2  0
 22 23  1  0
 24 23  1  1
 24 25  1  0
 25 15  1  0
 26 27  1  0
 26 24  1  0
 28 22  1  0
 29 28  2  0
 30 26  2  0
M  END
$$$$
