EDY.pdb
     RDKit          3D

 30 30  0  0  1  0  0  0  0  0999 V2000
    6.1148  -19.8147   20.5269 N   0  0  0  0  0  0  0  0  0  0  0  0
    7.2430  -20.1255   21.3938 C   0  0  1  0  0  0  0  0  0  0  0  0
    8.4978  -19.9716   20.5625 C   0  0  0  0  0  0  0  0  0  0  0  0
    8.9374  -18.5532   20.4333 C   0  0  0  0  0  0  0  0  0  0  0  0
   10.2193  -18.5016   19.6980 C   0  0  0  0  0  0  0  0  0  0  0  0
   11.2811  -18.3384   20.3427 O   0  0  0  0  0  0  0  0  0  0  0  0
    7.2610  -19.3027   22.6055 C   0  0  0  0  0  0  0  0  0  0  0  0
    6.7665  -18.1486   22.5783 O   0  0  0  0  0  0  0  0  0  0  0  0
   10.3290  -18.6235   18.3218 O   0  0  0  0  0  0  0  0  0  0  0  0
    7.8154  -19.7621   23.8040 N   0  0  0  0  0  0  0  0  0  0  0  0
    7.8811  -19.0460   25.0418 C   0  0  1  0  0  0  0  0  0  0  0  0
    8.1711  -19.9572   26.2145 C   0  0  0  0  0  0  0  0  0  0  0  0
    7.0147  -20.7325   26.6647 C   0  0  0  0  0  0  0  0  0  0  0  0
    5.8908  -20.5260   26.1523 O   0  0  0  0  0  0  0  0  0  0  0  0
    8.9055  -17.9783   25.0359 C   0  0  0  0  0  0  0  0  0  0  0  0
    9.7589  -17.9927   24.1141 O   0  0  0  0  0  0  0  0  0  0  0  0
    7.1328  -21.6945   27.6489 O   0  0  0  0  0  0  0  0  0  0  0  0
    5.0389  -11.9680   26.4383 O   0  0  0  0  0  0  0  0  0  0  0  0
    6.2101  -12.6633   26.0906 C   0  0  0  0  0  0  0  0  0  0  0  0
    6.3695  -13.9842   26.4872 C   0  0  0  0  0  0  0  0  0  0  0  0
    7.5395  -14.6512   26.1293 C   0  0  0  0  0  0  0  0  0  0  0  0
    8.5354  -14.0441   25.3995 C   0  0  0  0  0  0  0  0  0  0  0  0
    9.7541  -14.8106   25.0504 C   0  0  0  0  0  0  0  0  0  0  0  0
   10.0384  -15.9457   26.0076 C   0  0  2  0  0  0  0  0  0  0  0  0
    8.9918  -16.9404   25.9965 N   0  0  0  0  0  0  0  0  0  0  0  0
   10.1671  -15.3989   27.3679 C   0  0  0  0  0  0  0  0  0  0  0  0
    9.3412  -15.7747   28.4227 O   0  0  0  0  0  0  0  0  0  0  0  0
    8.3551  -12.7350   25.0179 C   0  0  0  0  0  0  0  0  0  0  0  0
    7.2062  -12.0485   25.3577 C   0  0  0  0  0  0  0  0  0  0  0  0
   11.0531  -14.5523   27.6197 O   0  0  0  0  0  0  0  0  0  0  0  0
  2  1  1  6
  3  2  1  0
  4  3  1  0
  5  4  1  0
  5  6  2  0
  7  2  1  0
  7  8  2  0
  9  5  1  0
 10  7  1  0
 11 10  1  0
 11 12  1  1
 12 13  1  0
 13 14  2  0
 15 11  1  0
 16 15  2  0
 17 13  1  0
 18 19  1  0
 19 20  2  0
 19 29  1  0
 20 21  1  0
 21 22  2  0
 22 23  1  0
 24 23  1  6
 24 25  1  0
 25 15  1  0
 26 27  1  0
 26 24  1  0
 28 22  1  0
 29 28  2  0
 30 26  2  0
M  END
$$$$
