EDY.pdb
     RDKit          3D

 30 30  0  0  1  0  0  0  0  0999 V2000
   13.5422  -18.4645   18.1691 N   0  0  0  0  0  0  0  0  0  0  0  0
   12.2755  -17.7699   17.9848 C   0  0  1  0  0  0  0  0  0  0  0  0
   11.6761  -18.2747   16.6905 C   0  0  0  0  0  0  0  0  0  0  0  0
   12.6678  -18.9769   15.8271 C   0  0  0  0  0  0  0  0  0  0  0  0
   12.1914  -18.9706   14.4273 C   0  0  0  0  0  0  0  0  0  0  0  0
   11.6742  -20.0113   13.9589 O   0  0  0  0  0  0  0  0  0  0  0  0
   11.3755  -17.9342   19.1287 C   0  0  0  0  0  0  0  0  0  0  0  0
   10.2362  -17.4066   19.1016 O   0  0  0  0  0  0  0  0  0  0  0  0
   12.2787  -17.8745   13.5836 O   0  0  0  0  0  0  0  0  0  0  0  0
   11.7444  -18.6654   20.2618 N   0  0  0  0  0  0  0  0  0  0  0  0
   10.9551  -18.8689   21.4385 C   0  0  1  0  0  0  0  0  0  0  0  0
   11.1242  -20.2613   22.0063 C   0  0  0  0  0  0  0  0  0  0  0  0
   10.2906  -21.2733   21.3568 C   0  0  0  0  0  0  0  0  0  0  0  0
    9.0535  -21.0981   21.2725 O   0  0  0  0  0  0  0  0  0  0  0  0
   11.2653  -17.9019   22.5146 C   0  0  0  0  0  0  0  0  0  0  0  0
   12.4514  -17.5003   22.6149 O   0  0  0  0  0  0  0  0  0  0  0  0
   10.8387  -22.4265   20.8300 O   0  0  0  0  0  0  0  0  0  0  0  0
   10.8258  -13.6656   30.3041 O   0  0  0  0  0  0  0  0  0  0  0  0
   10.4896  -14.2979   29.0944 C   0  0  0  0  0  0  0  0  0  0  0  0
   10.4401  -15.6840   29.0332 C   0  0  0  0  0  0  0  0  0  0  0  0
   10.1039  -16.2862   27.8223 C   0  0  0  0  0  0  0  0  0  0  0  0
    9.8214  -15.5533   26.6927 C   0  0  0  0  0  0  0  0  0  0  0  0
    9.4687  -16.2558   25.4371 C   0  0  0  0  0  0  0  0  0  0  0  0
   10.6704  -16.5834   24.5802 C   0  0  2  0  0  0  0  0  0  0  0  0
   10.3189  -17.3967   23.4401 N   0  0  0  0  0  0  0  0  0  0  0  0
   11.6557  -17.3062   25.4004 C   0  0  0  0  0  0  0  0  0  0  0  0
   11.5032  -18.6357   25.7813 O   0  0  0  0  0  0  0  0  0  0  0  0
    9.8768  -14.1816   26.7776 C   0  0  0  0  0  0  0  0  0  0  0  0
   10.2069  -13.5567   27.9639 C   0  0  0  0  0  0  0  0  0  0  0  0
   12.6919  -16.7233   25.7903 O   0  0  0  0  0  0  0  0  0  0  0  0
  2  1  1  1
  3  2  1  0
  4  3  1  0
  5  4  1  0
  5  6  2  0
  7  2  1  0
  7  8  2  0
  9  5  1  0
 10  7  1  0
 11 10  1  0
 11 12  1  1
 12 13  1  0
 13 14  2  0
 15 11  1  0
 16 15  2  0
 17 13  1  0
 18 19  1  0
 19 20  2  0
 19 29  1  0
 20 21  1  0
 21 22  2  0
 22 23  1  0
 24 23  1  1
 24 25  1  0
 25 15  1  0
 26 27  1  0
 26 24  1  0
 28 22  1  0
 29 28  2  0
 30 26  2  0
M  END
$$$$
