EDY.pdb
     RDKit          3D

 30 30  0  0  1  0  0  0  0  0999 V2000
    8.0432  -14.6317   20.4512 N   0  0  0  0  0  0  0  0  0  0  0  0
    7.4709  -15.8530   21.0004 C   0  0  1  0  0  0  0  0  0  0  0  0
    7.0198  -16.6981   19.8292 C   0  0  0  0  0  0  0  0  0  0  0  0
    7.5250  -16.1930   18.5209 C   0  0  0  0  0  0  0  0  0  0  0  0
    6.9883  -17.0341   17.4296 C   0  0  0  0  0  0  0  0  0  0  0  0
    7.1831  -16.6832   16.2428 O   0  0  0  0  0  0  0  0  0  0  0  0
    8.4015  -16.5591   21.8841 C   0  0  0  0  0  0  0  0  0  0  0  0
    8.0518  -17.6429   22.4135 O   0  0  0  0  0  0  0  0  0  0  0  0
    6.2729  -18.2037   17.6325 O   0  0  0  0  0  0  0  0  0  0  0  0
    9.6789  -16.0633   22.1619 N   0  0  0  0  0  0  0  0  0  0  0  0
   10.6308  -16.6241   23.0721 C   0  0  1  0  0  0  0  0  0  0  0  0
   12.0549  -16.2800   22.6935 C   0  0  0  0  0  0  0  0  0  0  0  0
   12.9901  -17.3982   22.8198 C   0  0  0  0  0  0  0  0  0  0  0  0
   14.1571  -17.2845   22.3797 O   0  0  0  0  0  0  0  0  0  0  0  0
   10.4176  -16.1881   24.4699 C   0  0  0  0  0  0  0  0  0  0  0  0
   10.7353  -15.0101   24.7691 O   0  0  0  0  0  0  0  0  0  0  0  0
   12.6149  -18.5857   23.4172 O   0  0  0  0  0  0  0  0  0  0  0  0
    6.5759  -11.1657   25.3838 O   0  0  0  0  0  0  0  0  0  0  0  0
    7.0056  -12.4232   25.8424 C   0  0  0  0  0  0  0  0  0  0  0  0
    6.5015  -13.5774   25.2585 C   0  0  0  0  0  0  0  0  0  0  0  0
    6.9438  -14.8115   25.7312 C   0  0  0  0  0  0  0  0  0  0  0  0
    7.8592  -14.9199   26.7527 C   0  0  0  0  0  0  0  0  0  0  0  0
    8.2893  -16.2628   27.2067 C   0  0  0  0  0  0  0  0  0  0  0  0
    9.7286  -16.5745   26.8646 C   0  0  2  0  0  0  0  0  0  0  0  0
    9.8801  -17.0053   25.4949 N   0  0  0  0  0  0  0  0  0  0  0  0
   10.2093  -17.6396   27.7593 C   0  0  0  0  0  0  0  0  0  0  0  0
   10.6692  -18.8706   27.3019 O   0  0  0  0  0  0  0  0  0  0  0  0
    8.3444  -13.7625   27.3155 C   0  0  0  0  0  0  0  0  0  0  0  0
    7.9246  -12.5255   26.8681 C   0  0  0  0  0  0  0  0  0  0  0  0
   10.2169  -17.4596   28.9973 O   0  0  0  0  0  0  0  0  0  0  0  0
  2  1  1  6
  3  2  1  0
  4  3  1  0
  5  4  1  0
  5  6  2  0
  7  2  1  0
  7  8  2  0
  9  5  1  0
 10  7  1  0
 11 10  1  0
 11 12  1  6
 12 13  1  0
 13 14  2  0
 15 11  1  0
 16 15  2  0
 17 13  1  0
 18 19  1  0
 19 20  2  0
 19 29  1  0
 20 21  1  0
 21 22  2  0
 22 23  1  0
 24 23  1  1
 24 25  1  0
 25 15  1  0
 26 27  1  0
 26 24  1  0
 28 22  1  0
 29 28  2  0
 30 26  2  0
M  END
$$$$
