EDY.pdb
     RDKit          3D

 30 30  0  0  1  0  0  0  0  0999 V2000
   11.2191  -15.4844   21.1166 N   0  0  0  0  0  0  0  0  0  0  0  0
    9.8028  -15.5789   21.4421 C   0  0  1  0  0  0  0  0  0  0  0  0
    9.1259  -16.2763   20.2825 C   0  0  0  0  0  0  0  0  0  0  0  0
    7.6445  -16.3460   20.4325 C   0  0  0  0  0  0  0  0  0  0  0  0
    7.0757  -17.1416   19.3235 C   0  0  0  0  0  0  0  0  0  0  0  0
    5.8370  -17.3262   19.2838 O   0  0  0  0  0  0  0  0  0  0  0  0
    9.5665  -16.2490   22.7230 C   0  0  0  0  0  0  0  0  0  0  0  0
    8.3927  -16.3658   23.1540 O   0  0  0  0  0  0  0  0  0  0  0  0
    7.8308  -17.7065   18.3078 O   0  0  0  0  0  0  0  0  0  0  0  0
   10.6131  -16.7685   23.4909 N   0  0  0  0  0  0  0  0  0  0  0  0
   10.5029  -17.3700   24.7851 C   0  0  1  0  0  0  0  0  0  0  0  0
   11.4155  -18.5672   24.9384 C   0  0  0  0  0  0  0  0  0  0  0  0
   10.9329  -19.7725   24.2635 C   0  0  0  0  0  0  0  0  0  0  0  0
   11.5757  -20.8423   24.3681 O   0  0  0  0  0  0  0  0  0  0  0  0
   10.8052  -16.4283   25.8857 C   0  0  0  0  0  0  0  0  0  0  0  0
   11.8997  -15.8130   25.8438 O   0  0  0  0  0  0  0  0  0  0  0  0
    9.7768  -19.7597   23.5079 O   0  0  0  0  0  0  0  0  0  0  0  0
    6.2905  -12.0655   24.1772 O   0  0  0  0  0  0  0  0  0  0  0  0
    6.9946  -12.6476   25.2455 C   0  0  0  0  0  0  0  0  0  0  0  0
    6.3545  -13.5558   26.0778 C   0  0  0  0  0  0  0  0  0  0  0  0
    7.0749  -14.1189   27.1294 C   0  0  0  0  0  0  0  0  0  0  0  0
    8.3931  -13.8041   27.3663 C   0  0  0  0  0  0  0  0  0  0  0  0
    9.1022  -14.4403   28.5007 C   0  0  0  0  0  0  0  0  0  0  0  0
   10.2827  -15.2806   28.0694 C   0  0  2  0  0  0  0  0  0  0  0  0
    9.9474  -16.1714   26.9836 N   0  0  0  0  0  0  0  0  0  0  0  0
   10.7444  -16.0761   29.2183 C   0  0  0  0  0  0  0  0  0  0  0  0
   10.7402  -17.4674   29.2342 O   0  0  0  0  0  0  0  0  0  0  0  0
    9.0061  -12.9019   26.5284 C   0  0  0  0  0  0  0  0  0  0  0  0
    8.3178  -12.3276   25.4781 C   0  0  0  0  0  0  0  0  0  0  0  0
   11.1671  -15.5018   30.2463 O   0  0  0  0  0  0  0  0  0  0  0  0
  2  1  1  6
  3  2  1  0
  4  3  1  0
  5  4  1  0
  5  6  2  0
  7  2  1  0
  7  8  2  0
  9  5  1  0
 10  7  1  0
 11 10  1  0
 11 12  1  6
 12 13  1  0
 13 14  2  0
 15 11  1  0
 16 15  2  0
 17 13  1  0
 18 19  1  0
 19 20  2  0
 19 29  1  0
 20 21  1  0
 21 22  2  0
 22 23  1  0
 24 23  1  1
 24 25  1  0
 25 15  1  0
 26 27  1  0
 26 24  1  0
 28 22  1  0
 29 28  2  0
 30 26  2  0
M  END
$$$$
