EDY.pdb
     RDKit          3D

 30 30  0  0  1  0  0  0  0  0999 V2000
    9.8361  -19.9398   19.5382 N   0  0  0  0  0  0  0  0  0  0  0  0
   10.2966  -18.5685   19.3700 C   0  0  1  0  0  0  0  0  0  0  0  0
    9.9844  -18.1665   17.9451 C   0  0  0  0  0  0  0  0  0  0  0  0
   11.0035  -18.6488   16.9700 C   0  0  0  0  0  0  0  0  0  0  0  0
   10.6737  -18.1379   15.6222 C   0  0  0  0  0  0  0  0  0  0  0  0
   11.1030  -17.0118   15.2796 O   0  0  0  0  0  0  0  0  0  0  0  0
    9.7131  -17.6571   20.3571 C   0  0  0  0  0  0  0  0  0  0  0  0
    9.8181  -16.4164   20.1932 O   0  0  0  0  0  0  0  0  0  0  0  0
    9.9096  -18.8304   14.6962 O   0  0  0  0  0  0  0  0  0  0  0  0
    9.0362  -18.1250   21.4875 N   0  0  0  0  0  0  0  0  0  0  0  0
    8.7204  -17.3724   22.6634 C   0  0  1  0  0  0  0  0  0  0  0  0
    7.5445  -17.9555   23.4164 C   0  0  0  0  0  0  0  0  0  0  0  0
    7.0581  -19.2226   22.8698 C   0  0  0  0  0  0  0  0  0  0  0  0
    7.6657  -19.7618   21.9167 O   0  0  0  0  0  0  0  0  0  0  0  0
    9.8561  -17.2738   23.6067 C   0  0  0  0  0  0  0  0  0  0  0  0
   10.3527  -18.3446   24.0369 O   0  0  0  0  0  0  0  0  0  0  0  0
    5.9364  -19.8440   23.3831 O   0  0  0  0  0  0  0  0  0  0  0  0
    5.7023  -10.9218   27.5989 O   0  0  0  0  0  0  0  0  0  0  0  0
    6.3682  -11.8508   26.7805 C   0  0  0  0  0  0  0  0  0  0  0  0
    7.7107  -11.6647   26.4798 C   0  0  0  0  0  0  0  0  0  0  0  0
    8.3476  -12.6002   25.6668 C   0  0  0  0  0  0  0  0  0  0  0  0
    7.6904  -13.6958   25.1561 C   0  0  0  0  0  0  0  0  0  0  0  0
    8.4269  -14.6539   24.2995 C   0  0  0  0  0  0  0  0  0  0  0  0
    9.7300  -15.1183   24.9093 C   0  0  2  0  0  0  0  0  0  0  0  0
   10.4235  -16.0569   24.0590 N   0  0  0  0  0  0  0  0  0  0  0  0
    9.4468  -15.7604   26.2029 C   0  0  0  0  0  0  0  0  0  0  0  0
    9.1654  -17.1165   26.3363 O   0  0  0  0  0  0  0  0  0  0  0  0
    6.3607  -13.8590   25.4678 C   0  0  0  0  0  0  0  0  0  0  0  0
    5.7030  -12.9486   26.2710 C   0  0  0  0  0  0  0  0  0  0  0  0
    9.4516  -15.0797   27.2526 O   0  0  0  0  0  0  0  0  0  0  0  0
  2  1  1  1
  3  2  1  0
  4  3  1  0
  5  4  1  0
  5  6  2  0
  7  2  1  0
  7  8  2  0
  9  5  1  0
 10  7  1  0
 11 10  1  0
 11 12  1  1
 12 13  1  0
 13 14  2  0
 15 11  1  0
 16 15  2  0
 17 13  1  0
 18 19  1  0
 19 20  2  0
 19 29  1  0
 20 21  1  0
 21 22  2  0
 22 23  1  0
 24 23  1  6
 24 25  1  0
 25 15  1  0
 26 27  1  0
 26 24  1  0
 28 22  1  0
 29 28  2  0
 30 26  2  0
M  END
$$$$
