EDY.pdb
     RDKit          3D

 30 30  0  0  1  0  0  0  0  0999 V2000
    7.9966  -19.1618   19.8604 N   0  0  0  0  0  0  0  0  0  0  0  0
    8.7233  -20.1860   20.5977 C   0  0  1  0  0  0  0  0  0  0  0  0
    9.1651  -21.2276   19.5931 C   0  0  0  0  0  0  0  0  0  0  0  0
    9.7891  -20.6325   18.3772 C   0  0  0  0  0  0  0  0  0  0  0  0
   10.1703  -21.7129   17.4423 C   0  0  0  0  0  0  0  0  0  0  0  0
   10.9804  -22.5882   17.8263 O   0  0  0  0  0  0  0  0  0  0  0  0
    9.8387  -19.6342   21.3703 C   0  0  0  0  0  0  0  0  0  0  0  0
   10.4584  -20.3710   22.1767 O   0  0  0  0  0  0  0  0  0  0  0  0
    9.6852  -21.8260   16.1490 O   0  0  0  0  0  0  0  0  0  0  0  0
   10.2417  -18.3018   21.2402 N   0  0  0  0  0  0  0  0  0  0  0  0
   11.1548  -17.6010   22.0912 C   0  0  1  0  0  0  0  0  0  0  0  0
   11.8811  -16.4927   21.3606 C   0  0  0  0  0  0  0  0  0  0  0  0
   12.8145  -16.9669   20.3384 C   0  0  0  0  0  0  0  0  0  0  0  0
   13.5068  -17.9878   20.5550 O   0  0  0  0  0  0  0  0  0  0  0  0
   10.4973  -17.0056   23.2754 C   0  0  0  0  0  0  0  0  0  0  0  0
   11.1981  -16.2919   24.0355 O   0  0  0  0  0  0  0  0  0  0  0  0
   12.9522  -16.3112   19.1305 O   0  0  0  0  0  0  0  0  0  0  0  0
    7.6340  -12.6303   19.7300 O   0  0  0  0  0  0  0  0  0  0  0  0
    7.5310  -13.4252   20.8848 C   0  0  0  0  0  0  0  0  0  0  0  0
    6.9990  -14.7043   20.7945 C   0  0  0  0  0  0  0  0  0  0  0  0
    6.9083  -15.4720   21.9539 C   0  0  0  0  0  0  0  0  0  0  0  0
    7.3273  -15.0037   23.1778 C   0  0  0  0  0  0  0  0  0  0  0  0
    7.2048  -15.8721   24.3717 C   0  0  0  0  0  0  0  0  0  0  0  0
    8.5008  -16.5535   24.7481 C   0  0  2  0  0  0  0  0  0  0  0  0
    9.1328  -17.1834   23.6129 N   0  0  0  0  0  0  0  0  0  0  0  0
    8.2209  -17.5749   25.7700 C   0  0  0  0  0  0  0  0  0  0  0  0
    8.4819  -18.9293   25.5869 O   0  0  0  0  0  0  0  0  0  0  0  0
    7.8510  -13.7334   23.2426 C   0  0  0  0  0  0  0  0  0  0  0  0
    7.9535  -12.9494   22.1106 C   0  0  0  0  0  0  0  0  0  0  0  0
    7.7234  -17.2401   26.8681 O   0  0  0  0  0  0  0  0  0  0  0  0
  2  1  1  6
  3  2  1  0
  4  3  1  0
  5  4  1  0
  5  6  2  0
  7  2  1  0
  7  8  2  0
  9  5  1  0
 10  7  1  0
 11 10  1  0
 11 12  1  6
 12 13  1  0
 13 14  2  0
 15 11  1  0
 16 15  2  0
 17 13  1  0
 18 19  1  0
 19 20  2  0
 19 29  1  0
 20 21  1  0
 21 22  2  0
 22 23  1  0
 24 23  1  6
 24 25  1  0
 25 15  1  0
 26 27  1  0
 26 24  1  0
 28 22  1  0
 29 28  2  0
 30 26  2  0
M  END
$$$$
