SFF.pdb
     RDKit          3D

 29 30  0  0  1  0  0  0  0  0999 V2000
   11.1981  -19.4053   21.3143 O   0  0  0  0  0  0  0  0  0  0  0  0
    9.9862  -19.2213   20.6570 C   0  0  0  0  0  0  0  0  0  0  0  0
    9.9202  -17.8356   20.0467 C   0  0  2  0  0  0  0  0  0  0  0  0
   11.0632  -17.6497   19.1860 N   0  0  0  0  0  0  0  0  0  0  0  0
    9.8757  -16.8500   21.1632 C   0  0  0  0  0  0  0  0  0  0  0  0
   10.8853  -16.1683   21.3682 O   0  0  0  0  0  0  0  0  0  0  0  0
    8.7181  -16.6912   21.9706 N   0  0  0  0  0  0  0  0  0  0  0  0
    8.5977  -15.7585   23.0297 C   0  0  1  0  0  0  0  0  0  0  0  0
    7.1954  -15.6533   23.6413 C   0  0  0  0  0  0  0  0  0  0  0  0
    7.0649  -14.4567   24.5083 C   0  0  0  0  0  0  0  0  0  0  0  0
    6.3731  -14.4176   25.6901 C   0  0  0  0  0  0  0  0  0  0  0  0
    6.2789  -13.2451   26.4560 C   0  0  0  0  0  0  0  0  0  0  0  0
    6.8833  -12.0796   26.0463 C   0  0  0  0  0  0  0  0  0  0  0  0
    7.5831  -12.1021   24.8606 C   0  0  0  0  0  0  0  0  0  0  0  0
    7.6730  -13.2509   24.1137 C   0  0  0  0  0  0  0  0  0  0  0  0
    9.5736  -15.9054   24.1300 C   0  0  0  0  0  0  0  0  0  0  0  0
   10.5686  -15.1437   24.2461 O   0  0  0  0  0  0  0  0  0  0  0  0
    9.4559  -16.9162   25.1321 N   0  0  0  0  0  0  0  0  0  0  0  0
   10.5423  -17.2691   26.0330 C   0  0  1  0  0  0  0  0  0  0  0  0
   10.0593  -16.9143   27.4184 C   0  0  0  0  0  0  0  0  0  0  0  0
   10.1224  -15.4881   27.7444 C   0  0  0  0  0  0  0  0  0  0  0  0
    8.9822  -14.6803   27.7207 C   0  0  0  0  0  0  0  0  0  0  0  0
    9.1130  -13.3409   28.0473 C   0  0  0  0  0  0  0  0  0  0  0  0
   10.3219  -12.7782   28.3930 C   0  0  0  0  0  0  0  0  0  0  0  0
   11.4422  -13.5825   28.4136 C   0  0  0  0  0  0  0  0  0  0  0  0
   11.3391  -14.9225   28.0921 C   0  0  0  0  0  0  0  0  0  0  0  0
   10.8360  -18.7180   25.9943 C   0  0  0  0  0  0  0  0  0  0  0  0
    9.9851  -19.5223   25.2093 O   0  0  0  0  0  0  0  0  0  0  0  0
   11.7784  -19.2508   26.6085 O   0  0  0  0  0  0  0  0  0  0  0  0
  2  3  1  0
  2  1  1  0
  3  4  1  6
  5  6  2  0
  5  3  1  0
  7  5  1  0
  8  7  1  0
  8  9  1  1
 10 15  1  0
 10  9  1  0
 11 10  2  0
 12 13  2  0
 12 11  1  0
 13 14  1  0
 14 15  2  0
 16  8  1  0
 17 16  2  0
 18 16  1  0
 19 20  1  1
 19 18  1  0
 21 22  2  0
 21 20  1  0
 23 22  1  0
 24 23  2  0
 25 24  1  0
 25 26  2  0
 26 21  1  0
 27 19  1  0
 28 27  1  0
 29 27  2  0
M  END
$$$$
