SFF.pdb
     RDKit          3D

 29 30  0  0  1  0  0  0  0  0999 V2000
   10.8663  -19.9781   19.5157 O   0  0  0  0  0  0  0  0  0  0  0  0
    9.6403  -19.3996   19.8271 C   0  0  0  0  0  0  0  0  0  0  0  0
    9.5367  -18.0171   19.2148 C   0  0  2  0  0  0  0  0  0  0  0  0
   10.6435  -17.8232   18.3097 N   0  0  0  0  0  0  0  0  0  0  0  0
    9.5256  -17.0275   20.3287 C   0  0  0  0  0  0  0  0  0  0  0  0
   10.5754  -16.4228   20.5703 O   0  0  0  0  0  0  0  0  0  0  0  0
    8.3546  -16.7800   21.0933 N   0  0  0  0  0  0  0  0  0  0  0  0
    8.2924  -15.9137   22.2120 C   0  0  1  0  0  0  0  0  0  0  0  0
    6.8797  -15.4617   22.6011 C   0  0  0  0  0  0  0  0  0  0  0  0
    6.9048  -14.4944   23.7255 C   0  0  0  0  0  0  0  0  0  0  0  0
    6.4616  -14.7572   24.9948 C   0  0  0  0  0  0  0  0  0  0  0  0
    6.5026  -13.7890   26.0101 C   0  0  0  0  0  0  0  0  0  0  0  0
    6.9942  -12.5275   25.7681 C   0  0  0  0  0  0  0  0  0  0  0  0
    7.4442  -12.2471   24.4974 C   0  0  0  0  0  0  0  0  0  0  0  0
    7.4024  -13.1967   23.5063 C   0  0  0  0  0  0  0  0  0  0  0  0
    8.9799  -16.3879   23.4315 C   0  0  0  0  0  0  0  0  0  0  0  0
    8.7388  -17.5140   23.9387 O   0  0  0  0  0  0  0  0  0  0  0  0
    9.9599  -15.6055   24.1151 N   0  0  0  0  0  0  0  0  0  0  0  0
   10.4360  -15.9237   25.4525 C   0  0  1  0  0  0  0  0  0  0  0  0
   10.3664  -14.6327   26.2315 C   0  0  0  0  0  0  0  0  0  0  0  0
   10.4770  -14.7849   27.6837 C   0  0  0  0  0  0  0  0  0  0  0  0
    9.6517  -14.0742   28.5595 C   0  0  0  0  0  0  0  0  0  0  0  0
    9.8056  -14.2720   29.9214 C   0  0  0  0  0  0  0  0  0  0  0  0
   10.7395  -15.1406   30.4421 C   0  0  0  0  0  0  0  0  0  0  0  0
   11.5501  -15.8377   29.5708 C   0  0  0  0  0  0  0  0  0  0  0  0
   11.4170  -15.6588   28.2070 C   0  0  0  0  0  0  0  0  0  0  0  0
    9.5709  -16.9216   26.1179 C   0  0  0  0  0  0  0  0  0  0  0  0
    8.1835  -16.6718   26.1103 O   0  0  0  0  0  0  0  0  0  0  0  0
    9.9993  -17.9501   26.6728 O   0  0  0  0  0  0  0  0  0  0  0  0
  2  3  1  0
  2  1  1  0
  3  4  1  6
  5  6  2  0
  5  3  1  0
  7  5  1  0
  8  7  1  0
  8  9  1  1
 10 15  1  0
 10  9  1  0
 11 10  2  0
 12 13  2  0
 12 11  1  0
 13 14  1  0
 14 15  2  0
 16  8  1  0
 17 16  2  0
 18 16  1  0
 19 20  1  1
 19 18  1  0
 21 22  2  0
 21 20  1  0
 23 22  1  0
 24 23  2  0
 25 24  1  0
 25 26  2  0
 26 21  1  0
 27 19  1  0
 28 27  1  0
 29 27  2  0
M  END
$$$$
