SFF.pdb
     RDKit          3D

 29 30  0  0  1  0  0  0  0  0999 V2000
   10.7227  -19.3201   21.5706 O   0  0  0  0  0  0  0  0  0  0  0  0
    9.7482  -19.0351   20.6200 C   0  0  0  0  0  0  0  0  0  0  0  0
    9.9741  -17.6588   20.0268 C   0  0  2  0  0  0  0  0  0  0  0  0
   11.2527  -17.6427   19.3584 N   0  0  0  0  0  0  0  0  0  0  0  0
    9.8936  -16.6679   21.1365 C   0  0  0  0  0  0  0  0  0  0  0  0
   10.9543  -16.2261   21.5902 O   0  0  0  0  0  0  0  0  0  0  0  0
    8.6462  -16.2388   21.6628 N   0  0  0  0  0  0  0  0  0  0  0  0
    8.4950  -15.2793   22.6936 C   0  0  1  0  0  0  0  0  0  0  0  0
    7.0445  -14.9857   23.0949 C   0  0  0  0  0  0  0  0  0  0  0  0
    6.9667  -13.9240   24.1280 C   0  0  0  0  0  0  0  0  0  0  0  0
    7.4882  -12.6640   23.9969 C   0  0  0  0  0  0  0  0  0  0  0  0
    7.3900  -11.7103   25.0220 C   0  0  0  0  0  0  0  0  0  0  0  0
    6.7603  -12.0061   26.2084 C   0  0  0  0  0  0  0  0  0  0  0  0
    6.2302  -13.2683   26.3561 C   0  0  0  0  0  0  0  0  0  0  0  0
    6.3283  -14.1990   25.3512 C   0  0  0  0  0  0  0  0  0  0  0  0
    9.2751  -15.5291   23.9239 C   0  0  0  0  0  0  0  0  0  0  0  0
    9.6282  -14.5966   24.6915 O   0  0  0  0  0  0  0  0  0  0  0  0
    9.6800  -16.8388   24.3249 N   0  0  0  0  0  0  0  0  0  0  0  0
   10.4555  -17.0946   25.5289 C   0  0  1  0  0  0  0  0  0  0  0  0
    9.5455  -16.7541   26.6841 C   0  0  0  0  0  0  0  0  0  0  0  0
    9.9833  -15.6171   27.4964 C   0  0  0  0  0  0  0  0  0  0  0  0
    9.9509  -14.3096   27.0039 C   0  0  0  0  0  0  0  0  0  0  0  0
   10.3729  -13.2807   27.8292 C   0  0  0  0  0  0  0  0  0  0  0  0
   10.8221  -13.4989   29.1130 C   0  0  0  0  0  0  0  0  0  0  0  0
   10.8511  -14.7923   29.5911 C   0  0  0  0  0  0  0  0  0  0  0  0
   10.4353  -15.8372   28.7881 C   0  0  0  0  0  0  0  0  0  0  0  0
   10.8418  -18.5179   25.6384 C   0  0  0  0  0  0  0  0  0  0  0  0
   11.7292  -18.8616   26.6783 O   0  0  0  0  0  0  0  0  0  0  0  0
   10.4299  -19.4087   24.8728 O   0  0  0  0  0  0  0  0  0  0  0  0
  2  3  1  0
  2  1  1  0
  3  4  1  1
  5  6  2  0
  5  3  1  0
  7  5  1  0
  8  7  1  0
  8  9  1  1
 10 15  1  0
 10  9  1  0
 11 10  2  0
 12 13  2  0
 12 11  1  0
 13 14  1  0
 14 15  2  0
 16  8  1  0
 17 16  2  0
 18 16  1  0
 19 20  1  1
 19 18  1  0
 21 22  2  0
 21 20  1  0
 23 22  1  0
 24 23  2  0
 25 24  1  0
 25 26  2  0
 26 21  1  0
 27 19  1  0
 28 27  1  0
 29 27  2  0
M  END
$$$$
