SFF.pdb
     RDKit          3D

 29 30  0  0  1  0  0  0  0  0999 V2000
   10.5250  -19.2504   20.2971 O   0  0  0  0  0  0  0  0  0  0  0  0
    9.6914  -18.5096   19.4658 C   0  0  0  0  0  0  0  0  0  0  0  0
   10.2153  -17.0953   19.3154 C   0  0  2  0  0  0  0  0  0  0  0  0
   11.5644  -17.1489   18.8068 N   0  0  0  0  0  0  0  0  0  0  0  0
   10.1299  -16.4359   20.6488 C   0  0  0  0  0  0  0  0  0  0  0  0
   11.1473  -16.4231   21.3494 O   0  0  0  0  0  0  0  0  0  0  0  0
    8.9259  -15.8397   21.1090 N   0  0  0  0  0  0  0  0  0  0  0  0
    8.7135  -15.3707   22.4285 C   0  0  1  0  0  0  0  0  0  0  0  0
    7.3547  -14.7003   22.6647 C   0  0  0  0  0  0  0  0  0  0  0  0
    7.2631  -14.1132   24.0239 C   0  0  0  0  0  0  0  0  0  0  0  0
    6.6590  -14.7134   25.0971 C   0  0  0  0  0  0  0  0  0  0  0  0
    6.5967  -14.0941   26.3552 C   0  0  0  0  0  0  0  0  0  0  0  0
    7.1450  -12.8497   26.5614 C   0  0  0  0  0  0  0  0  0  0  0  0
    7.7564  -12.2329   25.4929 C   0  0  0  0  0  0  0  0  0  0  0  0
    7.8154  -12.8416   24.2634 C   0  0  0  0  0  0  0  0  0  0  0  0
    8.9369  -16.3579   23.5056 C   0  0  0  0  0  0  0  0  0  0  0  0
    8.4058  -17.4985   23.4865 O   0  0  0  0  0  0  0  0  0  0  0  0
    9.7664  -16.0874   24.6364 N   0  0  0  0  0  0  0  0  0  0  0  0
   10.1798  -17.1149   25.5798 C   0  0  1  0  0  0  0  0  0  0  0  0
   11.2657  -16.4881   26.4203 C   0  0  0  0  0  0  0  0  0  0  0  0
   10.8054  -15.4480   27.3425 C   0  0  0  0  0  0  0  0  0  0  0  0
   10.5129  -15.7316   28.6794 C   0  0  0  0  0  0  0  0  0  0  0  0
   10.0891  -14.6982   29.4980 C   0  0  0  0  0  0  0  0  0  0  0  0
    9.9458  -13.4056   29.0437 C   0  0  0  0  0  0  0  0  0  0  0  0
   10.2363  -13.1344   27.7229 C   0  0  0  0  0  0  0  0  0  0  0  0
   10.6613  -14.1476   26.8848 C   0  0  0  0  0  0  0  0  0  0  0  0
    9.0700  -17.5183   26.4700 C   0  0  0  0  0  0  0  0  0  0  0  0
    9.3403  -18.5344   27.4089 O   0  0  0  0  0  0  0  0  0  0  0  0
    7.9324  -17.0147   26.4313 O   0  0  0  0  0  0  0  0  0  0  0  0
  2  3  1  0
  2  1  1  0
  3  4  1  1
  5  6  2  0
  5  3  1  0
  7  5  1  0
  8  7  1  0
  8  9  1  6
 10 15  1  0
 10  9  1  0
 11 10  2  0
 12 13  2  0
 12 11  1  0
 13 14  1  0
 14 15  2  0
 16  8  1  0
 17 16  2  0
 18 16  1  0
 19 20  1  1
 19 18  1  0
 21 22  2  0
 21 20  1  0
 23 22  1  0
 24 23  2  0
 25 24  1  0
 25 26  2  0
 26 21  1  0
 27 19  1  0
 28 27  1  0
 29 27  2  0
M  END
$$$$
