SFF.pdb
     RDKit          3D

 29 30  0  0  1  0  0  0  0  0999 V2000
    9.5198  -20.7468   23.5552 O   0  0  0  0  0  0  0  0  0  0  0  0
    8.2051  -21.0242   23.1956 C   0  0  0  0  0  0  0  0  0  0  0  0
    7.9220  -20.5197   21.7947 C   0  0  2  0  0  0  0  0  0  0  0  0
    8.5946  -21.3739   20.8462 N   0  0  0  0  0  0  0  0  0  0  0  0
    8.3825  -19.1046   21.7206 C   0  0  0  0  0  0  0  0  0  0  0  0
    9.5115  -18.8910   21.2667 O   0  0  0  0  0  0  0  0  0  0  0  0
    7.5608  -18.0304   22.1541 N   0  0  0  0  0  0  0  0  0  0  0  0
    7.8867  -16.6595   22.0106 C   0  0  1  0  0  0  0  0  0  0  0  0
    6.7008  -15.6965   22.1433 C   0  0  0  0  0  0  0  0  0  0  0  0
    7.0524  -14.3294   21.6874 C   0  0  0  0  0  0  0  0  0  0  0  0
    7.1054  -13.2239   22.4949 C   0  0  0  0  0  0  0  0  0  0  0  0
    7.4333  -11.9545   21.9939 C   0  0  0  0  0  0  0  0  0  0  0  0
    7.7171  -11.7694   20.6609 C   0  0  0  0  0  0  0  0  0  0  0  0
    7.6687  -12.8705   19.8356 C   0  0  0  0  0  0  0  0  0  0  0  0
    7.3474  -14.1111   20.3291 C   0  0  0  0  0  0  0  0  0  0  0  0
    8.9833  -16.1659   22.8699 C   0  0  0  0  0  0  0  0  0  0  0  0
    9.8586  -15.3686   22.4435 O   0  0  0  0  0  0  0  0  0  0  0  0
    9.1251  -16.5573   24.2362 N   0  0  0  0  0  0  0  0  0  0  0  0
   10.2404  -16.1356   25.0697 C   0  0  1  0  0  0  0  0  0  0  0  0
    9.9749  -14.6892   25.4106 C   0  0  0  0  0  0  0  0  0  0  0  0
    8.7251  -14.4482   26.1346 C   0  0  0  0  0  0  0  0  0  0  0  0
    7.7092  -15.4069   26.1813 C   0  0  0  0  0  0  0  0  0  0  0  0
    6.5561  -15.1155   26.8906 C   0  0  0  0  0  0  0  0  0  0  0  0
    6.3750  -13.9192   27.5491 C   0  0  0  0  0  0  0  0  0  0  0  0
    7.3824  -12.9785   27.4977 C   0  0  0  0  0  0  0  0  0  0  0  0
    8.5433  -13.2442   26.7968 C   0  0  0  0  0  0  0  0  0  0  0  0
   10.3067  -16.9105   26.3275 C   0  0  0  0  0  0  0  0  0  0  0  0
    9.3528  -17.9341   26.4991 O   0  0  0  0  0  0  0  0  0  0  0  0
   11.1464  -16.7070   27.2234 O   0  0  0  0  0  0  0  0  0  0  0  0
  2  3  1  0
  2  1  1  0
  3  4  1  6
  5  6  2  0
  5  3  1  0
  7  5  1  0
  8  7  1  0
  8  9  1  1
 10 15  1  0
 10  9  1  0
 11 10  2  0
 12 13  2  0
 12 11  1  0
 13 14  1  0
 14 15  2  0
 16  8  1  0
 17 16  2  0
 18 16  1  0
 19 20  1  1
 19 18  1  0
 21 22  2  0
 21 20  1  0
 23 22  1  0
 24 23  2  0
 25 24  1  0
 25 26  2  0
 26 21  1  0
 27 19  1  0
 28 27  1  0
 29 27  2  0
M  END
$$$$
