SFF.pdb
     RDKit          3D

 29 30  0  0  1  0  0  0  0  0999 V2000
   11.4811  -19.4330   21.3607 O   0  0  0  0  0  0  0  0  0  0  0  0
   11.4667  -18.6953   20.1816 C   0  0  0  0  0  0  0  0  0  0  0  0
   10.2286  -17.8234   20.1181 C   0  0  2  0  0  0  0  0  0  0  0  0
   10.1889  -17.1615   18.8367 N   0  0  0  0  0  0  0  0  0  0  0  0
   10.2896  -16.8654   21.2577 C   0  0  0  0  0  0  0  0  0  0  0  0
   11.2347  -16.0704   21.2897 O   0  0  0  0  0  0  0  0  0  0  0  0
    9.3014  -16.8575   22.2777 N   0  0  0  0  0  0  0  0  0  0  0  0
    9.2470  -15.9199   23.3379 C   0  0  1  0  0  0  0  0  0  0  0  0
    7.9279  -15.1460   23.4485 C   0  0  0  0  0  0  0  0  0  0  0  0
    7.7363  -14.2244   22.3020 C   0  0  0  0  0  0  0  0  0  0  0  0
    8.2561  -12.9597   22.2184 C   0  0  0  0  0  0  0  0  0  0  0  0
    8.0240  -12.1343   21.1072 C   0  0  0  0  0  0  0  0  0  0  0  0
    7.2591  -12.5672   20.0492 C   0  0  0  0  0  0  0  0  0  0  0  0
    6.7296  -13.8364   20.1173 C   0  0  0  0  0  0  0  0  0  0  0  0
    6.9585  -14.6412   21.2061 C   0  0  0  0  0  0  0  0  0  0  0  0
    9.5917  -16.4426   24.6768 C   0  0  0  0  0  0  0  0  0  0  0  0
    8.9103  -17.3385   25.2395 O   0  0  0  0  0  0  0  0  0  0  0  0
   10.7155  -15.9699   25.4208 N   0  0  0  0  0  0  0  0  0  0  0  0
   10.7168  -15.8618   26.8716 C   0  0  1  0  0  0  0  0  0  0  0  0
   10.4946  -14.3999   27.1750 C   0  0  0  0  0  0  0  0  0  0  0  0
    9.0997  -13.9615   27.0974 C   0  0  0  0  0  0  0  0  0  0  0  0
    8.7242  -12.6535   27.4160 C   0  0  0  0  0  0  0  0  0  0  0  0
    7.3880  -12.3047   27.3136 C   0  0  0  0  0  0  0  0  0  0  0  0
    6.4191  -13.1973   26.9108 C   0  0  0  0  0  0  0  0  0  0  0  0
    6.7982  -14.4861   26.5985 C   0  0  0  0  0  0  0  0  0  0  0  0
    8.1252  -14.8600   26.6922 C   0  0  0  0  0  0  0  0  0  0  0  0
    9.6160  -16.6405   27.4789 C   0  0  0  0  0  0  0  0  0  0  0  0
    9.7197  -16.9286   28.8549 O   0  0  0  0  0  0  0  0  0  0  0  0
    8.6229  -17.0456   26.8472 O   0  0  0  0  0  0  0  0  0  0  0  0
  2  3  1  0
  2  1  1  0
  3  4  1  6
  5  6  2  0
  5  3  1  0
  7  5  1  0
  8  7  1  0
  8  9  1  1
 10 15  1  0
 10  9  1  0
 11 10  2  0
 12 13  2  0
 12 11  1  0
 13 14  1  0
 14 15  2  0
 16  8  1  0
 17 16  2  0
 18 16  1  0
 19 20  1  6
 19 18  1  0
 21 22  2  0
 21 20  1  0
 23 22  1  0
 24 23  2  0
 25 24  1  0
 25 26  2  0
 26 21  1  0
 27 19  1  0
 28 27  1  0
 29 27  2  0
M  END
$$$$
