SFF.pdb
     RDKit          3D

 29 30  0  0  1  0  0  0  0  0999 V2000
   11.1198  -19.2141   20.0803 O   0  0  0  0  0  0  0  0  0  0  0  0
   10.2515  -18.4449   19.3128 C   0  0  0  0  0  0  0  0  0  0  0  0
   10.7266  -17.0067   19.2578 C   0  0  2  0  0  0  0  0  0  0  0  0
   12.1157  -16.9885   18.8681 N   0  0  0  0  0  0  0  0  0  0  0  0
   10.4987  -16.4022   20.6004 C   0  0  0  0  0  0  0  0  0  0  0  0
   11.4896  -16.1627   21.2981 O   0  0  0  0  0  0  0  0  0  0  0  0
    9.1920  -16.1075   21.0724 N   0  0  0  0  0  0  0  0  0  0  0  0
    8.8966  -15.6116   22.3658 C   0  0  1  0  0  0  0  0  0  0  0  0
    7.4893  -15.0243   22.5263 C   0  0  0  0  0  0  0  0  0  0  0  0
    7.3425  -14.2987   23.8118 C   0  0  0  0  0  0  0  0  0  0  0  0
    7.7556  -13.0120   24.0366 C   0  0  0  0  0  0  0  0  0  0  0  0
    7.5972  -12.3894   25.2845 C   0  0  0  0  0  0  0  0  0  0  0  0
    7.0153  -13.0526   26.3396 C   0  0  0  0  0  0  0  0  0  0  0  0
    6.5940  -14.3467   26.1302 C   0  0  0  0  0  0  0  0  0  0  0  0
    6.7508  -14.9529   24.9080 C   0  0  0  0  0  0  0  0  0  0  0  0
    9.1390  -16.5472   23.4840 C   0  0  0  0  0  0  0  0  0  0  0  0
    8.6864  -17.7214   23.4822 O   0  0  0  0  0  0  0  0  0  0  0  0
    9.8993  -16.1858   24.6378 N   0  0  0  0  0  0  0  0  0  0  0  0
   10.4578  -17.1650   25.5574 C   0  0  1  0  0  0  0  0  0  0  0  0
   11.4862  -16.4215   26.3748 C   0  0  0  0  0  0  0  0  0  0  0  0
   10.9316  -15.5151   27.3823 C   0  0  0  0  0  0  0  0  0  0  0  0
   10.7950  -15.9009   28.7186 C   0  0  0  0  0  0  0  0  0  0  0  0
   10.2694  -14.9906   29.6201 C   0  0  0  0  0  0  0  0  0  0  0  0
    9.8777  -13.7233   29.2485 C   0  0  0  0  0  0  0  0  0  0  0  0
   10.0157  -13.3507   27.9277 C   0  0  0  0  0  0  0  0  0  0  0  0
   10.5375  -14.2401   27.0078 C   0  0  0  0  0  0  0  0  0  0  0  0
    9.4294  -17.7039   26.4733 C   0  0  0  0  0  0  0  0  0  0  0  0
    9.8313  -18.7278   27.3550 O   0  0  0  0  0  0  0  0  0  0  0  0
    8.2505  -17.3056   26.5029 O   0  0  0  0  0  0  0  0  0  0  0  0
  2  3  1  0
  2  1  1  0
  3  4  1  1
  5  6  2  0
  5  3  1  0
  7  5  1  0
  8  7  1  0
  8  9  1  6
 10 15  1  0
 10  9  1  0
 11 10  2  0
 12 13  2  0
 12 11  1  0
 13 14  1  0
 14 15  2  0
 16  8  1  0
 17 16  2  0
 18 16  1  0
 19 20  1  1
 19 18  1  0
 21 22  2  0
 21 20  1  0
 23 22  1  0
 24 23  2  0
 25 24  1  0
 25 26  2  0
 26 21  1  0
 27 19  1  0
 28 27  1  0
 29 27  2  0
M  END
$$$$
