SFF.pdb
     RDKit          3D

 29 30  0  0  1  0  0  0  0  0999 V2000
   27.7045   24.9474  -34.9340 O   0  0  0  0  0  0  0  0  0  0  0  0
   28.1284   23.8819  -34.1467 C   0  0  0  0  0  0  0  0  0  0  0  0
   28.5576   22.7182  -35.0177 C   0  0  2  0  0  0  0  0  0  0  0  0
   28.8632   21.5899  -34.1721 N   0  0  0  0  0  0  0  0  0  0  0  0
   29.7274   23.1639  -35.8258 C   0  0  0  0  0  0  0  0  0  0  0  0
   29.7746   24.3518  -36.1614 O   0  0  0  0  0  0  0  0  0  0  0  0
   30.7584   22.2629  -36.2032 N   0  0  0  0  0  0  0  0  0  0  0  0
   32.1284   22.4287  -35.8842 C   0  0  1  0  0  0  0  0  0  0  0  0
   32.4577   22.3470  -34.3888 C   0  0  0  0  0  0  0  0  0  0  0  0
   31.8398   21.1557  -33.7567 C   0  0  0  0  0  0  0  0  0  0  0  0
   30.5617   20.7203  -33.9886 C   0  0  0  0  0  0  0  0  0  0  0  0
   30.0350   19.5898  -33.3447 C   0  0  0  0  0  0  0  0  0  0  0  0
   30.7884   18.8684  -32.4482 C   0  0  0  0  0  0  0  0  0  0  0  0
   32.0754   19.2926  -32.2042 C   0  0  0  0  0  0  0  0  0  0  0  0
   32.5875   20.3992  -32.8357 C   0  0  0  0  0  0  0  0  0  0  0  0
   33.0691   21.5535  -36.6148 C   0  0  0  0  0  0  0  0  0  0  0  0
   34.2834   21.8509  -36.7582 O   0  0  0  0  0  0  0  0  0  0  0  0
   32.6677   20.3166  -37.2053 N   0  0  0  0  0  0  0  0  0  0  0  0
   33.5376   19.1526  -37.2751 C   0  0  1  0  0  0  0  0  0  0  0  0
   33.8873   18.8145  -35.8462 C   0  0  0  0  0  0  0  0  0  0  0  0
   35.2230   18.2444  -35.6590 C   0  0  0  0  0  0  0  0  0  0  0  0
   35.8405   18.2216  -34.4055 C   0  0  0  0  0  0  0  0  0  0  0  0
   37.1019   17.6604  -34.2990 C   0  0  0  0  0  0  0  0  0  0  0  0
   37.7676   17.1260  -35.3802 C   0  0  0  0  0  0  0  0  0  0  0  0
   37.1512   17.1528  -36.6137 C   0  0  0  0  0  0  0  0  0  0  0  0
   35.8924   17.7069  -36.7473 C   0  0  0  0  0  0  0  0  0  0  0  0
   32.8493   17.9909  -37.8782 C   0  0  0  0  0  0  0  0  0  0  0  0
   33.5924   16.7992  -37.9992 O   0  0  0  0  0  0  0  0  0  0  0  0
   31.6700   18.0138  -38.2758 O   0  0  0  0  0  0  0  0  0  0  0  0
  2  3  1  0
  2  1  1  0
  3  4  1  1
  5  6  2  0
  5  3  1  0
  7  5  1  0
  8  7  1  0
  8  9  1  1
 10 15  1  0
 10  9  1  0
 11 10  2  0
 12 13  2  0
 12 11  1  0
 13 14  1  0
 14 15  2  0
 16  8  1  0
 17 16  2  0
 18 16  1  0
 19 20  1  1
 19 18  1  0
 21 22  2  0
 21 20  1  0
 23 22  1  0
 24 23  2  0
 25 24  1  0
 25 26  2  0
 26 21  1  0
 27 19  1  0
 28 27  1  0
 29 27  2  0
M  END
$$$$
