SFF.pdb
     RDKit          3D

 29 30  0  0  1  0  0  0  0  0999 V2000
    8.8370  -20.3400   24.1428 O   0  0  0  0  0  0  0  0  0  0  0  0
    7.7643  -20.6942   23.3314 C   0  0  0  0  0  0  0  0  0  0  0  0
    8.0343  -20.2969   21.8939 C   0  0  2  0  0  0  0  0  0  0  0  0
    8.9969  -21.2117   21.3297 N   0  0  0  0  0  0  0  0  0  0  0  0
    8.5149  -18.8866   21.8959 C   0  0  0  0  0  0  0  0  0  0  0  0
    9.7354  -18.6956   21.8907 O   0  0  0  0  0  0  0  0  0  0  0  0
    7.6104  -17.7916   21.9037 N   0  0  0  0  0  0  0  0  0  0  0  0
    7.9945  -16.4315   21.9966 C   0  0  1  0  0  0  0  0  0  0  0  0
    6.8350  -15.4288   21.9551 C   0  0  0  0  0  0  0  0  0  0  0  0
    7.2666  -14.1152   21.4175 C   0  0  0  0  0  0  0  0  0  0  0  0
    7.4610  -13.8379   20.0901 C   0  0  0  0  0  0  0  0  0  0  0  0
    7.8837  -12.5736   19.6507 C   0  0  0  0  0  0  0  0  0  0  0  0
    8.1208  -11.5548   20.5436 C   0  0  0  0  0  0  0  0  0  0  0  0
    7.9296  -11.8170   21.8818 C   0  0  0  0  0  0  0  0  0  0  0  0
    7.5162  -13.0551   22.3082 C   0  0  0  0  0  0  0  0  0  0  0  0
    8.8656  -16.0860   23.1396 C   0  0  0  0  0  0  0  0  0  0  0  0
    9.9470  -15.4602   22.9897 O   0  0  0  0  0  0  0  0  0  0  0  0
    8.5424  -16.4364   24.4860 N   0  0  0  0  0  0  0  0  0  0  0  0
    9.4122  -16.1375   25.6132 C   0  0  1  0  0  0  0  0  0  0  0  0
    8.4952  -15.9012   26.7887 C   0  0  0  0  0  0  0  0  0  0  0  0
    7.7270  -14.6561   26.7280 C   0  0  0  0  0  0  0  0  0  0  0  0
    6.3335  -14.6597   26.6211 C   0  0  0  0  0  0  0  0  0  0  0  0
    5.6698  -13.4452   26.5759 C   0  0  0  0  0  0  0  0  0  0  0  0
    6.3313  -12.2381   26.6319 C   0  0  0  0  0  0  0  0  0  0  0  0
    7.7065  -12.2435   26.7371 C   0  0  0  0  0  0  0  0  0  0  0  0
    8.3930  -13.4418   26.7843 C   0  0  0  0  0  0  0  0  0  0  0  0
   10.3030  -17.2739   25.9328 C   0  0  0  0  0  0  0  0  0  0  0  0
   11.2657  -17.0678   26.9418 O   0  0  0  0  0  0  0  0  0  0  0  0
   10.2453  -18.3805   25.3660 O   0  0  0  0  0  0  0  0  0  0  0  0
  2  3  1  0
  2  1  1  0
  3  4  1  1
  5  6  2  0
  5  3  1  0
  7  5  1  0
  8  7  1  0
  8  9  1  1
 10 15  1  0
 10  9  1  0
 11 10  2  0
 12 13  2  0
 12 11  1  0
 13 14  1  0
 14 15  2  0
 16  8  1  0
 17 16  2  0
 18 16  1  0
 19 20  1  1
 19 18  1  0
 21 22  2  0
 21 20  1  0
 23 22  1  0
 24 23  2  0
 25 24  1  0
 25 26  2  0
 26 21  1  0
 27 19  1  0
 28 27  1  0
 29 27  2  0
M  END
$$$$
