SFF.pdb
     RDKit          3D

 29 30  0  0  1  0  0  0  0  0999 V2000
   10.7186  -19.3587   20.0886 O   0  0  0  0  0  0  0  0  0  0  0  0
    9.7793  -18.6663   19.3317 C   0  0  0  0  0  0  0  0  0  0  0  0
   10.2022  -17.2215   19.1562 C   0  0  2  0  0  0  0  0  0  0  0  0
   11.5391  -17.1888   18.6145 N   0  0  0  0  0  0  0  0  0  0  0  0
   10.1047  -16.5558   20.4856 C   0  0  0  0  0  0  0  0  0  0  0  0
   11.1548  -16.3464   21.1015 O   0  0  0  0  0  0  0  0  0  0  0  0
    8.8531  -16.1710   21.0357 N   0  0  0  0  0  0  0  0  0  0  0  0
    8.6802  -15.6017   22.3211 C   0  0  1  0  0  0  0  0  0  0  0  0
    7.2921  -15.0044   22.5813 C   0  0  0  0  0  0  0  0  0  0  0  0
    7.2644  -14.2095   23.8335 C   0  0  0  0  0  0  0  0  0  0  0  0
    7.7075  -12.9185   23.9516 C   0  0  0  0  0  0  0  0  0  0  0  0
    7.6641  -12.2282   25.1728 C   0  0  0  0  0  0  0  0  0  0  0  0
    7.1700  -12.8261   26.3087 C   0  0  0  0  0  0  0  0  0  0  0  0
    6.7200  -14.1234   26.2069 C   0  0  0  0  0  0  0  0  0  0  0  0
    6.7642  -14.7960   25.0105 C   0  0  0  0  0  0  0  0  0  0  0  0
    9.0319  -16.4723   23.4625 C   0  0  0  0  0  0  0  0  0  0  0  0
    8.6413  -17.6662   23.5369 O   0  0  0  0  0  0  0  0  0  0  0  0
    9.8349  -16.0216   24.5543 N   0  0  0  0  0  0  0  0  0  0  0  0
   10.5440  -16.9285   25.4438 C   0  0  1  0  0  0  0  0  0  0  0  0
   11.4758  -16.0623   26.2563 C   0  0  0  0  0  0  0  0  0  0  0  0
   10.8234  -15.2680   27.2990 C   0  0  0  0  0  0  0  0  0  0  0  0
   10.2868  -14.0058   27.0301 C   0  0  0  0  0  0  0  0  0  0  0  0
    9.6770  -13.3121   28.0619 C   0  0  0  0  0  0  0  0  0  0  0  0
    9.5810  -13.8193   29.3391 C   0  0  0  0  0  0  0  0  0  0  0  0
   10.1134  -15.0655   29.5959 C   0  0  0  0  0  0  0  0  0  0  0  0
   10.7271  -15.7787   28.5839 C   0  0  0  0  0  0  0  0  0  0  0  0
    9.6206  -17.6213   26.3681 C   0  0  0  0  0  0  0  0  0  0  0  0
    8.2488  -17.3204   26.2465 O   0  0  0  0  0  0  0  0  0  0  0  0
    9.9881  -18.4403   27.2303 O   0  0  0  0  0  0  0  0  0  0  0  0
  2  3  1  0
  2  1  1  0
  3  4  1  1
  5  6  2  0
  5  3  1  0
  7  5  1  0
  8  7  1  0
  8  9  1  1
 10 15  1  0
 10  9  1  0
 11 10  2  0
 12 13  2  0
 12 11  1  0
 13 14  1  0
 14 15  2  0
 16  8  1  0
 17 16  2  0
 18 16  1  0
 19 20  1  1
 19 18  1  0
 21 22  2  0
 21 20  1  0
 23 22  1  0
 24 23  2  0
 25 24  1  0
 25 26  2  0
 26 21  1  0
 27 19  1  0
 28 27  1  0
 29 27  2  0
M  END
$$$$
