IFH.pdb
     RDKit          3D

 30 31  0  0  1  0  0  0  0  0999 V2000
   29.3555  -18.9743  -15.7318 C   0  0  0  0  0  0  0  0  0  0  0  0
   29.6695  -19.5560  -14.3699 C   0  0  0  0  0  0  0  0  0  0  0  0
   28.4078  -19.9498  -13.6406 C   0  0  2  0  0  0  0  0  0  0  0  0
   27.3683  -18.8515  -13.6828 C   0  0  0  0  0  0  0  0  0  0  0  0
   28.6545  -20.4328  -12.2533 C   0  0  2  0  0  0  0  0  0  0  0  0
   29.6760  -21.4253  -12.1460 N   0  0  0  0  0  0  0  0  0  0  0  0
   27.3436  -20.9214  -11.6943 C   0  0  0  0  0  0  0  0  0  0  0  0
   26.9718  -22.0956  -11.9489 O   0  0  0  0  0  0  0  0  0  0  0  0
   26.5191  -20.1122  -10.8972 N   0  0  0  0  0  0  0  0  0  0  0  0
   25.1841  -20.5798  -10.4294 C   0  0  1  0  0  0  0  0  0  0  0  0
   24.9177  -20.0394   -9.0777 C   0  0  0  0  0  0  0  0  0  0  0  0
   26.0254  -20.0762   -8.1136 C   0  0  0  0  0  0  0  0  0  0  0  0
   26.7560  -18.9277   -7.7835 C   0  0  0  0  0  0  0  0  0  0  0  0
   27.7727  -18.9532   -6.8560 C   0  0  0  0  0  0  0  0  0  0  0  0
   28.1093  -20.1216   -6.2147 C   0  0  0  0  0  0  0  0  0  0  0  0
   27.4143  -21.2574   -6.5163 C   0  0  0  0  0  0  0  0  0  0  0  0
   26.3983  -21.2175   -7.4472 C   0  0  0  0  0  0  0  0  0  0  0  0
   24.2568  -20.3278  -11.5046 C   0  0  0  0  0  0  0  0  0  0  0  0
   24.7024  -20.2600  -12.7085 O   0  0  0  0  0  0  0  0  0  0  0  0
   22.8538  -20.1403  -11.4229 N   0  0  0  0  0  0  0  0  0  0  0  0
   21.9048  -21.0171  -12.0910 C   0  0  1  0  0  0  0  0  0  0  0  0
   22.0853  -22.4378  -11.6923 C   0  0  0  0  0  0  0  0  0  0  0  0
   21.0757  -23.2981  -12.3316 C   0  0  0  0  0  0  0  0  0  0  0  0
   20.0420  -22.9968  -13.1971 C   0  0  0  0  0  0  0  0  0  0  0  0
   19.3338  -24.0778  -13.5180 N   0  0  0  0  0  0  0  0  0  0  0  0
   19.8962  -25.1045  -12.8644 C   0  0  0  0  0  0  0  0  0  0  0  0
   20.9453  -24.6490  -12.1469 N   0  0  0  0  0  0  0  0  0  0  0  0
   20.5471  -20.5614  -11.8020 C   0  0  0  0  0  0  0  0  0  0  0  0
   19.7263  -20.3704  -12.7277 O   0  0  0  0  0  0  0  0  0  0  0  0
   20.1002  -20.3233  -10.5169 O   0  0  0  0  0  0  0  0  0  0  0  0
  2  3  1  0
  2  1  1  0
  3  5  1  0
  3  4  1  1
  5  6  1  6
  7  8  2  0
  7  5  1  0
  9  7  1  0
 10  9  1  0
 10 11  1  1
 11 12  1  0
 12 13  2  0
 12 17  1  0
 13 14  1  0
 14 15  2  0
 16 15  1  0
 17 16  2  0
 18 10  1  0
 19 18  2  0
 20 18  1  0
 21 28  1  0
 21 20  1  0
 22 23  1  0
 21 22  1  1
 23 27  1  0
 24 23  2  0
 24 25  1  0
 25 26  1  0
 27 26  2  0
 28 30  1  0
 29 28  2  0
M  END
$$$$
