IFH.pdb
     RDKit          3D

 30 31  0  0  1  0  0  0  0  0999 V2000
   12.4449  -23.3775    1.8074 C   0  0  0  0  0  0  0  0  0  0  0  0
   13.0384  -22.1080    1.2349 C   0  0  0  0  0  0  0  0  0  0  0  0
   13.9995  -21.4679    2.2074 C   0  0  2  0  0  0  0  0  0  0  0  0
   13.3593  -21.2335    3.5579 C   0  0  0  0  0  0  0  0  0  0  0  0
   14.6460  -20.2366    1.6741 C   0  0  2  0  0  0  0  0  0  0  0  0
   15.2036  -20.3807    0.3670 N   0  0  0  0  0  0  0  0  0  0  0  0
   15.6802  -19.7879    2.6733 C   0  0  0  0  0  0  0  0  0  0  0  0
   16.7938  -20.3717    2.7023 O   0  0  0  0  0  0  0  0  0  0  0  0
   15.4464  -18.7391    3.5763 N   0  0  0  0  0  0  0  0  0  0  0  0
   16.5074  -18.2577    4.5049 C   0  0  1  0  0  0  0  0  0  0  0  0
   16.5240  -16.7779    4.5105 C   0  0  0  0  0  0  0  0  0  0  0  0
   17.3420  -16.1155    3.4859 C   0  0  0  0  0  0  0  0  0  0  0  0
   17.2599  -14.7368    3.2525 C   0  0  0  0  0  0  0  0  0  0  0  0
   18.0491  -14.1087    2.3157 C   0  0  0  0  0  0  0  0  0  0  0  0
   18.9555  -14.8227    1.5686 C   0  0  0  0  0  0  0  0  0  0  0  0
   19.0577  -16.1685    1.7743 C   0  0  0  0  0  0  0  0  0  0  0  0
   18.2612  -16.7847    2.7157 C   0  0  0  0  0  0  0  0  0  0  0  0
   16.3381  -18.9837    5.7392 C   0  0  0  0  0  0  0  0  0  0  0  0
   15.1483  -19.2331    6.1571 O   0  0  0  0  0  0  0  0  0  0  0  0
   17.3442  -19.4927    6.5989 N   0  0  0  0  0  0  0  0  0  0  0  0
   17.0400  -20.1403    7.8653 C   0  0  1  0  0  0  0  0  0  0  0  0
   17.9237  -21.3087    8.1181 C   0  0  0  0  0  0  0  0  0  0  0  0
   17.6043  -22.4195    7.2059 C   0  0  0  0  0  0  0  0  0  0  0  0
   16.3913  -22.9259    6.7809 C   0  0  0  0  0  0  0  0  0  0  0  0
   16.5476  -23.9704    5.9697 N   0  0  0  0  0  0  0  0  0  0  0  0
   17.8694  -24.1624    5.8529 C   0  0  0  0  0  0  0  0  0  0  0  0
   18.5166  -23.2361    6.5918 N   0  0  0  0  0  0  0  0  0  0  0  0
   17.1494  -19.1594    8.9426 C   0  0  0  0  0  0  0  0  0  0  0  0
   17.5234  -17.9885    8.7054 O   0  0  0  0  0  0  0  0  0  0  0  0
   16.8493  -19.4612   10.2567 O   0  0  0  0  0  0  0  0  0  0  0  0
  2  3  1  0
  2  1  1  0
  3  5  1  0
  3  4  1  1
  5  6  1  6
  7  8  2  0
  7  5  1  0
  9  7  1  0
 10  9  1  0
 10 11  1  1
 11 12  1  0
 12 13  2  0
 12 17  1  0
 13 14  1  0
 14 15  2  0
 16 15  1  0
 17 16  2  0
 18 10  1  0
 19 18  2  0
 20 18  1  0
 21 28  1  0
 21 20  1  0
 22 23  1  0
 21 22  1  1
 23 27  1  0
 24 23  2  0
 24 25  1  0
 25 26  1  0
 27 26  2  0
 28 30  1  0
 29 28  2  0
M  END
$$$$
