IFH.pdb
     RDKit          3D

 30 31  0  0  1  0  0  0  0  0999 V2000
   12.4764   -9.7172   -9.1209 C   0  0  0  0  0  0  0  0  0  0  0  0
   12.4975   -8.2223   -8.8836 C   0  0  0  0  0  0  0  0  0  0  0  0
   13.6952   -7.5818   -9.5427 C   0  0  2  0  0  0  0  0  0  0  0  0
   13.7967   -7.9531  -11.0057 C   0  0  0  0  0  0  0  0  0  0  0  0
   14.9710   -7.8269   -8.8141 C   0  0  2  0  0  0  0  0  0  0  0  0
   14.9480   -7.4454   -7.4377 N   0  0  0  0  0  0  0  0  0  0  0  0
   16.0740   -7.1287   -9.5661 C   0  0  0  0  0  0  0  0  0  0  0  0
   16.1582   -5.8756   -9.5010 O   0  0  0  0  0  0  0  0  0  0  0  0
   17.0142   -7.8273  -10.3395 N   0  0  0  0  0  0  0  0  0  0  0  0
   18.0524   -7.1155  -11.1364 C   0  0  1  0  0  0  0  0  0  0  0  0
   19.3093   -7.8966  -11.1190 C   0  0  0  0  0  0  0  0  0  0  0  0
   20.3652   -7.4834  -12.0529 C   0  0  0  0  0  0  0  0  0  0  0  0
   20.6355   -6.1336  -12.3121 C   0  0  0  0  0  0  0  0  0  0  0  0
   21.6461   -5.7436  -13.1615 C   0  0  0  0  0  0  0  0  0  0  0  0
   22.4336   -6.6776  -13.7917 C   0  0  0  0  0  0  0  0  0  0  0  0
   22.1933   -8.0011  -13.5581 C   0  0  0  0  0  0  0  0  0  0  0  0
   21.1780   -8.3777  -12.7051 C   0  0  0  0  0  0  0  0  0  0  0  0
   17.4393   -6.7600  -12.3921 C   0  0  0  0  0  0  0  0  0  0  0  0
   16.7113   -7.6291  -12.9981 O   0  0  0  0  0  0  0  0  0  0  0  0
   17.5225   -5.5270  -13.0873 N   0  0  0  0  0  0  0  0  0  0  0  0
   16.8993   -5.3141  -14.3842 C   0  0  1  0  0  0  0  0  0  0  0  0
   15.6449   -4.5237  -14.2747 C   0  0  0  0  0  0  0  0  0  0  0  0
   14.4636   -5.4024  -14.2936 C   0  0  0  0  0  0  0  0  0  0  0  0
   14.3499   -6.7680  -14.4690 C   0  0  0  0  0  0  0  0  0  0  0  0
   13.0792   -7.1657  -14.4486 N   0  0  0  0  0  0  0  0  0  0  0  0
   12.3419   -6.0621  -14.2592 C   0  0  0  0  0  0  0  0  0  0  0  0
   13.1626   -4.9942  -14.1644 N   0  0  0  0  0  0  0  0  0  0  0  0
   17.8554   -4.6569  -15.2723 C   0  0  0  0  0  0  0  0  0  0  0  0
   18.5397   -3.6886  -14.8707 O   0  0  0  0  0  0  0  0  0  0  0  0
   18.0569   -5.0607  -16.5778 O   0  0  0  0  0  0  0  0  0  0  0  0
  2  3  1  0
  2  1  1  0
  3  5  1  0
  3  4  1  6
  5  6  1  1
  7  8  2  0
  7  5  1  0
  9  7  1  0
 10  9  1  0
 10 11  1  6
 11 12  1  0
 12 13  2  0
 12 17  1  0
 13 14  1  0
 14 15  2  0
 16 15  1  0
 17 16  2  0
 18 10  1  0
 19 18  2  0
 20 18  1  0
 21 28  1  0
 21 20  1  0
 22 23  1  0
 21 22  1  1
 23 27  1  0
 24 23  2  0
 24 25  1  0
 25 26  1  0
 27 26  2  0
 28 30  1  0
 29 28  2  0
M  END
$$$$
