IFH.pdb
     RDKit          3D

 30 31  0  0  1  0  0  0  0  0999 V2000
   21.8251  -34.4363  -15.3072 C   0  0  0  0  0  0  0  0  0  0  0  0
   20.8792  -33.3013  -14.9777 C   0  0  0  0  0  0  0  0  0  0  0  0
   21.2257  -32.6698  -13.6509 C   0  0  2  0  0  0  0  0  0  0  0  0
   21.3157  -33.6987  -12.5455 C   0  0  0  0  0  0  0  0  0  0  0  0
   20.3326  -31.5348  -13.2865 C   0  0  2  0  0  0  0  0  0  0  0  0
   20.3145  -30.4685  -14.2368 N   0  0  0  0  0  0  0  0  0  0  0  0
   20.7343  -31.0521  -11.9171 C   0  0  0  0  0  0  0  0  0  0  0  0
   21.6452  -30.1908  -11.8169 O   0  0  0  0  0  0  0  0  0  0  0  0
   20.1276  -31.5298  -10.7449 N   0  0  0  0  0  0  0  0  0  0  0  0
   20.4972  -30.9987   -9.4029 C   0  0  1  0  0  0  0  0  0  0  0  0
   19.3559  -30.2434   -8.8398 C   0  0  0  0  0  0  0  0  0  0  0  0
   19.0327  -28.9553   -9.4675 C   0  0  0  0  0  0  0  0  0  0  0  0
   17.8201  -28.7425  -10.1357 C   0  0  0  0  0  0  0  0  0  0  0  0
   17.5013  -27.5264  -10.6961 C   0  0  0  0  0  0  0  0  0  0  0  0
   18.3734  -26.4667  -10.6179 C   0  0  0  0  0  0  0  0  0  0  0  0
   19.5633  -26.6446   -9.9725 C   0  0  0  0  0  0  0  0  0  0  0  0
   19.8698  -27.8679   -9.4157 C   0  0  0  0  0  0  0  0  0  0  0  0
   21.0712  -32.0974   -8.6663 C   0  0  0  0  0  0  0  0  0  0  0  0
   20.6205  -33.2845   -8.8663 O   0  0  0  0  0  0  0  0  0  0  0  0
   22.1169  -32.0568   -7.7096 N   0  0  0  0  0  0  0  0  0  0  0  0
   22.6338  -33.2518   -7.0612 C   0  0  1  0  0  0  0  0  0  0  0  0
   24.0049  -33.0441   -6.5255 C   0  0  0  0  0  0  0  0  0  0  0  0
   24.9705  -32.8266   -7.6155 C   0  0  0  0  0  0  0  0  0  0  0  0
   24.8147  -32.8616   -8.9877 C   0  0  0  0  0  0  0  0  0  0  0  0
   25.9635  -32.6367   -9.6224 N   0  0  0  0  0  0  0  0  0  0  0  0
   26.8897  -32.4510   -8.6710 C   0  0  0  0  0  0  0  0  0  0  0  0
   26.3054  -32.5628   -7.4589 N   0  0  0  0  0  0  0  0  0  0  0  0
   21.7139  -33.6566   -6.0008 C   0  0  0  0  0  0  0  0  0  0  0  0
   20.8033  -32.8882   -5.6167 O   0  0  0  0  0  0  0  0  0  0  0  0
   21.7930  -34.8864   -5.3768 O   0  0  0  0  0  0  0  0  0  0  0  0
  2  3  1  0
  2  1  1  0
  3  5  1  0
  3  4  1  1
  5  6  1  6
  7  8  2  0
  7  5  1  0
  9  7  1  0
 10  9  1  0
 10 11  1  1
 11 12  1  0
 12 13  2  0
 12 17  1  0
 13 14  1  0
 14 15  2  0
 16 15  1  0
 17 16  2  0
 18 10  1  0
 19 18  2  0
 20 18  1  0
 21 28  1  0
 21 20  1  0
 22 23  1  0
 21 22  1  1
 23 27  1  0
 24 23  2  0
 24 25  1  0
 25 26  1  0
 27 26  2  0
 28 30  1  0
 29 28  2  0
M  END
$$$$
