IFH.pdb
     RDKit          3D

 30 31  0  0  1  0  0  0  0  0999 V2000
   39.8181  -28.2361    4.6178 C   0  0  0  0  0  0  0  0  0  0  0  0
   39.9297  -26.7379    4.4322 C   0  0  0  0  0  0  0  0  0  0  0  0
   38.7802  -26.0185    5.0957 C   0  0  2  0  0  0  0  0  0  0  0  0
   37.4475  -26.6377    4.7364 C   0  0  0  0  0  0  0  0  0  0  0  0
   38.7930  -24.5470    4.8653 C   0  0  2  0  0  0  0  0  0  0  0  0
   40.0199  -23.9048    5.2153 N   0  0  0  0  0  0  0  0  0  0  0  0
   37.6235  -23.9531    5.6062 C   0  0  0  0  0  0  0  0  0  0  0  0
   37.7555  -23.6643    6.8231 O   0  0  0  0  0  0  0  0  0  0  0  0
   36.3878  -23.7094    4.9868 N   0  0  0  0  0  0  0  0  0  0  0  0
   35.2961  -22.9747    5.6855 C   0  0  1  0  0  0  0  0  0  0  0  0
   34.4363  -22.3016    4.6866 C   0  0  0  0  0  0  0  0  0  0  0  0
   33.1914  -21.6956    5.1772 C   0  0  0  0  0  0  0  0  0  0  0  0
   33.0711  -21.2119    6.4863 C   0  0  0  0  0  0  0  0  0  0  0  0
   31.9165  -20.6139    6.9381 C   0  0  0  0  0  0  0  0  0  0  0  0
   30.8294  -20.4696    6.1093 C   0  0  0  0  0  0  0  0  0  0  0  0
   30.9176  -20.9317    4.8277 C   0  0  0  0  0  0  0  0  0  0  0  0
   32.0799  -21.5286    4.3882 C   0  0  0  0  0  0  0  0  0  0  0  0
   34.7187  -23.8946    6.6340 C   0  0  0  0  0  0  0  0  0  0  0  0
   34.4679  -25.0987    6.2605 O   0  0  0  0  0  0  0  0  0  0  0  0
   34.3756  -23.6529    7.9883 N   0  0  0  0  0  0  0  0  0  0  0  0
   33.8557  -24.6919    8.8634 C   0  0  1  0  0  0  0  0  0  0  0  0
   34.8978  -25.2137    9.7864 C   0  0  0  0  0  0  0  0  0  0  0  0
   34.3671  -26.3063   10.6185 C   0  0  0  0  0  0  0  0  0  0  0  0
   33.1141  -26.8864   10.6654 C   0  0  0  0  0  0  0  0  0  0  0  0
   33.0429  -27.8367   11.5954 N   0  0  0  0  0  0  0  0  0  0  0  0
   34.2522  -27.8914   12.1718 C   0  0  0  0  0  0  0  0  0  0  0  0
   35.0582  -26.9757   11.5934 N   0  0  0  0  0  0  0  0  0  0  0  0
   32.7149  -24.1637    9.6078 C   0  0  0  0  0  0  0  0  0  0  0  0
   31.7061  -24.8738    9.8203 O   0  0  0  0  0  0  0  0  0  0  0  0
   32.6866  -22.8780   10.1120 O   0  0  0  0  0  0  0  0  0  0  0  0
  2  3  1  0
  2  1  1  0
  3  5  1  0
  3  4  1  6
  5  6  1  1
  7  8  2  0
  7  5  1  0
  9  7  1  0
 10  9  1  0
 10 11  1  6
 11 12  1  0
 12 13  2  0
 12 17  1  0
 13 14  1  0
 14 15  2  0
 16 15  1  0
 17 16  2  0
 18 10  1  0
 19 18  2  0
 20 18  1  0
 21 28  1  0
 21 20  1  0
 22 23  1  0
 21 22  1  1
 23 27  1  0
 24 23  2  0
 24 25  1  0
 25 26  1  0
 27 26  2  0
 28 30  1  0
 29 28  2  0
M  END
$$$$
