IFH.pdb
     RDKit          3D

 30 31  0  0  1  0  0  0  0  0999 V2000
   40.6200   -1.3945   -8.0027 C   0  0  0  0  0  0  0  0  0  0  0  0
   39.4557   -2.1123   -8.6514 C   0  0  0  0  0  0  0  0  0  0  0  0
   39.2497   -3.4787   -8.0435 C   0  0  2  0  0  0  0  0  0  0  0  0
   40.5299   -4.2844   -8.0254 C   0  0  0  0  0  0  0  0  0  0  0  0
   38.1226   -4.2341   -8.6580 C   0  0  2  0  0  0  0  0  0  0  0  0
   36.8745   -3.5394   -8.6552 N   0  0  0  0  0  0  0  0  0  0  0  0
   38.0205   -5.5634   -7.9565 C   0  0  0  0  0  0  0  0  0  0  0  0
   37.3836   -5.6346   -6.8743 O   0  0  0  0  0  0  0  0  0  0  0  0
   38.6118   -6.7293   -8.4674 N   0  0  0  0  0  0  0  0  0  0  0  0
   38.4116   -8.0550   -7.8176 C   0  0  1  0  0  0  0  0  0  0  0  0
   37.3414   -8.7940   -8.5238 C   0  0  0  0  0  0  0  0  0  0  0  0
   37.2125  -10.2271   -8.2280 C   0  0  0  0  0  0  0  0  0  0  0  0
   37.4982  -11.2079   -9.1862 C   0  0  0  0  0  0  0  0  0  0  0  0
   37.4098  -12.5517   -8.9013 C   0  0  0  0  0  0  0  0  0  0  0  0
   37.0334  -12.9813   -7.6510 C   0  0  0  0  0  0  0  0  0  0  0  0
   36.7487  -12.0477   -6.6963 C   0  0  0  0  0  0  0  0  0  0  0  0
   36.8413  -10.7052   -6.9953 C   0  0  0  0  0  0  0  0  0  0  0  0
   39.7191   -8.6441   -7.6670 C   0  0  0  0  0  0  0  0  0  0  0  0
   40.5259   -8.6342   -8.6677 O   0  0  0  0  0  0  0  0  0  0  0  0
   40.2735   -9.2585   -6.5157 N   0  0  0  0  0  0  0  0  0  0  0  0
   41.6089   -9.8349   -6.5002 C   0  0  1  0  0  0  0  0  0  0  0  0
   41.6700  -11.1156   -7.2525 C   0  0  0  0  0  0  0  0  0  0  0  0
   43.0038  -11.7296   -7.1427 C   0  0  0  0  0  0  0  0  0  0  0  0
   44.1090  -11.3734   -6.3943 C   0  0  0  0  0  0  0  0  0  0  0  0
   45.1387  -12.1889   -6.6128 N   0  0  0  0  0  0  0  0  0  0  0  0
   44.7199  -13.0926   -7.5103 C   0  0  0  0  0  0  0  0  0  0  0  0
   43.4371  -12.8275   -7.8375 N   0  0  0  0  0  0  0  0  0  0  0  0
   42.5554   -8.8636   -7.0437 C   0  0  0  0  0  0  0  0  0  0  0  0
   43.1951   -9.1113   -8.0909 O   0  0  0  0  0  0  0  0  0  0  0  0
   42.7910   -7.6403   -6.4468 O   0  0  0  0  0  0  0  0  0  0  0  0
  2  3  1  0
  2  1  1  0
  3  5  1  0
  3  4  1  6
  5  6  1  1
  7  8  2  0
  7  5  1  0
  9  7  1  0
 10  9  1  0
 10 11  1  6
 11 12  1  0
 12 13  2  0
 12 17  1  0
 13 14  1  0
 14 15  2  0
 16 15  1  0
 17 16  2  0
 18 10  1  0
 19 18  2  0
 20 18  1  0
 21 28  1  0
 21 20  1  0
 22 23  1  0
 21 22  1  6
 23 27  1  0
 24 23  2  0
 24 25  1  0
 25 26  1  0
 27 26  2  0
 28 30  1  0
 29 28  2  0
M  END
$$$$
