IFH.pdb
     RDKit          3D

 30 31  0  0  1  0  0  0  0  0999 V2000
   19.3230  -13.7556  -18.7569 C   0  0  0  0  0  0  0  0  0  0  0  0
   19.2738  -12.2759  -19.0730 C   0  0  0  0  0  0  0  0  0  0  0  0
   19.3402  -11.4462  -17.8135 C   0  0  2  0  0  0  0  0  0  0  0  0
   18.2794  -11.8547  -16.8152 C   0  0  0  0  0  0  0  0  0  0  0  0
   19.3292   -9.9794  -18.0720 C   0  0  2  0  0  0  0  0  0  0  0  0
   20.2622   -9.5470  -19.0633 N   0  0  0  0  0  0  0  0  0  0  0  0
   19.5492   -9.2770  -16.7575 C   0  0  0  0  0  0  0  0  0  0  0  0
   18.8155   -9.5703  -15.7790 O   0  0  0  0  0  0  0  0  0  0  0  0
   20.5460   -8.3042  -16.5837 N   0  0  0  0  0  0  0  0  0  0  0  0
   20.7441   -7.6147  -15.2779 C   0  0  1  0  0  0  0  0  0  0  0  0
   22.1581   -7.7446  -14.8609 C   0  0  0  0  0  0  0  0  0  0  0  0
   22.7246   -9.0996  -14.8339 C   0  0  0  0  0  0  0  0  0  0  0  0
   22.4590   -9.9906  -13.7863 C   0  0  0  0  0  0  0  0  0  0  0  0
   22.9619  -11.2719  -13.7752 C   0  0  0  0  0  0  0  0  0  0  0  0
   23.7516  -11.7255  -14.8050 C   0  0  0  0  0  0  0  0  0  0  0  0
   24.0274  -10.8790  -15.8400 C   0  0  0  0  0  0  0  0  0  0  0  0
   23.5171   -9.5984  -15.8383 C   0  0  0  0  0  0  0  0  0  0  0  0
   20.1441   -6.3095  -15.4035 C   0  0  0  0  0  0  0  0  0  0  0  0
   20.2261   -5.4888  -14.4175 O   0  0  0  0  0  0  0  0  0  0  0  0
   19.4470   -5.7713  -16.5146 N   0  0  0  0  0  0  0  0  0  0  0  0
   18.8905   -4.4274  -16.5155 C   0  0  1  0  0  0  0  0  0  0  0  0
   19.2080   -3.6955  -17.7699 C   0  0  0  0  0  0  0  0  0  0  0  0
   18.7083   -2.3116  -17.7150 C   0  0  0  0  0  0  0  0  0  0  0  0
   18.6428   -1.4102  -16.6702 C   0  0  0  0  0  0  0  0  0  0  0  0
   18.0837   -0.2604  -17.0425 N   0  0  0  0  0  0  0  0  0  0  0  0
   17.7744   -0.3945  -18.3402 C   0  0  0  0  0  0  0  0  0  0  0  0
   18.1449   -1.6241  -18.7570 N   0  0  0  0  0  0  0  0  0  0  0  0
   17.4465   -4.5074  -16.3081 C   0  0  0  0  0  0  0  0  0  0  0  0
   16.7685   -5.3978  -16.8691 O   0  0  0  0  0  0  0  0  0  0  0  0
   16.7618   -3.6251  -15.4953 O   0  0  0  0  0  0  0  0  0  0  0  0
  2  3  1  0
  2  1  1  0
  3  5  1  0
  3  4  1  1
  5  6  1  6
  7  8  2  0
  7  5  1  0
  9  7  1  0
 10  9  1  0
 10 11  1  6
 11 12  1  0
 12 13  2  0
 12 17  1  0
 13 14  1  0
 14 15  2  0
 16 15  1  0
 17 16  2  0
 18 10  1  0
 19 18  2  0
 20 18  1  0
 21 28  1  0
 21 20  1  0
 22 23  1  0
 21 22  1  6
 23 27  1  0
 24 23  2  0
 24 25  1  0
 25 26  1  0
 27 26  2  0
 28 30  1  0
 29 28  2  0
M  END
$$$$
