IFH.pdb
     RDKit          3D

 30 31  0  0  1  0  0  0  0  0999 V2000
   19.2200  -11.9531  -22.6207 C   0  0  0  0  0  0  0  0  0  0  0  0
   20.4227  -12.6025  -21.9701 C   0  0  0  0  0  0  0  0  0  0  0  0
   20.6929  -12.0099  -20.6081 C   0  0  2  0  0  0  0  0  0  0  0  0
   20.8935  -10.5121  -20.6769 C   0  0  0  0  0  0  0  0  0  0  0  0
   21.7994  -12.6890  -19.8781 C   0  0  2  0  0  0  0  0  0  0  0  0
   21.6813  -14.1112  -19.8164 N   0  0  0  0  0  0  0  0  0  0  0  0
   21.8893  -12.0785  -18.5038 C   0  0  0  0  0  0  0  0  0  0  0  0
   21.0409  -12.4050  -17.6347 O   0  0  0  0  0  0  0  0  0  0  0  0
   22.8881  -11.1557  -18.1561 N   0  0  0  0  0  0  0  0  0  0  0  0
   23.0020  -10.6131  -16.7732 C   0  0  1  0  0  0  0  0  0  0  0  0
   24.3720  -10.8445  -16.2636 C   0  0  0  0  0  0  0  0  0  0  0  0
   24.7751  -12.2395  -16.0418 C   0  0  0  0  0  0  0  0  0  0  0  0
   24.4443  -12.9261  -14.8665 C   0  0  0  0  0  0  0  0  0  0  0  0
   24.7925  -14.2433  -14.6704 C   0  0  0  0  0  0  0  0  0  0  0  0
   25.4852  -14.9376  -15.6336 C   0  0  0  0  0  0  0  0  0  0  0  0
   25.8214  -14.2941  -16.7898 C   0  0  0  0  0  0  0  0  0  0  0  0
   25.4663  -12.9748  -16.9731 C   0  0  0  0  0  0  0  0  0  0  0  0
   22.4586   -9.2778  -16.8061 C   0  0  0  0  0  0  0  0  0  0  0  0
   22.8490   -8.4688  -17.7256 O   0  0  0  0  0  0  0  0  0  0  0  0
   21.5041   -8.7008  -15.9308 N   0  0  0  0  0  0  0  0  0  0  0  0
   21.0845   -7.3118  -16.0331 C   0  0  1  0  0  0  0  0  0  0  0  0
   19.8224   -7.1682  -16.8055 C   0  0  0  0  0  0  0  0  0  0  0  0
   19.3773   -5.7650  -16.8338 C   0  0  0  0  0  0  0  0  0  0  0  0
   19.8447   -4.6779  -17.5466 C   0  0  0  0  0  0  0  0  0  0  0  0
   19.1723   -3.5667  -17.2526 N   0  0  0  0  0  0  0  0  0  0  0  0
   18.2530   -3.9129  -16.3401 C   0  0  0  0  0  0  0  0  0  0  0  0
   18.3656   -5.2328  -16.0793 N   0  0  0  0  0  0  0  0  0  0  0  0
   20.9416   -6.7551  -14.6898 C   0  0  0  0  0  0  0  0  0  0  0  0
   20.8935   -7.5053  -13.6888 O   0  0  0  0  0  0  0  0  0  0  0  0
   20.8565   -5.3970  -14.4527 O   0  0  0  0  0  0  0  0  0  0  0  0
  2  3  1  0
  2  1  1  0
  3  5  1  0
  3  4  1  6
  5  6  1  1
  7  8  2  0
  7  5  1  0
  9  7  1  0
 10  9  1  0
 10 11  1  6
 11 12  1  0
 12 13  2  0
 12 17  1  0
 13 14  1  0
 14 15  2  0
 16 15  1  0
 17 16  2  0
 18 10  1  0
 19 18  2  0
 20 18  1  0
 21 28  1  0
 21 20  1  0
 22 23  1  0
 21 22  1  1
 23 27  1  0
 24 23  2  0
 24 25  1  0
 25 26  1  0
 27 26  2  0
 28 30  1  0
 29 28  2  0
M  END
$$$$
