IFH.pdb
     RDKit          3D

 30 31  0  0  1  0  0  0  0  0999 V2000
   21.0857  -20.3838   -8.5300 C   0  0  0  0  0  0  0  0  0  0  0  0
   22.5506  -20.7653   -8.5206 C   0  0  0  0  0  0  0  0  0  0  0  0
   23.2108  -20.4284   -9.8358 C   0  0  2  0  0  0  0  0  0  0  0  0
   22.4730  -21.0383  -11.0073 C   0  0  0  0  0  0  0  0  0  0  0  0
   24.6656  -20.7469   -9.8645 C   0  0  2  0  0  0  0  0  0  0  0  0
   25.3974  -20.2694   -8.7346 N   0  0  0  0  0  0  0  0  0  0  0  0
   25.2293  -20.2162  -11.1568 C   0  0  0  0  0  0  0  0  0  0  0  0
   25.5611  -19.0050  -11.2256 O   0  0  0  0  0  0  0  0  0  0  0  0
   25.3987  -21.0259  -12.2907 N   0  0  0  0  0  0  0  0  0  0  0  0
   26.1492  -20.5480  -13.4857 C   0  0  1  0  0  0  0  0  0  0  0  0
   27.3532  -21.3864  -13.6800 C   0  0  0  0  0  0  0  0  0  0  0  0
   28.5000  -21.1217  -12.8011 C   0  0  0  0  0  0  0  0  0  0  0  0
   29.3524  -20.0295  -13.0075 C   0  0  0  0  0  0  0  0  0  0  0  0
   30.4080  -19.7607  -12.1660 C   0  0  0  0  0  0  0  0  0  0  0  0
   30.6642  -20.5654  -11.0814 C   0  0  0  0  0  0  0  0  0  0  0  0
   29.8499  -21.6376  -10.8550 C   0  0  0  0  0  0  0  0  0  0  0  0
   28.7963  -21.8951  -11.7058 C   0  0  0  0  0  0  0  0  0  0  0  0
   25.1867  -20.4071  -14.5502 C   0  0  0  0  0  0  0  0  0  0  0  0
   24.4330  -21.4058  -14.8449 O   0  0  0  0  0  0  0  0  0  0  0  0
   24.9347  -19.2675  -15.3554 N   0  0  0  0  0  0  0  0  0  0  0  0
   23.8680  -19.2254  -16.3434 C   0  0  1  0  0  0  0  0  0  0  0  0
   23.1366  -17.9315  -16.3163 C   0  0  0  0  0  0  0  0  0  0  0  0
   22.1686  -17.8952  -15.2074 C   0  0  0  0  0  0  0  0  0  0  0  0
   21.7921  -18.8645  -14.2980 C   0  0  0  0  0  0  0  0  0  0  0  0
   20.8489  -18.4246  -13.4672 N   0  0  0  0  0  0  0  0  0  0  0  0
   20.5945  -17.1572  -13.8232 C   0  0  0  0  0  0  0  0  0  0  0  0
   21.3817  -16.8264  -14.8690 N   0  0  0  0  0  0  0  0  0  0  0  0
   24.4318  -19.4797  -17.6671 C   0  0  0  0  0  0  0  0  0  0  0  0
   25.4541  -18.8698  -18.0544 O   0  0  0  0  0  0  0  0  0  0  0  0
   23.8818  -20.3912  -18.5472 O   0  0  0  0  0  0  0  0  0  0  0  0
  2  3  1  0
  2  1  1  0
  3  5  1  0
  3  4  1  6
  5  6  1  1
  7  8  2  0
  7  5  1  0
  9  7  1  0
 10  9  1  0
 10 11  1  6
 11 12  1  0
 12 13  2  0
 12 17  1  0
 13 14  1  0
 14 15  2  0
 16 15  1  0
 17 16  2  0
 18 10  1  0
 19 18  2  0
 20 18  1  0
 21 28  1  0
 21 20  1  0
 22 23  1  0
 21 22  1  6
 23 27  1  0
 24 23  2  0
 24 25  1  0
 25 26  1  0
 27 26  2  0
 28 30  1  0
 29 28  2  0
M  END
$$$$
