IFH.pdb
     RDKit          3D

 30 31  0  0  1  0  0  0  0  0999 V2000
   20.2382   -9.2972  -23.7084 C   0  0  0  0  0  0  0  0  0  0  0  0
   21.4815   -9.5570  -22.8848 C   0  0  0  0  0  0  0  0  0  0  0  0
   21.2250   -9.3130  -21.4172 C   0  0  2  0  0  0  0  0  0  0  0  0
   20.7591   -7.8976  -21.1561 C   0  0  0  0  0  0  0  0  0  0  0  0
   22.3721   -9.6933  -20.5465 C   0  0  2  0  0  0  0  0  0  0  0  0
   22.9174  -10.9852  -20.8184 N   0  0  0  0  0  0  0  0  0  0  0  0
   21.9251   -9.5690  -19.1132 C   0  0  0  0  0  0  0  0  0  0  0  0
   21.3915  -10.5603  -18.5526 O   0  0  0  0  0  0  0  0  0  0  0  0
   22.0827   -8.3840  -18.3777 N   0  0  0  0  0  0  0  0  0  0  0  0
   21.6085   -8.2704  -16.9699 C   0  0  1  0  0  0  0  0  0  0  0  0
   22.7740   -8.1970  -16.0610 C   0  0  0  0  0  0  0  0  0  0  0  0
   22.4992   -7.9292  -14.6431 C   0  0  0  0  0  0  0  0  0  0  0  0
   22.3479   -6.6257  -14.1532 C   0  0  0  0  0  0  0  0  0  0  0  0
   22.0577   -6.3737  -12.8315 C   0  0  0  0  0  0  0  0  0  0  0  0
   21.9050   -7.4061  -11.9368 C   0  0  0  0  0  0  0  0  0  0  0  0
   22.0468   -8.6877  -12.3857 C   0  0  0  0  0  0  0  0  0  0  0  0
   22.3374   -8.9256  -13.7121 C   0  0  0  0  0  0  0  0  0  0  0  0
   20.6106   -7.2297  -16.9517 C   0  0  0  0  0  0  0  0  0  0  0  0
   20.8987   -6.0815  -17.4527 O   0  0  0  0  0  0  0  0  0  0  0  0
   19.2895   -7.2943  -16.4407 N   0  0  0  0  0  0  0  0  0  0  0  0
   18.4293   -6.1257  -16.3401 C   0  0  1  0  0  0  0  0  0  0  0  0
   16.9902   -6.4969  -16.3036 C   0  0  0  0  0  0  0  0  0  0  0  0
   16.1348   -5.2988  -16.3347 C   0  0  0  0  0  0  0  0  0  0  0  0
   15.9419   -4.3455  -17.3157 C   0  0  0  0  0  0  0  0  0  0  0  0
   15.0952   -3.3956  -16.9234 N   0  0  0  0  0  0  0  0  0  0  0  0
   14.7215   -3.7154  -15.6761 C   0  0  0  0  0  0  0  0  0  0  0  0
   15.3399   -4.8584  -15.3099 N   0  0  0  0  0  0  0  0  0  0  0  0
   18.8015   -5.3584  -15.1539 C   0  0  0  0  0  0  0  0  0  0  0  0
   18.9321   -5.9213  -14.0434 O   0  0  0  0  0  0  0  0  0  0  0  0
   19.0291   -3.9964  -15.1902 O   0  0  0  0  0  0  0  0  0  0  0  0
  2  3  1  0
  2  1  1  0
  3  5  1  0
  3  4  1  6
  5  6  1  6
  7  8  2  0
  7  5  1  0
  9  7  1  0
 10  9  1  0
 10 11  1  1
 11 12  1  0
 12 13  2  0
 12 17  1  0
 13 14  1  0
 14 15  2  0
 16 15  1  0
 17 16  2  0
 18 10  1  0
 19 18  2  0
 20 18  1  0
 21 28  1  0
 21 20  1  0
 22 23  1  0
 21 22  1  1
 23 27  1  0
 24 23  2  0
 24 25  1  0
 25 26  1  0
 27 26  2  0
 28 30  1  0
 29 28  2  0
M  END
$$$$
