RCK.pdb
     RDKit          3D

 27 26  0  0  1  0  0  0  0  0999 V2000
   25.2871  -25.6775  -16.0133 N   0  0  0  0  0  0  0  0  0  0  0  0
   25.6176  -24.6655  -16.9608 C   0  0  0  0  0  0  0  0  0  0  0  0
   25.3214  -24.7938  -18.2211 N   0  0  0  0  0  0  0  0  0  0  0  0
   26.2837  -23.4763  -16.5665 N   0  0  0  0  0  0  0  0  0  0  0  0
   26.5018  -23.1403  -15.1997 C   0  0  0  0  0  0  0  0  0  0  0  0
   25.3059  -22.6530  -14.4580 C   0  0  0  0  0  0  0  0  0  0  0  0
   24.8175  -21.3121  -14.8665 C   0  0  0  0  0  0  0  0  0  0  0  0
   23.5393  -20.8617  -14.2199 C   0  0  2  0  0  0  0  0  0  0  0  0
   22.4938  -21.7540  -14.7517 N   0  0  0  0  0  0  0  0  0  0  0  0
   23.1440  -19.4857  -14.5474 C   0  0  0  0  0  0  0  0  0  0  0  0
   23.7799  -18.4855  -14.0811 O   0  0  0  0  0  0  0  0  0  0  0  0
   25.6388  -24.0455  -18.8666 N   0  0  0  0  0  0  0  0  0  0  0  0
   22.0425  -19.2005  -15.3931 C   0  0  2  0  0  0  0  0  0  0  0  0
   21.6897  -17.8343  -15.6794 C   0  0  0  0  0  0  0  0  0  0  0  0
   22.9226  -17.1425  -16.2646 S   0  0  0  0  0  0  0  0  0  0  0  0
   22.4856  -15.4925  -16.8579 C   0  0  0  0  0  0  0  0  0  0  0  0
   20.5546  -17.7655  -16.6488 O   0  0  0  0  0  0  0  0  0  0  0  0
   20.6007  -18.3971  -17.7345 N   0  0  0  0  0  0  0  0  0  0  0  0
   19.3890  -16.9937  -16.3881 C   0  0  1  0  0  0  0  0  0  0  0  0
   18.0657  -17.5635  -16.6685 C   0  0  0  0  0  0  0  0  0  0  0  0
   17.9649  -18.8083  -15.8425 C   0  0  0  0  0  0  0  0  0  0  0  0
   16.7213  -19.6118  -16.0654 C   0  0  0  0  0  0  0  0  0  0  0  0
   16.6665  -20.8664  -15.2365 C   0  0  0  0  0  0  0  0  0  0  0  0
   15.3843  -21.6023  -15.5610 N   0  0  0  0  0  0  0  0  0  0  0  0
   15.2493  -22.7475  -14.6702 C   0  0  0  0  0  0  0  0  0  0  0  0
   17.0141  -16.5692  -16.3363 O   0  0  0  0  0  0  0  0  0  0  0  0
   17.3112  -15.3414  -15.7980 O   0  0  0  0  0  0  0  0  0  0  0  0
  1  2  1  0
  2  3  2  0
  4  2  1  0
  4  5  1  0
  6  5  1  0
  7  6  1  0
  8 10  1  0
  8  7  1  0
  8  9  1  6
 10 11  2  0
 12 10  1  0
 13 12  1  0
 13 16  1  0
 14 15  1  0
 13 14  1  1
 16 17  2  0
 16 18  1  0
 18 19  1  0
 19 25  1  0
 19 20  1  6
 21 20  1  0
 22 21  1  0
 23 22  1  0
 24 23  1  0
 25 27  2  0
 25 26  1  0
M  END
$$$$
