RCK.pdb
     RDKit          3D

 27 26  0  0  1  0  0  0  0  0999 V2000
   22.2799  -25.6924  -16.9087 N   0  0  0  0  0  0  0  0  0  0  0  0
   22.9605  -25.3548  -18.1145 C   0  0  0  0  0  0  0  0  0  0  0  0
   22.3174  -24.9120  -19.1551 N   0  0  0  0  0  0  0  0  0  0  0  0
   24.3686  -25.4885  -18.2279 N   0  0  0  0  0  0  0  0  0  0  0  0
   25.1892  -25.8819  -17.1323 C   0  0  0  0  0  0  0  0  0  0  0  0
   25.9489  -24.7850  -16.4709 C   0  0  0  0  0  0  0  0  0  0  0  0
   26.8856  -24.0482  -17.3559 C   0  0  0  0  0  0  0  0  0  0  0  0
   26.6810  -22.5623  -17.4247 C   0  0  2  0  0  0  0  0  0  0  0  0
   28.0026  -21.9701  -17.1512 N   0  0  0  0  0  0  0  0  0  0  0  0
   25.7501  -22.0293  -16.4217 C   0  0  0  0  0  0  0  0  0  0  0  0
   26.1585  -21.6418  -15.2792 O   0  0  0  0  0  0  0  0  0  0  0  0
   22.8807  -24.5766  -19.9598 N   0  0  0  0  0  0  0  0  0  0  0  0
   24.3587  -21.9189  -16.6701 C   0  0  2  0  0  0  0  0  0  0  0  0
   23.4970  -21.3185  -15.6853 C   0  0  0  0  0  0  0  0  0  0  0  0
   23.1871  -19.8905  -16.1389 S   0  0  0  0  0  0  0  0  0  0  0  0
   22.5324  -19.9024  -17.8232 C   0  0  0  0  0  0  0  0  0  0  0  0
   22.2295  -22.0958  -15.5364 O   0  0  0  0  0  0  0  0  0  0  0  0
   21.6686  -22.6040  -16.5399 N   0  0  0  0  0  0  0  0  0  0  0  0
   21.6120  -22.2919  -14.2706 C   0  0  1  0  0  0  0  0  0  0  0  0
   20.3161  -22.9771  -14.1956 C   0  0  0  0  0  0  0  0  0  0  0  0
   20.3858  -23.8692  -12.9949 C   0  0  0  0  0  0  0  0  0  0  0  0
   19.1317  -24.6349  -12.7070 C   0  0  0  0  0  0  0  0  0  0  0  0
   19.2053  -25.4433  -11.4402 C   0  0  0  0  0  0  0  0  0  0  0  0
   17.9801  -26.3285  -11.3618 N   0  0  0  0  0  0  0  0  0  0  0  0
   18.0532  -27.1442  -10.1566 C   0  0  0  0  0  0  0  0  0  0  0  0
   19.2261  -21.9732  -14.1005 O   0  0  0  0  0  0  0  0  0  0  0  0
   17.9456  -22.2411  -14.5179 O   0  0  0  0  0  0  0  0  0  0  0  0
  1  2  1  0
  2  3  2  0
  4  2  1  0
  4  5  1  0
  6  5  1  0
  7  6  1  0
  8 10  1  0
  8  7  1  0
  8  9  1  1
 10 11  2  0
 12 10  1  0
 13 12  1  0
 13 16  1  0
 14 15  1  0
 13 14  1  6
 16 17  2  0
 16 18  1  0
 18 19  1  0
 19 25  1  0
 19 20  1  6
 21 20  1  0
 22 21  1  0
 23 22  1  0
 24 23  1  0
 25 27  2  0
 25 26  1  0
M  END
$$$$
