RCK.pdb
     RDKit          3D

 27 26  0  0  1  0  0  0  0  0999 V2000
   19.0319  -23.3381   -9.1590 N   0  0  0  0  0  0  0  0  0  0  0  0
   18.0906  -23.3051  -10.2287 C   0  0  0  0  0  0  0  0  0  0  0  0
   16.9009  -23.8158  -10.1011 N   0  0  0  0  0  0  0  0  0  0  0  0
   18.4143  -22.7132  -11.4769 N   0  0  0  0  0  0  0  0  0  0  0  0
   19.6825  -22.8906  -12.1004 C   0  0  0  0  0  0  0  0  0  0  0  0
   20.7705  -21.9991  -11.6112 C   0  0  0  0  0  0  0  0  0  0  0  0
   21.0293  -20.8045  -12.4533 C   0  0  0  0  0  0  0  0  0  0  0  0
   22.0840  -20.9704  -13.5092 C   0  0  2  0  0  0  0  0  0  0  0  0
   22.2435  -22.4254  -13.6808 N   0  0  0  0  0  0  0  0  0  0  0  0
   23.3997  -20.4290  -13.1450 C   0  0  0  0  0  0  0  0  0  0  0  0
   23.6127  -19.1738  -13.1107 O   0  0  0  0  0  0  0  0  0  0  0  0
   16.3018  -23.8529  -10.9479 N   0  0  0  0  0  0  0  0  0  0  0  0
   24.4935  -21.2684  -12.8150 C   0  0  1  0  0  0  0  0  0  0  0  0
   25.8176  -20.7144  -12.7021 C   0  0  0  0  0  0  0  0  0  0  0  0
   26.4811  -21.3284  -11.4677 S   0  0  0  0  0  0  0  0  0  0  0  0
   25.5716  -20.8622   -9.9775 C   0  0  0  0  0  0  0  0  0  0  0  0
   26.6288  -21.0113  -13.9214 O   0  0  0  0  0  0  0  0  0  0  0  0
   26.5447  -22.1292  -14.4898 N   0  0  0  0  0  0  0  0  0  0  0  0
   27.5181  -20.0549  -14.4841 C   0  0  1  0  0  0  0  0  0  0  0  0
   27.6735  -19.9805  -15.9418 C   0  0  0  0  0  0  0  0  0  0  0  0
   26.3237  -19.6299  -16.4870 C   0  0  0  0  0  0  0  0  0  0  0  0
   25.6097  -20.7553  -17.1695 C   0  0  0  0  0  0  0  0  0  0  0  0
   24.2322  -20.3836  -17.6473 C   0  0  0  0  0  0  0  0  0  0  0  0
   23.6528  -21.5579  -18.4066 N   0  0  0  0  0  0  0  0  0  0  0  0
   22.3475  -21.1887  -18.9386 C   0  0  0  0  0  0  0  0  0  0  0  0
   28.7081  -18.9711  -16.2820 O   0  0  0  0  0  0  0  0  0  0  0  0
   29.5230  -19.0993  -17.3798 O   0  0  0  0  0  0  0  0  0  0  0  0
  1  2  1  0
  2  3  2  0
  4  2  1  0
  4  5  1  0
  6  5  1  0
  7  6  1  0
  8 10  1  0
  8  7  1  0
  8  9  1  1
 10 11  2  0
 12 10  1  0
 13 12  1  0
 13 16  1  0
 14 15  1  0
 13 14  1  6
 16 17  2  0
 16 18  1  0
 18 19  1  0
 19 25  1  0
 19 20  1  6
 21 20  1  0
 22 21  1  0
 23 22  1  0
 24 23  1  0
 25 27  2  0
 25 26  1  0
M  END
$$$$
