RCK.pdb
     RDKit          3D

 27 26  0  0  1  0  0  0  0  0999 V2000
   30.9221  -21.7417  -11.9755 N   0  0  0  0  0  0  0  0  0  0  0  0
   30.3533  -21.3025  -10.7447 C   0  0  0  0  0  0  0  0  0  0  0  0
   30.8770  -21.6315   -9.6001 N   0  0  0  0  0  0  0  0  0  0  0  0
   29.1918  -20.4879  -10.7189 N   0  0  0  0  0  0  0  0  0  0  0  0
   28.5470  -20.0394  -11.9070 C   0  0  0  0  0  0  0  0  0  0  0  0
   28.1235  -21.1092  -12.8525 C   0  0  0  0  0  0  0  0  0  0  0  0
   26.6947  -21.0637  -13.2524 C   0  0  0  0  0  0  0  0  0  0  0  0
   25.7052  -21.0293  -12.1235 C   0  0  2  0  0  0  0  0  0  0  0  0
   25.8807  -22.3055  -11.4075 N   0  0  0  0  0  0  0  0  0  0  0  0
   24.3009  -20.9587  -12.5476 C   0  0  0  0  0  0  0  0  0  0  0  0
   23.9309  -21.3914  -13.6870 O   0  0  0  0  0  0  0  0  0  0  0  0
   30.4285  -21.2567   -8.7423 N   0  0  0  0  0  0  0  0  0  0  0  0
   23.2911  -20.4096  -11.7178 C   0  0  1  0  0  0  0  0  0  0  0  0
   21.9095  -20.4928  -12.1143 C   0  0  0  0  0  0  0  0  0  0  0  0
   21.0507  -20.3921  -10.8520 S   0  0  0  0  0  0  0  0  0  0  0  0
   21.3210  -21.8366   -9.8004 C   0  0  0  0  0  0  0  0  0  0  0  0
   21.5568  -19.3939  -13.0634 O   0  0  0  0  0  0  0  0  0  0  0  0
   21.7203  -18.1906  -12.7389 N   0  0  0  0  0  0  0  0  0  0  0  0
   21.0290  -19.6583  -14.3571 C   0  0  1  0  0  0  0  0  0  0  0  0
   20.6845  -18.5384  -15.2412 C   0  0  0  0  0  0  0  0  0  0  0  0
   21.6284  -18.6180  -16.4010 C   0  0  0  0  0  0  0  0  0  0  0  0
   21.4121  -17.5817  -17.4599 C   0  0  0  0  0  0  0  0  0  0  0  0
   22.3721  -17.6990  -18.6125 C   0  0  0  0  0  0  0  0  0  0  0  0
   22.0725  -16.5944  -19.6030 N   0  0  0  0  0  0  0  0  0  0  0  0
   23.0384  -16.6515  -20.6926 C   0  0  0  0  0  0  0  0  0  0  0  0
   19.2618  -18.6472  -15.6525 O   0  0  0  0  0  0  0  0  0  0  0  0
   18.5321  -17.5577  -16.0599 O   0  0  0  0  0  0  0  0  0  0  0  0
  1  2  1  0
  2  3  2  0
  4  2  1  0
  4  5  1  0
  6  5  1  0
  7  6  1  0
  8 10  1  0
  8  7  1  0
  8  9  1  6
 10 11  2  0
 12 10  1  0
 13 12  1  0
 13 16  1  0
 14 15  1  0
 13 14  1  6
 16 17  2  0
 16 18  1  0
 18 19  1  0
 19 25  1  0
 19 20  1  6
 21 20  1  0
 22 21  1  0
 23 22  1  0
 24 23  1  0
 25 27  2  0
 25 26  1  0
M  END
$$$$
