RCK.pdb
     RDKit          3D

 27 26  0  0  1  0  0  0  0  0999 V2000
   23.5763  -21.4735  -19.3200 N   0  0  0  0  0  0  0  0  0  0  0  0
   23.8598  -20.0767  -19.3236 C   0  0  0  0  0  0  0  0  0  0  0  0
   24.6405  -19.5456  -20.2185 N   0  0  0  0  0  0  0  0  0  0  0  0
   23.3010  -19.2090  -18.3499 N   0  0  0  0  0  0  0  0  0  0  0  0
   22.4524  -19.6775  -17.3064 C   0  0  0  0  0  0  0  0  0  0  0  0
   23.0897  -19.8037  -15.9663 C   0  0  0  0  0  0  0  0  0  0  0  0
   22.9324  -21.1302  -15.3191 C   0  0  0  0  0  0  0  0  0  0  0  0
   21.5617  -21.4349  -14.7872 C   0  0  2  0  0  0  0  0  0  0  0  0
   20.7978  -20.1824  -14.9278 N   0  0  0  0  0  0  0  0  0  0  0  0
   21.5291  -21.8066  -13.3668 C   0  0  0  0  0  0  0  0  0  0  0  0
   22.0455  -22.8958  -12.9555 O   0  0  0  0  0  0  0  0  0  0  0  0
   24.8055  -18.5223  -20.1640 N   0  0  0  0  0  0  0  0  0  0  0  0
   20.9261  -20.9792  -12.3862 C   0  0  1  0  0  0  0  0  0  0  0  0
   20.9406  -21.3755  -11.0021 C   0  0  0  0  0  0  0  0  0  0  0  0
   21.1333  -20.1167  -10.1541 S   0  0  0  0  0  0  0  0  0  0  0  0
   19.5431  -19.5569   -9.5035 C   0  0  0  0  0  0  0  0  0  0  0  0
   19.6650  -22.0569  -10.6260 O   0  0  0  0  0  0  0  0  0  0  0  0
   18.5769  -21.7157  -11.1548 N   0  0  0  0  0  0  0  0  0  0  0  0
   19.6275  -23.1066   -9.6674 C   0  0  2  0  0  0  0  0  0  0  0  0
   18.3458  -23.7420   -9.3393 C   0  0  0  0  0  0  0  0  0  0  0  0
   18.6383  -24.7352   -8.2576 C   0  0  0  0  0  0  0  0  0  0  0  0
   17.4319  -25.4035   -7.6746 C   0  0  0  0  0  0  0  0  0  0  0  0
   17.7683  -26.4370   -6.6341 C   0  0  0  0  0  0  0  0  0  0  0  0
   16.4774  -26.9823   -6.0621 N   0  0  0  0  0  0  0  0  0  0  0  0
   16.7860  -27.9925   -5.0582 C   0  0  0  0  0  0  0  0  0  0  0  0
   17.3694  -22.7061   -8.9167 O   0  0  0  0  0  0  0  0  0  0  0  0
   16.0839  -22.6719   -9.3981 O   0  0  0  0  0  0  0  0  0  0  0  0
  1  2  1  0
  2  3  2  0
  4  2  1  0
  4  5  1  0
  6  5  1  0
  7  6  1  0
  8 10  1  0
  8  7  1  0
  8  9  1  1
 10 11  2  0
 12 10  1  0
 13 12  1  0
 13 16  1  0
 14 15  1  0
 13 14  1  1
 16 17  2  0
 16 18  1  0
 18 19  1  0
 19 25  1  0
 19 20  1  1
 21 20  1  0
 22 21  1  0
 23 22  1  0
 24 23  1  0
 25 27  2  0
 25 26  1  0
M  END
$$$$
