RCK.pdb
     RDKit          3D

 27 26  0  0  1  0  0  0  0  0999 V2000
   24.1975  -16.0534  -18.5393 N   0  0  0  0  0  0  0  0  0  0  0  0
   25.5124  -15.9373  -18.0018 C   0  0  0  0  0  0  0  0  0  0  0  0
   26.5415  -15.7209  -18.7677 N   0  0  0  0  0  0  0  0  0  0  0  0
   25.7514  -16.0535  -16.6080 N   0  0  0  0  0  0  0  0  0  0  0  0
   27.0606  -15.9967  -16.0502 C   0  0  0  0  0  0  0  0  0  0  0  0
   27.7506  -17.3071  -15.8928 C   0  0  0  0  0  0  0  0  0  0  0  0
   27.1422  -18.2206  -14.8935 C   0  0  0  0  0  0  0  0  0  0  0  0
   27.9184  -19.4720  -14.6002 C   0  0  2  0  0  0  0  0  0  0  0  0
   28.0557  -20.1624  -15.8951 N   0  0  0  0  0  0  0  0  0  0  0  0
   27.2490  -20.4016  -13.6811 C   0  0  0  0  0  0  0  0  0  0  0  0
   27.9149  -21.2049  -12.9507 O   0  0  0  0  0  0  0  0  0  0  0  0
   27.4744  -15.6738  -18.3151 N   0  0  0  0  0  0  0  0  0  0  0  0
   25.8375  -20.4533  -13.5593 C   0  0  2  0  0  0  0  0  0  0  0  0
   25.2371  -20.9109  -12.3332 C   0  0  0  0  0  0  0  0  0  0  0  0
   25.6352  -19.9372  -11.2221 S   0  0  0  0  0  0  0  0  0  0  0  0
   25.0524  -20.5471   -9.6240 C   0  0  0  0  0  0  0  0  0  0  0  0
   23.7490  -20.9701  -12.4544 O   0  0  0  0  0  0  0  0  0  0  0  0
   23.0149  -20.3810  -11.6214 N   0  0  0  0  0  0  0  0  0  0  0  0
   23.1078  -21.6852  -13.5031 C   0  0  2  0  0  0  0  0  0  0  0  0
   21.6418  -21.7107  -13.5712 C   0  0  0  0  0  0  0  0  0  0  0  0
   21.1799  -22.4176  -12.3346 C   0  0  0  0  0  0  0  0  0  0  0  0
   19.6950  -22.5661  -12.2128 C   0  0  0  0  0  0  0  0  0  0  0  0
   19.2705  -23.3088  -10.9750 C   0  0  0  0  0  0  0  0  0  0  0  0
   17.7584  -23.3683  -10.9440 N   0  0  0  0  0  0  0  0  0  0  0  0
   17.3259  -23.9284   -9.6701 C   0  0  0  0  0  0  0  0  0  0  0  0
   21.1227  -20.3227  -13.6649 O   0  0  0  0  0  0  0  0  0  0  0  0
   21.7993  -19.2508  -13.1369 O   0  0  0  0  0  0  0  0  0  0  0  0
  1  2  1  0
  2  3  2  0
  4  2  1  0
  4  5  1  0
  6  5  1  0
  7  6  1  0
  8 10  1  0
  8  7  1  0
  8  9  1  6
 10 11  2  0
 12 10  1  0
 13 12  1  0
 13 16  1  0
 14 15  1  0
 13 14  1  1
 16 17  2  0
 16 18  1  0
 18 19  1  0
 19 25  1  0
 19 20  1  1
 21 20  1  0
 22 21  1  0
 23 22  1  0
 24 23  1  0
 25 27  2  0
 25 26  1  0
M  END
$$$$
