RCK.pdb
     RDKit          3D

 27 26  0  0  1  0  0  0  0  0999 V2000
   26.4960  -23.7960  -15.7953 N   0  0  0  0  0  0  0  0  0  0  0  0
   26.5895  -23.4046  -17.1625 C   0  0  0  0  0  0  0  0  0  0  0  0
   27.4846  -23.9176  -17.9551 N   0  0  0  0  0  0  0  0  0  0  0  0
   25.7088  -22.4385  -17.7142 N   0  0  0  0  0  0  0  0  0  0  0  0
   24.6432  -21.8610  -16.9662 C   0  0  0  0  0  0  0  0  0  0  0  0
   25.0228  -20.7335  -16.0704 C   0  0  0  0  0  0  0  0  0  0  0  0
   23.8943  -20.1071  -15.3373 C   0  0  0  0  0  0  0  0  0  0  0  0
   23.6486  -20.6318  -13.9521 C   0  0  2  0  0  0  0  0  0  0  0  0
   23.8232  -22.0921  -14.0478 N   0  0  0  0  0  0  0  0  0  0  0  0
   22.2933  -20.3890  -13.4412 C   0  0  0  0  0  0  0  0  0  0  0  0
   21.8084  -19.2126  -13.3836 O   0  0  0  0  0  0  0  0  0  0  0  0
   27.4968  -23.5903  -18.9400 N   0  0  0  0  0  0  0  0  0  0  0  0
   21.4597  -21.4427  -12.9888 C   0  0  2  0  0  0  0  0  0  0  0  0
   20.1188  -21.1607  -12.5468 C   0  0  0  0  0  0  0  0  0  0  0  0
   19.3862  -20.4524  -13.6881 S   0  0  0  0  0  0  0  0  0  0  0  0
   17.6332  -20.2766  -13.2860 C   0  0  0  0  0  0  0  0  0  0  0  0
   19.4002  -22.4179  -12.1782 O   0  0  0  0  0  0  0  0  0  0  0  0
   19.3099  -23.3673  -12.9970 N   0  0  0  0  0  0  0  0  0  0  0  0
   18.7963  -22.5924  -10.9026 C   0  0  1  0  0  0  0  0  0  0  0  0
   18.3539  -23.9290  -10.4877 C   0  0  0  0  0  0  0  0  0  0  0  0
   18.4138  -23.9416   -8.9916 C   0  0  0  0  0  0  0  0  0  0  0  0
   17.8598  -25.1762   -8.3506 C   0  0  0  0  0  0  0  0  0  0  0  0
   17.8496  -25.1131   -6.8473 C   0  0  0  0  0  0  0  0  0  0  0  0
   17.1717  -26.3584   -6.3177 N   0  0  0  0  0  0  0  0  0  0  0  0
   17.2793  -26.3827   -4.8647 C   0  0  0  0  0  0  0  0  0  0  0  0
   16.9870  -24.1856  -11.0081 O   0  0  0  0  0  0  0  0  0  0  0  0
   16.5679  -25.4398  -11.3780 O   0  0  0  0  0  0  0  0  0  0  0  0
  1  2  1  0
  2  3  2  0
  4  2  1  0
  4  5  1  0
  6  5  1  0
  7  6  1  0
  8 10  1  0
  8  7  1  0
  8  9  1  6
 10 11  2  0
 12 10  1  0
 13 12  1  0
 13 16  1  0
 14 15  1  0
 13 14  1  6
 16 17  2  0
 16 18  1  0
 18 19  1  0
 19 25  1  0
 19 20  1  6
 21 20  1  0
 22 21  1  0
 23 22  1  0
 24 23  1  0
 25 27  2  0
 25 26  1  0
M  END
$$$$
