RCK.pdb
     RDKit          3D

 27 26  0  0  1  0  0  0  0  0999 V2000
   25.2932  -22.6145  -12.0654 N   0  0  0  0  0  0  0  0  0  0  0  0
   25.2242  -22.8311  -13.4724 C   0  0  0  0  0  0  0  0  0  0  0  0
   24.9103  -23.9935  -13.9650 N   0  0  0  0  0  0  0  0  0  0  0  0
   25.4957  -21.7859  -14.3928 N   0  0  0  0  0  0  0  0  0  0  0  0
   25.1732  -20.4256  -14.1207 C   0  0  0  0  0  0  0  0  0  0  0  0
   23.7821  -20.1754  -13.6516 C   0  0  0  0  0  0  0  0  0  0  0  0
   23.4146  -18.7439  -13.5127 C   0  0  0  0  0  0  0  0  0  0  0  0
   22.6218  -18.1637  -14.6483 C   0  0  2  0  0  0  0  0  0  0  0  0
   21.8226  -19.2814  -15.1816 N   0  0  0  0  0  0  0  0  0  0  0  0
   23.4353  -17.6444  -15.7552 C   0  0  0  0  0  0  0  0  0  0  0  0
   23.1151  -17.8583  -16.9692 O   0  0  0  0  0  0  0  0  0  0  0  0
   24.9308  -24.0979  -14.9975 N   0  0  0  0  0  0  0  0  0  0  0  0
   24.6105  -16.8834  -15.5326 C   0  0  2  0  0  0  0  0  0  0  0  0
   25.4374  -16.4940  -16.6450 C   0  0  0  0  0  0  0  0  0  0  0  0
   26.4435  -15.4562  -16.1431 S   0  0  0  0  0  0  0  0  0  0  0  0
   27.2608  -16.0566  -14.6474 C   0  0  0  0  0  0  0  0  0  0  0  0
   26.1577  -17.6721  -17.2161 O   0  0  0  0  0  0  0  0  0  0  0  0
   26.4891  -18.6372  -16.4821 N   0  0  0  0  0  0  0  0  0  0  0  0
   26.4940  -17.7515  -18.5955 C   0  0  1  0  0  0  0  0  0  0  0  0
   27.2657  -18.8990  -19.0876 C   0  0  0  0  0  0  0  0  0  0  0  0
   26.4356  -19.5285  -20.1632 C   0  0  0  0  0  0  0  0  0  0  0  0
   27.1064  -20.6437  -20.9036 C   0  0  0  0  0  0  0  0  0  0  0  0
   26.2421  -21.2519  -21.9746 C   0  0  0  0  0  0  0  0  0  0  0  0
   26.9758  -22.4332  -22.5723 N   0  0  0  0  0  0  0  0  0  0  0  0
   26.1132  -23.0923  -23.5444 C   0  0  0  0  0  0  0  0  0  0  0  0
   28.5874  -18.4362  -19.5815 O   0  0  0  0  0  0  0  0  0  0  0  0
   29.6380  -19.2980  -19.7789 O   0  0  0  0  0  0  0  0  0  0  0  0
  1  2  1  0
  2  3  2  0
  4  2  1  0
  4  5  1  0
  6  5  1  0
  7  6  1  0
  8 10  1  0
  8  7  1  0
  8  9  1  6
 10 11  2  0
 12 10  1  0
 13 12  1  0
 13 16  1  0
 14 15  1  0
 13 14  1  1
 16 17  2  0
 16 18  1  0
 18 19  1  0
 19 25  1  0
 19 20  1  6
 21 20  1  0
 22 21  1  0
 23 22  1  0
 24 23  1  0
 25 27  2  0
 25 26  1  0
M  END
$$$$
