RCK.pdb
     RDKit          3D

 27 26  0  0  1  0  0  0  0  0999 V2000
   21.6177  -21.4713  -12.7255 N   0  0  0  0  0  0  0  0  0  0  0  0
   20.7222  -22.1247  -13.6214 C   0  0  0  0  0  0  0  0  0  0  0  0
   19.7518  -22.8730  -13.1845 N   0  0  0  0  0  0  0  0  0  0  0  0
   20.8539  -21.9847  -15.0272 N   0  0  0  0  0  0  0  0  0  0  0  0
   21.7469  -21.0475  -15.6212 C   0  0  0  0  0  0  0  0  0  0  0  0
   21.1437  -19.7441  -16.0147 C   0  0  0  0  0  0  0  0  0  0  0  0
   22.0574  -18.8214  -16.7337 C   0  0  0  0  0  0  0  0  0  0  0  0
   23.0210  -18.0584  -15.8711 C   0  0  2  0  0  0  0  0  0  0  0  0
   22.7107  -16.6356  -16.0981 N   0  0  0  0  0  0  0  0  0  0  0  0
   24.4346  -18.2555  -16.2170 C   0  0  0  0  0  0  0  0  0  0  0  0
   24.8437  -18.1457  -17.4182 O   0  0  0  0  0  0  0  0  0  0  0  0
   19.1365  -23.3205  -13.8905 N   0  0  0  0  0  0  0  0  0  0  0  0
   25.4106  -18.5757  -15.2400 C   0  0  2  0  0  0  0  0  0  0  0  0
   26.7819  -18.7753  -15.6308 C   0  0  0  0  0  0  0  0  0  0  0  0
   27.6626  -17.9349  -14.7040 S   0  0  0  0  0  0  0  0  0  0  0  0
   27.2796  -16.1805  -14.9060 C   0  0  0  0  0  0  0  0  0  0  0  0
   27.1631  -20.2168  -15.5326 O   0  0  0  0  0  0  0  0  0  0  0  0
   26.6681  -20.9505  -14.6402 N   0  0  0  0  0  0  0  0  0  0  0  0
   28.0891  -20.8127  -16.4324 C   0  0  1  0  0  0  0  0  0  0  0  0
   28.4276  -22.2335  -16.2874 C   0  0  0  0  0  0  0  0  0  0  0  0
   27.1282  -22.9768  -16.3236 C   0  0  0  0  0  0  0  0  0  0  0  0
   27.2572  -24.4685  -16.3320 C   0  0  0  0  0  0  0  0  0  0  0  0
   25.9318  -25.1807  -16.3377 C   0  0  0  0  0  0  0  0  0  0  0  0
   26.1868  -26.6726  -16.3368 N   0  0  0  0  0  0  0  0  0  0  0  0
   24.9119  -27.3777  -16.3627 C   0  0  0  0  0  0  0  0  0  0  0  0
   29.3503  -22.6401  -17.3775 O   0  0  0  0  0  0  0  0  0  0  0  0
   29.4032  -21.9755  -18.5779 O   0  0  0  0  0  0  0  0  0  0  0  0
  1  2  1  0
  2  3  2  0
  4  2  1  0
  4  5  1  0
  6  5  1  0
  7  6  1  0
  8 10  1  0
  8  7  1  0
  8  9  1  6
 10 11  2  0
 12 10  1  0
 13 12  1  0
 13 16  1  0
 14 15  1  0
 13 14  1  6
 16 17  2  0
 16 18  1  0
 18 19  1  0
 19 25  1  0
 19 20  1  1
 21 20  1  0
 22 21  1  0
 23 22  1  0
 24 23  1  0
 25 27  2  0
 25 26  1  0
M  END
$$$$
