RCK.pdb
     RDKit          3D

 27 26  0  0  1  0  0  0  0  0999 V2000
   25.3495  -21.2530   -7.4472 N   0  0  0  0  0  0  0  0  0  0  0  0
   24.1790  -21.1397   -8.2524 C   0  0  0  0  0  0  0  0  0  0  0  0
   22.9887  -21.2208   -7.7338 N   0  0  0  0  0  0  0  0  0  0  0  0
   24.2658  -20.9338   -9.6536 N   0  0  0  0  0  0  0  0  0  0  0  0
   25.3547  -20.2427  -10.2580 C   0  0  0  0  0  0  0  0  0  0  0  0
   26.5761  -21.0577  -10.5060 C   0  0  0  0  0  0  0  0  0  0  0  0
   26.8350  -21.3827  -11.9310 C   0  0  0  0  0  0  0  0  0  0  0  0
   26.2139  -20.4524  -12.9327 C   0  0  2  0  0  0  0  0  0  0  0  0
   24.9528  -21.0975  -13.3396 N   0  0  0  0  0  0  0  0  0  0  0  0
   27.0104  -20.2492  -14.1497 C   0  0  0  0  0  0  0  0  0  0  0  0
   28.1655  -19.7146  -14.1033 O   0  0  0  0  0  0  0  0  0  0  0  0
   22.1786  -21.1071   -8.3727 N   0  0  0  0  0  0  0  0  0  0  0  0
   26.5393  -20.6343  -15.4301 C   0  0  1  0  0  0  0  0  0  0  0  0
   27.3477  -20.3934  -16.5970 C   0  0  0  0  0  0  0  0  0  0  0  0
   27.3628  -21.6754  -17.4320 S   0  0  0  0  0  0  0  0  0  0  0  0
   27.6764  -23.1039  -16.3706 C   0  0  0  0  0  0  0  0  0  0  0  0
   26.7999  -19.2618  -17.4046 O   0  0  0  0  0  0  0  0  0  0  0  0
   25.5617  -19.0512  -17.4541 N   0  0  0  0  0  0  0  0  0  0  0  0
   27.6440  -18.3860  -18.1413 C   0  0  1  0  0  0  0  0  0  0  0  0
   27.0510  -17.2840  -18.9082 C   0  0  0  0  0  0  0  0  0  0  0  0
   28.1980  -16.4711  -19.4238 C   0  0  0  0  0  0  0  0  0  0  0  0
   27.8309  -15.4479  -20.4534 C   0  0  0  0  0  0  0  0  0  0  0  0
   28.3988  -14.0844  -20.1666 C   0  0  0  0  0  0  0  0  0  0  0  0
   27.9818  -13.1455  -21.2782 N   0  0  0  0  0  0  0  0  0  0  0  0
   28.5581  -11.8292  -21.0364 C   0  0  0  0  0  0  0  0  0  0  0  0
   26.2037  -17.8334  -19.9968 O   0  0  0  0  0  0  0  0  0  0  0  0
   25.1219  -17.1518  -20.4975 O   0  0  0  0  0  0  0  0  0  0  0  0
  1  2  1  0
  2  3  2  0
  4  2  1  0
  4  5  1  0
  6  5  1  0
  7  6  1  0
  8 10  1  0
  8  7  1  0
  8  9  1  6
 10 11  2  0
 12 10  1  0
 13 12  1  0
 13 16  1  0
 14 15  1  0
 13 14  1  1
 16 17  2  0
 16 18  1  0
 18 19  1  0
 19 25  1  0
 19 20  1  6
 21 20  1  0
 22 21  1  0
 23 22  1  0
 24 23  1  0
 25 27  2  0
 25 26  1  0
M  END
$$$$
