RCK.pdb
     RDKit          3D

 27 26  0  0  1  0  0  0  0  0999 V2000
   19.1351  -17.3176  -16.3577 N   0  0  0  0  0  0  0  0  0  0  0  0
   18.3041  -17.1512  -17.5035 C   0  0  0  0  0  0  0  0  0  0  0  0
   17.9687  -18.1621  -18.2506 N   0  0  0  0  0  0  0  0  0  0  0  0
   17.8089  -15.8745  -17.8754 N   0  0  0  0  0  0  0  0  0  0  0  0
   18.1009  -14.6957  -17.1315 C   0  0  0  0  0  0  0  0  0  0  0  0
   19.1634  -13.8216  -17.7015 C   0  0  0  0  0  0  0  0  0  0  0  0
   19.4937  -12.6241  -16.8889 C   0  0  0  0  0  0  0  0  0  0  0  0
   20.4629  -11.6623  -17.5137 C   0  0  2  0  0  0  0  0  0  0  0  0
   21.5515  -12.4961  -18.0539 N   0  0  0  0  0  0  0  0  0  0  0  0
   21.0695  -10.7123  -16.5723 C   0  0  0  0  0  0  0  0  0  0  0  0
   20.3539  -10.0133  -15.7839 O   0  0  0  0  0  0  0  0  0  0  0  0
   17.2814  -17.9903  -19.0092 N   0  0  0  0  0  0  0  0  0  0  0  0
   22.4724  -10.5247  -16.4919 C   0  0  1  0  0  0  0  0  0  0  0  0
   23.0174   -9.5497  -15.5834 C   0  0  0  0  0  0  0  0  0  0  0  0
   24.5220   -9.8025  -15.4687 S   0  0  0  0  0  0  0  0  0  0  0  0
   24.8275  -11.3144  -14.5272 C   0  0  0  0  0  0  0  0  0  0  0  0
   22.7667   -8.1607  -16.0739 O   0  0  0  0  0  0  0  0  0  0  0  0
   22.7429   -7.9113  -17.3057 N   0  0  0  0  0  0  0  0  0  0  0  0
   22.5467   -7.0761  -15.1809 C   0  0  1  0  0  0  0  0  0  0  0  0
   22.2290   -5.7480  -15.7192 C   0  0  0  0  0  0  0  0  0  0  0  0
   20.9259   -5.8928  -16.4425 C   0  0  0  0  0  0  0  0  0  0  0  0
   20.3240   -4.6065  -16.9170 C   0  0  0  0  0  0  0  0  0  0  0  0
   19.0089   -4.7901  -17.6247 C   0  0  0  0  0  0  0  0  0  0  0  0
   18.5277   -3.4377  -18.1049 N   0  0  0  0  0  0  0  0  0  0  0  0
   17.5932   -2.8872  -17.1318 C   0  0  0  0  0  0  0  0  0  0  0  0
   22.1617   -4.7634  -14.6097 O   0  0  0  0  0  0  0  0  0  0  0  0
   22.4430   -3.4321  -14.7942 O   0  0  0  0  0  0  0  0  0  0  0  0
  1  2  1  0
  2  3  2  0
  4  2  1  0
  4  5  1  0
  6  5  1  0
  7  6  1  0
  8 10  1  0
  8  7  1  0
  8  9  1  1
 10 11  2  0
 12 10  1  0
 13 12  1  0
 13 16  1  0
 14 15  1  0
 13 14  1  1
 16 17  2  0
 16 18  1  0
 18 19  1  0
 19 25  1  0
 19 20  1  6
 21 20  1  0
 22 21  1  0
 23 22  1  0
 24 23  1  0
 25 27  2  0
 25 26  1  0
M  END
$$$$
