RCK.pdb
     RDKit          3D

 27 26  0  0  1  0  0  0  0  0999 V2000
   26.2796  -14.7854  -16.5703 N   0  0  0  0  0  0  0  0  0  0  0  0
   25.2582  -15.6219  -16.0334 C   0  0  0  0  0  0  0  0  0  0  0  0
   24.0090  -15.4612  -16.3595 N   0  0  0  0  0  0  0  0  0  0  0  0
   25.5638  -16.6645  -15.1208 N   0  0  0  0  0  0  0  0  0  0  0  0
   26.9009  -16.9948  -14.7584 C   0  0  0  0  0  0  0  0  0  0  0  0
   27.6177  -17.9000  -15.6990 C   0  0  0  0  0  0  0  0  0  0  0  0
   27.1795  -19.3177  -15.6621 C   0  0  0  0  0  0  0  0  0  0  0  0
   27.6602  -20.1158  -14.4845 C   0  0  2  0  0  0  0  0  0  0  0  0
   28.5141  -21.1757  -15.0497 N   0  0  0  0  0  0  0  0  0  0  0  0
   26.5937  -20.7775  -13.7220 C   0  0  0  0  0  0  0  0  0  0  0  0
   25.8991  -21.7152  -14.2323 O   0  0  0  0  0  0  0  0  0  0  0  0
   23.3099  -16.0712  -15.8941 N   0  0  0  0  0  0  0  0  0  0  0  0
   26.2835  -20.4103  -12.3883 C   0  0  2  0  0  0  0  0  0  0  0  0
   25.1816  -21.0382  -11.7065 C   0  0  0  0  0  0  0  0  0  0  0  0
   25.3735  -20.8228  -10.2039 S   0  0  0  0  0  0  0  0  0  0  0  0
   26.8839  -21.6437   -9.6469 C   0  0  0  0  0  0  0  0  0  0  0  0
   23.8775  -20.4559  -12.1457 O   0  0  0  0  0  0  0  0  0  0  0  0
   23.7387  -19.2121  -12.2629 N   0  0  0  0  0  0  0  0  0  0  0  0
   22.7527  -21.2724  -12.4464 C   0  0  1  0  0  0  0  0  0  0  0  0
   21.5262  -20.6535  -12.9632 C   0  0  0  0  0  0  0  0  0  0  0  0
   21.1067  -21.4798  -14.1395 C   0  0  0  0  0  0  0  0  0  0  0  0
   19.8072  -21.0730  -14.7621 C   0  0  0  0  0  0  0  0  0  0  0  0
   19.3749  -21.9786  -15.8831 C   0  0  0  0  0  0  0  0  0  0  0  0
   18.1575  -21.3737  -16.5487 N   0  0  0  0  0  0  0  0  0  0  0  0
   17.7894  -22.1830  -17.7032 C   0  0  0  0  0  0  0  0  0  0  0  0
   20.4972  -20.6165  -11.8933 O   0  0  0  0  0  0  0  0  0  0  0  0
   19.5723  -19.6058  -11.8016 O   0  0  0  0  0  0  0  0  0  0  0  0
  1  2  1  0
  2  3  2  0
  4  2  1  0
  4  5  1  0
  6  5  1  0
  7  6  1  0
  8 10  1  0
  8  7  1  0
  8  9  1  6
 10 11  2  0
 12 10  1  0
 13 12  1  0
 13 16  1  0
 14 15  1  0
 13 14  1  1
 16 17  2  0
 16 18  1  0
 18 19  1  0
 19 25  1  0
 19 20  1  1
 21 20  1  0
 22 21  1  0
 23 22  1  0
 24 23  1  0
 25 27  2  0
 25 26  1  0
M  END
$$$$
