RCK.pdb
     RDKit          3D

 27 26  0  0  1  0  0  0  0  0999 V2000
   28.9286  -26.5844  -16.3304 N   0  0  0  0  0  0  0  0  0  0  0  0
   29.2502  -25.5849  -17.2941 C   0  0  0  0  0  0  0  0  0  0  0  0
   30.1796  -25.7754  -18.1843 N   0  0  0  0  0  0  0  0  0  0  0  0
   28.5686  -24.3408  -17.3208 N   0  0  0  0  0  0  0  0  0  0  0  0
   27.2701  -24.1691  -16.7613 C   0  0  0  0  0  0  0  0  0  0  0  0
   26.1318  -24.4953  -17.6645 C   0  0  0  0  0  0  0  0  0  0  0  0
   24.7913  -24.1315  -17.1411 C   0  0  0  0  0  0  0  0  0  0  0  0
   24.5583  -24.4303  -15.6881 C   0  0  2  0  0  0  0  0  0  0  0  0
   24.3045  -25.8805  -15.6205 N   0  0  0  0  0  0  0  0  0  0  0  0
   23.3888  -23.7570  -15.1086 C   0  0  0  0  0  0  0  0  0  0  0  0
   22.2606  -24.3424  -15.0279 O   0  0  0  0  0  0  0  0  0  0  0  0
   30.3452  -25.0176  -18.8741 N   0  0  0  0  0  0  0  0  0  0  0  0
   23.4536  -22.4306  -14.6124 C   0  0  2  0  0  0  0  0  0  0  0  0
   22.2961  -21.8348  -13.9973 C   0  0  0  0  0  0  0  0  0  0  0  0
   22.7805  -20.9161  -12.8738 S   0  0  0  0  0  0  0  0  0  0  0  0
   21.3680  -20.1661  -12.0326 C   0  0  0  0  0  0  0  0  0  0  0  0
   21.5024  -21.0529  -14.9930 O   0  0  0  0  0  0  0  0  0  0  0  0
   22.0536  -20.1744  -15.7032 N   0  0  0  0  0  0  0  0  0  0  0  0
   20.1087  -21.2662  -15.1779 C   0  0  1  0  0  0  0  0  0  0  0  0
   19.3719  -20.4419  -16.1433 C   0  0  0  0  0  0  0  0  0  0  0  0
   18.5618  -21.3923  -16.9696 C   0  0  0  0  0  0  0  0  0  0  0  0
   17.7074  -20.7454  -18.0153 C   0  0  0  0  0  0  0  0  0  0  0  0
   16.8899  -21.7288  -18.8081 C   0  0  0  0  0  0  0  0  0  0  0  0
   16.1216  -20.9712  -19.8695 N   0  0  0  0  0  0  0  0  0  0  0  0
   15.2842  -21.9033  -20.6134 C   0  0  0  0  0  0  0  0  0  0  0  0
   18.5324  -19.4549  -15.4180 O   0  0  0  0  0  0  0  0  0  0  0  0
   17.8218  -18.4780  -16.0709 O   0  0  0  0  0  0  0  0  0  0  0  0
  1  2  1  0
  2  3  2  0
  4  2  1  0
  4  5  1  0
  6  5  1  0
  7  6  1  0
  8 10  1  0
  8  7  1  0
  8  9  1  6
 10 11  2  0
 12 10  1  0
 13 12  1  0
 13 16  1  0
 14 15  1  0
 13 14  1  1
 16 17  2  0
 16 18  1  0
 18 19  1  0
 19 25  1  0
 19 20  1  1
 21 20  1  0
 22 21  1  0
 23 22  1  0
 24 23  1  0
 25 27  2  0
 25 26  1  0
M  END
$$$$
