CPF.pdb
     RDKit          3D

 25 26  0  0  1  0  0  0  0  0999 V2000
   25.3373  -22.5826  -17.4123 N   0  0  0  0  0  0  0  0  0  0  0  0
   25.0356  -21.3865  -16.6405 C   0  0  1  0  0  0  0  0  0  0  0  0
   23.5268  -21.4195  -16.4336 C   0  0  0  0  0  0  0  0  0  0  0  0
   23.1154  -19.9786  -15.4021 S   0  0  0  0  0  0  0  0  0  0  0  0
   25.7887  -21.4567  -15.3647 C   0  0  0  0  0  0  0  0  0  0  0  0
   25.7112  -22.4961  -14.6765 O   0  0  0  0  0  0  0  0  0  0  0  0
   26.6187  -20.3938  -14.8565 N   0  0  0  0  0  0  0  0  0  0  0  0
   26.9766  -19.2477  -15.6833 C   0  0  0  0  0  0  0  0  0  0  0  0
   28.2990  -18.7659  -15.0357 C   0  0  0  0  0  0  0  0  0  0  0  0
   27.8759  -18.8891  -13.5572 C   0  0  0  0  0  0  0  0  0  0  0  0
   27.2274  -20.2519  -13.5857 C   0  0  1  0  0  0  0  0  0  0  0  0
   26.3498  -20.4692  -12.4228 C   0  0  0  0  0  0  0  0  0  0  0  0
   25.1482  -20.1497  -12.4702 O   0  0  0  0  0  0  0  0  0  0  0  0
   26.8811  -21.0429  -11.2527 N   0  0  0  0  0  0  0  0  0  0  0  0
   26.1150  -21.2868  -10.0458 C   0  0  1  0  0  0  0  0  0  0  0  0
   27.0340  -21.8434   -9.0210 C   0  0  0  0  0  0  0  0  0  0  0  0
   27.6937  -20.8700   -8.1452 C   0  0  0  0  0  0  0  0  0  0  0  0
   29.0649  -20.8215   -8.0253 C   0  0  0  0  0  0  0  0  0  0  0  0
   29.7114  -19.9189   -7.2086 C   0  0  0  0  0  0  0  0  0  0  0  0
   28.9595  -19.0123   -6.4685 C   0  0  0  0  0  0  0  0  0  0  0  0
   27.5978  -19.0382   -6.5701 C   0  0  0  0  0  0  0  0  0  0  0  0
   26.9795  -19.9522   -7.3950 C   0  0  0  0  0  0  0  0  0  0  0  0
   25.3367  -20.1133   -9.6197 C   0  0  0  0  0  0  0  0  0  0  0  0
   25.8033  -18.9704   -9.8246 O   0  0  0  0  0  0  0  0  0  0  0  0
   24.1189  -20.2584   -9.0068 O   0  0  0  0  0  0  0  0  0  0  0  0
  2  1  1  6
  2  5  1  0
  3  2  1  0
  4  3  1  0
  5  6  2  0
  7  5  1  0
  7 11  1  0
  8  9  1  0
  8  7  1  0
  9 10  1  0
 10 11  1  0
 11 12  1  1
 12 13  2  0
 14 12  1  0
 14 15  1  0
 15 23  1  0
 15 16  1  1
 17 22  1  0
 17 16  1  0
 18 17  2  0
 19 20  2  0
 19 18  1  0
 20 21  1  0
 21 22  2  0
 23 25  1  0
 24 23  2  0
M  END
$$$$
