CPF.pdb
     RDKit          3D

 25 26  0  0  1  0  0  0  0  0999 V2000
   24.9104  -18.0410  -17.8547 N   0  0  0  0  0  0  0  0  0  0  0  0
   25.9795  -17.7912  -16.8998 C   0  0  1  0  0  0  0  0  0  0  0  0
   25.7006  -16.3985  -16.3493 C   0  0  0  0  0  0  0  0  0  0  0  0
   26.9697  -16.0790  -15.0857 S   0  0  0  0  0  0  0  0  0  0  0  0
   25.9205  -18.8410  -15.8538 C   0  0  0  0  0  0  0  0  0  0  0  0
   24.8659  -18.9797  -15.1989 O   0  0  0  0  0  0  0  0  0  0  0  0
   27.0111  -19.7282  -15.5365 N   0  0  0  0  0  0  0  0  0  0  0  0
   28.1892  -19.8195  -16.3902 C   0  0  0  0  0  0  0  0  0  0  0  0
   28.7200  -21.2415  -16.0796 C   0  0  0  0  0  0  0  0  0  0  0  0
   28.5472  -21.2093  -14.5468 C   0  0  0  0  0  0  0  0  0  0  0  0
   27.1561  -20.6307  -14.4549 C   0  0  1  0  0  0  0  0  0  0  0  0
   26.8741  -20.0835  -13.1166 C   0  0  0  0  0  0  0  0  0  0  0  0
   26.9941  -18.8651  -12.8946 O   0  0  0  0  0  0  0  0  0  0  0  0
   26.4664  -20.9510  -12.0862 N   0  0  0  0  0  0  0  0  0  0  0  0
   26.2086  -20.5302  -10.7226 C   0  0  1  0  0  0  0  0  0  0  0  0
   25.1847  -19.4555  -10.7575 C   0  0  0  0  0  0  0  0  0  0  0  0
   23.8261  -19.8666  -11.1253 C   0  0  0  0  0  0  0  0  0  0  0  0
   23.4310  -19.9539  -12.4417 C   0  0  0  0  0  0  0  0  0  0  0  0
   22.1606  -20.3354  -12.8160 C   0  0  0  0  0  0  0  0  0  0  0  0
   21.2277  -20.6489  -11.8329 C   0  0  0  0  0  0  0  0  0  0  0  0
   21.5942  -20.5717  -10.5196 C   0  0  0  0  0  0  0  0  0  0  0  0
   22.8717  -20.1872  -10.1757 C   0  0  0  0  0  0  0  0  0  0  0  0
   25.9046  -21.6577   -9.8277 C   0  0  0  0  0  0  0  0  0  0  0  0
   25.7485  -22.7972  -10.3209 O   0  0  0  0  0  0  0  0  0  0  0  0
   25.7916  -21.4738   -8.4738 O   0  0  0  0  0  0  0  0  0  0  0  0
  2  1  1  6
  2  5  1  0
  3  2  1  0
  4  3  1  0
  5  6  2  0
  7  5  1  0
  7 11  1  0
  8  9  1  0
  8  7  1  0
  9 10  1  0
 10 11  1  0
 11 12  1  1
 12 13  2  0
 14 12  1  0
 14 15  1  0
 15 23  1  0
 15 16  1  6
 17 22  1  0
 17 16  1  0
 18 17  2  0
 19 20  2  0
 19 18  1  0
 20 21  1  0
 21 22  2  0
 23 25  1  0
 24 23  2  0
M  END
$$$$
