CPF.pdb
     RDKit          3D

 25 26  0  0  1  0  0  0  0  0999 V2000
   19.5390  -15.5403  -15.6143 N   0  0  0  0  0  0  0  0  0  0  0  0
   20.4325  -14.7886  -16.4825 C   0  0  1  0  0  0  0  0  0  0  0  0
   19.6936  -14.6779  -17.8100 C   0  0  0  0  0  0  0  0  0  0  0  0
   20.7416  -13.6682  -18.9016 S   0  0  0  0  0  0  0  0  0  0  0  0
   20.6832  -13.4676  -15.8565 C   0  0  0  0  0  0  0  0  0  0  0  0
   19.7067  -12.7492  -15.5555 O   0  0  0  0  0  0  0  0  0  0  0  0
   21.9950  -12.9474  -15.5641 N   0  0  0  0  0  0  0  0  0  0  0  0
   23.1877  -13.7749  -15.6983 C   0  0  0  0  0  0  0  0  0  0  0  0
   24.1788  -13.0974  -14.7191 C   0  0  0  0  0  0  0  0  0  0  0  0
   23.8850  -11.6293  -15.0917 C   0  0  0  0  0  0  0  0  0  0  0  0
   22.3760  -11.6626  -15.1065 C   0  0  1  0  0  0  0  0  0  0  0  0
   21.8068  -10.5210  -15.8431 C   0  0  0  0  0  0  0  0  0  0  0  0
   21.4129  -10.6591  -17.0153 O   0  0  0  0  0  0  0  0  0  0  0  0
   21.7106   -9.2677  -15.2102 N   0  0  0  0  0  0  0  0  0  0  0  0
   21.0908   -8.1003  -15.8068 C   0  0  1  0  0  0  0  0  0  0  0  0
   19.6876   -8.4464  -16.1471 C   0  0  0  0  0  0  0  0  0  0  0  0
   18.8877   -7.3811  -16.7595 C   0  0  0  0  0  0  0  0  0  0  0  0
   18.9499   -7.1188  -18.1101 C   0  0  0  0  0  0  0  0  0  0  0  0
   18.2111   -6.1229  -18.7119 C   0  0  0  0  0  0  0  0  0  0  0  0
   17.3622   -5.3421  -17.9342 C   0  0  0  0  0  0  0  0  0  0  0  0
   17.2809   -5.5824  -16.5923 C   0  0  0  0  0  0  0  0  0  0  0  0
   18.0317   -6.5850  -16.0187 C   0  0  0  0  0  0  0  0  0  0  0  0
   21.2577   -6.8882  -14.9898 C   0  0  0  0  0  0  0  0  0  0  0  0
   21.2200   -6.9885  -13.7429 O   0  0  0  0  0  0  0  0  0  0  0  0
   21.4514   -5.6636  -15.5749 O   0  0  0  0  0  0  0  0  0  0  0  0
  2  1  1  1
  2  5  1  0
  3  2  1  0
  4  3  1  0
  5  6  2  0
  7  5  1  0
  7 11  1  0
  8  9  1  0
  8  7  1  0
  9 10  1  0
 10 11  1  0
 11 12  1  6
 12 13  2  0
 14 12  1  0
 14 15  1  0
 15 23  1  0
 15 16  1  1
 17 22  1  0
 17 16  1  0
 18 17  2  0
 19 20  2  0
 19 18  1  0
 20 21  1  0
 21 22  2  0
 23 25  1  0
 24 23  2  0
M  END
$$$$
