CPF.pdb
     RDKit          3D

 25 26  0  0  1  0  0  0  0  0999 V2000
   25.1048  -22.2042  -15.6694 N   0  0  0  0  0  0  0  0  0  0  0  0
   26.4223  -22.0967  -15.0613 C   0  0  1  0  0  0  0  0  0  0  0  0
   27.2645  -21.3329  -16.0752 C   0  0  0  0  0  0  0  0  0  0  0  0
   28.9255  -21.1731  -15.3507 S   0  0  0  0  0  0  0  0  0  0  0  0
   26.2808  -21.3721  -13.7750 C   0  0  0  0  0  0  0  0  0  0  0  0
   27.3111  -20.9721  -13.1930 O   0  0  0  0  0  0  0  0  0  0  0  0
   25.0178  -21.0905  -13.1405 N   0  0  0  0  0  0  0  0  0  0  0  0
   23.7528  -21.3934  -13.7986 C   0  0  0  0  0  0  0  0  0  0  0  0
   22.7773  -20.3938  -13.1281 C   0  0  0  0  0  0  0  0  0  0  0  0
   23.2580  -20.5628  -11.6718 C   0  0  0  0  0  0  0  0  0  0  0  0
   24.7512  -20.4975  -11.8824 C   0  0  1  0  0  0  0  0  0  0  0  0
   25.4940  -21.0526  -10.7379 C   0  0  0  0  0  0  0  0  0  0  0  0
   25.6980  -22.2770  -10.6515 O   0  0  0  0  0  0  0  0  0  0  0  0
   25.9738  -20.1858   -9.7384 N   0  0  0  0  0  0  0  0  0  0  0  0
   26.5853  -20.6302   -8.5008 C   0  0  1  0  0  0  0  0  0  0  0  0
   27.8281  -19.8449   -8.2927 C   0  0  0  0  0  0  0  0  0  0  0  0
   28.3052  -19.7413   -6.9101 C   0  0  0  0  0  0  0  0  0  0  0  0
   27.9503  -18.6836   -6.1026 C   0  0  0  0  0  0  0  0  0  0  0  0
   28.3854  -18.5596   -4.8007 C   0  0  0  0  0  0  0  0  0  0  0  0
   29.2183  -19.5373   -4.2665 C   0  0  0  0  0  0  0  0  0  0  0  0
   29.5842  -20.5975   -5.0457 C   0  0  0  0  0  0  0  0  0  0  0  0
   29.1336  -20.6945   -6.3440 C   0  0  0  0  0  0  0  0  0  0  0  0
   25.6449  -20.6281   -7.3695 C   0  0  0  0  0  0  0  0  0  0  0  0
   24.6309  -19.8968   -7.4262 O   0  0  0  0  0  0  0  0  0  0  0  0
   25.8665  -21.4107   -6.2658 O   0  0  0  0  0  0  0  0  0  0  0  0
  2  1  1  6
  2  5  1  0
  3  2  1  0
  4  3  1  0
  5  6  2  0
  7  5  1  0
  7 11  1  0
  8  9  1  0
  8  7  1  0
  9 10  1  0
 10 11  1  0
 11 12  1  1
 12 13  2  0
 14 12  1  0
 14 15  1  0
 15 23  1  0
 15 16  1  1
 17 22  1  0
 17 16  1  0
 18 17  2  0
 19 20  2  0
 19 18  1  0
 20 21  1  0
 21 22  2  0
 23 25  1  0
 24 23  2  0
M  END
$$$$
