CPF.pdb
     RDKit          3D

 25 26  0  0  1  0  0  0  0  0999 V2000
   25.6732  -18.8068  -16.7621 N   0  0  0  0  0  0  0  0  0  0  0  0
   26.6034  -18.5337  -15.6771 C   0  0  1  0  0  0  0  0  0  0  0  0
   25.9369  -17.4415  -14.8503 C   0  0  0  0  0  0  0  0  0  0  0  0
   24.7962  -18.2815  -13.7090 S   0  0  0  0  0  0  0  0  0  0  0  0
   26.8028  -19.7882  -14.9114 C   0  0  0  0  0  0  0  0  0  0  0  0
   25.9550  -20.6993  -15.0176 O   0  0  0  0  0  0  0  0  0  0  0  0
   27.9251  -20.0346  -14.0416 N   0  0  0  0  0  0  0  0  0  0  0  0
   28.9798  -19.0441  -13.8629 C   0  0  0  0  0  0  0  0  0  0  0  0
   30.1907  -19.9144  -13.4429 C   0  0  0  0  0  0  0  0  0  0  0  0
   29.4588  -20.8436  -12.4522 C   0  0  0  0  0  0  0  0  0  0  0  0
   28.2345  -21.1801  -13.2685 C   0  0  1  0  0  0  0  0  0  0  0  0
   27.1425  -21.7075  -12.4323 C   0  0  0  0  0  0  0  0  0  0  0  0
   26.5895  -22.7840  -12.7213 O   0  0  0  0  0  0  0  0  0  0  0  0
   26.7266  -20.9831  -11.2996 N   0  0  0  0  0  0  0  0  0  0  0  0
   25.5843  -21.3392  -10.4803 C   0  0  1  0  0  0  0  0  0  0  0  0
   26.0897  -21.8357   -9.1755 C   0  0  0  0  0  0  0  0  0  0  0  0
   26.8481  -20.8762   -8.3668 C   0  0  0  0  0  0  0  0  0  0  0  0
   26.2857  -19.6965   -7.9322 C   0  0  0  0  0  0  0  0  0  0  0  0
   26.9754  -18.7759   -7.1729 C   0  0  0  0  0  0  0  0  0  0  0  0
   28.2963  -19.0366   -6.8230 C   0  0  0  0  0  0  0  0  0  0  0  0
   28.8776  -20.1999   -7.2401 C   0  0  0  0  0  0  0  0  0  0  0  0
   28.1630  -21.1014   -7.9983 C   0  0  0  0  0  0  0  0  0  0  0  0
   24.5861  -20.2617  -10.3977 C   0  0  0  0  0  0  0  0  0  0  0  0
   23.4791  -20.5013   -9.8655 O   0  0  0  0  0  0  0  0  0  0  0  0
   24.8539  -19.0117  -10.8931 O   0  0  0  0  0  0  0  0  0  0  0  0
  2  1  1  6
  2  5  1  0
  3  2  1  0
  4  3  1  0
  5  6  2  0
  7  5  1  0
  7 11  1  0
  8  9  1  0
  8  7  1  0
  9 10  1  0
 10 11  1  0
 11 12  1  1
 12 13  2  0
 14 12  1  0
 14 15  1  0
 15 23  1  0
 15 16  1  1
 17 22  1  0
 17 16  1  0
 18 17  2  0
 19 20  2  0
 19 18  1  0
 20 21  1  0
 21 22  2  0
 23 25  1  0
 24 23  2  0
M  END
$$$$
