CPF.pdb
     RDKit          3D

 25 26  0  0  1  0  0  0  0  0999 V2000
   12.6518  -19.2819    2.1915 N   0  0  0  0  0  0  0  0  0  0  0  0
   14.0667  -19.0246    2.4127 C   0  0  1  0  0  0  0  0  0  0  0  0
   14.1649  -17.5210    2.6367 C   0  0  0  0  0  0  0  0  0  0  0  0
   15.9326  -17.1440    2.8427 S   0  0  0  0  0  0  0  0  0  0  0  0
   14.5004  -19.8076    3.5952 C   0  0  0  0  0  0  0  0  0  0  0  0
   13.8544  -19.6991    4.6588 O   0  0  0  0  0  0  0  0  0  0  0  0
   15.6312  -20.7010    3.6029 N   0  0  0  0  0  0  0  0  0  0  0  0
   16.2383  -21.1688    2.3627 C   0  0  0  0  0  0  0  0  0  0  0  0
   16.8945  -22.5047    2.7927 C   0  0  0  0  0  0  0  0  0  0  0  0
   17.4980  -22.0309    4.1313 C   0  0  0  0  0  0  0  0  0  0  0  0
   16.3163  -21.2818    4.6977 C   0  0  1  0  0  0  0  0  0  0  0  0
   16.7140  -20.3570    5.7731 C   0  0  0  0  0  0  0  0  0  0  0  0
   16.8331  -19.1393    5.5467 O   0  0  0  0  0  0  0  0  0  0  0  0
   16.9594  -20.8613    7.0638 N   0  0  0  0  0  0  0  0  0  0  0  0
   17.2805  -20.0363    8.2123 C   0  0  1  0  0  0  0  0  0  0  0  0
   16.1564  -19.0908    8.4295 C   0  0  0  0  0  0  0  0  0  0  0  0
   16.2787  -18.1924    9.5818 C   0  0  0  0  0  0  0  0  0  0  0  0
   16.8627  -16.9503    9.4686 C   0  0  0  0  0  0  0  0  0  0  0  0
   16.9927  -16.0866   10.5347 C   0  0  0  0  0  0  0  0  0  0  0  0
   16.5179  -16.4726   11.7839 C   0  0  0  0  0  0  0  0  0  0  0  0
   15.9332  -17.6989   11.9233 C   0  0  0  0  0  0  0  0  0  0  0  0
   15.8173  -18.5411   10.8391 C   0  0  0  0  0  0  0  0  0  0  0  0
   17.6710  -20.8277    9.3894 C   0  0  0  0  0  0  0  0  0  0  0  0
   17.3310  -22.0306    9.4502 O   0  0  0  0  0  0  0  0  0  0  0  0
   18.3953  -20.2663   10.4091 O   0  0  0  0  0  0  0  0  0  0  0  0
  2  1  1  1
  2  5  1  0
  3  2  1  0
  4  3  1  0
  5  6  2  0
  7  5  1  0
  7 11  1  0
  8  9  1  0
  8  7  1  0
  9 10  1  0
 10 11  1  0
 11 12  1  1
 12 13  2  0
 14 12  1  0
 14 15  1  0
 15 23  1  0
 15 16  1  1
 17 22  1  0
 17 16  1  0
 18 17  2  0
 19 20  2  0
 19 18  1  0
 20 21  1  0
 21 22  2  0
 23 25  1  0
 24 23  2  0
M  END
$$$$
