CPF.pdb
     RDKit          3D

 25 26  0  0  1  0  0  0  0  0999 V2000
   29.7890  -21.9636  -17.9031 N   0  0  0  0  0  0  0  0  0  0  0  0
   28.6619  -21.0629  -18.0914 C   0  0  1  0  0  0  0  0  0  0  0  0
   27.7641  -21.7597  -19.1058 C   0  0  0  0  0  0  0  0  0  0  0  0
   26.3184  -20.6811  -19.3425 S   0  0  0  0  0  0  0  0  0  0  0  0
   27.9986  -20.8707  -16.7789 C   0  0  0  0  0  0  0  0  0  0  0  0
   27.8191  -21.8646  -16.0440 O   0  0  0  0  0  0  0  0  0  0  0  0
   27.5417  -19.5970  -16.2829 N   0  0  0  0  0  0  0  0  0  0  0  0
   27.8571  -18.3541  -16.9764 C   0  0  0  0  0  0  0  0  0  0  0  0
   27.7732  -17.3045  -15.8399 C   0  0  0  0  0  0  0  0  0  0  0  0
   26.4862  -17.8187  -15.1621 C   0  0  0  0  0  0  0  0  0  0  0  0
   26.7869  -19.2974  -15.1227 C   0  0  1  0  0  0  0  0  0  0  0  0
   25.5699  -20.1021  -14.9200 C   0  0  0  0  0  0  0  0  0  0  0  0
   24.9049  -20.4976  -15.8944 O   0  0  0  0  0  0  0  0  0  0  0  0
   25.1622  -20.4224  -13.6116 N   0  0  0  0  0  0  0  0  0  0  0  0
   24.0770  -21.3314  -13.2971 C   0  0  1  0  0  0  0  0  0  0  0  0
   24.5588  -22.2852  -12.2662 C   0  0  0  0  0  0  0  0  0  0  0  0
   25.0273  -21.6969  -11.0075 C   0  0  0  0  0  0  0  0  0  0  0  0
   26.3696  -21.5812  -10.7217 C   0  0  0  0  0  0  0  0  0  0  0  0
   26.8381  -21.0345   -9.5464 C   0  0  0  0  0  0  0  0  0  0  0  0
   25.9277  -20.5756   -8.6000 C   0  0  0  0  0  0  0  0  0  0  0  0
   24.5907  -20.6774   -8.8592 C   0  0  0  0  0  0  0  0  0  0  0  0
   24.1521  -21.2287  -10.0431 C   0  0  0  0  0  0  0  0  0  0  0  0
   22.8260  -20.6308  -12.9679 C   0  0  0  0  0  0  0  0  0  0  0  0
   22.8707  -19.4127  -12.6843 O   0  0  0  0  0  0  0  0  0  0  0  0
   21.6251  -21.2923  -12.9686 O   0  0  0  0  0  0  0  0  0  0  0  0
  2  1  1  1
  2  5  1  0
  3  2  1  0
  4  3  1  0
  5  6  2  0
  7  5  1  0
  7 11  1  0
  8  9  1  0
  8  7  1  0
  9 10  1  0
 10 11  1  0
 11 12  1  6
 12 13  2  0
 14 12  1  0
 14 15  1  0
 15 23  1  0
 15 16  1  1
 17 22  1  0
 17 16  1  0
 18 17  2  0
 19 20  2  0
 19 18  1  0
 20 21  1  0
 21 22  2  0
 23 25  1  0
 24 23  2  0
M  END
$$$$
