CPF.pdb
     RDKit          3D

 25 26  0  0  1  0  0  0  0  0999 V2000
   13.9009  -18.2895    2.0307 N   0  0  0  0  0  0  0  0  0  0  0  0
   14.2796  -17.2640    2.9909 C   0  0  1  0  0  0  0  0  0  0  0  0
   13.2339  -17.3507    4.0952 C   0  0  0  0  0  0  0  0  0  0  0  0
   13.6104  -16.0128    5.2690 S   0  0  0  0  0  0  0  0  0  0  0  0
   15.6484  -17.5662    3.4754 C   0  0  0  0  0  0  0  0  0  0  0  0
   15.9460  -18.7506    3.7380 O   0  0  0  0  0  0  0  0  0  0  0  0
   16.6762  -16.5740    3.6653 N   0  0  0  0  0  0  0  0  0  0  0  0
   16.5042  -15.2033    3.1997 C   0  0  0  0  0  0  0  0  0  0  0  0
   17.9662  -14.7271    3.0091 C   0  0  0  0  0  0  0  0  0  0  0  0
   18.5591  -15.3180    4.3051 C   0  0  0  0  0  0  0  0  0  0  0  0
   17.9552  -16.7006    4.2598 C   0  0  1  0  0  0  0  0  0  0  0  0
   17.9917  -17.3613    5.5758 C   0  0  0  0  0  0  0  0  0  0  0  0
   16.9401  -17.5670    6.2084 O   0  0  0  0  0  0  0  0  0  0  0  0
   19.2286  -17.7604    6.1157 N   0  0  0  0  0  0  0  0  0  0  0  0
   19.3792  -18.4483    7.3834 C   0  0  1  0  0  0  0  0  0  0  0  0
   18.4696  -19.6218    7.3821 C   0  0  0  0  0  0  0  0  0  0  0  0
   18.8565  -20.7406    6.5169 C   0  0  0  0  0  0  0  0  0  0  0  0
   18.2564  -20.9476    5.2947 C   0  0  0  0  0  0  0  0  0  0  0  0
   18.5987  -21.9914    4.4623 C   0  0  0  0  0  0  0  0  0  0  0  0
   19.5910  -22.8811    4.8607 C   0  0  0  0  0  0  0  0  0  0  0  0
   20.2031  -22.6977    6.0677 C   0  0  0  0  0  0  0  0  0  0  0  0
   19.8397  -21.6449    6.8786 C   0  0  0  0  0  0  0  0  0  0  0  0
   20.7838  -18.7434    7.7065 C   0  0  0  0  0  0  0  0  0  0  0  0
   21.6488  -18.6272    6.8097 O   0  0  0  0  0  0  0  0  0  0  0  0
   21.1499  -19.1405    8.9667 O   0  0  0  0  0  0  0  0  0  0  0  0
  2  1  1  6
  2  5  1  0
  3  2  1  0
  4  3  1  0
  5  6  2  0
  7  5  1  0
  7 11  1  0
  8  9  1  0
  8  7  1  0
  9 10  1  0
 10 11  1  0
 11 12  1  1
 12 13  2  0
 14 12  1  0
 14 15  1  0
 15 23  1  0
 15 16  1  6
 17 22  1  0
 17 16  1  0
 18 17  2  0
 19 20  2  0
 19 18  1  0
 20 21  1  0
 21 22  2  0
 23 25  1  0
 24 23  2  0
M  END
$$$$
