CPF.pdb
     RDKit          3D

 25 26  0  0  1  0  0  0  0  0999 V2000
   25.0714  -18.9301  -17.7450 N   0  0  0  0  0  0  0  0  0  0  0  0
   26.0479  -18.4505  -16.7787 C   0  0  1  0  0  0  0  0  0  0  0  0
   25.5780  -17.0510  -16.4031 C   0  0  0  0  0  0  0  0  0  0  0  0
   26.7788  -16.4098  -15.1963 S   0  0  0  0  0  0  0  0  0  0  0  0
   26.0516  -19.3808  -15.6236 C   0  0  0  0  0  0  0  0  0  0  0  0
   24.9635  -19.6795  -15.0879 O   0  0  0  0  0  0  0  0  0  0  0  0
   27.2411  -19.9758  -15.0687 N   0  0  0  0  0  0  0  0  0  0  0  0
   28.5125  -19.9387  -15.7810 C   0  0  0  0  0  0  0  0  0  0  0  0
   29.2580  -21.1675  -15.2026 C   0  0  0  0  0  0  0  0  0  0  0  0
   28.8924  -20.9656  -13.7173 C   0  0  0  0  0  0  0  0  0  0  0  0
   27.4170  -20.6761  -13.8504 C   0  0  1  0  0  0  0  0  0  0  0  0
   26.8727  -20.0232  -12.6474 C   0  0  0  0  0  0  0  0  0  0  0  0
   26.8795  -18.7832  -12.5442 O   0  0  0  0  0  0  0  0  0  0  0  0
   26.3426  -20.8139  -11.6109 N   0  0  0  0  0  0  0  0  0  0  0  0
   25.7922  -20.2799  -10.3802 C   0  0  1  0  0  0  0  0  0  0  0  0
   24.6600  -19.3857  -10.7313 C   0  0  0  0  0  0  0  0  0  0  0  0
   23.4668  -20.0365  -11.2814 C   0  0  0  0  0  0  0  0  0  0  0  0
   23.4904  -20.6699  -12.5041 C   0  0  0  0  0  0  0  0  0  0  0  0
   22.3839  -21.2877  -13.0462 C   0  0  0  0  0  0  0  0  0  0  0  0
   21.1862  -21.2793  -12.3389 C   0  0  0  0  0  0  0  0  0  0  0  0
   21.1361  -20.6592  -11.1232 C   0  0  0  0  0  0  0  0  0  0  0  0
   22.2586  -20.0498  -10.6067 C   0  0  0  0  0  0  0  0  0  0  0  0
   25.4822  -21.3272   -9.3946 C   0  0  0  0  0  0  0  0  0  0  0  0
   25.5985  -22.5274   -9.7296 O   0  0  0  0  0  0  0  0  0  0  0  0
   25.0714  -21.0046   -8.1270 O   0  0  0  0  0  0  0  0  0  0  0  0
  2  1  1  6
  2  5  1  0
  3  2  1  0
  4  3  1  0
  5  6  2  0
  7  5  1  0
  7 11  1  0
  8  9  1  0
  8  7  1  0
  9 10  1  0
 10 11  1  0
 11 12  1  1
 12 13  2  0
 14 12  1  0
 14 15  1  0
 15 23  1  0
 15 16  1  6
 17 22  1  0
 17 16  1  0
 18 17  2  0
 19 20  2  0
 19 18  1  0
 20 21  1  0
 21 22  2  0
 23 25  1  0
 24 23  2  0
M  END
$$$$
