CPF.pdb
     RDKit          3D

 25 26  0  0  1  0  0  0  0  0999 V2000
   25.7154  -22.2580  -17.8338 N   0  0  0  0  0  0  0  0  0  0  0  0
   25.4119  -21.1053  -16.9992 C   0  0  1  0  0  0  0  0  0  0  0  0
   23.8917  -21.0729  -16.9075 C   0  0  0  0  0  0  0  0  0  0  0  0
   23.4690  -19.6643  -15.8367 S   0  0  0  0  0  0  0  0  0  0  0  0
   26.0595  -21.3055  -15.6800 C   0  0  0  0  0  0  0  0  0  0  0  0
   25.8530  -22.3722  -15.0639 O   0  0  0  0  0  0  0  0  0  0  0  0
   26.9260  -20.3414  -15.0502 N   0  0  0  0  0  0  0  0  0  0  0  0
   27.4119  -19.1713  -15.7714 C   0  0  0  0  0  0  0  0  0  0  0  0
   28.7205  -18.8301  -15.0156 C   0  0  0  0  0  0  0  0  0  0  0  0
   28.1980  -19.0212  -13.5765 C   0  0  0  0  0  0  0  0  0  0  0  0
   27.4619  -20.3289  -13.7395 C   0  0  1  0  0  0  0  0  0  0  0  0
   26.5003  -20.5598  -12.6478 C   0  0  0  0  0  0  0  0  0  0  0  0
   25.2958  -20.2867  -12.7991 O   0  0  0  0  0  0  0  0  0  0  0  0
   26.9542  -21.0936  -11.4272 N   0  0  0  0  0  0  0  0  0  0  0  0
   26.1072  -21.3164  -10.2714 C   0  0  1  0  0  0  0  0  0  0  0  0
   26.9499  -21.8723   -9.1826 C   0  0  0  0  0  0  0  0  0  0  0  0
   27.5953  -20.8956   -8.2999 C   0  0  0  0  0  0  0  0  0  0  0  0
   28.9398  -20.9647   -8.0092 C   0  0  0  0  0  0  0  0  0  0  0  0
   29.5719  -20.0619   -7.1816 C   0  0  0  0  0  0  0  0  0  0  0  0
   28.8331  -19.0317   -6.6092 C   0  0  0  0  0  0  0  0  0  0  0  0
   27.4981  -18.9395   -6.8822 C   0  0  0  0  0  0  0  0  0  0  0  0
   26.8935  -19.8569   -7.7134 C   0  0  0  0  0  0  0  0  0  0  0  0
   25.3163  -20.1299   -9.9093 C   0  0  0  0  0  0  0  0  0  0  0  0
   24.2034  -20.2889   -9.3595 O   0  0  0  0  0  0  0  0  0  0  0  0
   25.7814  -18.8660  -10.1659 O   0  0  0  0  0  0  0  0  0  0  0  0
  2  1  1  6
  2  5  1  0
  3  2  1  0
  4  3  1  0
  5  6  2  0
  7  5  1  0
  7 11  1  0
  8  9  1  0
  8  7  1  0
  9 10  1  0
 10 11  1  0
 11 12  1  1
 12 13  2  0
 14 12  1  0
 14 15  1  0
 15 23  1  0
 15 16  1  1
 17 22  1  0
 17 16  1  0
 18 17  2  0
 19 20  2  0
 19 18  1  0
 20 21  1  0
 21 22  2  0
 23 25  1  0
 24 23  2  0
M  END
$$$$
