CPF.pdb
     RDKit          3D

 25 26  0  0  1  0  0  0  0  0999 V2000
   19.8191  -25.3940  -17.3572 N   0  0  0  0  0  0  0  0  0  0  0  0
   18.9412  -24.3475  -16.8558 C   0  0  1  0  0  0  0  0  0  0  0  0
   17.6061  -24.5852  -17.5496 C   0  0  0  0  0  0  0  0  0  0  0  0
   16.7871  -25.9344  -16.6450 S   0  0  0  0  0  0  0  0  0  0  0  0
   18.8514  -24.4855  -15.3818 C   0  0  0  0  0  0  0  0  0  0  0  0
   18.9512  -25.6235  -14.8767 O   0  0  0  0  0  0  0  0  0  0  0  0
   18.6564  -23.3809  -14.4769 N   0  0  0  0  0  0  0  0  0  0  0  0
   18.5930  -22.0063  -14.9585 C   0  0  0  0  0  0  0  0  0  0  0  0
   19.0295  -21.1937  -13.7138 C   0  0  0  0  0  0  0  0  0  0  0  0
   18.2136  -21.9623  -12.6537 C   0  0  0  0  0  0  0  0  0  0  0  0
   18.5224  -23.3808  -13.0671 C   0  0  1  0  0  0  0  0  0  0  0  0
   17.5525  -24.3403  -12.5119 C   0  0  0  0  0  0  0  0  0  0  0  0
   16.5860  -24.7270  -13.1935 O   0  0  0  0  0  0  0  0  0  0  0  0
   17.7265  -24.8192  -11.2000 N   0  0  0  0  0  0  0  0  0  0  0  0
   16.8164  -25.7359  -10.5411 C   0  0  1  0  0  0  0  0  0  0  0  0
   17.6073  -26.5837   -9.6135 C   0  0  0  0  0  0  0  0  0  0  0  0
   18.0117  -25.9590   -8.3501 C   0  0  0  0  0  0  0  0  0  0  0  0
   17.2379  -26.0612   -7.2154 C   0  0  0  0  0  0  0  0  0  0  0  0
   17.5924  -25.4828   -6.0156 C   0  0  0  0  0  0  0  0  0  0  0  0
   18.7797  -24.7628   -5.9328 C   0  0  0  0  0  0  0  0  0  0  0  0
   19.5663  -24.6473   -7.0432 C   0  0  0  0  0  0  0  0  0  0  0  0
   19.1858  -25.2365   -8.2291 C   0  0  0  0  0  0  0  0  0  0  0  0
   15.6611  -25.0540   -9.9372 C   0  0  0  0  0  0  0  0  0  0  0  0
   14.6052  -25.6999   -9.7527 O   0  0  0  0  0  0  0  0  0  0  0  0
   15.7293  -23.7323   -9.5791 O   0  0  0  0  0  0  0  0  0  0  0  0
  2  1  1  6
  2  5  1  0
  3  2  1  0
  4  3  1  0
  5  6  2  0
  7  5  1  0
  7 11  1  0
  8  9  1  0
  8  7  1  0
  9 10  1  0
 10 11  1  0
 11 12  1  6
 12 13  2  0
 14 12  1  0
 14 15  1  0
 15 23  1  0
 15 16  1  1
 17 22  1  0
 17 16  1  0
 18 17  2  0
 19 20  2  0
 19 18  1  0
 20 21  1  0
 21 22  2  0
 23 25  1  0
 24 23  2  0
M  END
$$$$
