CPF.pdb
     RDKit          3D

 25 26  0  0  1  0  0  0  0  0999 V2000
   27.8304  -20.9181  -15.9950 N   0  0  0  0  0  0  0  0  0  0  0  0
   26.8670  -21.7268  -15.2634 C   0  0  1  0  0  0  0  0  0  0  0  0
   27.5766  -23.0498  -15.0051 C   0  0  0  0  0  0  0  0  0  0  0  0
   26.7254  -24.2985  -16.0180 S   0  0  0  0  0  0  0  0  0  0  0  0
   26.5183  -21.0119  -14.0117 C   0  0  0  0  0  0  0  0  0  0  0  0
   27.4206  -20.4130  -13.3892 O   0  0  0  0  0  0  0  0  0  0  0  0
   25.1899  -20.9566  -13.4555 N   0  0  0  0  0  0  0  0  0  0  0  0
   24.0266  -21.3847  -14.2228 C   0  0  0  0  0  0  0  0  0  0  0  0
   22.8761  -20.5829  -13.5644 C   0  0  0  0  0  0  0  0  0  0  0  0
   23.2820  -20.7886  -12.0902 C   0  0  0  0  0  0  0  0  0  0  0  0
   24.7605  -20.5001  -12.1856 C   0  0  1  0  0  0  0  0  0  0  0  0
   25.5010  -21.0277  -11.0268 C   0  0  0  0  0  0  0  0  0  0  0  0
   25.7497  -22.2436  -10.9368 O   0  0  0  0  0  0  0  0  0  0  0  0
   25.9274  -20.1444  -10.0175 N   0  0  0  0  0  0  0  0  0  0  0  0
   26.4606  -20.5681   -8.7373 C   0  0  1  0  0  0  0  0  0  0  0  0
   27.5171  -19.6050   -8.3363 C   0  0  0  0  0  0  0  0  0  0  0  0
   28.0287  -19.7367   -6.9685 C   0  0  0  0  0  0  0  0  0  0  0  0
   28.9658  -20.6904   -6.6382 C   0  0  0  0  0  0  0  0  0  0  0  0
   29.4625  -20.8380   -5.3610 C   0  0  0  0  0  0  0  0  0  0  0  0
   29.0072  -19.9943   -4.3531 C   0  0  0  0  0  0  0  0  0  0  0  0
   28.0789  -19.0390   -4.6542 C   0  0  0  0  0  0  0  0  0  0  0  0
   27.6006  -18.9153   -5.9403 C   0  0  0  0  0  0  0  0  0  0  0  0
   25.4107  -20.8017   -7.7335 C   0  0  0  0  0  0  0  0  0  0  0  0
   25.5981  -21.6701   -6.8521 O   0  0  0  0  0  0  0  0  0  0  0  0
   24.2419  -20.0853   -7.7546 O   0  0  0  0  0  0  0  0  0  0  0  0
  2  1  1  6
  2  5  1  0
  3  2  1  0
  4  3  1  0
  5  6  2  0
  7  5  1  0
  7 11  1  0
  8  9  1  0
  8  7  1  0
  9 10  1  0
 10 11  1  0
 11 12  1  1
 12 13  2  0
 14 12  1  0
 14 15  1  0
 15 23  1  0
 15 16  1  1
 17 22  1  0
 17 16  1  0
 18 17  2  0
 19 20  2  0
 19 18  1  0
 20 21  1  0
 21 22  2  0
 23 25  1  0
 24 23  2  0
M  END
$$$$
