CPF.pdb
     RDKit          3D

 25 26  0  0  1  0  0  0  0  0999 V2000
   16.4714  -20.0334    1.8738 N   0  0  0  0  0  0  0  0  0  0  0  0
   15.7891  -18.8965    2.4732 C   0  0  1  0  0  0  0  0  0  0  0  0
   14.5532  -19.4846    3.1419 C   0  0  0  0  0  0  0  0  0  0  0  0
   13.2622  -19.5633    1.8626 S   0  0  0  0  0  0  0  0  0  0  0  0
   16.7141  -18.2597    3.4420 C   0  0  0  0  0  0  0  0  0  0  0  0
   17.4265  -18.9896    4.1630 O   0  0  0  0  0  0  0  0  0  0  0  0
   16.8526  -16.8351    3.6109 N   0  0  0  0  0  0  0  0  0  0  0  0
   16.2402  -15.8964    2.6786 C   0  0  0  0  0  0  0  0  0  0  0  0
   17.1342  -14.6403    2.8305 C   0  0  0  0  0  0  0  0  0  0  0  0
   17.2594  -14.6457    4.3682 C   0  0  0  0  0  0  0  0  0  0  0  0
   17.5591  -16.1070    4.5988 C   0  0  1  0  0  0  0  0  0  0  0  0
   17.3111  -16.5069    5.9947 C   0  0  0  0  0  0  0  0  0  0  0  0
   16.2683  -17.1119    6.3023 O   0  0  0  0  0  0  0  0  0  0  0  0
   18.2651  -16.1992    6.9825 N   0  0  0  0  0  0  0  0  0  0  0  0
   18.1068  -16.5073    8.3907 C   0  0  1  0  0  0  0  0  0  0  0  0
   18.9747  -17.6692    8.7088 C   0  0  0  0  0  0  0  0  0  0  0  0
   20.4188  -17.4157    8.7191 C   0  0  0  0  0  0  0  0  0  0  0  0
   21.2315  -17.8345    7.6891 C   0  0  0  0  0  0  0  0  0  0  0  0
   22.5916  -17.6118    7.6735 C   0  0  0  0  0  0  0  0  0  0  0  0
   23.1818  -16.9361    8.7365 C   0  0  0  0  0  0  0  0  0  0  0  0
   22.3983  -16.5088    9.7702 C   0  0  0  0  0  0  0  0  0  0  0  0
   21.0412  -16.7461    9.7581 C   0  0  0  0  0  0  0  0  0  0  0  0
   18.2919  -15.3307    9.2542 C   0  0  0  0  0  0  0  0  0  0  0  0
   18.8115  -14.3002    8.7703 O   0  0  0  0  0  0  0  0  0  0  0  0
   17.9054  -15.3524   10.5695 O   0  0  0  0  0  0  0  0  0  0  0  0
  2  1  1  1
  2  5  1  0
  3  2  1  0
  4  3  1  0
  5  6  2  0
  7  5  1  0
  7 11  1  0
  8  9  1  0
  8  7  1  0
  9 10  1  0
 10 11  1  0
 11 12  1  1
 12 13  2  0
 14 12  1  0
 14 15  1  0
 15 23  1  0
 15 16  1  1
 17 22  1  0
 17 16  1  0
 18 17  2  0
 19 20  2  0
 19 18  1  0
 20 21  1  0
 21 22  2  0
 23 25  1  0
 24 23  2  0
M  END
$$$$
