FQQ.pdb
     RDKit          3D

 30 30  0  0  1  0  0  0  0  0999 V2000
    6.4151  -16.4399   25.2765 N   0  0  0  0  0  0  0  0  0  0  0  0
    7.3956  -15.5893   24.6391 C   0  0  1  0  0  0  0  0  0  0  0  0
    8.1420  -14.8983   25.7892 C   0  0  0  0  0  0  0  0  0  0  0  0
    7.4426  -13.6516   26.1960 C   0  0  0  0  0  0  0  0  0  0  0  0
    7.7407  -12.9374   27.3387 C   0  0  0  0  0  0  0  0  0  0  0  0
    7.0640  -11.7777   27.6848 C   0  0  0  0  0  0  0  0  0  0  0  0
    6.0556  -11.3281   26.8483 C   0  0  0  0  0  0  0  0  0  0  0  0
    5.7436  -12.0230   25.7081 C   0  0  0  0  0  0  0  0  0  0  0  0
    6.4205  -13.1597   25.3869 C   0  0  0  0  0  0  0  0  0  0  0  0
    8.4013  -16.4473   23.9660 C   0  0  0  0  0  0  0  0  0  0  0  0
    8.5660  -17.6164   24.4424 O   0  0  0  0  0  0  0  0  0  0  0  0
   10.0439  -18.9163   19.6963 N   0  0  0  0  0  0  0  0  0  0  0  0
    9.2586  -17.7432   19.3881 C   0  0  0  0  0  0  0  0  0  0  0  0
    8.3156  -17.9223   18.6024 O   0  0  0  0  0  0  0  0  0  0  0  0
    9.5681  -16.4466   19.9646 C   0  0  0  0  0  0  0  0  0  0  0  0
   10.6153  -16.3061   20.9819 C   0  0  0  0  0  0  0  0  0  0  0  0
   10.2386  -16.7990   22.3594 C   0  0  2  0  0  0  0  0  0  0  0  0
    9.1552  -16.0146   22.8477 N   0  0  0  0  0  0  0  0  0  0  0  0
   11.3860  -16.9702   23.2378 C   0  0  0  0  0  0  0  0  0  0  0  0
   12.0256  -15.9848   23.7530 O   0  0  0  0  0  0  0  0  0  0  0  0
   10.8254  -20.7457   27.4842 N   0  0  0  0  0  0  0  0  0  0  0  0
   11.2985  -19.4570   27.7994 C   0  0  0  0  0  0  0  0  0  0  0  0
   11.3928  -19.1150   28.9944 O   0  0  0  0  0  0  0  0  0  0  0  0
   11.6672  -18.5580   26.6399 C   0  0  0  0  0  0  0  0  0  0  0  0
   12.6206  -19.2677   25.7199 C   0  0  0  0  0  0  0  0  0  0  0  0
   12.9832  -18.4170   24.5692 C   0  0  2  0  0  0  0  0  0  0  0  0
   11.9039  -18.2475   23.6171 N   0  0  0  0  0  0  0  0  0  0  0  0
   14.1923  -18.8375   23.8457 C   0  0  0  0  0  0  0  0  0  0  0  0
   15.4874  -18.8034   24.3192 O   0  0  0  0  0  0  0  0  0  0  0  0
   14.1065  -19.2926   22.6380 O   0  0  0  0  0  0  0  0  0  0  0  0
  2  3  1  0
  2  1  1  1
  3  4  1  0
  4  5  2  0
  5  6  1  0
  7  6  2  0
  8  7  1  0
  9  4  1  0
  9  8  2  0
 10 18  1  0
 10  2  1  0
 11 10  2  0
 13 12  1  0
 14 13  2  0
 15 13  1  0
 16 15  1  0
 17 16  1  6
 17 18  1  0
 19 20  2  0
 19 17  1  0
 21 22  1  0
 22 23  2  0
 24 22  1  0
 24 25  1  0
 26 25  1  1
 26 28  1  0
 26 27  1  0
 27 19  1  0
 28 29  1  0
 30 28  2  0
M  END
$$$$
