FQQ.pdb
     RDKit          3D

 30 30  0  0  1  0  0  0  0  0999 V2000
    5.9994  -18.0090   25.3007 N   0  0  0  0  0  0  0  0  0  0  0  0
    6.0395  -16.5763   25.1088 C   0  0  1  0  0  0  0  0  0  0  0  0
    6.5528  -16.0033   26.4376 C   0  0  0  0  0  0  0  0  0  0  0  0
    6.4659  -14.5197   26.4389 C   0  0  0  0  0  0  0  0  0  0  0  0
    5.3664  -13.8107   25.9992 C   0  0  0  0  0  0  0  0  0  0  0  0
    5.3238  -12.4249   26.0156 C   0  0  0  0  0  0  0  0  0  0  0  0
    6.4276  -11.7369   26.4920 C   0  0  0  0  0  0  0  0  0  0  0  0
    7.5303  -12.4222   26.9335 C   0  0  0  0  0  0  0  0  0  0  0  0
    7.5514  -13.7832   26.9086 C   0  0  0  0  0  0  0  0  0  0  0  0
    7.0856  -16.2617   24.1052 C   0  0  0  0  0  0  0  0  0  0  0  0
    8.1241  -16.9983   24.1118 O   0  0  0  0  0  0  0  0  0  0  0  0
    6.6679  -13.0439   18.6384 N   0  0  0  0  0  0  0  0  0  0  0  0
    8.0752  -13.1314   18.9545 C   0  0  0  0  0  0  0  0  0  0  0  0
    8.8495  -12.9374   18.0052 O   0  0  0  0  0  0  0  0  0  0  0  0
    8.5364  -13.4319   20.2985 C   0  0  0  0  0  0  0  0  0  0  0  0
    7.5860  -13.7810   21.3597 C   0  0  0  0  0  0  0  0  0  0  0  0
    7.9828  -14.9659   22.2087 C   0  0  2  0  0  0  0  0  0  0  0  0
    6.9629  -15.2014   23.1741 N   0  0  0  0  0  0  0  0  0  0  0  0
    9.3529  -14.8879   22.6928 C   0  0  0  0  0  0  0  0  0  0  0  0
    9.7443  -14.0143   23.5467 O   0  0  0  0  0  0  0  0  0  0  0  0
   11.2491  -19.2579   25.7032 N   0  0  0  0  0  0  0  0  0  0  0  0
   12.5683  -18.8387   25.4429 C   0  0  0  0  0  0  0  0  0  0  0  0
   13.5209  -19.4742   25.9354 O   0  0  0  0  0  0  0  0  0  0  0  0
   12.7407  -17.6192   24.5644 C   0  0  0  0  0  0  0  0  0  0  0  0
   11.4497  -17.3020   23.8631 C   0  0  0  0  0  0  0  0  0  0  0  0
   11.5653  -16.0628   23.0692 C   0  0  2  0  0  0  0  0  0  0  0  0
   10.3887  -15.7789   22.2723 N   0  0  0  0  0  0  0  0  0  0  0  0
   12.7525  -15.9905   22.2046 C   0  0  0  0  0  0  0  0  0  0  0  0
   14.0598  -15.8303   22.6148 O   0  0  0  0  0  0  0  0  0  0  0  0
   12.6318  -16.0759   20.9197 O   0  0  0  0  0  0  0  0  0  0  0  0
  2  3  1  0
  2  1  1  1
  3  4  1  0
  4  5  2  0
  5  6  1  0
  7  6  2  0
  8  7  1  0
  9  4  1  0
  9  8  2  0
 10 18  1  0
 10  2  1  0
 11 10  2  0
 13 12  1  0
 14 13  2  0
 15 13  1  0
 16 15  1  0
 17 16  1  1
 17 18  1  0
 19 20  2  0
 19 17  1  0
 21 22  1  0
 22 23  2  0
 24 22  1  0
 24 25  1  0
 26 25  1  6
 26 28  1  0
 26 27  1  0
 27 19  1  0
 28 29  1  0
 30 28  2  0
M  END
$$$$
