FQQ.pdb
     RDKit          3D

 30 30  0  0  1  0  0  0  0  0999 V2000
    6.2626  -16.9710   25.6028 N   0  0  0  0  0  0  0  0  0  0  0  0
    6.6140  -15.7180   24.9722 C   0  0  1  0  0  0  0  0  0  0  0  0
    7.8888  -15.2477   25.6870 C   0  0  0  0  0  0  0  0  0  0  0  0
    7.7255  -13.8606   26.1950 C   0  0  0  0  0  0  0  0  0  0  0  0
    8.6979  -13.1758   26.8953 C   0  0  0  0  0  0  0  0  0  0  0  0
    8.5071  -11.8813   27.3540 C   0  0  0  0  0  0  0  0  0  0  0  0
    7.2954  -11.2620   27.0953 C   0  0  0  0  0  0  0  0  0  0  0  0
    6.3159  -11.9248   26.4013 C   0  0  0  0  0  0  0  0  0  0  0  0
    6.5238  -13.1957   25.9600 C   0  0  0  0  0  0  0  0  0  0  0  0
    7.0165  -15.9893   23.5704 C   0  0  0  0  0  0  0  0  0  0  0  0
    7.2200  -17.2071   23.2597 O   0  0  0  0  0  0  0  0  0  0  0  0
    9.0936  -12.3366   18.6146 N   0  0  0  0  0  0  0  0  0  0  0  0
    8.6894  -13.6890   18.3056 C   0  0  0  0  0  0  0  0  0  0  0  0
    9.3751  -14.2699   17.4506 O   0  0  0  0  0  0  0  0  0  0  0  0
    7.5510  -14.3114   18.9583 C   0  0  0  0  0  0  0  0  0  0  0  0
    7.2904  -14.0942   20.3852 C   0  0  0  0  0  0  0  0  0  0  0  0
    7.5737  -15.2819   21.2749 C   0  0  2  0  0  0  0  0  0  0  0  0
    7.1745  -14.9654   22.6045 N   0  0  0  0  0  0  0  0  0  0  0  0
    8.9111  -15.8255   21.0925 C   0  0  0  0  0  0  0  0  0  0  0  0
    9.2256  -16.5965   20.1167 O   0  0  0  0  0  0  0  0  0  0  0  0
   13.2551  -13.6324   18.2245 N   0  0  0  0  0  0  0  0  0  0  0  0
   13.0480  -13.5976   19.6173 C   0  0  0  0  0  0  0  0  0  0  0  0
   13.7990  -12.9039   20.3305 O   0  0  0  0  0  0  0  0  0  0  0  0
   11.9034  -14.4231   20.1623 C   0  0  0  0  0  0  0  0  0  0  0  0
   12.3451  -15.1709   21.3890 C   0  0  0  0  0  0  0  0  0  0  0  0
   11.3166  -16.1367   21.8232 C   0  0  2  0  0  0  0  0  0  0  0  0
   10.0015  -15.5469   21.9740 N   0  0  0  0  0  0  0  0  0  0  0  0
   11.6453  -16.8821   23.0473 C   0  0  0  0  0  0  0  0  0  0  0  0
   12.7537  -17.6770   23.2532 O   0  0  0  0  0  0  0  0  0  0  0  0
   10.8584  -16.8352   24.0727 O   0  0  0  0  0  0  0  0  0  0  0  0
  2  3  1  0
  2  1  1  1
  3  4  1  0
  4  5  2  0
  5  6  1  0
  7  6  2  0
  8  7  1  0
  9  4  1  0
  9  8  2  0
 10 18  1  0
 10  2  1  0
 11 10  2  0
 13 12  1  0
 14 13  2  0
 15 13  1  0
 16 15  1  0
 17 16  1  6
 17 18  1  0
 19 20  2  0
 19 17  1  0
 21 22  1  0
 22 23  2  0
 24 22  1  0
 24 25  1  0
 26 25  1  1
 26 28  1  0
 26 27  1  0
 27 19  1  0
 28 29  1  0
 30 28  2  0
M  END
$$$$
