FQQ.pdb
     RDKit          3D

 30 30  0  0  1  0  0  0  0  0999 V2000
    7.2916  -17.5688   18.2639 N   0  0  0  0  0  0  0  0  0  0  0  0
    7.8352  -16.3162   18.7400 C   0  0  1  0  0  0  0  0  0  0  0  0
    6.6762  -15.6223   19.4697 C   0  0  0  0  0  0  0  0  0  0  0  0
    7.1607  -14.4284   20.2105 C   0  0  0  0  0  0  0  0  0  0  0  0
    7.6595  -13.2937   19.6034 C   0  0  0  0  0  0  0  0  0  0  0  0
    8.1032  -12.1993   20.3301 C   0  0  0  0  0  0  0  0  0  0  0  0
    8.0393  -12.2560   21.7126 C   0  0  0  0  0  0  0  0  0  0  0  0
    7.5472  -13.3741   22.3355 C   0  0  0  0  0  0  0  0  0  0  0  0
    7.1169  -14.4379   21.6030 C   0  0  0  0  0  0  0  0  0  0  0  0
    8.8501  -16.6056   19.7825 C   0  0  0  0  0  0  0  0  0  0  0  0
    8.6047  -17.5801   20.5643 O   0  0  0  0  0  0  0  0  0  0  0  0
   14.9838  -15.8754   18.8020 N   0  0  0  0  0  0  0  0  0  0  0  0
   14.1087  -14.7517   19.0458 C   0  0  0  0  0  0  0  0  0  0  0  0
   14.5307  -13.6515   18.6584 O   0  0  0  0  0  0  0  0  0  0  0  0
   12.8254  -14.9152   19.7059 C   0  0  0  0  0  0  0  0  0  0  0  0
   12.3846  -16.2318   20.1784 C   0  0  0  0  0  0  0  0  0  0  0  0
   11.0377  -16.2475   20.8625 C   0  0  2  0  0  0  0  0  0  0  0  0
   10.0415  -15.8529   19.9248 N   0  0  0  0  0  0  0  0  0  0  0  0
   11.0444  -15.5718   22.1513 C   0  0  0  0  0  0  0  0  0  0  0  0
   10.8188  -14.3160   22.2837 O   0  0  0  0  0  0  0  0  0  0  0  0
    6.9538  -18.4701   23.8550 N   0  0  0  0  0  0  0  0  0  0  0  0
    7.0345  -17.7352   25.0538 C   0  0  0  0  0  0  0  0  0  0  0  0
    6.3791  -18.1089   26.0462 O   0  0  0  0  0  0  0  0  0  0  0  0
    7.9308  -16.5165   25.0533 C   0  0  0  0  0  0  0  0  0  0  0  0
    8.9433  -16.6213   23.9474 C   0  0  0  0  0  0  0  0  0  0  0  0
   10.3064  -16.3514   24.4457 C   0  0  2  0  0  0  0  0  0  0  0  0
   11.2929  -16.2407   23.3900 N   0  0  0  0  0  0  0  0  0  0  0  0
   10.7959  -17.3026   25.4546 C   0  0  0  0  0  0  0  0  0  0  0  0
   10.7772  -17.1316   26.8232 O   0  0  0  0  0  0  0  0  0  0  0  0
   11.3111  -18.4324   25.0924 O   0  0  0  0  0  0  0  0  0  0  0  0
  2  3  1  0
  2  1  1  1
  3  4  1  0
  4  5  2  0
  5  6  1  0
  7  6  2  0
  8  7  1  0
  9  4  1  0
  9  8  2  0
 10 18  1  0
 10  2  1  0
 11 10  2  0
 13 12  1  0
 14 13  2  0
 15 13  1  0
 16 15  1  0
 17 16  1  6
 17 18  1  0
 19 20  2  0
 19 17  1  0
 21 22  1  0
 22 23  2  0
 24 22  1  0
 24 25  1  0
 26 25  1  6
 26 28  1  0
 26 27  1  0
 27 19  1  0
 28 29  1  0
 30 28  2  0
M  END
$$$$
