FQQ.pdb
     RDKit          3D

 30 30  0  0  1  0  0  0  0  0999 V2000
    6.3344  -16.1965   25.5459 N   0  0  0  0  0  0  0  0  0  0  0  0
    6.3076  -15.7762   24.1625 C   0  0  1  0  0  0  0  0  0  0  0  0
    6.0861  -14.2575   24.2043 C   0  0  0  0  0  0  0  0  0  0  0  0
    6.6684  -13.6750   25.4415 C   0  0  0  0  0  0  0  0  0  0  0  0
    5.9616  -13.4851   26.6117 C   0  0  0  0  0  0  0  0  0  0  0  0
    6.5408  -12.9372   27.7460 C   0  0  0  0  0  0  0  0  0  0  0  0
    7.8757  -12.5711   27.6935 C   0  0  0  0  0  0  0  0  0  0  0  0
    8.5959  -12.7512   26.5406 C   0  0  0  0  0  0  0  0  0  0  0  0
    8.0077  -13.2909   25.4378 C   0  0  0  0  0  0  0  0  0  0  0  0
    7.6592  -15.9689   23.5823 C   0  0  0  0  0  0  0  0  0  0  0  0
    8.3536  -16.9253   24.0559 O   0  0  0  0  0  0  0  0  0  0  0  0
    6.2832  -14.1216   19.0570 N   0  0  0  0  0  0  0  0  0  0  0  0
    7.7176  -14.2653   19.1561 C   0  0  0  0  0  0  0  0  0  0  0  0
    8.2694  -14.8040   18.1845 O   0  0  0  0  0  0  0  0  0  0  0  0
    8.4498  -13.8082   20.3242 C   0  0  0  0  0  0  0  0  0  0  0  0
    9.6504  -14.5143   20.7834 C   0  0  0  0  0  0  0  0  0  0  0  0
    9.4374  -15.4408   21.9576 C   0  0  2  0  0  0  0  0  0  0  0  0
    8.1777  -15.1462   22.5525 N   0  0  0  0  0  0  0  0  0  0  0  0
   10.5905  -15.5156   22.8421 C   0  0  0  0  0  0  0  0  0  0  0  0
   11.1203  -14.4835   23.3894 O   0  0  0  0  0  0  0  0  0  0  0  0
    9.4062  -16.5400   27.7686 N   0  0  0  0  0  0  0  0  0  0  0  0
   10.7513  -16.8156   28.0826 C   0  0  0  0  0  0  0  0  0  0  0  0
   11.0929  -16.9159   29.2772 O   0  0  0  0  0  0  0  0  0  0  0  0
   11.7089  -16.9740   26.9222 C   0  0  0  0  0  0  0  0  0  0  0  0
   10.9928  -16.7235   25.6246 C   0  0  0  0  0  0  0  0  0  0  0  0
   11.8814  -16.9641   24.4707 C   0  0  2  0  0  0  0  0  0  0  0  0
   11.2362  -16.7420   23.1922 N   0  0  0  0  0  0  0  0  0  0  0  0
   12.5281  -18.2846   24.4526 C   0  0  0  0  0  0  0  0  0  0  0  0
   13.6716  -18.6493   25.1323 O   0  0  0  0  0  0  0  0  0  0  0  0
   12.0296  -19.2472   23.7471 O   0  0  0  0  0  0  0  0  0  0  0  0
  2  3  1  0
  2  1  1  1
  3  4  1  0
  4  5  2  0
  5  6  1  0
  7  6  2  0
  8  7  1  0
  9  4  1  0
  9  8  2  0
 10 18  1  0
 10  2  1  0
 11 10  2  0
 13 12  1  0
 14 13  2  0
 15 13  1  0
 16 15  1  0
 17 16  1  6
 17 18  1  0
 19 20  2  0
 19 17  1  0
 21 22  1  0
 22 23  2  0
 24 22  1  0
 24 25  1  0
 26 25  1  1
 26 28  1  0
 26 27  1  0
 27 19  1  0
 28 29  1  0
 30 28  2  0
M  END
$$$$
