FQQ.pdb
     RDKit          3D

 30 30  0  0  1  0  0  0  0  0999 V2000
    5.8380  -16.6400   25.2138 N   0  0  0  0  0  0  0  0  0  0  0  0
    6.7005  -15.6373   24.6289 C   0  0  1  0  0  0  0  0  0  0  0  0
    7.4891  -15.0446   25.8054 C   0  0  0  0  0  0  0  0  0  0  0  0
    7.0003  -13.6795   26.1316 C   0  0  0  0  0  0  0  0  0  0  0  0
    7.4892  -12.5259   25.5526 C   0  0  0  0  0  0  0  0  0  0  0  0
    7.0070  -11.2690   25.8844 C   0  0  0  0  0  0  0  0  0  0  0  0
    5.9994  -11.1779   26.8305 C   0  0  0  0  0  0  0  0  0  0  0  0
    5.4997  -12.3118   27.4179 C   0  0  0  0  0  0  0  0  0  0  0  0
    5.9876  -13.5364   27.0778 C   0  0  0  0  0  0  0  0  0  0  0  0
    7.7047  -16.3162   23.7739 C   0  0  0  0  0  0  0  0  0  0  0  0
    8.1146  -17.4554   24.1681 O   0  0  0  0  0  0  0  0  0  0  0  0
    6.7292  -14.0242   19.8129 N   0  0  0  0  0  0  0  0  0  0  0  0
    8.1360  -13.7720   19.6001 C   0  0  0  0  0  0  0  0  0  0  0  0
    8.4199  -13.1803   18.5476 O   0  0  0  0  0  0  0  0  0  0  0  0
    9.1392  -14.1936   20.5620 C   0  0  0  0  0  0  0  0  0  0  0  0
    9.5761  -15.5921   20.6294 C   0  0  0  0  0  0  0  0  0  0  0  0
    9.3883  -16.2564   21.9733 C   0  0  2  0  0  0  0  0  0  0  0  0
    8.2008  -15.7501   22.5741 N   0  0  0  0  0  0  0  0  0  0  0  0
   10.5970  -16.2565   22.7836 C   0  0  0  0  0  0  0  0  0  0  0  0
   11.4887  -15.3373   22.7097 O   0  0  0  0  0  0  0  0  0  0  0  0
   11.2651  -15.5628   29.3613 N   0  0  0  0  0  0  0  0  0  0  0  0
   11.2089  -16.7568   28.6162 C   0  0  0  0  0  0  0  0  0  0  0  0
   10.5383  -17.7156   29.0462 O   0  0  0  0  0  0  0  0  0  0  0  0
   11.9835  -16.7929   27.3173 C   0  0  0  0  0  0  0  0  0  0  0  0
   11.0365  -16.8959   26.1546 C   0  0  0  0  0  0  0  0  0  0  0  0
   11.7695  -17.0534   24.8829 C   0  0  2  0  0  0  0  0  0  0  0  0
   10.9020  -17.2717   23.7428 N   0  0  0  0  0  0  0  0  0  0  0  0
   12.8099  -18.0924   24.8931 C   0  0  0  0  0  0  0  0  0  0  0  0
   14.0271  -18.0308   25.5392 O   0  0  0  0  0  0  0  0  0  0  0  0
   12.6336  -19.2007   24.2499 O   0  0  0  0  0  0  0  0  0  0  0  0
  2  3  1  0
  2  1  1  1
  3  4  1  0
  4  5  2  0
  5  6  1  0
  7  6  2  0
  8  7  1  0
  9  4  1  0
  9  8  2  0
 10 18  1  0
 10  2  1  0
 11 10  2  0
 13 12  1  0
 14 13  2  0
 15 13  1  0
 16 15  1  0
 17 16  1  6
 17 18  1  0
 19 20  2  0
 19 17  1  0
 21 22  1  0
 22 23  2  0
 24 22  1  0
 24 25  1  0
 26 25  1  1
 26 28  1  0
 26 27  1  0
 27 19  1  0
 28 29  1  0
 30 28  2  0
M  END
$$$$
