FQQ.pdb
     RDKit          3D

 30 30  0  0  1  0  0  0  0  0999 V2000
    6.3847  -15.4867   22.8425 N   0  0  0  0  0  0  0  0  0  0  0  0
    7.7217  -15.3120   23.3653 C   0  0  1  0  0  0  0  0  0  0  0  0
    7.5519  -15.2127   24.8881 C   0  0  0  0  0  0  0  0  0  0  0  0
    7.0838  -13.8570   25.2776 C   0  0  0  0  0  0  0  0  0  0  0  0
    7.4897  -12.6927   24.6574 C   0  0  0  0  0  0  0  0  0  0  0  0
    7.0303  -11.4450   25.0509 C   0  0  0  0  0  0  0  0  0  0  0  0
    6.1330  -11.3747   26.1037 C   0  0  0  0  0  0  0  0  0  0  0  0
    5.7170  -12.5195   26.7337 C   0  0  0  0  0  0  0  0  0  0  0  0
    6.1807  -13.7347   26.3315 C   0  0  0  0  0  0  0  0  0  0  0  0
    8.4902  -16.5583   23.1275 C   0  0  0  0  0  0  0  0  0  0  0  0
    8.1024  -17.2938   22.1633 O   0  0  0  0  0  0  0  0  0  0  0  0
   13.0254  -17.5425   19.7700 N   0  0  0  0  0  0  0  0  0  0  0  0
   12.1562  -16.7103   20.5699 C   0  0  0  0  0  0  0  0  0  0  0  0
   11.7379  -15.6838   20.0133 O   0  0  0  0  0  0  0  0  0  0  0  0
   11.8084  -17.0636   21.9351 C   0  0  0  0  0  0  0  0  0  0  0  0
   10.8058  -18.0976   22.2124 C   0  0  0  0  0  0  0  0  0  0  0  0
   10.3104  -18.1413   23.6390 C   0  0  2  0  0  0  0  0  0  0  0  0
    9.6037  -16.9368   23.9169 N   0  0  0  0  0  0  0  0  0  0  0  0
   11.3373  -18.5451   24.5876 C   0  0  0  0  0  0  0  0  0  0  0  0
   12.4393  -17.9064   24.7395 O   0  0  0  0  0  0  0  0  0  0  0  0
    9.1534  -21.3626   29.5646 N   0  0  0  0  0  0  0  0  0  0  0  0
    8.5620  -20.4403   28.6794 C   0  0  0  0  0  0  0  0  0  0  0  0
    7.3422  -20.2005   28.7703 O   0  0  0  0  0  0  0  0  0  0  0  0
    9.4689  -19.7907   27.6576 C   0  0  0  0  0  0  0  0  0  0  0  0
   10.8578  -20.3547   27.7680 C   0  0  0  0  0  0  0  0  0  0  0  0
   11.7653  -19.7321   26.7842 C   0  0  2  0  0  0  0  0  0  0  0  0
   11.2141  -19.6825   25.4448 N   0  0  0  0  0  0  0  0  0  0  0  0
   13.1101  -20.3236   26.7221 C   0  0  0  0  0  0  0  0  0  0  0  0
   13.7679  -20.7530   25.5882 O   0  0  0  0  0  0  0  0  0  0  0  0
   13.8017  -20.4901   27.8024 O   0  0  0  0  0  0  0  0  0  0  0  0
  2  3  1  0
  2  1  1  6
  3  4  1  0
  4  5  2  0
  5  6  1  0
  7  6  2  0
  8  7  1  0
  9  4  1  0
  9  8  2  0
 10 18  1  0
 10  2  1  0
 11 10  2  0
 13 12  1  0
 14 13  2  0
 15 13  1  0
 16 15  1  0
 17 16  1  6
 17 18  1  0
 19 20  2  0
 19 17  1  0
 21 22  1  0
 22 23  2  0
 24 22  1  0
 24 25  1  0
 26 25  1  1
 26 28  1  0
 26 27  1  0
 27 19  1  0
 28 29  1  0
 30 28  2  0
M  END
$$$$
