FQQ.pdb
     RDKit          3D

 30 30  0  0  1  0  0  0  0  0999 V2000
    6.0495  -16.8859   25.4348 N   0  0  0  0  0  0  0  0  0  0  0  0
    6.8311  -15.9662   24.6382 C   0  0  1  0  0  0  0  0  0  0  0  0
    7.7348  -15.2306   25.6381 C   0  0  0  0  0  0  0  0  0  0  0  0
    7.2442  -13.8471   25.8711 C   0  0  0  0  0  0  0  0  0  0  0  0
    7.6240  -12.7562   25.1158 C   0  0  0  0  0  0  0  0  0  0  0  0
    7.1442  -11.4795   25.3653 C   0  0  0  0  0  0  0  0  0  0  0  0
    6.2529  -11.3027   26.4108 C   0  0  0  0  0  0  0  0  0  0  0  0
    5.8627  -12.3734   27.1735 C   0  0  0  0  0  0  0  0  0  0  0  0
    6.3461  -13.6188   26.9116 C   0  0  0  0  0  0  0  0  0  0  0  0
    7.7455  -16.7489   23.7712 C   0  0  0  0  0  0  0  0  0  0  0  0
    8.1108  -17.8881   24.2069 O   0  0  0  0  0  0  0  0  0  0  0  0
    9.7653  -15.7499   17.5914 N   0  0  0  0  0  0  0  0  0  0  0  0
   10.6760  -16.6420   18.2715 C   0  0  0  0  0  0  0  0  0  0  0  0
   11.5840  -17.1150   17.5712 O   0  0  0  0  0  0  0  0  0  0  0  0
   10.5226  -16.9576   19.6808 C   0  0  0  0  0  0  0  0  0  0  0  0
    9.3738  -16.4573   20.4431 C   0  0  0  0  0  0  0  0  0  0  0  0
    9.3425  -16.8693   21.8963 C   0  0  2  0  0  0  0  0  0  0  0  0
    8.2054  -16.2783   22.5170 N   0  0  0  0  0  0  0  0  0  0  0  0
   10.6255  -16.7063   22.5634 C   0  0  0  0  0  0  0  0  0  0  0  0
   10.9783  -15.6186   23.1448 O   0  0  0  0  0  0  0  0  0  0  0  0
    9.6765  -18.6521   27.1109 N   0  0  0  0  0  0  0  0  0  0  0  0
   11.0065  -19.0549   27.3410 C   0  0  0  0  0  0  0  0  0  0  0  0
   11.2998  -19.6123   28.4167 O   0  0  0  0  0  0  0  0  0  0  0  0
   12.0082  -18.7765   26.2421 C   0  0  0  0  0  0  0  0  0  0  0  0
   11.2921  -18.4303   24.9668 C   0  0  0  0  0  0  0  0  0  0  0  0
   12.2487  -18.1360   23.8817 C   0  0  2  0  0  0  0  0  0  0  0  0
   11.6089  -17.7408   22.6430 N   0  0  0  0  0  0  0  0  0  0  0  0
   13.2107  -19.2110   23.5967 C   0  0  0  0  0  0  0  0  0  0  0  0
   14.4812  -19.3370   24.1190 O   0  0  0  0  0  0  0  0  0  0  0  0
   12.9016  -20.1658   22.7808 O   0  0  0  0  0  0  0  0  0  0  0  0
  2  3  1  0
  2  1  1  1
  3  4  1  0
  4  5  2  0
  5  6  1  0
  7  6  2  0
  8  7  1  0
  9  4  1  0
  9  8  2  0
 10 18  1  0
 10  2  1  0
 11 10  2  0
 13 12  1  0
 14 13  2  0
 15 13  1  0
 16 15  1  0
 17 16  1  6
 17 18  1  0
 19 20  2  0
 19 17  1  0
 21 22  1  0
 22 23  2  0
 24 22  1  0
 24 25  1  0
 26 25  1  1
 26 28  1  0
 26 27  1  0
 27 19  1  0
 28 29  1  0
 30 28  2  0
M  END
$$$$
