FQQ.pdb
     RDKit          3D

 30 30  0  0  1  0  0  0  0  0999 V2000
    7.2947  -17.6843   17.5425 N   0  0  0  0  0  0  0  0  0  0  0  0
    7.8321  -16.5541   18.2670 C   0  0  1  0  0  0  0  0  0  0  0  0
    6.6158  -15.8613   18.8980 C   0  0  0  0  0  0  0  0  0  0  0  0
    7.0465  -14.7605   19.7989 C   0  0  0  0  0  0  0  0  0  0  0  0
    7.4323  -13.5103   19.3597 C   0  0  0  0  0  0  0  0  0  0  0  0
    7.8288  -12.5085   20.2325 C   0  0  0  0  0  0  0  0  0  0  0  0
    7.8343  -12.7812   21.5905 C   0  0  0  0  0  0  0  0  0  0  0  0
    7.4546  -14.0170   22.0478 C   0  0  0  0  0  0  0  0  0  0  0  0
    7.0690  -14.9867   21.1735 C   0  0  0  0  0  0  0  0  0  0  0  0
    8.6400  -17.0604   19.4034 C   0  0  0  0  0  0  0  0  0  0  0  0
    8.3462  -18.2189   19.8424 O   0  0  0  0  0  0  0  0  0  0  0  0
   12.7104  -20.3713   19.0729 N   0  0  0  0  0  0  0  0  0  0  0  0
   12.6672  -19.0566   18.4749 C   0  0  0  0  0  0  0  0  0  0  0  0
   13.3010  -18.9297   17.4162 O   0  0  0  0  0  0  0  0  0  0  0  0
   11.9300  -17.9654   19.0873 C   0  0  0  0  0  0  0  0  0  0  0  0
   11.1493  -18.1780   20.3106 C   0  0  0  0  0  0  0  0  0  0  0  0
   10.5737  -16.9248   20.9275 C   0  0  2  0  0  0  0  0  0  0  0  0
    9.6915  -16.3150   19.9908 N   0  0  0  0  0  0  0  0  0  0  0  0
   11.5832  -16.0757   21.5421 C   0  0  0  0  0  0  0  0  0  0  0  0
   12.6660  -15.7328   20.9459 O   0  0  0  0  0  0  0  0  0  0  0  0
   10.7090  -18.5491   26.7095 N   0  0  0  0  0  0  0  0  0  0  0  0
   10.8852  -19.0888   25.4204 C   0  0  0  0  0  0  0  0  0  0  0  0
   10.5814  -20.2790   25.2084 O   0  0  0  0  0  0  0  0  0  0  0  0
   11.4432  -18.1656   24.3598 C   0  0  0  0  0  0  0  0  0  0  0  0
   11.6879  -16.8010   24.9405 C   0  0  0  0  0  0  0  0  0  0  0  0
   12.3342  -15.9112   23.9558 C   0  0  2  0  0  0  0  0  0  0  0  0
   11.4623  -15.5365   22.8605 N   0  0  0  0  0  0  0  0  0  0  0  0
   13.6000  -16.4158   23.4031 C   0  0  0  0  0  0  0  0  0  0  0  0
   14.8286  -15.7912   23.4592 O   0  0  0  0  0  0  0  0  0  0  0  0
   13.6374  -17.5523   22.7867 O   0  0  0  0  0  0  0  0  0  0  0  0
  2  3  1  0
  2  1  1  6
  3  4  1  0
  4  5  2  0
  5  6  1  0
  7  6  2  0
  8  7  1  0
  9  4  1  0
  9  8  2  0
 10 18  1  0
 10  2  1  0
 11 10  2  0
 13 12  1  0
 14 13  2  0
 15 13  1  0
 16 15  1  0
 17 16  1  6
 17 18  1  0
 19 20  2  0
 19 17  1  0
 21 22  1  0
 22 23  2  0
 24 22  1  0
 24 25  1  0
 26 25  1  6
 26 28  1  0
 26 27  1  0
 27 19  1  0
 28 29  1  0
 30 28  2  0
M  END
$$$$
