FQQ.pdb
     RDKit          3D

 30 30  0  0  1  0  0  0  0  0999 V2000
    6.1493  -17.0170   25.7723 N   0  0  0  0  0  0  0  0  0  0  0  0
    6.7312  -15.8660   25.1183 C   0  0  1  0  0  0  0  0  0  0  0  0
    7.4818  -15.1083   26.2228 C   0  0  0  0  0  0  0  0  0  0  0  0
    6.9856  -13.7116   26.3327 C   0  0  0  0  0  0  0  0  0  0  0  0
    7.7851  -12.6312   26.6468 C   0  0  0  0  0  0  0  0  0  0  0  0
    7.2841  -11.3418   26.7408 C   0  0  0  0  0  0  0  0  0  0  0  0
    5.9333  -11.1407   26.5094 C   0  0  0  0  0  0  0  0  0  0  0  0
    5.1215  -12.2006   26.1961 C   0  0  0  0  0  0  0  0  0  0  0  0
    5.6338  -13.4589   26.1091 C   0  0  0  0  0  0  0  0  0  0  0  0
    7.7740  -16.3347   24.1731 C   0  0  0  0  0  0  0  0  0  0  0  0
    8.2056  -17.5208   24.3404 O   0  0  0  0  0  0  0  0  0  0  0  0
    6.7959  -12.9685   19.2020 N   0  0  0  0  0  0  0  0  0  0  0  0
    8.0848  -13.2805   19.7758 C   0  0  0  0  0  0  0  0  0  0  0  0
    9.0601  -12.7572   19.2159 O   0  0  0  0  0  0  0  0  0  0  0  0
    8.2136  -14.1542   20.9288 C   0  0  0  0  0  0  0  0  0  0  0  0
    9.1628  -15.2722   20.9233 C   0  0  0  0  0  0  0  0  0  0  0  0
    9.2503  -16.0429   22.2197 C   0  0  2  0  0  0  0  0  0  0  0  0
    8.2830  -15.5259   23.1277 N   0  0  0  0  0  0  0  0  0  0  0  0
   10.6137  -16.1848   22.7084 C   0  0  0  0  0  0  0  0  0  0  0  0
   11.6015  -16.4863   21.9475 O   0  0  0  0  0  0  0  0  0  0  0  0
   12.3882  -16.6032   28.6985 N   0  0  0  0  0  0  0  0  0  0  0  0
   11.1770  -16.1069   28.1784 C   0  0  0  0  0  0  0  0  0  0  0  0
   10.2466  -15.8234   28.9581 O   0  0  0  0  0  0  0  0  0  0  0  0
   11.0879  -15.9491   26.6765 C   0  0  0  0  0  0  0  0  0  0  0  0
   12.4041  -16.3013   26.0418 C   0  0  0  0  0  0  0  0  0  0  0  0
   12.3304  -16.1994   24.5710 C   0  0  2  0  0  0  0  0  0  0  0  0
   10.9840  -15.9941   24.0759 N   0  0  0  0  0  0  0  0  0  0  0  0
   12.9378  -17.3227   23.8419 C   0  0  0  0  0  0  0  0  0  0  0  0
   12.2691  -18.3166   23.1579 O   0  0  0  0  0  0  0  0  0  0  0  0
   14.2237  -17.4553   23.7986 O   0  0  0  0  0  0  0  0  0  0  0  0
  2  3  1  0
  2  1  1  1
  3  4  1  0
  4  5  2  0
  5  6  1  0
  7  6  2  0
  8  7  1  0
  9  4  1  0
  9  8  2  0
 10 18  1  0
 10  2  1  0
 11 10  2  0
 13 12  1  0
 14 13  2  0
 15 13  1  0
 16 15  1  0
 17 16  1  6
 17 18  1  0
 19 20  2  0
 19 17  1  0
 21 22  1  0
 22 23  2  0
 24 22  1  0
 24 25  1  0
 26 25  1  1
 26 28  1  0
 26 27  1  0
 27 19  1  0
 28 29  1  0
 30 28  2  0
M  END
$$$$
