FQQ.pdb
     RDKit          3D

 30 30  0  0  1  0  0  0  0  0999 V2000
    5.8364  -16.3709   24.0570 N   0  0  0  0  0  0  0  0  0  0  0  0
    7.1648  -15.8873   23.7525 C   0  0  1  0  0  0  0  0  0  0  0  0
    7.6827  -15.2734   25.0610 C   0  0  0  0  0  0  0  0  0  0  0  0
    7.1329  -13.9062   25.2542 C   0  0  0  0  0  0  0  0  0  0  0  0
    7.6815  -12.7682   24.6983 C   0  0  0  0  0  0  0  0  0  0  0  0
    7.1391  -11.5086   24.9028 C   0  0  0  0  0  0  0  0  0  0  0  0
    6.0072  -11.3986   25.6936 C   0  0  0  0  0  0  0  0  0  0  0  0
    5.4464  -12.5168   26.2554 C   0  0  0  0  0  0  0  0  0  0  0  0
    5.9952  -13.7443   26.0420 C   0  0  0  0  0  0  0  0  0  0  0  0
    8.0424  -17.0519   23.4805 C   0  0  0  0  0  0  0  0  0  0  0  0
    7.6046  -17.9171   22.6553 O   0  0  0  0  0  0  0  0  0  0  0  0
    9.4551  -17.9449   19.8427 N   0  0  0  0  0  0  0  0  0  0  0  0
   10.1456  -16.7391   20.2392 C   0  0  0  0  0  0  0  0  0  0  0  0
   11.2024  -16.5043   19.6338 O   0  0  0  0  0  0  0  0  0  0  0  0
    9.6261  -15.8722   21.2823 C   0  0  0  0  0  0  0  0  0  0  0  0
   10.3396  -15.7141   22.5539 C   0  0  0  0  0  0  0  0  0  0  0  0
   10.5042  -16.9833   23.3567 C   0  0  2  0  0  0  0  0  0  0  0  0
    9.3085  -17.2195   24.0929 N   0  0  0  0  0  0  0  0  0  0  0  0
   11.7596  -17.0357   24.0905 C   0  0  0  0  0  0  0  0  0  0  0  0
   12.8889  -16.7240   23.5678 O   0  0  0  0  0  0  0  0  0  0  0  0
   11.4259  -13.9342   28.2006 N   0  0  0  0  0  0  0  0  0  0  0  0
   10.3291  -14.7009   27.7609 C   0  0  0  0  0  0  0  0  0  0  0  0
    9.2228  -14.1499   27.5990 O   0  0  0  0  0  0  0  0  0  0  0  0
   10.5761  -16.1723   27.5104 C   0  0  0  0  0  0  0  0  0  0  0  0
   12.0305  -16.4930   27.7130 C   0  0  0  0  0  0  0  0  0  0  0  0
   12.7023  -16.7559   26.4251 C   0  0  2  0  0  0  0  0  0  0  0  0
   11.8547  -17.4292   25.4616 N   0  0  0  0  0  0  0  0  0  0  0  0
   13.9749  -17.4853   26.5287 C   0  0  0  0  0  0  0  0  0  0  0  0
   15.0977  -17.0851   27.2229 O   0  0  0  0  0  0  0  0  0  0  0  0
   14.1275  -18.6222   25.9311 O   0  0  0  0  0  0  0  0  0  0  0  0
  2  3  1  0
  2  1  1  1
  3  4  1  0
  4  5  2  0
  5  6  1  0
  7  6  2  0
  8  7  1  0
  9  4  1  0
  9  8  2  0
 10 18  1  0
 10  2  1  0
 11 10  2  0
 13 12  1  0
 14 13  2  0
 15 13  1  0
 16 15  1  0
 17 16  1  1
 17 18  1  0
 19 20  2  0
 19 17  1  0
 21 22  1  0
 22 23  2  0
 24 22  1  0
 24 25  1  0
 26 25  1  1
 26 28  1  0
 26 27  1  0
 27 19  1  0
 28 29  1  0
 30 28  2  0
M  END
$$$$
