FQQ.pdb
     RDKit          3D

 30 30  0  0  1  0  0  0  0  0999 V2000
    6.3899  -16.2715   25.9740 N   0  0  0  0  0  0  0  0  0  0  0  0
    6.7106  -15.3948   24.8696 C   0  0  1  0  0  0  0  0  0  0  0  0
    7.8079  -14.4604   25.3989 C   0  0  0  0  0  0  0  0  0  0  0  0
    7.2131  -13.3191   26.1424 C   0  0  0  0  0  0  0  0  0  0  0  0
    7.8046  -12.7176   27.2347 C   0  0  0  0  0  0  0  0  0  0  0  0
    7.2170  -11.6542   27.9030 C   0  0  0  0  0  0  0  0  0  0  0  0
    5.9941  -11.1862   27.4511 C   0  0  0  0  0  0  0  0  0  0  0  0
    5.3894  -11.7698   26.3676 C   0  0  0  0  0  0  0  0  0  0  0  0
    5.9835  -12.8132   25.7259 C   0  0  0  0  0  0  0  0  0  0  0  0
    7.3492  -16.1970   23.7976 C   0  0  0  0  0  0  0  0  0  0  0  0
    7.8309  -17.3253   24.1380 O   0  0  0  0  0  0  0  0  0  0  0  0
    8.0566  -12.6176   18.2684 N   0  0  0  0  0  0  0  0  0  0  0  0
    8.5831  -13.9434   18.4985 C   0  0  0  0  0  0  0  0  0  0  0  0
    8.9023  -14.5761   17.4805 O   0  0  0  0  0  0  0  0  0  0  0  0
    8.7193  -14.4866   19.8386 C   0  0  0  0  0  0  0  0  0  0  0  0
    8.1567  -15.7974   20.1799 C   0  0  0  0  0  0  0  0  0  0  0  0
    8.4400  -16.2678   21.5873 C   0  0  2  0  0  0  0  0  0  0  0  0
    7.4333  -15.7557   22.4543 N   0  0  0  0  0  0  0  0  0  0  0  0
    9.8256  -16.0718   21.9865 C   0  0  0  0  0  0  0  0  0  0  0  0
   10.2638  -14.9690   22.4735 O   0  0  0  0  0  0  0  0  0  0  0  0
   11.1268  -19.9298   25.8411 N   0  0  0  0  0  0  0  0  0  0  0  0
   12.2946  -19.3640   25.2933 C   0  0  0  0  0  0  0  0  0  0  0  0
   13.3159  -19.2635   26.0008 O   0  0  0  0  0  0  0  0  0  0  0  0
   12.2260  -18.9076   23.8526 C   0  0  0  0  0  0  0  0  0  0  0  0
   12.3341  -17.4102   23.7802 C   0  0  0  0  0  0  0  0  0  0  0  0
   12.1736  -16.9310   22.3932 C   0  0  2  0  0  0  0  0  0  0  0  0
   10.8262  -17.0876   21.8833 N   0  0  0  0  0  0  0  0  0  0  0  0
   13.1172  -17.5102   21.4255 C   0  0  0  0  0  0  0  0  0  0  0  0
   14.4943  -17.4679   21.4936 O   0  0  0  0  0  0  0  0  0  0  0  0
   12.6809  -18.1340   20.3798 O   0  0  0  0  0  0  0  0  0  0  0  0
  2  3  1  0
  2  1  1  1
  3  4  1  0
  4  5  2  0
  5  6  1  0
  7  6  2  0
  8  7  1  0
  9  4  1  0
  9  8  2  0
 10 18  1  0
 10  2  1  0
 11 10  2  0
 13 12  1  0
 14 13  2  0
 15 13  1  0
 16 15  1  0
 17 16  1  6
 17 18  1  0
 19 20  2  0
 19 17  1  0
 21 22  1  0
 22 23  2  0
 24 22  1  0
 24 25  1  0
 26 25  1  1
 26 28  1  0
 26 27  1  0
 27 19  1  0
 28 29  1  0
 30 28  2  0
M  END
$$$$
