IRI.pdb
     RDKit          3D

 28 27  0  0  1  0  0  0  0  0999 V2000
   27.0413  -16.1949  -18.7066 C   0  0  0  0  0  0  0  0  0  0  0  0
   27.5709  -17.1987  -17.7454 C   0  0  0  0  0  0  0  0  0  0  0  0
   26.7592  -17.3109  -16.4720 C   0  0  2  0  0  0  0  0  0  0  0  0
   26.7264  -16.0140  -15.7109 C   0  0  0  0  0  0  0  0  0  0  0  0
   27.3568  -18.3694  -15.5597 C   0  0  2  0  0  0  0  0  0  0  0  0
   27.5998  -19.6042  -16.2863 N   0  0  0  0  0  0  0  0  0  0  0  0
   26.3974  -18.6229  -14.4421 C   0  0  0  0  0  0  0  0  0  0  0  0
   25.9941  -17.7048  -13.6867 O   0  0  0  0  0  0  0  0  0  0  0  0
   20.4248  -24.1860  -15.0102 N   0  0  0  0  0  0  0  0  0  0  0  0
   21.7525  -24.3464  -14.4852 C   0  0  0  0  0  0  0  0  0  0  0  0
   22.2275  -25.5298  -14.2713 N   0  0  0  0  0  0  0  0  0  0  0  0
   22.5506  -23.2004  -14.1982 N   0  0  0  0  0  0  0  0  0  0  0  0
   22.0126  -21.9102  -14.6156 C   0  0  0  0  0  0  0  0  0  0  0  0
   22.9367  -20.7838  -14.2451 C   0  0  0  0  0  0  0  0  0  0  0  0
   24.0994  -21.3289  -13.4718 C   0  0  0  0  0  0  0  0  0  0  0  0
   25.0435  -20.2563  -13.0678 C   0  0  2  0  0  0  0  0  0  0  0  0
   25.9263  -19.9438  -14.2267 N   0  0  0  0  0  0  0  0  0  0  0  0
   25.8917  -20.5287  -11.9082 C   0  0  0  0  0  0  0  0  0  0  0  0
   26.8927  -21.2672  -12.0182 O   0  0  0  0  0  0  0  0  0  0  0  0
   23.1725  -25.6825  -13.9026 C   0  0  0  0  0  0  0  0  0  0  0  0
   27.7325  -17.1982   -8.2291 C   0  0  0  0  0  0  0  0  0  0  0  0
   27.5538  -18.4145   -9.0722 C   0  0  2  0  0  0  0  0  0  0  0  0
   26.5539  -19.3780   -8.5289 C   0  0  0  0  0  0  0  0  0  0  0  0
   27.0342  -19.8958   -7.1545 C   0  0  2  0  0  0  0  0  0  0  0  0
   26.1815  -20.5273   -9.4041 N   0  0  0  0  0  0  0  0  0  0  0  0
   25.6164  -19.9729  -10.6268 C   0  0  0  0  0  0  0  0  0  0  0  0
   25.2682  -21.5241   -8.8432 O   0  0  0  0  0  0  0  0  0  0  0  0
   25.7264  -22.6067   -8.0985 O   0  0  0  0  0  0  0  0  0  0  0  0
  1  2  1  0
  3  2  1  0
  3  4  1  1
  5  3  1  0
  5  6  1  6
  7  5  1  0
  8  7  2  0
  9 10  1  0
 10 11  2  0
 12 13  1  0
 12 10  1  0
 13 14  1  0
 14 15  1  0
 16 15  1  6
 16 17  1  0
 17  7  1  0
 18 16  1  0
 18 19  2  0
 21 20  1  0
 21 22  1  0
 22 23  1  6
 24 22  1  0
 24 25  1  6
 25 18  1  0
 26 24  1  0
 27 26  1  0
 28 26  2  0
M  END
$$$$
