IRI.pdb
     RDKit          3D

 28 27  0  0  1  0  0  0  0  0999 V2000
   12.6168  -14.0881  -13.6089 C   0  0  0  0  0  0  0  0  0  0  0  0
   13.1427  -12.7694  -14.0519 C   0  0  0  0  0  0  0  0  0  0  0  0
   13.9583  -12.0525  -12.9964 C   0  0  2  0  0  0  0  0  0  0  0  0
   13.1631  -11.8056  -11.7439 C   0  0  0  0  0  0  0  0  0  0  0  0
   14.4283  -10.7056  -13.5207 C   0  0  2  0  0  0  0  0  0  0  0  0
   15.1825  -10.8625  -14.7529 N   0  0  0  0  0  0  0  0  0  0  0  0
   15.2917  -10.0708  -12.4790 C   0  0  0  0  0  0  0  0  0  0  0  0
   14.9251   -9.9619  -11.2832 O   0  0  0  0  0  0  0  0  0  0  0  0
   20.9505   -5.5047  -15.0702 N   0  0  0  0  0  0  0  0  0  0  0  0
   21.2881   -5.0242  -13.7590 C   0  0  0  0  0  0  0  0  0  0  0  0
   21.5918   -3.7799  -13.5819 N   0  0  0  0  0  0  0  0  0  0  0  0
   21.2892   -5.9184  -12.6486 N   0  0  0  0  0  0  0  0  0  0  0  0
   20.6888   -7.2299  -12.8673 C   0  0  0  0  0  0  0  0  0  0  0  0
   19.3411   -7.3337  -12.2094 C   0  0  0  0  0  0  0  0  0  0  0  0
   18.7807   -8.7051  -12.4382 C   0  0  0  0  0  0  0  0  0  0  0  0
   17.4162   -8.8443  -11.8692 C   0  0  2  0  0  0  0  0  0  0  0  0
   16.5675   -9.5746  -12.8522 N   0  0  0  0  0  0  0  0  0  0  0  0
   16.7275   -7.6080  -11.5010 C   0  0  0  0  0  0  0  0  0  0  0  0
   16.2606   -6.8588  -12.3843 O   0  0  0  0  0  0  0  0  0  0  0  0
   21.7514   -3.3822  -12.6499 C   0  0  0  0  0  0  0  0  0  0  0  0
   12.5681   -5.4760   -7.9830 C   0  0  0  0  0  0  0  0  0  0  0  0
   13.8882   -5.0947   -8.5610 C   0  0  2  0  0  0  0  0  0  0  0  0
   14.6777   -6.2541   -9.0668 C   0  0  0  0  0  0  0  0  0  0  0  0
   14.9446   -7.2387   -7.9062 C   0  0  2  0  0  0  0  0  0  0  0  0
   15.9539   -5.9428   -9.7739 N   0  0  0  0  0  0  0  0  0  0  0  0
   16.5633   -7.2132  -10.1432 C   0  0  0  0  0  0  0  0  0  0  0  0
   16.9271   -5.1148   -9.0601 O   0  0  0  0  0  0  0  0  0  0  0  0
   16.7344   -3.7498   -8.8697 O   0  0  0  0  0  0  0  0  0  0  0  0
  1  2  1  0
  3  2  1  0
  3  4  1  1
  5  3  1  0
  5  6  1  6
  7  5  1  0
  8  7  2  0
  9 10  1  0
 10 11  2  0
 12 13  1  0
 12 10  1  0
 13 14  1  0
 14 15  1  0
 16 15  1  6
 16 17  1  0
 17  7  1  0
 18 16  1  0
 18 19  2  0
 21 20  1  0
 21 22  1  0
 22 23  1  6
 24 22  1  0
 24 25  1  1
 25 18  1  0
 26 24  1  0
 27 26  1  0
 28 26  2  0
M  END
$$$$
