IRI.pdb
     RDKit          3D

 28 27  0  0  1  0  0  0  0  0999 V2000
   26.7121  -15.7535  -15.4377 C   0  0  0  0  0  0  0  0  0  0  0  0
   25.2310  -15.8283  -15.5505 C   0  0  0  0  0  0  0  0  0  0  0  0
   24.5780  -14.5053  -15.8915 C   0  0  2  0  0  0  0  0  0  0  0  0
   24.8059  -13.4740  -14.8207 C   0  0  0  0  0  0  0  0  0  0  0  0
   23.0773  -14.6857  -16.0501 C   0  0  2  0  0  0  0  0  0  0  0  0
   22.7787  -15.7037  -17.0432 N   0  0  0  0  0  0  0  0  0  0  0  0
   22.4890  -13.3792  -16.4754 C   0  0  0  0  0  0  0  0  0  0  0  0
   22.7847  -12.8378  -17.5689 O   0  0  0  0  0  0  0  0  0  0  0  0
   14.6042  -12.1908  -14.7017 N   0  0  0  0  0  0  0  0  0  0  0  0
   14.9599  -13.0227  -15.8177 C   0  0  0  0  0  0  0  0  0  0  0  0
   14.0660  -13.7648  -16.3852 N   0  0  0  0  0  0  0  0  0  0  0  0
   16.3004  -13.0325  -16.3030 N   0  0  0  0  0  0  0  0  0  0  0  0
   17.2515  -12.1716  -15.6083 C   0  0  0  0  0  0  0  0  0  0  0  0
   18.6320  -12.2961  -16.1903 C   0  0  0  0  0  0  0  0  0  0  0  0
   19.5667  -11.3865  -15.4516 C   0  0  0  0  0  0  0  0  0  0  0  0
   20.9407  -11.4355  -16.0124 C   0  0  2  0  0  0  0  0  0  0  0  0
   21.5661  -12.7286  -15.6164 N   0  0  0  0  0  0  0  0  0  0  0  0
   21.8469  -10.3537  -15.6288 C   0  0  0  0  0  0  0  0  0  0  0  0
   22.4608  -10.4004  -14.5424 O   0  0  0  0  0  0  0  0  0  0  0  0
   14.2945  -14.4110  -17.1483 C   0  0  0  0  0  0  0  0  0  0  0  0
   26.0875   -6.8963  -17.8869 C   0  0  0  0  0  0  0  0  0  0  0  0
   25.0145   -6.9237  -16.8525 C   0  0  2  0  0  0  0  0  0  0  0  0
   24.0554   -8.0537  -17.0144 C   0  0  0  0  0  0  0  0  0  0  0  0
   23.5281   -8.0753  -18.4667 C   0  0  2  0  0  0  0  0  0  0  0  0
   22.9126   -8.1098  -16.0571 N   0  0  0  0  0  0  0  0  0  0  0  0
   22.0635   -9.2212  -16.4638 C   0  0  0  0  0  0  0  0  0  0  0  0
   22.1059   -6.8974  -15.9097 O   0  0  0  0  0  0  0  0  0  0  0  0
   20.7665   -6.8536  -16.2845 O   0  0  0  0  0  0  0  0  0  0  0  0
  1  2  1  0
  3  2  1  0
  3  4  1  1
  5  3  1  0
  5  6  1  6
  7  5  1  0
  8  7  2  0
  9 10  1  0
 10 11  2  0
 12 13  1  0
 12 10  1  0
 13 14  1  0
 14 15  1  0
 16 15  1  1
 16 17  1  0
 17  7  1  0
 18 16  1  0
 18 19  2  0
 21 20  1  0
 21 22  1  0
 22 23  1  1
 24 22  1  0
 24 25  1  1
 25 18  1  0
 26 24  1  0
 27 26  1  0
 28 26  2  0
M  END
$$$$
