IRI.pdb
     RDKit          3D

 28 27  0  0  1  0  0  0  0  0999 V2000
   28.7728  -23.0951  -17.7437 C   0  0  0  0  0  0  0  0  0  0  0  0
   27.5180  -23.7899  -17.3505 C   0  0  0  0  0  0  0  0  0  0  0  0
   27.5265  -25.2757  -17.6427 C   0  0  2  0  0  0  0  0  0  0  0  0
   27.7012  -25.5585  -19.1095 C   0  0  0  0  0  0  0  0  0  0  0  0
   26.2154  -25.9053  -17.2017 C   0  0  2  0  0  0  0  0  0  0  0  0
   26.0686  -25.8415  -15.7573 N   0  0  0  0  0  0  0  0  0  0  0  0
   26.2058  -27.3320  -17.6465 C   0  0  0  0  0  0  0  0  0  0  0  0
   26.1794  -27.6533  -18.8599 O   0  0  0  0  0  0  0  0  0  0  0  0
   32.1990  -32.1607  -16.2934 N   0  0  0  0  0  0  0  0  0  0  0  0
   32.2516  -31.0178  -17.1623 C   0  0  0  0  0  0  0  0  0  0  0  0
   33.3773  -30.6457  -17.6781 N   0  0  0  0  0  0  0  0  0  0  0  0
   31.0619  -30.2901  -17.4584 N   0  0  0  0  0  0  0  0  0  0  0  0
   29.8407  -30.7413  -16.7999 C   0  0  0  0  0  0  0  0  0  0  0  0
   28.6543  -29.9192  -17.2199 C   0  0  0  0  0  0  0  0  0  0  0  0
   27.4201  -30.4535  -16.5580 C   0  0  0  0  0  0  0  0  0  0  0  0
   26.1919  -29.7926  -17.0675 C   0  0  2  0  0  0  0  0  0  0  0  0
   26.2273  -28.3579  -16.6666 N   0  0  0  0  0  0  0  0  0  0  0  0
   24.9137  -30.3560  -16.6348 C   0  0  0  0  0  0  0  0  0  0  0  0
   24.2255  -29.7704  -15.7730 O   0  0  0  0  0  0  0  0  0  0  0  0
   33.4440  -29.8706  -18.3467 C   0  0  0  0  0  0  0  0  0  0  0  0
   19.7344  -30.2778  -16.8429 C   0  0  0  0  0  0  0  0  0  0  0  0
   20.6799  -31.4257  -16.7402 C   0  0  2  0  0  0  0  0  0  0  0  0
   22.1092  -31.0422  -16.9220 C   0  0  0  0  0  0  0  0  0  0  0  0
   22.2851  -30.3528  -18.2937 C   0  0  2  0  0  0  0  0  0  0  0  0
   23.1227  -32.1253  -16.7630 N   0  0  0  0  0  0  0  0  0  0  0  0
   24.4090  -31.5753  -17.1689 C   0  0  0  0  0  0  0  0  0  0  0  0
   22.8740  -33.3809  -17.4729 O   0  0  0  0  0  0  0  0  0  0  0  0
   21.9255  -34.2999  -17.0342 O   0  0  0  0  0  0  0  0  0  0  0  0
  1  2  1  0
  3  2  1  0
  3  4  1  6
  5  3  1  0
  5  6  1  1
  7  5  1  0
  8  7  2  0
  9 10  1  0
 10 11  2  0
 12 13  1  0
 12 10  1  0
 13 14  1  0
 14 15  1  0
 16 15  1  1
 16 17  1  0
 17  7  1  0
 18 16  1  0
 18 19  2  0
 21 20  1  0
 21 22  1  0
 22 23  1  1
 24 22  1  0
 24 25  1  6
 25 18  1  0
 26 24  1  0
 27 26  1  0
 28 26  2  0
M  END
$$$$
