IRI.pdb
     RDKit          3D

 28 27  0  0  1  0  0  0  0  0999 V2000
   18.5192  -17.8337  -15.9804 C   0  0  0  0  0  0  0  0  0  0  0  0
   18.4626  -18.9716  -15.0243 C   0  0  0  0  0  0  0  0  0  0  0  0
   19.7979  -19.6518  -14.8066 C   0  0  2  0  0  0  0  0  0  0  0  0
   20.8266  -18.7052  -14.2519 C   0  0  0  0  0  0  0  0  0  0  0  0
   20.3302  -20.1971  -16.1216 C   0  0  2  0  0  0  0  0  0  0  0  0
   19.4833  -21.2673  -16.6209 N   0  0  0  0  0  0  0  0  0  0  0  0
   21.7130  -20.7152  -15.8904 C   0  0  0  0  0  0  0  0  0  0  0  0
   21.9430  -21.6910  -15.1349 O   0  0  0  0  0  0  0  0  0  0  0  0
   26.3661  -22.3683  -20.2768 N   0  0  0  0  0  0  0  0  0  0  0  0
   27.7086  -22.3940  -19.7657 C   0  0  0  0  0  0  0  0  0  0  0  0
   28.5179  -23.3402  -20.1143 N   0  0  0  0  0  0  0  0  0  0  0  0
   28.1526  -21.3757  -18.8721 N   0  0  0  0  0  0  0  0  0  0  0  0
   27.2075  -20.3017  -18.5864 C   0  0  0  0  0  0  0  0  0  0  0  0
   26.4559  -20.5564  -17.3097 C   0  0  0  0  0  0  0  0  0  0  0  0
   24.9997  -20.2737  -17.5254 C   0  0  0  0  0  0  0  0  0  0  0  0
   24.2006  -20.5365  -16.3017 C   0  0  2  0  0  0  0  0  0  0  0  0
   22.8020  -20.0844  -16.5456 N   0  0  0  0  0  0  0  0  0  0  0  0
   24.6710  -19.9175  -15.0632 C   0  0  0  0  0  0  0  0  0  0  0  0
   24.4828  -18.7006  -14.8550 O   0  0  0  0  0  0  0  0  0  0  0  0
   29.5185  -23.3159  -19.8895 C   0  0  0  0  0  0  0  0  0  0  0  0
   25.3127  -20.7249   -9.1971 C   0  0  0  0  0  0  0  0  0  0  0  0
   25.9302  -20.0778  -10.3897 C   0  0  2  0  0  0  0  0  0  0  0  0
   25.4209  -20.6052  -11.6880 C   0  0  0  0  0  0  0  0  0  0  0  0
   25.5649  -22.1436  -11.7090 C   0  0  2  0  0  0  0  0  0  0  0  0
   26.0085  -20.0219  -12.9290 N   0  0  0  0  0  0  0  0  0  0  0  0
   25.3517  -20.6635  -14.0599 C   0  0  0  0  0  0  0  0  0  0  0  0
   27.4612  -20.1095  -13.0841 O   0  0  0  0  0  0  0  0  0  0  0  0
   28.0506  -20.8811  -14.0811 O   0  0  0  0  0  0  0  0  0  0  0  0
  1  2  1  0
  3  2  1  0
  3  4  1  6
  5  3  1  0
  5  6  1  1
  7  5  1  0
  8  7  2  0
  9 10  1  0
 10 11  2  0
 12 13  1  0
 12 10  1  0
 13 14  1  0
 14 15  1  0
 16 15  1  6
 16 17  1  0
 17  7  1  0
 18 16  1  0
 18 19  2  0
 21 20  1  0
 21 22  1  0
 22 23  1  6
 24 22  1  0
 24 25  1  6
 25 18  1  0
 26 24  1  0
 27 26  1  0
 28 26  2  0
M  END
$$$$
