IRI.pdb
     RDKit          3D

 28 27  0  0  1  0  0  0  0  0999 V2000
   27.5597  -16.7445  -18.4175 C   0  0  0  0  0  0  0  0  0  0  0  0
   28.1232  -17.4984  -17.2660 C   0  0  0  0  0  0  0  0  0  0  0  0
   27.0820  -17.9437  -16.2607 C   0  0  2  0  0  0  0  0  0  0  0  0
   26.2792  -16.7862  -15.7334 C   0  0  0  0  0  0  0  0  0  0  0  0
   27.7513  -18.6218  -15.0766 C   0  0  2  0  0  0  0  0  0  0  0  0
   28.6321  -19.6895  -15.5193 N   0  0  0  0  0  0  0  0  0  0  0  0
   26.6855  -19.1824  -14.1915 C   0  0  0  0  0  0  0  0  0  0  0  0
   25.7716  -18.4678  -13.7114 O   0  0  0  0  0  0  0  0  0  0  0  0
   21.6591  -25.8493  -14.4947 N   0  0  0  0  0  0  0  0  0  0  0  0
   23.0181  -25.7892  -14.9569 C   0  0  0  0  0  0  0  0  0  0  0  0
   23.5632  -26.8249  -15.5064 N   0  0  0  0  0  0  0  0  0  0  0  0
   23.7700  -24.5868  -14.8110 N   0  0  0  0  0  0  0  0  0  0  0  0
   23.0355  -23.4092  -14.3611 C   0  0  0  0  0  0  0  0  0  0  0  0
   23.8887  -22.1730  -14.4227 C   0  0  0  0  0  0  0  0  0  0  0  0
   25.1611  -22.4091  -13.6662 C   0  0  0  0  0  0  0  0  0  0  0  0
   25.6535  -21.1682  -13.0162 C   0  0  2  0  0  0  0  0  0  0  0  0
   26.7058  -20.5672  -13.8831 N   0  0  0  0  0  0  0  0  0  0  0  0
   26.1975  -21.3042  -11.6656 C   0  0  0  0  0  0  0  0  0  0  0  0
   27.1987  -22.0212  -11.4580 O   0  0  0  0  0  0  0  0  0  0  0  0
   24.5429  -26.8320  -15.8103 C   0  0  0  0  0  0  0  0  0  0  0  0
   28.2711  -19.0501   -6.7954 C   0  0  0  0  0  0  0  0  0  0  0  0
   27.3481  -20.1294   -7.2485 C   0  0  2  0  0  0  0  0  0  0  0  0
   26.8898  -19.9725   -8.6586 C   0  0  0  0  0  0  0  0  0  0  0  0
   26.2940  -18.5597   -8.8504 C   0  0  2  0  0  0  0  0  0  0  0  0
   25.9403  -21.0000   -9.1765 N   0  0  0  0  0  0  0  0  0  0  0  0
   25.6183  -20.6364  -10.5498 C   0  0  0  0  0  0  0  0  0  0  0  0
   24.7069  -21.2114   -8.4172 O   0  0  0  0  0  0  0  0  0  0  0  0
   23.4523  -20.9642   -8.9661 O   0  0  0  0  0  0  0  0  0  0  0  0
  1  2  1  0
  3  2  1  0
  3  4  1  1
  5  3  1  0
  5  6  1  6
  7  5  1  0
  8  7  2  0
  9 10  1  0
 10 11  2  0
 12 13  1  0
 12 10  1  0
 13 14  1  0
 14 15  1  0
 16 15  1  6
 16 17  1  0
 17  7  1  0
 18 16  1  0
 18 19  2  0
 21 20  1  0
 21 22  1  0
 22 23  1  6
 24 22  1  0
 24 25  1  1
 25 18  1  0
 26 24  1  0
 27 26  1  0
 28 26  2  0
M  END
$$$$
