IRI.pdb
     RDKit          3D

 28 27  0  0  1  0  0  0  0  0999 V2000
   16.5561  -19.1611  -15.4705 C   0  0  0  0  0  0  0  0  0  0  0  0
   17.9182  -18.5639  -15.4626 C   0  0  0  0  0  0  0  0  0  0  0  0
   19.0113  -19.5439  -15.0917 C   0  0  2  0  0  0  0  0  0  0  0  0
   18.8106  -20.1144  -13.7146 C   0  0  0  0  0  0  0  0  0  0  0  0
   20.3654  -18.8540  -15.1153 C   0  0  2  0  0  0  0  0  0  0  0  0
   20.6773  -18.3678  -16.4487 N   0  0  0  0  0  0  0  0  0  0  0  0
   21.4027  -19.8393  -14.6830 C   0  0  0  0  0  0  0  0  0  0  0  0
   21.4948  -20.2342  -13.4948 O   0  0  0  0  0  0  0  0  0  0  0  0
   24.6407  -26.3358  -15.5766 N   0  0  0  0  0  0  0  0  0  0  0  0
   25.7715  -25.9928  -16.3936 C   0  0  0  0  0  0  0  0  0  0  0  0
   26.3771  -26.9058  -17.0802 N   0  0  0  0  0  0  0  0  0  0  0  0
   26.2295  -24.6438  -16.4497 N   0  0  0  0  0  0  0  0  0  0  0  0
   25.4697  -23.6649  -15.6799 C   0  0  0  0  0  0  0  0  0  0  0  0
   25.2124  -22.4177  -16.4788 C   0  0  0  0  0  0  0  0  0  0  0  0
   23.7455  -22.1097  -16.4606 C   0  0  0  0  0  0  0  0  0  0  0  0
   23.3613  -21.3309  -15.2561 C   0  0  2  0  0  0  0  0  0  0  0  0
   22.3136  -20.3458  -15.6457 N   0  0  0  0  0  0  0  0  0  0  0  0
   24.4325  -20.6105  -14.5691 C   0  0  0  0  0  0  0  0  0  0  0  0
   24.8258  -19.5056  -14.9979 O   0  0  0  0  0  0  0  0  0  0  0  0
   27.1008  -26.6815  -17.7717 C   0  0  0  0  0  0  0  0  0  0  0  0
   24.7193  -20.4085   -9.2018 C   0  0  0  0  0  0  0  0  0  0  0  0
   24.8446  -20.0743  -10.6492 C   0  0  2  0  0  0  0  0  0  0  0  0
   26.0524  -20.6615  -11.2969 C   0  0  0  0  0  0  0  0  0  0  0  0
   27.3204  -20.1532  -10.5747 C   0  0  2  0  0  0  0  0  0  0  0  0
   26.1910  -20.4631  -12.7689 N   0  0  0  0  0  0  0  0  0  0  0  0
   25.0613  -21.1298  -13.4022 C   0  0  0  0  0  0  0  0  0  0  0  0
   27.4404  -20.9092  -13.3874 O   0  0  0  0  0  0  0  0  0  0  0  0
   27.6501  -22.2361  -13.7502 O   0  0  0  0  0  0  0  0  0  0  0  0
  1  2  1  0
  3  2  1  0
  3  4  1  1
  5  3  1  0
  5  6  1  6
  7  5  1  0
  8  7  2  0
  9 10  1  0
 10 11  2  0
 12 13  1  0
 12 10  1  0
 13 14  1  0
 14 15  1  0
 16 15  1  6
 16 17  1  0
 17  7  1  0
 18 16  1  0
 18 19  2  0
 21 20  1  0
 21 22  1  0
 22 23  1  6
 24 22  1  0
 24 25  1  6
 25 18  1  0
 26 24  1  0
 27 26  1  0
 28 26  2  0
M  END
$$$$
