IRI.pdb
     RDKit          3D

 28 27  0  0  1  0  0  0  0  0999 V2000
   26.6826  -13.1989  -16.3551 C   0  0  0  0  0  0  0  0  0  0  0  0
   27.3289  -14.4344  -16.8726 C   0  0  0  0  0  0  0  0  0  0  0  0
   26.4151  -15.6418  -16.8832 C   0  0  2  0  0  0  0  0  0  0  0  0
   26.0495  -16.0817  -15.4922 C   0  0  0  0  0  0  0  0  0  0  0  0
   27.0970  -16.8106  -17.5753 C   0  0  2  0  0  0  0  0  0  0  0  0
   27.4977  -16.4526  -18.9255 N   0  0  0  0  0  0  0  0  0  0  0  0
   26.1368  -17.9550  -17.6214 C   0  0  0  0  0  0  0  0  0  0  0  0
   25.0246  -17.8708  -18.1976 O   0  0  0  0  0  0  0  0  0  0  0  0
   27.8987  -26.1800  -16.6093 N   0  0  0  0  0  0  0  0  0  0  0  0
   28.4243  -24.8689  -16.3472 C   0  0  0  0  0  0  0  0  0  0  0  0
   29.6906  -24.7060  -16.1427 N   0  0  0  0  0  0  0  0  0  0  0  0
   27.5506  -23.7428  -16.3118 N   0  0  0  0  0  0  0  0  0  0  0  0
   26.1374  -24.0062  -16.5604 C   0  0  0  0  0  0  0  0  0  0  0  0
   25.3356  -22.7346  -16.5734 C   0  0  0  0  0  0  0  0  0  0  0  0
   26.2552  -21.5694  -16.7822 C   0  0  0  0  0  0  0  0  0  0  0  0
   25.5084  -20.2901  -16.8854 C   0  0  2  0  0  0  0  0  0  0  0  0
   26.4927  -19.1768  -16.9941 N   0  0  0  0  0  0  0  0  0  0  0  0
   24.5844  -19.9779  -15.7958 C   0  0  0  0  0  0  0  0  0  0  0  0
   25.0207  -19.6242  -14.6804 O   0  0  0  0  0  0  0  0  0  0  0  0
   30.0981  -23.7882  -15.9335 C   0  0  0  0  0  0  0  0  0  0  0  0
   21.1225  -16.3227  -16.0250 C   0  0  0  0  0  0  0  0  0  0  0  0
   22.0271  -17.3613  -15.4546 C   0  0  2  0  0  0  0  0  0  0  0  0
   21.3702  -18.6854  -15.2590 C   0  0  0  0  0  0  0  0  0  0  0  0
   20.2072  -18.5377  -14.2524 C   0  0  2  0  0  0  0  0  0  0  0  0
   22.2502  -19.8210  -14.8570 N   0  0  0  0  0  0  0  0  0  0  0  0
   23.1727  -20.0625  -15.9582 C   0  0  0  0  0  0  0  0  0  0  0  0
   21.5927  -21.0724  -14.4774 O   0  0  0  0  0  0  0  0  0  0  0  0
   21.2037  -21.3321  -13.1668 O   0  0  0  0  0  0  0  0  0  0  0  0
  1  2  1  0
  3  2  1  0
  3  4  1  1
  5  3  1  0
  5  6  1  6
  7  5  1  0
  8  7  2  0
  9 10  1  0
 10 11  2  0
 12 13  1  0
 12 10  1  0
 13 14  1  0
 14 15  1  0
 16 15  1  1
 16 17  1  0
 17  7  1  0
 18 16  1  0
 18 19  2  0
 21 20  1  0
 21 22  1  0
 22 23  1  6
 24 22  1  0
 24 25  1  1
 25 18  1  0
 26 24  1  0
 27 26  1  0
 28 26  2  0
M  END
$$$$
