IRI.pdb
     RDKit          3D

 28 27  0  0  1  0  0  0  0  0999 V2000
   17.7603  -14.8913  -16.7588 C   0  0  0  0  0  0  0  0  0  0  0  0
   18.5951  -13.9035  -17.4931 C   0  0  0  0  0  0  0  0  0  0  0  0
   19.4821  -13.0673  -16.5948 C   0  0  2  0  0  0  0  0  0  0  0  0
   18.6865  -12.3102  -15.5672 C   0  0  0  0  0  0  0  0  0  0  0  0
   20.2587  -12.0540  -17.4193 C   0  0  2  0  0  0  0  0  0  0  0  0
   21.1414  -12.7192  -18.3627 N   0  0  0  0  0  0  0  0  0  0  0  0
   21.0637  -11.2072  -16.4872 C   0  0  0  0  0  0  0  0  0  0  0  0
   20.5503  -10.6290  -15.4981 O   0  0  0  0  0  0  0  0  0  0  0  0
   29.0921  -12.4980  -17.0644 N   0  0  0  0  0  0  0  0  0  0  0  0
   28.6323  -11.1743  -16.7470 C   0  0  0  0  0  0  0  0  0  0  0  0
   29.4093  -10.1567  -16.9268 N   0  0  0  0  0  0  0  0  0  0  0  0
   27.3171  -10.9790  -16.2326 N   0  0  0  0  0  0  0  0  0  0  0  0
   26.5047  -12.1767  -16.0480 C   0  0  0  0  0  0  0  0  0  0  0  0
   25.1268  -11.8351  -15.5536 C   0  0  0  0  0  0  0  0  0  0  0  0
   24.7188  -10.5008  -16.1016 C   0  0  0  0  0  0  0  0  0  0  0  0
   23.2893  -10.2068  -15.8276 C   0  0  2  0  0  0  0  0  0  0  0  0
   22.4534  -11.0509  -16.7268 N   0  0  0  0  0  0  0  0  0  0  0  0
   22.8627   -8.8164  -15.9799 C   0  0  0  0  0  0  0  0  0  0  0  0
   23.0113   -8.2267  -17.0706 O   0  0  0  0  0  0  0  0  0  0  0  0
   29.1253   -9.2011  -16.6853 C   0  0  0  0  0  0  0  0  0  0  0  0
   18.8196   -5.0941  -16.5751 C   0  0  0  0  0  0  0  0  0  0  0  0
   20.1292   -5.1480  -15.8649 C   0  0  2  0  0  0  0  0  0  0  0  0
   20.6535   -6.5314  -15.6800 C   0  0  0  0  0  0  0  0  0  0  0  0
   19.5987   -7.3857  -14.9414 C   0  0  2  0  0  0  0  0  0  0  0  0
   21.9785   -6.6653  -15.0076 N   0  0  0  0  0  0  0  0  0  0  0  0
   22.2702   -8.0890  -14.9092 C   0  0  0  0  0  0  0  0  0  0  0  0
   22.1263   -6.0368  -13.6940 O   0  0  0  0  0  0  0  0  0  0  0  0
   22.1972   -4.6554  -13.5420 O   0  0  0  0  0  0  0  0  0  0  0  0
  1  2  1  0
  3  2  1  0
  3  4  1  1
  5  3  1  0
  5  6  1  6
  7  5  1  0
  8  7  2  0
  9 10  1  0
 10 11  2  0
 12 13  1  0
 12 10  1  0
 13 14  1  0
 14 15  1  0
 16 15  1  6
 16 17  1  0
 17  7  1  0
 18 16  1  0
 18 19  2  0
 21 20  1  0
 21 22  1  0
 22 23  1  6
 24 22  1  0
 24 25  1  1
 25 18  1  0
 26 24  1  0
 27 26  1  0
 28 26  2  0
M  END
$$$$
