IRI.pdb
     RDKit          3D

 28 27  0  0  1  0  0  0  0  0999 V2000
   29.1083  -20.9277  -11.1883 C   0  0  0  0  0  0  0  0  0  0  0  0
   27.9222  -21.7654  -11.5095 C   0  0  0  0  0  0  0  0  0  0  0  0
   27.0046  -21.1512  -12.5458 C   0  0  2  0  0  0  0  0  0  0  0  0
   26.4841  -19.8091  -12.1102 C   0  0  0  0  0  0  0  0  0  0  0  0
   25.8081  -22.0559  -12.7902 C   0  0  2  0  0  0  0  0  0  0  0  0
   26.2337  -23.3669  -13.2508 N   0  0  0  0  0  0  0  0  0  0  0  0
   24.9385  -21.4166  -13.8240 C   0  0  0  0  0  0  0  0  0  0  0  0
   25.3886  -21.0349  -14.9321 O   0  0  0  0  0  0  0  0  0  0  0  0
   16.2143  -21.5614  -14.4313 N   0  0  0  0  0  0  0  0  0  0  0  0
   16.5566  -20.7826  -15.5891 C   0  0  0  0  0  0  0  0  0  0  0  0
   15.6388  -20.4302  -16.4288 N   0  0  0  0  0  0  0  0  0  0  0  0
   17.9100  -20.3960  -15.8156 N   0  0  0  0  0  0  0  0  0  0  0  0
   18.8868  -20.8298  -14.8226 C   0  0  0  0  0  0  0  0  0  0  0  0
   20.2797  -20.4113  -15.2028 C   0  0  0  0  0  0  0  0  0  0  0  0
   21.2535  -20.9598  -14.2040 C   0  0  0  0  0  0  0  0  0  0  0  0
   22.6549  -20.6170  -14.5556 C   0  0  2  0  0  0  0  0  0  0  0  0
   23.5593  -21.2345  -13.5453 N   0  0  0  0  0  0  0  0  0  0  0  0
   22.9802  -19.1945  -14.6507 C   0  0  0  0  0  0  0  0  0  0  0  0
   22.8058  -18.4405  -13.6707 O   0  0  0  0  0  0  0  0  0  0  0  0
   15.8330  -19.8152  -17.2265 C   0  0  0  0  0  0  0  0  0  0  0  0
   27.2785  -15.6251  -16.0764 C   0  0  0  0  0  0  0  0  0  0  0  0
   25.8124  -15.6536  -15.8080 C   0  0  2  0  0  0  0  0  0  0  0  0
   25.2552  -17.0299  -15.6726 C   0  0  0  0  0  0  0  0  0  0  0  0
   26.0764  -18.0044  -16.5464 C   0  0  2  0  0  0  0  0  0  0  0  0
   23.7996  -17.1978  -15.9531 N   0  0  0  0  0  0  0  0  0  0  0  0
   23.5007  -18.6193  -15.8444 C   0  0  0  0  0  0  0  0  0  0  0  0
   23.3027  -16.6827  -17.2299 O   0  0  0  0  0  0  0  0  0  0  0  0
   23.0550  -17.5179  -18.3151 O   0  0  0  0  0  0  0  0  0  0  0  0
  1  2  1  0
  3  2  1  0
  3  4  1  1
  5  3  1  0
  5  6  1  6
  7  5  1  0
  8  7  2  0
  9 10  1  0
 10 11  2  0
 12 13  1  0
 12 10  1  0
 13 14  1  0
 14 15  1  0
 16 15  1  1
 16 17  1  0
 17  7  1  0
 18 16  1  0
 18 19  2  0
 21 20  1  0
 21 22  1  0
 22 23  1  1
 24 22  1  0
 24 25  1  6
 25 18  1  0
 26 24  1  0
 27 26  1  0
 28 26  2  0
M  END
$$$$
