IRI.pdb
     RDKit          3D

 28 27  0  0  1  0  0  0  0  0999 V2000
   18.1666  -28.0200   -9.8279 C   0  0  0  0  0  0  0  0  0  0  0  0
   18.1031  -26.5973   -9.3992 C   0  0  0  0  0  0  0  0  0  0  0  0
   18.0843  -26.4137   -7.8962 C   0  0  2  0  0  0  0  0  0  0  0  0
   16.9319  -27.1381   -7.2563 C   0  0  0  0  0  0  0  0  0  0  0  0
   17.9564  -24.9397   -7.5486 C   0  0  2  0  0  0  0  0  0  0  0  0
   19.1313  -24.2008   -7.9792 N   0  0  0  0  0  0  0  0  0  0  0  0
   17.7995  -24.8178   -6.0673 C   0  0  0  0  0  0  0  0  0  0  0  0
   18.7820  -24.8527   -5.2864 O   0  0  0  0  0  0  0  0  0  0  0  0
   11.9862  -20.4090   -1.5098 N   0  0  0  0  0  0  0  0  0  0  0  0
   12.5803  -21.1855   -0.4572 C   0  0  0  0  0  0  0  0  0  0  0  0
   12.3288  -20.9030    0.7792 N   0  0  0  0  0  0  0  0  0  0  0  0
   13.4497  -22.2705   -0.7730 N   0  0  0  0  0  0  0  0  0  0  0  0
   13.8280  -22.4160   -2.1744 C   0  0  0  0  0  0  0  0  0  0  0  0
   14.6904  -23.6287   -2.3875 C   0  0  0  0  0  0  0  0  0  0  0  0
   15.0186  -23.7554   -3.8446 C   0  0  0  0  0  0  0  0  0  0  0  0
   16.3043  -24.4664   -4.0597 C   0  0  2  0  0  0  0  0  0  0  0  0
   16.4985  -24.6573   -5.5246 N   0  0  0  0  0  0  0  0  0  0  0  0
   16.4550  -25.7658   -3.4061 C   0  0  0  0  0  0  0  0  0  0  0  0
   16.0183  -26.8008   -3.9516 O   0  0  0  0  0  0  0  0  0  0  0  0
   12.7459  -21.4263    1.5566 C   0  0  0  0  0  0  0  0  0  0  0  0
   21.0757  -27.4073   -1.7565 C   0  0  0  0  0  0  0  0  0  0  0  0
   19.6556  -27.4741   -2.2051 C   0  0  2  0  0  0  0  0  0  0  0  0
   18.6699  -27.3373   -1.0948 C   0  0  0  0  0  0  0  0  0  0  0  0
   18.8355  -28.5189   -0.1130 C   0  0  2  0  0  0  0  0  0  0  0  0
   17.2361  -27.1934   -1.4809 N   0  0  0  0  0  0  0  0  0  0  0  0
   17.0948  -25.9031   -2.1419 C   0  0  0  0  0  0  0  0  0  0  0  0
   16.2424  -27.3152   -0.4132 O   0  0  0  0  0  0  0  0  0  0  0  0
   15.7057  -28.5445   -0.0428 O   0  0  0  0  0  0  0  0  0  0  0  0
  1  2  1  0
  3  2  1  0
  3  4  1  6
  5  3  1  0
  5  6  1  1
  7  5  1  0
  8  7  2  0
  9 10  1  0
 10 11  2  0
 12 13  1  0
 12 10  1  0
 13 14  1  0
 14 15  1  0
 16 15  1  6
 16 17  1  0
 17  7  1  0
 18 16  1  0
 18 19  2  0
 21 20  1  0
 21 22  1  0
 22 23  1  1
 24 22  1  0
 24 25  1  6
 25 18  1  0
 26 24  1  0
 27 26  1  0
 28 26  2  0
M  END
$$$$
