IRI.pdb
     RDKit          3D

 28 27  0  0  1  0  0  0  0  0999 V2000
   28.2512  -21.1450  -12.9213 C   0  0  0  0  0  0  0  0  0  0  0  0
   27.0164  -20.5950  -12.3012 C   0  0  0  0  0  0  0  0  0  0  0  0
   25.7379  -21.1585  -12.8850 C   0  0  2  0  0  0  0  0  0  0  0  0
   25.6070  -20.8513  -14.3514 C   0  0  0  0  0  0  0  0  0  0  0  0
   24.5310  -20.5651  -12.1770 C   0  0  2  0  0  0  0  0  0  0  0  0
   24.5142  -20.9431  -10.7739 N   0  0  0  0  0  0  0  0  0  0  0  0
   23.2958  -21.0706  -12.8497 C   0  0  0  0  0  0  0  0  0  0  0  0
   23.0605  -20.8548  -14.0639 O   0  0  0  0  0  0  0  0  0  0  0  0
   18.2812  -24.6690   -7.3391 N   0  0  0  0  0  0  0  0  0  0  0  0
   17.6814  -24.7147   -8.6438 C   0  0  0  0  0  0  0  0  0  0  0  0
   16.4484  -25.0797   -8.7790 N   0  0  0  0  0  0  0  0  0  0  0  0
   18.4445  -24.3577   -9.7939 N   0  0  0  0  0  0  0  0  0  0  0  0
   19.8265  -23.9534   -9.5595 C   0  0  0  0  0  0  0  0  0  0  0  0
   20.2297  -22.8241  -10.4661 C   0  0  0  0  0  0  0  0  0  0  0  0
   20.5220  -23.3645  -11.8334 C   0  0  0  0  0  0  0  0  0  0  0  0
   21.1068  -22.3282  -12.7217 C   0  0  2  0  0  0  0  0  0  0  0  0
   22.3577  -21.8188  -12.0926 N   0  0  0  0  0  0  0  0  0  0  0  0
   20.2578  -21.1817  -13.0430 C   0  0  0  0  0  0  0  0  0  0  0  0
   20.5427  -20.0451  -12.6114 O   0  0  0  0  0  0  0  0  0  0  0  0
   15.9850  -25.1162   -9.6934 C   0  0  0  0  0  0  0  0  0  0  0  0
   19.9996  -18.1784  -17.3694 C   0  0  0  0  0  0  0  0  0  0  0  0
   18.9057  -19.0396  -16.8365 C   0  0  2  0  0  0  0  0  0  0  0  0
   19.3675  -20.0425  -15.8345 C   0  0  0  0  0  0  0  0  0  0  0  0
   19.5400  -21.4147  -16.5237 C   0  0  2  0  0  0  0  0  0  0  0  0
   18.5412  -20.1925  -14.6015 N   0  0  0  0  0  0  0  0  0  0  0  0
   19.0906  -21.3112  -13.8476 C   0  0  0  0  0  0  0  0  0  0  0  0
   17.1004  -20.3762  -14.7824 O   0  0  0  0  0  0  0  0  0  0  0  0
   16.2393  -19.3006  -14.9779 O   0  0  0  0  0  0  0  0  0  0  0  0
  1  2  1  0
  3  2  1  0
  3  4  1  6
  5  3  1  0
  5  6  1  1
  7  5  1  0
  8  7  2  0
  9 10  1  0
 10 11  2  0
 12 13  1  0
 12 10  1  0
 13 14  1  0
 14 15  1  0
 16 15  1  1
 16 17  1  0
 17  7  1  0
 18 16  1  0
 18 19  2  0
 21 20  1  0
 21 22  1  0
 22 23  1  1
 24 22  1  0
 24 25  1  6
 25 18  1  0
 26 24  1  0
 27 26  1  0
 28 26  2  0
M  END
$$$$
