IRI.pdb
     RDKit          3D

 28 27  0  0  1  0  0  0  0  0999 V2000
   20.6290  -18.8740  -13.1906 C   0  0  0  0  0  0  0  0  0  0  0  0
   20.8986  -20.2974  -12.8543 C   0  0  0  0  0  0  0  0  0  0  0  0
   19.8246  -20.9356  -11.9986 C   0  0  2  0  0  0  0  0  0  0  0  0
   19.6615  -20.2279  -10.6815 C   0  0  0  0  0  0  0  0  0  0  0  0
   20.1780  -22.3846  -11.7062 C   0  0  2  0  0  0  0  0  0  0  0  0
   20.4351  -23.1148  -12.9360 N   0  0  0  0  0  0  0  0  0  0  0  0
   19.0322  -23.0105  -10.9788 C   0  0  0  0  0  0  0  0  0  0  0  0
   18.6712  -22.6222   -9.8408 O   0  0  0  0  0  0  0  0  0  0  0  0
   14.8646  -29.1333  -10.7671 N   0  0  0  0  0  0  0  0  0  0  0  0
   13.5193  -28.6948  -11.0157 C   0  0  0  0  0  0  0  0  0  0  0  0
   12.5232  -29.3174  -10.4753 N   0  0  0  0  0  0  0  0  0  0  0  0
   13.2784  -27.5712  -11.8595 N   0  0  0  0  0  0  0  0  0  0  0  0
   14.4544  -26.8986  -12.4010 C   0  0  0  0  0  0  0  0  0  0  0  0
   15.2379  -26.2072  -11.3203 C   0  0  0  0  0  0  0  0  0  0  0  0
   16.3521  -25.4195  -11.9409 C   0  0  0  0  0  0  0  0  0  0  0  0
   17.1572  -24.7047  -10.9182 C   0  0  2  0  0  0  0  0  0  0  0  0
   18.3286  -24.0784  -11.5933 N   0  0  0  0  0  0  0  0  0  0  0  0
   17.6495  -25.5003   -9.7944 C   0  0  0  0  0  0  0  0  0  0  0  0
   18.7343  -26.1126   -9.8822 O   0  0  0  0  0  0  0  0  0  0  0  0
   11.5486  -29.0555  -10.6591 C   0  0  0  0  0  0  0  0  0  0  0  0
   18.2280  -23.5503   -4.9844 C   0  0  0  0  0  0  0  0  0  0  0  0
   18.3377  -24.3904   -6.2109 C   0  0  2  0  0  0  0  0  0  0  0  0
   17.3759  -25.5292   -6.2447 C   0  0  0  0  0  0  0  0  0  0  0  0
   17.5490  -26.3852   -4.9699 C   0  0  2  0  0  0  0  0  0  0  0  0
   17.4090  -26.4032   -7.4532 N   0  0  0  0  0  0  0  0  0  0  0  0
   16.9251  -25.6083   -8.5738 C   0  0  0  0  0  0  0  0  0  0  0  0
   16.6701  -27.6648   -7.3843 O   0  0  0  0  0  0  0  0  0  0  0  0
   17.2771  -28.8537   -6.9911 O   0  0  0  0  0  0  0  0  0  0  0  0
  1  2  1  0
  3  2  1  0
  3  4  1  1
  5  3  1  0
  5  6  1  6
  7  5  1  0
  8  7  2  0
  9 10  1  0
 10 11  2  0
 12 13  1  0
 12 10  1  0
 13 14  1  0
 14 15  1  0
 16 15  1  6
 16 17  1  0
 17  7  1  0
 18 16  1  0
 18 19  2  0
 21 20  1  0
 21 22  1  0
 22 23  1  6
 24 22  1  0
 24 25  1  6
 25 18  1  0
 26 24  1  0
 27 26  1  0
 28 26  2  0
M  END
$$$$
