VNH.pdb
     RDKit          3D

 26 26  0  0  1  0  0  0  0  0999 V2000
    8.5367  -12.7972   18.1072 C   0  0  0  0  0  0  0  0  0  0  0  0
    8.4453  -13.2179   19.5610 C   0  0  1  0  0  0  0  0  0  0  0  0
    7.5775  -12.2221   20.2973 C   0  0  0  0  0  0  0  0  0  0  0  0
    7.8572  -14.5743   19.7345 C   0  0  2  0  0  0  0  0  0  0  0  0
    6.6707  -14.6886   18.9367 N   0  0  0  0  0  0  0  0  0  0  0  0
    7.6724  -14.9748   21.1410 C   0  0  0  0  0  0  0  0  0  0  0  0
    6.6233  -14.5985   21.7216 O   0  0  0  0  0  0  0  0  0  0  0  0
    7.7324  -17.2607   25.7123 N   0  0  0  0  0  0  0  0  0  0  0  0
    6.8597  -17.6148   24.6459 C   0  0  0  0  0  0  0  0  0  0  0  0
    5.9005  -18.3576   24.8755 O   0  0  0  0  0  0  0  0  0  0  0  0
    7.1278  -17.0852   23.3054 C   0  0  0  0  0  0  0  0  0  0  0  0
    8.3863  -16.2558   23.2211 C   0  0  2  0  0  0  0  0  0  0  0  0
    8.5846  -15.7481   21.8824 N   0  0  0  0  0  0  0  0  0  0  0  0
    9.5501  -17.0286   23.7036 C   0  0  0  0  0  0  0  0  0  0  0  0
    9.8467  -18.1116   23.1530 O   0  0  0  0  0  0  0  0  0  0  0  0
   10.3562  -16.5868   24.7805 N   0  0  0  0  0  0  0  0  0  0  0  0
   11.6255  -17.2565   25.1284 C   0  0  1  0  0  0  0  0  0  0  0  0
   12.7465  -16.2736   25.0242 C   0  0  0  0  0  0  0  0  0  0  0  0
   13.1081  -16.0607   23.6169 C   0  0  0  0  0  0  0  0  0  0  0  0
   12.4554  -16.6242   22.5380 C   0  0  0  0  0  0  0  0  0  0  0  0
   13.0277  -16.2344   21.3923 N   0  0  0  0  0  0  0  0  0  0  0  0
   14.0425  -15.4236   21.7587 C   0  0  0  0  0  0  0  0  0  0  0  0
   14.0904  -15.3197   23.0931 N   0  0  0  0  0  0  0  0  0  0  0  0
   11.4756  -17.6908   26.5397 C   0  0  0  0  0  0  0  0  0  0  0  0
   12.4445  -18.4581   27.2010 O   0  0  0  0  0  0  0  0  0  0  0  0
   10.4382  -17.3659   27.1908 O   0  0  0  0  0  0  0  0  0  0  0  0
  2  1  1  6
  3  2  1  0
  4  2  1  0
  4  6  1  0
  4  5  1  6
  6 13  1  0
  6  7  2  0
  9 10  2  0
  9  8  1  0
 11  9  1  0
 12 11  1  6
 13 12  1  0
 14 12  1  0
 14 15  2  0
 16 14  1  0
 17 16  1  0
 17 18  1  1
 19 18  1  0
 19 23  1  0
 20 21  1  0
 20 19  2  0
 21 22  1  0
 22 23  2  0
 24 17  1  0
 25 24  1  0
 26 24  2  0
M  END
$$$$
