VNH.pdb
     RDKit          3D

 26 26  0  0  1  0  0  0  0  0999 V2000
    8.6030  -13.3785   19.1309 C   0  0  0  0  0  0  0  0  0  0  0  0
    8.3441  -13.9809   20.4979 C   0  0  1  0  0  0  0  0  0  0  0  0
    7.6683  -12.9408   21.3630 C   0  0  0  0  0  0  0  0  0  0  0  0
    7.4725  -15.1865   20.4428 C   0  0  2  0  0  0  0  0  0  0  0  0
    6.3471  -14.9266   19.5923 N   0  0  0  0  0  0  0  0  0  0  0  0
    7.1098  -15.7279   21.7649 C   0  0  0  0  0  0  0  0  0  0  0  0
    6.0677  -15.2857   22.3105 O   0  0  0  0  0  0  0  0  0  0  0  0
    6.6282  -18.7049   25.9531 N   0  0  0  0  0  0  0  0  0  0  0  0
    6.9169  -19.4895   24.8019 C   0  0  0  0  0  0  0  0  0  0  0  0
    6.7933  -20.7165   24.8642 O   0  0  0  0  0  0  0  0  0  0  0  0
    7.3529  -18.8147   23.5756 C   0  0  0  0  0  0  0  0  0  0  0  0
    7.4776  -17.3170   23.7187 C   0  0  2  0  0  0  0  0  0  0  0  0
    7.8449  -16.7044   22.4620 N   0  0  0  0  0  0  0  0  0  0  0  0
    8.4219  -16.9764   24.8033 C   0  0  0  0  0  0  0  0  0  0  0  0
    9.6527  -17.0875   24.6115 O   0  0  0  0  0  0  0  0  0  0  0  0
    7.9843  -16.5222   26.0710 N   0  0  0  0  0  0  0  0  0  0  0  0
    8.9263  -15.9837   27.0726 C   0  0  1  0  0  0  0  0  0  0  0  0
    8.1783  -15.1289   28.0438 C   0  0  0  0  0  0  0  0  0  0  0  0
    7.4932  -14.0374   27.3394 C   0  0  0  0  0  0  0  0  0  0  0  0
    7.5957  -13.7816   25.9860 C   0  0  0  0  0  0  0  0  0  0  0  0
    6.8511  -12.7193   25.6554 N   0  0  0  0  0  0  0  0  0  0  0  0
    6.2815  -12.3106   26.8086 C   0  0  0  0  0  0  0  0  0  0  0  0
    6.6669  -13.1014   27.8184 N   0  0  0  0  0  0  0  0  0  0  0  0
    9.4813  -17.1663   27.7770 C   0  0  0  0  0  0  0  0  0  0  0  0
   10.4661  -17.0614   28.7690 O   0  0  0  0  0  0  0  0  0  0  0  0
    9.0621  -18.3260   27.4853 O   0  0  0  0  0  0  0  0  0  0  0  0
  2  1  1  6
  3  2  1  0
  4  2  1  0
  4  6  1  0
  4  5  1  1
  6 13  1  0
  6  7  2  0
  9 10  2  0
  9  8  1  0
 11  9  1  0
 12 11  1  6
 13 12  1  0
 14 12  1  0
 14 15  2  0
 16 14  1  0
 17 16  1  0
 17 18  1  1
 19 18  1  0
 19 23  1  0
 20 21  1  0
 20 19  2  0
 21 22  1  0
 22 23  2  0
 24 17  1  0
 25 24  1  0
 26 24  2  0
M  END
$$$$
