VNH.pdb
     RDKit          3D

 26 26  0  0  1  0  0  0  0  0999 V2000
    8.6545  -11.9530   19.6705 C   0  0  0  0  0  0  0  0  0  0  0  0
    8.6985  -13.2250   20.4945 C   0  0  1  0  0  0  0  0  0  0  0  0
    7.3570  -13.4099   21.1675 C   0  0  0  0  0  0  0  0  0  0  0  0
    8.9856  -14.4346   19.6757 C   0  0  2  0  0  0  0  0  0  0  0  0
    8.1307  -14.4486   18.5240 N   0  0  0  0  0  0  0  0  0  0  0  0
    8.9785  -15.6947   20.4405 C   0  0  0  0  0  0  0  0  0  0  0  0
    8.3635  -16.6731   19.9469 O   0  0  0  0  0  0  0  0  0  0  0  0
   13.4362  -18.8130   21.4880 N   0  0  0  0  0  0  0  0  0  0  0  0
   12.0145  -18.7598   21.4993 C   0  0  0  0  0  0  0  0  0  0  0  0
   11.3774  -19.7722   21.8056 O   0  0  0  0  0  0  0  0  0  0  0  0
   11.3497  -17.5018   21.1461 C   0  0  0  0  0  0  0  0  0  0  0  0
   10.2830  -17.0827   22.1285 C   0  0  2  0  0  0  0  0  0  0  0  0
    9.6101  -15.8832   21.6836 N   0  0  0  0  0  0  0  0  0  0  0  0
   10.8552  -16.9324   23.4829 C   0  0  0  0  0  0  0  0  0  0  0  0
   11.7050  -17.7538   23.8916 O   0  0  0  0  0  0  0  0  0  0  0  0
   10.4752  -15.8804   24.3510 N   0  0  0  0  0  0  0  0  0  0  0  0
    9.8196  -16.1403   25.6484 C   0  0  1  0  0  0  0  0  0  0  0  0
    8.3727  -16.4362   25.4194 C   0  0  0  0  0  0  0  0  0  0  0  0
    7.6261  -15.1903   25.2025 C   0  0  0  0  0  0  0  0  0  0  0  0
    8.1720  -13.9224   25.2470 C   0  0  0  0  0  0  0  0  0  0  0  0
    7.2303  -13.0014   25.0080 N   0  0  0  0  0  0  0  0  0  0  0  0
    6.0913  -13.6987   24.8135 C   0  0  0  0  0  0  0  0  0  0  0  0
    6.3290  -15.0115   24.9303 N   0  0  0  0  0  0  0  0  0  0  0  0
   10.4905  -17.3426   26.2025 C   0  0  0  0  0  0  0  0  0  0  0  0
   11.1900  -18.2547   25.4002 O   0  0  0  0  0  0  0  0  0  0  0  0
   10.4412  -17.5726   27.4477 O   0  0  0  0  0  0  0  0  0  0  0  0
  2  1  1  6
  3  2  1  0
  4  2  1  0
  4  6  1  0
  4  5  1  6
  6 13  1  0
  6  7  2  0
  9 10  2  0
  9  8  1  0
 11  9  1  0
 12 11  1  6
 13 12  1  0
 14 12  1  0
 14 15  2  0
 16 14  1  0
 17 16  1  0
 17 18  1  6
 19 18  1  0
 19 23  1  0
 20 21  1  0
 20 19  2  0
 21 22  1  0
 22 23  2  0
 24 17  1  0
 25 24  1  0
 26 24  2  0
M  END
$$$$
