VNH.pdb
     RDKit          3D

 26 26  0  0  1  0  0  0  0  0999 V2000
    9.3547  -12.4421   20.0405 C   0  0  0  0  0  0  0  0  0  0  0  0
    8.4083  -13.4730   19.4570 C   0  0  1  0  0  0  0  0  0  0  0  0
    7.1157  -12.7833   19.0824 C   0  0  0  0  0  0  0  0  0  0  0  0
    8.9559  -14.1391   18.2436 C   0  0  2  0  0  0  0  0  0  0  0  0
    7.9440  -14.9660   17.6521 N   0  0  0  0  0  0  0  0  0  0  0  0
   10.2390  -14.8304   18.4637 C   0  0  0  0  0  0  0  0  0  0  0  0
   10.1995  -16.0108   18.8928 O   0  0  0  0  0  0  0  0  0  0  0  0
   15.3100  -16.3029   17.2572 N   0  0  0  0  0  0  0  0  0  0  0  0
   15.1598  -14.9748   17.7448 C   0  0  0  0  0  0  0  0  0  0  0  0
   16.1255  -14.4156   18.2734 O   0  0  0  0  0  0  0  0  0  0  0  0
   13.8604  -14.3108   17.6035 C   0  0  0  0  0  0  0  0  0  0  0  0
   12.7833  -14.8909   18.4880 C   0  0  2  0  0  0  0  0  0  0  0  0
   11.5062  -14.2657   18.2286 N   0  0  0  0  0  0  0  0  0  0  0  0
   13.1731  -14.7959   19.9104 C   0  0  0  0  0  0  0  0  0  0  0  0
   13.4690  -13.6835   20.3994 O   0  0  0  0  0  0  0  0  0  0  0  0
   13.2266  -15.9301   20.7564 N   0  0  0  0  0  0  0  0  0  0  0  0
   13.5319  -15.8133   22.1964 C   0  0  1  0  0  0  0  0  0  0  0  0
   12.8159  -16.8930   22.9416 C   0  0  0  0  0  0  0  0  0  0  0  0
   11.3837  -16.5825   23.0371 C   0  0  0  0  0  0  0  0  0  0  0  0
   10.8047  -15.3902   22.6488 C   0  0  0  0  0  0  0  0  0  0  0  0
    9.4839  -15.4220   22.8648 N   0  0  0  0  0  0  0  0  0  0  0  0
    9.2381  -16.6404   23.3905 C   0  0  0  0  0  0  0  0  0  0  0  0
   10.3778  -17.3362   23.4937 N   0  0  0  0  0  0  0  0  0  0  0  0
   14.9973  -16.0174   22.3131 C   0  0  0  0  0  0  0  0  0  0  0  0
   15.6830  -15.8929   23.5293 O   0  0  0  0  0  0  0  0  0  0  0  0
   15.6745  -16.3166   21.2846 O   0  0  0  0  0  0  0  0  0  0  0  0
  2  1  1  6
  3  2  1  0
  4  2  1  0
  4  6  1  0
  4  5  1  1
  6 13  1  0
  6  7  2  0
  9 10  2  0
  9  8  1  0
 11  9  1  0
 12 11  1  6
 13 12  1  0
 14 12  1  0
 14 15  2  0
 16 14  1  0
 17 16  1  0
 17 18  1  1
 19 18  1  0
 19 23  1  0
 20 21  1  0
 20 19  2  0
 21 22  1  0
 22 23  2  0
 24 17  1  0
 25 24  1  0
 26 24  2  0
M  END
$$$$
