VNH.pdb
     RDKit          3D

 26 26  0  0  1  0  0  0  0  0999 V2000
    8.8406  -12.9213   21.1162 C   0  0  0  0  0  0  0  0  0  0  0  0
    8.0098  -13.3798   19.9336 C   0  0  1  0  0  0  0  0  0  0  0  0
    8.0386  -12.2991   18.8763 C   0  0  0  0  0  0  0  0  0  0  0  0
    8.5126  -14.6439   19.3292 C   0  0  2  0  0  0  0  0  0  0  0  0
    7.7222  -14.9733   18.1786 N   0  0  0  0  0  0  0  0  0  0  0  0
    8.6614  -15.7525   20.2892 C   0  0  0  0  0  0  0  0  0  0  0  0
    7.6330  -16.4127   20.5819 O   0  0  0  0  0  0  0  0  0  0  0  0
   12.1217  -18.5882   19.3641 N   0  0  0  0  0  0  0  0  0  0  0  0
   11.1673  -18.7909   20.3996 C   0  0  0  0  0  0  0  0  0  0  0  0
   10.2804  -19.6355   20.2428 O   0  0  0  0  0  0  0  0  0  0  0  0
   11.2676  -17.9886   21.6226 C   0  0  0  0  0  0  0  0  0  0  0  0
   10.0407  -17.1554   21.9040 C   0  0  2  0  0  0  0  0  0  0  0  0
    9.8712  -16.1267   20.9027 N   0  0  0  0  0  0  0  0  0  0  0  0
   10.0937  -16.5997   23.2724 C   0  0  0  0  0  0  0  0  0  0  0  0
   10.9968  -15.7905   23.5785 O   0  0  0  0  0  0  0  0  0  0  0  0
    9.1495  -16.9509   24.2674 N   0  0  0  0  0  0  0  0  0  0  0  0
    9.2304  -16.4148   25.6410 C   0  0  1  0  0  0  0  0  0  0  0  0
    7.8501  -16.1509   26.1495 C   0  0  0  0  0  0  0  0  0  0  0  0
    7.3724  -14.8464   25.6730 C   0  0  0  0  0  0  0  0  0  0  0  0
    8.1243  -13.9464   24.9435 C   0  0  0  0  0  0  0  0  0  0  0  0
    7.4019  -12.8544   24.6647 N   0  0  0  0  0  0  0  0  0  0  0  0
    6.1932  -13.0746   25.2234 C   0  0  0  0  0  0  0  0  0  0  0  0
    6.1760  -14.2695   25.8281 N   0  0  0  0  0  0  0  0  0  0  0  0
    9.8621  -17.4851   26.4521 C   0  0  0  0  0  0  0  0  0  0  0  0
   10.2590  -18.7131   25.9050 O   0  0  0  0  0  0  0  0  0  0  0  0
   10.0597  -17.3021   27.6904 O   0  0  0  0  0  0  0  0  0  0  0  0
  2  1  1  1
  3  2  1  0
  4  2  1  0
  4  6  1  0
  4  5  1  6
  6 13  1  0
  6  7  2  0
  9 10  2  0
  9  8  1  0
 11  9  1  0
 12 11  1  6
 13 12  1  0
 14 12  1  0
 14 15  2  0
 16 14  1  0
 17 16  1  0
 17 18  1  1
 19 18  1  0
 19 23  1  0
 20 21  1  0
 20 19  2  0
 21 22  1  0
 22 23  2  0
 24 17  1  0
 25 24  1  0
 26 24  2  0
M  END
$$$$
