VNH.pdb
     RDKit          3D

 26 26  0  0  1  0  0  0  0  0999 V2000
    7.7448  -12.1225   19.1664 C   0  0  0  0  0  0  0  0  0  0  0  0
    8.8779  -13.0852   19.4638 C   0  0  1  0  0  0  0  0  0  0  0  0
    8.4791  -13.9510   20.6377 C   0  0  0  0  0  0  0  0  0  0  0  0
    9.2004  -13.9718   18.3124 C   0  0  2  0  0  0  0  0  0  0  0  0
    8.0116  -14.6472   17.8789 N   0  0  0  0  0  0  0  0  0  0  0  0
   10.3460  -14.8695   18.5465 C   0  0  0  0  0  0  0  0  0  0  0  0
   10.1005  -16.0400   18.9323 O   0  0  0  0  0  0  0  0  0  0  0  0
   13.3473  -15.0454   15.1726 N   0  0  0  0  0  0  0  0  0  0  0  0
   13.5062  -15.8572   16.3300 C   0  0  0  0  0  0  0  0  0  0  0  0
   13.3150  -17.0739   16.2419 O   0  0  0  0  0  0  0  0  0  0  0  0
   13.8930  -15.2219   17.5934 C   0  0  0  0  0  0  0  0  0  0  0  0
   12.8452  -15.3336   18.6744 C   0  0  2  0  0  0  0  0  0  0  0  0
   11.6954  -14.5123   18.3695 N   0  0  0  0  0  0  0  0  0  0  0  0
   13.4261  -15.0132   19.9950 C   0  0  0  0  0  0  0  0  0  0  0  0
   13.8467  -13.8578   20.2237 O   0  0  0  0  0  0  0  0  0  0  0  0
   13.5281  -15.9752   21.0289 N   0  0  0  0  0  0  0  0  0  0  0  0
   14.1697  -15.6633   22.3218 C   0  0  1  0  0  0  0  0  0  0  0  0
   13.6749  -16.6168   23.3608 C   0  0  0  0  0  0  0  0  0  0  0  0
   12.2703  -16.3344   23.6837 C   0  0  0  0  0  0  0  0  0  0  0  0
   11.5360  -15.2833   23.1704 C   0  0  0  0  0  0  0  0  0  0  0  0
   10.2906  -15.3022   23.6608 N   0  0  0  0  0  0  0  0  0  0  0  0
   10.2480  -16.3706   24.4843 C   0  0  0  0  0  0  0  0  0  0  0  0
   11.4357  -16.9894   24.4978 N   0  0  0  0  0  0  0  0  0  0  0  0
   15.6235  -15.8723   22.1083 C   0  0  0  0  0  0  0  0  0  0  0  0
   16.5862  -15.5161   23.0628 O   0  0  0  0  0  0  0  0  0  0  0  0
   16.0320  -16.3920   21.0272 O   0  0  0  0  0  0  0  0  0  0  0  0
  2  1  1  6
  3  2  1  0
  4  2  1  0
  4  6  1  0
  4  5  1  1
  6 13  1  0
  6  7  2  0
  9 10  2  0
  9  8  1  0
 11  9  1  0
 12 11  1  6
 13 12  1  0
 14 12  1  0
 14 15  2  0
 16 14  1  0
 17 16  1  0
 17 18  1  1
 19 18  1  0
 19 23  1  0
 20 21  1  0
 20 19  2  0
 21 22  1  0
 22 23  2  0
 24 17  1  0
 25 24  1  0
 26 24  2  0
M  END
$$$$
