VNH.pdb
     RDKit          3D

 26 26  0  0  1  0  0  0  0  0999 V2000
    8.7822  -11.6841   18.8873 C   0  0  0  0  0  0  0  0  0  0  0  0
    8.7520  -12.9222   19.7620 C   0  0  1  0  0  0  0  0  0  0  0  0
    7.3321  -13.1463   20.2314 C   0  0  0  0  0  0  0  0  0  0  0  0
    9.2111  -14.1454   19.0487 C   0  0  2  0  0  0  0  0  0  0  0  0
    8.4431  -14.3185   17.8497 N   0  0  0  0  0  0  0  0  0  0  0  0
    9.2737  -15.3492   19.8972 C   0  0  0  0  0  0  0  0  0  0  0  0
    8.4884  -16.2929   19.6296 O   0  0  0  0  0  0  0  0  0  0  0  0
   12.5385  -15.7901   20.1400 N   0  0  0  0  0  0  0  0  0  0  0  0
   12.6132  -16.7892   21.1500 C   0  0  0  0  0  0  0  0  0  0  0  0
   13.6918  -16.9935   21.7151 O   0  0  0  0  0  0  0  0  0  0  0  0
   11.4042  -17.5463   21.4885 C   0  0  0  0  0  0  0  0  0  0  0  0
   10.2247  -16.6761   21.8498 C   0  0  2  0  0  0  0  0  0  0  0  0
   10.1489  -15.5198   20.9857 N   0  0  0  0  0  0  0  0  0  0  0  0
   10.2737  -16.3031   23.2790 C   0  0  0  0  0  0  0  0  0  0  0  0
   11.0742  -15.4223   23.6629 O   0  0  0  0  0  0  0  0  0  0  0  0
    9.4388  -16.9114   24.2475 N   0  0  0  0  0  0  0  0  0  0  0  0
    9.4081  -16.4487   25.6495 C   0  0  1  0  0  0  0  0  0  0  0  0
    7.9949  -16.4420   26.1358 C   0  0  0  0  0  0  0  0  0  0  0  0
    7.3088  -15.2223   25.6904 C   0  0  0  0  0  0  0  0  0  0  0  0
    7.9232  -14.1466   25.0797 C   0  0  0  0  0  0  0  0  0  0  0  0
    7.0243  -13.1954   24.7980 N   0  0  0  0  0  0  0  0  0  0  0  0
    5.8432  -13.6805   25.2354 C   0  0  0  0  0  0  0  0  0  0  0  0
    6.0143  -14.8962   25.7707 N   0  0  0  0  0  0  0  0  0  0  0  0
   10.1928  -17.4468   26.4180 C   0  0  0  0  0  0  0  0  0  0  0  0
   10.4778  -17.2959   27.7821 O   0  0  0  0  0  0  0  0  0  0  0  0
   10.6320  -18.4839   25.8371 O   0  0  0  0  0  0  0  0  0  0  0  0
  2  1  1  6
  3  2  1  0
  4  2  1  0
  4  6  1  0
  4  5  1  6
  6 13  1  0
  6  7  2  0
  9 10  2  0
  9  8  1  0
 11  9  1  0
 12 11  1  6
 13 12  1  0
 14 12  1  0
 14 15  2  0
 16 14  1  0
 17 16  1  0
 17 18  1  1
 19 18  1  0
 19 23  1  0
 20 21  1  0
 20 19  2  0
 21 22  1  0
 22 23  2  0
 24 17  1  0
 25 24  1  0
 26 24  2  0
M  END
$$$$
