VNH.pdb
     RDKit          3D

 26 26  0  0  1  0  0  0  0  0999 V2000
    8.1281  -12.8827   17.3364 C   0  0  0  0  0  0  0  0  0  0  0  0
    8.3944  -13.2375   18.7863 C   0  0  1  0  0  0  0  0  0  0  0  0
    7.7491  -12.1897   19.6653 C   0  0  0  0  0  0  0  0  0  0  0  0
    7.8501  -14.5703   19.1647 C   0  0  2  0  0  0  0  0  0  0  0  0
    6.4616  -14.6395   18.8117 N   0  0  0  0  0  0  0  0  0  0  0  0
    8.1329  -14.9626   20.5571 C   0  0  0  0  0  0  0  0  0  0  0  0
    7.9203  -14.1121   21.4575 O   0  0  0  0  0  0  0  0  0  0  0  0
    6.2930  -16.3153   21.7928 N   0  0  0  0  0  0  0  0  0  0  0  0
    6.6676  -17.4513   22.5631 C   0  0  0  0  0  0  0  0  0  0  0  0
    5.7869  -18.1987   22.9996 O   0  0  0  0  0  0  0  0  0  0  0  0
    8.0905  -17.6990   22.8146 C   0  0  0  0  0  0  0  0  0  0  0  0
    8.9972  -16.6099   22.2942 C   0  0  2  0  0  0  0  0  0  0  0  0
    8.6238  -16.2204   20.9532 N   0  0  0  0  0  0  0  0  0  0  0  0
   10.4122  -17.0273   22.3811 C   0  0  0  0  0  0  0  0  0  0  0  0
   10.8113  -18.0082   21.7159 O   0  0  0  0  0  0  0  0  0  0  0  0
   11.3500  -16.3522   23.1994 N   0  0  0  0  0  0  0  0  0  0  0  0
   12.7530  -16.8002   23.3079 C   0  0  1  0  0  0  0  0  0  0  0  0
   13.6607  -15.6260   23.1327 C   0  0  0  0  0  0  0  0  0  0  0  0
   13.7633  -15.2689   21.7119 C   0  0  0  0  0  0  0  0  0  0  0  0
   13.1067  -15.9164   20.6837 C   0  0  0  0  0  0  0  0  0  0  0  0
   13.4101  -15.3511   19.5087 N   0  0  0  0  0  0  0  0  0  0  0  0
   14.2602  -14.3459   19.8059 C   0  0  0  0  0  0  0  0  0  0  0  0
   14.4718  -14.2970   21.1274 N   0  0  0  0  0  0  0  0  0  0  0  0
   12.8965  -17.3378   24.6838 C   0  0  0  0  0  0  0  0  0  0  0  0
   14.0536  -17.9979   25.1201 O   0  0  0  0  0  0  0  0  0  0  0  0
   11.9474  -17.2055   25.5129 O   0  0  0  0  0  0  0  0  0  0  0  0
  2  1  1  6
  3  2  1  0
  4  2  1  0
  4  6  1  0
  4  5  1  1
  6 13  1  0
  6  7  2  0
  9 10  2  0
  9  8  1  0
 11  9  1  0
 12 11  1  6
 13 12  1  0
 14 12  1  0
 14 15  2  0
 16 14  1  0
 17 16  1  0
 17 18  1  1
 19 18  1  0
 19 23  1  0
 20 21  1  0
 20 19  2  0
 21 22  1  0
 22 23  2  0
 24 17  1  0
 25 24  1  0
 26 24  2  0
M  END
$$$$
