VNH.pdb
     RDKit          3D

 26 26  0  0  1  0  0  0  0  0999 V2000
    9.1296  -12.7239   20.6075 C   0  0  0  0  0  0  0  0  0  0  0  0
    8.3661  -13.5480   19.5893 C   0  0  1  0  0  0  0  0  0  0  0  0
    7.4313  -12.6324   18.8313 C   0  0  0  0  0  0  0  0  0  0  0  0
    9.2577  -14.2271   18.6096 C   0  0  2  0  0  0  0  0  0  0  0  0
    8.4699  -14.7756   17.5437 N   0  0  0  0  0  0  0  0  0  0  0  0
   10.1956  -15.1893   19.2155 C   0  0  0  0  0  0  0  0  0  0  0  0
    9.7780  -16.3549   19.4300 O   0  0  0  0  0  0  0  0  0  0  0  0
   14.6714  -14.0393   18.1973 N   0  0  0  0  0  0  0  0  0  0  0  0
   14.2500  -15.2860   18.7376 C   0  0  0  0  0  0  0  0  0  0  0  0
   14.2319  -16.2821   18.0082 O   0  0  0  0  0  0  0  0  0  0  0  0
   13.8498  -15.3486   20.1466 C   0  0  0  0  0  0  0  0  0  0  0  0
   12.4061  -15.7400   20.3505 C   0  0  2  0  0  0  0  0  0  0  0  0
   11.5255  -14.8988   19.5720 N   0  0  0  0  0  0  0  0  0  0  0  0
   12.0635  -15.7280   21.7881 C   0  0  0  0  0  0  0  0  0  0  0  0
   12.5322  -14.8369   22.5299 O   0  0  0  0  0  0  0  0  0  0  0  0
   11.2130  -16.6990   22.3700 N   0  0  0  0  0  0  0  0  0  0  0  0
   10.7972  -16.6218   23.7849 C   0  0  1  0  0  0  0  0  0  0  0  0
    9.3381  -16.9283   23.8877 C   0  0  0  0  0  0  0  0  0  0  0  0
    8.5479  -15.8593   23.2636 C   0  0  0  0  0  0  0  0  0  0  0  0
    8.2495  -14.6473   23.8548 C   0  0  0  0  0  0  0  0  0  0  0  0
    7.5140  -13.8944   23.0276 N   0  0  0  0  0  0  0  0  0  0  0  0
    7.3529  -14.6408   21.9148 C   0  0  0  0  0  0  0  0  0  0  0  0
    7.9731  -15.8193   22.0567 N   0  0  0  0  0  0  0  0  0  0  0  0
   11.5757  -17.6712   24.4890 C   0  0  0  0  0  0  0  0  0  0  0  0
   12.4366  -18.5510   23.8184 O   0  0  0  0  0  0  0  0  0  0  0  0
   11.4726  -17.7937   25.7460 O   0  0  0  0  0  0  0  0  0  0  0  0
  2  1  1  1
  3  2  1  0
  4  2  1  0
  4  6  1  0
  4  5  1  6
  6 13  1  0
  6  7  2  0
  9 10  2  0
  9  8  1  0
 11  9  1  0
 12 11  1  1
 13 12  1  0
 14 12  1  0
 14 15  2  0
 16 14  1  0
 17 16  1  0
 17 18  1  6
 19 18  1  0
 19 23  1  0
 20 21  1  0
 20 19  2  0
 21 22  1  0
 22 23  2  0
 24 17  1  0
 25 24  1  0
 26 24  2  0
M  END
$$$$
