VNH.pdb
     RDKit          3D

 26 26  0  0  1  0  0  0  0  0999 V2000
    6.6944  -16.0159   20.5669 C   0  0  0  0  0  0  0  0  0  0  0  0
    7.4712  -14.8458   19.9957 C   0  0  1  0  0  0  0  0  0  0  0  0
    6.8390  -14.4425   18.6825 C   0  0  0  0  0  0  0  0  0  0  0  0
    7.4795  -13.6618   20.8980 C   0  0  2  0  0  0  0  0  0  0  0  0
    8.0633  -12.5430   20.2162 N   0  0  0  0  0  0  0  0  0  0  0  0
    8.0618  -13.9218   22.2269 C   0  0  0  0  0  0  0  0  0  0  0  0
    9.3131  -13.8790   22.3339 O   0  0  0  0  0  0  0  0  0  0  0  0
    7.2378  -11.8323   25.0365 N   0  0  0  0  0  0  0  0  0  0  0  0
    6.5508  -12.7463   25.8830 C   0  0  0  0  0  0  0  0  0  0  0  0
    5.7166  -12.3135   26.6839 O   0  0  0  0  0  0  0  0  0  0  0  0
    6.8557  -14.1764   25.7771 C   0  0  0  0  0  0  0  0  0  0  0  0
    7.8566  -14.5049   24.6958 C   0  0  2  0  0  0  0  0  0  0  0  0
    7.3193  -14.2146   23.3857 N   0  0  0  0  0  0  0  0  0  0  0  0
    8.3088  -15.9068   24.8160 C   0  0  0  0  0  0  0  0  0  0  0  0
    7.5023  -16.8389   24.6041 O   0  0  0  0  0  0  0  0  0  0  0  0
    9.6384  -16.2442   25.1670 N   0  0  0  0  0  0  0  0  0  0  0  0
   10.0783  -17.6484   25.2905 C   0  0  1  0  0  0  0  0  0  0  0  0
   11.4121  -17.8070   24.6350 C   0  0  0  0  0  0  0  0  0  0  0  0
   11.2831  -17.6711   23.1784 C   0  0  0  0  0  0  0  0  0  0  0  0
   10.3026  -18.2694   22.4114 C   0  0  0  0  0  0  0  0  0  0  0  0
   10.4611  -17.9495   21.1211 N   0  0  0  0  0  0  0  0  0  0  0  0
   11.5461  -17.1478   21.0834 C   0  0  0  0  0  0  0  0  0  0  0  0
   12.0389  -16.9810   22.3176 N   0  0  0  0  0  0  0  0  0  0  0  0
   10.2080  -17.9010   26.7473 C   0  0  0  0  0  0  0  0  0  0  0  0
    9.8702  -16.9429   27.7131 O   0  0  0  0  0  0  0  0  0  0  0  0
   10.6391  -19.0204   27.1556 O   0  0  0  0  0  0  0  0  0  0  0  0
  2  1  1  1
  3  2  1  0
  4  2  1  0
  4  6  1  0
  4  5  1  6
  6 13  1  0
  6  7  2  0
  9 10  2  0
  9  8  1  0
 11  9  1  0
 12 11  1  1
 13 12  1  0
 14 12  1  0
 14 15  2  0
 16 14  1  0
 17 16  1  0
 17 18  1  6
 19 18  1  0
 19 23  1  0
 20 21  1  0
 20 19  2  0
 21 22  1  0
 22 23  2  0
 24 17  1  0
 25 24  1  0
 26 24  2  0
M  END
$$$$
