VNH.pdb
     RDKit          3D

 26 26  0  0  1  0  0  0  0  0999 V2000
    9.0324  -11.9598   18.8035 C   0  0  0  0  0  0  0  0  0  0  0  0
    9.0445  -13.0670   19.8393 C   0  0  1  0  0  0  0  0  0  0  0  0
    7.8316  -12.9085   20.7285 C   0  0  0  0  0  0  0  0  0  0  0  0
    9.0100  -14.4261   19.2332 C   0  0  2  0  0  0  0  0  0  0  0  0
    7.9502  -14.4950   18.2692 N   0  0  0  0  0  0  0  0  0  0  0  0
    8.9951  -15.5237   20.2170 C   0  0  0  0  0  0  0  0  0  0  0  0
    8.1693  -16.4543   20.0402 O   0  0  0  0  0  0  0  0  0  0  0  0
   11.9747  -16.6107   20.4709 N   0  0  0  0  0  0  0  0  0  0  0  0
   11.3003  -17.8568   20.5996 C   0  0  0  0  0  0  0  0  0  0  0  0
   11.6161  -18.7909   19.8565 O   0  0  0  0  0  0  0  0  0  0  0  0
   10.2495  -17.9923   21.6129 C   0  0  0  0  0  0  0  0  0  0  0  0
    9.8908  -16.6930   22.2926 C   0  0  2  0  0  0  0  0  0  0  0  0
    9.8381  -15.6066   21.3406 N   0  0  0  0  0  0  0  0  0  0  0  0
   10.8224  -16.4154   23.4058 C   0  0  0  0  0  0  0  0  0  0  0  0
   11.9628  -16.9288   23.4028 O   0  0  0  0  0  0  0  0  0  0  0  0
   10.4720  -15.5790   24.4933 N   0  0  0  0  0  0  0  0  0  0  0  0
    9.7511  -16.0974   25.6731 C   0  0  1  0  0  0  0  0  0  0  0  0
    8.3748  -16.5146   25.2662 C   0  0  0  0  0  0  0  0  0  0  0  0
    7.4491  -15.3785   25.3616 C   0  0  0  0  0  0  0  0  0  0  0  0
    7.7934  -14.1106   25.7876 C   0  0  0  0  0  0  0  0  0  0  0  0
    6.7251  -13.3043   25.7605 N   0  0  0  0  0  0  0  0  0  0  0  0
    5.7094  -14.0734   25.3153 C   0  0  0  0  0  0  0  0  0  0  0  0
    6.1441  -15.3175   25.0762 N   0  0  0  0  0  0  0  0  0  0  0  0
   10.5182  -17.2865   26.1208 C   0  0  0  0  0  0  0  0  0  0  0  0
   10.3386  -17.8704   27.3825 O   0  0  0  0  0  0  0  0  0  0  0  0
   11.3744  -17.8103   25.3473 O   0  0  0  0  0  0  0  0  0  0  0  0
  2  1  1  6
  3  2  1  0
  4  2  1  0
  4  6  1  0
  4  5  1  1
  6 13  1  0
  6  7  2  0
  9 10  2  0
  9  8  1  0
 11  9  1  0
 12 11  1  6
 13 12  1  0
 14 12  1  0
 14 15  2  0
 16 14  1  0
 17 16  1  0
 17 18  1  6
 19 18  1  0
 19 23  1  0
 20 21  1  0
 20 19  2  0
 21 22  1  0
 22 23  2  0
 24 17  1  0
 25 24  1  0
 26 24  2  0
M  END
$$$$
