VNH.pdb
     RDKit          3D

 26 26  0  0  1  0  0  0  0  0999 V2000
    8.6171  -11.9099   19.0330 C   0  0  0  0  0  0  0  0  0  0  0  0
    8.6111  -13.1645   19.8843 C   0  0  1  0  0  0  0  0  0  0  0  0
    7.2293  -13.3412   20.4727 C   0  0  0  0  0  0  0  0  0  0  0  0
    8.9542  -14.3894   19.1112 C   0  0  2  0  0  0  0  0  0  0  0  0
    8.1731  -14.4326   17.9090 N   0  0  0  0  0  0  0  0  0  0  0  0
    8.9048  -15.6331   19.9008 C   0  0  0  0  0  0  0  0  0  0  0  0
    7.9173  -16.3919   19.7328 O   0  0  0  0  0  0  0  0  0  0  0  0
   11.9584  -16.4904   20.1703 N   0  0  0  0  0  0  0  0  0  0  0  0
   11.8038  -17.8706   20.4788 C   0  0  0  0  0  0  0  0  0  0  0  0
   12.6252  -18.6807   20.0387 O   0  0  0  0  0  0  0  0  0  0  0  0
   10.6716  -18.2881   21.3114 C   0  0  0  0  0  0  0  0  0  0  0  0
    9.7860  -17.1461   21.7480 C   0  0  2  0  0  0  0  0  0  0  0  0
    9.8827  -16.0340   20.8298 N   0  0  0  0  0  0  0  0  0  0  0  0
   10.0961  -16.7514   23.1380 C   0  0  0  0  0  0  0  0  0  0  0  0
   10.9668  -15.8805   23.3558 O   0  0  0  0  0  0  0  0  0  0  0  0
    9.4379  -17.3275   24.2515 N   0  0  0  0  0  0  0  0  0  0  0  0
    9.6719  -16.8470   25.6281 C   0  0  1  0  0  0  0  0  0  0  0  0
    8.3628  -16.4933   26.2563 C   0  0  0  0  0  0  0  0  0  0  0  0
    7.8741  -15.2128   25.7288 C   0  0  0  0  0  0  0  0  0  0  0  0
    8.5951  -14.3682   24.9076 C   0  0  0  0  0  0  0  0  0  0  0  0
    7.8704  -13.2846   24.6030 N   0  0  0  0  0  0  0  0  0  0  0  0
    6.6915  -13.4544   25.2376 C   0  0  0  0  0  0  0  0  0  0  0  0
    6.6941  -14.6110   25.9128 N   0  0  0  0  0  0  0  0  0  0  0  0
   10.2780  -17.9909   26.3541 C   0  0  0  0  0  0  0  0  0  0  0  0
   10.7896  -17.8751   27.6539 O   0  0  0  0  0  0  0  0  0  0  0  0
   10.3454  -19.1260   25.7948 O   0  0  0  0  0  0  0  0  0  0  0  0
  2  1  1  6
  3  2  1  0
  4  2  1  0
  4  6  1  0
  4  5  1  6
  6 13  1  0
  6  7  2  0
  9 10  2  0
  9  8  1  0
 11  9  1  0
 12 11  1  6
 13 12  1  0
 14 12  1  0
 14 15  2  0
 16 14  1  0
 17 16  1  0
 17 18  1  1
 19 18  1  0
 19 23  1  0
 20 21  1  0
 20 19  2  0
 21 22  1  0
 22 23  2  0
 24 17  1  0
 25 24  1  0
 26 24  2  0
M  END
$$$$
