VNH.pdb
     RDKit          3D

 26 26  0  0  1  0  0  0  0  0999 V2000
    8.2156  -11.8612   18.8678 C   0  0  0  0  0  0  0  0  0  0  0  0
    9.0852  -12.9348   19.4925 C   0  0  1  0  0  0  0  0  0  0  0  0
    8.2738  -13.6631   20.5403 C   0  0  0  0  0  0  0  0  0  0  0  0
    9.5763  -13.9305   18.5008 C   0  0  2  0  0  0  0  0  0  0  0  0
    8.4882  -14.3565   17.6691 N   0  0  0  0  0  0  0  0  0  0  0  0
   10.3461  -15.0397   19.0923 C   0  0  0  0  0  0  0  0  0  0  0  0
    9.7710  -16.1507   19.2108 O   0  0  0  0  0  0  0  0  0  0  0  0
   14.3540  -17.5794   18.0646 N   0  0  0  0  0  0  0  0  0  0  0  0
   14.1911  -16.2163   18.4382 C   0  0  0  0  0  0  0  0  0  0  0  0
   14.2972  -15.3396   17.5752 O   0  0  0  0  0  0  0  0  0  0  0  0
   13.9017  -15.8953   19.8391 C   0  0  0  0  0  0  0  0  0  0  0  0
   12.4368  -15.9865   20.1924 C   0  0  2  0  0  0  0  0  0  0  0  0
   11.6786  -14.9465   19.5345 N   0  0  0  0  0  0  0  0  0  0  0  0
   12.2547  -15.9679   21.6589 C   0  0  0  0  0  0  0  0  0  0  0  0
   12.8660  -15.1230   22.3490 O   0  0  0  0  0  0  0  0  0  0  0  0
   11.4033  -16.8817   22.3260 N   0  0  0  0  0  0  0  0  0  0  0  0
   11.1835  -16.8179   23.7848 C   0  0  1  0  0  0  0  0  0  0  0  0
    9.8299  -17.3652   24.1040 C   0  0  0  0  0  0  0  0  0  0  0  0
    8.7853  -16.5071   23.5301 C   0  0  0  0  0  0  0  0  0  0  0  0
    8.9810  -15.2173   23.0767 C   0  0  0  0  0  0  0  0  0  0  0  0
    7.8330  -14.7073   22.6141 N   0  0  0  0  0  0  0  0  0  0  0  0
    6.9167  -15.6841   22.7798 C   0  0  0  0  0  0  0  0  0  0  0  0
    7.4882  -16.7635   23.3294 N   0  0  0  0  0  0  0  0  0  0  0  0
   12.2250  -17.6882   24.3853 C   0  0  0  0  0  0  0  0  0  0  0  0
   12.4292  -17.7773   25.7692 O   0  0  0  0  0  0  0  0  0  0  0  0
   12.9701  -18.3866   23.6351 O   0  0  0  0  0  0  0  0  0  0  0  0
  2  1  1  6
  3  2  1  0
  4  2  1  0
  4  6  1  0
  4  5  1  1
  6 13  1  0
  6  7  2  0
  9 10  2  0
  9  8  1  0
 11  9  1  0
 12 11  1  1
 13 12  1  0
 14 12  1  0
 14 15  2  0
 16 14  1  0
 17 16  1  0
 17 18  1  6
 19 18  1  0
 19 23  1  0
 20 21  1  0
 20 19  2  0
 21 22  1  0
 22 23  2  0
 24 17  1  0
 25 24  1  0
 26 24  2  0
M  END
$$$$
