VNH.pdb
     RDKit          3D

 26 26  0  0  1  0  0  0  0  0999 V2000
    9.2940  -12.1248   19.6228 C   0  0  0  0  0  0  0  0  0  0  0  0
    8.4363  -13.3584   19.4192 C   0  0  1  0  0  0  0  0  0  0  0  0
    7.0841  -12.9249   18.8992 C   0  0  0  0  0  0  0  0  0  0  0  0
    9.0279  -14.3202   18.4492 C   0  0  2  0  0  0  0  0  0  0  0  0
    8.0016  -15.1870   17.9464 N   0  0  0  0  0  0  0  0  0  0  0  0
   10.2158  -15.0313   18.9551 C   0  0  0  0  0  0  0  0  0  0  0  0
   10.1458  -16.2815   19.0617 O   0  0  0  0  0  0  0  0  0  0  0  0
   15.2298  -15.7924   17.4108 N   0  0  0  0  0  0  0  0  0  0  0  0
   14.9595  -14.5656   18.0785 C   0  0  0  0  0  0  0  0  0  0  0  0
   15.9010  -13.9066   18.5298 O   0  0  0  0  0  0  0  0  0  0  0  0
   13.5683  -14.1219   18.2097 C   0  0  0  0  0  0  0  0  0  0  0  0
   12.7514  -14.9601   19.1630 C   0  0  2  0  0  0  0  0  0  0  0  0
   11.4236  -14.4132   19.3279 N   0  0  0  0  0  0  0  0  0  0  0  0
   13.4562  -15.1142   20.4529 C   0  0  0  0  0  0  0  0  0  0  0  0
   14.6382  -15.5222   20.4688 O   0  0  0  0  0  0  0  0  0  0  0  0
   12.8389  -14.8144   21.6914 N   0  0  0  0  0  0  0  0  0  0  0  0
   12.6803  -15.8330   22.7487 C   0  0  1  0  0  0  0  0  0  0  0  0
   11.7602  -16.9068   22.2650 C   0  0  0  0  0  0  0  0  0  0  0  0
   10.3621  -16.4770   22.3967 C   0  0  0  0  0  0  0  0  0  0  0  0
    9.9488  -15.2951   22.9797 C   0  0  0  0  0  0  0  0  0  0  0  0
    8.6140  -15.2000   22.9435 N   0  0  0  0  0  0  0  0  0  0  0  0
    8.1927  -16.3285   22.3348 C   0  0  0  0  0  0  0  0  0  0  0  0
    9.2415  -17.0942   22.0070 N   0  0  0  0  0  0  0  0  0  0  0  0
   14.0347  -16.4000   22.9651 C   0  0  0  0  0  0  0  0  0  0  0  0
   14.3022  -17.3635   23.9475 O   0  0  0  0  0  0  0  0  0  0  0  0
   15.0017  -16.0115   22.2442 O   0  0  0  0  0  0  0  0  0  0  0  0
  2  1  1  6
  3  2  1  0
  4  2  1  0
  4  6  1  0
  4  5  1  1
  6 13  1  0
  6  7  2  0
  9 10  2  0
  9  8  1  0
 11  9  1  0
 12 11  1  6
 13 12  1  0
 14 12  1  0
 14 15  2  0
 16 14  1  0
 17 16  1  0
 17 18  1  6
 19 18  1  0
 19 23  1  0
 20 21  1  0
 20 19  2  0
 21 22  1  0
 22 23  2  0
 24 17  1  0
 25 24  1  0
 26 24  2  0
M  END
$$$$
