VNH.pdb
     RDKit          3D

 26 26  0  0  1  0  0  0  0  0999 V2000
    8.0181  -12.0402   18.9962 C   0  0  0  0  0  0  0  0  0  0  0  0
    9.1557  -12.9348   19.4482 C   0  0  1  0  0  0  0  0  0  0  0  0
    8.7650  -13.5888   20.7545 C   0  0  0  0  0  0  0  0  0  0  0  0
    9.4767  -14.0041   18.4635 C   0  0  2  0  0  0  0  0  0  0  0  0
    8.2679  -14.6602   18.0565 N   0  0  0  0  0  0  0  0  0  0  0  0
   10.5390  -14.9270   18.9020 C   0  0  0  0  0  0  0  0  0  0  0  0
   10.5461  -15.2770   20.1089 O   0  0  0  0  0  0  0  0  0  0  0  0
   13.9215  -16.6011   15.8767 N   0  0  0  0  0  0  0  0  0  0  0  0
   13.7968  -15.1915   16.0232 C   0  0  0  0  0  0  0  0  0  0  0  0
   13.7468  -14.4841   15.0123 O   0  0  0  0  0  0  0  0  0  0  0  0
   13.7315  -14.6223   17.3726 C   0  0  0  0  0  0  0  0  0  0  0  0
   12.9635  -15.4743   18.3540 C   0  0  2  0  0  0  0  0  0  0  0  0
   11.5468  -15.4458   18.0683 N   0  0  0  0  0  0  0  0  0  0  0  0
   13.2617  -15.0636   19.7420 C   0  0  0  0  0  0  0  0  0  0  0  0
   13.2297  -13.8521   20.0507 O   0  0  0  0  0  0  0  0  0  0  0  0
   13.5876  -15.9996   20.7532 N   0  0  0  0  0  0  0  0  0  0  0  0
   13.9475  -15.5742   22.1208 C   0  0  1  0  0  0  0  0  0  0  0  0
   13.4773  -16.6033   23.0973 C   0  0  0  0  0  0  0  0  0  0  0  0
   12.0326  -16.4678   23.3239 C   0  0  0  0  0  0  0  0  0  0  0  0
   11.2290  -15.5011   22.7520 C   0  0  0  0  0  0  0  0  0  0  0  0
    9.9623  -15.6480   23.1595 N   0  0  0  0  0  0  0  0  0  0  0  0
    9.9762  -16.7118   23.9899 C   0  0  0  0  0  0  0  0  0  0  0  0
   11.2182  -17.2032   24.0882 N   0  0  0  0  0  0  0  0  0  0  0  0
   15.4301  -15.5097   22.1430 C   0  0  0  0  0  0  0  0  0  0  0  0
   16.1493  -15.0384   23.2500 O   0  0  0  0  0  0  0  0  0  0  0  0
   16.0914  -15.8909   21.1315 O   0  0  0  0  0  0  0  0  0  0  0  0
  2  1  1  6
  3  2  1  0
  4  2  1  0
  4  6  1  0
  4  5  1  1
  6 13  1  0
  6  7  2  0
  9 10  2  0
  9  8  1  0
 11  9  1  0
 12 11  1  6
 13 12  1  0
 14 12  1  0
 14 15  2  0
 16 14  1  0
 17 16  1  0
 17 18  1  1
 19 18  1  0
 19 23  1  0
 20 21  1  0
 20 19  2  0
 21 22  1  0
 22 23  2  0
 24 17  1  0
 25 24  1  0
 26 24  2  0
M  END
$$$$
