FKS.pdb
     RDKit          3D

 27 27  0  0  1  0  0  0  0  0999 V2000
   25.3836  -17.7062  -18.6499 N   0  0  0  0  0  0  0  0  0  0  0  0
   24.9060  -16.5816  -17.8833 C   0  0  1  0  0  0  0  0  0  0  0  0
   26.0732  -15.7963  -17.3202 C   0  0  0  0  0  0  0  0  0  0  0  0
   26.8229  -16.6858  -16.3932 C   0  0  0  0  0  0  0  0  0  0  0  0
   26.3278  -16.9988  -15.1434 C   0  0  0  0  0  0  0  0  0  0  0  0
   27.0374  -17.8253  -14.2984 C   0  0  0  0  0  0  0  0  0  0  0  0
   28.2495  -18.3581  -14.6719 C   0  0  0  0  0  0  0  0  0  0  0  0
   28.7448  -18.0435  -15.9254 C   0  0  0  0  0  0  0  0  0  0  0  0
   28.0403  -17.2141  -16.7826 C   0  0  0  0  0  0  0  0  0  0  0  0
   24.1746  -15.6730  -18.7983 C   0  0  0  0  0  0  0  0  0  0  0  0
   24.5906  -15.4619  -19.9641 O   0  0  0  0  0  0  0  0  0  0  0  0
   22.9919  -15.0309  -18.3615 N   0  0  0  0  0  0  0  0  0  0  0  0
   22.2417  -14.2317  -19.3015 C   0  0  1  0  0  0  0  0  0  0  0  0
   21.0012  -14.9530  -19.7743 C   0  0  0  0  0  0  0  0  0  0  0  0
   19.9924  -15.1788  -18.7148 C   0  0  0  0  0  0  0  0  0  0  0  0
   18.8269  -15.9600  -19.2523 C   0  0  0  0  0  0  0  0  0  0  0  0
   17.8005  -16.1330  -18.1589 C   0  0  0  0  0  0  0  0  0  0  0  0
   16.7660  -17.0834  -18.5535 N   0  0  0  0  0  0  0  0  0  0  0  0
   21.9879  -12.8928  -18.7771 C   0  0  0  0  0  0  0  0  0  0  0  0
   21.8741  -12.6027  -17.5611 O   0  0  0  0  0  0  0  0  0  0  0  0
   22.0163   -9.5841  -21.4327 O   0  0  0  0  0  0  0  0  0  0  0  0
   22.4550   -9.4718  -20.1144 C   0  0  0  0  0  0  0  0  0  0  0  0
   21.6528  -10.4679  -19.2869 C   0  0  2  0  0  0  0  0  0  0  0  0
   21.8569  -11.8231  -19.7036 N   0  0  0  0  0  0  0  0  0  0  0  0
   20.2231  -10.1420  -19.2713 C   0  0  0  0  0  0  0  0  0  0  0  0
   19.7000   -9.1898  -18.3981 O   0  0  0  0  0  0  0  0  0  0  0  0
   19.4406  -10.7303  -20.0611 O   0  0  0  0  0  0  0  0  0  0  0  0
  2  3  1  0
  2  1  1  6
  4  3  1  0
  5  4  2  0
  6  5  1  0
  7  8  1  0
  7  6  2  0
  8  9  2  0
  9  4  1  0
 10  2  1  0
 11 10  2  0
 12 10  1  0
 13 19  1  0
 13 12  1  0
 13 14  1  1
 15 14  1  0
 16 15  1  0
 17 16  1  0
 18 17  1  0
 19 24  1  0
 20 19  2  0
 22 21  1  0
 23 22  1  6
 23 25  1  0
 24 23  1  0
 25 27  2  0
 25 26  1  0
M  END
$$$$
