FKS.pdb
     RDKit          3D

 27 27  0  0  1  0  0  0  0  0999 V2000
   19.5161  -13.8337  -16.7937 N   0  0  0  0  0  0  0  0  0  0  0  0
   18.5581  -12.7687  -16.6246 C   0  0  1  0  0  0  0  0  0  0  0  0
   17.9773  -12.8021  -15.2254 C   0  0  0  0  0  0  0  0  0  0  0  0
   17.0293  -13.9455  -15.1470 C   0  0  0  0  0  0  0  0  0  0  0  0
   15.7556  -13.8575  -15.6713 C   0  0  0  0  0  0  0  0  0  0  0  0
   14.8912  -14.9284  -15.5890 C   0  0  0  0  0  0  0  0  0  0  0  0
   15.2688  -16.1065  -14.9872 C   0  0  0  0  0  0  0  0  0  0  0  0
   16.5462  -16.1935  -14.4619 C   0  0  0  0  0  0  0  0  0  0  0  0
   17.4230  -15.1237  -14.5390 C   0  0  0  0  0  0  0  0  0  0  0  0
   19.2707  -11.4764  -16.7664 C   0  0  0  0  0  0  0  0  0  0  0  0
   20.4655  -11.3566  -16.3992 O   0  0  0  0  0  0  0  0  0  0  0  0
   18.6046  -10.3583  -17.3212 N   0  0  0  0  0  0  0  0  0  0  0  0
   19.3315   -9.1216  -17.4858 C   0  0  1  0  0  0  0  0  0  0  0  0
   19.0213   -8.4702  -18.8133 C   0  0  0  0  0  0  0  0  0  0  0  0
   19.5834   -9.1831  -19.9825 C   0  0  0  0  0  0  0  0  0  0  0  0
   19.1165   -8.5496  -21.2625 C   0  0  0  0  0  0  0  0  0  0  0  0
   19.6316   -9.3559  -22.4303 C   0  0  0  0  0  0  0  0  0  0  0  0
   19.1016   -8.8514  -23.6928 N   0  0  0  0  0  0  0  0  0  0  0  0
   19.1508   -8.2416  -16.3347 C   0  0  0  0  0  0  0  0  0  0  0  0
   18.0538   -8.0014  -15.7740 O   0  0  0  0  0  0  0  0  0  0  0  0
   22.5053   -6.1959  -14.8528 O   0  0  0  0  0  0  0  0  0  0  0  0
   21.5587   -6.6205  -13.9219 C   0  0  0  0  0  0  0  0  0  0  0  0
   20.2279   -6.7355  -14.6541 C   0  0  2  0  0  0  0  0  0  0  0  0
   20.2978   -7.5990  -15.7949 N   0  0  0  0  0  0  0  0  0  0  0  0
   19.6947   -5.4227  -15.0319 C   0  0  0  0  0  0  0  0  0  0  0  0
   19.6225   -5.0189  -16.3640 O   0  0  0  0  0  0  0  0  0  0  0  0
   19.2899   -4.6336  -14.1399 O   0  0  0  0  0  0  0  0  0  0  0  0
  2  3  1  0
  2  1  1  1
  4  3  1  0
  5  4  2  0
  6  5  1  0
  7  8  1  0
  7  6  2  0
  8  9  2  0
  9  4  1  0
 10  2  1  0
 11 10  2  0
 12 10  1  0
 13 19  1  0
 13 12  1  0
 13 14  1  6
 15 14  1  0
 16 15  1  0
 17 16  1  0
 18 17  1  0
 19 24  1  0
 20 19  2  0
 22 21  1  0
 23 22  1  6
 23 25  1  0
 24 23  1  0
 25 27  2  0
 25 26  1  0
M  END
$$$$
