FKS.pdb
     RDKit          3D

 27 27  0  0  1  0  0  0  0  0999 V2000
   28.4700  -20.7536   -8.6903 N   0  0  0  0  0  0  0  0  0  0  0  0
   27.0451  -20.8588   -8.4925 C   0  0  1  0  0  0  0  0  0  0  0  0
   26.5637  -19.7717   -7.5529 C   0  0  0  0  0  0  0  0  0  0  0  0
   27.2893  -19.9226   -6.2633 C   0  0  0  0  0  0  0  0  0  0  0  0
   28.2071  -18.9812   -5.8431 C   0  0  0  0  0  0  0  0  0  0  0  0
   28.8696  -19.1388   -4.6444 C   0  0  0  0  0  0  0  0  0  0  0  0
   28.6380  -20.2290   -3.8381 C   0  0  0  0  0  0  0  0  0  0  0  0
   27.7175  -21.1723   -4.2605 C   0  0  0  0  0  0  0  0  0  0  0  0
   27.0461  -21.0242   -5.4631 C   0  0  0  0  0  0  0  0  0  0  0  0
   26.3772  -20.6306   -9.7962 C   0  0  0  0  0  0  0  0  0  0  0  0
   26.7436  -19.6975  -10.5525 O   0  0  0  0  0  0  0  0  0  0  0  0
   25.3126  -21.4694  -10.2022 N   0  0  0  0  0  0  0  0  0  0  0  0
   24.7379  -21.2850  -11.5139 C   0  0  1  0  0  0  0  0  0  0  0  0
   25.0855  -22.4303  -12.4359 C   0  0  0  0  0  0  0  0  0  0  0  0
   24.9731  -22.1033  -13.8752 C   0  0  0  0  0  0  0  0  0  0  0  0
   26.2269  -21.4354  -14.3651 C   0  0  0  0  0  0  0  0  0  0  0  0
   26.0830  -21.1314  -15.8368 C   0  0  0  0  0  0  0  0  0  0  0  0
   25.8299  -22.3471  -16.6031 N   0  0  0  0  0  0  0  0  0  0  0  0
   23.3081  -20.9997  -11.4325 C   0  0  0  0  0  0  0  0  0  0  0  0
   22.5323  -21.4417  -10.5503 O   0  0  0  0  0  0  0  0  0  0  0  0
   21.4246  -17.6912  -13.2536 O   0  0  0  0  0  0  0  0  0  0  0  0
   20.9564  -18.9513  -13.6224 C   0  0  0  0  0  0  0  0  0  0  0  0
   21.3252  -19.9142  -12.5012 C   0  0  2  0  0  0  0  0  0  0  0  0
   22.7348  -20.1568  -12.4228 N   0  0  0  0  0  0  0  0  0  0  0  0
   20.5882  -21.1781  -12.5993 C   0  0  0  0  0  0  0  0  0  0  0  0
   19.3808  -21.3739  -11.9308 O   0  0  0  0  0  0  0  0  0  0  0  0
   21.0476  -22.1153  -13.3012 O   0  0  0  0  0  0  0  0  0  0  0  0
  2  3  1  0
  2  1  1  6
  4  3  1  0
  5  4  2  0
  6  5  1  0
  7  8  1  0
  7  6  2  0
  8  9  2  0
  9  4  1  0
 10  2  1  0
 11 10  2  0
 12 10  1  0
 13 19  1  0
 13 12  1  0
 13 14  1  6
 15 14  1  0
 16 15  1  0
 17 16  1  0
 18 17  1  0
 19 24  1  0
 20 19  2  0
 22 21  1  0
 23 22  1  6
 23 25  1  0
 24 23  1  0
 25 27  2  0
 25 26  1  0
M  END
$$$$
