FKS.pdb
     RDKit          3D

 27 27  0  0  1  0  0  0  0  0999 V2000
   28.5394  -20.8738  -14.7882 N   0  0  0  0  0  0  0  0  0  0  0  0
   27.4847  -20.7982  -13.8073 C   0  0  1  0  0  0  0  0  0  0  0  0
   27.8049  -19.7383  -12.7726 C   0  0  0  0  0  0  0  0  0  0  0  0
   28.7850  -20.3128  -11.8126 C   0  0  0  0  0  0  0  0  0  0  0  0
   30.1420  -20.2673  -12.0608 C   0  0  0  0  0  0  0  0  0  0  0  0
   31.0350  -20.8053  -11.1586 C   0  0  0  0  0  0  0  0  0  0  0  0
   30.6045  -21.3982   -9.9943 C   0  0  0  0  0  0  0  0  0  0  0  0
   29.2436  -21.4431   -9.7466 C   0  0  0  0  0  0  0  0  0  0  0  0
   28.3373  -20.9058  -10.6461 C   0  0  0  0  0  0  0  0  0  0  0  0
   26.2420  -20.3710  -14.4937 C   0  0  0  0  0  0  0  0  0  0  0  0
   26.2698  -19.4844  -15.3824 O   0  0  0  0  0  0  0  0  0  0  0  0
   25.0042  -20.9640  -14.1499 N   0  0  0  0  0  0  0  0  0  0  0  0
   23.8813  -20.8074  -15.0440 C   0  0  1  0  0  0  0  0  0  0  0  0
   24.2376  -21.2117  -16.4554 C   0  0  0  0  0  0  0  0  0  0  0  0
   23.2496  -20.7884  -17.4732 C   0  0  0  0  0  0  0  0  0  0  0  0
   23.4982  -21.4933  -18.7767 C   0  0  0  0  0  0  0  0  0  0  0  0
   22.5163  -20.9897  -19.8068 C   0  0  0  0  0  0  0  0  0  0  0  0
   22.7156  -21.6516  -21.0918 N   0  0  0  0  0  0  0  0  0  0  0  0
   22.6884  -21.4663  -14.5195 C   0  0  0  0  0  0  0  0  0  0  0  0
   22.6889  -22.4888  -13.7914 O   0  0  0  0  0  0  0  0  0  0  0  0
   20.0419  -19.2832  -11.9093 O   0  0  0  0  0  0  0  0  0  0  0  0
   21.0390  -19.5387  -12.8492 C   0  0  0  0  0  0  0  0  0  0  0  0
   20.4671  -20.5315  -13.8531 C   0  0  2  0  0  0  0  0  0  0  0  0
   21.4193  -20.9190  -14.8506 N   0  0  0  0  0  0  0  0  0  0  0  0
   19.2380  -20.0325  -14.4783 C   0  0  0  0  0  0  0  0  0  0  0  0
   17.9781  -20.3953  -14.0053 O   0  0  0  0  0  0  0  0  0  0  0  0
   19.3110  -19.2576  -15.4664 O   0  0  0  0  0  0  0  0  0  0  0  0
  2  3  1  0
  2  1  1  6
  4  3  1  0
  5  4  2  0
  6  5  1  0
  7  8  1  0
  7  6  2  0
  8  9  2  0
  9  4  1  0
 10  2  1  0
 11 10  2  0
 12 10  1  0
 13 19  1  0
 13 12  1  0
 13 14  1  6
 15 14  1  0
 16 15  1  0
 17 16  1  0
 18 17  1  0
 19 24  1  0
 20 19  2  0
 22 21  1  0
 23 22  1  6
 23 25  1  0
 24 23  1  0
 25 27  2  0
 25 26  1  0
M  END
$$$$
