FKS.pdb
     RDKit          3D

 27 27  0  0  1  0  0  0  0  0999 V2000
   27.7872  -19.6675  -12.1824 N   0  0  0  0  0  0  0  0  0  0  0  0
   26.9632  -20.8424  -12.0370 C   0  0  1  0  0  0  0  0  0  0  0  0
   26.7187  -21.1341  -10.5702 C   0  0  0  0  0  0  0  0  0  0  0  0
   28.0400  -21.2809   -9.9031 C   0  0  0  0  0  0  0  0  0  0  0  0
   29.0969  -21.9037  -10.5357 C   0  0  0  0  0  0  0  0  0  0  0  0
   30.3141  -22.0300   -9.9007 C   0  0  0  0  0  0  0  0  0  0  0  0
   30.5103  -21.5436   -8.6290 C   0  0  0  0  0  0  0  0  0  0  0  0
   29.4498  -20.9193   -7.9957 C   0  0  0  0  0  0  0  0  0  0  0  0
   28.2223  -20.7868   -8.6242 C   0  0  0  0  0  0  0  0  0  0  0  0
   25.6421  -20.5614  -12.6481 C   0  0  0  0  0  0  0  0  0  0  0  0
   25.1558  -19.4039  -12.6261 O   0  0  0  0  0  0  0  0  0  0  0  0
   24.9124  -21.6041  -13.2664 N   0  0  0  0  0  0  0  0  0  0  0  0
   23.7321  -21.2745  -14.0301 C   0  0  1  0  0  0  0  0  0  0  0  0
   23.8661  -21.7099  -15.4706 C   0  0  0  0  0  0  0  0  0  0  0  0
   24.8484  -20.9240  -16.2508 C   0  0  0  0  0  0  0  0  0  0  0  0
   24.2891  -19.5731  -16.5973 C   0  0  0  0  0  0  0  0  0  0  0  0
   25.2509  -18.8604  -17.5171 C   0  0  0  0  0  0  0  0  0  0  0  0
   24.7749  -17.5193  -17.8396 N   0  0  0  0  0  0  0  0  0  0  0  0
   22.5213  -21.7582  -13.3726 C   0  0  0  0  0  0  0  0  0  0  0  0
   22.3244  -22.9407  -13.0006 O   0  0  0  0  0  0  0  0  0  0  0  0
   19.3194  -19.1701  -13.2162 O   0  0  0  0  0  0  0  0  0  0  0  0
   19.3912  -20.0092  -12.1055 C   0  0  0  0  0  0  0  0  0  0  0  0
   20.2426  -21.2085  -12.5022 C   0  0  2  0  0  0  0  0  0  0  0  0
   21.4742  -20.8290  -13.1275 N   0  0  0  0  0  0  0  0  0  0  0  0
   19.5026  -22.1505  -13.3480 C   0  0  0  0  0  0  0  0  0  0  0  0
   19.6999  -22.2054  -14.7267 O   0  0  0  0  0  0  0  0  0  0  0  0
   18.6668  -22.9329  -12.8269 O   0  0  0  0  0  0  0  0  0  0  0  0
  2  3  1  0
  2  1  1  1
  4  3  1  0
  5  4  2  0
  6  5  1  0
  7  8  1  0
  7  6  2  0
  8  9  2  0
  9  4  1  0
 10  2  1  0
 11 10  2  0
 12 10  1  0
 13 19  1  0
 13 12  1  0
 13 14  1  6
 15 14  1  0
 16 15  1  0
 17 16  1  0
 18 17  1  0
 19 24  1  0
 20 19  2  0
 22 21  1  0
 23 22  1  6
 23 25  1  0
 24 23  1  0
 25 27  2  0
 25 26  1  0
M  END
$$$$
