FKS.pdb
     RDKit          3D

 27 27  0  0  1  0  0  0  0  0999 V2000
   27.8632  -21.2775   -8.7632 N   0  0  0  0  0  0  0  0  0  0  0  0
   26.5699  -20.7007   -8.4890 C   0  0  1  0  0  0  0  0  0  0  0  0
   26.7282  -19.3546   -7.8114 C   0  0  0  0  0  0  0  0  0  0  0  0
   27.6542  -19.5243   -6.6599 C   0  0  0  0  0  0  0  0  0  0  0  0
   28.8795  -18.8898   -6.6263 C   0  0  0  0  0  0  0  0  0  0  0  0
   29.7241  -19.0596   -5.5499 C   0  0  0  0  0  0  0  0  0  0  0  0
   29.3744  -19.8592   -4.4865 C   0  0  0  0  0  0  0  0  0  0  0  0
   28.1455  -20.4949   -4.5215 C   0  0  0  0  0  0  0  0  0  0  0  0
   27.2889  -20.3315   -5.5979 C   0  0  0  0  0  0  0  0  0  0  0  0
   25.8870  -20.4565   -9.7820 C   0  0  0  0  0  0  0  0  0  0  0  0
   25.1243  -19.4702   -9.9309 O   0  0  0  0  0  0  0  0  0  0  0  0
   26.0909  -21.3404  -10.8679 N   0  0  0  0  0  0  0  0  0  0  0  0
   25.4948  -21.0282  -12.1454 C   0  0  1  0  0  0  0  0  0  0  0  0
   26.1792  -21.7686  -13.2706 C   0  0  0  0  0  0  0  0  0  0  0  0
   25.6702  -21.4256  -14.6176 C   0  0  0  0  0  0  0  0  0  0  0  0
   26.8080  -21.2411  -15.5816 C   0  0  0  0  0  0  0  0  0  0  0  0
   27.0185  -22.5233  -16.3501 C   0  0  0  0  0  0  0  0  0  0  0  0
   28.2195  -22.4513  -17.1755 N   0  0  0  0  0  0  0  0  0  0  0  0
   24.0455  -21.2035  -12.1128 C   0  0  0  0  0  0  0  0  0  0  0  0
   23.4438  -22.1389  -11.5310 O   0  0  0  0  0  0  0  0  0  0  0  0
   21.8522  -18.7216  -14.5423 O   0  0  0  0  0  0  0  0  0  0  0  0
   21.1490  -19.1022  -13.4005 C   0  0  0  0  0  0  0  0  0  0  0  0
   21.8130  -20.3633  -12.8627 C   0  0  2  0  0  0  0  0  0  0  0  0
   23.2388  -20.2480  -12.7883 N   0  0  0  0  0  0  0  0  0  0  0  0
   21.4303  -21.5537  -13.6288 C   0  0  0  0  0  0  0  0  0  0  0  0
   20.1955  -22.1741  -13.4470 O   0  0  0  0  0  0  0  0  0  0  0  0
   22.2285  -22.0352  -14.4734 O   0  0  0  0  0  0  0  0  0  0  0  0
  2  3  1  0
  2  1  1  6
  4  3  1  0
  5  4  2  0
  6  5  1  0
  7  8  1  0
  7  6  2  0
  8  9  2  0
  9  4  1  0
 10  2  1  0
 11 10  2  0
 12 10  1  0
 13 19  1  0
 13 12  1  0
 13 14  1  6
 15 14  1  0
 16 15  1  0
 17 16  1  0
 18 17  1  0
 19 24  1  0
 20 19  2  0
 22 21  1  0
 23 22  1  6
 23 25  1  0
 24 23  1  0
 25 27  2  0
 25 26  1  0
M  END
$$$$
