FKS.pdb
     RDKit          3D

 27 27  0  0  1  0  0  0  0  0999 V2000
   24.4649  -20.3614   -7.3673 N   0  0  0  0  0  0  0  0  0  0  0  0
   25.6970  -20.1259   -8.0794 C   0  0  1  0  0  0  0  0  0  0  0  0
   26.7350  -21.1585   -7.6887 C   0  0  0  0  0  0  0  0  0  0  0  0
   27.5047  -20.6241   -6.5336 C   0  0  0  0  0  0  0  0  0  0  0  0
   27.0440  -20.7626   -5.2399 C   0  0  0  0  0  0  0  0  0  0  0  0
   27.7720  -20.2604   -4.1822 C   0  0  0  0  0  0  0  0  0  0  0  0
   28.9686  -19.6120   -4.3825 C   0  0  0  0  0  0  0  0  0  0  0  0
   29.4294  -19.4737   -5.6801 C   0  0  0  0  0  0  0  0  0  0  0  0
   28.7062  -19.9743   -6.7504 C   0  0  0  0  0  0  0  0  0  0  0  0
   25.4367  -20.3011   -9.5283 C   0  0  0  0  0  0  0  0  0  0  0  0
   24.2811  -20.5560   -9.9484 O   0  0  0  0  0  0  0  0  0  0  0  0
   26.4972  -20.1816  -10.4572 N   0  0  0  0  0  0  0  0  0  0  0  0
   26.1942  -19.8215  -11.8223 C   0  0  1  0  0  0  0  0  0  0  0  0
   27.4438  -19.4521  -12.5871 C   0  0  0  0  0  0  0  0  0  0  0  0
   27.1851  -18.8792  -13.9272 C   0  0  0  0  0  0  0  0  0  0  0  0
   28.4703  -18.4462  -14.5742 C   0  0  0  0  0  0  0  0  0  0  0  0
   28.1631  -17.8106  -15.9086 C   0  0  0  0  0  0  0  0  0  0  0  0
   27.6515  -18.7959  -16.8556 N   0  0  0  0  0  0  0  0  0  0  0  0
   25.3786  -20.8430  -12.4730 C   0  0  0  0  0  0  0  0  0  0  0  0
   25.5433  -22.0818  -12.3560 O   0  0  0  0  0  0  0  0  0  0  0  0
   21.0999  -21.8741  -14.1936 O   0  0  0  0  0  0  0  0  0  0  0  0
   21.9240  -20.8541  -13.7209 C   0  0  0  0  0  0  0  0  0  0  0  0
   23.3625  -21.3332  -13.8685 C   0  0  2  0  0  0  0  0  0  0  0  0
   24.3101  -20.4170  -13.3078 N   0  0  0  0  0  0  0  0  0  0  0  0
   23.6992  -21.6356  -15.2633 C   0  0  0  0  0  0  0  0  0  0  0  0
   23.3677  -22.8571  -15.8470 O   0  0  0  0  0  0  0  0  0  0  0  0
   24.3022  -20.7786  -15.9593 O   0  0  0  0  0  0  0  0  0  0  0  0
  2  3  1  0
  2  1  1  1
  4  3  1  0
  5  4  2  0
  6  5  1  0
  7  8  1  0
  7  6  2  0
  8  9  2  0
  9  4  1  0
 10  2  1  0
 11 10  2  0
 12 10  1  0
 13 19  1  0
 13 12  1  0
 13 14  1  6
 15 14  1  0
 16 15  1  0
 17 16  1  0
 18 17  1  0
 19 24  1  0
 20 19  2  0
 22 21  1  0
 23 22  1  6
 23 25  1  0
 24 23  1  0
 25 27  2  0
 25 26  1  0
M  END
$$$$
