FKS.pdb
     RDKit          3D

 27 27  0  0  1  0  0  0  0  0999 V2000
   28.1985  -20.4773   -9.2822 N   0  0  0  0  0  0  0  0  0  0  0  0
   26.8593  -20.9742   -9.0814 C   0  0  1  0  0  0  0  0  0  0  0  0
   26.2516  -20.3581   -7.8375 C   0  0  0  0  0  0  0  0  0  0  0  0
   27.3356  -20.1795   -6.8349 C   0  0  0  0  0  0  0  0  0  0  0  0
   27.5673  -18.9555   -6.2406 C   0  0  0  0  0  0  0  0  0  0  0  0
   28.5771  -18.8099   -5.3132 C   0  0  0  0  0  0  0  0  0  0  0  0
   29.3768  -19.8705   -4.9554 C   0  0  0  0  0  0  0  0  0  0  0  0
   29.1435  -21.0972   -5.5521 C   0  0  0  0  0  0  0  0  0  0  0  0
   28.1317  -21.2550   -6.4851 C   0  0  0  0  0  0  0  0  0  0  0  0
   26.0267  -20.5417  -10.2293 C   0  0  0  0  0  0  0  0  0  0  0  0
   26.1008  -19.3693  -10.6727 O   0  0  0  0  0  0  0  0  0  0  0  0
   25.1344  -21.4545  -10.8397 N   0  0  0  0  0  0  0  0  0  0  0  0
   24.4172  -21.0456  -12.0243 C   0  0  1  0  0  0  0  0  0  0  0  0
   25.0136  -21.6572  -13.2705 C   0  0  0  0  0  0  0  0  0  0  0  0
   26.2417  -20.9821  -13.7471 C   0  0  0  0  0  0  0  0  0  0  0  0
   26.8284  -21.7173  -14.9189 C   0  0  0  0  0  0  0  0  0  0  0  0
   28.0583  -20.9843  -15.3976 C   0  0  0  0  0  0  0  0  0  0  0  0
   28.7020  -21.6975  -16.4958 N   0  0  0  0  0  0  0  0  0  0  0  0
   22.9815  -21.2694  -11.8803 C   0  0  0  0  0  0  0  0  0  0  0  0
   22.4563  -22.2986  -11.3900 O   0  0  0  0  0  0  0  0  0  0  0  0
   20.4433  -18.1614  -12.9854 O   0  0  0  0  0  0  0  0  0  0  0  0
   19.9928  -19.0198  -11.9838 C   0  0  0  0  0  0  0  0  0  0  0  0
   20.6730  -20.3648  -12.2045 C   0  0  2  0  0  0  0  0  0  0  0  0
   22.0958  -20.2509  -12.3256 N   0  0  0  0  0  0  0  0  0  0  0  0
   20.1123  -21.0805  -13.3550 C   0  0  0  0  0  0  0  0  0  0  0  0
   20.8671  -21.3281  -14.5004 O   0  0  0  0  0  0  0  0  0  0  0  0
   18.9220  -21.4855  -13.3181 O   0  0  0  0  0  0  0  0  0  0  0  0
  2  3  1  0
  2  1  1  6
  4  3  1  0
  5  4  2  0
  6  5  1  0
  7  8  1  0
  7  6  2  0
  8  9  2  0
  9  4  1  0
 10  2  1  0
 11 10  2  0
 12 10  1  0
 13 19  1  0
 13 12  1  0
 13 14  1  6
 15 14  1  0
 16 15  1  0
 17 16  1  0
 18 17  1  0
 19 24  1  0
 20 19  2  0
 22 21  1  0
 23 22  1  6
 23 25  1  0
 24 23  1  0
 25 27  2  0
 25 26  1  0
M  END
$$$$
