FKS.pdb
     RDKit          3D

 27 27  0  0  1  0  0  0  0  0999 V2000
   19.6584   -7.3136  -12.4604 N   0  0  0  0  0  0  0  0  0  0  0  0
   19.8093   -7.5646  -13.8728 C   0  0  1  0  0  0  0  0  0  0  0  0
   21.2779   -7.6239  -14.2416 C   0  0  0  0  0  0  0  0  0  0  0  0
   21.7777   -6.2288  -14.3693 C   0  0  0  0  0  0  0  0  0  0  0  0
   22.2714   -5.5419  -13.2787 C   0  0  0  0  0  0  0  0  0  0  0  0
   22.7303   -4.2493  -13.4172 C   0  0  0  0  0  0  0  0  0  0  0  0
   22.7101   -3.6107  -14.6355 C   0  0  0  0  0  0  0  0  0  0  0  0
   22.2149   -4.3006  -15.7283 C   0  0  0  0  0  0  0  0  0  0  0  0
   21.7512   -5.5997  -15.6007 C   0  0  0  0  0  0  0  0  0  0  0  0
   19.2342   -8.8980  -14.1715 C   0  0  0  0  0  0  0  0  0  0  0  0
   19.2270   -9.8050  -13.3032 O   0  0  0  0  0  0  0  0  0  0  0  0
   18.6842   -9.1614  -15.4482 N   0  0  0  0  0  0  0  0  0  0  0  0
   18.0483  -10.4357  -15.6866 C   0  0  1  0  0  0  0  0  0  0  0  0
   16.5429  -10.3227  -15.6249 C   0  0  0  0  0  0  0  0  0  0  0  0
   15.8344  -11.6173  -15.7384 C   0  0  0  0  0  0  0  0  0  0  0  0
   14.3464  -11.4090  -15.7210 C   0  0  0  0  0  0  0  0  0  0  0  0
   13.6588  -12.7527  -15.6931 C   0  0  0  0  0  0  0  0  0  0  0  0
   12.2076  -12.6013  -15.6830 N   0  0  0  0  0  0  0  0  0  0  0  0
   18.5485  -11.0589  -16.9087 C   0  0  0  0  0  0  0  0  0  0  0  0
   18.7965  -10.4528  -17.9795 O   0  0  0  0  0  0  0  0  0  0  0  0
   21.3984  -13.8420  -17.4582 O   0  0  0  0  0  0  0  0  0  0  0  0
   20.1267  -14.3524  -17.7137 C   0  0  0  0  0  0  0  0  0  0  0  0
   19.2293  -13.1713  -18.0605 C   0  0  2  0  0  0  0  0  0  0  0  0
   18.7777  -12.4615  -16.9012 N   0  0  0  0  0  0  0  0  0  0  0  0
   18.0928  -13.5729  -18.8956 C   0  0  0  0  0  0  0  0  0  0  0  0
   17.9934  -13.1846  -20.2306 O   0  0  0  0  0  0  0  0  0  0  0  0
   17.1794  -14.2854  -18.4053 O   0  0  0  0  0  0  0  0  0  0  0  0
  2  3  1  0
  2  1  1  1
  4  3  1  0
  5  4  2  0
  6  5  1  0
  7  8  1  0
  7  6  2  0
  8  9  2  0
  9  4  1  0
 10  2  1  0
 11 10  2  0
 12 10  1  0
 13 19  1  0
 13 12  1  0
 13 14  1  6
 15 14  1  0
 16 15  1  0
 17 16  1  0
 18 17  1  0
 19 24  1  0
 20 19  2  0
 22 21  1  0
 23 22  1  1
 23 25  1  0
 24 23  1  0
 25 27  2  0
 25 26  1  0
M  END
$$$$
