FKS.pdb
     RDKit          3D

 27 27  0  0  1  0  0  0  0  0999 V2000
   22.2833  -17.1201  -19.6349 N   0  0  0  0  0  0  0  0  0  0  0  0
   22.5941  -16.7781  -18.2686 C   0  0  1  0  0  0  0  0  0  0  0  0
   21.6354  -15.7201  -17.7609 C   0  0  0  0  0  0  0  0  0  0  0  0
   21.9107  -14.4572  -18.4969 C   0  0  0  0  0  0  0  0  0  0  0  0
   21.0661  -14.0094  -19.4925 C   0  0  0  0  0  0  0  0  0  0  0  0
   21.3384  -12.8361  -20.1634 C   0  0  0  0  0  0  0  0  0  0  0  0
   22.4500  -12.0832  -19.8636 C   0  0  0  0  0  0  0  0  0  0  0  0
   23.2961  -12.5333  -18.8651 C   0  0  0  0  0  0  0  0  0  0  0  0
   23.0323  -13.7107  -18.1845 C   0  0  0  0  0  0  0  0  0  0  0  0
   22.3910  -17.9839  -17.4304 C   0  0  0  0  0  0  0  0  0  0  0  0
   21.4370  -18.7694  -17.6532 O   0  0  0  0  0  0  0  0  0  0  0  0
   23.2780  -18.2615  -16.3636 N   0  0  0  0  0  0  0  0  0  0  0  0
   23.0725  -19.4537  -15.5752 C   0  0  1  0  0  0  0  0  0  0  0  0
   24.2970  -19.7944  -14.7584 C   0  0  0  0  0  0  0  0  0  0  0  0
   24.1592  -21.0245  -13.9467 C   0  0  0  0  0  0  0  0  0  0  0  0
   24.5914  -22.2289  -14.7343 C   0  0  0  0  0  0  0  0  0  0  0  0
   24.4274  -23.4633  -13.8808 C   0  0  0  0  0  0  0  0  0  0  0  0
   24.8354  -24.6623  -14.6055 N   0  0  0  0  0  0  0  0  0  0  0  0
   21.8413  -19.3692  -14.7947 C   0  0  0  0  0  0  0  0  0  0  0  0
   21.4956  -18.3862  -14.0948 O   0  0  0  0  0  0  0  0  0  0  0  0
   17.5250  -19.3073  -14.5306 O   0  0  0  0  0  0  0  0  0  0  0  0
   18.8450  -19.2207  -14.9703 C   0  0  0  0  0  0  0  0  0  0  0  0
   19.6018  -20.3907  -14.3548 C   0  0  2  0  0  0  0  0  0  0  0  0
   20.9541  -20.4792  -14.8189 N   0  0  0  0  0  0  0  0  0  0  0  0
   18.9020  -21.6634  -14.5568 C   0  0  0  0  0  0  0  0  0  0  0  0
   17.8410  -22.0516  -13.7405 O   0  0  0  0  0  0  0  0  0  0  0  0
   19.2598  -22.4314  -15.4865 O   0  0  0  0  0  0  0  0  0  0  0  0
  2  3  1  0
  2  1  1  6
  4  3  1  0
  5  4  2  0
  6  5  1  0
  7  8  1  0
  7  6  2  0
  8  9  2  0
  9  4  1  0
 10  2  1  0
 11 10  2  0
 12 10  1  0
 13 19  1  0
 13 12  1  0
 13 14  1  1
 15 14  1  0
 16 15  1  0
 17 16  1  0
 18 17  1  0
 19 24  1  0
 20 19  2  0
 22 21  1  0
 23 22  1  6
 23 25  1  0
 24 23  1  0
 25 27  2  0
 25 26  1  0
M  END
$$$$
