FKS.pdb
     RDKit          3D

 27 27  0  0  1  0  0  0  0  0999 V2000
   10.6741  -21.6551   -3.7384 N   0  0  0  0  0  0  0  0  0  0  0  0
   12.0698  -22.0171   -3.7756 C   0  0  1  0  0  0  0  0  0  0  0  0
   12.9240  -20.7901   -4.0232 C   0  0  0  0  0  0  0  0  0  0  0  0
   12.6796  -20.3320   -5.4170 C   0  0  0  0  0  0  0  0  0  0  0  0
   13.2890  -20.9484   -6.4911 C   0  0  0  0  0  0  0  0  0  0  0  0
   13.0497  -20.5092   -7.7758 C   0  0  0  0  0  0  0  0  0  0  0  0
   12.2040  -19.4529   -8.0238 C   0  0  0  0  0  0  0  0  0  0  0  0
   11.5936  -18.8357   -6.9460 C   0  0  0  0  0  0  0  0  0  0  0  0
   11.8268  -19.2686   -5.6509 C   0  0  0  0  0  0  0  0  0  0  0  0
   12.4480  -22.5457   -2.4432 C   0  0  0  0  0  0  0  0  0  0  0  0
   11.9361  -22.0781   -1.3962 O   0  0  0  0  0  0  0  0  0  0  0  0
   13.3968  -23.5901   -2.3396 N   0  0  0  0  0  0  0  0  0  0  0  0
   13.6652  -24.1655   -1.0428 C   0  0  1  0  0  0  0  0  0  0  0  0
   14.1552  -25.5899   -1.1604 C   0  0  0  0  0  0  0  0  0  0  0  0
   13.1336  -26.5420   -1.6511 C   0  0  0  0  0  0  0  0  0  0  0  0
   13.7019  -27.9304   -1.7352 C   0  0  0  0  0  0  0  0  0  0  0  0
   12.6260  -28.8778   -2.2086 C   0  0  0  0  0  0  0  0  0  0  0  0
   13.1560  -30.2241   -2.3975 N   0  0  0  0  0  0  0  0  0  0  0  0
   14.5330  -23.3016   -0.2473 C   0  0  0  0  0  0  0  0  0  0  0  0
   15.4409  -22.5677   -0.7085 O   0  0  0  0  0  0  0  0  0  0  0  0
   15.1257  -20.9850    3.8743 O   0  0  0  0  0  0  0  0  0  0  0  0
   14.2804  -21.8121    3.1363 C   0  0  0  0  0  0  0  0  0  0  0  0
   15.1160  -22.4306    2.0229 C   0  0  2  0  0  0  0  0  0  0  0  0
   14.3476  -23.2788    1.1616 N   0  0  0  0  0  0  0  0  0  0  0  0
   16.2830  -23.1476    2.5469 C   0  0  0  0  0  0  0  0  0  0  0  0
   16.4357  -24.5219    2.3718 O   0  0  0  0  0  0  0  0  0  0  0  0
   17.1742  -22.5166    3.1713 O   0  0  0  0  0  0  0  0  0  0  0  0
  2  3  1  0
  2  1  1  1
  4  3  1  0
  5  4  2  0
  6  5  1  0
  7  8  1  0
  7  6  2  0
  8  9  2  0
  9  4  1  0
 10  2  1  0
 11 10  2  0
 12 10  1  0
 13 19  1  0
 13 12  1  0
 13 14  1  6
 15 14  1  0
 16 15  1  0
 17 16  1  0
 18 17  1  0
 19 24  1  0
 20 19  2  0
 22 21  1  0
 23 22  1  1
 23 25  1  0
 24 23  1  0
 25 27  2  0
 25 26  1  0
M  END
$$$$
