FKS.pdb
     RDKit          3D

 27 27  0  0  1  0  0  0  0  0999 V2000
   28.2791  -20.8169   -9.0287 N   0  0  0  0  0  0  0  0  0  0  0  0
   26.8625  -20.7124   -8.7778 C   0  0  1  0  0  0  0  0  0  0  0  0
   26.5716  -19.5103   -7.9022 C   0  0  0  0  0  0  0  0  0  0  0  0
   27.3195  -19.6769   -6.6274 C   0  0  0  0  0  0  0  0  0  0  0  0
   28.5404  -19.0648   -6.4277 C   0  0  0  0  0  0  0  0  0  0  0  0
   29.2185  -19.2312   -5.2389 C   0  0  0  0  0  0  0  0  0  0  0  0
   28.7035  -20.0053   -4.2250 C   0  0  0  0  0  0  0  0  0  0  0  0
   27.4792  -20.6185   -4.4264 C   0  0  0  0  0  0  0  0  0  0  0  0
   26.7891  -20.4582   -5.6169 C   0  0  0  0  0  0  0  0  0  0  0  0
   26.1776  -20.4807  -10.0720 C   0  0  0  0  0  0  0  0  0  0  0  0
   26.3811  -19.4300  -10.7288 O   0  0  0  0  0  0  0  0  0  0  0  0
   25.2816  -21.4498  -10.5818 N   0  0  0  0  0  0  0  0  0  0  0  0
   24.6087  -21.1909  -11.8328 C   0  0  1  0  0  0  0  0  0  0  0  0
   24.8540  -22.2974  -12.8320 C   0  0  0  0  0  0  0  0  0  0  0  0
   25.3838  -21.8306  -14.1329 C   0  0  0  0  0  0  0  0  0  0  0  0
   26.8834  -21.7442  -14.0929 C   0  0  0  0  0  0  0  0  0  0  0  0
   27.3918  -21.3312  -15.4530 C   0  0  0  0  0  0  0  0  0  0  0  0
   27.3779  -22.4548  -16.3837 N   0  0  0  0  0  0  0  0  0  0  0  0
   23.1973  -20.8809  -11.6230 C   0  0  0  0  0  0  0  0  0  0  0  0
   22.4942  -21.3177  -10.6795 O   0  0  0  0  0  0  0  0  0  0  0  0
   21.4105  -18.8584  -14.6648 O   0  0  0  0  0  0  0  0  0  0  0  0
   20.7240  -18.6535  -13.4691 C   0  0  0  0  0  0  0  0  0  0  0  0
   21.1461  -19.7614  -12.5126 C   0  0  2  0  0  0  0  0  0  0  0  0
   22.5548  -20.0180  -12.5517 N   0  0  0  0  0  0  0  0  0  0  0  0
   20.3894  -20.9973  -12.7370 C   0  0  0  0  0  0  0  0  0  0  0  0
   20.9510  -22.0881  -13.3984 O   0  0  0  0  0  0  0  0  0  0  0  0
   19.2037  -21.0861  -12.3266 O   0  0  0  0  0  0  0  0  0  0  0  0
  2  3  1  0
  2  1  1  6
  4  3  1  0
  5  4  2  0
  6  5  1  0
  7  8  1  0
  7  6  2  0
  8  9  2  0
  9  4  1  0
 10  2  1  0
 11 10  2  0
 12 10  1  0
 13 19  1  0
 13 12  1  0
 13 14  1  6
 15 14  1  0
 16 15  1  0
 17 16  1  0
 18 17  1  0
 19 24  1  0
 20 19  2  0
 22 21  1  0
 23 22  1  6
 23 25  1  0
 24 23  1  0
 25 27  2  0
 25 26  1  0
M  END
$$$$
