FKS.pdb
     RDKit          3D

 27 27  0  0  1  0  0  0  0  0999 V2000
   24.3617  -11.3274  -16.3964 N   0  0  0  0  0  0  0  0  0  0  0  0
   23.8143  -10.4738  -15.3706 C   0  0  1  0  0  0  0  0  0  0  0  0
   24.8921   -9.5673  -14.8113 C   0  0  0  0  0  0  0  0  0  0  0  0
   26.1991  -10.0070  -15.3686 C   0  0  0  0  0  0  0  0  0  0  0  0
   26.8152  -11.1602  -14.9262 C   0  0  0  0  0  0  0  0  0  0  0  0
   28.0267  -11.5514  -15.4552 C   0  0  0  0  0  0  0  0  0  0  0  0
   28.6526  -10.8110  -16.4311 C   0  0  0  0  0  0  0  0  0  0  0  0
   28.0339   -9.6549  -16.8739 C   0  0  0  0  0  0  0  0  0  0  0  0
   26.8165   -9.2523  -16.3495 C   0  0  0  0  0  0  0  0  0  0  0  0
   22.7921   -9.5981  -15.9920 C   0  0  0  0  0  0  0  0  0  0  0  0
   22.9525   -9.1441  -17.1517 O   0  0  0  0  0  0  0  0  0  0  0  0
   21.6177   -9.2640  -15.2772 N   0  0  0  0  0  0  0  0  0  0  0  0
   20.5761   -8.5240  -15.9497 C   0  0  1  0  0  0  0  0  0  0  0  0
   19.2131   -9.1166  -15.6782 C   0  0  0  0  0  0  0  0  0  0  0  0
   18.8825  -10.2853  -16.5243 C   0  0  0  0  0  0  0  0  0  0  0  0
   19.0646  -11.5633  -15.7553 C   0  0  0  0  0  0  0  0  0  0  0  0
   18.6118  -12.7233  -16.6088 C   0  0  0  0  0  0  0  0  0  0  0  0
   18.8800  -13.9975  -15.9504 N   0  0  0  0  0  0  0  0  0  0  0  0
   20.6708   -7.0949  -15.6653 C   0  0  0  0  0  0  0  0  0  0  0  0
   20.9889   -6.5983  -14.5572 O   0  0  0  0  0  0  0  0  0  0  0  0
   21.9256   -4.4497  -18.3325 O   0  0  0  0  0  0  0  0  0  0  0  0
   20.6967   -4.0147  -17.8392 C   0  0  0  0  0  0  0  0  0  0  0  0
   20.4454   -4.7616  -16.5355 C   0  0  2  0  0  0  0  0  0  0  0  0
   20.3834   -6.1813  -16.7154 N   0  0  0  0  0  0  0  0  0  0  0  0
   19.2452   -4.2752  -15.8475 C   0  0  0  0  0  0  0  0  0  0  0  0
   19.2462   -3.0773  -15.1349 O   0  0  0  0  0  0  0  0  0  0  0  0
   18.1832   -4.9476  -15.8952 O   0  0  0  0  0  0  0  0  0  0  0  0
  2  3  1  0
  2  1  1  6
  4  3  1  0
  5  4  2  0
  6  5  1  0
  7  8  1  0
  7  6  2  0
  8  9  2  0
  9  4  1  0
 10  2  1  0
 11 10  2  0
 12 10  1  0
 13 19  1  0
 13 12  1  0
 13 14  1  1
 15 14  1  0
 16 15  1  0
 17 16  1  0
 18 17  1  0
 19 24  1  0
 20 19  2  0
 22 21  1  0
 23 22  1  6
 23 25  1  0
 24 23  1  0
 25 27  2  0
 25 26  1  0
M  END
$$$$
