FKS.pdb
     RDKit          3D

 27 27  0  0  1  0  0  0  0  0999 V2000
   21.9088  -17.0412  -19.0055 N   0  0  0  0  0  0  0  0  0  0  0  0
   21.6183  -16.8560  -17.6049 C   0  0  1  0  0  0  0  0  0  0  0  0
   20.2770  -16.1721  -17.4327 C   0  0  0  0  0  0  0  0  0  0  0  0
   20.3984  -14.7827  -17.9494 C   0  0  0  0  0  0  0  0  0  0  0  0
   19.9488  -14.4451  -19.2099 C   0  0  0  0  0  0  0  0  0  0  0  0
   20.0701  -13.1516  -19.6711 C   0  0  0  0  0  0  0  0  0  0  0  0
   20.6377  -12.1670  -18.8959 C   0  0  0  0  0  0  0  0  0  0  0  0
   21.0881  -12.5067  -17.6321 C   0  0  0  0  0  0  0  0  0  0  0  0
   20.9714  -13.8033  -17.1585 C   0  0  0  0  0  0  0  0  0  0  0  0
   21.5066  -18.1925  -16.9732 C   0  0  0  0  0  0  0  0  0  0  0  0
   21.0318  -19.1666  -17.6076 O   0  0  0  0  0  0  0  0  0  0  0  0
   21.9378  -18.3828  -15.6391 N   0  0  0  0  0  0  0  0  0  0  0  0
   21.9141  -19.7136  -15.0793 C   0  0  1  0  0  0  0  0  0  0  0  0
   23.0620  -19.9310  -14.1213 C   0  0  0  0  0  0  0  0  0  0  0  0
   23.0852  -21.2747  -13.5008 C   0  0  0  0  0  0  0  0  0  0  0  0
   24.0153  -22.1869  -14.2495 C   0  0  0  0  0  0  0  0  0  0  0  0
   23.9558  -23.5655  -13.6371 C   0  0  0  0  0  0  0  0  0  0  0  0
   24.7857  -24.5079  -14.3803 N   0  0  0  0  0  0  0  0  0  0  0  0
   20.6035  -20.0315  -14.5194 C   0  0  0  0  0  0  0  0  0  0  0  0
   20.0066  -19.3537  -13.6476 O   0  0  0  0  0  0  0  0  0  0  0  0
   16.7496  -22.9333  -14.8036 O   0  0  0  0  0  0  0  0  0  0  0  0
   18.0138  -22.6896  -15.3377 C   0  0  0  0  0  0  0  0  0  0  0  0
   18.6608  -21.6054  -14.4856 C   0  0  2  0  0  0  0  0  0  0  0  0
   19.9384  -21.1967  -14.9881 N   0  0  0  0  0  0  0  0  0  0  0  0
   18.7625  -22.0023  -13.0776 C   0  0  0  0  0  0  0  0  0  0  0  0
   17.8330  -21.5780  -12.1296 O   0  0  0  0  0  0  0  0  0  0  0  0
   19.7079  -22.7439  -12.7052 O   0  0  0  0  0  0  0  0  0  0  0  0
  2  3  1  0
  2  1  1  6
  4  3  1  0
  5  4  2  0
  6  5  1  0
  7  8  1  0
  7  6  2  0
  8  9  2  0
  9  4  1  0
 10  2  1  0
 11 10  2  0
 12 10  1  0
 13 19  1  0
 13 12  1  0
 13 14  1  1
 15 14  1  0
 16 15  1  0
 17 16  1  0
 18 17  1  0
 19 24  1  0
 20 19  2  0
 22 21  1  0
 23 22  1  6
 23 25  1  0
 24 23  1  0
 25 27  2  0
 25 26  1  0
M  END
$$$$
