FKS.pdb
     RDKit          3D

 27 27  0  0  1  0  0  0  0  0999 V2000
   26.2876  -19.6819  -19.6803 N   0  0  0  0  0  0  0  0  0  0  0  0
   24.9546  -19.2129  -19.9696 C   0  0  1  0  0  0  0  0  0  0  0  0
   24.4636  -19.8000  -21.2775 C   0  0  0  0  0  0  0  0  0  0  0  0
   25.1681  -19.1050  -22.3879 C   0  0  0  0  0  0  0  0  0  0  0  0
   24.7823  -17.8471  -22.8052 C   0  0  0  0  0  0  0  0  0  0  0  0
   25.4479  -17.2191  -23.8363 C   0  0  0  0  0  0  0  0  0  0  0  0
   26.5071  -17.8217  -24.4747 C   0  0  0  0  0  0  0  0  0  0  0  0
   26.8930  -19.0829  -24.0554 C   0  0  0  0  0  0  0  0  0  0  0  0
   26.2314  -19.7233  -23.0204 C   0  0  0  0  0  0  0  0  0  0  0  0
   24.0475  -19.7070  -18.9062 C   0  0  0  0  0  0  0  0  0  0  0  0
   24.3400  -20.7257  -18.2327 O   0  0  0  0  0  0  0  0  0  0  0  0
   22.8347  -19.0289  -18.6393 N   0  0  0  0  0  0  0  0  0  0  0  0
   22.0020  -19.4866  -17.5521 C   0  0  1  0  0  0  0  0  0  0  0  0
   21.6569  -18.3592  -16.6073 C   0  0  0  0  0  0  0  0  0  0  0  0
   20.8076  -18.7660  -15.4653 C   0  0  0  0  0  0  0  0  0  0  0  0
   20.4680  -17.5785  -14.6095 C   0  0  0  0  0  0  0  0  0  0  0  0
   19.4784  -17.9989  -13.5498 C   0  0  0  0  0  0  0  0  0  0  0  0
   18.9485  -16.8421  -12.8358 N   0  0  0  0  0  0  0  0  0  0  0  0
   20.8430  -20.2256  -18.0449 C   0  0  0  0  0  0  0  0  0  0  0  0
   20.0511  -19.8206  -18.9306 O   0  0  0  0  0  0  0  0  0  0  0  0
   18.3458  -24.3642  -17.7217 O   0  0  0  0  0  0  0  0  0  0  0  0
   19.3661  -23.6184  -17.1338 C   0  0  0  0  0  0  0  0  0  0  0  0
   19.4627  -22.3055  -17.9003 C   0  0  2  0  0  0  0  0  0  0  0  0
   20.5773  -21.5058  -17.4879 N   0  0  0  0  0  0  0  0  0  0  0  0
   18.2177  -21.5341  -17.8255 C   0  0  0  0  0  0  0  0  0  0  0  0
   17.2085  -21.6815  -18.7755 O   0  0  0  0  0  0  0  0  0  0  0  0
   18.0460  -20.7165  -16.8852 O   0  0  0  0  0  0  0  0  0  0  0  0
  2  3  1  0
  2  1  1  1
  4  3  1  0
  5  4  2  0
  6  5  1  0
  7  8  1  0
  7  6  2  0
  8  9  2  0
  9  4  1  0
 10  2  1  0
 11 10  2  0
 12 10  1  0
 13 19  1  0
 13 12  1  0
 13 14  1  6
 15 14  1  0
 16 15  1  0
 17 16  1  0
 18 17  1  0
 19 24  1  0
 20 19  2  0
 22 21  1  0
 23 22  1  1
 23 25  1  0
 24 23  1  0
 25 27  2  0
 25 26  1  0
M  END
$$$$
