EDQ.pdb
     RDKit          3D

 27 26  0  0  1  0  0  0  0  0999 V2000
    9.6694  -18.6070   21.2280 N   0  0  0  0  0  0  0  0  0  0  0  0
   10.6929  -19.6304   21.4634 C   0  0  1  0  0  0  0  0  0  0  0  0
   11.3695  -19.9591   20.1632 C   0  0  0  0  0  0  0  0  0  0  0  0
   11.8558  -18.7669   19.4246 C   0  0  0  0  0  0  0  0  0  0  0  0
   12.5925  -19.0475   18.1771 C   0  0  0  0  0  0  0  0  0  0  0  0
   12.5292  -20.1181   17.5403 O   0  0  0  0  0  0  0  0  0  0  0  0
   11.5980  -19.2125   22.5454 C   0  0  0  0  0  0  0  0  0  0  0  0
   12.2171  -20.0336   23.2654 O   0  0  0  0  0  0  0  0  0  0  0  0
   13.4126  -18.0436   17.6827 O   0  0  0  0  0  0  0  0  0  0  0  0
   11.8277  -17.8204   22.8438 N   0  0  0  0  0  0  0  0  0  0  0  0
   12.6198  -17.4242   23.9826 C   0  0  1  0  0  0  0  0  0  0  0  0
   13.2417  -16.0544   23.8060 C   0  0  0  0  0  0  0  0  0  0  0  0
   14.5601  -16.1050   23.1493 C   0  0  0  0  0  0  0  0  0  0  0  0
   15.1870  -17.1931   23.1251 O   0  0  0  0  0  0  0  0  0  0  0  0
   11.7053  -17.2924   25.1602 C   0  0  0  0  0  0  0  0  0  0  0  0
   11.6073  -16.1466   25.6819 O   0  0  0  0  0  0  0  0  0  0  0  0
   15.0974  -14.9845   22.5723 O   0  0  0  0  0  0  0  0  0  0  0  0
    6.2475  -20.0189   25.7652 N   0  0  0  0  0  0  0  0  0  0  0  0
    6.5363  -18.6727   25.4746 C   0  0  0  0  0  0  0  0  0  0  0  0
    5.6401  -17.9793   24.9137 O   0  0  0  0  0  0  0  0  0  0  0  0
    7.8231  -18.0047   25.7808 C   0  0  0  0  0  0  0  0  0  0  0  0
    8.7510  -18.8930   26.5559 C   0  0  0  0  0  0  0  0  0  0  0  0
   10.0798  -18.1914   26.7776 C   0  0  2  0  0  0  0  0  0  0  0  0
   10.9803  -18.3849   25.6747 N   0  0  0  0  0  0  0  0  0  0  0  0
   10.7200  -18.6053   28.0341 C   0  0  0  0  0  0  0  0  0  0  0  0
   10.3150  -18.1544   29.2861 O   0  0  0  0  0  0  0  0  0  0  0  0
   11.6869  -19.4079   28.0064 O   0  0  0  0  0  0  0  0  0  0  0  0
  2  1  1  6
  2  7  1  0
  2  3  1  0
  4  3  1  0
  4  5  1  0
  5  6  2  0
  7  8  2  0
  9  5  1  0
 10 11  1  0
 10  7  1  0
 11 12  1  6
 13 12  1  0
 14 13  2  0
 15 16  2  0
 15 11  1  0
 17 13  1  0
 19 18  1  0
 20 19  2  0
 21 19  1  0
 22 21  1  0
 23 22  1  6
 23 24  1  0
 24 15  1  0
 25 23  1  0
 26 25  1  0
 27 25  2  0
M  END
$$$$
