EDQ.pdb
     RDKit          3D

 27 26  0  0  1  0  0  0  0  0999 V2000
   10.8391  -13.3301   19.2849 N   0  0  0  0  0  0  0  0  0  0  0  0
    9.4550  -13.4342   19.7579 C   0  0  1  0  0  0  0  0  0  0  0  0
    8.5231  -13.3117   18.5862 C   0  0  0  0  0  0  0  0  0  0  0  0
    9.0161  -13.9838   17.3579 C   0  0  0  0  0  0  0  0  0  0  0  0
    8.0602  -14.0392   16.2350 C   0  0  0  0  0  0  0  0  0  0  0  0
    8.2794  -14.6001   15.1427 O   0  0  0  0  0  0  0  0  0  0  0  0
    9.2783  -14.6505   20.5665 C   0  0  0  0  0  0  0  0  0  0  0  0
    8.1949  -14.9358   21.1328 O   0  0  0  0  0  0  0  0  0  0  0  0
    6.8313  -13.4210   16.4143 O   0  0  0  0  0  0  0  0  0  0  0  0
   10.3519  -15.5945   20.7568 N   0  0  0  0  0  0  0  0  0  0  0  0
   10.1750  -16.7670   21.5784 C   0  0  1  0  0  0  0  0  0  0  0  0
   11.0383  -17.9262   21.1254 C   0  0  0  0  0  0  0  0  0  0  0  0
   10.4076  -18.7278   20.0616 C   0  0  0  0  0  0  0  0  0  0  0  0
    9.1543  -18.7929   20.0100 O   0  0  0  0  0  0  0  0  0  0  0  0
   10.6481  -16.4406   22.9604 C   0  0  0  0  0  0  0  0  0  0  0  0
   11.7908  -15.9132   23.0634 O   0  0  0  0  0  0  0  0  0  0  0  0
   11.1730  -19.3933   19.1406 O   0  0  0  0  0  0  0  0  0  0  0  0
    8.2911  -13.2515   27.3494 N   0  0  0  0  0  0  0  0  0  0  0  0
    9.2522  -14.0046   28.0489 C   0  0  0  0  0  0  0  0  0  0  0  0
    9.6870  -13.5451   29.1435 O   0  0  0  0  0  0  0  0  0  0  0  0
    9.7947  -15.3058   27.5923 C   0  0  0  0  0  0  0  0  0  0  0  0
    9.2456  -15.7097   26.2557 C   0  0  0  0  0  0  0  0  0  0  0  0
   10.3463  -16.3148   25.4016 C   0  0  2  0  0  0  0  0  0  0  0  0
    9.8676  -16.7022   24.1034 N   0  0  0  0  0  0  0  0  0  0  0  0
   10.9957  -17.4548   26.0641 C   0  0  0  0  0  0  0  0  0  0  0  0
   12.0087  -17.3183   27.0075 O   0  0  0  0  0  0  0  0  0  0  0  0
   10.6374  -18.6262   25.7827 O   0  0  0  0  0  0  0  0  0  0  0  0
  2  1  1  6
  2  7  1  0
  2  3  1  0
  4  3  1  0
  4  5  1  0
  5  6  2  0
  7  8  2  0
  9  5  1  0
 10 11  1  0
 10  7  1  0
 11 12  1  6
 13 12  1  0
 14 13  2  0
 15 16  2  0
 15 11  1  0
 17 13  1  0
 19 18  1  0
 20 19  2  0
 21 19  1  0
 22 21  1  0
 23 22  1  1
 23 24  1  0
 24 15  1  0
 25 23  1  0
 26 25  1  0
 27 25  2  0
M  END
$$$$
