EDQ.pdb
     RDKit          3D

 27 26  0  0  1  0  0  0  0  0999 V2000
   10.0126  -12.9613   19.7945 N   0  0  0  0  0  0  0  0  0  0  0  0
    8.7829  -13.7265   20.0245 C   0  0  1  0  0  0  0  0  0  0  0  0
    8.0397  -13.8668   18.7267 C   0  0  0  0  0  0  0  0  0  0  0  0
    8.8884  -14.3255   17.5986 C   0  0  0  0  0  0  0  0  0  0  0  0
    8.1955  -14.4894   16.3060 C   0  0  0  0  0  0  0  0  0  0  0  0
    8.7519  -14.8142   15.2380 O   0  0  0  0  0  0  0  0  0  0  0  0
    9.0867  -14.9947   20.7056 C   0  0  0  0  0  0  0  0  0  0  0  0
    8.1956  -15.8102   21.0474 O   0  0  0  0  0  0  0  0  0  0  0  0
    6.8267  -14.2644   16.2847 O   0  0  0  0  0  0  0  0  0  0  0  0
   10.4405  -15.3771   21.0231 N   0  0  0  0  0  0  0  0  0  0  0  0
   10.7186  -16.5809   21.7679 C   0  0  1  0  0  0  0  0  0  0  0  0
   11.8855  -17.3586   21.1954 C   0  0  0  0  0  0  0  0  0  0  0  0
   12.0809  -18.6633   21.8523 C   0  0  0  0  0  0  0  0  0  0  0  0
   11.2131  -19.0732   22.6625 O   0  0  0  0  0  0  0  0  0  0  0  0
   11.1479  -16.1848   23.1460 C   0  0  0  0  0  0  0  0  0  0  0  0
   12.1152  -15.3777   23.2332 O   0  0  0  0  0  0  0  0  0  0  0  0
   13.1907  -19.4211   21.5858 O   0  0  0  0  0  0  0  0  0  0  0  0
    9.1650  -13.7897   29.5875 N   0  0  0  0  0  0  0  0  0  0  0  0
    9.3201  -13.9113   28.1942 C   0  0  0  0  0  0  0  0  0  0  0  0
    8.5460  -13.2455   27.4487 O   0  0  0  0  0  0  0  0  0  0  0  0
   10.3321  -14.7687   27.5334 C   0  0  0  0  0  0  0  0  0  0  0  0
    9.8510  -15.2973   26.2143 C   0  0  0  0  0  0  0  0  0  0  0  0
   10.9074  -16.1975   25.5972 C   0  0  2  0  0  0  0  0  0  0  0  0
   10.5132  -16.6793   24.3022 N   0  0  0  0  0  0  0  0  0  0  0  0
   11.2531  -17.3250   26.4745 C   0  0  0  0  0  0  0  0  0  0  0  0
   11.9742  -17.1847   27.6556 O   0  0  0  0  0  0  0  0  0  0  0  0
   10.8913  -18.4885   26.1661 O   0  0  0  0  0  0  0  0  0  0  0  0
  2  1  1  6
  2  7  1  0
  2  3  1  0
  4  3  1  0
  4  5  1  0
  5  6  2  0
  7  8  2  0
  9  5  1  0
 10 11  1  0
 10  7  1  0
 11 12  1  6
 13 12  1  0
 14 13  2  0
 15 16  2  0
 15 11  1  0
 17 13  1  0
 19 18  1  0
 20 19  2  0
 21 19  1  0
 22 21  1  0
 23 22  1  1
 23 24  1  0
 24 15  1  0
 25 23  1  0
 26 25  1  0
 27 25  2  0
M  END
$$$$
