EDQ.pdb
     RDKit          3D

 27 26  0  0  1  0  0  0  0  0999 V2000
    9.9818  -19.5632   17.7945 N   0  0  0  0  0  0  0  0  0  0  0  0
   10.0020  -18.1313   18.1099 C   0  0  1  0  0  0  0  0  0  0  0  0
    9.4833  -17.3594   16.9304 C   0  0  0  0  0  0  0  0  0  0  0  0
    8.9777  -18.2179   15.8300 C   0  0  0  0  0  0  0  0  0  0  0  0
    8.5495  -17.5046   14.6112 C   0  0  0  0  0  0  0  0  0  0  0  0
    7.6450  -17.8897   13.8435 O   0  0  0  0  0  0  0  0  0  0  0  0
    9.2997  -17.8743   19.3769 C   0  0  0  0  0  0  0  0  0  0  0  0
    9.1318  -16.7178   19.8356 O   0  0  0  0  0  0  0  0  0  0  0  0
    9.2046  -16.3211   14.3032 O   0  0  0  0  0  0  0  0  0  0  0  0
    8.7585  -18.9482   20.1728 N   0  0  0  0  0  0  0  0  0  0  0  0
    8.0728  -18.6823   21.4140 C   0  0  1  0  0  0  0  0  0  0  0  0
    7.0109  -19.7177   21.7214 C   0  0  0  0  0  0  0  0  0  0  0  0
    5.8812  -19.6767   20.7758 C   0  0  0  0  0  0  0  0  0  0  0  0
    5.9013  -18.8406   19.8388 O   0  0  0  0  0  0  0  0  0  0  0  0
    9.0674  -18.7961   22.5268 C   0  0  0  0  0  0  0  0  0  0  0  0
    9.5047  -19.9521   22.7860 O   0  0  0  0  0  0  0  0  0  0  0  0
    4.8231  -20.5363   20.9129 O   0  0  0  0  0  0  0  0  0  0  0  0
   14.4313  -16.8788   22.9210 N   0  0  0  0  0  0  0  0  0  0  0  0
   13.2789  -16.2542   22.4091 C   0  0  0  0  0  0  0  0  0  0  0  0
   13.4228  -15.4091   21.4799 O   0  0  0  0  0  0  0  0  0  0  0  0
   11.8999  -16.5176   22.8834 C   0  0  0  0  0  0  0  0  0  0  0  0
   11.8587  -17.5833   23.9386 C   0  0  0  0  0  0  0  0  0  0  0  0
   10.4221  -17.8505   24.3534 C   0  0  2  0  0  0  0  0  0  0  0  0
    9.5059  -17.6765   23.2603 N   0  0  0  0  0  0  0  0  0  0  0  0
   10.0135  -17.0201   25.4952 C   0  0  0  0  0  0  0  0  0  0  0  0
   10.5909  -17.1137   26.7571 O   0  0  0  0  0  0  0  0  0  0  0  0
    9.0964  -16.1725   25.3530 O   0  0  0  0  0  0  0  0  0  0  0  0
  2  1  1  6
  2  7  1  0
  2  3  1  0
  4  3  1  0
  4  5  1  0
  5  6  2  0
  7  8  2  0
  9  5  1  0
 10 11  1  0
 10  7  1  0
 11 12  1  1
 13 12  1  0
 14 13  2  0
 15 16  2  0
 15 11  1  0
 17 13  1  0
 19 18  1  0
 20 19  2  0
 21 19  1  0
 22 21  1  0
 23 22  1  6
 23 24  1  0
 24 15  1  0
 25 23  1  0
 26 25  1  0
 27 25  2  0
M  END
$$$$
