EDQ.pdb
     RDKit          3D

 27 26  0  0  1  0  0  0  0  0999 V2000
    9.6664  -17.8577   19.4548 N   0  0  0  0  0  0  0  0  0  0  0  0
   10.6509  -17.3807   20.4313 C   0  0  1  0  0  0  0  0  0  0  0  0
   11.4694  -16.2846   19.8109 C   0  0  0  0  0  0  0  0  0  0  0  0
   12.5599  -15.7849   20.6854 C   0  0  0  0  0  0  0  0  0  0  0  0
   13.4128  -14.7320   20.1011 C   0  0  0  0  0  0  0  0  0  0  0  0
   13.0456  -13.9271   19.2218 O   0  0  0  0  0  0  0  0  0  0  0  0
    9.9887  -17.0210   21.6949 C   0  0  0  0  0  0  0  0  0  0  0  0
    8.8985  -16.3997   21.7352 O   0  0  0  0  0  0  0  0  0  0  0  0
   14.7156  -14.6361   20.5682 O   0  0  0  0  0  0  0  0  0  0  0  0
   10.5608  -17.3652   22.9731 N   0  0  0  0  0  0  0  0  0  0  0  0
    9.7448  -17.4281   24.1612 C   0  0  1  0  0  0  0  0  0  0  0  0
   10.0669  -18.6328   25.0209 C   0  0  0  0  0  0  0  0  0  0  0  0
    9.8119  -19.9111   24.3331 C   0  0  0  0  0  0  0  0  0  0  0  0
    8.6454  -20.1737   23.9486 O   0  0  0  0  0  0  0  0  0  0  0  0
   10.0706  -16.2398   25.0109 C   0  0  0  0  0  0  0  0  0  0  0  0
   11.2713  -15.8489   25.0102 O   0  0  0  0  0  0  0  0  0  0  0  0
   10.8292  -20.8023   24.1140 O   0  0  0  0  0  0  0  0  0  0  0  0
    5.1069  -12.7979   26.6637 N   0  0  0  0  0  0  0  0  0  0  0  0
    6.4102  -12.2838   26.5326 C   0  0  0  0  0  0  0  0  0  0  0  0
    6.6040  -11.0702   26.8294 O   0  0  0  0  0  0  0  0  0  0  0  0
    7.5795  -13.0672   26.0691 C   0  0  0  0  0  0  0  0  0  0  0  0
    8.2869  -13.7511   27.2018 C   0  0  0  0  0  0  0  0  0  0  0  0
    9.4852  -14.5232   26.6773 C   0  0  2  0  0  0  0  0  0  0  0  0
    9.0955  -15.5765   25.7812 N   0  0  0  0  0  0  0  0  0  0  0  0
   10.3136  -15.0627   27.7649 C   0  0  0  0  0  0  0  0  0  0  0  0
   11.1274  -14.2749   28.5723 O   0  0  0  0  0  0  0  0  0  0  0  0
   10.3063  -16.2973   28.0005 O   0  0  0  0  0  0  0  0  0  0  0  0
  2  1  1  6
  2  7  1  0
  2  3  1  0
  4  3  1  0
  4  5  1  0
  5  6  2  0
  7  8  2  0
  9  5  1  0
 10 11  1  0
 10  7  1  0
 11 12  1  1
 13 12  1  0
 14 13  2  0
 15 16  2  0
 15 11  1  0
 17 13  1  0
 19 18  1  0
 20 19  2  0
 21 19  1  0
 22 21  1  0
 23 22  1  1
 23 24  1  0
 24 15  1  0
 25 23  1  0
 26 25  1  0
 27 25  2  0
M  END
$$$$
