EDQ.pdb
     RDKit          3D

 27 26  0  0  1  0  0  0  0  0999 V2000
    8.8596  -14.6274   16.9984 N   0  0  0  0  0  0  0  0  0  0  0  0
    8.3861  -15.7460   17.8199 C   0  0  1  0  0  0  0  0  0  0  0  0
    7.4502  -16.5935   17.0062 C   0  0  0  0  0  0  0  0  0  0  0  0
    8.0522  -17.1146   15.7533 C   0  0  0  0  0  0  0  0  0  0  0  0
    7.1831  -17.9928   14.9465 C   0  0  0  0  0  0  0  0  0  0  0  0
    6.7685  -19.1112   15.3113 O   0  0  0  0  0  0  0  0  0  0  0  0
    9.5242  -16.4688   18.4088 C   0  0  0  0  0  0  0  0  0  0  0  0
    9.3788  -17.4649   19.1588 O   0  0  0  0  0  0  0  0  0  0  0  0
    6.8037  -17.5351   13.6930 O   0  0  0  0  0  0  0  0  0  0  0  0
   10.8865  -16.0693   18.1555 N   0  0  0  0  0  0  0  0  0  0  0  0
   11.9946  -16.8212   18.6920 C   0  0  1  0  0  0  0  0  0  0  0  0
   13.2319  -16.7270   17.8234 C   0  0  0  0  0  0  0  0  0  0  0  0
   14.3206  -17.6088   18.2810 C   0  0  0  0  0  0  0  0  0  0  0  0
   14.0408  -18.7691   18.6723 O   0  0  0  0  0  0  0  0  0  0  0  0
   12.3837  -16.2047   19.9993 C   0  0  0  0  0  0  0  0  0  0  0  0
   12.8666  -15.0386   19.9597 O   0  0  0  0  0  0  0  0  0  0  0  0
   15.6197  -17.1737   18.2808 O   0  0  0  0  0  0  0  0  0  0  0  0
    8.5561  -14.9257   23.8801 N   0  0  0  0  0  0  0  0  0  0  0  0
    9.3982  -15.9354   24.3817 C   0  0  0  0  0  0  0  0  0  0  0  0
    9.2044  -16.3394   25.5639 O   0  0  0  0  0  0  0  0  0  0  0  0
   10.5026  -16.5636   23.6192 C   0  0  0  0  0  0  0  0  0  0  0  0
   11.5195  -15.5583   23.1648 C   0  0  0  0  0  0  0  0  0  0  0  0
   12.6596  -16.2589   22.4462 C   0  0  2  0  0  0  0  0  0  0  0  0
   12.2248  -16.8795   21.2254 N   0  0  0  0  0  0  0  0  0  0  0  0
   13.3313  -17.2443   23.3052 C   0  0  0  0  0  0  0  0  0  0  0  0
   14.0535  -16.9032   24.4440 O   0  0  0  0  0  0  0  0  0  0  0  0
   13.2668  -18.4667   23.0200 O   0  0  0  0  0  0  0  0  0  0  0  0
  2  1  1  6
  2  7  1  0
  2  3  1  0
  4  3  1  0
  4  5  1  0
  5  6  2  0
  7  8  2  0
  9  5  1  0
 10 11  1  0
 10  7  1  0
 11 12  1  6
 13 12  1  0
 14 13  2  0
 15 16  2  0
 15 11  1  0
 17 13  1  0
 19 18  1  0
 20 19  2  0
 21 19  1  0
 22 21  1  0
 23 22  1  1
 23 24  1  0
 24 15  1  0
 25 23  1  0
 26 25  1  0
 27 25  2  0
M  END
$$$$
