EDQ.pdb
     RDKit          3D

 27 26  0  0  1  0  0  0  0  0999 V2000
   10.2681  -15.3051   18.1064 N   0  0  0  0  0  0  0  0  0  0  0  0
   10.7069  -16.1897   19.1905 C   0  0  1  0  0  0  0  0  0  0  0  0
   12.1522  -15.9167   19.4950 C   0  0  0  0  0  0  0  0  0  0  0  0
   12.6224  -14.5905   19.0218 C   0  0  0  0  0  0  0  0  0  0  0  0
   14.0620  -14.3228   19.2050 C   0  0  0  0  0  0  0  0  0  0  0  0
   14.7843  -13.7274   18.3806 O   0  0  0  0  0  0  0  0  0  0  0  0
    9.7987  -16.0798   20.3428 C   0  0  0  0  0  0  0  0  0  0  0  0
    8.8833  -15.2229   20.4042 O   0  0  0  0  0  0  0  0  0  0  0  0
   14.6476  -14.7683   20.3812 O   0  0  0  0  0  0  0  0  0  0  0  0
    9.9101  -16.9597   21.4799 N   0  0  0  0  0  0  0  0  0  0  0  0
    8.8857  -16.9972   22.4951 C   0  0  1  0  0  0  0  0  0  0  0  0
    8.6212  -18.4011   22.9982 C   0  0  0  0  0  0  0  0  0  0  0  0
    7.6516  -18.4382   24.1074 C   0  0  0  0  0  0  0  0  0  0  0  0
    7.0490  -17.3830   24.4251 O   0  0  0  0  0  0  0  0  0  0  0  0
    9.3849  -16.2399   23.6857 C   0  0  0  0  0  0  0  0  0  0  0  0
   10.5940  -16.4124   24.0066 O   0  0  0  0  0  0  0  0  0  0  0  0
    7.4077  -19.6042   24.7843 O   0  0  0  0  0  0  0  0  0  0  0  0
    6.5591  -11.1870   26.4334 N   0  0  0  0  0  0  0  0  0  0  0  0
    6.2751  -12.4833   26.9017 C   0  0  0  0  0  0  0  0  0  0  0  0
    5.2238  -12.6530   27.5831 O   0  0  0  0  0  0  0  0  0  0  0  0
    7.1246  -13.6714   26.6518 C   0  0  0  0  0  0  0  0  0  0  0  0
    8.3068  -13.3493   25.7859 C   0  0  0  0  0  0  0  0  0  0  0  0
    9.1096  -14.6090   25.5108 C   0  0  2  0  0  0  0  0  0  0  0  0
    8.5583  -15.3712   24.4246 N   0  0  0  0  0  0  0  0  0  0  0  0
    9.2411  -15.4524   26.7073 C   0  0  0  0  0  0  0  0  0  0  0  0
   10.0885  -15.1514   27.7684 O   0  0  0  0  0  0  0  0  0  0  0  0
    8.5647  -16.5073   26.8038 O   0  0  0  0  0  0  0  0  0  0  0  0
  2  1  1  6
  2  7  1  0
  2  3  1  0
  4  3  1  0
  4  5  1  0
  5  6  2  0
  7  8  2  0
  9  5  1  0
 10 11  1  0
 10  7  1  0
 11 12  1  1
 13 12  1  0
 14 13  2  0
 15 16  2  0
 15 11  1  0
 17 13  1  0
 19 18  1  0
 20 19  2  0
 21 19  1  0
 22 21  1  0
 23 22  1  1
 23 24  1  0
 24 15  1  0
 25 23  1  0
 26 25  1  0
 27 25  2  0
M  END
$$$$
