EDQ.pdb
     RDKit          3D

 27 26  0  0  1  0  0  0  0  0999 V2000
   10.1338  -14.4540   18.5431 N   0  0  0  0  0  0  0  0  0  0  0  0
    9.2276  -13.7132   19.4263 C   0  0  1  0  0  0  0  0  0  0  0  0
    8.1041  -13.1396   18.6108 C   0  0  0  0  0  0  0  0  0  0  0  0
    7.4282  -14.1350   17.7412 C   0  0  0  0  0  0  0  0  0  0  0  0
    7.9715  -14.2598   16.3748 C   0  0  0  0  0  0  0  0  0  0  0  0
    9.0405  -13.7479   15.9860 O   0  0  0  0  0  0  0  0  0  0  0  0
    8.8064  -14.5573   20.5553 C   0  0  0  0  0  0  0  0  0  0  0  0
    7.9766  -14.1732   21.4154 O   0  0  0  0  0  0  0  0  0  0  0  0
    7.2351  -15.0012   15.4624 O   0  0  0  0  0  0  0  0  0  0  0  0
    9.3292  -15.8885   20.7403 N   0  0  0  0  0  0  0  0  0  0  0  0
    8.8462  -16.7368   21.8026 C   0  0  1  0  0  0  0  0  0  0  0  0
    8.9223  -18.2075   21.4482 C   0  0  0  0  0  0  0  0  0  0  0  0
    7.8310  -18.6382   20.5563 C   0  0  0  0  0  0  0  0  0  0  0  0
    6.6704  -18.2034   20.7600 O   0  0  0  0  0  0  0  0  0  0  0  0
    9.7548  -16.5682   22.9801 C   0  0  0  0  0  0  0  0  0  0  0  0
   10.9963  -16.5757   22.7493 O   0  0  0  0  0  0  0  0  0  0  0  0
    8.0745  -19.4996   19.5190 O   0  0  0  0  0  0  0  0  0  0  0  0
    8.9250  -13.3239   28.4267 N   0  0  0  0  0  0  0  0  0  0  0  0
   10.0983  -14.0904   28.5527 C   0  0  0  0  0  0  0  0  0  0  0  0
   10.7848  -13.9591   29.6062 O   0  0  0  0  0  0  0  0  0  0  0  0
   10.5903  -15.0468   27.5334 C   0  0  0  0  0  0  0  0  0  0  0  0
    9.6353  -15.1904   26.3851 C   0  0  0  0  0  0  0  0  0  0  0  0
   10.1802  -16.1862   25.3758 C   0  0  2  0  0  0  0  0  0  0  0  0
    9.2646  -16.4071   24.2907 N   0  0  0  0  0  0  0  0  0  0  0  0
   10.5427  -17.4653   26.0024 C   0  0  0  0  0  0  0  0  0  0  0  0
    9.6967  -18.5687   26.0383 O   0  0  0  0  0  0  0  0  0  0  0  0
   11.6700  -17.5976   26.5423 O   0  0  0  0  0  0  0  0  0  0  0  0
  2  1  1  6
  2  7  1  0
  2  3  1  0
  4  3  1  0
  4  5  1  0
  5  6  2  0
  7  8  2  0
  9  5  1  0
 10 11  1  0
 10  7  1  0
 11 12  1  6
 13 12  1  0
 14 13  2  0
 15 16  2  0
 15 11  1  0
 17 13  1  0
 19 18  1  0
 20 19  2  0
 21 19  1  0
 22 21  1  0
 23 22  1  1
 23 24  1  0
 24 15  1  0
 25 23  1  0
 26 25  1  0
 27 25  2  0
M  END
$$$$
