EDQ.pdb
     RDKit          3D

 27 26  0  0  1  0  0  0  0  0999 V2000
   11.0139  -16.6158   20.2270 N   0  0  0  0  0  0  0  0  0  0  0  0
    9.6293  -16.4501   20.6808 C   0  0  1  0  0  0  0  0  0  0  0  0
    8.7111  -17.1704   19.7350 C   0  0  0  0  0  0  0  0  0  0  0  0
    9.3733  -18.2569   18.9705 C   0  0  0  0  0  0  0  0  0  0  0  0
    8.4891  -19.0488   18.0937 C   0  0  0  0  0  0  0  0  0  0  0  0
    8.2384  -18.7742   16.9031 O   0  0  0  0  0  0  0  0  0  0  0  0
    9.5004  -16.8453   22.0921 C   0  0  0  0  0  0  0  0  0  0  0  0
    8.4146  -16.7762   22.7182 O   0  0  0  0  0  0  0  0  0  0  0  0
    7.8975  -20.1787   18.6397 O   0  0  0  0  0  0  0  0  0  0  0  0
   10.6269  -17.3396   22.8448 N   0  0  0  0  0  0  0  0  0  0  0  0
   10.4845  -17.7330   24.2255 C   0  0  1  0  0  0  0  0  0  0  0  0
   11.6074  -18.6383   24.6876 C   0  0  0  0  0  0  0  0  0  0  0  0
   11.4499  -19.0772   26.0857 C   0  0  0  0  0  0  0  0  0  0  0  0
   10.3090  -19.0432   26.6098 O   0  0  0  0  0  0  0  0  0  0  0  0
   10.5966  -16.5035   25.0718 C   0  0  0  0  0  0  0  0  0  0  0  0
   11.4772  -15.6609   24.7414 O   0  0  0  0  0  0  0  0  0  0  0  0
   12.5290  -19.5168   26.8064 O   0  0  0  0  0  0  0  0  0  0  0  0
    5.9662  -12.7816   26.2205 N   0  0  0  0  0  0  0  0  0  0  0  0
    7.0692  -12.2244   26.8935 C   0  0  0  0  0  0  0  0  0  0  0  0
    6.9535  -11.0546   27.3591 O   0  0  0  0  0  0  0  0  0  0  0  0
    8.3647  -12.9141   27.0975 C   0  0  0  0  0  0  0  0  0  0  0  0
    8.3842  -14.2776   26.4717 C   0  0  0  0  0  0  0  0  0  0  0  0
    9.6984  -14.9738   26.7804 C   0  0  2  0  0  0  0  0  0  0  0  0
    9.7663  -16.2809   26.1876 N   0  0  0  0  0  0  0  0  0  0  0  0
    9.9525  -15.0581   28.2256 C   0  0  0  0  0  0  0  0  0  0  0  0
   10.3508  -13.9727   28.9988 O   0  0  0  0  0  0  0  0  0  0  0  0
    9.8107  -16.1561   28.8205 O   0  0  0  0  0  0  0  0  0  0  0  0
  2  1  1  6
  2  7  1  0
  2  3  1  0
  4  3  1  0
  4  5  1  0
  5  6  2  0
  7  8  2  0
  9  5  1  0
 10 11  1  0
 10  7  1  0
 11 12  1  1
 13 12  1  0
 14 13  2  0
 15 16  2  0
 15 11  1  0
 17 13  1  0
 19 18  1  0
 20 19  2  0
 21 19  1  0
 22 21  1  0
 23 22  1  1
 23 24  1  0
 24 15  1  0
 25 23  1  0
 26 25  1  0
 27 25  2  0
M  END
$$$$
