EDQ.pdb
     RDKit          3D

 27 26  0  0  1  0  0  0  0  0999 V2000
   15.2398  -13.4062   16.6352 N   0  0  0  0  0  0  0  0  0  0  0  0
   14.1545  -14.3918   16.6068 C   0  0  1  0  0  0  0  0  0  0  0  0
   14.7018  -15.7147   16.1523 C   0  0  0  0  0  0  0  0  0  0  0  0
   15.6478  -16.3327   17.1151 C   0  0  0  0  0  0  0  0  0  0  0  0
   16.1312  -17.6802   16.7570 C   0  0  0  0  0  0  0  0  0  0  0  0
   16.2469  -18.6293   17.5580 O   0  0  0  0  0  0  0  0  0  0  0  0
   13.4537  -14.4218   17.9001 C   0  0  0  0  0  0  0  0  0  0  0  0
   13.9373  -13.9199   18.9442 O   0  0  0  0  0  0  0  0  0  0  0  0
   16.4802  -17.9000   15.4325 O   0  0  0  0  0  0  0  0  0  0  0  0
   12.1571  -15.0367   18.0434 N   0  0  0  0  0  0  0  0  0  0  0  0
   11.4264  -14.9523   19.2845 C   0  0  1  0  0  0  0  0  0  0  0  0
    9.9871  -15.4014   19.1399 C   0  0  0  0  0  0  0  0  0  0  0  0
    9.1646  -14.4482   18.3738 C   0  0  0  0  0  0  0  0  0  0  0  0
    9.6872  -13.3797   17.9705 O   0  0  0  0  0  0  0  0  0  0  0  0
   12.0433  -15.9133   20.2521 C   0  0  0  0  0  0  0  0  0  0  0  0
   12.2180  -17.0970   19.8486 O   0  0  0  0  0  0  0  0  0  0  0  0
    7.8493  -14.7198   18.1031 O   0  0  0  0  0  0  0  0  0  0  0  0
   17.2644  -16.2848   21.4532 N   0  0  0  0  0  0  0  0  0  0  0  0
   16.4637  -15.3987   22.1974 C   0  0  0  0  0  0  0  0  0  0  0  0
   17.0401  -14.5870   22.9766 O   0  0  0  0  0  0  0  0  0  0  0  0
   14.9841  -15.3478   22.1329 C   0  0  0  0  0  0  0  0  0  0  0  0
   14.3542  -16.6371   22.5711 C   0  0  0  0  0  0  0  0  0  0  0  0
   12.8409  -16.5282   22.4998 C   0  0  2  0  0  0  0  0  0  0  0  0
   12.4177  -15.5315   21.5552 N   0  0  0  0  0  0  0  0  0  0  0  0
   12.2435  -16.2654   23.8167 C   0  0  0  0  0  0  0  0  0  0  0  0
   12.4410  -17.0821   24.9251 O   0  0  0  0  0  0  0  0  0  0  0  0
   11.5109  -15.2571   23.9789 O   0  0  0  0  0  0  0  0  0  0  0  0
  2  1  1  1
  2  7  1  0
  2  3  1  0
  4  3  1  0
  4  5  1  0
  5  6  2  0
  7  8  2  0
  9  5  1  0
 10 11  1  0
 10  7  1  0
 11 12  1  6
 13 12  1  0
 14 13  2  0
 15 16  2  0
 15 11  1  0
 17 13  1  0
 19 18  1  0
 20 19  2  0
 21 19  1  0
 22 21  1  0
 23 22  1  1
 23 24  1  0
 24 15  1  0
 25 23  1  0
 26 25  1  0
 27 25  2  0
M  END
$$$$
