EDQ.pdb
     RDKit          3D

 27 26  0  0  1  0  0  0  0  0999 V2000
    9.5971  -12.8781   19.4524 N   0  0  0  0  0  0  0  0  0  0  0  0
    8.2535  -13.4065   19.7090 C   0  0  1  0  0  0  0  0  0  0  0  0
    7.5717  -13.6772   18.3982 C   0  0  0  0  0  0  0  0  0  0  0  0
    8.4487  -14.3255   17.3911 C   0  0  0  0  0  0  0  0  0  0  0  0
    7.7725  -14.7972   16.1673 C   0  0  0  0  0  0  0  0  0  0  0  0
    7.1097  -15.8505   16.0832 O   0  0  0  0  0  0  0  0  0  0  0  0
    8.3198  -14.5574   20.6230 C   0  0  0  0  0  0  0  0  0  0  0  0
    7.3034  -15.2100   20.9651 O   0  0  0  0  0  0  0  0  0  0  0  0
    7.8863  -14.0073   15.0325 O   0  0  0  0  0  0  0  0  0  0  0  0
    9.5702  -15.0061   21.1844 N   0  0  0  0  0  0  0  0  0  0  0  0
    9.6184  -16.1232   22.0960 C   0  0  1  0  0  0  0  0  0  0  0  0
   10.8308  -17.0024   21.8697 C   0  0  0  0  0  0  0  0  0  0  0  0
   10.8285  -18.2090   22.7159 C   0  0  0  0  0  0  0  0  0  0  0  0
    9.7469  -18.5933   23.2257 O   0  0  0  0  0  0  0  0  0  0  0  0
    9.7773  -15.5833   23.4830 C   0  0  0  0  0  0  0  0  0  0  0  0
   10.7793  -14.8453   23.6974 O   0  0  0  0  0  0  0  0  0  0  0  0
   11.9865  -18.9044   22.9453 O   0  0  0  0  0  0  0  0  0  0  0  0
    6.3869  -11.0299   25.7514 N   0  0  0  0  0  0  0  0  0  0  0  0
    6.4983  -12.4278   25.8671 C   0  0  0  0  0  0  0  0  0  0  0  0
    5.5072  -13.0684   26.3207 O   0  0  0  0  0  0  0  0  0  0  0  0
    7.7010  -13.2084   25.4928 C   0  0  0  0  0  0  0  0  0  0  0  0
    7.7871  -14.5072   26.2391 C   0  0  0  0  0  0  0  0  0  0  0  0
    9.0247  -15.2748   25.8078 C   0  0  2  0  0  0  0  0  0  0  0  0
    8.8610  -15.8745   24.5124 N   0  0  0  0  0  0  0  0  0  0  0  0
    9.4140  -16.2935   26.7932 C   0  0  0  0  0  0  0  0  0  0  0  0
    9.8294  -15.9911   28.0857 O   0  0  0  0  0  0  0  0  0  0  0  0
    9.3795  -17.5100   26.4790 O   0  0  0  0  0  0  0  0  0  0  0  0
  2  1  1  6
  2  7  1  0
  2  3  1  0
  4  3  1  0
  4  5  1  0
  5  6  2  0
  7  8  2  0
  9  5  1  0
 10 11  1  0
 10  7  1  0
 11 12  1  6
 13 12  1  0
 14 13  2  0
 15 16  2  0
 15 11  1  0
 17 13  1  0
 19 18  1  0
 20 19  2  0
 21 19  1  0
 22 21  1  0
 23 22  1  1
 23 24  1  0
 24 15  1  0
 25 23  1  0
 26 25  1  0
 27 25  2  0
M  END
$$$$
