EDQ.pdb
     RDKit          3D

 27 26  0  0  1  0  0  0  0  0999 V2000
    8.1250  -18.1445   20.2737 N   0  0  0  0  0  0  0  0  0  0  0  0
    9.3073  -18.1812   21.1404 C   0  0  1  0  0  0  0  0  0  0  0  0
   10.3855  -17.3252   20.5397 C   0  0  0  0  0  0  0  0  0  0  0  0
   10.4193  -17.3603   19.0560 C   0  0  0  0  0  0  0  0  0  0  0  0
   11.5185  -16.6037   18.4260 C   0  0  0  0  0  0  0  0  0  0  0  0
   12.4192  -16.0076   19.0498 O   0  0  0  0  0  0  0  0  0  0  0  0
    8.9414  -17.8381   22.5235 C   0  0  0  0  0  0  0  0  0  0  0  0
    7.8797  -17.2341   22.8132 O   0  0  0  0  0  0  0  0  0  0  0  0
   11.5457  -16.5563   17.0398 O   0  0  0  0  0  0  0  0  0  0  0  0
    9.7913  -18.1797   23.6374 N   0  0  0  0  0  0  0  0  0  0  0  0
    9.3263  -18.0466   24.9966 C   0  0  1  0  0  0  0  0  0  0  0  0
    9.9104  -19.1013   25.9135 C   0  0  0  0  0  0  0  0  0  0  0  0
    9.4188  -20.4575   25.6117 C   0  0  0  0  0  0  0  0  0  0  0  0
    8.1806  -20.6674   25.5980 O   0  0  0  0  0  0  0  0  0  0  0  0
    9.8247  -16.7405   25.5313 C   0  0  0  0  0  0  0  0  0  0  0  0
   10.9791  -16.3782   25.1695 O   0  0  0  0  0  0  0  0  0  0  0  0
   10.2959  -21.4768   25.3492 O   0  0  0  0  0  0  0  0  0  0  0  0
    6.2666  -11.8603   26.7565 N   0  0  0  0  0  0  0  0  0  0  0  0
    6.3446  -12.9574   25.8787 C   0  0  0  0  0  0  0  0  0  0  0  0
    5.3989  -13.1313   25.0578 O   0  0  0  0  0  0  0  0  0  0  0  0
    7.4624  -13.9296   25.8467 C   0  0  0  0  0  0  0  0  0  0  0  0
    8.5410  -13.5838   26.8306 C   0  0  0  0  0  0  0  0  0  0  0  0
    9.5802  -14.6907   26.8748 C   0  0  2  0  0  0  0  0  0  0  0  0
    9.0551  -15.9403   26.3981 N   0  0  0  0  0  0  0  0  0  0  0  0
   10.1504  -14.8595   28.2189 C   0  0  0  0  0  0  0  0  0  0  0  0
   10.1136  -16.0588   28.9225 O   0  0  0  0  0  0  0  0  0  0  0  0
   10.7065  -13.8860   28.7869 O   0  0  0  0  0  0  0  0  0  0  0  0
  2  1  1  6
  2  7  1  0
  2  3  1  0
  4  3  1  0
  4  5  1  0
  5  6  2  0
  7  8  2  0
  9  5  1  0
 10 11  1  0
 10  7  1  0
 11 12  1  1
 13 12  1  0
 14 13  2  0
 15 16  2  0
 15 11  1  0
 17 13  1  0
 19 18  1  0
 20 19  2  0
 21 19  1  0
 22 21  1  0
 23 22  1  1
 23 24  1  0
 24 15  1  0
 25 23  1  0
 26 25  1  0
 27 25  2  0
M  END
$$$$
