GDM.pdb
     RDKit          3D

 21 20  0  0  1  0  0  0  0  0999 V2000
    5.7853  -15.1398   20.5623 N   0  0  0  0  0  0  0  0  0  0  0  0
    7.1526  -14.7079   20.7782 C   0  0  0  0  0  0  0  0  0  0  0  0
    7.8056  -15.5744   21.7913 C   0  0  0  0  0  0  0  0  0  0  0  0
    7.1557  -16.1472   22.6804 O   0  0  0  0  0  0  0  0  0  0  0  0
    9.2207  -15.7591   21.7484 N   0  0  0  0  0  0  0  0  0  0  0  0
    9.9593  -16.5406   22.6995 C   0  0  1  0  0  0  0  0  0  0  0  0
   11.2864  -17.0173   22.1790 C   0  0  0  0  0  0  0  0  0  0  0  0
   11.1929  -17.6975   20.8840 C   0  0  0  0  0  0  0  0  0  0  0  0
   10.5331  -18.7798   20.8114 O   0  0  0  0  0  0  0  0  0  0  0  0
   10.1403  -15.7909   23.9831 C   0  0  0  0  0  0  0  0  0  0  0  0
   11.1249  -15.0172   24.0855 O   0  0  0  0  0  0  0  0  0  0  0  0
   11.7705  -17.2620   19.6998 O   0  0  0  0  0  0  0  0  0  0  0  0
    6.4612  -10.7638   25.9522 C   0  0  0  0  0  0  0  0  0  0  0  0
    6.8659  -12.2452   26.8556 S   0  0  0  0  0  0  0  0  0  0  0  0
    7.9080  -13.4330   26.0404 C   0  0  0  0  0  0  0  0  0  0  0  0
    8.2667  -14.6443   26.8283 C   0  0  0  0  0  0  0  0  0  0  0  0
    9.5341  -15.3330   26.4045 C   0  0  2  0  0  0  0  0  0  0  0  0
    9.2721  -15.9079   25.0709 N   0  0  0  0  0  0  0  0  0  0  0  0
    9.8457  -16.4337   27.3465 C   0  0  0  0  0  0  0  0  0  0  0  0
   10.4519  -16.2122   28.5488 O   0  0  0  0  0  0  0  0  0  0  0  0
    9.5389  -17.6030   27.0235 O   0  0  0  0  0  0  0  0  0  0  0  0
  2  1  1  0
  3  2  1  0
  4  3  2  0
  5  3  1  0
  6 10  1  0
  6  5  1  0
  7  8  1  0
  6  7  1  6
  8 12  1  0
  9  8  2  0
 10 11  2  0
 13 14  1  0
 14 15  1  0
 16 15  1  0
 17 16  1  1
 18 17  1  0
 18 10  1  0
 19 20  1  0
 19 17  1  0
 21 19  2  0
M  END
$$$$
