GDM.pdb
     RDKit          3D

 21 20  0  0  1  0  0  0  0  0999 V2000
    7.2187  -12.7110   18.9881 N   0  0  0  0  0  0  0  0  0  0  0  0
    8.4451  -13.4700   19.1376 C   0  0  0  0  0  0  0  0  0  0  0  0
    8.2938  -14.4725   20.2218 C   0  0  0  0  0  0  0  0  0  0  0  0
    7.2832  -14.5119   20.9414 O   0  0  0  0  0  0  0  0  0  0  0  0
    9.3359  -15.4216   20.4494 N   0  0  0  0  0  0  0  0  0  0  0  0
    9.3334  -16.3779   21.5200 C   0  0  1  0  0  0  0  0  0  0  0  0
   10.3102  -17.5026   21.3189 C   0  0  0  0  0  0  0  0  0  0  0  0
    9.8851  -18.4668   20.3000 C   0  0  0  0  0  0  0  0  0  0  0  0
   10.6248  -18.6436   19.2834 O   0  0  0  0  0  0  0  0  0  0  0  0
    9.5726  -15.7074   22.8375 C   0  0  0  0  0  0  0  0  0  0  0  0
   10.6459  -15.0735   22.9953 O   0  0  0  0  0  0  0  0  0  0  0  0
    8.7229  -19.2239   20.3401 O   0  0  0  0  0  0  0  0  0  0  0  0
    6.6170  -10.9133   25.9125 C   0  0  0  0  0  0  0  0  0  0  0  0
    6.4221  -12.3104   27.0009 S   0  0  0  0  0  0  0  0  0  0  0  0
    7.5820  -13.6461   26.8216 C   0  0  0  0  0  0  0  0  0  0  0  0
    7.6257  -14.3052   25.4874 C   0  0  0  0  0  0  0  0  0  0  0  0
    8.8783  -15.0844   25.1976 C   0  0  2  0  0  0  0  0  0  0  0  0
    8.6653  -15.7511   23.8984 N   0  0  0  0  0  0  0  0  0  0  0  0
    9.0770  -16.1197   26.2391 C   0  0  0  0  0  0  0  0  0  0  0  0
    9.5782  -15.8230   27.4731 O   0  0  0  0  0  0  0  0  0  0  0  0
    8.7718  -17.3034   25.9724 O   0  0  0  0  0  0  0  0  0  0  0  0
  2  1  1  0
  3  2  1  0
  4  3  2  0
  5  3  1  0
  6 10  1  0
  6  5  1  0
  7  8  1  0
  6  7  1  6
  8 12  1  0
  9  8  2  0
 10 11  2  0
 13 14  1  0
 14 15  1  0
 16 15  1  0
 17 16  1  1
 18 17  1  0
 18 10  1  0
 19 20  1  0
 19 17  1  0
 21 19  2  0
M  END
$$$$
