GDM.pdb
     RDKit          3D

 21 20  0  0  1  0  0  0  0  0999 V2000
    6.9781  -12.8420   18.8468 N   0  0  0  0  0  0  0  0  0  0  0  0
    8.3313  -13.2062   19.2192 C   0  0  0  0  0  0  0  0  0  0  0  0
    8.3113  -14.3922   20.1117 C   0  0  0  0  0  0  0  0  0  0  0  0
    7.2519  -14.9565   20.4279 O   0  0  0  0  0  0  0  0  0  0  0  0
    9.5414  -14.9043   20.6248 N   0  0  0  0  0  0  0  0  0  0  0  0
    9.6389  -16.0430   21.4934 C   0  0  1  0  0  0  0  0  0  0  0  0
   10.7887  -16.9521   21.1602 C   0  0  0  0  0  0  0  0  0  0  0  0
   10.8893  -18.1125   22.0499 C   0  0  0  0  0  0  0  0  0  0  0  0
    9.8818  -18.8754   22.1713 O   0  0  0  0  0  0  0  0  0  0  0  0
    9.7077  -15.6180   22.9278 C   0  0  0  0  0  0  0  0  0  0  0  0
   10.6979  -14.9400   23.2997 O   0  0  0  0  0  0  0  0  0  0  0  0
   12.0076  -18.4667   22.7914 O   0  0  0  0  0  0  0  0  0  0  0  0
    6.9287  -10.7916   26.9332 C   0  0  0  0  0  0  0  0  0  0  0  0
    6.7544  -12.5646   26.9106 S   0  0  0  0  0  0  0  0  0  0  0  0
    7.5548  -13.4414   25.5869 C   0  0  0  0  0  0  0  0  0  0  0  0
    7.5367  -14.9274   25.6762 C   0  0  0  0  0  0  0  0  0  0  0  0
    8.8255  -15.6079   25.3072 C   0  0  2  0  0  0  0  0  0  0  0  0
    8.7291  -15.9369   23.8719 N   0  0  0  0  0  0  0  0  0  0  0  0
    8.9666  -16.8660   26.0774 C   0  0  0  0  0  0  0  0  0  0  0  0
    9.4135  -16.8833   27.3666 O   0  0  0  0  0  0  0  0  0  0  0  0
    8.6628  -17.9452   25.5219 O   0  0  0  0  0  0  0  0  0  0  0  0
  2  1  1  0
  3  2  1  0
  4  3  2  0
  5  3  1  0
  6 10  1  0
  6  5  1  0
  7  8  1  0
  6  7  1  6
  8 12  1  0
  9  8  2  0
 10 11  2  0
 13 14  1  0
 14 15  1  0
 16 15  1  0
 17 16  1  1
 18 17  1  0
 18 10  1  0
 19 20  1  0
 19 17  1  0
 21 19  2  0
M  END
$$$$
