GDM.pdb
     RDKit          3D

 21 20  0  0  1  0  0  0  0  0999 V2000
    7.6196  -12.4160   18.7652 N   0  0  0  0  0  0  0  0  0  0  0  0
    8.7198  -13.3458   18.9313 C   0  0  0  0  0  0  0  0  0  0  0  0
    8.5128  -14.1657   20.1513 C   0  0  0  0  0  0  0  0  0  0  0  0
    7.5717  -13.9525   20.9322 O   0  0  0  0  0  0  0  0  0  0  0  0
    9.4175  -15.2314   20.4415 N   0  0  0  0  0  0  0  0  0  0  0  0
    9.2336  -16.1750   21.5077 C   0  0  1  0  0  0  0  0  0  0  0  0
    9.9408  -17.4814   21.2779 C   0  0  0  0  0  0  0  0  0  0  0  0
    9.7415  -18.4489   22.3609 C   0  0  0  0  0  0  0  0  0  0  0  0
    8.5970  -18.9809   22.4987 O   0  0  0  0  0  0  0  0  0  0  0  0
    9.6416  -15.5843   22.8219 C   0  0  0  0  0  0  0  0  0  0  0  0
   10.8307  -15.2020   22.9579 O   0  0  0  0  0  0  0  0  0  0  0  0
   10.7072  -18.8494   23.2734 O   0  0  0  0  0  0  0  0  0  0  0  0
    5.4050  -12.1152   26.5078 C   0  0  0  0  0  0  0  0  0  0  0  0
    6.9558  -12.0929   27.3848 S   0  0  0  0  0  0  0  0  0  0  0  0
    8.1419  -13.3499   26.9668 C   0  0  0  0  0  0  0  0  0  0  0  0
    8.0295  -13.9329   25.6015 C   0  0  0  0  0  0  0  0  0  0  0  0
    9.1519  -14.8496   25.2011 C   0  0  2  0  0  0  0  0  0  0  0  0
    8.7692  -15.4373   23.9027 N   0  0  0  0  0  0  0  0  0  0  0  0
    9.2893  -15.9386   26.1967 C   0  0  0  0  0  0  0  0  0  0  0  0
    9.9168  -15.7541   27.3942 O   0  0  0  0  0  0  0  0  0  0  0  0
    8.8106  -17.0622   25.9247 O   0  0  0  0  0  0  0  0  0  0  0  0
  2  1  1  0
  3  2  1  0
  4  3  2  0
  5  3  1  0
  6 10  1  0
  6  5  1  0
  7  8  1  0
  6  7  1  6
  8 12  1  0
  9  8  2  0
 10 11  2  0
 13 14  1  0
 14 15  1  0
 16 15  1  0
 17 16  1  1
 18 17  1  0
 18 10  1  0
 19 20  1  0
 19 17  1  0
 21 19  2  0
M  END
$$$$
