GDM.pdb
     RDKit          3D

 21 20  0  0  1  0  0  0  0  0999 V2000
    7.7877  -12.6478   18.3567 N   0  0  0  0  0  0  0  0  0  0  0  0
    8.9024  -13.5341   18.6298 C   0  0  0  0  0  0  0  0  0  0  0  0
    8.6004  -14.3820   19.8102 C   0  0  0  0  0  0  0  0  0  0  0  0
    7.5811  -14.2096   20.4973 O   0  0  0  0  0  0  0  0  0  0  0  0
    9.5032  -15.4274   20.1717 N   0  0  0  0  0  0  0  0  0  0  0  0
    9.2618  -16.3694   21.2277 C   0  0  1  0  0  0  0  0  0  0  0  0
   10.1231  -17.5983   21.1407 C   0  0  0  0  0  0  0  0  0  0  0  0
    9.8519  -18.4157   19.9546 C   0  0  0  0  0  0  0  0  0  0  0  0
    8.6789  -18.8706   19.7844 O   0  0  0  0  0  0  0  0  0  0  0  0
    9.4118  -15.7203   22.5689 C   0  0  0  0  0  0  0  0  0  0  0  0
   10.4938  -15.1369   22.8290 O   0  0  0  0  0  0  0  0  0  0  0  0
   10.7767  -18.7488   18.9751 O   0  0  0  0  0  0  0  0  0  0  0  0
    6.5499  -11.1094   27.8274 C   0  0  0  0  0  0  0  0  0  0  0  0
    6.7196  -11.9962   26.2914 S   0  0  0  0  0  0  0  0  0  0  0  0
    6.9451  -13.7570   26.3922 C   0  0  0  0  0  0  0  0  0  0  0  0
    7.1062  -14.4750   25.0979 C   0  0  0  0  0  0  0  0  0  0  0  0
    8.4908  -14.9898   24.8180 C   0  0  2  0  0  0  0  0  0  0  0  0
    8.4121  -15.7308   23.5442 N   0  0  0  0  0  0  0  0  0  0  0  0
    8.9043  -15.9252   25.8903 C   0  0  0  0  0  0  0  0  0  0  0  0
    9.0246  -17.2677   25.6778 O   0  0  0  0  0  0  0  0  0  0  0  0
    9.1514  -15.4621   27.0262 O   0  0  0  0  0  0  0  0  0  0  0  0
  2  1  1  0
  3  2  1  0
  4  3  2  0
  5  3  1  0
  6 10  1  0
  6  5  1  0
  7  8  1  0
  6  7  1  1
  8 12  1  0
  9  8  2  0
 10 11  2  0
 13 14  1  0
 14 15  1  0
 16 15  1  0
 17 16  1  1
 18 17  1  0
 18 10  1  0
 19 20  1  0
 19 17  1  0
 21 19  2  0
M  END
$$$$
