GDM.pdb
     RDKit          3D

 21 20  0  0  1  0  0  0  0  0999 V2000
    7.0953  -12.7611   18.9012 N   0  0  0  0  0  0  0  0  0  0  0  0
    8.3874  -13.3891   19.0981 C   0  0  0  0  0  0  0  0  0  0  0  0
    8.3314  -14.3150   20.2570 C   0  0  0  0  0  0  0  0  0  0  0  0
    7.3767  -14.3147   21.0504 O   0  0  0  0  0  0  0  0  0  0  0  0
    9.4020  -15.2349   20.4718 N   0  0  0  0  0  0  0  0  0  0  0  0
    9.4052  -16.2409   21.4958 C   0  0  1  0  0  0  0  0  0  0  0  0
   10.4596  -17.2934   21.2962 C   0  0  0  0  0  0  0  0  0  0  0  0
   10.2542  -18.1010   20.0903 C   0  0  0  0  0  0  0  0  0  0  0  0
   11.0582  -17.9584   19.1182 O   0  0  0  0  0  0  0  0  0  0  0  0
    9.5347  -15.6225   22.8535 C   0  0  0  0  0  0  0  0  0  0  0  0
   10.5774  -14.9712   23.1127 O   0  0  0  0  0  0  0  0  0  0  0  0
    9.2401  -19.0297   19.9039 O   0  0  0  0  0  0  0  0  0  0  0  0
    6.9161  -10.7724   26.5680 C   0  0  0  0  0  0  0  0  0  0  0  0
    6.0803  -12.3371   26.7340 S   0  0  0  0  0  0  0  0  0  0  0  0
    7.0895  -13.8010   26.7211 C   0  0  0  0  0  0  0  0  0  0  0  0
    7.2631  -14.4690   25.4019 C   0  0  0  0  0  0  0  0  0  0  0  0
    8.6255  -15.0543   25.1537 C   0  0  2  0  0  0  0  0  0  0  0  0
    8.5573  -15.7330   23.8451 N   0  0  0  0  0  0  0  0  0  0  0  0
    8.9373  -16.0590   26.1975 C   0  0  0  0  0  0  0  0  0  0  0  0
    9.3284  -15.7034   27.4554 O   0  0  0  0  0  0  0  0  0  0  0  0
    8.8353  -17.2724   25.9098 O   0  0  0  0  0  0  0  0  0  0  0  0
  2  1  1  0
  3  2  1  0
  4  3  2  0
  5  3  1  0
  6 10  1  0
  6  5  1  0
  7  8  1  0
  6  7  1  6
  8 12  1  0
  9  8  2  0
 10 11  2  0
 13 14  1  0
 14 15  1  0
 16 15  1  0
 17 16  1  1
 18 17  1  0
 18 10  1  0
 19 20  1  0
 19 17  1  0
 21 19  2  0
M  END
$$$$
