GDM.pdb
     RDKit          3D

 21 20  0  0  1  0  0  0  0  0999 V2000
    6.4962  -17.9509   18.9135 N   0  0  0  0  0  0  0  0  0  0  0  0
    6.4685  -16.9025   19.9149 C   0  0  0  0  0  0  0  0  0  0  0  0
    7.4329  -17.2105   21.0004 C   0  0  0  0  0  0  0  0  0  0  0  0
    7.0973  -17.8410   22.0156 O   0  0  0  0  0  0  0  0  0  0  0  0
    8.7865  -16.7726   20.8807 N   0  0  0  0  0  0  0  0  0  0  0  0
    9.7529  -16.8473   21.9395 C   0  0  1  0  0  0  0  0  0  0  0  0
   11.1749  -16.7836   21.4563 C   0  0  0  0  0  0  0  0  0  0  0  0
   11.5192  -17.8568   20.5191 C   0  0  0  0  0  0  0  0  0  0  0  0
   11.4703  -19.0586   20.9255 O   0  0  0  0  0  0  0  0  0  0  0  0
    9.5030  -15.7883   22.9684 C   0  0  0  0  0  0  0  0  0  0  0  0
    9.2593  -14.6210   22.5725 O   0  0  0  0  0  0  0  0  0  0  0  0
   11.9032  -17.6817   19.1972 O   0  0  0  0  0  0  0  0  0  0  0  0
    6.4451  -11.1044   26.8725 C   0  0  0  0  0  0  0  0  0  0  0  0
    7.5618  -12.4251   26.4446 S   0  0  0  0  0  0  0  0  0  0  0  0
    6.8378  -13.9844   25.9909 C   0  0  0  0  0  0  0  0  0  0  0  0
    7.5925  -14.7960   24.9968 C   0  0  0  0  0  0  0  0  0  0  0  0
    9.0218  -15.0882   25.3598 C   0  0  2  0  0  0  0  0  0  0  0  0
    9.5273  -16.0313   24.3436 N   0  0  0  0  0  0  0  0  0  0  0  0
    9.0781  -15.7419   26.6885 C   0  0  0  0  0  0  0  0  0  0  0  0
    9.4742  -15.0748   27.8110 O   0  0  0  0  0  0  0  0  0  0  0  0
    8.7489  -16.9458   26.7777 O   0  0  0  0  0  0  0  0  0  0  0  0
  2  1  1  0
  3  2  1  0
  4  3  2  0
  5  3  1  0
  6 10  1  0
  6  5  1  0
  7  8  1  0
  6  7  1  6
  8 12  1  0
  9  8  2  0
 10 11  2  0
 13 14  1  0
 14 15  1  0
 16 15  1  0
 17 16  1  6
 18 17  1  0
 18 10  1  0
 19 20  1  0
 19 17  1  0
 21 19  2  0
M  END
$$$$
