GDM.pdb
     RDKit          3D

 21 20  0  0  1  0  0  0  0  0999 V2000
    6.9338  -12.7348   18.6734 N   0  0  0  0  0  0  0  0  0  0  0  0
    8.2497  -13.3003   18.9002 C   0  0  0  0  0  0  0  0  0  0  0  0
    8.2054  -14.2499   20.0403 C   0  0  0  0  0  0  0  0  0  0  0  0
    7.2836  -14.2334   20.8714 O   0  0  0  0  0  0  0  0  0  0  0  0
    9.2489  -15.2126   20.1917 N   0  0  0  0  0  0  0  0  0  0  0  0
    9.2689  -16.2239   21.2103 C   0  0  1  0  0  0  0  0  0  0  0  0
   10.2569  -17.3242   20.9406 C   0  0  0  0  0  0  0  0  0  0  0  0
   10.2753  -18.3571   21.9804 C   0  0  0  0  0  0  0  0  0  0  0  0
    9.1793  -18.9045   22.3137 O   0  0  0  0  0  0  0  0  0  0  0  0
    9.5138  -15.6209   22.5590 C   0  0  0  0  0  0  0  0  0  0  0  0
   10.5670  -14.9578   22.7309 O   0  0  0  0  0  0  0  0  0  0  0  0
   11.4032  -18.8056   22.6529 O   0  0  0  0  0  0  0  0  0  0  0  0
    6.4450  -10.6568   26.7993 C   0  0  0  0  0  0  0  0  0  0  0  0
    6.1348  -12.4049   26.6490 S   0  0  0  0  0  0  0  0  0  0  0  0
    7.5450  -13.4611   26.4097 C   0  0  0  0  0  0  0  0  0  0  0  0
    7.5666  -14.2547   25.1503 C   0  0  0  0  0  0  0  0  0  0  0  0
    8.8030  -15.0826   24.9349 C   0  0  2  0  0  0  0  0  0  0  0  0
    8.6329  -15.7582   23.6340 N   0  0  0  0  0  0  0  0  0  0  0  0
    8.9094  -16.1105   25.9970 C   0  0  0  0  0  0  0  0  0  0  0  0
    8.7553  -17.4415   25.7389 O   0  0  0  0  0  0  0  0  0  0  0  0
    9.1501  -15.7393   27.1674 O   0  0  0  0  0  0  0  0  0  0  0  0
  2  1  1  0
  3  2  1  0
  4  3  2  0
  5  3  1  0
  6 10  1  0
  6  5  1  0
  7  8  1  0
  6  7  1  6
  8 12  1  0
  9  8  2  0
 10 11  2  0
 13 14  1  0
 14 15  1  0
 16 15  1  0
 17 16  1  1
 18 17  1  0
 18 10  1  0
 19 20  1  0
 19 17  1  0
 21 19  2  0
M  END
$$$$
