GDM.pdb
     RDKit          3D

 21 20  0  0  1  0  0  0  0  0999 V2000
    4.9003  -20.5638   21.6840 N   0  0  0  0  0  0  0  0  0  0  0  0
    5.0314  -19.7746   22.8934 C   0  0  0  0  0  0  0  0  0  0  0  0
    6.2113  -18.8798   22.7913 C   0  0  0  0  0  0  0  0  0  0  0  0
    7.2993  -19.1676   23.3149 O   0  0  0  0  0  0  0  0  0  0  0  0
    6.0994  -17.6515   22.0720 N   0  0  0  0  0  0  0  0  0  0  0  0
    7.1791  -16.7224   21.8935 C   0  0  1  0  0  0  0  0  0  0  0  0
    6.9924  -15.8087   20.7146 C   0  0  0  0  0  0  0  0  0  0  0  0
    7.5509  -16.3443   19.4697 C   0  0  0  0  0  0  0  0  0  0  0  0
    8.6582  -15.8846   19.0522 O   0  0  0  0  0  0  0  0  0  0  0  0
    7.4117  -15.9259   23.1401 C   0  0  0  0  0  0  0  0  0  0  0  0
    6.4587  -15.7956   23.9484 O   0  0  0  0  0  0  0  0  0  0  0  0
    6.9713  -17.3298   18.6833 O   0  0  0  0  0  0  0  0  0  0  0  0
    6.1605  -10.9141   27.9162 C   0  0  0  0  0  0  0  0  0  0  0  0
    6.1276  -12.0359   26.5324 S   0  0  0  0  0  0  0  0  0  0  0  0
    7.6362  -12.8954   26.1492 C   0  0  0  0  0  0  0  0  0  0  0  0
    7.6181  -13.7429   24.9252 C   0  0  0  0  0  0  0  0  0  0  0  0
    8.8759  -14.5252   24.6681 C   0  0  2  0  0  0  0  0  0  0  0  0
    8.6320  -15.3210   23.4495 N   0  0  0  0  0  0  0  0  0  0  0  0
    9.1320  -15.4486   25.7985 C   0  0  0  0  0  0  0  0  0  0  0  0
    9.6618  -15.0210   26.9810 O   0  0  0  0  0  0  0  0  0  0  0  0
    8.8495  -16.6594   25.6582 O   0  0  0  0  0  0  0  0  0  0  0  0
  2  1  1  0
  3  2  1  0
  4  3  2  0
  5  3  1  0
  6 10  1  0
  6  5  1  0
  7  8  1  0
  6  7  1  6
  8 12  1  0
  9  8  2  0
 10 11  2  0
 13 14  1  0
 14 15  1  0
 16 15  1  0
 17 16  1  1
 18 17  1  0
 18 10  1  0
 19 20  1  0
 19 17  1  0
 21 19  2  0
M  END
$$$$
