GDM.pdb
     RDKit          3D

 21 20  0  0  1  0  0  0  0  0999 V2000
    4.4970  -19.6523   21.2241 N   0  0  0  0  0  0  0  0  0  0  0  0
    4.6907  -18.5598   22.1577 C   0  0  0  0  0  0  0  0  0  0  0  0
    6.1395  -18.3559   22.4082 C   0  0  0  0  0  0  0  0  0  0  0  0
    6.7253  -18.9084   23.3528 O   0  0  0  0  0  0  0  0  0  0  0  0
    6.8872  -17.5016   21.5423 N   0  0  0  0  0  0  0  0  0  0  0  0
    8.2879  -17.2274   21.6958 C   0  0  1  0  0  0  0  0  0  0  0  0
    8.9411  -16.7310   20.4362 C   0  0  0  0  0  0  0  0  0  0  0  0
    8.7535  -17.6273   19.2917 C   0  0  0  0  0  0  0  0  0  0  0  0
    8.9621  -18.8695   19.4509 O   0  0  0  0  0  0  0  0  0  0  0  0
    8.5257  -16.2678   22.8206 C   0  0  0  0  0  0  0  0  0  0  0  0
    9.0837  -15.1728   22.5595 O   0  0  0  0  0  0  0  0  0  0  0  0
    8.3600  -17.2395   18.0187 O   0  0  0  0  0  0  0  0  0  0  0  0
    7.2721  -11.1215   27.4663 C   0  0  0  0  0  0  0  0  0  0  0  0
    7.3558  -12.3125   26.1437 S   0  0  0  0  0  0  0  0  0  0  0  0
    6.7379  -13.9450   26.4821 C   0  0  0  0  0  0  0  0  0  0  0  0
    6.8796  -14.9426   25.3861 C   0  0  0  0  0  0  0  0  0  0  0  0
    8.2509  -15.5406   25.2364 C   0  0  2  0  0  0  0  0  0  0  0  0
    8.1599  -16.5277   24.1433 N   0  0  0  0  0  0  0  0  0  0  0  0
    8.6304  -16.2434   26.4846 C   0  0  0  0  0  0  0  0  0  0  0  0
    9.3137  -15.6229   27.4896 O   0  0  0  0  0  0  0  0  0  0  0  0
    8.3093  -17.4456   26.6160 O   0  0  0  0  0  0  0  0  0  0  0  0
  2  1  1  0
  3  2  1  0
  4  3  2  0
  5  3  1  0
  6 10  1  0
  6  5  1  0
  7  8  1  0
  6  7  1  6
  8 12  1  0
  9  8  2  0
 10 11  2  0
 13 14  1  0
 14 15  1  0
 16 15  1  0
 17 16  1  1
 18 17  1  0
 18 10  1  0
 19 20  1  0
 19 17  1  0
 21 19  2  0
M  END
$$$$
