THH.pdb
     RDKit          3D

 28 29  0  0  1  0  0  0  0  0999 V2000
   20.5455  -13.0182  -20.8928 C   0  0  0  0  0  0  0  0  0  0  0  0
   20.4056  -12.2295  -19.5994 C   0  0  1  0  0  0  0  0  0  0  0  0
   19.7881  -12.9667  -18.6092 O   0  0  0  0  0  0  0  0  0  0  0  0
   21.8263  -11.8276  -19.1883 C   0  0  2  0  0  0  0  0  0  0  0  0
   22.5964  -13.0128  -18.8669 N   0  0  0  0  0  0  0  0  0  0  0  0
   21.8115  -10.9546  -17.9912 C   0  0  0  0  0  0  0  0  0  0  0  0
   22.0042  -11.4449  -16.8344 O   0  0  0  0  0  0  0  0  0  0  0  0
   21.5919   -9.5676  -18.0352 N   0  0  0  0  0  0  0  0  0  0  0  0
   21.4940   -8.7497  -16.7830 C   0  0  1  0  0  0  0  0  0  0  0  0
   22.1923   -7.4925  -17.1590 C   0  0  0  0  0  0  0  0  0  0  0  0
   22.2337   -6.4002  -16.1996 C   0  0  0  0  0  0  0  0  0  0  0  0
   21.6276   -6.5322  -14.9296 C   0  0  0  0  0  0  0  0  0  0  0  0
   21.7890   -5.4136  -14.2201 N   0  0  0  0  0  0  0  0  0  0  0  0
   22.4879   -4.5638  -15.0099 C   0  0  0  0  0  0  0  0  0  0  0  0
   22.7391   -5.1739  -16.1790 N   0  0  0  0  0  0  0  0  0  0  0  0
   20.0480   -8.6377  -16.5220 C   0  0  0  0  0  0  0  0  0  0  0  0
   19.2935   -8.5860  -17.5692 O   0  0  0  0  0  0  0  0  0  0  0  0
   19.3962   -8.5850  -15.2873 N   0  0  0  0  0  0  0  0  0  0  0  0
   17.8961   -8.5062  -15.2251 C   0  0  1  0  0  0  0  0  0  0  0  0
   17.4448   -9.6287  -14.3741 C   0  0  0  0  0  0  0  0  0  0  0  0
   17.1918  -10.8872  -15.0527 C   0  0  0  0  0  0  0  0  0  0  0  0
   17.3541  -11.3068  -16.3494 C   0  0  0  0  0  0  0  0  0  0  0  0
   17.0254  -12.6274  -16.4670 N   0  0  0  0  0  0  0  0  0  0  0  0
   16.6613  -13.0322  -15.2531 C   0  0  0  0  0  0  0  0  0  0  0  0
   16.7535  -12.0164  -14.4024 N   0  0  0  0  0  0  0  0  0  0  0  0
   17.5786   -7.1562  -14.6776 C   0  0  0  0  0  0  0  0  0  0  0  0
   16.5352   -6.3533  -15.0358 O   0  0  0  0  0  0  0  0  0  0  0  0
   18.3420   -6.6602  -13.7701 O   0  0  0  0  0  0  0  0  0  0  0  0
  2  4  1  0
  2  1  1  6
  3  2  1  0
  4  6  1  0
  4  5  1  1
  6  7  2  0
  8  6  1  0
  8  9  1  0
  9 16  1  0
  9 10  1  6
 10 11  1  0
 11 12  2  0
 12 13  1  0
 14 13  1  0
 15 11  1  0
 15 14  2  0
 16 17  2  0
 18 19  1  0
 18 16  1  0
 19 26  1  0
 19 20  1  1
 21 20  1  0
 22 21  2  0
 23 22  1  0
 24 23  1  0
 24 25  2  0
 25 21  1  0
 26 28  2  0
 26 27  1  0
M  END
$$$$
