THH.pdb
     RDKit          3D

 28 29  0  0  1  0  0  0  0  0999 V2000
   38.5526  -26.8841    5.1152 C   0  0  0  0  0  0  0  0  0  0  0  0
   39.6804  -26.0501    5.7040 C   0  0  1  0  0  0  0  0  0  0  0  0
   40.9218  -26.5148    5.3190 O   0  0  0  0  0  0  0  0  0  0  0  0
   39.4494  -24.6151    5.2178 C   0  0  2  0  0  0  0  0  0  0  0  0
   40.5626  -23.7776    5.6184 N   0  0  0  0  0  0  0  0  0  0  0  0
   38.2142  -24.0428    5.8029 C   0  0  0  0  0  0  0  0  0  0  0  0
   38.2157  -23.5849    6.9887 O   0  0  0  0  0  0  0  0  0  0  0  0
   36.9882  -23.9628    5.1214 N   0  0  0  0  0  0  0  0  0  0  0  0
   35.7745  -23.3587    5.7605 C   0  0  1  0  0  0  0  0  0  0  0  0
   34.9282  -23.0101    4.5893 C   0  0  0  0  0  0  0  0  0  0  0  0
   33.6208  -22.4168    4.8214 C   0  0  0  0  0  0  0  0  0  0  0  0
   33.1311  -22.2417    6.1357 C   0  0  0  0  0  0  0  0  0  0  0  0
   31.9199  -21.6823    6.1087 N   0  0  0  0  0  0  0  0  0  0  0  0
   31.6207  -21.4940    4.8013 C   0  0  0  0  0  0  0  0  0  0  0  0
   32.6468  -21.9384    4.0584 N   0  0  0  0  0  0  0  0  0  0  0  0
   35.2547  -24.4145    6.6475 C   0  0  0  0  0  0  0  0  0  0  0  0
   35.6097  -25.6201    6.3489 O   0  0  0  0  0  0  0  0  0  0  0  0
   34.4328  -24.2718    7.7683 N   0  0  0  0  0  0  0  0  0  0  0  0
   34.1798  -25.4430    8.6765 C   0  0  1  0  0  0  0  0  0  0  0  0
   35.5012  -25.9067    9.1529 C   0  0  0  0  0  0  0  0  0  0  0  0
   35.9817  -27.1582    8.5950 C   0  0  0  0  0  0  0  0  0  0  0  0
   35.5059  -27.9981    7.6192 C   0  0  0  0  0  0  0  0  0  0  0  0
   36.3757  -29.0315    7.4153 N   0  0  0  0  0  0  0  0  0  0  0  0
   37.3890  -28.8396    8.2557 C   0  0  0  0  0  0  0  0  0  0  0  0
   37.1740  -27.7357    8.9622 N   0  0  0  0  0  0  0  0  0  0  0  0
   33.2819  -24.9394    9.7549 C   0  0  0  0  0  0  0  0  0  0  0  0
   32.9339  -23.6410    9.9892 O   0  0  0  0  0  0  0  0  0  0  0  0
   32.7584  -25.7840   10.5705 O   0  0  0  0  0  0  0  0  0  0  0  0
  2  4  1  0
  2  1  1  6
  3  2  1  0
  4  6  1  0
  4  5  1  1
  6  7  2  0
  8  6  1  0
  8  9  1  0
  9 16  1  0
  9 10  1  6
 10 11  1  0
 11 12  2  0
 12 13  1  0
 14 13  1  0
 15 11  1  0
 15 14  2  0
 16 17  2  0
 18 19  1  0
 18 16  1  0
 19 26  1  0
 19 20  1  1
 21 20  1  0
 22 21  2  0
 23 22  1  0
 24 23  1  0
 24 25  2  0
 25 21  1  0
 26 28  2  0
 26 27  1  0
M  END
$$$$
