THH.pdb
     RDKit          3D

 28 29  0  0  1  0  0  0  0  0999 V2000
   21.2112   -9.8721  -20.4074 C   0  0  0  0  0  0  0  0  0  0  0  0
   20.2051  -11.0106  -20.3311 C   0  0  1  0  0  0  0  0  0  0  0  0
   19.7214  -11.3567  -21.5766 O   0  0  0  0  0  0  0  0  0  0  0  0
   20.9380  -12.1852  -19.6739 C   0  0  2  0  0  0  0  0  0  0  0  0
   20.0828  -13.3555  -19.6707 N   0  0  0  0  0  0  0  0  0  0  0  0
   21.2943  -11.8767  -18.2691 C   0  0  0  0  0  0  0  0  0  0  0  0
   20.4621  -12.0898  -17.3322 O   0  0  0  0  0  0  0  0  0  0  0  0
   22.5328  -11.3442  -17.8734 N   0  0  0  0  0  0  0  0  0  0  0  0
   22.8222  -11.0152  -16.4400 C   0  0  1  0  0  0  0  0  0  0  0  0
   24.2577  -11.3769  -16.3055 C   0  0  0  0  0  0  0  0  0  0  0  0
   24.6129  -12.7739  -16.1119 C   0  0  0  0  0  0  0  0  0  0  0  0
   23.6111  -13.7656  -16.0101 C   0  0  0  0  0  0  0  0  0  0  0  0
   24.1642  -14.9676  -15.8369 N   0  0  0  0  0  0  0  0  0  0  0  0
   25.5037  -14.7680  -15.8254 C   0  0  0  0  0  0  0  0  0  0  0  0
   25.7433  -13.4575  -15.9905 N   0  0  0  0  0  0  0  0  0  0  0  0
   22.4973   -9.5835  -16.3124 C   0  0  0  0  0  0  0  0  0  0  0  0
   22.7000   -8.8681  -17.3687 O   0  0  0  0  0  0  0  0  0  0  0  0
   21.9957   -8.9092  -15.1961 N   0  0  0  0  0  0  0  0  0  0  0  0
   21.5335   -7.4836  -15.3165 C   0  0  1  0  0  0  0  0  0  0  0  0
   20.4287   -7.4749  -16.3000 C   0  0  0  0  0  0  0  0  0  0  0  0
   20.7112   -6.8443  -17.5771 C   0  0  0  0  0  0  0  0  0  0  0  0
   21.8164   -6.2136  -18.0915 C   0  0  0  0  0  0  0  0  0  0  0  0
   21.5938   -5.8454  -19.3880 N   0  0  0  0  0  0  0  0  0  0  0  0
   20.3593   -6.2436  -19.6837 C   0  0  0  0  0  0  0  0  0  0  0  0
   19.8209   -6.8372  -18.6247 N   0  0  0  0  0  0  0  0  0  0  0  0
   21.1339   -7.0646  -13.9425 C   0  0  0  0  0  0  0  0  0  0  0  0
   21.1570   -7.8320  -12.8145 O   0  0  0  0  0  0  0  0  0  0  0  0
   20.7196   -5.8619  -13.7572 O   0  0  0  0  0  0  0  0  0  0  0  0
  2  4  1  0
  2  1  1  6
  3  2  1  0
  4  6  1  0
  4  5  1  1
  6  7  2  0
  8  6  1  0
  8  9  1  0
  9 16  1  0
  9 10  1  6
 10 11  1  0
 11 12  2  0
 12 13  1  0
 14 13  1  0
 15 11  1  0
 15 14  2  0
 16 17  2  0
 18 19  1  0
 18 16  1  0
 19 26  1  0
 19 20  1  6
 21 20  1  0
 22 21  2  0
 23 22  1  0
 24 23  1  0
 24 25  2  0
 25 21  1  0
 26 28  2  0
 26 27  1  0
M  END
$$$$
