THH.pdb
     RDKit          3D

 28 29  0  0  1  0  0  0  0  0999 V2000
   30.8410   -8.1325  -18.1875 C   0  0  0  0  0  0  0  0  0  0  0  0
   29.3582   -8.4658  -18.1204 C   0  0  1  0  0  0  0  0  0  0  0  0
   28.7085   -8.1707  -19.3019 O   0  0  0  0  0  0  0  0  0  0  0  0
   29.2706   -9.9613  -17.7970 C   0  0  2  0  0  0  0  0  0  0  0  0
   29.8482  -10.7309  -18.8811 N   0  0  0  0  0  0  0  0  0  0  0  0
   27.8628  -10.3927  -17.6310 C   0  0  0  0  0  0  0  0  0  0  0  0
   27.2287  -10.9096  -18.6038 O   0  0  0  0  0  0  0  0  0  0  0  0
   27.1419  -10.2702  -16.4312 N   0  0  0  0  0  0  0  0  0  0  0  0
   25.7495  -10.8081  -16.2954 C   0  0  1  0  0  0  0  0  0  0  0  0
   25.8565  -11.6948  -15.1072 C   0  0  0  0  0  0  0  0  0  0  0  0
   26.3193  -13.0611  -15.2921 C   0  0  0  0  0  0  0  0  0  0  0  0
   26.7498  -13.5115  -16.5607 C   0  0  0  0  0  0  0  0  0  0  0  0
   27.1282  -14.7895  -16.4953 N   0  0  0  0  0  0  0  0  0  0  0  0
   26.9493  -15.1702  -15.2079 C   0  0  0  0  0  0  0  0  0  0  0  0
   26.4684  -14.1258  -14.5149 N   0  0  0  0  0  0  0  0  0  0  0  0
   24.9008   -9.6133  -16.1413 C   0  0  0  0  0  0  0  0  0  0  0  0
   25.3895   -8.6720  -15.4039 O   0  0  0  0  0  0  0  0  0  0  0  0
   23.6408   -9.3732  -16.6954 N   0  0  0  0  0  0  0  0  0  0  0  0
   22.9534   -8.0549  -16.4718 C   0  0  1  0  0  0  0  0  0  0  0  0
   22.3530   -7.6620  -17.7653 C   0  0  0  0  0  0  0  0  0  0  0  0
   21.5258   -6.4688  -17.7528 C   0  0  0  0  0  0  0  0  0  0  0  0
   21.2843   -5.5005  -16.8105 C   0  0  0  0  0  0  0  0  0  0  0  0
   20.4642   -4.5343  -17.3203 N   0  0  0  0  0  0  0  0  0  0  0  0
   20.1953   -4.8939  -18.5726 C   0  0  0  0  0  0  0  0  0  0  0  0
   20.8149   -6.0361  -18.8471 N   0  0  0  0  0  0  0  0  0  0  0  0
   21.9627   -8.2886  -15.3823 C   0  0  0  0  0  0  0  0  0  0  0  0
   21.5455   -7.3850  -14.4489 O   0  0  0  0  0  0  0  0  0  0  0  0
   21.4197   -9.4490  -15.2766 O   0  0  0  0  0  0  0  0  0  0  0  0
  2  4  1  0
  2  1  1  6
  3  2  1  0
  4  6  1  0
  4  5  1  6
  6  7  2  0
  8  6  1  0
  8  9  1  0
  9 16  1  0
  9 10  1  1
 10 11  1  0
 11 12  2  0
 12 13  1  0
 14 13  1  0
 15 11  1  0
 15 14  2  0
 16 17  2  0
 18 19  1  0
 18 16  1  0
 19 26  1  0
 19 20  1  6
 21 20  1  0
 22 21  2  0
 23 22  1  0
 24 23  1  0
 24 25  2  0
 25 21  1  0
 26 28  2  0
 26 27  1  0
M  END
$$$$
