THH.pdb
     RDKit          3D

 28 29  0  0  1  0  0  0  0  0999 V2000
   27.7105  -14.1842  -15.2837 C   0  0  0  0  0  0  0  0  0  0  0  0
   26.5092  -15.0901  -15.5083 C   0  0  1  0  0  0  0  0  0  0  0  0
   25.5308  -14.4732  -16.2615 O   0  0  0  0  0  0  0  0  0  0  0  0
   27.0441  -16.3425  -16.2112 C   0  0  2  0  0  0  0  0  0  0  0  0
   27.4715  -16.0048  -17.5545 N   0  0  0  0  0  0  0  0  0  0  0  0
   25.9986  -17.3875  -16.3143 C   0  0  0  0  0  0  0  0  0  0  0  0
   25.3249  -17.5209  -17.3839 O   0  0  0  0  0  0  0  0  0  0  0  0
   25.6791  -18.2814  -15.2784 N   0  0  0  0  0  0  0  0  0  0  0  0
   24.7058  -19.4026  -15.4835 C   0  0  1  0  0  0  0  0  0  0  0  0
   25.4096  -20.5614  -14.8741 C   0  0  0  0  0  0  0  0  0  0  0  0
   26.4674  -21.2145  -15.6289 C   0  0  0  0  0  0  0  0  0  0  0  0
   26.2520  -21.6276  -16.9633 C   0  0  0  0  0  0  0  0  0  0  0  0
   27.3528  -22.1991  -17.4554 N   0  0  0  0  0  0  0  0  0  0  0  0
   28.2731  -22.1617  -16.4623 C   0  0  0  0  0  0  0  0  0  0  0  0
   27.7221  -21.5723  -15.3893 N   0  0  0  0  0  0  0  0  0  0  0  0
   23.4757  -18.9582  -14.8046 C   0  0  0  0  0  0  0  0  0  0  0  0
   23.5940  -18.7031  -13.5439 O   0  0  0  0  0  0  0  0  0  0  0  0
   22.2046  -18.7758  -15.3555 N   0  0  0  0  0  0  0  0  0  0  0  0
   21.0579  -18.3388  -14.4868 C   0  0  1  0  0  0  0  0  0  0  0  0
   20.4537  -17.1574  -15.1404 C   0  0  0  0  0  0  0  0  0  0  0  0
   19.2367  -16.6430  -14.5381 C   0  0  0  0  0  0  0  0  0  0  0  0
   18.5773  -16.9178  -13.3661 C   0  0  0  0  0  0  0  0  0  0  0  0
   17.4914  -16.1008  -13.2282 N   0  0  0  0  0  0  0  0  0  0  0  0
   17.4715  -15.3193  -14.3047 C   0  0  0  0  0  0  0  0  0  0  0  0
   18.4968  -15.6250  -15.0916 N   0  0  0  0  0  0  0  0  0  0  0  0
   20.1479  -19.5156  -14.3861 C   0  0  0  0  0  0  0  0  0  0  0  0
   19.2547  -19.7754  -13.3879 O   0  0  0  0  0  0  0  0  0  0  0  0
   20.1750  -20.4015  -15.3172 O   0  0  0  0  0  0  0  0  0  0  0  0
  2  4  1  0
  2  1  1  6
  3  2  1  0
  4  6  1  0
  4  5  1  6
  6  7  2  0
  8  6  1  0
  8  9  1  0
  9 16  1  0
  9 10  1  1
 10 11  1  0
 11 12  2  0
 12 13  1  0
 14 13  1  0
 15 11  1  0
 15 14  2  0
 16 17  2  0
 18 19  1  0
 18 16  1  0
 19 26  1  0
 19 20  1  6
 21 20  1  0
 22 21  2  0
 23 22  1  0
 24 23  1  0
 24 25  2  0
 25 21  1  0
 26 28  2  0
 26 27  1  0
M  END
$$$$
