THH.pdb
     RDKit          3D

 28 29  0  0  1  0  0  0  0  0999 V2000
   33.4019  -36.2460   -4.4949 C   0  0  0  0  0  0  0  0  0  0  0  0
   33.8465  -35.4403   -5.7062 C   0  0  1  0  0  0  0  0  0  0  0  0
   35.1301  -35.7628   -6.0982 O   0  0  0  0  0  0  0  0  0  0  0  0
   32.8342  -35.7436   -6.8161 C   0  0  2  0  0  0  0  0  0  0  0  0
   33.1843  -35.0047   -8.0130 N   0  0  0  0  0  0  0  0  0  0  0  0
   31.4646  -35.3432   -6.4170 C   0  0  0  0  0  0  0  0  0  0  0  0
   30.7856  -34.5550   -7.1475 O   0  0  0  0  0  0  0  0  0  0  0  0
   30.8293  -35.7847   -5.2442 N   0  0  0  0  0  0  0  0  0  0  0  0
   29.4189  -35.3929   -4.9220 C   0  0  1  0  0  0  0  0  0  0  0  0
   28.6428  -36.0431   -6.0103 C   0  0  0  0  0  0  0  0  0  0  0  0
   28.0738  -35.2110   -7.0586 C   0  0  0  0  0  0  0  0  0  0  0  0
   28.2541  -33.8092   -7.0446 C   0  0  0  0  0  0  0  0  0  0  0  0
   27.6496  -33.2532   -8.0964 N   0  0  0  0  0  0  0  0  0  0  0  0
   27.0834  -34.2713   -8.7873 C   0  0  0  0  0  0  0  0  0  0  0  0
   27.3500  -35.4224   -8.1501 N   0  0  0  0  0  0  0  0  0  0  0  0
   29.1893  -35.9093   -3.5611 C   0  0  0  0  0  0  0  0  0  0  0  0
   29.7962  -37.0123   -3.2721 O   0  0  0  0  0  0  0  0  0  0  0  0
   28.4030  -35.3529   -2.5489 N   0  0  0  0  0  0  0  0  0  0  0  0
   28.3641  -35.9854   -1.1855 C   0  0  1  0  0  0  0  0  0  0  0  0
   29.7364  -35.9063   -0.6392 C   0  0  0  0  0  0  0  0  0  0  0  0
   29.9108  -36.3655    0.7272 C   0  0  0  0  0  0  0  0  0  0  0  0
   29.0953  -37.0312    1.6079 C   0  0  0  0  0  0  0  0  0  0  0  0
   29.7634  -37.2931    2.7702 N   0  0  0  0  0  0  0  0  0  0  0  0
   30.9883  -36.7967    2.6182 C   0  0  0  0  0  0  0  0  0  0  0  0
   31.0948  -36.2439    1.4152 N   0  0  0  0  0  0  0  0  0  0  0  0
   27.3495  -35.2191   -0.4067 C   0  0  0  0  0  0  0  0  0  0  0  0
   27.0515  -35.3677    0.9165 O   0  0  0  0  0  0  0  0  0  0  0  0
   26.6625  -34.3132   -1.0064 O   0  0  0  0  0  0  0  0  0  0  0  0
  2  4  1  0
  2  1  1  1
  3  2  1  0
  4  6  1  0
  4  5  1  6
  6  7  2  0
  8  6  1  0
  8  9  1  0
  9 16  1  0
  9 10  1  6
 10 11  1  0
 11 12  2  0
 12 13  1  0
 14 13  1  0
 15 11  1  0
 15 14  2  0
 16 17  2  0
 18 19  1  0
 18 16  1  0
 19 26  1  0
 19 20  1  1
 21 20  1  0
 22 21  2  0
 23 22  1  0
 24 23  1  0
 24 25  2  0
 25 21  1  0
 26 28  2  0
 26 27  1  0
M  END
$$$$
