THH.pdb
     RDKit          3D

 28 29  0  0  1  0  0  0  0  0999 V2000
   17.1387   -9.8559  -16.0218 C   0  0  0  0  0  0  0  0  0  0  0  0
   17.5500  -11.2674  -15.6311 C   0  0  1  0  0  0  0  0  0  0  0  0
   16.5059  -12.1619  -15.7530 O   0  0  0  0  0  0  0  0  0  0  0  0
   18.7145  -11.6440  -16.5535 C   0  0  2  0  0  0  0  0  0  0  0  0
   19.1732  -12.9829  -16.2406 N   0  0  0  0  0  0  0  0  0  0  0  0
   19.8578  -10.7177  -16.3794 C   0  0  0  0  0  0  0  0  0  0  0  0
   20.6913  -10.8938  -15.4360 O   0  0  0  0  0  0  0  0  0  0  0  0
   20.1044   -9.6122  -17.2107 N   0  0  0  0  0  0  0  0  0  0  0  0
   21.3218   -8.7557  -17.0348 C   0  0  1  0  0  0  0  0  0  0  0  0
   21.7177   -8.4592  -18.4365 C   0  0  0  0  0  0  0  0  0  0  0  0
   22.5511   -9.4166  -19.1466 C   0  0  0  0  0  0  0  0  0  0  0  0
   23.0072  -10.5908  -18.5056 C   0  0  0  0  0  0  0  0  0  0  0  0
   23.7506  -11.3172  -19.3426 N   0  0  0  0  0  0  0  0  0  0  0  0
   23.7815  -10.6322  -20.5106 C   0  0  0  0  0  0  0  0  0  0  0  0
   23.0618   -9.5080  -20.3675 N   0  0  0  0  0  0  0  0  0  0  0  0
   20.8592   -7.6091  -16.2330 C   0  0  0  0  0  0  0  0  0  0  0  0
   19.6399   -7.2371  -16.4413 O   0  0  0  0  0  0  0  0  0  0  0  0
   21.5727   -6.8815  -15.2770 N   0  0  0  0  0  0  0  0  0  0  0  0
   20.8444   -6.1355  -14.1938 C   0  0  1  0  0  0  0  0  0  0  0  0
   19.9030   -7.0939  -13.5746 C   0  0  0  0  0  0  0  0  0  0  0  0
   19.1680   -6.6150  -12.4176 C   0  0  0  0  0  0  0  0  0  0  0  0
   18.5872   -5.4118  -12.1031 C   0  0  0  0  0  0  0  0  0  0  0  0
   17.9478   -5.4925  -10.8987 N   0  0  0  0  0  0  0  0  0  0  0  0
   18.1255   -6.7368  -10.4629 C   0  0  0  0  0  0  0  0  0  0  0  0
   18.8450   -7.4166  -11.3483 N   0  0  0  0  0  0  0  0  0  0  0  0
   21.8964   -5.6255  -13.2684 C   0  0  0  0  0  0  0  0  0  0  0  0
   23.2380   -5.8622  -13.3457 O   0  0  0  0  0  0  0  0  0  0  0  0
   21.5456   -4.8798  -12.2819 O   0  0  0  0  0  0  0  0  0  0  0  0
  2  4  1  0
  2  1  1  6
  3  2  1  0
  4  6  1  0
  4  5  1  1
  6  7  2  0
  8  6  1  0
  8  9  1  0
  9 16  1  0
  9 10  1  6
 10 11  1  0
 11 12  2  0
 12 13  1  0
 14 13  1  0
 15 11  1  0
 15 14  2  0
 16 17  2  0
 18 19  1  0
 18 16  1  0
 19 26  1  0
 19 20  1  1
 21 20  1  0
 22 21  2  0
 23 22  1  0
 24 23  1  0
 24 25  2  0
 25 21  1  0
 26 28  2  0
 26 27  1  0
M  END
$$$$
