THH.pdb
     RDKit          3D

 28 29  0  0  1  0  0  0  0  0999 V2000
   26.3281  -18.8704  -18.0574 C   0  0  0  0  0  0  0  0  0  0  0  0
   26.7645  -20.1821  -18.6924 C   0  0  1  0  0  0  0  0  0  0  0  0
   27.5059  -19.9793  -19.8389 O   0  0  0  0  0  0  0  0  0  0  0  0
   27.5807  -20.9219  -17.6269 C   0  0  2  0  0  0  0  0  0  0  0  0
   28.1250  -22.1427  -18.1878 N   0  0  0  0  0  0  0  0  0  0  0  0
   26.7377  -21.2899  -16.4652 C   0  0  0  0  0  0  0  0  0  0  0  0
   25.8797  -22.2227  -16.5620 O   0  0  0  0  0  0  0  0  0  0  0  0
   26.8150  -20.6621  -15.2106 N   0  0  0  0  0  0  0  0  0  0  0  0
   25.9243  -21.0676  -14.0754 C   0  0  1  0  0  0  0  0  0  0  0  0
   26.6587  -20.5600  -12.8869 C   0  0  0  0  0  0  0  0  0  0  0  0
   26.0059  -20.6050  -11.5881 C   0  0  0  0  0  0  0  0  0  0  0  0
   24.6890  -21.1018  -11.4594 C   0  0  0  0  0  0  0  0  0  0  0  0
   24.2958  -21.0493  -10.1853 N   0  0  0  0  0  0  0  0  0  0  0  0
   25.3354  -20.5278   -9.4912 C   0  0  0  0  0  0  0  0  0  0  0  0
   26.3376  -20.2730  -10.3473 N   0  0  0  0  0  0  0  0  0  0  0  0
   24.6317  -20.4223  -14.3659 C   0  0  0  0  0  0  0  0  0  0  0  0
   24.6805  -19.4073  -15.1633 O   0  0  0  0  0  0  0  0  0  0  0  0
   23.3659  -20.7746  -13.8904 N   0  0  0  0  0  0  0  0  0  0  0  0
   22.1600  -19.9621  -14.2724 C   0  0  1  0  0  0  0  0  0  0  0  0
   21.7296  -20.4379  -15.6053 C   0  0  0  0  0  0  0  0  0  0  0  0
   22.1234  -19.6183  -16.7373 C   0  0  0  0  0  0  0  0  0  0  0  0
   22.7813  -18.4188  -16.8475 C   0  0  0  0  0  0  0  0  0  0  0  0
   22.9681  -18.0975  -18.1619 N   0  0  0  0  0  0  0  0  0  0  0  0
   22.4327  -19.0887  -18.8695 C   0  0  0  0  0  0  0  0  0  0  0  0
   21.9280  -19.9984  -18.0440 N   0  0  0  0  0  0  0  0  0  0  0  0
   21.1579  -20.1819  -13.1905 C   0  0  0  0  0  0  0  0  0  0  0  0
   21.3031  -20.9761  -12.0906 O   0  0  0  0  0  0  0  0  0  0  0  0
   20.0256  -19.5774  -13.2622 O   0  0  0  0  0  0  0  0  0  0  0  0
  2  4  1  0
  2  1  1  1
  3  2  1  0
  4  6  1  0
  4  5  1  6
  6  7  2  0
  8  6  1  0
  8  9  1  0
  9 16  1  0
  9 10  1  1
 10 11  1  0
 11 12  2  0
 12 13  1  0
 14 13  1  0
 15 11  1  0
 15 14  2  0
 16 17  2  0
 18 19  1  0
 18 16  1  0
 19 26  1  0
 19 20  1  6
 21 20  1  0
 22 21  2  0
 23 22  1  0
 24 23  1  0
 24 25  2  0
 25 21  1  0
 26 28  2  0
 26 27  1  0
M  END
$$$$
