THH.pdb
     RDKit          3D

 28 29  0  0  1  0  0  0  0  0999 V2000
   32.1646  -39.7751   -4.1428 C   0  0  0  0  0  0  0  0  0  0  0  0
   33.0039  -39.6394   -5.4043 C   0  0  1  0  0  0  0  0  0  0  0  0
   32.7006  -40.6139   -6.3336 O   0  0  0  0  0  0  0  0  0  0  0  0
   32.7215  -38.2380   -5.9567 C   0  0  2  0  0  0  0  0  0  0  0  0
   33.5250  -38.0079   -7.1410 N   0  0  0  0  0  0  0  0  0  0  0  0
   33.0615  -37.1917   -4.9643 C   0  0  0  0  0  0  0  0  0  0  0  0
   34.2125  -36.6523   -4.9660 O   0  0  0  0  0  0  0  0  0  0  0  0
   32.1739  -36.7283   -3.9786 N   0  0  0  0  0  0  0  0  0  0  0  0
   32.5239  -35.5736   -3.0894 C   0  0  1  0  0  0  0  0  0  0  0  0
   31.6166  -34.5009   -3.5751 C   0  0  0  0  0  0  0  0  0  0  0  0
   32.0141  -33.7191   -4.7352 C   0  0  0  0  0  0  0  0  0  0  0  0
   33.2347  -33.9811   -5.3979 C   0  0  0  0  0  0  0  0  0  0  0  0
   33.3913  -33.1476   -6.4282 N   0  0  0  0  0  0  0  0  0  0  0  0
   32.2941  -32.3537   -6.4409 C   0  0  0  0  0  0  0  0  0  0  0  0
   31.4926  -32.7137   -5.4259 N   0  0  0  0  0  0  0  0  0  0  0  0
   32.2762  -36.0660   -1.7228 C   0  0  0  0  0  0  0  0  0  0  0  0
   31.2441  -36.8298   -1.5824 O   0  0  0  0  0  0  0  0  0  0  0  0
   33.0194  -35.8126   -0.5670 N   0  0  0  0  0  0  0  0  0  0  0  0
   32.5588  -36.3443    0.7617 C   0  0  1  0  0  0  0  0  0  0  0  0
   31.0833  -36.4275    0.6997 C   0  0  0  0  0  0  0  0  0  0  0  0
   30.3518  -35.4614    1.4996 C   0  0  0  0  0  0  0  0  0  0  0  0
   30.6407  -34.1949    1.9429 C   0  0  0  0  0  0  0  0  0  0  0  0
   29.5744  -33.6724    2.6183 N   0  0  0  0  0  0  0  0  0  0  0  0
   28.6246  -34.6037    2.5968 C   0  0  0  0  0  0  0  0  0  0  0  0
   29.0659  -35.6697    1.9389 N   0  0  0  0  0  0  0  0  0  0  0  0
   33.2398  -37.6593    0.9356 C   0  0  0  0  0  0  0  0  0  0  0  0
   33.4129  -38.6225   -0.0151 O   0  0  0  0  0  0  0  0  0  0  0  0
   33.7309  -37.9556    2.0861 O   0  0  0  0  0  0  0  0  0  0  0  0
  2  4  1  0
  2  1  1  1
  3  2  1  0
  4  6  1  0
  4  5  1  6
  6  7  2  0
  8  6  1  0
  8  9  1  0
  9 16  1  0
  9 10  1  6
 10 11  1  0
 11 12  2  0
 12 13  1  0
 14 13  1  0
 15 11  1  0
 15 14  2  0
 16 17  2  0
 18 19  1  0
 18 16  1  0
 19 26  1  0
 19 20  1  6
 21 20  1  0
 22 21  2  0
 23 22  1  0
 24 23  1  0
 24 25  2  0
 25 21  1  0
 26 28  2  0
 26 27  1  0
M  END
$$$$
