THH.pdb
     RDKit          3D

 28 29  0  0  1  0  0  0  0  0999 V2000
   34.0172  -35.7601    0.2700 C   0  0  0  0  0  0  0  0  0  0  0  0
   34.6946  -35.5404   -1.0743 C   0  0  1  0  0  0  0  0  0  0  0  0
   35.9569  -36.0972   -1.1137 O   0  0  0  0  0  0  0  0  0  0  0  0
   33.7753  -36.1735   -2.1245 C   0  0  2  0  0  0  0  0  0  0  0  0
   34.3134  -35.9403   -3.4501 N   0  0  0  0  0  0  0  0  0  0  0  0
   32.4168  -35.5842   -2.0734 C   0  0  0  0  0  0  0  0  0  0  0  0
   31.9886  -34.8692   -3.0332 O   0  0  0  0  0  0  0  0  0  0  0  0
   31.5257  -35.7608   -1.0016 N   0  0  0  0  0  0  0  0  0  0  0  0
   30.0868  -35.3537   -1.1038 C   0  0  1  0  0  0  0  0  0  0  0  0
   29.5828  -36.2106   -2.2089 C   0  0  0  0  0  0  0  0  0  0  0  0
   29.3835  -35.6162   -3.5212 C   0  0  0  0  0  0  0  0  0  0  0  0
   28.7878  -34.3413   -3.6527 C   0  0  0  0  0  0  0  0  0  0  0  0
   28.7063  -33.9979   -4.9397 N   0  0  0  0  0  0  0  0  0  0  0  0
   29.2386  -35.0283   -5.6391 C   0  0  0  0  0  0  0  0  0  0  0  0
   29.6329  -35.9757   -4.7735 N   0  0  0  0  0  0  0  0  0  0  0  0
   29.5274  -35.6202    0.2332 C   0  0  0  0  0  0  0  0  0  0  0  0
   29.8401  -36.7607    0.7527 O   0  0  0  0  0  0  0  0  0  0  0  0
   28.7077  -34.7931    1.0055 N   0  0  0  0  0  0  0  0  0  0  0  0
   28.1891  -35.2679    2.3344 C   0  0  1  0  0  0  0  0  0  0  0  0
   27.9600  -34.0613    3.1588 C   0  0  0  0  0  0  0  0  0  0  0  0
   29.1280  -33.5005    3.8142 C   0  0  0  0  0  0  0  0  0  0  0  0
   30.4481  -33.8727    3.8656 C   0  0  0  0  0  0  0  0  0  0  0  0
   31.1730  -32.9583    4.5758 N   0  0  0  0  0  0  0  0  0  0  0  0
   30.3139  -32.0200    4.9650 C   0  0  0  0  0  0  0  0  0  0  0  0
   29.0986  -32.3232    4.5236 N   0  0  0  0  0  0  0  0  0  0  0  0
   26.9551  -36.0503    2.0374 C   0  0  0  0  0  0  0  0  0  0  0  0
   26.4185  -36.2950    0.8069 O   0  0  0  0  0  0  0  0  0  0  0  0
   26.2986  -36.5670    3.0144 O   0  0  0  0  0  0  0  0  0  0  0  0
  2  4  1  0
  2  1  1  1
  3  2  1  0
  4  6  1  0
  4  5  1  6
  6  7  2  0
  8  6  1  0
  8  9  1  0
  9 16  1  0
  9 10  1  6
 10 11  1  0
 11 12  2  0
 12 13  1  0
 14 13  1  0
 15 11  1  0
 15 14  2  0
 16 17  2  0
 18 19  1  0
 18 16  1  0
 19 26  1  0
 19 20  1  1
 21 20  1  0
 22 21  2  0
 23 22  1  0
 24 23  1  0
 24 25  2  0
 25 21  1  0
 26 28  2  0
 26 27  1  0
M  END
$$$$
