THH.pdb
     RDKit          3D

 28 29  0  0  1  0  0  0  0  0999 V2000
   28.1827  -32.5861  -13.9763 C   0  0  0  0  0  0  0  0  0  0  0  0
   28.1445  -32.0747  -15.4085 C   0  0  1  0  0  0  0  0  0  0  0  0
   29.3870  -32.1229  -16.0075 O   0  0  0  0  0  0  0  0  0  0  0  0
   27.1355  -32.9577  -16.1507 C   0  0  2  0  0  0  0  0  0  0  0  0
   26.8982  -32.4215  -17.4763 N   0  0  0  0  0  0  0  0  0  0  0  0
   25.8372  -33.0041  -15.4383 C   0  0  0  0  0  0  0  0  0  0  0  0
   24.9680  -32.0954  -15.6240 O   0  0  0  0  0  0  0  0  0  0  0  0
   25.4749  -34.0170  -14.5344 N   0  0  0  0  0  0  0  0  0  0  0  0
   24.1374  -34.0217  -13.8579 C   0  0  1  0  0  0  0  0  0  0  0  0
   23.5553  -35.3178  -14.2947 C   0  0  0  0  0  0  0  0  0  0  0  0
   22.2756  -35.7329  -13.7421 C   0  0  0  0  0  0  0  0  0  0  0  0
   21.5743  -34.8992  -12.8417 C   0  0  0  0  0  0  0  0  0  0  0  0
   20.4322  -35.4787  -12.4667 N   0  0  0  0  0  0  0  0  0  0  0  0
   20.3854  -36.6701  -13.1091 C   0  0  0  0  0  0  0  0  0  0  0  0
   21.4913  -36.7963  -13.8594 N   0  0  0  0  0  0  0  0  0  0  0  0
   24.4446  -33.8975  -12.4220 C   0  0  0  0  0  0  0  0  0  0  0  0
   25.3922  -34.6588  -11.9853 O   0  0  0  0  0  0  0  0  0  0  0  0
   23.8424  -33.0585  -11.4808 N   0  0  0  0  0  0  0  0  0  0  0  0
   24.3222  -33.0506  -10.0560 C   0  0  1  0  0  0  0  0  0  0  0  0
   24.4645  -31.6321   -9.6615 C   0  0  0  0  0  0  0  0  0  0  0  0
   23.2754  -30.8085   -9.7876 C   0  0  0  0  0  0  0  0  0  0  0  0
   21.9960  -31.0615  -10.2154 C   0  0  0  0  0  0  0  0  0  0  0  0
   21.2187  -29.9468  -10.0766 N   0  0  0  0  0  0  0  0  0  0  0  0
   22.0046  -29.0035   -9.5645 C   0  0  0  0  0  0  0  0  0  0  0  0
   23.2256  -29.4946   -9.3861 N   0  0  0  0  0  0  0  0  0  0  0  0
   23.2999  -33.8042   -9.2748 C   0  0  0  0  0  0  0  0  0  0  0  0
   22.0728  -34.2102   -9.7119 O   0  0  0  0  0  0  0  0  0  0  0  0
   23.5628  -34.1263   -8.0584 O   0  0  0  0  0  0  0  0  0  0  0  0
  2  4  1  0
  2  1  1  1
  3  2  1  0
  4  6  1  0
  4  5  1  6
  6  7  2  0
  8  6  1  0
  8  9  1  0
  9 16  1  0
  9 10  1  1
 10 11  1  0
 11 12  2  0
 12 13  1  0
 14 13  1  0
 15 11  1  0
 15 14  2  0
 16 17  2  0
 18 19  1  0
 18 16  1  0
 19 26  1  0
 19 20  1  1
 21 20  1  0
 22 21  2  0
 23 22  1  0
 24 23  1  0
 24 25  2  0
 25 21  1  0
 26 28  2  0
 26 27  1  0
M  END
$$$$
