THH.pdb
     RDKit          3D

 28 29  0  0  1  0  0  0  0  0999 V2000
   21.4229  -14.2498  -20.1844 C   0  0  0  0  0  0  0  0  0  0  0  0
   21.6480  -13.2325  -19.0760 C   0  0  1  0  0  0  0  0  0  0  0  0
   20.9822  -13.5760  -17.9167 O   0  0  0  0  0  0  0  0  0  0  0  0
   23.1628  -13.1748  -18.8501 C   0  0  2  0  0  0  0  0  0  0  0  0
   23.6339  -14.4561  -18.3627 N   0  0  0  0  0  0  0  0  0  0  0  0
   23.5163  -12.1460  -17.8440 C   0  0  0  0  0  0  0  0  0  0  0  0
   23.7966  -12.4821  -16.6507 O   0  0  0  0  0  0  0  0  0  0  0  0
   23.5684  -10.7687  -18.1165 N   0  0  0  0  0  0  0  0  0  0  0  0
   23.9517   -9.7753  -17.0616 C   0  0  1  0  0  0  0  0  0  0  0  0
   25.3575   -9.4482  -17.4167 C   0  0  0  0  0  0  0  0  0  0  0  0
   25.6138   -8.6717  -18.6194 C   0  0  0  0  0  0  0  0  0  0  0  0
   24.5462   -8.2247  -19.4306 C   0  0  0  0  0  0  0  0  0  0  0  0
   25.0132   -7.5356  -20.4737 N   0  0  0  0  0  0  0  0  0  0  0  0
   26.3618   -7.5308  -20.3489 C   0  0  0  0  0  0  0  0  0  0  0  0
   26.6922   -8.2118  -19.2402 N   0  0  0  0  0  0  0  0  0  0  0  0
   22.9734   -8.6825  -17.2045 C   0  0  0  0  0  0  0  0  0  0  0  0
   22.5442   -8.4699  -18.4041 O   0  0  0  0  0  0  0  0  0  0  0  0
   22.4529   -7.8551  -16.2061 N   0  0  0  0  0  0  0  0  0  0  0  0
   20.9729   -7.8242  -15.9430 C   0  0  1  0  0  0  0  0  0  0  0  0
   20.5503   -9.2236  -15.7172 C   0  0  0  0  0  0  0  0  0  0  0  0
   19.1807   -9.4172  -15.2757 C   0  0  0  0  0  0  0  0  0  0  0  0
   18.1266   -8.5615  -15.0745 C   0  0  0  0  0  0  0  0  0  0  0  0
   17.0097   -9.2594  -14.7122 N   0  0  0  0  0  0  0  0  0  0  0  0
   17.3610  -10.5423  -14.6881 C   0  0  0  0  0  0  0  0  0  0  0  0
   18.6422  -10.6559  -15.0191 N   0  0  0  0  0  0  0  0  0  0  0  0
   20.7843   -6.9296  -14.7652 C   0  0  0  0  0  0  0  0  0  0  0  0
   19.6897   -6.1641  -14.4868 O   0  0  0  0  0  0  0  0  0  0  0  0
   21.7273   -6.8425  -13.8958 O   0  0  0  0  0  0  0  0  0  0  0  0
  2  4  1  0
  2  1  1  6
  3  2  1  0
  4  6  1  0
  4  5  1  1
  6  7  2  0
  8  6  1  0
  8  9  1  0
  9 16  1  0
  9 10  1  6
 10 11  1  0
 11 12  2  0
 12 13  1  0
 14 13  1  0
 15 11  1  0
 15 14  2  0
 16 17  2  0
 18 19  1  0
 18 16  1  0
 19 26  1  0
 19 20  1  1
 21 20  1  0
 22 21  2  0
 23 22  1  0
 24 23  1  0
 24 25  2  0
 25 21  1  0
 26 28  2  0
 26 27  1  0
M  END
$$$$
