THH.pdb
     RDKit          3D

 28 29  0  0  1  0  0  0  0  0999 V2000
   46.7588  -10.9934   -5.1482 C   0  0  0  0  0  0  0  0  0  0  0  0
   45.6870  -10.0339   -5.6430 C   0  0  1  0  0  0  0  0  0  0  0  0
   46.1914   -9.1144   -6.5405 O   0  0  0  0  0  0  0  0  0  0  0  0
   44.6013  -10.9019   -6.2884 C   0  0  2  0  0  0  0  0  0  0  0  0
   45.1458  -11.5881   -7.4433 N   0  0  0  0  0  0  0  0  0  0  0  0
   43.4570  -10.0786   -6.7446 C   0  0  0  0  0  0  0  0  0  0  0  0
   43.2933   -9.8322   -7.9808 O   0  0  0  0  0  0  0  0  0  0  0  0
   42.4967   -9.5246   -5.8814 N   0  0  0  0  0  0  0  0  0  0  0  0
   41.4249   -8.6071   -6.3874 C   0  0  1  0  0  0  0  0  0  0  0  0
   40.2101   -9.1109   -5.6945 C   0  0  0  0  0  0  0  0  0  0  0  0
   39.3712  -10.0868   -6.3720 C   0  0  0  0  0  0  0  0  0  0  0  0
   39.6227  -10.4450   -7.7159 C   0  0  0  0  0  0  0  0  0  0  0  0
   38.7340  -11.3511   -8.1285 N   0  0  0  0  0  0  0  0  0  0  0  0
   37.9151  -11.5828   -7.0749 C   0  0  0  0  0  0  0  0  0  0  0  0
   38.3150  -10.8199   -6.0452 N   0  0  0  0  0  0  0  0  0  0  0  0
   41.8783   -7.2575   -6.0070 C   0  0  0  0  0  0  0  0  0  0  0  0
   42.1667   -7.0961   -4.7583 O   0  0  0  0  0  0  0  0  0  0  0  0
   42.0374   -6.1381   -6.8279 N   0  0  0  0  0  0  0  0  0  0  0  0
   42.3947   -4.8053   -6.2308 C   0  0  1  0  0  0  0  0  0  0  0  0
   43.8530   -4.6344   -6.4104 C   0  0  0  0  0  0  0  0  0  0  0  0
   44.3290   -4.5819   -7.7811 C   0  0  0  0  0  0  0  0  0  0  0  0
   43.7191   -4.7637   -8.9972 C   0  0  0  0  0  0  0  0  0  0  0  0
   44.6044   -4.5366  -10.0123 N   0  0  0  0  0  0  0  0  0  0  0  0
   45.7595   -4.2138   -9.4367 C   0  0  0  0  0  0  0  0  0  0  0  0
   45.6163   -4.2348   -8.1165 N   0  0  0  0  0  0  0  0  0  0  0  0
   41.5662   -3.7973   -6.9524 C   0  0  0  0  0  0  0  0  0  0  0  0
   40.6877   -4.0373   -7.9685 O   0  0  0  0  0  0  0  0  0  0  0  0
   41.6581   -2.5612   -6.6118 O   0  0  0  0  0  0  0  0  0  0  0  0
  2  4  1  0
  2  1  1  6
  3  2  1  0
  4  6  1  0
  4  5  1  6
  6  7  2  0
  8  6  1  0
  8  9  1  0
  9 16  1  0
  9 10  1  1
 10 11  1  0
 11 12  2  0
 12 13  1  0
 14 13  1  0
 15 11  1  0
 15 14  2  0
 16 17  2  0
 18 19  1  0
 18 16  1  0
 19 26  1  0
 19 20  1  6
 21 20  1  0
 22 21  2  0
 23 22  1  0
 24 23  1  0
 24 25  2  0
 25 21  1  0
 26 28  2  0
 26 27  1  0
M  END
$$$$
