THH.pdb
     RDKit          3D

 28 29  0  0  1  0  0  0  0  0999 V2000
   24.1211  -18.2598  -14.6828 C   0  0  0  0  0  0  0  0  0  0  0  0
   24.3515  -18.7961  -16.0876 C   0  0  1  0  0  0  0  0  0  0  0  0
   23.7817  -17.9865  -17.0494 O   0  0  0  0  0  0  0  0  0  0  0  0
   25.8709  -18.8862  -16.2667 C   0  0  2  0  0  0  0  0  0  0  0  0
   26.1804  -19.2926  -17.6233 N   0  0  0  0  0  0  0  0  0  0  0  0
   26.4613  -19.8851  -15.3453 C   0  0  0  0  0  0  0  0  0  0  0  0
   26.3701  -21.1274  -15.5983 O   0  0  0  0  0  0  0  0  0  0  0  0
   27.1437  -19.5534  -14.1627 N   0  0  0  0  0  0  0  0  0  0  0  0
   27.6732  -20.6102  -13.2410 C   0  0  1  0  0  0  0  0  0  0  0  0
   28.8711  -19.9577  -12.6504 C   0  0  0  0  0  0  0  0  0  0  0  0
   29.5954  -20.6474  -11.5945 C   0  0  0  0  0  0  0  0  0  0  0  0
   29.2228  -21.9516  -11.1972 C   0  0  0  0  0  0  0  0  0  0  0  0
   30.0213  -22.3845  -10.2195 N   0  0  0  0  0  0  0  0  0  0  0  0
   30.9011  -21.3830   -9.9801 C   0  0  0  0  0  0  0  0  0  0  0  0
   30.6265  -20.3638  -10.8095 N   0  0  0  0  0  0  0  0  0  0  0  0
   26.5614  -20.8894  -12.3150 C   0  0  0  0  0  0  0  0  0  0  0  0
   26.7641  -21.8457  -11.4706 O   0  0  0  0  0  0  0  0  0  0  0  0
   25.3229  -20.2473  -12.2361 N   0  0  0  0  0  0  0  0  0  0  0  0
   24.3244  -20.6533  -11.1880 C   0  0  1  0  0  0  0  0  0  0  0  0
   24.4270  -19.6624  -10.0945 C   0  0  0  0  0  0  0  0  0  0  0  0
   25.3586  -19.9791   -9.0267 C   0  0  0  0  0  0  0  0  0  0  0  0
   26.0186  -21.1261   -8.6626 C   0  0  0  0  0  0  0  0  0  0  0  0
   26.8476  -20.8827   -7.6046 N   0  0  0  0  0  0  0  0  0  0  0  0
   26.7089  -19.5930   -7.3092 C   0  0  0  0  0  0  0  0  0  0  0  0
   25.8321  -19.0411   -8.1401 N   0  0  0  0  0  0  0  0  0  0  0  0
   22.9993  -20.6768  -11.8711 C   0  0  0  0  0  0  0  0  0  0  0  0
   21.8118  -21.0859  -11.3380 O   0  0  0  0  0  0  0  0  0  0  0  0
   22.9233  -20.2766  -13.0903 O   0  0  0  0  0  0  0  0  0  0  0  0
  2  4  1  0
  2  1  1  1
  3  2  1  0
  4  6  1  0
  4  5  1  6
  6  7  2  0
  8  6  1  0
  8  9  1  0
  9 16  1  0
  9 10  1  1
 10 11  1  0
 11 12  2  0
 12 13  1  0
 14 13  1  0
 15 11  1  0
 15 14  2  0
 16 17  2  0
 18 19  1  0
 18 16  1  0
 19 26  1  0
 19 20  1  1
 21 20  1  0
 22 21  2  0
 23 22  1  0
 24 23  1  0
 24 25  2  0
 25 21  1  0
 26 28  2  0
 26 27  1  0
M  END
$$$$
