EQR.pdb
     RDKit          3D

 30 29  0  0  1  0  0  0  0  0999 V2000
   10.5586  -17.3758   16.8721 N   0  0  0  0  0  0  0  0  0  0  0  0
   11.0306  -16.0254   16.7191 C   0  0  1  0  0  0  0  0  0  0  0  0
   10.4371  -15.5015   15.4161 C   0  0  0  0  0  0  0  0  0  0  0  0
   10.7452  -16.5204   14.3314 C   0  0  0  0  0  0  0  0  0  0  0  0
   10.1845  -16.0615   13.0358 C   0  0  0  0  0  0  0  0  0  0  0  0
   10.5334  -14.9474   12.5683 O   0  0  0  0  0  0  0  0  0  0  0  0
   10.6170  -15.1968   17.8725 C   0  0  0  0  0  0  0  0  0  0  0  0
   10.9927  -14.0100   18.0399 O   0  0  0  0  0  0  0  0  0  0  0  0
    9.2864  -16.8690   12.3647 O   0  0  0  0  0  0  0  0  0  0  0  0
    8.1826  -11.6236   18.9767 N   0  0  0  0  0  0  0  0  0  0  0  0
    7.5722  -12.6367   19.7458 C   0  0  0  0  0  0  0  0  0  0  0  0
    7.2366  -12.4165   20.9292 O   0  0  0  0  0  0  0  0  0  0  0  0
    7.3260  -13.9603   19.1600 C   0  0  0  0  0  0  0  0  0  0  0  0
    7.8201  -15.0852   20.0462 C   0  0  0  0  0  0  0  0  0  0  0  0
    9.3540  -15.0164   20.0080 C   0  0  2  0  0  0  0  0  0  0  0  0
    9.7544  -15.7503   18.8479 N   0  0  0  0  0  0  0  0  0  0  0  0
    9.9335  -15.5341   21.2613 C   0  0  0  0  0  0  0  0  0  0  0  0
    9.5941  -15.0447   22.3618 O   0  0  0  0  0  0  0  0  0  0  0  0
   16.3891  -13.4442   18.0159 N   0  0  0  0  0  0  0  0  0  0  0  0
   16.7070  -14.3837   19.0340 C   0  0  0  0  0  0  0  0  0  0  0  0
   17.8994  -14.3706   19.5226 N   0  0  0  0  0  0  0  0  0  0  0  0
   15.7758  -15.3260   19.5313 N   0  0  0  0  0  0  0  0  0  0  0  0
   14.4876  -14.8698   20.0060 C   0  0  0  0  0  0  0  0  0  0  0  0
   14.1882  -15.5166   21.3407 C   0  0  0  0  0  0  0  0  0  0  0  0
   12.8150  -15.2213   21.8558 C   0  0  0  0  0  0  0  0  0  0  0  0
   12.0521  -16.4622   22.1297 C   0  0  2  0  0  0  0  0  0  0  0  0
   10.8757  -16.5809   21.2718 N   0  0  0  0  0  0  0  0  0  0  0  0
   11.6437  -16.6006   23.5407 C   0  0  0  0  0  0  0  0  0  0  0  0
   12.6670  -16.6465   24.5098 O   0  0  0  0  0  0  0  0  0  0  0  0
   10.4810  -16.6797   23.9421 O   0  0  0  0  0  0  0  0  0  0  0  0
  2  1  1  1
  2  3  1  0
  3  4  1  0
  5  6  2  0
  5  4  1  0
  7  8  2  0
  7  2  1  0
  9  5  1  0
 10 11  1  0
 11 13  1  0
 12 11  2  0
 13 14  1  0
 15 14  1  1
 15 16  1  0
 16  7  1  0
 17 18  2  0
 17 15  1  0
 20 21  2  0
 20 19  1  0
 22 20  1  0
 23 22  1  0
 24 23  1  0
 24 25  1  0
 26 25  1  1
 26 27  1  0
 27 17  1  0
 28 26  1  0
 29 28  1  0
 30 28  2  0
M  END
$$$$
