EQR.pdb
     RDKit          3D

 30 29  0  0  1  0  0  0  0  0999 V2000
   11.4770  -20.5105   18.9072 N   0  0  0  0  0  0  0  0  0  0  0  0
   11.2230  -19.1260   19.2049 C   0  0  1  0  0  0  0  0  0  0  0  0
   10.1998  -18.6414   18.1837 C   0  0  0  0  0  0  0  0  0  0  0  0
   10.3074  -17.1272   18.1124 C   0  0  0  0  0  0  0  0  0  0  0  0
    9.3494  -16.6013   17.1077 C   0  0  0  0  0  0  0  0  0  0  0  0
    9.1234  -17.2607   16.0610 O   0  0  0  0  0  0  0  0  0  0  0  0
   10.7188  -18.9760   20.5874 C   0  0  0  0  0  0  0  0  0  0  0  0
    9.5154  -19.1444   20.9053 O   0  0  0  0  0  0  0  0  0  0  0  0
    8.7213  -15.3930   17.3412 O   0  0  0  0  0  0  0  0  0  0  0  0
   14.4343  -21.9149   24.1331 N   0  0  0  0  0  0  0  0  0  0  0  0
   13.4580  -21.4958   25.0613 C   0  0  0  0  0  0  0  0  0  0  0  0
   13.4657  -21.9380   26.2300 O   0  0  0  0  0  0  0  0  0  0  0  0
   12.4233  -20.5345   24.6600 C   0  0  0  0  0  0  0  0  0  0  0  0
   12.5644  -20.1036   23.2146 C   0  0  0  0  0  0  0  0  0  0  0  0
   11.4476  -19.0795   22.9636 C   0  0  2  0  0  0  0  0  0  0  0  0
   11.6217  -18.6257   21.6188 N   0  0  0  0  0  0  0  0  0  0  0  0
   11.4962  -17.9952   23.9618 C   0  0  0  0  0  0  0  0  0  0  0  0
   11.6237  -18.2632   25.1775 O   0  0  0  0  0  0  0  0  0  0  0  0
    8.2462  -13.5081   18.3735 N   0  0  0  0  0  0  0  0  0  0  0  0
    7.7889  -12.8389   19.5411 C   0  0  0  0  0  0  0  0  0  0  0  0
    7.6097  -11.5641   19.4804 N   0  0  0  0  0  0  0  0  0  0  0  0
    7.5229  -13.5083   20.7590 N   0  0  0  0  0  0  0  0  0  0  0  0
    8.1917  -14.7593   21.0432 C   0  0  0  0  0  0  0  0  0  0  0  0
    8.4285  -14.8730   22.5333 C   0  0  0  0  0  0  0  0  0  0  0  0
    9.1063  -16.1440   22.9377 C   0  0  0  0  0  0  0  0  0  0  0  0
   10.1849  -15.9017   23.9250 C   0  0  2  0  0  0  0  0  0  0  0  0
   11.4026  -16.6385   23.5958 N   0  0  0  0  0  0  0  0  0  0  0  0
    9.7892  -16.2072   25.3132 C   0  0  0  0  0  0  0  0  0  0  0  0
    9.8603  -15.1583   26.2529 O   0  0  0  0  0  0  0  0  0  0  0  0
    9.4016  -17.3046   25.7191 O   0  0  0  0  0  0  0  0  0  0  0  0
  2  1  1  6
  2  3  1  0
  3  4  1  0
  5  6  2  0
  5  4  1  0
  7  8  2  0
  7  2  1  0
  9  5  1  0
 10 11  1  0
 11 13  1  0
 12 11  2  0
 13 14  1  0
 15 14  1  1
 15 16  1  0
 16  7  1  0
 17 18  2  0
 17 15  1  0
 20 21  2  0
 20 19  1  0
 22 20  1  0
 23 22  1  0
 24 23  1  0
 24 25  1  0
 26 25  1  6
 26 27  1  0
 27 17  1  0
 28 26  1  0
 29 28  1  0
 30 28  2  0
M  END
$$$$
