EQR.pdb
     RDKit          3D

 30 29  0  0  1  0  0  0  0  0999 V2000
   10.7601  -17.9438   16.0514 N   0  0  0  0  0  0  0  0  0  0  0  0
    9.7038  -18.0216   17.0250 C   0  0  1  0  0  0  0  0  0  0  0  0
    9.5759  -19.4906   17.4127 C   0  0  0  0  0  0  0  0  0  0  0  0
   10.7223  -20.2388   16.7526 C   0  0  0  0  0  0  0  0  0  0  0  0
   10.6462  -21.6809   17.0961 C   0  0  0  0  0  0  0  0  0  0  0  0
    9.6421  -22.1198   17.7131 O   0  0  0  0  0  0  0  0  0  0  0  0
   10.0168  -17.1785   18.1994 C   0  0  0  0  0  0  0  0  0  0  0  0
   11.1644  -17.0949   18.7030 O   0  0  0  0  0  0  0  0  0  0  0  0
   11.6830  -22.5179   16.7306 O   0  0  0  0  0  0  0  0  0  0  0  0
    5.9227  -13.0183   20.8274 N   0  0  0  0  0  0  0  0  0  0  0  0
    7.0998  -12.9459   21.6018 C   0  0  0  0  0  0  0  0  0  0  0  0
    7.1817  -12.1405   22.5537 O   0  0  0  0  0  0  0  0  0  0  0  0
    8.2399  -13.8184   21.2943 C   0  0  0  0  0  0  0  0  0  0  0  0
    7.9852  -14.6980   20.0876 C   0  0  0  0  0  0  0  0  0  0  0  0
    9.2183  -15.6036   19.9516 C   0  0  2  0  0  0  0  0  0  0  0  0
    8.9851  -16.4197   18.8009 N   0  0  0  0  0  0  0  0  0  0  0  0
    9.4395  -16.3775   21.1872 C   0  0  0  0  0  0  0  0  0  0  0  0
    8.8634  -17.4757   21.3546 O   0  0  0  0  0  0  0  0  0  0  0  0
   17.5576  -17.4182   21.6014 N   0  0  0  0  0  0  0  0  0  0  0  0
   16.8349  -16.4535   22.3545 C   0  0  0  0  0  0  0  0  0  0  0  0
   17.4268  -15.3489   22.6550 N   0  0  0  0  0  0  0  0  0  0  0  0
   15.5017  -16.6526   22.7850 N   0  0  0  0  0  0  0  0  0  0  0  0
   14.8301  -17.8939   22.4671 C   0  0  0  0  0  0  0  0  0  0  0  0
   13.4222  -17.8570   23.0202 C   0  0  0  0  0  0  0  0  0  0  0  0
   12.5529  -16.8217   22.3793 C   0  0  0  0  0  0  0  0  0  0  0  0
   11.1612  -16.8826   22.8856 C   0  0  2  0  0  0  0  0  0  0  0  0
   10.2920  -15.9215   22.2114 N   0  0  0  0  0  0  0  0  0  0  0  0
   11.0590  -16.6935   24.3453 C   0  0  0  0  0  0  0  0  0  0  0  0
   10.2167  -15.6615   24.8075 O   0  0  0  0  0  0  0  0  0  0  0  0
   11.6499  -17.3638   25.1943 O   0  0  0  0  0  0  0  0  0  0  0  0
  2  1  1  6
  2  3  1  0
  3  4  1  0
  5  6  2  0
  5  4  1  0
  7  8  2  0
  7  2  1  0
  9  5  1  0
 10 11  1  0
 11 13  1  0
 12 11  2  0
 13 14  1  0
 15 14  1  1
 15 16  1  0
 16  7  1  0
 17 18  2  0
 17 15  1  0
 20 21  2  0
 20 19  1  0
 22 20  1  0
 23 22  1  0
 24 23  1  0
 24 25  1  0
 26 25  1  6
 26 27  1  0
 27 17  1  0
 28 26  1  0
 29 28  1  0
 30 28  2  0
M  END
$$$$
