EQR.pdb
     RDKit          3D

 30 29  0  0  1  0  0  0  0  0999 V2000
   14.7316  -13.8973   17.1474 N   0  0  0  0  0  0  0  0  0  0  0  0
   13.5841  -14.7521   16.9985 C   0  0  1  0  0  0  0  0  0  0  0  0
   14.1178  -16.1595   16.7555 C   0  0  0  0  0  0  0  0  0  0  0  0
   15.1049  -16.4722   17.8680 C   0  0  0  0  0  0  0  0  0  0  0  0
   15.7120  -17.8077   17.6416 C   0  0  0  0  0  0  0  0  0  0  0  0
   16.3045  -18.0446   16.5579 O   0  0  0  0  0  0  0  0  0  0  0  0
   12.7356  -14.6981   18.2089 C   0  0  0  0  0  0  0  0  0  0  0  0
   13.1973  -14.5786   19.3708 O   0  0  0  0  0  0  0  0  0  0  0  0
   15.6148  -18.7698   18.6286 O   0  0  0  0  0  0  0  0  0  0  0  0
    8.5187  -11.8932   19.1955 N   0  0  0  0  0  0  0  0  0  0  0  0
    7.9849  -12.8501   20.0843 C   0  0  0  0  0  0  0  0  0  0  0  0
    7.3949  -12.4870   21.1243 O   0  0  0  0  0  0  0  0  0  0  0  0
    8.1190  -14.2829   19.7932 C   0  0  0  0  0  0  0  0  0  0  0  0
    9.0342  -14.5501   18.6160 C   0  0  0  0  0  0  0  0  0  0  0  0
   10.4520  -14.6653   19.1952 C   0  0  2  0  0  0  0  0  0  0  0  0
   11.3299  -14.7835   18.0726 N   0  0  0  0  0  0  0  0  0  0  0  0
   10.5439  -15.7970   20.1362 C   0  0  0  0  0  0  0  0  0  0  0  0
   10.5968  -16.9711   19.7064 O   0  0  0  0  0  0  0  0  0  0  0  0
   17.9626  -15.5787   21.7055 N   0  0  0  0  0  0  0  0  0  0  0  0
   17.2310  -15.2240   22.8713 C   0  0  0  0  0  0  0  0  0  0  0  0
   17.8475  -14.5839   23.8046 N   0  0  0  0  0  0  0  0  0  0  0  0
   15.8634  -15.5408   23.0493 N   0  0  0  0  0  0  0  0  0  0  0  0
   15.3213  -16.7268   22.4230 C   0  0  0  0  0  0  0  0  0  0  0  0
   13.8722  -16.8884   22.8273 C   0  0  0  0  0  0  0  0  0  0  0  0
   12.9160  -16.1606   21.9360 C   0  0  0  0  0  0  0  0  0  0  0  0
   11.5072  -16.3992   22.3301 C   0  0  2  0  0  0  0  0  0  0  0  0
   10.5749  -15.6074   21.5314 N   0  0  0  0  0  0  0  0  0  0  0  0
   11.2498  -16.1583   23.7628 C   0  0  0  0  0  0  0  0  0  0  0  0
   11.9047  -16.9963   24.6885 O   0  0  0  0  0  0  0  0  0  0  0  0
   10.5088  -15.2843   24.2171 O   0  0  0  0  0  0  0  0  0  0  0  0
  2  1  1  1
  2  3  1  0
  3  4  1  0
  5  6  2  0
  5  4  1  0
  7  8  2  0
  7  2  1  0
  9  5  1  0
 10 11  1  0
 11 13  1  0
 12 11  2  0
 13 14  1  0
 15 14  1  6
 15 16  1  0
 16  7  1  0
 17 18  2  0
 17 15  1  0
 20 21  2  0
 20 19  1  0
 22 20  1  0
 23 22  1  0
 24 23  1  0
 24 25  1  0
 26 25  1  6
 26 27  1  0
 27 17  1  0
 28 26  1  0
 29 28  1  0
 30 28  2  0
M  END
$$$$
