EQR.pdb
     RDKit          3D

 30 29  0  0  1  0  0  0  0  0999 V2000
    8.8407  -22.0544   20.2411 N   0  0  0  0  0  0  0  0  0  0  0  0
    9.9849  -21.7606   21.0622 C   0  0  1  0  0  0  0  0  0  0  0  0
   11.0141  -21.0971   20.1539 C   0  0  0  0  0  0  0  0  0  0  0  0
   10.2934  -20.6611   18.8889 C   0  0  0  0  0  0  0  0  0  0  0  0
   11.2474  -19.9865   17.9732 C   0  0  0  0  0  0  0  0  0  0  0  0
   11.9824  -20.6783   17.2231 O   0  0  0  0  0  0  0  0  0  0  0  0
    9.6050  -20.8754   22.1847 C   0  0  0  0  0  0  0  0  0  0  0  0
    8.6294  -20.0855   22.1413 O   0  0  0  0  0  0  0  0  0  0  0  0
   11.3109  -18.6063   17.9613 O   0  0  0  0  0  0  0  0  0  0  0  0
   12.0015  -21.3813   28.0853 N   0  0  0  0  0  0  0  0  0  0  0  0
   11.1673  -20.2438   28.1091 C   0  0  0  0  0  0  0  0  0  0  0  0
   11.0068  -19.5997   29.1679 O   0  0  0  0  0  0  0  0  0  0  0  0
   10.4801  -19.8074   26.8873 C   0  0  0  0  0  0  0  0  0  0  0  0
   10.8270  -20.6684   25.6903 C   0  0  0  0  0  0  0  0  0  0  0  0
   10.0348  -20.0934   24.5068 C   0  0  2  0  0  0  0  0  0  0  0  0
   10.3664  -20.9046   23.3769 N   0  0  0  0  0  0  0  0  0  0  0  0
   10.3415  -18.6637   24.3155 C   0  0  0  0  0  0  0  0  0  0  0  0
   11.4683  -18.3110   23.9009 O   0  0  0  0  0  0  0  0  0  0  0  0
    7.9562  -14.0205   19.4452 N   0  0  0  0  0  0  0  0  0  0  0  0
    7.8585  -12.7785   20.1293 C   0  0  0  0  0  0  0  0  0  0  0  0
    8.1014  -11.6994   19.4680 N   0  0  0  0  0  0  0  0  0  0  0  0
    7.5075  -12.6769   21.4963 N   0  0  0  0  0  0  0  0  0  0  0  0
    7.2015  -13.8778   22.2427 C   0  0  0  0  0  0  0  0  0  0  0  0
    8.4863  -14.4856   22.7617 C   0  0  0  0  0  0  0  0  0  0  0  0
    8.2959  -15.8098   23.4312 C   0  0  0  0  0  0  0  0  0  0  0  0
    9.5705  -16.3423   23.9687 C   0  0  2  0  0  0  0  0  0  0  0  0
    9.3971  -17.6546   24.5864 N   0  0  0  0  0  0  0  0  0  0  0  0
   10.2279  -15.4339   24.9278 C   0  0  0  0  0  0  0  0  0  0  0  0
   10.4895  -15.9349   26.2196 O   0  0  0  0  0  0  0  0  0  0  0  0
   10.5672  -14.2726   24.6923 O   0  0  0  0  0  0  0  0  0  0  0  0
  2  1  1  6
  2  3  1  0
  3  4  1  0
  5  6  2  0
  5  4  1  0
  7  8  2  0
  7  2  1  0
  9  5  1  0
 10 11  1  0
 11 13  1  0
 12 11  2  0
 13 14  1  0
 15 14  1  1
 15 16  1  0
 16  7  1  0
 17 18  2  0
 17 15  1  0
 20 21  2  0
 20 19  1  0
 22 20  1  0
 23 22  1  0
 24 23  1  0
 24 25  1  0
 26 25  1  1
 26 27  1  0
 27 17  1  0
 28 26  1  0
 29 28  1  0
 30 28  2  0
M  END
$$$$
