EQR.pdb
     RDKit          3D

 30 29  0  0  1  0  0  0  0  0999 V2000
   13.8467  -18.0955   16.5168 N   0  0  0  0  0  0  0  0  0  0  0  0
   14.1225  -18.7827   17.7503 C   0  0  1  0  0  0  0  0  0  0  0  0
   15.6335  -18.9770   17.8124 C   0  0  0  0  0  0  0  0  0  0  0  0
   16.2799  -17.6474   17.4604 C   0  0  0  0  0  0  0  0  0  0  0  0
   17.6820  -17.6248   17.9474 C   0  0  0  0  0  0  0  0  0  0  0  0
   18.0981  -16.6305   18.5952 O   0  0  0  0  0  0  0  0  0  0  0  0
   13.6314  -17.9973   18.9035 C   0  0  0  0  0  0  0  0  0  0  0  0
   13.1162  -16.8571   18.7930 O   0  0  0  0  0  0  0  0  0  0  0  0
   18.5075  -18.7000   17.6792 O   0  0  0  0  0  0  0  0  0  0  0  0
   10.7843  -20.9748   23.1597 N   0  0  0  0  0  0  0  0  0  0  0  0
   10.5717  -20.6274   21.8089 C   0  0  0  0  0  0  0  0  0  0  0  0
    9.7041  -21.2204   21.1327 O   0  0  0  0  0  0  0  0  0  0  0  0
   11.3701  -19.5642   21.1863 C   0  0  0  0  0  0  0  0  0  0  0  0
   12.4241  -19.0098   22.1223 C   0  0  0  0  0  0  0  0  0  0  0  0
   13.1483  -17.9027   21.3419 C   0  0  2  0  0  0  0  0  0  0  0  0
   13.7379  -18.5401   20.2058 N   0  0  0  0  0  0  0  0  0  0  0  0
   14.1257  -17.2089   22.2009 C   0  0  0  0  0  0  0  0  0  0  0  0
   15.1957  -17.7733   22.5210 O   0  0  0  0  0  0  0  0  0  0  0  0
    8.8074  -14.3150   27.8010 N   0  0  0  0  0  0  0  0  0  0  0  0
   10.0889  -14.3796   28.4125 C   0  0  0  0  0  0  0  0  0  0  0  0
   10.2103  -13.9403   29.6179 N   0  0  0  0  0  0  0  0  0  0  0  0
   11.2295  -14.9031   27.7587 N   0  0  0  0  0  0  0  0  0  0  0  0
   11.0565  -15.8158   26.6496 C   0  0  0  0  0  0  0  0  0  0  0  0
   12.4144  -16.2378   26.1323 C   0  0  0  0  0  0  0  0  0  0  0  0
   12.4928  -16.3068   24.6399 C   0  0  0  0  0  0  0  0  0  0  0  0
   13.7483  -15.7087   24.1272 C   0  0  2  0  0  0  0  0  0  0  0  0
   13.9000  -15.9068   22.6879 N   0  0  0  0  0  0  0  0  0  0  0  0
   14.9566  -16.1988   24.8178 C   0  0  0  0  0  0  0  0  0  0  0  0
   15.1914  -17.5891   24.8045 O   0  0  0  0  0  0  0  0  0  0  0  0
   15.7779  -15.4924   25.4058 O   0  0  0  0  0  0  0  0  0  0  0  0
  2  1  1  6
  2  3  1  0
  3  4  1  0
  5  6  2  0
  5  4  1  0
  7  8  2  0
  7  2  1  0
  9  5  1  0
 10 11  1  0
 11 13  1  0
 12 11  2  0
 13 14  1  0
 15 14  1  1
 15 16  1  0
 16  7  1  0
 17 18  2  0
 17 15  1  0
 20 21  2  0
 20 19  1  0
 22 20  1  0
 23 22  1  0
 24 23  1  0
 24 25  1  0
 26 25  1  1
 26 27  1  0
 27 17  1  0
 28 26  1  0
 29 28  1  0
 30 28  2  0
M  END
$$$$
