EQR.pdb
     RDKit          3D

 30 29  0  0  1  0  0  0  0  0999 V2000
   14.5332  -20.6371   20.2113 N   0  0  0  0  0  0  0  0  0  0  0  0
   14.5393  -19.5617   21.1670 C   0  0  1  0  0  0  0  0  0  0  0  0
   14.6697  -18.2697   20.3681 C   0  0  0  0  0  0  0  0  0  0  0  0
   16.1503  -18.0334   20.1200 C   0  0  0  0  0  0  0  0  0  0  0  0
   16.3431  -16.7382   19.4209 C   0  0  0  0  0  0  0  0  0  0  0  0
   16.4743  -16.7215   18.1702 O   0  0  0  0  0  0  0  0  0  0  0  0
   13.2987  -19.5756   21.9724 C   0  0  0  0  0  0  0  0  0  0  0  0
   12.1678  -19.8394   21.4938 O   0  0  0  0  0  0  0  0  0  0  0  0
   16.3750  -15.5705   20.1588 O   0  0  0  0  0  0  0  0  0  0  0  0
   12.9391  -19.7947   28.3169 N   0  0  0  0  0  0  0  0  0  0  0  0
   11.6223  -19.5683   27.8638 C   0  0  0  0  0  0  0  0  0  0  0  0
   10.6671  -19.5719   28.6695 O   0  0  0  0  0  0  0  0  0  0  0  0
   11.3639  -19.3261   26.4389 C   0  0  0  0  0  0  0  0  0  0  0  0
   12.6235  -19.4072   25.6014 C   0  0  0  0  0  0  0  0  0  0  0  0
   12.1931  -19.1236   24.1546 C   0  0  2  0  0  0  0  0  0  0  0  0
   13.3678  -19.2796   23.3543 N   0  0  0  0  0  0  0  0  0  0  0  0
   11.5774  -17.7884   24.0426 C   0  0  0  0  0  0  0  0  0  0  0  0
   12.2853  -16.7595   24.1212 O   0  0  0  0  0  0  0  0  0  0  0  0
    7.9301  -11.4253   18.9762 N   0  0  0  0  0  0  0  0  0  0  0  0
    8.0799  -12.8177   19.2190 C   0  0  0  0  0  0  0  0  0  0  0  0
    8.8941  -13.4810   18.4722 N   0  0  0  0  0  0  0  0  0  0  0  0
    7.3782  -13.5020   20.2397 N   0  0  0  0  0  0  0  0  0  0  0  0
    7.7239  -14.8737   20.5430 C   0  0  0  0  0  0  0  0  0  0  0  0
    8.4588  -14.9242   21.8646 C   0  0  0  0  0  0  0  0  0  0  0  0
    8.8964  -16.3004   22.2556 C   0  0  0  0  0  0  0  0  0  0  0  0
    9.6864  -16.2904   23.5096 C   0  0  2  0  0  0  0  0  0  0  0  0
   10.1931  -17.6184   23.8467 N   0  0  0  0  0  0  0  0  0  0  0  0
    8.9486  -15.7417   24.6636 C   0  0  0  0  0  0  0  0  0  0  0  0
    8.5729  -14.3839   24.6061 O   0  0  0  0  0  0  0  0  0  0  0  0
    8.6337  -16.3731   25.6743 O   0  0  0  0  0  0  0  0  0  0  0  0
  2  1  1  6
  2  3  1  0
  3  4  1  0
  5  6  2  0
  5  4  1  0
  7  8  2  0
  7  2  1  0
  9  5  1  0
 10 11  1  0
 11 13  1  0
 12 11  2  0
 13 14  1  0
 15 14  1  1
 15 16  1  0
 16  7  1  0
 17 18  2  0
 17 15  1  0
 20 21  2  0
 20 19  1  0
 22 20  1  0
 23 22  1  0
 24 23  1  0
 24 25  1  0
 26 25  1  6
 26 27  1  0
 27 17  1  0
 28 26  1  0
 29 28  1  0
 30 28  2  0
M  END
$$$$
