GTM.pdb
     RDKit          3D

 20 19  0  0  1  0  0  0  0  0999 V2000
    3.4876  -19.0081   22.3683 N   0  0  0  0  0  0  0  0  0  0  0  0
    4.1366  -17.7278   22.2284 C   0  0  0  0  0  0  0  0  0  0  0  0
    5.6079  -17.9180   22.2740 C   0  0  0  0  0  0  0  0  0  0  0  0
    6.1070  -18.9210   22.8630 O   0  0  0  0  0  0  0  0  0  0  0  0
    9.9811  -17.2186   20.5542 C   0  0  0  0  0  0  0  0  0  0  0  0
    8.4903  -16.9004   20.4148 C   0  0  1  0  0  0  0  0  0  0  0  0
    7.9797  -17.8879   19.5535 O   0  0  0  0  0  0  0  0  0  0  0  0
    7.8990  -17.0228   21.7917 C   0  0  2  0  0  0  0  0  0  0  0  0
    6.4559  -16.9831   21.6619 N   0  0  0  0  0  0  0  0  0  0  0  0
    8.3516  -15.9397   22.7059 C   0  0  0  0  0  0  0  0  0  0  0  0
    8.5186  -14.7833   22.2499 O   0  0  0  0  0  0  0  0  0  0  0  0
    5.3526  -13.0461   26.9913 C   0  0  0  0  0  0  0  0  0  0  0  0
    6.8999  -12.1246   26.8253 S   0  0  0  0  0  0  0  0  0  0  0  0
    8.2808  -13.2374   26.3932 C   0  0  0  0  0  0  0  0  0  0  0  0
    7.8781  -14.2318   25.3582 C   0  0  0  0  0  0  0  0  0  0  0  0
    9.0426  -15.0423   24.9032 C   0  0  2  0  0  0  0  0  0  0  0  0
    8.6000  -16.1712   24.0718 N   0  0  0  0  0  0  0  0  0  0  0  0
    9.8399  -15.6172   25.9838 C   0  0  0  0  0  0  0  0  0  0  0  0
    9.7632  -16.8302   26.2644 O   0  0  0  0  0  0  0  0  0  0  0  0
   10.7179  -14.8624   26.7529 O   0  0  0  0  0  0  0  0  0  0  0  0
  2  1  1  0
  3  2  1  0
  4  3  2  0
  6  5  1  1
  6  7  1  0
  6  8  1  0
  8  9  1  6
  9  3  1  0
 10  8  1  0
 10 17  1  0
 11 10  2  0
 13 12  1  0
 14 15  1  0
 14 13  1  0
 16 18  1  0
 16 17  1  0
 16 15  1  1
 18 20  1  0
 19 18  2  0
M  END
$$$$
