GTM.pdb
     RDKit          3D

 20 19  0  0  1  0  0  0  0  0999 V2000
    2.6839  -19.2392   22.1034 N   0  0  0  0  0  0  0  0  0  0  0  0
    3.3097  -18.0233   21.6453 C   0  0  0  0  0  0  0  0  0  0  0  0
    4.7775  -18.1256   21.8400 C   0  0  0  0  0  0  0  0  0  0  0  0
    5.2825  -19.1511   22.3835 O   0  0  0  0  0  0  0  0  0  0  0  0
    9.2042  -16.9944   20.4983 C   0  0  0  0  0  0  0  0  0  0  0  0
    7.7034  -16.7614   20.3075 C   0  0  1  0  0  0  0  0  0  0  0  0
    7.3127  -17.6657   19.3037 O   0  0  0  0  0  0  0  0  0  0  0  0
    7.0512  -17.0935   21.6208 C   0  0  2  0  0  0  0  0  0  0  0  0
    5.6157  -17.0817   21.4209 N   0  0  0  0  0  0  0  0  0  0  0  0
    7.4168  -16.1349   22.6984 C   0  0  0  0  0  0  0  0  0  0  0  0
    7.1354  -14.9205   22.5592 O   0  0  0  0  0  0  0  0  0  0  0  0
    6.9955  -11.1856   26.3809 C   0  0  0  0  0  0  0  0  0  0  0  0
    6.3112  -12.7738   26.9103 S   0  0  0  0  0  0  0  0  0  0  0  0
    7.5257  -14.1174   26.6836 C   0  0  0  0  0  0  0  0  0  0  0  0
    7.1909  -14.9634   25.5028 C   0  0  0  0  0  0  0  0  0  0  0  0
    8.4184  -15.5290   24.8756 C   0  0  2  0  0  0  0  0  0  0  0  0
    8.0710  -16.5477   23.8742 N   0  0  0  0  0  0  0  0  0  0  0  0
    9.3364  -16.1718   25.8126 C   0  0  0  0  0  0  0  0  0  0  0  0
    9.4217  -17.4145   25.8790 O   0  0  0  0  0  0  0  0  0  0  0  0
   10.1573  -15.4522   26.6731 O   0  0  0  0  0  0  0  0  0  0  0  0
  2  1  1  0
  3  2  1  0
  4  3  2  0
  6  5  1  1
  6  7  1  0
  6  8  1  0
  8  9  1  6
  9  3  1  0
 10  8  1  0
 10 17  1  0
 11 10  2  0
 13 12  1  0
 14 15  1  0
 14 13  1  0
 16 18  1  0
 16 17  1  0
 16 15  1  1
 18 20  1  0
 19 18  2  0
M  END
$$$$
