GTM.pdb
     RDKit          3D

 20 19  0  0  1  0  0  0  0  0999 V2000
    8.0576  -12.7107   17.7823 N   0  0  0  0  0  0  0  0  0  0  0  0
    8.9262  -13.0892   18.8696 C   0  0  0  0  0  0  0  0  0  0  0  0
    8.2112  -14.0386   19.7586 C   0  0  0  0  0  0  0  0  0  0  0  0
    6.9468  -14.0967   19.7506 O   0  0  0  0  0  0  0  0  0  0  0  0
    7.9373  -17.3230   19.8418 C   0  0  0  0  0  0  0  0  0  0  0  0
    8.5331  -17.1484   21.2410 C   0  0  1  0  0  0  0  0  0  0  0  0
    9.9042  -17.4268   21.0972 O   0  0  0  0  0  0  0  0  0  0  0  0
    8.3082  -15.7117   21.6226 C   0  0  2  0  0  0  0  0  0  0  0  0
    8.9365  -14.8797   20.6156 N   0  0  0  0  0  0  0  0  0  0  0  0
    8.8629  -15.3836   22.9636 C   0  0  0  0  0  0  0  0  0  0  0  0
   10.0171  -14.8996   23.0473 O   0  0  0  0  0  0  0  0  0  0  0  0
    6.2970  -10.6302   26.8105 C   0  0  0  0  0  0  0  0  0  0  0  0
    6.3618  -12.4173   27.0803 S   0  0  0  0  0  0  0  0  0  0  0  0
    7.6627  -13.1865   26.0565 C   0  0  0  0  0  0  0  0  0  0  0  0
    7.8126  -14.6376   26.3627 C   0  0  0  0  0  0  0  0  0  0  0  0
    8.7754  -15.2913   25.4323 C   0  0  2  0  0  0  0  0  0  0  0  0
    8.1320  -15.5994   24.1469 N   0  0  0  0  0  0  0  0  0  0  0  0
    9.3333  -16.5491   25.9231 C   0  0  0  0  0  0  0  0  0  0  0  0
    8.9230  -17.6457   25.4930 O   0  0  0  0  0  0  0  0  0  0  0  0
   10.3376  -16.6017   26.8826 O   0  0  0  0  0  0  0  0  0  0  0  0
  2  1  1  0
  3  2  1  0
  4  3  2  0
  6  5  1  6
  6  7  1  0
  6  8  1  0
  8  9  1  6
  9  3  1  0
 10  8  1  0
 10 17  1  0
 11 10  2  0
 13 12  1  0
 14 15  1  0
 14 13  1  0
 16 18  1  0
 16 17  1  0
 16 15  1  1
 18 20  1  0
 19 18  2  0
M  END
$$$$
