GTM.pdb
     RDKit          3D

 20 19  0  0  1  0  0  0  0  0999 V2000
    7.7226  -12.4304   18.4667 N   0  0  0  0  0  0  0  0  0  0  0  0
    8.7936  -13.3147   18.8547 C   0  0  0  0  0  0  0  0  0  0  0  0
    8.3922  -14.0642   20.0713 C   0  0  0  0  0  0  0  0  0  0  0  0
    7.3990  -13.6864   20.7588 O   0  0  0  0  0  0  0  0  0  0  0  0
    8.6435  -18.3763   22.3232 C   0  0  0  0  0  0  0  0  0  0  0  0
    9.2397  -17.4472   21.2628 C   0  0  1  0  0  0  0  0  0  0  0  0
    8.7790  -17.9466   20.0314 O   0  0  0  0  0  0  0  0  0  0  0  0
    8.6825  -16.0777   21.5357 C   0  0  2  0  0  0  0  0  0  0  0  0
    9.1149  -15.1997   20.4666 N   0  0  0  0  0  0  0  0  0  0  0  0
    9.1270  -15.5312   22.8462 C   0  0  0  0  0  0  0  0  0  0  0  0
   10.3153  -15.1531   22.9807 O   0  0  0  0  0  0  0  0  0  0  0  0
    5.5198  -11.8205   26.4056 C   0  0  0  0  0  0  0  0  0  0  0  0
    6.9298  -11.9284   27.5329 S   0  0  0  0  0  0  0  0  0  0  0  0
    8.1644  -13.1268   26.9234 C   0  0  0  0  0  0  0  0  0  0  0  0
    7.7065  -13.7945   25.6717 C   0  0  0  0  0  0  0  0  0  0  0  0
    8.7341  -14.7419   25.1556 C   0  0  2  0  0  0  0  0  0  0  0  0
    8.2540  -15.4240   23.9450 N   0  0  0  0  0  0  0  0  0  0  0  0
    9.1144  -15.7939   26.0951 C   0  0  0  0  0  0  0  0  0  0  0  0
    9.8390  -15.5455   27.0796 O   0  0  0  0  0  0  0  0  0  0  0  0
    8.7004  -17.1132   25.9534 O   0  0  0  0  0  0  0  0  0  0  0  0
  2  1  1  0
  3  2  1  0
  4  3  2  0
  6  5  1  1
  6  7  1  0
  6  8  1  0
  8  9  1  6
  9  3  1  0
 10  8  1  0
 10 17  1  0
 11 10  2  0
 13 12  1  0
 14 15  1  0
 14 13  1  0
 16 18  1  0
 16 17  1  0
 16 15  1  1
 18 20  1  0
 19 18  2  0
M  END
$$$$
