GTM.pdb
     RDKit          3D

 20 19  0  0  1  0  0  0  0  0999 V2000
    8.3033  -12.9035   17.4692 N   0  0  0  0  0  0  0  0  0  0  0  0
    9.1828  -13.5889   18.3838 C   0  0  0  0  0  0  0  0  0  0  0  0
    8.3897  -14.1167   19.5218 C   0  0  0  0  0  0  0  0  0  0  0  0
    7.2467  -13.6398   19.7829 O   0  0  0  0  0  0  0  0  0  0  0  0
    7.7316  -17.5581   19.8622 C   0  0  0  0  0  0  0  0  0  0  0  0
    8.2408  -17.2371   21.2697 C   0  0  1  0  0  0  0  0  0  0  0  0
    9.5733  -17.6866   21.2930 O   0  0  0  0  0  0  0  0  0  0  0  0
    8.1697  -15.7426   21.4169 C   0  0  2  0  0  0  0  0  0  0  0  0
    8.9053  -15.1511   20.3169 N   0  0  0  0  0  0  0  0  0  0  0  0
    8.7321  -15.2689   22.7104 C   0  0  0  0  0  0  0  0  0  0  0  0
    9.9074  -14.8319   22.7438 O   0  0  0  0  0  0  0  0  0  0  0  0
    5.3572  -11.8350   26.6703 C   0  0  0  0  0  0  0  0  0  0  0  0
    6.9180  -11.8082   27.5835 S   0  0  0  0  0  0  0  0  0  0  0  0
    8.0982  -13.0199   26.8971 C   0  0  0  0  0  0  0  0  0  0  0  0
    7.5729  -13.6499   25.6525 C   0  0  0  0  0  0  0  0  0  0  0  0
    8.5424  -14.6325   25.0915 C   0  0  2  0  0  0  0  0  0  0  0  0
    7.9855  -15.2951   23.9032 N   0  0  0  0  0  0  0  0  0  0  0  0
    8.9260  -15.6989   26.0132 C   0  0  0  0  0  0  0  0  0  0  0  0
    9.4926  -15.4414   27.0943 O   0  0  0  0  0  0  0  0  0  0  0  0
    8.6882  -17.0425   25.7483 O   0  0  0  0  0  0  0  0  0  0  0  0
  2  1  1  0
  3  2  1  0
  4  3  2  0
  6  5  1  6
  6  7  1  0
  6  8  1  0
  8  9  1  6
  9  3  1  0
 10  8  1  0
 10 17  1  0
 11 10  2  0
 13 12  1  0
 14 15  1  0
 14 13  1  0
 16 18  1  0
 16 17  1  0
 16 15  1  1
 18 20  1  0
 19 18  2  0
M  END
$$$$
