GTM.pdb
     RDKit          3D

 20 19  0  0  1  0  0  0  0  0999 V2000
   10.9404  -17.6884   18.3040 N   0  0  0  0  0  0  0  0  0  0  0  0
   10.0452  -17.9751   19.3977 C   0  0  0  0  0  0  0  0  0  0  0  0
    9.6374  -16.7018   20.0423 C   0  0  0  0  0  0  0  0  0  0  0  0
    9.3669  -15.6848   19.3390 O   0  0  0  0  0  0  0  0  0  0  0  0
    7.5666  -15.4411   20.1209 C   0  0  0  0  0  0  0  0  0  0  0  0
    7.5152  -15.3871   21.6498 C   0  0  1  0  0  0  0  0  0  0  0  0
    6.7595  -16.5090   22.0349 O   0  0  0  0  0  0  0  0  0  0  0  0
    8.9363  -15.5001   22.1273 C   0  0  2  0  0  0  0  0  0  0  0  0
    9.5495  -16.6192   21.4399 N   0  0  0  0  0  0  0  0  0  0  0  0
    9.0300  -15.7012   23.5985 C   0  0  0  0  0  0  0  0  0  0  0  0
    8.4822  -16.7039   24.1158 O   0  0  0  0  0  0  0  0  0  0  0  0
    6.5211  -10.8575   25.9884 C   0  0  0  0  0  0  0  0  0  0  0  0
    6.2451  -12.1515   27.2212 S   0  0  0  0  0  0  0  0  0  0  0  0
    7.5981  -13.3766   27.1978 C   0  0  0  0  0  0  0  0  0  0  0  0
    8.0806  -13.6315   25.8106 C   0  0  0  0  0  0  0  0  0  0  0  0
    9.2180  -14.5940   25.8007 C   0  0  2  0  0  0  0  0  0  0  0  0
    9.7164  -14.7990   24.4329 N   0  0  0  0  0  0  0  0  0  0  0  0
    8.8944  -15.9197   26.3219 C   0  0  0  0  0  0  0  0  0  0  0  0
    8.2350  -16.7336   25.6445 O   0  0  0  0  0  0  0  0  0  0  0  0
    9.2935  -16.3494   27.5821 O   0  0  0  0  0  0  0  0  0  0  0  0
  2  1  1  0
  3  2  1  0
  4  3  2  0
  6  5  1  6
  6  7  1  0
  6  8  1  0
  8  9  1  6
  9  3  1  0
 10  8  1  0
 10 17  1  0
 11 10  2  0
 13 12  1  0
 14 15  1  0
 14 13  1  0
 16 18  1  0
 16 17  1  0
 16 15  1  6
 18 20  1  0
 19 18  2  0
M  END
$$$$
