GTM.pdb
     RDKit          3D

 20 19  0  0  1  0  0  0  0  0999 V2000
    1.4791  -19.3244   22.0855 N   0  0  0  0  0  0  0  0  0  0  0  0
    2.6164  -18.6222   21.5440 C   0  0  0  0  0  0  0  0  0  0  0  0
    3.7769  -18.7973   22.4526 C   0  0  0  0  0  0  0  0  0  0  0  0
    3.6593  -19.4637   23.5222 O   0  0  0  0  0  0  0  0  0  0  0  0
    6.4458  -20.4901   21.6861 C   0  0  0  0  0  0  0  0  0  0  0  0
    7.1842  -19.2201   22.1163 C   0  0  1  0  0  0  0  0  0  0  0  0
    7.5139  -18.5597   20.9192 O   0  0  0  0  0  0  0  0  0  0  0  0
    6.2080  -18.4154   22.9288 C   0  0  2  0  0  0  0  0  0  0  0  0
    5.0149  -18.2225   22.1287 N   0  0  0  0  0  0  0  0  0  0  0  0
    6.7579  -17.0949   23.3382 C   0  0  0  0  0  0  0  0  0  0  0  0
    6.8013  -16.1630   22.4998 O   0  0  0  0  0  0  0  0  0  0  0  0
    5.6191  -11.3253   26.3807 C   0  0  0  0  0  0  0  0  0  0  0  0
    6.5588  -12.5069   27.3765 S   0  0  0  0  0  0  0  0  0  0  0  0
    7.6545  -13.5215   26.3266 C   0  0  0  0  0  0  0  0  0  0  0  0
    6.9893  -14.7871   25.9052 C   0  0  0  0  0  0  0  0  0  0  0  0
    7.8312  -15.5460   24.9381 C   0  0  2  0  0  0  0  0  0  0  0  0
    7.2334  -16.8559   24.6412 N   0  0  0  0  0  0  0  0  0  0  0  0
    9.1921  -15.8116   25.3979 C   0  0  0  0  0  0  0  0  0  0  0  0
    9.5248  -16.9437   25.8023 O   0  0  0  0  0  0  0  0  0  0  0  0
   10.1833  -14.8372   25.4134 O   0  0  0  0  0  0  0  0  0  0  0  0
  2  1  1  0
  3  2  1  0
  4  3  2  0
  6  5  1  6
  6  7  1  0
  6  8  1  0
  8  9  1  6
  9  3  1  0
 10  8  1  0
 10 17  1  0
 11 10  2  0
 13 12  1  0
 14 15  1  0
 14 13  1  0
 16 18  1  0
 16 17  1  0
 16 15  1  1
 18 20  1  0
 19 18  2  0
M  END
$$$$
