GTM.pdb
     RDKit          3D

 20 19  0  0  1  0  0  0  0  0999 V2000
    7.9920  -12.6887   17.8224 N   0  0  0  0  0  0  0  0  0  0  0  0
    9.0093  -13.2785   18.6573 C   0  0  0  0  0  0  0  0  0  0  0  0
    8.3619  -14.1023   19.7086 C   0  0  0  0  0  0  0  0  0  0  0  0
    7.1193  -14.0019   19.9275 O   0  0  0  0  0  0  0  0  0  0  0  0
    8.5333  -17.6021   19.8573 C   0  0  0  0  0  0  0  0  0  0  0  0
    8.9995  -17.2447   21.2709 C   0  0  1  0  0  0  0  0  0  0  0  0
   10.4018  -17.3461   21.2351 O   0  0  0  0  0  0  0  0  0  0  0  0
    8.5641  -15.8268   21.5164 C   0  0  2  0  0  0  0  0  0  0  0  0
    9.1274  -14.9998   20.4678 N   0  0  0  0  0  0  0  0  0  0  0  0
    8.9981  -15.3183   22.8456 C   0  0  0  0  0  0  0  0  0  0  0  0
   10.0671  -14.6682   22.9334 O   0  0  0  0  0  0  0  0  0  0  0  0
    5.9794  -11.3177   26.2739 C   0  0  0  0  0  0  0  0  0  0  0  0
    6.7265  -12.1982   27.6658 S   0  0  0  0  0  0  0  0  0  0  0  0
    7.9770  -13.3954   27.0870 C   0  0  0  0  0  0  0  0  0  0  0  0
    7.6207  -13.9559   25.7525 C   0  0  0  0  0  0  0  0  0  0  0  0
    8.6721  -14.8887   25.2580 C   0  0  2  0  0  0  0  0  0  0  0  0
    8.2452  -15.5439   24.0132 N   0  0  0  0  0  0  0  0  0  0  0  0
    9.0167  -15.9610   26.1882 C   0  0  0  0  0  0  0  0  0  0  0  0
    8.6750  -17.1398   25.9656 O   0  0  0  0  0  0  0  0  0  0  0  0
    9.7338  -15.7391   27.3581 O   0  0  0  0  0  0  0  0  0  0  0  0
  2  1  1  0
  3  2  1  0
  4  3  2  0
  6  5  1  6
  6  7  1  0
  6  8  1  0
  8  9  1  6
  9  3  1  0
 10  8  1  0
 10 17  1  0
 11 10  2  0
 13 12  1  0
 14 15  1  0
 14 13  1  0
 16 18  1  0
 16 17  1  0
 16 15  1  1
 18 20  1  0
 19 18  2  0
M  END
$$$$
