GTM.pdb
     RDKit          3D

 20 19  0  0  1  0  0  0  0  0999 V2000
    8.1322  -13.0405   17.3253 N   0  0  0  0  0  0  0  0  0  0  0  0
    9.0818  -13.5220   18.2980 C   0  0  0  0  0  0  0  0  0  0  0  0
    8.3522  -14.1911   19.4038 C   0  0  0  0  0  0  0  0  0  0  0  0
    7.1020  -14.0398   19.5314 O   0  0  0  0  0  0  0  0  0  0  0  0
    8.2227  -17.5269   19.7181 C   0  0  0  0  0  0  0  0  0  0  0  0
    8.6803  -17.2075   21.1435 C   0  0  1  0  0  0  0  0  0  0  0  0
   10.0645  -17.4561   21.1525 O   0  0  0  0  0  0  0  0  0  0  0  0
    8.3893  -15.7495   21.3668 C   0  0  2  0  0  0  0  0  0  0  0  0
    9.0476  -14.9979   20.3167 N   0  0  0  0  0  0  0  0  0  0  0  0
    8.8563  -15.2711   22.6960 C   0  0  0  0  0  0  0  0  0  0  0  0
    9.9867  -14.7361   22.7918 O   0  0  0  0  0  0  0  0  0  0  0  0
    5.8599  -11.2160   26.3427 C   0  0  0  0  0  0  0  0  0  0  0  0
    6.6325  -12.1876   27.6580 S   0  0  0  0  0  0  0  0  0  0  0  0
    7.8975  -13.3159   26.9809 C   0  0  0  0  0  0  0  0  0  0  0  0
    7.4788  -13.8808   25.6665 C   0  0  0  0  0  0  0  0  0  0  0  0
    8.5357  -14.7610   25.0934 C   0  0  2  0  0  0  0  0  0  0  0  0
    8.0678  -15.3998   23.8547 N   0  0  0  0  0  0  0  0  0  0  0  0
    8.9667  -15.8430   25.9750 C   0  0  0  0  0  0  0  0  0  0  0  0
    8.5427  -17.0059   25.8205 O   0  0  0  0  0  0  0  0  0  0  0  0
    9.8599  -15.6482   27.0221 O   0  0  0  0  0  0  0  0  0  0  0  0
  2  1  1  0
  3  2  1  0
  4  3  2  0
  6  5  1  6
  6  7  1  0
  6  8  1  0
  8  9  1  6
  9  3  1  0
 10  8  1  0
 10 17  1  0
 11 10  2  0
 13 12  1  0
 14 15  1  0
 14 13  1  0
 16 18  1  0
 16 17  1  0
 16 15  1  1
 18 20  1  0
 19 18  2  0
M  END
$$$$
