GTM.pdb
     RDKit          3D

 20 19  0  0  1  0  0  0  0  0999 V2000
    8.1644  -12.9499   17.2582 N   0  0  0  0  0  0  0  0  0  0  0  0
    9.0913  -13.5897   18.1590 C   0  0  0  0  0  0  0  0  0  0  0  0
    8.3337  -14.2596   19.2453 C   0  0  0  0  0  0  0  0  0  0  0  0
    7.1265  -13.9520   19.4695 O   0  0  0  0  0  0  0  0  0  0  0  0
    8.1833  -17.8116   19.5355 C   0  0  0  0  0  0  0  0  0  0  0  0
    8.5904  -17.4124   20.9561 C   0  0  1  0  0  0  0  0  0  0  0  0
    9.9773  -17.6365   21.0209 O   0  0  0  0  0  0  0  0  0  0  0  0
    8.2700  -15.9500   21.0951 C   0  0  2  0  0  0  0  0  0  0  0  0
    8.9546  -15.2411   20.0322 N   0  0  0  0  0  0  0  0  0  0  0  0
    8.6817  -15.3981   22.4140 C   0  0  0  0  0  0  0  0  0  0  0  0
    9.7955  -14.8313   22.5201 O   0  0  0  0  0  0  0  0  0  0  0  0
    6.4355  -10.7975   28.0377 C   0  0  0  0  0  0  0  0  0  0  0  0
    5.8918  -12.1815   27.0083 S   0  0  0  0  0  0  0  0  0  0  0  0
    7.3117  -13.1964   26.4737 C   0  0  0  0  0  0  0  0  0  0  0  0
    7.0592  -13.8364   25.1513 C   0  0  0  0  0  0  0  0  0  0  0  0
    8.2066  -14.6905   24.7344 C   0  0  2  0  0  0  0  0  0  0  0  0
    7.8586  -15.4916   23.5519 N   0  0  0  0  0  0  0  0  0  0  0  0
    8.6587  -15.6364   25.7517 C   0  0  0  0  0  0  0  0  0  0  0  0
    8.3846  -16.8504   25.6679 O   0  0  0  0  0  0  0  0  0  0  0  0
    9.4089  -15.2502   26.8563 O   0  0  0  0  0  0  0  0  0  0  0  0
  2  1  1  0
  3  2  1  0
  4  3  2  0
  6  5  1  6
  6  7  1  0
  6  8  1  0
  8  9  1  6
  9  3  1  0
 10  8  1  0
 10 17  1  0
 11 10  2  0
 13 12  1  0
 14 15  1  0
 14 13  1  0
 16 18  1  0
 16 17  1  0
 16 15  1  1
 18 20  1  0
 19 18  2  0
M  END
$$$$
