GTM.pdb
     RDKit          3D

 20 19  0  0  1  0  0  0  0  0999 V2000
   13.2502  -17.3515   19.1623 N   0  0  0  0  0  0  0  0  0  0  0  0
   12.2556  -17.9009   20.0505 C   0  0  0  0  0  0  0  0  0  0  0  0
   11.3256  -16.8228   20.4698 C   0  0  0  0  0  0  0  0  0  0  0  0
   11.6004  -15.6104   20.2321 O   0  0  0  0  0  0  0  0  0  0  0  0
    7.8275  -16.9687   19.6012 C   0  0  0  0  0  0  0  0  0  0  0  0
    7.7853  -16.7081   21.1090 C   0  0  1  0  0  0  0  0  0  0  0  0
    7.5735  -17.9681   21.6969 O   0  0  0  0  0  0  0  0  0  0  0  0
    9.1323  -16.1546   21.4826 C   0  0  2  0  0  0  0  0  0  0  0  0
   10.1327  -17.1440   21.1344 N   0  0  0  0  0  0  0  0  0  0  0  0
    9.2329  -15.8256   22.9301 C   0  0  0  0  0  0  0  0  0  0  0  0
   10.0947  -16.4072   23.6319 O   0  0  0  0  0  0  0  0  0  0  0  0
    5.3596  -11.5880   26.7545 C   0  0  0  0  0  0  0  0  0  0  0  0
    7.0872  -11.5452   27.2875 S   0  0  0  0  0  0  0  0  0  0  0  0
    7.9554  -13.0800   26.8156 C   0  0  0  0  0  0  0  0  0  0  0  0
    7.8083  -13.3658   25.3601 C   0  0  0  0  0  0  0  0  0  0  0  0
    8.6131  -14.5532   24.9568 C   0  0  2  0  0  0  0  0  0  0  0  0
    8.3891  -14.8791   23.5408 N   0  0  0  0  0  0  0  0  0  0  0  0
    8.3168  -15.7698   25.7091 C   0  0  0  0  0  0  0  0  0  0  0  0
    7.4106  -16.5461   25.3454 O   0  0  0  0  0  0  0  0  0  0  0  0
    9.0132  -16.1320   26.8562 O   0  0  0  0  0  0  0  0  0  0  0  0
  2  1  1  0
  3  2  1  0
  4  3  2  0
  6  5  1  6
  6  7  1  0
  6  8  1  0
  8  9  1  1
  9  3  1  0
 10  8  1  0
 10 17  1  0
 11 10  2  0
 13 12  1  0
 14 15  1  0
 14 13  1  0
 16 18  1  0
 16 17  1  0
 16 15  1  1
 18 20  1  0
 19 18  2  0
M  END
$$$$
