WHP.pdb
     RDKit          3D

 32 35  0  0  1  0  0  0  0  0999 V2000
    8.9632  -15.7676   21.0220 N   0  0  0  0  0  0  0  0  0  0  0  0
    8.7397  -15.4322   22.4032 C   0  0  1  0  0  0  0  0  0  0  0  0
    7.2929  -15.0948   22.5942 C   0  0  0  0  0  0  0  0  0  0  0  0
    6.9615  -14.8025   24.0121 C   0  0  0  0  0  0  0  0  0  0  0  0
    6.4584  -15.6409   24.9681 C   0  0  0  0  0  0  0  0  0  0  0  0
    6.3115  -14.9644   26.1075 N   0  0  0  0  0  0  0  0  0  0  0  0
    6.7147  -13.7020   25.8923 C   0  0  0  0  0  0  0  0  0  0  0  0
    6.7809  -12.5786   26.7113 C   0  0  0  0  0  0  0  0  0  0  0  0
    7.2417  -11.3863   26.2309 C   0  0  0  0  0  0  0  0  0  0  0  0
    7.6467  -11.2784   24.9316 C   0  0  0  0  0  0  0  0  0  0  0  0
    7.5919  -12.3792   24.0943 C   0  0  0  0  0  0  0  0  0  0  0  0
    7.1250  -13.5712   24.5962 C   0  0  0  0  0  0  0  0  0  0  0  0
    9.1226  -16.5336   23.3235 C   0  0  0  0  0  0  0  0  0  0  0  0
    8.4579  -17.6015   23.2587 O   0  0  0  0  0  0  0  0  0  0  0  0
   10.1714  -16.4481   24.2485 N   0  0  0  0  0  0  0  0  0  0  0  0
   10.5215  -17.5826   25.0854 C   0  0  1  0  0  0  0  0  0  0  0  0
   11.3118  -18.5858   24.2556 C   0  0  0  0  0  0  0  0  0  0  0  0
   10.4511  -19.2981   23.2844 C   0  0  0  0  0  0  0  0  0  0  0  0
   10.4276  -19.0851   21.9251 C   0  0  0  0  0  0  0  0  0  0  0  0
    9.5385  -19.8989   21.3740 N   0  0  0  0  0  0  0  0  0  0  0  0
    8.9853  -20.6353   22.3495 C   0  0  0  0  0  0  0  0  0  0  0  0
    9.5496  -20.2596   23.5066 N   0  0  0  0  0  0  0  0  0  0  0  0
   11.4059  -17.1508   26.2363 C   0  0  0  0  0  0  0  0  0  0  0  0
   12.6314  -17.2197   25.9683 O   0  0  0  0  0  0  0  0  0  0  0  0
   10.8695  -16.7265   27.4528 N   0  0  0  0  0  0  0  0  0  0  0  0
    9.7039  -15.8138   27.5481 C   0  0  0  0  0  0  0  0  0  0  0  0
    8.8711  -16.5293   28.5754 C   0  0  0  0  0  0  0  0  0  0  0  0
    9.8294  -17.3889   29.3704 C   0  0  0  0  0  0  0  0  0  0  0  0
   11.1981  -16.9066   28.8238 C   0  0  1  0  0  0  0  0  0  0  0  0
   12.2554  -17.8063   29.2011 C   0  0  0  0  0  0  0  0  0  0  0  0
   13.5331  -17.2565   29.4336 O   0  0  0  0  0  0  0  0  0  0  0  0
   12.1612  -19.0263   29.3448 O   0  0  0  0  0  0  0  0  0  0  0  0
  2 13  1  0
  2  1  1  6
  3  2  1  0
  4  3  1  0
  4  5  2  0
  6  5  1  0
  7 12  2  0
  7  6  1  0
  8  7  1  0
  9 10  1  0
  9  8  2  0
 10 11  2  0
 11 12  1  0
 12  4  1  0
 13 14  2  0
 15 16  1  0
 15 13  1  0
 16 17  1  6
 18 17  1  0
 19 18  2  0
 20 21  1  0
 20 19  1  0
 21 22  2  0
 22 18  1  0
 23 16  1  0
 24 23  2  0
 25 23  1  0
 25 29  1  0
 26 25  1  0
 27 26  1  0
 27 28  1  0
 28 29  1  0
 29 30  1  6
 30 31  1  0
 32 30  2  0
M  END
$$$$
