WHP.pdb
     RDKit          3D

 32 35  0  0  1  0  0  0  0  0999 V2000
    7.2497  -18.5446   21.2668 N   0  0  0  0  0  0  0  0  0  0  0  0
    7.1620  -17.1384   21.5586 C   0  0  1  0  0  0  0  0  0  0  0  0
    6.4028  -16.4598   20.4602 C   0  0  0  0  0  0  0  0  0  0  0  0
    7.2250  -15.4542   19.7403 C   0  0  0  0  0  0  0  0  0  0  0  0
    7.8696  -15.5705   18.5398 C   0  0  0  0  0  0  0  0  0  0  0  0
    8.4918  -14.4236   18.2662 N   0  0  0  0  0  0  0  0  0  0  0  0
    8.2532  -13.5738   19.2778 C   0  0  0  0  0  0  0  0  0  0  0  0
    8.6452  -12.2606   19.5211 C   0  0  0  0  0  0  0  0  0  0  0  0
    8.2545  -11.6107   20.6568 C   0  0  0  0  0  0  0  0  0  0  0  0
    7.4685  -12.2440   21.5759 C   0  0  0  0  0  0  0  0  0  0  0  0
    7.0635  -13.5499   21.3601 C   0  0  0  0  0  0  0  0  0  0  0  0
    7.4670  -14.1877   20.2107 C   0  0  0  0  0  0  0  0  0  0  0  0
    6.5031  -16.8699   22.8626 C   0  0  0  0  0  0  0  0  0  0  0  0
    5.2736  -17.1270   22.9554 O   0  0  0  0  0  0  0  0  0  0  0  0
    7.1692  -16.3518   23.9810 N   0  0  0  0  0  0  0  0  0  0  0  0
    7.0511  -16.9899   25.2806 C   0  0  1  0  0  0  0  0  0  0  0  0
    7.6840  -18.3736   25.2129 C   0  0  0  0  0  0  0  0  0  0  0  0
    7.5406  -19.1089   26.4897 C   0  0  0  0  0  0  0  0  0  0  0  0
    8.4657  -19.1376   27.5080 C   0  0  0  0  0  0  0  0  0  0  0  0
    8.0031  -19.8945   28.4928 N   0  0  0  0  0  0  0  0  0  0  0  0
    6.7963  -20.3569   28.1326 C   0  0  0  0  0  0  0  0  0  0  0  0
    6.5271  -19.8714   26.9119 N   0  0  0  0  0  0  0  0  0  0  0  0
    7.7969  -16.2024   26.3375 C   0  0  0  0  0  0  0  0  0  0  0  0
    8.0227  -16.8673   27.3792 O   0  0  0  0  0  0  0  0  0  0  0  0
    8.1748  -14.8750   26.1308 N   0  0  0  0  0  0  0  0  0  0  0  0
    7.5181  -13.9929   25.1349 C   0  0  0  0  0  0  0  0  0  0  0  0
    7.3011  -12.7537   25.9584 C   0  0  0  0  0  0  0  0  0  0  0  0
    8.3226  -12.8044   27.0734 C   0  0  0  0  0  0  0  0  0  0  0  0
    9.1866  -14.0174   26.6415 C   0  0  1  0  0  0  0  0  0  0  0  0
   10.0350  -14.4607   27.7155 C   0  0  0  0  0  0  0  0  0  0  0  0
    9.7931  -15.7401   28.2573 O   0  0  0  0  0  0  0  0  0  0  0  0
   10.9655  -13.8306   28.2204 O   0  0  0  0  0  0  0  0  0  0  0  0
  2 13  1  0
  2  1  1  6
  3  2  1  0
  4  3  1  0
  4  5  2  0
  6  5  1  0
  7 12  2  0
  7  6  1  0
  8  7  1  0
  9 10  1  0
  9  8  2  0
 10 11  2  0
 11 12  1  0
 12  4  1  0
 13 14  2  0
 15 16  1  0
 15 13  1  0
 16 17  1  6
 18 17  1  0
 19 18  2  0
 20 21  1  0
 20 19  1  0
 21 22  2  0
 22 18  1  0
 23 16  1  0
 24 23  2  0
 25 23  1  0
 25 29  1  0
 26 25  1  0
 27 26  1  0
 27 28  1  0
 28 29  1  0
 29 30  1  1
 30 31  1  0
 32 30  2  0
M  END
$$$$
