WHP.pdb
     RDKit          3D

 32 35  0  0  1  0  0  0  0  0999 V2000
    5.8220  -17.0581   23.5691 N   0  0  0  0  0  0  0  0  0  0  0  0
    6.8985  -16.1042   23.5350 C   0  0  1  0  0  0  0  0  0  0  0  0
    7.4855  -15.9835   24.9077 C   0  0  0  0  0  0  0  0  0  0  0  0
    6.7823  -14.9726   25.7379 C   0  0  0  0  0  0  0  0  0  0  0  0
    5.5917  -15.0824   26.4015 C   0  0  0  0  0  0  0  0  0  0  0  0
    5.3322  -13.9326   27.0245 N   0  0  0  0  0  0  0  0  0  0  0  0
    6.3432  -13.0873   26.7675 C   0  0  0  0  0  0  0  0  0  0  0  0
    6.5973  -11.7738   27.1513 C   0  0  0  0  0  0  0  0  0  0  0  0
    7.7289  -11.1292   26.7403 C   0  0  0  0  0  0  0  0  0  0  0  0
    8.6332  -11.7684   25.9418 C   0  0  0  0  0  0  0  0  0  0  0  0
    8.4064  -13.0748   25.5447 C   0  0  0  0  0  0  0  0  0  0  0  0
    7.2613  -13.7072   25.9686 C   0  0  0  0  0  0  0  0  0  0  0  0
    7.9608  -16.4822   22.5678 C   0  0  0  0  0  0  0  0  0  0  0  0
    8.1138  -17.7083   22.3237 O   0  0  0  0  0  0  0  0  0  0  0  0
    8.7914  -15.5577   21.9209 N   0  0  0  0  0  0  0  0  0  0  0  0
    9.8347  -16.0012   21.0125 C   0  0  1  0  0  0  0  0  0  0  0  0
   10.1796  -14.8636   20.0604 C   0  0  0  0  0  0  0  0  0  0  0  0
    9.1149  -14.6429   19.0558 C   0  0  0  0  0  0  0  0  0  0  0  0
    8.2151  -13.6018   19.0550 C   0  0  0  0  0  0  0  0  0  0  0  0
    7.4105  -13.7250   18.0091 N   0  0  0  0  0  0  0  0  0  0  0  0
    7.7713  -14.8256   17.3320 C   0  0  0  0  0  0  0  0  0  0  0  0
    8.8094  -15.3745   17.9796 N   0  0  0  0  0  0  0  0  0  0  0  0
   11.0964  -16.3539   21.7720 C   0  0  0  0  0  0  0  0  0  0  0  0
   11.5301  -15.4062   22.4735 O   0  0  0  0  0  0  0  0  0  0  0  0
   11.6822  -17.6167   21.6723 N   0  0  0  0  0  0  0  0  0  0  0  0
   10.9181  -18.8365   21.3129 C   0  0  0  0  0  0  0  0  0  0  0  0
   11.8229  -19.4376   20.2732 C   0  0  0  0  0  0  0  0  0  0  0  0
   13.2054  -18.8880   20.5491 C   0  0  0  0  0  0  0  0  0  0  0  0
   12.9791  -18.1534   21.8959 C   0  0  1  0  0  0  0  0  0  0  0  0
   14.0796  -17.2792   22.2031 C   0  0  0  0  0  0  0  0  0  0  0  0
   14.9609  -17.6704   23.2322 O   0  0  0  0  0  0  0  0  0  0  0  0
   14.3377  -16.2073   21.6533 O   0  0  0  0  0  0  0  0  0  0  0  0
  2 13  1  0
  2  1  1  1
  3  2  1  0
  4  3  1  0
  4  5  2  0
  6  5  1  0
  7 12  2  0
  7  6  1  0
  8  7  1  0
  9 10  1  0
  9  8  2  0
 10 11  2  0
 11 12  1  0
 12  4  1  0
 13 14  2  0
 15 16  1  0
 15 13  1  0
 16 17  1  6
 18 17  1  0
 19 18  2  0
 20 21  1  0
 20 19  1  0
 21 22  2  0
 22 18  1  0
 23 16  1  0
 24 23  2  0
 25 23  1  0
 25 29  1  0
 26 25  1  0
 27 26  1  0
 27 28  1  0
 28 29  1  0
 29 30  1  6
 30 31  1  0
 32 30  2  0
M  END
$$$$
