WHP.pdb
     RDKit          3D

 32 35  0  0  1  0  0  0  0  0999 V2000
    5.9393  -17.7059   24.9270 N   0  0  0  0  0  0  0  0  0  0  0  0
    6.9456  -16.6883   24.7787 C   0  0  1  0  0  0  0  0  0  0  0  0
    7.1517  -16.0115   26.0990 C   0  0  0  0  0  0  0  0  0  0  0  0
    6.3759  -14.7506   26.2167 C   0  0  0  0  0  0  0  0  0  0  0  0
    5.0631  -14.5772   26.5581 C   0  0  0  0  0  0  0  0  0  0  0  0
    4.7765  -13.2753   26.5411 N   0  0  0  0  0  0  0  0  0  0  0  0
    5.8909  -12.6125   26.1925 C   0  0  0  0  0  0  0  0  0  0  0  0
    6.1706  -11.2601   26.0188 C   0  0  0  0  0  0  0  0  0  0  0  0
    7.4182  -10.8433   25.6518 C   0  0  0  0  0  0  0  0  0  0  0  0
    8.4155  -11.7532   25.4488 C   0  0  0  0  0  0  0  0  0  0  0  0
    8.1659  -13.1045   25.6144 C   0  0  0  0  0  0  0  0  0  0  0  0
    6.9035  -13.5050   25.9841 C   0  0  0  0  0  0  0  0  0  0  0  0
    8.2373  -17.2350   24.2895 C   0  0  0  0  0  0  0  0  0  0  0  0
    8.4319  -18.4721   24.4237 O   0  0  0  0  0  0  0  0  0  0  0  0
    9.2383  -16.4563   23.6939 N   0  0  0  0  0  0  0  0  0  0  0  0
   10.4317  -17.0725   23.1405 C   0  0  1  0  0  0  0  0  0  0  0  0
   10.8767  -16.2813   21.9176 C   0  0  0  0  0  0  0  0  0  0  0  0
   12.0503  -16.8978   21.2587 C   0  0  0  0  0  0  0  0  0  0  0  0
   12.8525  -17.8765   21.7993 C   0  0  0  0  0  0  0  0  0  0  0  0
   13.8036  -18.1867   20.9300 N   0  0  0  0  0  0  0  0  0  0  0  0
   13.6335  -17.4282   19.8365 C   0  0  0  0  0  0  0  0  0  0  0  0
   12.5634  -16.6486   20.0498 N   0  0  0  0  0  0  0  0  0  0  0  0
   11.5688  -17.0383   24.1401 C   0  0  0  0  0  0  0  0  0  0  0  0
   12.6004  -17.6286   23.7328 O   0  0  0  0  0  0  0  0  0  0  0  0
   11.4385  -16.4033   25.3760 N   0  0  0  0  0  0  0  0  0  0  0  0
   10.4664  -15.3106   25.6251 C   0  0  0  0  0  0  0  0  0  0  0  0
    9.8585  -15.7670   26.9225 C   0  0  0  0  0  0  0  0  0  0  0  0
   10.8797  -16.6770   27.5692 C   0  0  0  0  0  0  0  0  0  0  0  0
   12.0994  -16.4829   26.6317 C   0  0  1  0  0  0  0  0  0  0  0  0
   13.0973  -17.4938   26.8599 C   0  0  0  0  0  0  0  0  0  0  0  0
   14.2880  -17.1057   27.5083 O   0  0  0  0  0  0  0  0  0  0  0  0
   13.0205  -18.6820   26.5435 O   0  0  0  0  0  0  0  0  0  0  0  0
  2 13  1  0
  2  1  1  1
  3  2  1  0
  4  3  1  0
  4  5  2  0
  6  5  1  0
  7 12  2  0
  7  6  1  0
  8  7  1  0
  9 10  1  0
  9  8  2  0
 10 11  2  0
 11 12  1  0
 12  4  1  0
 13 14  2  0
 15 16  1  0
 15 13  1  0
 16 17  1  6
 18 17  1  0
 19 18  2  0
 20 21  1  0
 20 19  1  0
 21 22  2  0
 22 18  1  0
 23 16  1  0
 24 23  2  0
 25 23  1  0
 25 29  1  0
 26 25  1  0
 27 26  1  0
 27 28  1  0
 28 29  1  0
 29 30  1  6
 30 31  1  0
 32 30  2  0
M  END
$$$$
