WHP.pdb
     RDKit          3D

 32 35  0  0  1  0  0  0  0  0999 V2000
    5.6388  -17.7564   24.8389 N   0  0  0  0  0  0  0  0  0  0  0  0
    6.4572  -16.9321   23.9897 C   0  0  1  0  0  0  0  0  0  0  0  0
    7.4375  -16.1819   24.8381 C   0  0  0  0  0  0  0  0  0  0  0  0
    6.7769  -15.1935   25.7281 C   0  0  0  0  0  0  0  0  0  0  0  0
    5.7661  -15.3877   26.6285 C   0  0  0  0  0  0  0  0  0  0  0  0
    5.4763  -14.2264   27.2158 N   0  0  0  0  0  0  0  0  0  0  0  0
    6.2901  -13.2904   26.7019 C   0  0  0  0  0  0  0  0  0  0  0  0
    6.4294  -11.9260   26.9393 C   0  0  0  0  0  0  0  0  0  0  0  0
    7.3580  -11.1875   26.2632 C   0  0  0  0  0  0  0  0  0  0  0  0
    8.1685  -11.7809   25.3386 C   0  0  0  0  0  0  0  0  0  0  0  0
    8.0521  -13.1361   25.0821 C   0  0  0  0  0  0  0  0  0  0  0  0
    7.1112  -13.8631   25.7728 C   0  0  0  0  0  0  0  0  0  0  0  0
    7.1849  -17.7220   22.9634 C   0  0  0  0  0  0  0  0  0  0  0  0
    6.5546  -18.6497   22.3904 O   0  0  0  0  0  0  0  0  0  0  0  0
    8.5194  -17.4920   22.6039 N   0  0  0  0  0  0  0  0  0  0  0  0
    8.8498  -16.7754   21.3842 C   0  0  1  0  0  0  0  0  0  0  0  0
    8.0755  -15.4643   21.3543 C   0  0  0  0  0  0  0  0  0  0  0  0
    8.2056  -14.7763   20.0500 C   0  0  0  0  0  0  0  0  0  0  0  0
    8.9001  -15.2475   18.9594 C   0  0  0  0  0  0  0  0  0  0  0  0
    8.8008  -14.3709   17.9704 N   0  0  0  0  0  0  0  0  0  0  0  0
    8.0555  -13.3408   18.3985 C   0  0  0  0  0  0  0  0  0  0  0  0
    7.6999  -13.6003   19.6653 N   0  0  0  0  0  0  0  0  0  0  0  0
   10.3240  -16.4314   21.3439 C   0  0  0  0  0  0  0  0  0  0  0  0
   10.5398  -15.2153   21.1141 O   0  0  0  0  0  0  0  0  0  0  0  0
   11.3078  -17.4002   21.5472 N   0  0  0  0  0  0  0  0  0  0  0  0
   10.9960  -18.8267   21.8090 C   0  0  0  0  0  0  0  0  0  0  0  0
   11.9454  -19.5002   20.8571 C   0  0  0  0  0  0  0  0  0  0  0  0
   13.0618  -18.5106   20.6048 C   0  0  0  0  0  0  0  0  0  0  0  0
   12.7263  -17.4019   21.6357 C   0  0  1  0  0  0  0  0  0  0  0  0
   13.4683  -16.1992   21.3664 C   0  0  0  0  0  0  0  0  0  0  0  0
   14.8161  -16.1534   21.7792 O   0  0  0  0  0  0  0  0  0  0  0  0
   13.0440  -15.1884   20.8042 O   0  0  0  0  0  0  0  0  0  0  0  0
  2 13  1  0
  2  1  1  1
  3  2  1  0
  4  3  1  0
  4  5  2  0
  6  5  1  0
  7 12  2  0
  7  6  1  0
  8  7  1  0
  9 10  1  0
  9  8  2  0
 10 11  2  0
 11 12  1  0
 12  4  1  0
 13 14  2  0
 15 16  1  0
 15 13  1  0
 16 17  1  1
 18 17  1  0
 19 18  2  0
 20 21  1  0
 20 19  1  0
 21 22  2  0
 22 18  1  0
 23 16  1  0
 24 23  2  0
 25 23  1  0
 25 29  1  0
 26 25  1  0
 27 26  1  0
 27 28  1  0
 28 29  1  0
 29 30  1  6
 30 31  1  0
 32 30  2  0
M  END
$$$$
