WHP.pdb
     RDKit          3D

 32 35  0  0  1  0  0  0  0  0999 V2000
    6.0675  -17.1873   24.8182 N   0  0  0  0  0  0  0  0  0  0  0  0
    7.3769  -16.7390   24.4251 C   0  0  1  0  0  0  0  0  0  0  0  0
    7.7670  -15.5699   25.2763 C   0  0  0  0  0  0  0  0  0  0  0  0
    7.0359  -14.3310   24.9071 C   0  0  0  0  0  0  0  0  0  0  0  0
    6.0949  -13.6424   25.6215 C   0  0  0  0  0  0  0  0  0  0  0  0
    5.6986  -12.5842   24.9140 N   0  0  0  0  0  0  0  0  0  0  0  0
    6.3750  -12.5871   23.7543 C   0  0  0  0  0  0  0  0  0  0  0  0
    6.3655  -11.7362   22.6528 C   0  0  0  0  0  0  0  0  0  0  0  0
    7.1717  -11.9731   21.5763 C   0  0  0  0  0  0  0  0  0  0  0  0
    8.0041  -13.0551   21.5651 C   0  0  0  0  0  0  0  0  0  0  0  0
    8.0345  -13.9182   22.6468 C   0  0  0  0  0  0  0  0  0  0  0  0
    7.2154  -13.6632   23.7215 C   0  0  0  0  0  0  0  0  0  0  0  0
    8.4015  -17.8081   24.5432 C   0  0  0  0  0  0  0  0  0  0  0  0
    8.3494  -18.5524   25.5579 O   0  0  0  0  0  0  0  0  0  0  0  0
    9.4106  -18.0292   23.5966 N   0  0  0  0  0  0  0  0  0  0  0  0
   10.4134  -19.0598   23.8032 C   0  0  1  0  0  0  0  0  0  0  0  0
   11.1440  -19.3108   22.4907 C   0  0  0  0  0  0  0  0  0  0  0  0
   12.1278  -20.4107   22.6084 C   0  0  0  0  0  0  0  0  0  0  0  0
   13.4940  -20.2618   22.6789 C   0  0  0  0  0  0  0  0  0  0  0  0
   14.0560  -21.4581   22.7770 N   0  0  0  0  0  0  0  0  0  0  0  0
   13.0807  -22.3794   22.7715 C   0  0  0  0  0  0  0  0  0  0  0  0
   11.9127  -21.7286   22.6685 N   0  0  0  0  0  0  0  0  0  0  0  0
   11.4452  -18.6122   24.8171 C   0  0  0  0  0  0  0  0  0  0  0  0
   12.2184  -17.7263   24.3747 O   0  0  0  0  0  0  0  0  0  0  0  0
   11.4942  -19.1565   26.1012 N   0  0  0  0  0  0  0  0  0  0  0  0
   10.2913  -19.6465   26.8181 C   0  0  0  0  0  0  0  0  0  0  0  0
   10.7865  -20.9742   27.3211 C   0  0  0  0  0  0  0  0  0  0  0  0
   12.2947  -20.8675   27.3777 C   0  0  0  0  0  0  0  0  0  0  0  0
   12.5060  -19.3608   27.0782 C   0  0  1  0  0  0  0  0  0  0  0  0
   13.8815  -19.0808   26.7630 C   0  0  0  0  0  0  0  0  0  0  0  0
   14.7939  -18.9861   27.8342 O   0  0  0  0  0  0  0  0  0  0  0  0
   14.3543  -18.9122   25.6379 O   0  0  0  0  0  0  0  0  0  0  0  0
  2 13  1  0
  2  1  1  1
  3  2  1  0
  4  3  1  0
  4  5  2  0
  6  5  1  0
  7 12  2  0
  7  6  1  0
  8  7  1  0
  9 10  1  0
  9  8  2  0
 10 11  2  0
 11 12  1  0
 12  4  1  0
 13 14  2  0
 15 16  1  0
 15 13  1  0
 16 17  1  6
 18 17  1  0
 19 18  2  0
 20 21  1  0
 20 19  1  0
 21 22  2  0
 22 18  1  0
 23 16  1  0
 24 23  2  0
 25 23  1  0
 25 29  1  0
 26 25  1  0
 27 26  1  0
 27 28  1  0
 28 29  1  0
 29 30  1  6
 30 31  1  0
 32 30  2  0
M  END
$$$$
