WHP.pdb
     RDKit          3D

 32 35  0  0  1  0  0  0  0  0999 V2000
    9.8029  -16.9915   19.7523 N   0  0  0  0  0  0  0  0  0  0  0  0
   10.4204  -17.0063   21.0517 C   0  0  1  0  0  0  0  0  0  0  0  0
   11.8721  -16.6677   20.9046 C   0  0  0  0  0  0  0  0  0  0  0  0
   12.6448  -17.7563   20.2539 C   0  0  0  0  0  0  0  0  0  0  0  0
   13.1553  -17.8096   18.9864 C   0  0  0  0  0  0  0  0  0  0  0  0
   13.7809  -18.9746   18.8169 N   0  0  0  0  0  0  0  0  0  0  0  0
   13.6770  -19.6685   19.9616 C   0  0  0  0  0  0  0  0  0  0  0  0
   14.1331  -20.9250   20.3496 C   0  0  0  0  0  0  0  0  0  0  0  0
   13.8843  -21.4053   21.6034 C   0  0  0  0  0  0  0  0  0  0  0  0
   13.1800  -20.6548   22.5004 C   0  0  0  0  0  0  0  0  0  0  0  0
   12.7142  -19.4016   22.1420 C   0  0  0  0  0  0  0  0  0  0  0  0
   12.9746  -18.9351   20.8749 C   0  0  0  0  0  0  0  0  0  0  0  0
    9.7780  -16.0562   21.9958 C   0  0  0  0  0  0  0  0  0  0  0  0
    9.6920  -14.8516   21.6381 O   0  0  0  0  0  0  0  0  0  0  0  0
    9.2690  -16.4251   23.2479 N   0  0  0  0  0  0  0  0  0  0  0  0
    8.6653  -15.4387   24.1271 C   0  0  1  0  0  0  0  0  0  0  0  0
    7.1861  -15.7616   24.2929 C   0  0  0  0  0  0  0  0  0  0  0  0
    6.5376  -14.8808   25.2903 C   0  0  0  0  0  0  0  0  0  0  0  0
    5.8742  -13.7071   25.0143 C   0  0  0  0  0  0  0  0  0  0  0  0
    5.4239  -13.1869   26.1470 N   0  0  0  0  0  0  0  0  0  0  0  0
    5.7824  -14.0004   27.1518 C   0  0  0  0  0  0  0  0  0  0  0  0
    6.4593  -15.0269   26.6167 N   0  0  0  0  0  0  0  0  0  0  0  0
    9.2957  -15.4857   25.5032 C   0  0  0  0  0  0  0  0  0  0  0  0
    9.4752  -16.6561   25.9229 O   0  0  0  0  0  0  0  0  0  0  0  0
    9.6270  -14.3210   26.1969 N   0  0  0  0  0  0  0  0  0  0  0  0
    9.5477  -12.9689   25.5915 C   0  0  0  0  0  0  0  0  0  0  0  0
    8.8311  -12.2168   26.6786 C   0  0  0  0  0  0  0  0  0  0  0  0
    9.0915  -12.9782   27.9599 C   0  0  0  0  0  0  0  0  0  0  0  0
   10.1383  -14.0207   27.4886 C   0  0  1  0  0  0  0  0  0  0  0  0
   10.3042  -15.0678   28.4611 C   0  0  0  0  0  0  0  0  0  0  0  0
    9.1400  -15.6401   29.0142 O   0  0  0  0  0  0  0  0  0  0  0  0
   11.3733  -15.5248   28.8687 O   0  0  0  0  0  0  0  0  0  0  0  0
  2 13  1  0
  2  1  1  6
  3  2  1  0
  4  3  1  0
  4  5  2  0
  6  5  1  0
  7 12  2  0
  7  6  1  0
  8  7  1  0
  9 10  1  0
  9  8  2  0
 10 11  2  0
 11 12  1  0
 12  4  1  0
 13 14  2  0
 15 16  1  0
 15 13  1  0
 16 17  1  1
 18 17  1  0
 19 18  2  0
 20 21  1  0
 20 19  1  0
 21 22  2  0
 22 18  1  0
 23 16  1  0
 24 23  2  0
 25 23  1  0
 25 29  1  0
 26 25  1  0
 27 26  1  0
 27 28  1  0
 28 29  1  0
 29 30  1  1
 30 31  1  0
 32 30  2  0
M  END
$$$$
