WHP.pdb
     RDKit          3D

 32 35  0  0  1  0  0  0  0  0999 V2000
    6.2043  -16.8618   21.5459 N   0  0  0  0  0  0  0  0  0  0  0  0
    7.0237  -15.9891   22.3442 C   0  0  1  0  0  0  0  0  0  0  0  0
    6.5395  -14.5813   22.1795 C   0  0  0  0  0  0  0  0  0  0  0  0
    7.3442  -13.6099   22.9633 C   0  0  0  0  0  0  0  0  0  0  0  0
    8.6077  -13.1462   22.7210 C   0  0  0  0  0  0  0  0  0  0  0  0
    8.9469  -12.2838   23.6795 N   0  0  0  0  0  0  0  0  0  0  0  0
    7.9151  -12.1899   24.5333 C   0  0  0  0  0  0  0  0  0  0  0  0
    7.7156  -11.4524   25.6968 C   0  0  0  0  0  0  0  0  0  0  0  0
    6.5442  -11.5432   26.3927 C   0  0  0  0  0  0  0  0  0  0  0  0
    5.5453  -12.3640   25.9542 C   0  0  0  0  0  0  0  0  0  0  0  0
    5.7160  -13.1090   24.8003 C   0  0  0  0  0  0  0  0  0  0  0  0
    6.9025  -13.0044   24.1132 C   0  0  0  0  0  0  0  0  0  0  0  0
    7.0107  -16.3580   23.7831 C   0  0  0  0  0  0  0  0  0  0  0  0
    5.8915  -16.5880   24.3130 O   0  0  0  0  0  0  0  0  0  0  0  0
    8.1638  -16.4619   24.5721 N   0  0  0  0  0  0  0  0  0  0  0  0
    8.1390  -17.1741   25.8379 C   0  0  1  0  0  0  0  0  0  0  0  0
    7.7023  -18.6118   25.5894 C   0  0  0  0  0  0  0  0  0  0  0  0
    7.6862  -19.4072   26.8379 C   0  0  0  0  0  0  0  0  0  0  0  0
    7.2579  -18.9625   28.0677 C   0  0  0  0  0  0  0  0  0  0  0  0
    7.3868  -19.9415   28.9517 N   0  0  0  0  0  0  0  0  0  0  0  0
    7.8903  -21.0120   28.3189 C   0  0  0  0  0  0  0  0  0  0  0  0
    8.0677  -20.6732   27.0336 N   0  0  0  0  0  0  0  0  0  0  0  0
    9.5203  -17.2213   26.4568 C   0  0  0  0  0  0  0  0  0  0  0  0
   10.1712  -18.2454   26.1311 O   0  0  0  0  0  0  0  0  0  0  0  0
    9.9810  -16.2072   27.2976 N   0  0  0  0  0  0  0  0  0  0  0  0
    9.5211  -14.8004   27.1949 C   0  0  0  0  0  0  0  0  0  0  0  0
    9.2341  -14.4935   28.6387 C   0  0  0  0  0  0  0  0  0  0  0  0
   10.0714  -15.4586   29.4491 C   0  0  0  0  0  0  0  0  0  0  0  0
   10.9389  -16.1138   28.3434 C   0  0  1  0  0  0  0  0  0  0  0  0
   11.5948  -17.2982   28.8300 C   0  0  0  0  0  0  0  0  0  0  0  0
   12.9776  -17.2203   29.0958 O   0  0  0  0  0  0  0  0  0  0  0  0
   11.0676  -18.3913   29.0425 O   0  0  0  0  0  0  0  0  0  0  0  0
  2 13  1  0
  2  1  1  6
  3  2  1  0
  4  3  1  0
  4  5  2  0
  6  5  1  0
  7 12  2  0
  7  6  1  0
  8  7  1  0
  9 10  1  0
  9  8  2  0
 10 11  2  0
 11 12  1  0
 12  4  1  0
 13 14  2  0
 15 16  1  0
 15 13  1  0
 16 17  1  6
 18 17  1  0
 19 18  2  0
 20 21  1  0
 20 19  1  0
 21 22  2  0
 22 18  1  0
 23 16  1  0
 24 23  2  0
 25 23  1  0
 25 29  1  0
 26 25  1  0
 27 26  1  0
 27 28  1  0
 28 29  1  0
 29 30  1  1
 30 31  1  0
 32 30  2  0
M  END
$$$$
