WHP.pdb
     RDKit          3D

 32 35  0  0  1  0  0  0  0  0999 V2000
    6.1115  -16.8852   23.3617 N   0  0  0  0  0  0  0  0  0  0  0  0
    7.2661  -16.0275   23.3992 C   0  0  1  0  0  0  0  0  0  0  0  0
    7.7650  -15.9443   24.8091 C   0  0  0  0  0  0  0  0  0  0  0  0
    6.8998  -15.0953   25.6672 C   0  0  0  0  0  0  0  0  0  0  0  0
    5.8422  -15.4624   26.4526 C   0  0  0  0  0  0  0  0  0  0  0  0
    5.3493  -14.3795   27.0541 N   0  0  0  0  0  0  0  0  0  0  0  0
    6.0791  -13.3226   26.6629 C   0  0  0  0  0  0  0  0  0  0  0  0
    6.0163  -11.9660   26.9679 C   0  0  0  0  0  0  0  0  0  0  0  0
    6.9006  -11.0820   26.4191 C   0  0  0  0  0  0  0  0  0  0  0  0
    7.8654  -11.5190   25.5577 C   0  0  0  0  0  0  0  0  0  0  0  0
    7.9514  -12.8626   25.2364 C   0  0  0  0  0  0  0  0  0  0  0  0
    7.0521  -13.7376   25.7990 C   0  0  0  0  0  0  0  0  0  0  0  0
    8.3562  -16.5047   22.5100 C   0  0  0  0  0  0  0  0  0  0  0  0
    8.1897  -17.6100   21.9296 O   0  0  0  0  0  0  0  0  0  0  0  0
    9.5453  -15.7984   22.2857 N   0  0  0  0  0  0  0  0  0  0  0  0
   10.4276  -16.1540   21.1879 C   0  0  1  0  0  0  0  0  0  0  0  0
   10.6322  -14.9330   20.3008 C   0  0  0  0  0  0  0  0  0  0  0  0
    9.3854  -14.5406   19.6059 C   0  0  0  0  0  0  0  0  0  0  0  0
    8.8812  -15.1282   18.4683 C   0  0  0  0  0  0  0  0  0  0  0  0
    7.7535  -14.5200   18.1294 N   0  0  0  0  0  0  0  0  0  0  0  0
    7.5169  -13.5497   19.0252 C   0  0  0  0  0  0  0  0  0  0  0  0
    8.5173  -13.5732   19.9179 N   0  0  0  0  0  0  0  0  0  0  0  0
   11.7886  -16.5716   21.7040 C   0  0  0  0  0  0  0  0  0  0  0  0
   12.5910  -16.8762   20.7864 O   0  0  0  0  0  0  0  0  0  0  0  0
   12.0770  -16.5999   23.0691 N   0  0  0  0  0  0  0  0  0  0  0  0
   11.1385  -16.1013   24.1043 C   0  0  0  0  0  0  0  0  0  0  0  0
   11.1830  -17.2345   25.0917 C   0  0  0  0  0  0  0  0  0  0  0  0
   12.5013  -17.9409   24.8633 C   0  0  0  0  0  0  0  0  0  0  0  0
   13.1935  -16.9802   23.8621 C   0  0  1  0  0  0  0  0  0  0  0  0
   14.3364  -17.6028   23.2490 C   0  0  0  0  0  0  0  0  0  0  0  0
   15.4403  -16.7833   22.9350 O   0  0  0  0  0  0  0  0  0  0  0  0
   14.4547  -18.7957   22.9644 O   0  0  0  0  0  0  0  0  0  0  0  0
  2 13  1  0
  2  1  1  1
  3  2  1  0
  4  3  1  0
  4  5  2  0
  6  5  1  0
  7 12  2  0
  7  6  1  0
  8  7  1  0
  9 10  1  0
  9  8  2  0
 10 11  2  0
 11 12  1  0
 12  4  1  0
 13 14  2  0
 15 16  1  0
 15 13  1  0
 16 17  1  6
 18 17  1  0
 19 18  2  0
 20 21  1  0
 20 19  1  0
 21 22  2  0
 22 18  1  0
 23 16  1  0
 24 23  2  0
 25 23  1  0
 25 29  1  0
 26 25  1  0
 27 26  1  0
 27 28  1  0
 28 29  1  0
 29 30  1  6
 30 31  1  0
 32 30  2  0
M  END
$$$$
