WHP.pdb
     RDKit          3D

 32 35  0  0  1  0  0  0  0  0999 V2000
    6.0699  -17.6506   23.7164 N   0  0  0  0  0  0  0  0  0  0  0  0
    6.9812  -16.5408   23.6267 C   0  0  1  0  0  0  0  0  0  0  0  0
    7.5419  -16.2603   24.9871 C   0  0  0  0  0  0  0  0  0  0  0  0
    6.7768  -15.2131   25.7106 C   0  0  0  0  0  0  0  0  0  0  0  0
    5.5597  -15.3085   26.3269 C   0  0  0  0  0  0  0  0  0  0  0  0
    5.2440  -14.1252   26.8537 N   0  0  0  0  0  0  0  0  0  0  0  0
    6.2449  -13.2727   26.5819 C   0  0  0  0  0  0  0  0  0  0  0  0
    6.4491  -11.9289   26.8814 C   0  0  0  0  0  0  0  0  0  0  0  0
    7.5826  -11.2841   26.4760 C   0  0  0  0  0  0  0  0  0  0  0  0
    8.5380  -11.9529   25.7663 C   0  0  0  0  0  0  0  0  0  0  0  0
    8.3616  -13.2898   25.4542 C   0  0  0  0  0  0  0  0  0  0  0  0
    7.2138  -13.9219   25.8710 C   0  0  0  0  0  0  0  0  0  0  0  0
    8.0897  -16.7930   22.6706 C   0  0  0  0  0  0  0  0  0  0  0  0
    8.1247  -17.9184   22.1063 O   0  0  0  0  0  0  0  0  0  0  0  0
    9.0864  -15.8561   22.3673 N   0  0  0  0  0  0  0  0  0  0  0  0
   10.0846  -16.1331   21.3490 C   0  0  1  0  0  0  0  0  0  0  0  0
   10.3467  -14.8615   20.5527 C   0  0  0  0  0  0  0  0  0  0  0  0
    9.2023  -14.5101   19.6819 C   0  0  0  0  0  0  0  0  0  0  0  0
    8.9087  -15.0897   18.4688 C   0  0  0  0  0  0  0  0  0  0  0  0
    7.8164  -14.5268   17.9724 N   0  0  0  0  0  0  0  0  0  0  0  0
    7.3962  -13.5937   18.8400 C   0  0  0  0  0  0  0  0  0  0  0  0
    8.2483  -13.5940   19.8755 N   0  0  0  0  0  0  0  0  0  0  0  0
   11.3965  -16.5505   21.9797 C   0  0  0  0  0  0  0  0  0  0  0  0
   11.9401  -15.6304   22.6403 O   0  0  0  0  0  0  0  0  0  0  0  0
   11.9105  -17.8377   21.8167 N   0  0  0  0  0  0  0  0  0  0  0  0
   11.0842  -18.9887   21.3770 C   0  0  0  0  0  0  0  0  0  0  0  0
   11.9716  -19.5823   20.3182 C   0  0  0  0  0  0  0  0  0  0  0  0
   13.3781  -19.1307   20.6454 C   0  0  0  0  0  0  0  0  0  0  0  0
   13.1702  -18.4609   22.0284 C   0  0  1  0  0  0  0  0  0  0  0  0
   14.3134  -17.6710   22.4012 C   0  0  0  0  0  0  0  0  0  0  0  0
   15.3301  -18.3003   23.1490 O   0  0  0  0  0  0  0  0  0  0  0  0
   14.5012  -16.4835   22.1320 O   0  0  0  0  0  0  0  0  0  0  0  0
  2 13  1  0
  2  1  1  1
  3  2  1  0
  4  3  1  0
  4  5  2  0
  6  5  1  0
  7 12  2  0
  7  6  1  0
  8  7  1  0
  9 10  1  0
  9  8  2  0
 10 11  2  0
 11 12  1  0
 12  4  1  0
 13 14  2  0
 15 16  1  0
 15 13  1  0
 16 17  1  1
 18 17  1  0
 19 18  2  0
 20 21  1  0
 20 19  1  0
 21 22  2  0
 22 18  1  0
 23 16  1  0
 24 23  2  0
 25 23  1  0
 25 29  1  0
 26 25  1  0
 27 26  1  0
 27 28  1  0
 28 29  1  0
 29 30  1  6
 30 31  1  0
 32 30  2  0
M  END
$$$$
