WHP.pdb
     RDKit          3D

 32 35  0  0  1  0  0  0  0  0999 V2000
   12.0224  -16.9338   21.5166 N   0  0  0  0  0  0  0  0  0  0  0  0
   10.7721  -16.2263   21.4373 C   0  0  1  0  0  0  0  0  0  0  0  0
    9.7246  -17.1485   20.8934 C   0  0  0  0  0  0  0  0  0  0  0  0
    8.4632  -16.4392   20.5593 C   0  0  0  0  0  0  0  0  0  0  0  0
    7.1866  -16.9278   20.5188 C   0  0  0  0  0  0  0  0  0  0  0  0
    6.3548  -15.9455   20.1716 N   0  0  0  0  0  0  0  0  0  0  0  0
    7.0840  -14.8331   19.9892 C   0  0  0  0  0  0  0  0  0  0  0  0
    6.7481  -13.5321   19.6257 C   0  0  0  0  0  0  0  0  0  0  0  0
    7.7069  -12.5669   19.5082 C   0  0  0  0  0  0  0  0  0  0  0  0
    9.0173  -12.8661   19.7472 C   0  0  0  0  0  0  0  0  0  0  0  0
    9.3802  -14.1514   20.1103 C   0  0  0  0  0  0  0  0  0  0  0  0
    8.4007  -15.1099   20.2235 C   0  0  0  0  0  0  0  0  0  0  0  0
   10.3364  -15.6953   22.7546 C   0  0  0  0  0  0  0  0  0  0  0  0
   11.2272  -15.4902   23.6210 O   0  0  0  0  0  0  0  0  0  0  0  0
    9.0029  -15.4142   23.0798 N   0  0  0  0  0  0  0  0  0  0  0  0
    8.6602  -14.7905   24.3461 C   0  0  1  0  0  0  0  0  0  0  0  0
    7.1505  -14.6009   24.4129 C   0  0  0  0  0  0  0  0  0  0  0  0
    6.7424  -13.8422   25.6168 C   0  0  0  0  0  0  0  0  0  0  0  0
    6.4443  -12.4993   25.6568 C   0  0  0  0  0  0  0  0  0  0  0  0
    6.1208  -12.1638   26.8974 N   0  0  0  0  0  0  0  0  0  0  0  0
    6.2034  -13.2629   27.6624 C   0  0  0  0  0  0  0  0  0  0  0  0
    6.5825  -14.2768   26.8707 N   0  0  0  0  0  0  0  0  0  0  0  0
    9.0567  -15.6769   25.5082 C   0  0  0  0  0  0  0  0  0  0  0  0
    8.6602  -16.8622   25.3812 O   0  0  0  0  0  0  0  0  0  0  0  0
    9.7889  -15.1834   26.5889 N   0  0  0  0  0  0  0  0  0  0  0  0
   10.3108  -13.7958   26.6460 C   0  0  0  0  0  0  0  0  0  0  0  0
    9.8944  -13.3968   28.0346 C   0  0  0  0  0  0  0  0  0  0  0  0
    9.7343  -14.6845   28.8128 C   0  0  0  0  0  0  0  0  0  0  0  0
   10.2912  -15.7224   27.8043 C   0  0  1  0  0  0  0  0  0  0  0  0
    9.9487  -17.0638   28.1956 C   0  0  0  0  0  0  0  0  0  0  0  0
   10.6832  -18.1224   27.6222 O   0  0  0  0  0  0  0  0  0  0  0  0
    9.0670  -17.3910   28.9916 O   0  0  0  0  0  0  0  0  0  0  0  0
  2 13  1  0
  2  1  1  1
  3  2  1  0
  4  3  1  0
  4  5  2  0
  6  5  1  0
  7 12  2  0
  7  6  1  0
  8  7  1  0
  9 10  1  0
  9  8  2  0
 10 11  2  0
 11 12  1  0
 12  4  1  0
 13 14  2  0
 15 16  1  0
 15 13  1  0
 16 17  1  6
 18 17  1  0
 19 18  2  0
 20 21  1  0
 20 19  1  0
 21 22  2  0
 22 18  1  0
 23 16  1  0
 24 23  2  0
 25 23  1  0
 25 29  1  0
 26 25  1  0
 27 26  1  0
 27 28  1  0
 28 29  1  0
 29 30  1  1
 30 31  1  0
 32 30  2  0
M  END
$$$$
