WHP.pdb
     RDKit          3D

 32 35  0  0  1  0  0  0  0  0999 V2000
    5.8039  -17.6277   23.7821 N   0  0  0  0  0  0  0  0  0  0  0  0
    6.7137  -16.5135   23.7481 C   0  0  1  0  0  0  0  0  0  0  0  0
    7.2155  -16.2524   25.1350 C   0  0  0  0  0  0  0  0  0  0  0  0
    6.4917  -15.1385   25.7992 C   0  0  0  0  0  0  0  0  0  0  0  0
    5.2273  -15.1239   26.3199 C   0  0  0  0  0  0  0  0  0  0  0  0
    4.9769  -13.9148   26.8227 N   0  0  0  0  0  0  0  0  0  0  0  0
    6.0665  -13.1545   26.6299 C   0  0  0  0  0  0  0  0  0  0  0  0
    6.3641  -11.8321   26.9463 C   0  0  0  0  0  0  0  0  0  0  0  0
    7.5773  -11.2910   26.6302 C   0  0  0  0  0  0  0  0  0  0  0  0
    8.5222  -12.0445   25.9951 C   0  0  0  0  0  0  0  0  0  0  0  0
    8.2538  -13.3624   25.6683 C   0  0  0  0  0  0  0  0  0  0  0  0
    7.0265  -13.8896   25.9947 C   0  0  0  0  0  0  0  0  0  0  0  0
    7.8625  -16.7471   22.8358 C   0  0  0  0  0  0  0  0  0  0  0  0
    8.0316  -17.9179   22.4035 O   0  0  0  0  0  0  0  0  0  0  0  0
    8.7571  -15.7456   22.4359 N   0  0  0  0  0  0  0  0  0  0  0  0
    9.7988  -16.0222   21.4620 C   0  0  1  0  0  0  0  0  0  0  0  0
   10.1651  -14.7284   20.7469 C   0  0  0  0  0  0  0  0  0  0  0  0
    9.0913  -14.2808   19.8314 C   0  0  0  0  0  0  0  0  0  0  0  0
    9.1274  -14.3487   18.4575 C   0  0  0  0  0  0  0  0  0  0  0  0
    7.9968  -13.8589   17.9693 N   0  0  0  0  0  0  0  0  0  0  0  0
    7.2286  -13.4749   19.0000 C   0  0  0  0  0  0  0  0  0  0  0  0
    7.9065  -13.7372   20.1270 N   0  0  0  0  0  0  0  0  0  0  0  0
   11.0512  -16.5331   22.1430 C   0  0  0  0  0  0  0  0  0  0  0  0
   11.4633  -15.7706   23.0524 O   0  0  0  0  0  0  0  0  0  0  0  0
   11.6517  -17.7349   21.7651 N   0  0  0  0  0  0  0  0  0  0  0  0
   10.9229  -18.8151   21.0559 C   0  0  0  0  0  0  0  0  0  0  0  0
   11.9010  -19.1412   19.9615 C   0  0  0  0  0  0  0  0  0  0  0  0
   13.2573  -18.6943   20.4616 C   0  0  0  0  0  0  0  0  0  0  0  0
   12.9341  -18.3243   21.9323 C   0  0  1  0  0  0  0  0  0  0  0  0
   14.0046  -17.5684   22.5261 C   0  0  0  0  0  0  0  0  0  0  0  0
   14.3067  -16.3090   21.9679 O   0  0  0  0  0  0  0  0  0  0  0  0
   14.6967  -17.9107   23.4861 O   0  0  0  0  0  0  0  0  0  0  0  0
  2 13  1  0
  2  1  1  1
  3  2  1  0
  4  3  1  0
  4  5  2  0
  6  5  1  0
  7 12  2  0
  7  6  1  0
  8  7  1  0
  9 10  1  0
  9  8  2  0
 10 11  2  0
 11 12  1  0
 12  4  1  0
 13 14  2  0
 15 16  1  0
 15 13  1  0
 16 17  1  1
 18 17  1  0
 19 18  2  0
 20 21  1  0
 20 19  1  0
 21 22  2  0
 22 18  1  0
 23 16  1  0
 24 23  2  0
 25 23  1  0
 25 29  1  0
 26 25  1  0
 27 26  1  0
 27 28  1  0
 28 29  1  0
 29 30  1  6
 30 31  1  0
 32 30  2  0
M  END
$$$$
