WHP.pdb
     RDKit          3D

 32 35  0  0  1  0  0  0  0  0999 V2000
    7.0744  -18.2609   21.6787 N   0  0  0  0  0  0  0  0  0  0  0  0
    7.3843  -17.0172   22.3324 C   0  0  1  0  0  0  0  0  0  0  0  0
    6.4844  -15.9473   21.7947 C   0  0  0  0  0  0  0  0  0  0  0  0
    7.0563  -14.5873   21.9649 C   0  0  0  0  0  0  0  0  0  0  0  0
    7.8431  -13.8714   21.1055 C   0  0  0  0  0  0  0  0  0  0  0  0
    8.1314  -12.6927   21.6577 N   0  0  0  0  0  0  0  0  0  0  0  0
    7.5382  -12.6452   22.8611 C   0  0  0  0  0  0  0  0  0  0  0  0
    7.4988  -11.6741   23.8575 C   0  0  0  0  0  0  0  0  0  0  0  0
    6.8049  -11.8840   25.0147 C   0  0  0  0  0  0  0  0  0  0  0  0
    6.1354  -13.0573   25.2122 C   0  0  0  0  0  0  0  0  0  0  0  0
    6.1571  -14.0408   24.2386 C   0  0  0  0  0  0  0  0  0  0  0  0
    6.8613  -13.8111   23.0800 C   0  0  0  0  0  0  0  0  0  0  0  0
    7.2369  -17.1001   23.8083 C   0  0  0  0  0  0  0  0  0  0  0  0
    6.0729  -17.0122   24.2812 O   0  0  0  0  0  0  0  0  0  0  0  0
    8.3118  -17.2688   24.6911 N   0  0  0  0  0  0  0  0  0  0  0  0
    8.2295  -16.8002   26.0637 C   0  0  1  0  0  0  0  0  0  0  0  0
    7.2369  -17.6686   26.8254 C   0  0  0  0  0  0  0  0  0  0  0  0
    7.5549  -19.1090   26.7008 C   0  0  0  0  0  0  0  0  0  0  0  0
    8.1349  -19.7117   25.6081 C   0  0  0  0  0  0  0  0  0  0  0  0
    8.2691  -21.0081   25.8483 N   0  0  0  0  0  0  0  0  0  0  0  0
    7.7875  -21.2575   27.0754 C   0  0  0  0  0  0  0  0  0  0  0  0
    7.3562  -20.0935   27.5829 N   0  0  0  0  0  0  0  0  0  0  0  0
    9.5690  -16.9285   26.7582 C   0  0  0  0  0  0  0  0  0  0  0  0
   10.0558  -18.0840   26.6796 O   0  0  0  0  0  0  0  0  0  0  0  0
   10.1642  -15.8456   27.4067 N   0  0  0  0  0  0  0  0  0  0  0  0
   10.0917  -14.4558   26.8927 C   0  0  0  0  0  0  0  0  0  0  0  0
    9.7161  -13.7132   28.1451 C   0  0  0  0  0  0  0  0  0  0  0  0
   10.1753  -14.5758   29.3002 C   0  0  0  0  0  0  0  0  0  0  0  0
   10.9781  -15.6765   28.5596 C   0  0  1  0  0  0  0  0  0  0  0  0
   11.2476  -16.7946   29.4239 C   0  0  0  0  0  0  0  0  0  0  0  0
   12.5366  -16.8926   29.9874 O   0  0  0  0  0  0  0  0  0  0  0  0
   10.4584  -17.6903   29.7287 O   0  0  0  0  0  0  0  0  0  0  0  0
  2 13  1  0
  2  1  1  6
  3  2  1  0
  4  3  1  0
  4  5  2  0
  6  5  1  0
  7 12  2  0
  7  6  1  0
  8  7  1  0
  9 10  1  0
  9  8  2  0
 10 11  2  0
 11 12  1  0
 12  4  1  0
 13 14  2  0
 15 16  1  0
 15 13  1  0
 16 17  1  1
 18 17  1  0
 19 18  2  0
 20 21  1  0
 20 19  1  0
 21 22  2  0
 22 18  1  0
 23 16  1  0
 24 23  2  0
 25 23  1  0
 25 29  1  0
 26 25  1  0
 27 26  1  0
 27 28  1  0
 28 29  1  0
 29 30  1  1
 30 31  1  0
 32 30  2  0
M  END
$$$$
