WHP.pdb
     RDKit          3D

 32 35  0  0  1  0  0  0  0  0999 V2000
    6.1581  -18.6328   25.1330 N   0  0  0  0  0  0  0  0  0  0  0  0
    6.3156  -17.2324   24.8427 C   0  0  1  0  0  0  0  0  0  0  0  0
    7.0914  -16.5897   25.9512 C   0  0  0  0  0  0  0  0  0  0  0  0
    6.5602  -15.2508   26.3125 C   0  0  0  0  0  0  0  0  0  0  0  0
    5.2725  -14.8823   26.5888 C   0  0  0  0  0  0  0  0  0  0  0  0
    5.2420  -13.5785   26.8654 N   0  0  0  0  0  0  0  0  0  0  0  0
    6.4955  -13.1074   26.7693 C   0  0  0  0  0  0  0  0  0  0  0  0
    7.0453  -11.8412   26.9478 C   0  0  0  0  0  0  0  0  0  0  0  0
    8.3842  -11.6283   26.7844 C   0  0  0  0  0  0  0  0  0  0  0  0
    9.2082  -12.6614   26.4413 C   0  0  0  0  0  0  0  0  0  0  0  0
    8.6890  -13.9311   26.2574 C   0  0  0  0  0  0  0  0  0  0  0  0
    7.3383  -14.1259   26.4264 C   0  0  0  0  0  0  0  0  0  0  0  0
    7.0036  -16.9956   23.5476 C   0  0  0  0  0  0  0  0  0  0  0  0
    7.6884  -17.9401   23.0729 O   0  0  0  0  0  0  0  0  0  0  0  0
    6.9318  -15.7913   22.8350 N   0  0  0  0  0  0  0  0  0  0  0  0
    7.6054  -15.6403   21.5569 C   0  0  1  0  0  0  0  0  0  0  0  0
    7.2017  -14.3085   20.9380 C   0  0  0  0  0  0  0  0  0  0  0  0
    7.8441  -14.0945   19.6216 C   0  0  0  0  0  0  0  0  0  0  0  0
    8.7043  -13.0680   19.3053 C   0  0  0  0  0  0  0  0  0  0  0  0
    9.0816  -13.1925   18.0409 N   0  0  0  0  0  0  0  0  0  0  0  0
    8.4828  -14.2797   17.5315 C   0  0  0  0  0  0  0  0  0  0  0  0
    7.7329  -14.8190   18.5038 N   0  0  0  0  0  0  0  0  0  0  0  0
    9.1085  -15.6175   21.7392 C   0  0  0  0  0  0  0  0  0  0  0  0
    9.4863  -14.7965   22.6120 O   0  0  0  0  0  0  0  0  0  0  0  0
    9.9494  -16.4429   20.9914 N   0  0  0  0  0  0  0  0  0  0  0  0
    9.4590  -17.6128   20.2222 C   0  0  0  0  0  0  0  0  0  0  0  0
   10.1585  -17.3976   18.9087 C   0  0  0  0  0  0  0  0  0  0  0  0
   11.3706  -16.5442   19.2116 C   0  0  0  0  0  0  0  0  0  0  0  0
   11.3498  -16.5229   20.7620 C   0  0  1  0  0  0  0  0  0  0  0  0
   12.2259  -15.5063   21.2803 C   0  0  0  0  0  0  0  0  0  0  0  0
   13.6118  -15.6675   21.0748 O   0  0  0  0  0  0  0  0  0  0  0  0
   11.8881  -14.4933   21.8948 O   0  0  0  0  0  0  0  0  0  0  0  0
  2 13  1  0
  2  1  1  1
  3  2  1  0
  4  3  1  0
  4  5  2  0
  6  5  1  0
  7 12  2  0
  7  6  1  0
  8  7  1  0
  9 10  1  0
  9  8  2  0
 10 11  2  0
 11 12  1  0
 12  4  1  0
 13 14  2  0
 15 16  1  0
 15 13  1  0
 16 17  1  1
 18 17  1  0
 19 18  2  0
 20 21  1  0
 20 19  1  0
 21 22  2  0
 22 18  1  0
 23 16  1  0
 24 23  2  0
 25 23  1  0
 25 29  1  0
 26 25  1  0
 27 26  1  0
 27 28  1  0
 28 29  1  0
 29 30  1  6
 30 31  1  0
 32 30  2  0
M  END
$$$$
