WHP.pdb
     RDKit          3D

 32 35  0  0  1  0  0  0  0  0999 V2000
    6.2464  -17.4605   23.7128 N   0  0  0  0  0  0  0  0  0  0  0  0
    7.1631  -16.3780   23.4719 C   0  0  1  0  0  0  0  0  0  0  0  0
    7.8272  -16.0062   24.7620 C   0  0  0  0  0  0  0  0  0  0  0  0
    6.9426  -15.2025   25.6436 C   0  0  0  0  0  0  0  0  0  0  0  0
    5.8578  -15.6061   26.3718 C   0  0  0  0  0  0  0  0  0  0  0  0
    5.3554  -14.5570   27.0234 N   0  0  0  0  0  0  0  0  0  0  0  0
    6.1061  -13.4858   26.7208 C   0  0  0  0  0  0  0  0  0  0  0  0
    6.0453  -12.1499   27.1068 C   0  0  0  0  0  0  0  0  0  0  0  0
    6.9539  -11.2431   26.6411 C   0  0  0  0  0  0  0  0  0  0  0  0
    7.9416  -11.6365   25.7847 C   0  0  0  0  0  0  0  0  0  0  0  0
    8.0263  -12.9586   25.3840 C   0  0  0  0  0  0  0  0  0  0  0  0
    7.1023  -13.8571   25.8634 C   0  0  0  0  0  0  0  0  0  0  0  0
    8.1941  -16.7227   22.4594 C   0  0  0  0  0  0  0  0  0  0  0  0
    8.4335  -17.9443   22.2676 O   0  0  0  0  0  0  0  0  0  0  0  0
    8.9055  -15.7719   21.7158 N   0  0  0  0  0  0  0  0  0  0  0  0
    9.8930  -16.1817   20.7324 C   0  0  1  0  0  0  0  0  0  0  0  0
   10.3027  -14.9695   19.9064 C   0  0  0  0  0  0  0  0  0  0  0  0
    9.1998  -14.4928   19.0416 C   0  0  0  0  0  0  0  0  0  0  0  0
    8.8819  -14.9899   17.7984 C   0  0  0  0  0  0  0  0  0  0  0  0
    7.8411  -14.3244   17.3186 N   0  0  0  0  0  0  0  0  0  0  0  0
    7.4780  -13.4057   18.2265 C   0  0  0  0  0  0  0  0  0  0  0  0
    8.3129  -13.5190   19.2698 N   0  0  0  0  0  0  0  0  0  0  0  0
   11.1402  -16.7106   21.4091 C   0  0  0  0  0  0  0  0  0  0  0  0
   11.6081  -15.9204   22.2665 O   0  0  0  0  0  0  0  0  0  0  0  0
   11.6791  -17.9555   21.0813 N   0  0  0  0  0  0  0  0  0  0  0  0
   10.8552  -19.0928   20.6033 C   0  0  0  0  0  0  0  0  0  0  0  0
   11.6664  -19.5496   19.4225 C   0  0  0  0  0  0  0  0  0  0  0  0
   13.0808  -19.0745   19.6738 C   0  0  0  0  0  0  0  0  0  0  0  0
   12.9717  -18.5449   21.1272 C   0  0  1  0  0  0  0  0  0  0  0  0
   14.1169  -17.7480   21.4780 C   0  0  0  0  0  0  0  0  0  0  0  0
   14.2289  -16.4683   20.8960 O   0  0  0  0  0  0  0  0  0  0  0  0
   15.0251  -18.0706   22.2455 O   0  0  0  0  0  0  0  0  0  0  0  0
  2 13  1  0
  2  1  1  1
  3  2  1  0
  4  3  1  0
  4  5  2  0
  6  5  1  0
  7 12  2  0
  7  6  1  0
  8  7  1  0
  9 10  1  0
  9  8  2  0
 10 11  2  0
 11 12  1  0
 12  4  1  0
 13 14  2  0
 15 16  1  0
 15 13  1  0
 16 17  1  1
 18 17  1  0
 19 18  2  0
 20 21  1  0
 20 19  1  0
 21 22  2  0
 22 18  1  0
 23 16  1  0
 24 23  2  0
 25 23  1  0
 25 29  1  0
 26 25  1  0
 27 26  1  0
 27 28  1  0
 28 29  1  0
 29 30  1  6
 30 31  1  0
 32 30  2  0
M  END
$$$$
