MAP.pdb
     RDKit          3D

 21 21  0  0  1  0  0  0  0  0999 V2000
    9.7019  -12.0584   19.8134 C   0  0  0  0  0  0  0  0  0  0  0  0
    8.0028  -12.3743   19.3964 S   0  0  0  0  0  0  0  0  0  0  0  0
    7.2577  -13.8297   20.0535 C   0  0  0  0  0  0  0  0  0  0  0  0
    8.0891  -15.0329   20.3244 C   0  0  0  0  0  0  0  0  0  0  0  0
    7.3796  -16.1997   20.8875 C   0  0  2  0  0  0  0  0  0  0  0  0
    6.1505  -16.4322   20.1708 N   0  0  0  0  0  0  0  0  0  0  0  0
    7.0179  -16.0004   22.3303 C   0  0  0  0  0  0  0  0  0  0  0  0
    5.9696  -15.3807   22.6096 O   0  0  0  0  0  0  0  0  0  0  0  0
    6.9549  -17.5185   25.3696 C   0  0  0  0  0  0  0  0  0  0  0  0
    7.5341  -16.2299   24.7865 C   0  0  2  0  0  0  0  0  0  0  0  0
    7.8085  -16.4813   23.3951 N   0  0  0  0  0  0  0  0  0  0  0  0
    8.7706  -15.9331   25.5511 C   0  0  0  0  0  0  0  0  0  0  0  0
    9.7831  -16.6291   25.3075 O   0  0  0  0  0  0  0  0  0  0  0  0
    8.7864  -14.8993   26.5148 N   0  0  0  0  0  0  0  0  0  0  0  0
    7.7001  -13.9678   26.7782 C   0  0  0  0  0  0  0  0  0  0  0  0
    8.3189  -12.8516   27.6046 C   0  0  0  0  0  0  0  0  0  0  0  0
    9.3258  -13.6243   28.4183 C   0  0  0  0  0  0  0  0  0  0  0  0
    9.8811  -14.5943   27.3966 C   0  0  1  0  0  0  0  0  0  0  0  0
   10.3679  -15.7772   28.1382 C   0  0  0  0  0  0  0  0  0  0  0  0
    9.6043  -16.7657   28.2376 O   0  0  0  0  0  0  0  0  0  0  0  0
   11.6162  -15.8539   28.7271 O   0  0  0  0  0  0  0  0  0  0  0  0
  2  1  1  0
  3  2  1  0
  4  5  1  0
  4  3  1  0
  5  6  1  6
  7  5  1  0
  8  7  2  0
 10  9  1  1
 10 12  1  0
 10 11  1  0
 11  7  1  0
 12 14  1  0
 13 12  2  0
 14 18  1  0
 14 15  1  0
 15 16  1  0
 17 16  1  0
 18 17  1  0
 19 21  1  0
 18 19  1  1
 20 19  2  0
M  END
$$$$
