MAP.pdb
     RDKit          3D

 21 21  0  0  1  0  0  0  0  0999 V2000
    8.4493  -11.4342   27.2929 C   0  0  0  0  0  0  0  0  0  0  0  0
    6.6948  -11.6863   27.4295 S   0  0  0  0  0  0  0  0  0  0  0  0
    6.0185  -13.1371   26.6927 C   0  0  0  0  0  0  0  0  0  0  0  0
    6.8443  -13.9523   25.7622 C   0  0  0  0  0  0  0  0  0  0  0  0
    6.1451  -15.0513   25.0657 C   0  0  2  0  0  0  0  0  0  0  0  0
    5.8049  -16.0980   25.9968 N   0  0  0  0  0  0  0  0  0  0  0  0
    6.9926  -15.6724   23.9941 C   0  0  0  0  0  0  0  0  0  0  0  0
    7.5702  -16.7542   24.2329 O   0  0  0  0  0  0  0  0  0  0  0  0
    8.0542  -14.6290   20.5510 C   0  0  0  0  0  0  0  0  0  0  0  0
    7.9846  -15.6598   21.6773 C   0  0  2  0  0  0  0  0  0  0  0  0
    7.1711  -15.0914   22.7211 N   0  0  0  0  0  0  0  0  0  0  0  0
    9.3788  -15.8961   22.1268 C   0  0  0  0  0  0  0  0  0  0  0  0
    9.9097  -15.0223   22.8505 O   0  0  0  0  0  0  0  0  0  0  0  0
   10.0664  -17.0696   21.7427 N   0  0  0  0  0  0  0  0  0  0  0  0
    9.5000  -18.1763   20.9866 C   0  0  0  0  0  0  0  0  0  0  0  0
   10.4871  -19.3213   21.1491 C   0  0  0  0  0  0  0  0  0  0  0  0
   11.7930  -18.5687   21.1844 C   0  0  0  0  0  0  0  0  0  0  0  0
   11.4427  -17.3668   22.0364 C   0  0  1  0  0  0  0  0  0  0  0  0
   12.3614  -16.2751   21.6487 C   0  0  0  0  0  0  0  0  0  0  0  0
   11.9631  -15.4429   20.8009 O   0  0  0  0  0  0  0  0  0  0  0  0
   13.6332  -16.1209   22.1682 O   0  0  0  0  0  0  0  0  0  0  0  0
  2  1  1  0
  3  2  1  0
  4  5  1  0
  4  3  1  0
  5  6  1  1
  7  5  1  0
  8  7  2  0
 10  9  1  6
 10 12  1  0
 10 11  1  0
 11  7  1  0
 12 14  1  0
 13 12  2  0
 14 18  1  0
 14 15  1  0
 15 16  1  0
 17 16  1  0
 18 17  1  0
 19 21  1  0
 18 19  1  6
 20 19  2  0
M  END
$$$$
