MAP.pdb
     RDKit          3D

 21 21  0  0  1  0  0  0  0  0999 V2000
    5.7063  -12.5372   27.9479 C   0  0  0  0  0  0  0  0  0  0  0  0
    7.2688  -13.1833   27.3988 S   0  0  0  0  0  0  0  0  0  0  0  0
    7.3886  -14.9226   27.1427 C   0  0  0  0  0  0  0  0  0  0  0  0
    6.3393  -15.6334   26.3642 C   0  0  0  0  0  0  0  0  0  0  0  0
    6.8021  -16.3670   25.1687 C   0  0  2  0  0  0  0  0  0  0  0  0
    7.8712  -17.2692   25.5174 N   0  0  0  0  0  0  0  0  0  0  0  0
    7.3306  -15.4458   24.1083 C   0  0  0  0  0  0  0  0  0  0  0  0
    6.5931  -14.5328   23.6799 O   0  0  0  0  0  0  0  0  0  0  0  0
   10.6589  -14.9182   22.4866 C   0  0  0  0  0  0  0  0  0  0  0  0
    9.1429  -14.7258   22.5117 C   0  0  2  0  0  0  0  0  0  0  0  0
    8.6283  -15.5601   23.5669 N   0  0  0  0  0  0  0  0  0  0  0  0
    8.6376  -15.1407   21.1798 C   0  0  0  0  0  0  0  0  0  0  0  0
    8.4250  -16.3613   20.9956 O   0  0  0  0  0  0  0  0  0  0  0  0
    8.4104  -14.1798   20.1685 N   0  0  0  0  0  0  0  0  0  0  0  0
    8.4428  -12.7361   20.3466 C   0  0  0  0  0  0  0  0  0  0  0  0
    7.7859  -12.1623   19.1012 C   0  0  0  0  0  0  0  0  0  0  0  0
    8.2403  -13.1515   18.0581 C   0  0  0  0  0  0  0  0  0  0  0  0
    8.1077  -14.4692   18.7924 C   0  0  1  0  0  0  0  0  0  0  0  0
    9.0696  -15.4092   18.1782 C   0  0  0  0  0  0  0  0  0  0  0  0
    8.6597  -16.1540   17.2577 O   0  0  0  0  0  0  0  0  0  0  0  0
   10.3937  -15.5125   18.5616 O   0  0  0  0  0  0  0  0  0  0  0  0
  2  1  1  0
  3  2  1  0
  4  5  1  0
  4  3  1  0
  5  6  1  1
  7  5  1  0
  8  7  2  0
 10  9  1  6
 10 12  1  0
 10 11  1  0
 11  7  1  0
 12 14  1  0
 13 12  2  0
 14 18  1  0
 14 15  1  0
 15 16  1  0
 17 16  1  0
 18 17  1  0
 19 21  1  0
 18 19  1  6
 20 19  2  0
M  END
$$$$
