MAP.pdb
     RDKit          3D

 21 21  0  0  1  0  0  0  0  0999 V2000
    9.0929  -11.7310   19.4860 C   0  0  0  0  0  0  0  0  0  0  0  0
    7.9600  -12.7325   18.5511 S   0  0  0  0  0  0  0  0  0  0  0  0
    7.4022  -14.2350   19.2837 C   0  0  0  0  0  0  0  0  0  0  0  0
    7.7963  -14.5735   20.6773 C   0  0  0  0  0  0  0  0  0  0  0  0
    7.3351  -15.8823   21.1834 C   0  0  2  0  0  0  0  0  0  0  0  0
    6.1218  -16.2790   20.5133 N   0  0  0  0  0  0  0  0  0  0  0  0
    7.0359  -15.8475   22.6535 C   0  0  0  0  0  0  0  0  0  0  0  0
    6.0393  -15.2078   23.0516 O   0  0  0  0  0  0  0  0  0  0  0  0
    7.1190  -17.7209   25.5451 C   0  0  0  0  0  0  0  0  0  0  0  0
    7.6496  -16.3798   25.0394 C   0  0  2  0  0  0  0  0  0  0  0  0
    7.8299  -16.5059   23.6160 N   0  0  0  0  0  0  0  0  0  0  0  0
    8.9337  -16.1362   25.7419 C   0  0  0  0  0  0  0  0  0  0  0  0
    9.9176  -16.8365   25.4093 O   0  0  0  0  0  0  0  0  0  0  0  0
    9.0242  -15.1462   26.7466 N   0  0  0  0  0  0  0  0  0  0  0  0
    7.9900  -14.1788   27.0806 C   0  0  0  0  0  0  0  0  0  0  0  0
    8.6827  -13.1279   27.9337 C   0  0  0  0  0  0  0  0  0  0  0  0
    9.6749  -13.9794   28.6844 C   0  0  0  0  0  0  0  0  0  0  0  0
   10.1559  -14.9290   27.6073 C   0  0  1  0  0  0  0  0  0  0  0  0
   10.6079  -16.1632   28.2845 C   0  0  0  0  0  0  0  0  0  0  0  0
    9.8293  -17.1448   28.3016 O   0  0  0  0  0  0  0  0  0  0  0  0
   11.8392  -16.2950   28.8989 O   0  0  0  0  0  0  0  0  0  0  0  0
  2  1  1  0
  3  2  1  0
  4  5  1  0
  4  3  1  0
  5  6  1  6
  7  5  1  0
  8  7  2  0
 10  9  1  1
 10 12  1  0
 10 11  1  0
 11  7  1  0
 12 14  1  0
 13 12  2  0
 14 18  1  0
 14 15  1  0
 15 16  1  0
 17 16  1  0
 18 17  1  0
 19 21  1  0
 18 19  1  1
 20 19  2  0
M  END
$$$$
