MAP.pdb
     RDKit          3D

 21 21  0  0  1  0  0  0  0  0999 V2000
    6.8091  -12.5799   26.1475 C   0  0  0  0  0  0  0  0  0  0  0  0
    7.2846  -13.2202   24.5587 S   0  0  0  0  0  0  0  0  0  0  0  0
    7.2109  -12.1237   23.1811 C   0  0  0  0  0  0  0  0  0  0  0  0
    6.9287  -12.6565   21.8214 C   0  0  0  0  0  0  0  0  0  0  0  0
    7.8709  -13.6744   21.3137 C   0  0  2  0  0  0  0  0  0  0  0  0
    7.5484  -14.0205   19.9519 N   0  0  0  0  0  0  0  0  0  0  0  0
    7.8205  -14.9423   22.1149 C   0  0  0  0  0  0  0  0  0  0  0  0
    6.7681  -15.6158   22.1132 O   0  0  0  0  0  0  0  0  0  0  0  0
   10.2093  -17.4150   22.7446 C   0  0  0  0  0  0  0  0  0  0  0  0
    9.0065  -16.7488   23.4119 C   0  0  2  0  0  0  0  0  0  0  0  0
    8.9102  -15.4156   22.8756 N   0  0  0  0  0  0  0  0  0  0  0  0
    9.2768  -16.7420   24.8708 C   0  0  0  0  0  0  0  0  0  0  0  0
   10.1608  -15.9610   25.2922 O   0  0  0  0  0  0  0  0  0  0  0  0
    8.5535  -17.5924   25.7376 N   0  0  0  0  0  0  0  0  0  0  0  0
    7.3630  -18.3507   25.3843 C   0  0  0  0  0  0  0  0  0  0  0  0
    6.7610  -18.7941   26.7082 C   0  0  0  0  0  0  0  0  0  0  0  0
    8.0072  -19.0225   27.5254 C   0  0  0  0  0  0  0  0  0  0  0  0
    8.8735  -17.8498   27.1161 C   0  0  1  0  0  0  0  0  0  0  0  0
   10.2809  -18.2582   27.3124 C   0  0  0  0  0  0  0  0  0  0  0  0
   10.7590  -18.1882   28.4685 O   0  0  0  0  0  0  0  0  0  0  0  0
   11.0979  -18.7124   26.2938 O   0  0  0  0  0  0  0  0  0  0  0  0
  2  1  1  0
  3  2  1  0
  4  5  1  0
  4  3  1  0
  5  6  1  6
  7  5  1  0
  8  7  2  0
 10  9  1  6
 10 12  1  0
 10 11  1  0
 11  7  1  0
 12 14  1  0
 13 12  2  0
 14 18  1  0
 14 15  1  0
 15 16  1  0
 17 16  1  0
 18 17  1  0
 19 21  1  0
 18 19  1  6
 20 19  2  0
M  END
$$$$
