MAP.pdb
     RDKit          3D

 21 21  0  0  1  0  0  0  0  0999 V2000
    5.9813  -12.3268   27.7554 C   0  0  0  0  0  0  0  0  0  0  0  0
    7.5921  -13.0781   27.7193 S   0  0  0  0  0  0  0  0  0  0  0  0
    7.6904  -14.7777   27.2648 C   0  0  0  0  0  0  0  0  0  0  0  0
    6.5492  -15.4277   26.5667 C   0  0  0  0  0  0  0  0  0  0  0  0
    6.8796  -16.1701   25.3332 C   0  0  2  0  0  0  0  0  0  0  0  0
    7.8950  -17.1580   25.6001 N   0  0  0  0  0  0  0  0  0  0  0  0
    7.4116  -15.2705   24.2562 C   0  0  0  0  0  0  0  0  0  0  0  0
    6.6795  -14.3595   23.8146 O   0  0  0  0  0  0  0  0  0  0  0  0
   10.6836  -14.9626   22.4479 C   0  0  0  0  0  0  0  0  0  0  0  0
    9.1926  -14.6551   22.5824 C   0  0  2  0  0  0  0  0  0  0  0  0
    8.7069  -15.4032   23.7134 N   0  0  0  0  0  0  0  0  0  0  0  0
    8.5515  -15.0859   21.3155 C   0  0  0  0  0  0  0  0  0  0  0  0
    8.2278  -16.2915   21.2112 O   0  0  0  0  0  0  0  0  0  0  0  0
    8.3226  -14.1561   20.2759 N   0  0  0  0  0  0  0  0  0  0  0  0
    8.3775  -12.7079   20.4052 C   0  0  0  0  0  0  0  0  0  0  0  0
    7.7102  -12.1666   19.1508 C   0  0  0  0  0  0  0  0  0  0  0  0
    8.1356  -13.1963   18.1350 C   0  0  0  0  0  0  0  0  0  0  0  0
    7.9957  -14.4868   18.9148 C   0  0  1  0  0  0  0  0  0  0  0  0
    8.9355  -15.4603   18.3187 C   0  0  0  0  0  0  0  0  0  0  0  0
   10.0549  -15.6073   18.8620 O   0  0  0  0  0  0  0  0  0  0  0  0
    8.6490  -16.2163   17.1973 O   0  0  0  0  0  0  0  0  0  0  0  0
  2  1  1  0
  3  2  1  0
  4  5  1  0
  4  3  1  0
  5  6  1  1
  7  5  1  0
  8  7  2  0
 10  9  1  6
 10 12  1  0
 10 11  1  0
 11  7  1  0
 12 14  1  0
 13 12  2  0
 14 18  1  0
 14 15  1  0
 15 16  1  0
 17 16  1  0
 18 17  1  0
 19 21  1  0
 18 19  1  6
 20 19  2  0
M  END
$$$$
