MAP.pdb
     RDKit          3D

 21 21  0  0  1  0  0  0  0  0999 V2000
    5.5953  -11.3558   27.2254 C   0  0  0  0  0  0  0  0  0  0  0  0
    6.9752  -12.3921   27.6525 S   0  0  0  0  0  0  0  0  0  0  0  0
    6.9880  -14.0367   27.0198 C   0  0  0  0  0  0  0  0  0  0  0  0
    6.2421  -14.3597   25.7743 C   0  0  0  0  0  0  0  0  0  0  0  0
    6.3276  -15.7594   25.3101 C   0  0  2  0  0  0  0  0  0  0  0  0
    6.6582  -16.6321   26.4089 N   0  0  0  0  0  0  0  0  0  0  0  0
    7.3880  -15.9455   24.2646 C   0  0  0  0  0  0  0  0  0  0  0  0
    8.3500  -16.7043   24.5091 O   0  0  0  0  0  0  0  0  0  0  0  0
    8.1470  -14.4526   20.9239 C   0  0  0  0  0  0  0  0  0  0  0  0
    8.2315  -15.6150   21.9127 C   0  0  2  0  0  0  0  0  0  0  0  0
    7.3527  -15.3015   23.0099 N   0  0  0  0  0  0  0  0  0  0  0  0
    9.6481  -15.7061   22.3448 C   0  0  0  0  0  0  0  0  0  0  0  0
   10.0831  -14.8040   23.0971 O   0  0  0  0  0  0  0  0  0  0  0  0
   10.4613  -16.7786   21.9133 N   0  0  0  0  0  0  0  0  0  0  0  0
    9.9996  -17.9616   21.2030 C   0  0  0  0  0  0  0  0  0  0  0  0
   11.1443  -18.9580   21.2947 C   0  0  0  0  0  0  0  0  0  0  0  0
   12.3330  -18.0327   21.2324 C   0  0  0  0  0  0  0  0  0  0  0  0
   11.8831  -16.8802   22.1056 C   0  0  1  0  0  0  0  0  0  0  0  0
   12.6118  -15.6774   21.6493 C   0  0  0  0  0  0  0  0  0  0  0  0
   12.2523  -15.1429   20.5746 O   0  0  0  0  0  0  0  0  0  0  0  0
   13.6660  -15.1099   22.3407 O   0  0  0  0  0  0  0  0  0  0  0  0
  2  1  1  0
  3  2  1  0
  4  5  1  0
  4  3  1  0
  5  6  1  1
  7  5  1  0
  8  7  2  0
 10  9  1  6
 10 12  1  0
 10 11  1  0
 11  7  1  0
 12 14  1  0
 13 12  2  0
 14 18  1  0
 14 15  1  0
 15 16  1  0
 17 16  1  0
 18 17  1  0
 19 21  1  0
 18 19  1  6
 20 19  2  0
M  END
$$$$
