MAP.pdb
     RDKit          3D

 21 21  0  0  1  0  0  0  0  0999 V2000
   -1.0991  -18.6830   14.8754 C   0  0  0  0  0  0  0  0  0  0  0  0
   -1.2209  -19.3699   16.5106 S   0  0  0  0  0  0  0  0  0  0  0  0
   -1.1819  -18.2509   17.8713 C   0  0  0  0  0  0  0  0  0  0  0  0
   -1.1162  -18.7740   19.2621 C   0  0  0  0  0  0  0  0  0  0  0  0
   -0.3565  -20.0268   19.4501 C   0  0  2  0  0  0  0  0  0  0  0  0
   -1.2547  -21.1210   19.7228 N   0  0  0  0  0  0  0  0  0  0  0  0
    0.5987  -19.9420   20.6044 C   0  0  0  0  0  0  0  0  0  0  0  0
    0.3848  -19.1022   21.5043 O   0  0  0  0  0  0  0  0  0  0  0  0
    2.5688  -22.1284   22.5029 C   0  0  0  0  0  0  0  0  0  0  0  0
    2.6371  -20.7493   21.8476 C   0  0  2  0  0  0  0  0  0  0  0  0
    1.7349  -20.7695   20.7251 N   0  0  0  0  0  0  0  0  0  0  0  0
    4.0448  -20.5465   21.4247 C   0  0  0  0  0  0  0  0  0  0  0  0
    4.4154  -21.0979   20.3627 O   0  0  0  0  0  0  0  0  0  0  0  0
    4.9205  -19.7570   22.2040 N   0  0  0  0  0  0  0  0  0  0  0  0
    4.5456  -18.9750   23.3723 C   0  0  0  0  0  0  0  0  0  0  0  0
    5.7172  -18.0386   23.6223 C   0  0  0  0  0  0  0  0  0  0  0  0
    6.8739  -18.9134   23.2103 C   0  0  0  0  0  0  0  0  0  0  0  0
    6.3305  -19.5939   21.9714 C   0  0  1  0  0  0  0  0  0  0  0  0
    7.0428  -20.8822   21.8338 C   0  0  0  0  0  0  0  0  0  0  0  0
    6.4924  -21.9115   22.2895 O   0  0  0  0  0  0  0  0  0  0  0  0
    8.2801  -21.0150   21.2317 O   0  0  0  0  0  0  0  0  0  0  0  0
  2  1  1  0
  3  2  1  0
  4  5  1  0
  4  3  1  0
  5  6  1  1
  7  5  1  0
  8  7  2  0
 10  9  1  6
 10 12  1  0
 10 11  1  0
 11  7  1  0
 12 14  1  0
 13 12  2  0
 14 18  1  0
 14 15  1  0
 15 16  1  0
 17 16  1  0
 18 17  1  0
 19 21  1  0
 18 19  1  1
 20 19  2  0
M  END
$$$$
