MAP.pdb
     RDKit          3D

 21 21  0  0  1  0  0  0  0  0999 V2000
    7.7227  -10.8085   26.4066 C   0  0  0  0  0  0  0  0  0  0  0  0
    6.9330  -12.2108   27.1619 S   0  0  0  0  0  0  0  0  0  0  0  0
    7.7956  -13.7471   27.1333 C   0  0  0  0  0  0  0  0  0  0  0  0
    7.8596  -14.5403   25.8767 C   0  0  0  0  0  0  0  0  0  0  0  0
    6.6082  -14.6240   25.0966 C   0  0  2  0  0  0  0  0  0  0  0  0
    5.6859  -15.5361   25.7257 N   0  0  0  0  0  0  0  0  0  0  0  0
    6.8428  -15.1262   23.7020 C   0  0  0  0  0  0  0  0  0  0  0  0
    6.6763  -16.3409   23.4619 O   0  0  0  0  0  0  0  0  0  0  0  0
    7.7743  -13.5028   20.4483 C   0  0  0  0  0  0  0  0  0  0  0  0
    7.4667  -14.7404   21.2907 C   0  0  2  0  0  0  0  0  0  0  0  0
    7.2452  -14.2888   22.6403 N   0  0  0  0  0  0  0  0  0  0  0  0
    8.6498  -15.6302   21.1905 C   0  0  0  0  0  0  0  0  0  0  0  0
    9.6120  -15.4031   21.9597 O   0  0  0  0  0  0  0  0  0  0  0  0
    8.6722  -16.6900   20.2555 N   0  0  0  0  0  0  0  0  0  0  0  0
    7.5970  -17.0353   19.3380 C   0  0  0  0  0  0  0  0  0  0  0  0
    7.9361  -18.4263   18.8264 C   0  0  0  0  0  0  0  0  0  0  0  0
    9.4412  -18.3529   18.7779 C   0  0  0  0  0  0  0  0  0  0  0  0
    9.7629  -17.6060   20.0553 C   0  0  1  0  0  0  0  0  0  0  0  0
   11.0567  -16.9215   19.8459 C   0  0  0  0  0  0  0  0  0  0  0  0
   12.1001  -17.6150   19.8652 O   0  0  0  0  0  0  0  0  0  0  0  0
   11.1798  -15.5616   19.6301 O   0  0  0  0  0  0  0  0  0  0  0  0
  2  1  1  0
  3  2  1  0
  4  5  1  0
  4  3  1  0
  5  6  1  1
  7  5  1  0
  8  7  2  0
 10  9  1  6
 10 12  1  0
 10 11  1  0
 11  7  1  0
 12 14  1  0
 13 12  2  0
 14 18  1  0
 14 15  1  0
 15 16  1  0
 17 16  1  0
 18 17  1  0
 19 21  1  0
 18 19  1  6
 20 19  2  0
M  END
$$$$
