MAP.pdb
     RDKit          3D

 21 21  0  0  1  0  0  0  0  0999 V2000
    8.5579  -11.6563   19.2010 C   0  0  0  0  0  0  0  0  0  0  0  0
    8.8286  -13.0926   18.1890 S   0  0  0  0  0  0  0  0  0  0  0  0
    8.5249  -14.6704   18.9127 C   0  0  0  0  0  0  0  0  0  0  0  0
    7.7567  -14.7704   20.1824 C   0  0  0  0  0  0  0  0  0  0  0  0
    7.5895  -16.1298   20.7354 C   0  0  2  0  0  0  0  0  0  0  0  0
    6.7090  -16.9061   19.8985 N   0  0  0  0  0  0  0  0  0  0  0  0
    6.9887  -16.1117   22.1105 C   0  0  0  0  0  0  0  0  0  0  0  0
    5.7659  -15.8858   22.2319 O   0  0  0  0  0  0  0  0  0  0  0  0
    7.1788  -17.4874   25.2986 C   0  0  0  0  0  0  0  0  0  0  0  0
    7.2480  -16.1210   24.6175 C   0  0  2  0  0  0  0  0  0  0  0  0
    7.7413  -16.3387   23.2819 N   0  0  0  0  0  0  0  0  0  0  0  0
    8.1757  -15.2888   25.4228 C   0  0  0  0  0  0  0  0  0  0  0  0
    9.3863  -15.6102   25.4273 O   0  0  0  0  0  0  0  0  0  0  0  0
    7.6928  -14.1781   26.1514 N   0  0  0  0  0  0  0  0  0  0  0  0
    6.3350  -13.6574   26.1045 C   0  0  0  0  0  0  0  0  0  0  0  0
    6.4097  -12.2807   26.7455 C   0  0  0  0  0  0  0  0  0  0  0  0
    7.4614  -12.5144   27.8003 C   0  0  0  0  0  0  0  0  0  0  0  0
    8.4647  -13.3752   27.0616 C   0  0  1  0  0  0  0  0  0  0  0  0
    9.1776  -14.1811   28.0757 C   0  0  0  0  0  0  0  0  0  0  0  0
   10.0862  -13.6266   28.7368 O   0  0  0  0  0  0  0  0  0  0  0  0
    8.8986  -15.5100   28.3351 O   0  0  0  0  0  0  0  0  0  0  0  0
  2  1  1  0
  3  2  1  0
  4  5  1  0
  4  3  1  0
  5  6  1  6
  7  5  1  0
  8  7  2  0
 10  9  1  1
 10 12  1  0
 10 11  1  0
 11  7  1  0
 12 14  1  0
 13 12  2  0
 14 18  1  0
 14 15  1  0
 15 16  1  0
 17 16  1  0
 18 17  1  0
 19 21  1  0
 18 19  1  1
 20 19  2  0
M  END
$$$$
