MAP.pdb
     RDKit          3D

 21 21  0  0  1  0  0  0  0  0999 V2000
    8.2283  -11.9199   26.5442 C   0  0  0  0  0  0  0  0  0  0  0  0
    6.9979  -12.9698   27.2819 S   0  0  0  0  0  0  0  0  0  0  0  0
    7.1921  -14.7112   27.0953 C   0  0  0  0  0  0  0  0  0  0  0  0
    6.1383  -15.5076   26.4115 C   0  0  0  0  0  0  0  0  0  0  0  0
    6.5968  -16.3906   25.3198 C   0  0  2  0  0  0  0  0  0  0  0  0
    7.6356  -17.2720   25.7914 N   0  0  0  0  0  0  0  0  0  0  0  0
    7.1650  -15.6168   24.1664 C   0  0  0  0  0  0  0  0  0  0  0  0
    6.4460  -14.7692   23.5957 O   0  0  0  0  0  0  0  0  0  0  0  0
   10.5465  -15.4311   22.5513 C   0  0  0  0  0  0  0  0  0  0  0  0
    9.0763  -15.0220   22.6349 C   0  0  2  0  0  0  0  0  0  0  0  0
    8.4803  -15.7999   23.6905 N   0  0  0  0  0  0  0  0  0  0  0  0
    8.4728  -15.3251   21.3137 C   0  0  0  0  0  0  0  0  0  0  0  0
    8.0841  -16.4984   21.1101 O   0  0  0  0  0  0  0  0  0  0  0  0
    8.3493  -14.3143   20.3335 N   0  0  0  0  0  0  0  0  0  0  0  0
    8.5284  -12.8879   20.5579 C   0  0  0  0  0  0  0  0  0  0  0  0
    7.9388  -12.2106   19.3310 C   0  0  0  0  0  0  0  0  0  0  0  0
    8.2942  -13.2074   18.2571 C   0  0  0  0  0  0  0  0  0  0  0  0
    8.0245  -14.5273   18.9486 C   0  0  1  0  0  0  0  0  0  0  0  0
    8.8878  -15.5407   18.3054 C   0  0  0  0  0  0  0  0  0  0  0  0
    9.9880  -15.8049   18.8439 O   0  0  0  0  0  0  0  0  0  0  0  0
    8.5502  -16.2122   17.1452 O   0  0  0  0  0  0  0  0  0  0  0  0
  2  1  1  0
  3  2  1  0
  4  5  1  0
  4  3  1  0
  5  6  1  1
  7  5  1  0
  8  7  2  0
 10  9  1  6
 10 12  1  0
 10 11  1  0
 11  7  1  0
 12 14  1  0
 13 12  2  0
 14 18  1  0
 14 15  1  0
 15 16  1  0
 17 16  1  0
 18 17  1  0
 19 21  1  0
 18 19  1  6
 20 19  2  0
M  END
$$$$
