MAP.pdb
     RDKit          3D

 21 21  0  0  1  0  0  0  0  0999 V2000
    5.7288  -11.7030   26.3247 C   0  0  0  0  0  0  0  0  0  0  0  0
    7.0351  -12.6200   27.1079 S   0  0  0  0  0  0  0  0  0  0  0  0
    6.7564  -14.3314   27.4224 C   0  0  0  0  0  0  0  0  0  0  0  0
    6.5063  -15.2640   26.2911 C   0  0  0  0  0  0  0  0  0  0  0  0
    7.6026  -16.1985   25.9647 C   0  0  2  0  0  0  0  0  0  0  0  0
    8.4054  -16.4566   27.1341 N   0  0  0  0  0  0  0  0  0  0  0  0
    8.5204  -15.6492   24.9121 C   0  0  0  0  0  0  0  0  0  0  0  0
    9.6463  -15.2284   25.2530 O   0  0  0  0  0  0  0  0  0  0  0  0
   10.2624  -16.0552   22.4910 C   0  0  0  0  0  0  0  0  0  0  0  0
    9.0545  -15.1189   22.5067 C   0  0  2  0  0  0  0  0  0  0  0  0
    8.1728  -15.5836   23.5464 N   0  0  0  0  0  0  0  0  0  0  0  0
    8.4268  -15.2090   21.1653 C   0  0  0  0  0  0  0  0  0  0  0  0
    7.8893  -16.2954   20.8494 O   0  0  0  0  0  0  0  0  0  0  0  0
    8.4444  -14.0995   20.2899 N   0  0  0  0  0  0  0  0  0  0  0  0
    9.0452  -12.8047   20.5725 C   0  0  0  0  0  0  0  0  0  0  0  0
    8.4908  -11.8645   19.5140 C   0  0  0  0  0  0  0  0  0  0  0  0
    8.3897  -12.7946   18.3317 C   0  0  0  0  0  0  0  0  0  0  0  0
    7.8697  -14.0647   18.9718 C   0  0  1  0  0  0  0  0  0  0  0  0
    8.3103  -15.1924   18.1232 C   0  0  0  0  0  0  0  0  0  0  0  0
    7.5563  -15.5587   17.1918 O   0  0  0  0  0  0  0  0  0  0  0  0
    9.5055  -15.8644   18.2990 O   0  0  0  0  0  0  0  0  0  0  0  0
  2  1  1  0
  3  2  1  0
  4  5  1  0
  4  3  1  0
  5  6  1  1
  7  5  1  0
  8  7  2  0
 10  9  1  6
 10 12  1  0
 10 11  1  0
 11  7  1  0
 12 14  1  0
 13 12  2  0
 14 18  1  0
 14 15  1  0
 15 16  1  0
 17 16  1  0
 18 17  1  0
 19 21  1  0
 18 19  1  6
 20 19  2  0
M  END
$$$$
