MAP.pdb
     RDKit          3D

 21 21  0  0  1  0  0  0  0  0999 V2000
    7.9382  -11.8656   19.4408 C   0  0  0  0  0  0  0  0  0  0  0  0
    8.2549  -13.3581   20.3533 S   0  0  0  0  0  0  0  0  0  0  0  0
    8.7305  -14.7882   19.4400 C   0  0  0  0  0  0  0  0  0  0  0  0
    9.0627  -16.0498   20.1543 C   0  0  0  0  0  0  0  0  0  0  0  0
    7.9151  -16.8513   20.6256 C   0  0  2  0  0  0  0  0  0  0  0  0
    6.8978  -16.9170   19.6061 N   0  0  0  0  0  0  0  0  0  0  0  0
    7.2763  -16.2613   21.8486 C   0  0  0  0  0  0  0  0  0  0  0  0
    6.2095  -15.6231   21.7240 O   0  0  0  0  0  0  0  0  0  0  0  0
    6.7932  -17.2112   25.1340 C   0  0  0  0  0  0  0  0  0  0  0  0
    7.1694  -15.9556   24.3481 C   0  0  2  0  0  0  0  0  0  0  0  0
    7.8244  -16.3921   23.1419 N   0  0  0  0  0  0  0  0  0  0  0  0
    8.0755  -15.1637   25.2163 C   0  0  0  0  0  0  0  0  0  0  0  0
    9.2878  -15.4790   25.2281 O   0  0  0  0  0  0  0  0  0  0  0  0
    7.5713  -14.0967   25.9940 N   0  0  0  0  0  0  0  0  0  0  0  0
    6.1949  -13.6249   25.9970 C   0  0  0  0  0  0  0  0  0  0  0  0
    6.2361  -12.2688   26.6833 C   0  0  0  0  0  0  0  0  0  0  0  0
    7.3212  -12.4992   27.7044 C   0  0  0  0  0  0  0  0  0  0  0  0
    8.3362  -13.2972   26.9130 C   0  0  1  0  0  0  0  0  0  0  0  0
    9.1024  -14.1102   27.8816 C   0  0  0  0  0  0  0  0  0  0  0  0
    8.7814  -15.3128   28.0256 O   0  0  0  0  0  0  0  0  0  0  0  0
   10.1514  -13.6190   28.6361 O   0  0  0  0  0  0  0  0  0  0  0  0
  2  1  1  0
  3  2  1  0
  4  5  1  0
  4  3  1  0
  5  6  1  6
  7  5  1  0
  8  7  2  0
 10  9  1  1
 10 12  1  0
 10 11  1  0
 11  7  1  0
 12 14  1  0
 13 12  2  0
 14 18  1  0
 14 15  1  0
 15 16  1  0
 17 16  1  0
 18 17  1  0
 19 21  1  0
 18 19  1  1
 20 19  2  0
M  END
$$$$
