MAP.pdb
     RDKit          3D

 21 21  0  0  1  0  0  0  0  0999 V2000
    6.9670  -10.9559   25.8321 C   0  0  0  0  0  0  0  0  0  0  0  0
    6.1095  -12.0538   26.9365 S   0  0  0  0  0  0  0  0  0  0  0  0
    6.0366  -13.7592   26.4990 C   0  0  0  0  0  0  0  0  0  0  0  0
    6.7214  -14.2411   25.2697 C   0  0  0  0  0  0  0  0  0  0  0  0
    6.5485  -15.6724   24.9481 C   0  0  2  0  0  0  0  0  0  0  0  0
    6.0146  -16.3801   26.0850 N   0  0  0  0  0  0  0  0  0  0  0  0
    7.8470  -16.3327   24.5876 C   0  0  0  0  0  0  0  0  0  0  0  0
    8.6092  -16.7059   25.5044 O   0  0  0  0  0  0  0  0  0  0  0  0
    9.1918  -17.7373   21.4048 C   0  0  0  0  0  0  0  0  0  0  0  0
    9.3805  -17.3668   22.8755 C   0  0  2  0  0  0  0  0  0  0  0  0
    8.2532  -16.5546   23.2549 N   0  0  0  0  0  0  0  0  0  0  0  0
   10.6589  -16.6193   22.9671 C   0  0  0  0  0  0  0  0  0  0  0  0
   10.7018  -15.4799   22.4483 O   0  0  0  0  0  0  0  0  0  0  0  0
   11.7763  -17.1879   23.6196 N   0  0  0  0  0  0  0  0  0  0  0  0
   11.7895  -18.4586   24.3281 C   0  0  0  0  0  0  0  0  0  0  0  0
   13.0700  -18.4487   25.1479 C   0  0  0  0  0  0  0  0  0  0  0  0
   13.9936  -17.6956   24.2244 C   0  0  0  0  0  0  0  0  0  0  0  0
   13.0887  -16.6038   23.6930 C   0  0  1  0  0  0  0  0  0  0  0  0
   13.6155  -16.2066   22.3698 C   0  0  0  0  0  0  0  0  0  0  0  0
   13.2479  -16.8633   21.3680 O   0  0  0  0  0  0  0  0  0  0  0  0
   14.4894  -15.1531   22.1760 O   0  0  0  0  0  0  0  0  0  0  0  0
  2  1  1  0
  3  2  1  0
  4  5  1  0
  4  3  1  0
  5  6  1  1
  7  5  1  0
  8  7  2  0
 10  9  1  6
 10 12  1  0
 10 11  1  0
 11  7  1  0
 12 14  1  0
 13 12  2  0
 14 18  1  0
 14 15  1  0
 15 16  1  0
 17 16  1  0
 18 17  1  0
 19 21  1  0
 18 19  1  6
 20 19  2  0
M  END
$$$$
