WWH.pdb
     RDKit          3D

 39 43  0  0  1  0  0  0  0  0999 V2000
    8.3626  -16.8128   22.1000 N   0  0  0  0  0  0  0  0  0  0  0  0
    9.2002  -15.7506   22.5704 C   0  0  1  0  0  0  0  0  0  0  0  0
    8.6133  -14.3744   22.3885 C   0  0  0  0  0  0  0  0  0  0  0  0
    7.9905  -14.1576   21.0677 C   0  0  0  0  0  0  0  0  0  0  0  0
    6.6938  -14.4539   20.7016 C   0  0  0  0  0  0  0  0  0  0  0  0
    6.5128  -14.1360   19.4158 N   0  0  0  0  0  0  0  0  0  0  0  0
    7.6612  -13.6359   18.9249 C   0  0  0  0  0  0  0  0  0  0  0  0
    8.0343  -13.1537   17.6916 C   0  0  0  0  0  0  0  0  0  0  0  0
    9.3237  -12.6815   17.4757 C   0  0  0  0  0  0  0  0  0  0  0  0
   10.2531  -12.6870   18.4926 C   0  0  0  0  0  0  0  0  0  0  0  0
    9.8664  -13.1789   19.7435 C   0  0  0  0  0  0  0  0  0  0  0  0
    8.6018  -13.6443   19.9599 C   0  0  0  0  0  0  0  0  0  0  0  0
    9.7131  -15.9880   23.9446 C   0  0  0  0  0  0  0  0  0  0  0  0
   10.7513  -15.3733   24.3728 O   0  0  0  0  0  0  0  0  0  0  0  0
    9.0168  -16.9128   24.7662 N   0  0  0  0  0  0  0  0  0  0  0  0
    9.4729  -17.2110   26.0916 C   0  0  1  0  0  0  0  0  0  0  0  0
    8.4416  -16.8706   27.1482 C   0  0  0  0  0  0  0  0  0  0  0  0
    7.4855  -15.8498   26.7029 C   0  0  0  0  0  0  0  0  0  0  0  0
    6.3125  -16.0886   26.0365 C   0  0  0  0  0  0  0  0  0  0  0  0
    5.7351  -14.8754   25.8162 N   0  0  0  0  0  0  0  0  0  0  0  0
    6.5026  -13.8952   26.3189 C   0  0  0  0  0  0  0  0  0  0  0  0
    6.4163  -12.5131   26.3835 C   0  0  0  0  0  0  0  0  0  0  0  0
    7.3624  -11.7238   26.9695 C   0  0  0  0  0  0  0  0  0  0  0  0
    8.4733  -12.3223   27.5338 C   0  0  0  0  0  0  0  0  0  0  0  0
    8.5803  -13.6987   27.4813 C   0  0  0  0  0  0  0  0  0  0  0  0
    7.6063  -14.4957   26.8791 C   0  0  0  0  0  0  0  0  0  0  0  0
    9.7883  -18.6521   26.2720 C   0  0  0  0  0  0  0  0  0  0  0  0
    9.2452  -19.4981   25.5208 O   0  0  0  0  0  0  0  0  0  0  0  0
   10.6799  -19.1171   27.2595 N   0  0  0  0  0  0  0  0  0  0  0  0
   12.0637  -19.4748   26.8724 C   0  0  1  0  0  0  0  0  0  0  0  0
   12.6854  -18.2752   26.2162 C   0  0  0  0  0  0  0  0  0  0  0  0
   13.1359  -18.5787   24.8483 C   0  0  0  0  0  0  0  0  0  0  0  0
   12.4615  -19.4722   24.0202 C   0  0  0  0  0  0  0  0  0  0  0  0
   13.1381  -19.5108   22.8609 N   0  0  0  0  0  0  0  0  0  0  0  0
   14.1948  -18.7007   22.9028 C   0  0  0  0  0  0  0  0  0  0  0  0
   14.1724  -18.1465   24.1183 N   0  0  0  0  0  0  0  0  0  0  0  0
   12.7783  -19.8308   28.1438 C   0  0  0  0  0  0  0  0  0  0  0  0
   13.9054  -20.3584   28.0529 O   0  0  0  0  0  0  0  0  0  0  0  0
   12.2264  -19.5901   29.3759 O   0  0  0  0  0  0  0  0  0  0  0  0
  2  1  1  1
  2  3  1  0
  3  4  1  0
  4  5  2  0
  5  6  1  0
  7  6  1  0
  8  7  2  0
  9  8  1  0
 10 11  1  0
 10  9  2  0
 11 12  2  0
 12  4  1  0
 12  7  1  0
 13  2  1  0
 14 13  2  0
 15 13  1  0
 16 15  1  0
 16 17  1  1
 18 26  1  0
 18 17  1  0
 19 18  2  0
 20 19  1  0
 20 21  1  0
 21 22  1  0
 21 26  2  0
 22 23  2  0
 23 24  1  0
 25 24  2  0
 26 25  1  0
 27 16  1  0
 28 27  2  0
 29 27  1  0
 30 29  1  0
 30 31  1  1
 32 31  1  0
 32 36  1  0
 33 34  1  0
 33 32  2  0
 34 35  1  0
 35 36  2  0
 37 30  1  0
 37 39  1  0
 38 37  2  0
M  END
$$$$
