WWH.pdb
     RDKit          3D

 39 43  0  0  1  0  0  0  0  0999 V2000
    9.9453  -15.2586   24.2793 N   0  0  0  0  0  0  0  0  0  0  0  0
    9.1837  -16.4692   24.2054 C   0  0  1  0  0  0  0  0  0  0  0  0
    7.7884  -16.3562   24.7638 C   0  0  0  0  0  0  0  0  0  0  0  0
    7.4916  -15.0461   25.3762 C   0  0  0  0  0  0  0  0  0  0  0  0
    6.3605  -14.2786   25.1895 C   0  0  0  0  0  0  0  0  0  0  0  0
    6.4712  -13.1478   25.8939 N   0  0  0  0  0  0  0  0  0  0  0  0
    7.6501  -13.1520   26.5421 C   0  0  0  0  0  0  0  0  0  0  0  0
    8.2659  -12.2653   27.3949 C   0  0  0  0  0  0  0  0  0  0  0  0
    9.5158  -12.5504   27.9321 C   0  0  0  0  0  0  0  0  0  0  0  0
   10.1622  -13.7266   27.6212 C   0  0  0  0  0  0  0  0  0  0  0  0
    9.5299  -14.6229   26.7533 C   0  0  0  0  0  0  0  0  0  0  0  0
    8.3032  -14.3468   26.2228 C   0  0  0  0  0  0  0  0  0  0  0  0
    9.2227  -17.0919   22.8569 C   0  0  0  0  0  0  0  0  0  0  0  0
    8.4851  -18.1007   22.5784 O   0  0  0  0  0  0  0  0  0  0  0  0
   10.0984  -16.5337   21.8891 N   0  0  0  0  0  0  0  0  0  0  0  0
   10.3933  -17.2304   20.6721 C   0  0  1  0  0  0  0  0  0  0  0  0
   10.2021  -16.3600   19.4467 C   0  0  0  0  0  0  0  0  0  0  0  0
    9.7629  -14.9991   19.7777 C   0  0  0  0  0  0  0  0  0  0  0  0
   10.5320  -13.8682   19.6969 C   0  0  0  0  0  0  0  0  0  0  0  0
    9.7429  -12.8310   20.0911 N   0  0  0  0  0  0  0  0  0  0  0  0
    8.5168  -13.2734   20.4127 C   0  0  0  0  0  0  0  0  0  0  0  0
    7.3452  -12.6848   20.8629 C   0  0  0  0  0  0  0  0  0  0  0  0
    6.2012  -13.3815   21.1225 C   0  0  0  0  0  0  0  0  0  0  0  0
    6.1963  -14.7504   20.9300 C   0  0  0  0  0  0  0  0  0  0  0  0
    7.3531  -15.3584   20.4816 C   0  0  0  0  0  0  0  0  0  0  0  0
    8.5172  -14.6355   20.2196 C   0  0  0  0  0  0  0  0  0  0  0  0
   11.7982  -17.7125   20.6208 C   0  0  0  0  0  0  0  0  0  0  0  0
   12.1920  -18.3504   19.6143 O   0  0  0  0  0  0  0  0  0  0  0  0
   12.7190  -17.4831   21.6629 N   0  0  0  0  0  0  0  0  0  0  0  0
   14.1014  -17.9974   21.5315 C   0  0  1  0  0  0  0  0  0  0  0  0
   15.0399  -16.8272   21.6102 C   0  0  0  0  0  0  0  0  0  0  0  0
   14.8350  -15.8925   20.4920 C   0  0  0  0  0  0  0  0  0  0  0  0
   15.0924  -16.2418   19.1689 C   0  0  0  0  0  0  0  0  0  0  0  0
   14.8020  -15.1648   18.4211 N   0  0  0  0  0  0  0  0  0  0  0  0
   14.3783  -14.1590   19.1851 C   0  0  0  0  0  0  0  0  0  0  0  0
   14.4070  -14.6244   20.4371 N   0  0  0  0  0  0  0  0  0  0  0  0
   14.3110  -18.9410   22.6801 C   0  0  0  0  0  0  0  0  0  0  0  0
   15.4457  -19.4383   22.8286 O   0  0  0  0  0  0  0  0  0  0  0  0
   13.2995  -19.2576   23.5504 O   0  0  0  0  0  0  0  0  0  0  0  0
  2  1  1  6
  2  3  1  0
  3  4  1  0
  4  5  2  0
  5  6  1  0
  7  6  1  0
  8  7  2  0
  9  8  1  0
 10 11  1  0
 10  9  2  0
 11 12  2  0
 12  4  1  0
 12  7  1  0
 13  2  1  0
 14 13  2  0
 15 13  1  0
 16 15  1  0
 16 17  1  6
 18 26  1  0
 18 17  1  0
 19 18  2  0
 20 19  1  0
 20 21  1  0
 21 22  1  0
 21 26  2  0
 22 23  2  0
 23 24  1  0
 25 24  2  0
 26 25  1  0
 27 16  1  0
 28 27  2  0
 29 27  1  0
 30 29  1  0
 30 31  1  1
 32 31  1  0
 32 36  1  0
 33 34  1  0
 33 32  2  0
 34 35  1  0
 35 36  2  0
 37 30  1  0
 37 39  1  0
 38 37  2  0
M  END
$$$$
