WWH.pdb
     RDKit          3D

 39 43  0  0  1  0  0  0  0  0999 V2000
   12.3289  -16.1131   20.0844 N   0  0  0  0  0  0  0  0  0  0  0  0
   10.9460  -15.9213   20.4039 C   0  0  1  0  0  0  0  0  0  0  0  0
   10.0029  -16.7903   19.6123 C   0  0  0  0  0  0  0  0  0  0  0  0
    9.1014  -16.0375   18.7178 C   0  0  0  0  0  0  0  0  0  0  0  0
    8.8844  -16.2639   17.3743 C   0  0  0  0  0  0  0  0  0  0  0  0
    8.0189  -15.3588   16.9067 N   0  0  0  0  0  0  0  0  0  0  0  0
    7.6591  -14.5401   17.9118 C   0  0  0  0  0  0  0  0  0  0  0  0
    6.8095  -13.4614   17.9976 C   0  0  0  0  0  0  0  0  0  0  0  0
    6.6253  -12.7987   19.2055 C   0  0  0  0  0  0  0  0  0  0  0  0
    7.2897  -13.2094   20.3404 C   0  0  0  0  0  0  0  0  0  0  0  0
    8.1519  -14.3065   20.2451 C   0  0  0  0  0  0  0  0  0  0  0  0
    8.3366  -14.9597   19.0611 C   0  0  0  0  0  0  0  0  0  0  0  0
   10.6831  -15.9576   21.8659 C   0  0  0  0  0  0  0  0  0  0  0  0
   11.6211  -16.2263   22.6948 O   0  0  0  0  0  0  0  0  0  0  0  0
    9.3642  -15.6835   22.3137 N   0  0  0  0  0  0  0  0  0  0  0  0
    9.0635  -15.5946   23.7120 C   0  0  1  0  0  0  0  0  0  0  0  0
    7.6056  -15.2729   23.9705 C   0  0  0  0  0  0  0  0  0  0  0  0
    7.3093  -15.0774   25.3948 C   0  0  0  0  0  0  0  0  0  0  0  0
    6.8601  -16.0416   26.2583 C   0  0  0  0  0  0  0  0  0  0  0  0
    6.7161  -15.4416   27.4720 N   0  0  0  0  0  0  0  0  0  0  0  0
    7.0577  -14.1455   27.3952 C   0  0  0  0  0  0  0  0  0  0  0  0
    7.1059  -13.0863   28.2883 C   0  0  0  0  0  0  0  0  0  0  0  0
    7.5030  -11.8268   27.9454 C   0  0  0  0  0  0  0  0  0  0  0  0
    7.8807  -11.5795   26.6389 C   0  0  0  0  0  0  0  0  0  0  0  0
    7.8405  -12.6206   25.7315 C   0  0  0  0  0  0  0  0  0  0  0  0
    7.4325  -13.9046   26.0938 C   0  0  0  0  0  0  0  0  0  0  0  0
    9.3402  -16.8642   24.4334 C   0  0  0  0  0  0  0  0  0  0  0  0
    8.7806  -17.9211   24.0528 O   0  0  0  0  0  0  0  0  0  0  0  0
   10.2123  -16.9360   25.5383 N   0  0  0  0  0  0  0  0  0  0  0  0
   10.3724  -18.2250   26.2494 C   0  0  1  0  0  0  0  0  0  0  0  0
   11.8423  -18.4685   26.4407 C   0  0  0  0  0  0  0  0  0  0  0  0
   12.4655  -19.0063   25.2207 C   0  0  0  0  0  0  0  0  0  0  0  0
   12.2970  -18.4141   23.9717 C   0  0  0  0  0  0  0  0  0  0  0  0
   12.9933  -19.1557   23.0951 N   0  0  0  0  0  0  0  0  0  0  0  0
   13.5900  -20.1767   23.7084 C   0  0  0  0  0  0  0  0  0  0  0  0
   13.2551  -20.0649   24.9970 N   0  0  0  0  0  0  0  0  0  0  0  0
    9.6708  -18.0692   27.5673 C   0  0  0  0  0  0  0  0  0  0  0  0
    9.2165  -16.9441   27.8584 O   0  0  0  0  0  0  0  0  0  0  0  0
    9.5226  -19.1194   28.4368 O   0  0  0  0  0  0  0  0  0  0  0  0
  2  1  1  1
  2  3  1  0
  3  4  1  0
  4  5  2  0
  5  6  1  0
  7  6  1  0
  8  7  2  0
  9  8  1  0
 10 11  1  0
 10  9  2  0
 11 12  2  0
 12  4  1  0
 12  7  1  0
 13  2  1  0
 14 13  2  0
 15 13  1  0
 16 15  1  0
 16 17  1  6
 18 26  1  0
 18 17  1  0
 19 18  2  0
 20 19  1  0
 20 21  1  0
 21 22  1  0
 21 26  2  0
 22 23  2  0
 23 24  1  0
 25 24  2  0
 26 25  1  0
 27 16  1  0
 28 27  2  0
 29 27  1  0
 30 29  1  0
 30 31  1  1
 32 31  1  0
 32 36  1  0
 33 34  1  0
 33 32  2  0
 34 35  1  0
 35 36  2  0
 37 30  1  0
 37 39  1  0
 38 37  2  0
M  END
$$$$
