WWH.pdb
     RDKit          3D

 39 43  0  0  1  0  0  0  0  0999 V2000
    8.4055  -16.9730   21.8686 N   0  0  0  0  0  0  0  0  0  0  0  0
    8.9141  -15.7047   22.2971 C   0  0  1  0  0  0  0  0  0  0  0  0
    7.9840  -14.5472   22.0394 C   0  0  0  0  0  0  0  0  0  0  0  0
    7.6027  -14.3880   20.6221 C   0  0  0  0  0  0  0  0  0  0  0  0
    6.4995  -14.9268   19.9927 C   0  0  0  0  0  0  0  0  0  0  0  0
    6.5118  -14.5786   18.7021 N   0  0  0  0  0  0  0  0  0  0  0  0
    7.5984  -13.8215   18.4654 C   0  0  0  0  0  0  0  0  0  0  0  0
    8.0943  -13.2003   17.3425 C   0  0  0  0  0  0  0  0  0  0  0  0
    9.2675  -12.4572   17.4035 C   0  0  0  0  0  0  0  0  0  0  0  0
    9.9562  -12.3281   18.5897 C   0  0  0  0  0  0  0  0  0  0  0  0
    9.4458  -12.9626   19.7268 C   0  0  0  0  0  0  0  0  0  0  0  0
    8.2949  -13.6940   19.6715 C   0  0  0  0  0  0  0  0  0  0  0  0
    9.4356  -15.7342   23.6881 C   0  0  0  0  0  0  0  0  0  0  0  0
   10.0865  -14.7407   24.1660 O   0  0  0  0  0  0  0  0  0  0  0  0
    9.1882  -16.8935   24.4691 N   0  0  0  0  0  0  0  0  0  0  0  0
    9.6127  -16.9666   25.8358 C   0  0  1  0  0  0  0  0  0  0  0  0
    8.4490  -16.9286   26.8055 C   0  0  0  0  0  0  0  0  0  0  0  0
    7.4924  -15.8565   26.5055 C   0  0  0  0  0  0  0  0  0  0  0  0
    6.2216  -16.0297   26.0238 C   0  0  0  0  0  0  0  0  0  0  0  0
    5.6830  -14.7866   25.8887 N   0  0  0  0  0  0  0  0  0  0  0  0
    6.5683  -13.8509   26.2671 C   0  0  0  0  0  0  0  0  0  0  0  0
    6.5661  -12.4664   26.3393 C   0  0  0  0  0  0  0  0  0  0  0  0
    7.6300  -11.7311   26.7739 C   0  0  0  0  0  0  0  0  0  0  0  0
    8.7798  -12.3903   27.1669 C   0  0  0  0  0  0  0  0  0  0  0  0
    8.8044  -13.7702   27.1034 C   0  0  0  0  0  0  0  0  0  0  0  0
    7.7101  -14.5116   26.6571 C   0  0  0  0  0  0  0  0  0  0  0  0
   10.3563  -18.2188   26.1324 C   0  0  0  0  0  0  0  0  0  0  0  0
    9.8420  -19.3237   25.8331 O   0  0  0  0  0  0  0  0  0  0  0  0
   11.6273  -18.2218   26.7415 N   0  0  0  0  0  0  0  0  0  0  0  0
   12.2989  -19.5150   27.0047 C   0  0  1  0  0  0  0  0  0  0  0  0
   13.7785  -19.3085   26.8476 C   0  0  0  0  0  0  0  0  0  0  0  0
   14.1318  -18.9538   25.4636 C   0  0  0  0  0  0  0  0  0  0  0  0
   13.4531  -19.4705   24.3630 C   0  0  0  0  0  0  0  0  0  0  0  0
   14.0306  -18.9443   23.2707 N   0  0  0  0  0  0  0  0  0  0  0  0
   15.0288  -18.1297   23.6095 C   0  0  0  0  0  0  0  0  0  0  0  0
   15.0708  -18.1518   24.9447 N   0  0  0  0  0  0  0  0  0  0  0  0
   11.9491  -19.8922   28.4151 C   0  0  0  0  0  0  0  0  0  0  0  0
   12.4803  -20.9138   28.8959 O   0  0  0  0  0  0  0  0  0  0  0  0
   11.0763  -19.1489   29.1677 O   0  0  0  0  0  0  0  0  0  0  0  0
  2  1  1  1
  2  3  1  0
  3  4  1  0
  4  5  2  0
  5  6  1  0
  7  6  1  0
  8  7  2  0
  9  8  1  0
 10 11  1  0
 10  9  2  0
 11 12  2  0
 12  4  1  0
 12  7  1  0
 13  2  1  0
 14 13  2  0
 15 13  1  0
 16 15  1  0
 16 17  1  1
 18 26  1  0
 18 17  1  0
 19 18  2  0
 20 19  1  0
 20 21  1  0
 21 22  1  0
 21 26  2  0
 22 23  2  0
 23 24  1  0
 25 24  2  0
 26 25  1  0
 27 16  1  0
 28 27  2  0
 29 27  1  0
 30 29  1  0
 30 31  1  1
 32 31  1  0
 32 36  1  0
 33 34  1  0
 33 32  2  0
 34 35  1  0
 35 36  2  0
 37 30  1  0
 37 39  1  0
 38 37  2  0
M  END
$$$$
