WWH.pdb
     RDKit          3D

 39 43  0  0  1  0  0  0  0  0999 V2000
    8.5784  -17.0803   21.8596 N   0  0  0  0  0  0  0  0  0  0  0  0
    8.8266  -15.7621   22.3615 C   0  0  1  0  0  0  0  0  0  0  0  0
    7.7044  -14.7865   22.1164 C   0  0  0  0  0  0  0  0  0  0  0  0
    7.3469  -14.6286   20.6928 C   0  0  0  0  0  0  0  0  0  0  0  0
    6.3271  -15.2656   20.0164 C   0  0  0  0  0  0  0  0  0  0  0  0
    6.3366  -14.8808   18.7362 N   0  0  0  0  0  0  0  0  0  0  0  0
    7.3397  -14.0034   18.5524 C   0  0  0  0  0  0  0  0  0  0  0  0
    7.7952  -13.2995   17.4616 C   0  0  0  0  0  0  0  0  0  0  0  0
    8.8778  -12.4353   17.5775 C   0  0  0  0  0  0  0  0  0  0  0  0
    9.5154  -12.2666   18.7870 C   0  0  0  0  0  0  0  0  0  0  0  0
    9.0466  -12.9857   19.8913 C   0  0  0  0  0  0  0  0  0  0  0  0
    7.9847  -13.8360   19.7820 C   0  0  0  0  0  0  0  0  0  0  0  0
    9.3007  -15.7626   23.7697 C   0  0  0  0  0  0  0  0  0  0  0  0
    9.8159  -14.7119   24.2889 O   0  0  0  0  0  0  0  0  0  0  0  0
    9.1627  -16.9598   24.5199 N   0  0  0  0  0  0  0  0  0  0  0  0
    9.5353  -17.0110   25.9027 C   0  0  1  0  0  0  0  0  0  0  0  0
    8.3344  -16.9874   26.8263 C   0  0  0  0  0  0  0  0  0  0  0  0
    7.4400  -15.8524   26.5689 C   0  0  0  0  0  0  0  0  0  0  0  0
    6.1800  -15.9313   26.0368 C   0  0  0  0  0  0  0  0  0  0  0  0
    5.7051  -14.6571   25.9685 N   0  0  0  0  0  0  0  0  0  0  0  0
    6.6195  -13.7926   26.4365 C   0  0  0  0  0  0  0  0  0  0  0  0
    6.6796  -12.4174   26.6012 C   0  0  0  0  0  0  0  0  0  0  0  0
    7.7611  -11.7651   27.1174 C   0  0  0  0  0  0  0  0  0  0  0  0
    8.8644  -12.5041   27.5014 C   0  0  0  0  0  0  0  0  0  0  0  0
    8.8267  -13.8764   27.3463 C   0  0  0  0  0  0  0  0  0  0  0  0
    7.7149  -14.5326   26.8171 C   0  0  0  0  0  0  0  0  0  0  0  0
   10.2919  -18.2447   26.2408 C   0  0  0  0  0  0  0  0  0  0  0  0
    9.7970  -19.3639   25.9630 O   0  0  0  0  0  0  0  0  0  0  0  0
   11.5545  -18.2144   26.8665 N   0  0  0  0  0  0  0  0  0  0  0  0
   12.2263  -19.4914   27.1994 C   0  0  1  0  0  0  0  0  0  0  0  0
   13.6956  -19.3236   26.9361 C   0  0  0  0  0  0  0  0  0  0  0  0
   13.9672  -19.0953   25.5077 C   0  0  0  0  0  0  0  0  0  0  0  0
   13.2131  -19.6894   24.4991 C   0  0  0  0  0  0  0  0  0  0  0  0
   13.7292  -19.2701   23.3324 N   0  0  0  0  0  0  0  0  0  0  0  0
   14.7591  -18.4506   23.5383 C   0  0  0  0  0  0  0  0  0  0  0  0
   14.8842  -18.3600   24.8654 N   0  0  0  0  0  0  0  0  0  0  0  0
   11.9597  -19.7407   28.6556 C   0  0  0  0  0  0  0  0  0  0  0  0
   12.4825  -20.7438   29.1823 O   0  0  0  0  0  0  0  0  0  0  0  0
   11.1701  -18.9027   29.4006 O   0  0  0  0  0  0  0  0  0  0  0  0
  2  1  1  1
  2  3  1  0
  3  4  1  0
  4  5  2  0
  5  6  1  0
  7  6  1  0
  8  7  2  0
  9  8  1  0
 10 11  1  0
 10  9  2  0
 11 12  2  0
 12  4  1  0
 12  7  1  0
 13  2  1  0
 14 13  2  0
 15 13  1  0
 16 15  1  0
 16 17  1  1
 18 26  1  0
 18 17  1  0
 19 18  2  0
 20 19  1  0
 20 21  1  0
 21 22  1  0
 21 26  2  0
 22 23  2  0
 23 24  1  0
 25 24  2  0
 26 25  1  0
 27 16  1  0
 28 27  2  0
 29 27  1  0
 30 29  1  0
 30 31  1  1
 32 31  1  0
 32 36  1  0
 33 34  1  0
 33 32  2  0
 34 35  1  0
 35 36  2  0
 37 30  1  0
 37 39  1  0
 38 37  2  0
M  END
$$$$
