WWH.pdb
     RDKit          3D

 39 43  0  0  1  0  0  0  0  0999 V2000
    8.6133  -17.5365   22.0009 N   0  0  0  0  0  0  0  0  0  0  0  0
    9.9852  -17.1252   21.9985 C   0  0  1  0  0  0  0  0  0  0  0  0
   10.3867  -16.3208   20.7889 C   0  0  0  0  0  0  0  0  0  0  0  0
    9.2835  -15.5406   20.1942 C   0  0  0  0  0  0  0  0  0  0  0  0
    8.6236  -15.8028   19.0113 C   0  0  0  0  0  0  0  0  0  0  0  0
    7.7034  -14.8567   18.7984 N   0  0  0  0  0  0  0  0  0  0  0  0
    7.7407  -13.9761   19.8146 C   0  0  0  0  0  0  0  0  0  0  0  0
    7.0274  -12.8368   20.1081 C   0  0  0  0  0  0  0  0  0  0  0  0
    7.2884  -12.1163   21.2678 C   0  0  0  0  0  0  0  0  0  0  0  0
    8.2663  -12.5292   22.1461 C   0  0  0  0  0  0  0  0  0  0  0  0
    8.9872  -13.6882   21.8407 C   0  0  0  0  0  0  0  0  0  0  0  0
    8.7350  -14.3983   20.7029 C   0  0  0  0  0  0  0  0  0  0  0  0
   10.3996  -16.4968   23.2796 C   0  0  0  0  0  0  0  0  0  0  0  0
   11.5300  -15.9050   23.3846 O   0  0  0  0  0  0  0  0  0  0  0  0
    9.5049  -16.5705   24.3792 N   0  0  0  0  0  0  0  0  0  0  0  0
    9.9871  -16.8047   25.7082 C   0  0  1  0  0  0  0  0  0  0  0  0
    9.1812  -16.0625   26.7548 C   0  0  0  0  0  0  0  0  0  0  0  0
    8.0049  -15.3866   26.1944 C   0  0  0  0  0  0  0  0  0  0  0  0
    6.8776  -16.0042   25.7202 C   0  0  0  0  0  0  0  0  0  0  0  0
    6.0409  -15.0170   25.2970 N   0  0  0  0  0  0  0  0  0  0  0  0
    6.6040  -13.8136   25.4896 C   0  0  0  0  0  0  0  0  0  0  0  0
    6.2246  -12.5009   25.2553 C   0  0  0  0  0  0  0  0  0  0  0  0
    7.0075  -11.4239   25.5528 C   0  0  0  0  0  0  0  0  0  0  0  0
    8.2498  -11.6391   26.1196 C   0  0  0  0  0  0  0  0  0  0  0  0
    8.6488  -12.9394   26.3621 C   0  0  0  0  0  0  0  0  0  0  0  0
    7.8395  -14.0332   26.0535 C   0  0  0  0  0  0  0  0  0  0  0  0
    9.9317  -18.2409   26.0866 C   0  0  0  0  0  0  0  0  0  0  0  0
    9.5026  -19.0784   25.2564 O   0  0  0  0  0  0  0  0  0  0  0  0
   10.3440  -18.7103   27.3500 N   0  0  0  0  0  0  0  0  0  0  0  0
   11.6539  -19.3894   27.4759 C   0  0  1  0  0  0  0  0  0  0  0  0
   12.6724  -18.5712   26.7344 C   0  0  0  0  0  0  0  0  0  0  0  0
   13.1899  -19.2876   25.5575 C   0  0  0  0  0  0  0  0  0  0  0  0
   12.3548  -19.8073   24.5719 C   0  0  0  0  0  0  0  0  0  0  0  0
   13.1496  -20.3896   23.6594 N   0  0  0  0  0  0  0  0  0  0  0  0
   14.4309  -20.2716   24.0042 C   0  0  0  0  0  0  0  0  0  0  0  0
   14.4300  -19.5995   25.1589 N   0  0  0  0  0  0  0  0  0  0  0  0
   11.9623  -19.4414   28.9442 C   0  0  0  0  0  0  0  0  0  0  0  0
   12.9797  -20.0666   29.3060 O   0  0  0  0  0  0  0  0  0  0  0  0
   11.1635  -18.8260   29.8736 O   0  0  0  0  0  0  0  0  0  0  0  0
  2  1  1  1
  2  3  1  0
  3  4  1  0
  4  5  2  0
  5  6  1  0
  7  6  1  0
  8  7  2  0
  9  8  1  0
 10 11  1  0
 10  9  2  0
 11 12  2  0
 12  4  1  0
 12  7  1  0
 13  2  1  0
 14 13  2  0
 15 13  1  0
 16 15  1  0
 16 17  1  1
 18 26  1  0
 18 17  1  0
 19 18  2  0
 20 19  1  0
 20 21  1  0
 21 22  1  0
 21 26  2  0
 22 23  2  0
 23 24  1  0
 25 24  2  0
 26 25  1  0
 27 16  1  0
 28 27  2  0
 29 27  1  0
 30 29  1  0
 30 31  1  6
 32 31  1  0
 32 36  1  0
 33 34  1  0
 33 32  2  0
 34 35  1  0
 35 36  2  0
 37 30  1  0
 37 39  1  0
 38 37  2  0
M  END
$$$$
