WWH.pdb
     RDKit          3D

 39 43  0  0  1  0  0  0  0  0999 V2000
    7.7392  -15.5334   24.5119 N   0  0  0  0  0  0  0  0  0  0  0  0
    8.8414  -16.3695   24.8821 C   0  0  1  0  0  0  0  0  0  0  0  0
    9.1143  -16.4118   26.3637 C   0  0  0  0  0  0  0  0  0  0  0  0
    8.6372  -15.2219   27.0957 C   0  0  0  0  0  0  0  0  0  0  0  0
    8.7518  -14.9773   28.4487 C   0  0  0  0  0  0  0  0  0  0  0  0
    8.1765  -13.8056   28.7372 N   0  0  0  0  0  0  0  0  0  0  0  0
    7.6852  -13.2709   27.6047 C   0  0  0  0  0  0  0  0  0  0  0  0
    7.0159  -12.1029   27.3207 C   0  0  0  0  0  0  0  0  0  0  0  0
    6.6298  -11.8059   26.0188 C   0  0  0  0  0  0  0  0  0  0  0  0
    6.9101  -12.6753   24.9875 C   0  0  0  0  0  0  0  0  0  0  0  0
    7.5906  -13.8606   25.2842 C   0  0  0  0  0  0  0  0  0  0  0  0
    7.9708  -14.1569   26.5610 C   0  0  0  0  0  0  0  0  0  0  0  0
    8.7728  -17.7189   24.2637 C   0  0  0  0  0  0  0  0  0  0  0  0
    9.3249  -18.7275   24.8269 O   0  0  0  0  0  0  0  0  0  0  0  0
    8.0761  -17.8551   23.0345 N   0  0  0  0  0  0  0  0  0  0  0  0
    8.7543  -18.2780   21.8450 C   0  0  1  0  0  0  0  0  0  0  0  0
    8.3890  -17.4348   20.6404 C   0  0  0  0  0  0  0  0  0  0  0  0
    7.7716  -16.1546   21.0072 C   0  0  0  0  0  0  0  0  0  0  0  0
    6.7336  -15.9897   21.8862 C   0  0  0  0  0  0  0  0  0  0  0  0
    6.4735  -14.6542   21.9362 N   0  0  0  0  0  0  0  0  0  0  0  0
    7.3079  -13.9855   21.1243 C   0  0  0  0  0  0  0  0  0  0  0  0
    7.4956  -12.6541   20.7868 C   0  0  0  0  0  0  0  0  0  0  0  0
    8.4454  -12.2247   19.9065 C   0  0  0  0  0  0  0  0  0  0  0  0
    9.2730  -13.1582   19.3112 C   0  0  0  0  0  0  0  0  0  0  0  0
    9.1040  -14.4912   19.6328 C   0  0  0  0  0  0  0  0  0  0  0  0
    8.1290  -14.9185   20.5346 C   0  0  0  0  0  0  0  0  0  0  0  0
   10.2325  -18.1938   21.9747 C   0  0  0  0  0  0  0  0  0  0  0  0
   10.9255  -19.2215   21.7783 O   0  0  0  0  0  0  0  0  0  0  0  0
   10.8990  -16.9986   22.3121 N   0  0  0  0  0  0  0  0  0  0  0  0
   12.3796  -16.9759   22.3236 C   0  0  1  0  0  0  0  0  0  0  0  0
   12.8219  -15.5514   22.1463 C   0  0  0  0  0  0  0  0  0  0  0  0
   12.8358  -15.1612   20.7273 C   0  0  0  0  0  0  0  0  0  0  0  0
   12.5623  -16.0624   19.7015 C   0  0  0  0  0  0  0  0  0  0  0  0
   12.6632  -15.3793   18.5497 N   0  0  0  0  0  0  0  0  0  0  0  0
   12.9822  -14.1067   18.7810 C   0  0  0  0  0  0  0  0  0  0  0  0
   13.0814  -13.9987   20.1090 N   0  0  0  0  0  0  0  0  0  0  0  0
   12.7990  -17.5132   23.6612 C   0  0  0  0  0  0  0  0  0  0  0  0
   11.9042  -17.8645   24.4568 O   0  0  0  0  0  0  0  0  0  0  0  0
   14.1193  -17.6235   24.0151 O   0  0  0  0  0  0  0  0  0  0  0  0
  2  1  1  1
  2  3  1  0
  3  4  1  0
  4  5  2  0
  5  6  1  0
  7  6  1  0
  8  7  2  0
  9  8  1  0
 10 11  1  0
 10  9  2  0
 11 12  2  0
 12  4  1  0
 12  7  1  0
 13  2  1  0
 14 13  2  0
 15 13  1  0
 16 15  1  0
 16 17  1  6
 18 26  1  0
 18 17  1  0
 19 18  2  0
 20 19  1  0
 20 21  1  0
 21 22  1  0
 21 26  2  0
 22 23  2  0
 23 24  1  0
 25 24  2  0
 26 25  1  0
 27 16  1  0
 28 27  2  0
 29 27  1  0
 30 29  1  0
 30 31  1  1
 32 31  1  0
 32 36  1  0
 33 34  1  0
 33 32  2  0
 34 35  1  0
 35 36  2  0
 37 30  1  0
 37 39  1  0
 38 37  2  0
M  END
$$$$
