WWH.pdb
     RDKit          3D

 39 43  0  0  1  0  0  0  0  0999 V2000
    8.6107  -16.9963   22.1500 N   0  0  0  0  0  0  0  0  0  0  0  0
    9.0467  -15.7013   22.5789 C   0  0  1  0  0  0  0  0  0  0  0  0
    7.9989  -14.6249   22.4565 C   0  0  0  0  0  0  0  0  0  0  0  0
    7.5104  -14.4172   21.0790 C   0  0  0  0  0  0  0  0  0  0  0  0
    6.3638  -14.9389   20.5162 C   0  0  0  0  0  0  0  0  0  0  0  0
    6.2769  -14.5448   19.2418 N   0  0  0  0  0  0  0  0  0  0  0  0
    7.3404  -13.7739   18.9507 C   0  0  0  0  0  0  0  0  0  0  0  0
    7.7478  -13.1103   17.8165 C   0  0  0  0  0  0  0  0  0  0  0  0
    8.9202  -12.3636   17.8149 C   0  0  0  0  0  0  0  0  0  0  0  0
    9.6969  -12.2733   18.9492 C   0  0  0  0  0  0  0  0  0  0  0  0
    9.2762  -12.9509   20.0982 C   0  0  0  0  0  0  0  0  0  0  0  0
    8.1264  -13.6859   20.1041 C   0  0  0  0  0  0  0  0  0  0  0  0
    9.7019  -15.7273   23.9122 C   0  0  0  0  0  0  0  0  0  0  0  0
   10.5666  -14.8403   24.2358 O   0  0  0  0  0  0  0  0  0  0  0  0
    9.3386  -16.7614   24.8143 N   0  0  0  0  0  0  0  0  0  0  0  0
    9.9292  -16.8449   26.1173 C   0  0  1  0  0  0  0  0  0  0  0  0
    9.4379  -15.7530   27.0458 C   0  0  0  0  0  0  0  0  0  0  0  0
    8.1045  -15.2563   26.6856 C   0  0  0  0  0  0  0  0  0  0  0  0
    7.0241  -16.0314   26.3554 C   0  0  0  0  0  0  0  0  0  0  0  0
    5.9967  -15.1772   26.0937 N   0  0  0  0  0  0  0  0  0  0  0  0
    6.3967  -13.9050   26.2484 C   0  0  0  0  0  0  0  0  0  0  0  0
    5.7959  -12.6622   26.1200 C   0  0  0  0  0  0  0  0  0  0  0  0
    6.4450  -11.4829   26.3421 C   0  0  0  0  0  0  0  0  0  0  0  0
    7.7754  -11.5146   26.7163 C   0  0  0  0  0  0  0  0  0  0  0  0
    8.3947  -12.7423   26.8505 C   0  0  0  0  0  0  0  0  0  0  0  0
    7.7206  -13.9419   26.6205 C   0  0  0  0  0  0  0  0  0  0  0  0
    9.6254  -18.1317   26.7961 C   0  0  0  0  0  0  0  0  0  0  0  0
    8.5093  -18.6748   26.6112 O   0  0  0  0  0  0  0  0  0  0  0  0
   10.5443  -18.7770   27.6480 N   0  0  0  0  0  0  0  0  0  0  0  0
   11.1262  -20.0738   27.2326 C   0  0  1  0  0  0  0  0  0  0  0  0
   11.3755  -20.0162   25.7525 C   0  0  0  0  0  0  0  0  0  0  0  0
   11.9771  -21.2642   25.2557 C   0  0  0  0  0  0  0  0  0  0  0  0
   12.2401  -22.3500   26.0869 C   0  0  0  0  0  0  0  0  0  0  0  0
   12.7832  -23.3052   25.3149 N   0  0  0  0  0  0  0  0  0  0  0  0
   12.8803  -22.8939   24.0516 C   0  0  0  0  0  0  0  0  0  0  0  0
   12.3851  -21.6530   24.0405 N   0  0  0  0  0  0  0  0  0  0  0  0
   12.4107  -20.2229   27.9952 C   0  0  0  0  0  0  0  0  0  0  0  0
   12.9829  -21.3313   27.9655 O   0  0  0  0  0  0  0  0  0  0  0  0
   12.9545  -19.1844   28.7069 O   0  0  0  0  0  0  0  0  0  0  0  0
  2  1  1  1
  2  3  1  0
  3  4  1  0
  4  5  2  0
  5  6  1  0
  7  6  1  0
  8  7  2  0
  9  8  1  0
 10 11  1  0
 10  9  2  0
 11 12  2  0
 12  4  1  0
 12  7  1  0
 13  2  1  0
 14 13  2  0
 15 13  1  0
 16 15  1  0
 16 17  1  1
 18 26  1  0
 18 17  1  0
 19 18  2  0
 20 19  1  0
 20 21  1  0
 21 22  1  0
 21 26  2  0
 22 23  2  0
 23 24  1  0
 25 24  2  0
 26 25  1  0
 27 16  1  0
 28 27  2  0
 29 27  1  0
 30 29  1  0
 30 31  1  6
 32 31  1  0
 32 36  1  0
 33 34  1  0
 33 32  2  0
 34 35  1  0
 35 36  2  0
 37 30  1  0
 37 39  1  0
 38 37  2  0
M  END
$$$$
