WWH.pdb
     RDKit          3D

 39 43  0  0  1  0  0  0  0  0999 V2000
    9.0385  -17.2943   21.9641 N   0  0  0  0  0  0  0  0  0  0  0  0
    9.0298  -15.9094   22.3288 C   0  0  1  0  0  0  0  0  0  0  0  0
    7.7208  -15.2099   22.0669 C   0  0  0  0  0  0  0  0  0  0  0  0
    7.3443  -15.1560   20.6405 C   0  0  0  0  0  0  0  0  0  0  0  0
    6.6258  -16.0986   19.9344 C   0  0  0  0  0  0  0  0  0  0  0  0
    6.5096  -15.7052   18.6620 N   0  0  0  0  0  0  0  0  0  0  0  0
    7.1349  -14.5235   18.5125 C   0  0  0  0  0  0  0  0  0  0  0  0
    7.3195  -13.6775   17.4434 C   0  0  0  0  0  0  0  0  0  0  0  0
    8.0207  -12.4869   17.5946 C   0  0  0  0  0  0  0  0  0  0  0  0
    8.5443  -12.1307   18.8181 C   0  0  0  0  0  0  0  0  0  0  0  0
    8.3527  -12.9960   19.9002 C   0  0  0  0  0  0  0  0  0  0  0  0
    7.6657  -14.1664   19.7562 C   0  0  0  0  0  0  0  0  0  0  0  0
    9.5530  -15.6721   23.6991 C   0  0  0  0  0  0  0  0  0  0  0  0
   10.0470  -14.5369   24.0254 O   0  0  0  0  0  0  0  0  0  0  0  0
    9.4858  -16.7390   24.6331 N   0  0  0  0  0  0  0  0  0  0  0  0
    9.8496  -16.5423   26.0051 C   0  0  1  0  0  0  0  0  0  0  0  0
    8.6671  -16.6803   26.9424 C   0  0  0  0  0  0  0  0  0  0  0  0
    7.5795  -15.7458   26.6286 C   0  0  0  0  0  0  0  0  0  0  0  0
    6.3524  -16.0868   26.1237 C   0  0  0  0  0  0  0  0  0  0  0  0
    5.6528  -14.9272   25.9828 N   0  0  0  0  0  0  0  0  0  0  0  0
    6.3967  -13.8824   26.3797 C   0  0  0  0  0  0  0  0  0  0  0  0
    6.2059  -12.5114   26.4559 C   0  0  0  0  0  0  0  0  0  0  0  0
    7.1529  -11.6412   26.9115 C   0  0  0  0  0  0  0  0  0  0  0  0
    8.3743  -12.1409   27.3230 C   0  0  0  0  0  0  0  0  0  0  0  0
    8.5866  -13.5044   27.2559 C   0  0  0  0  0  0  0  0  0  0  0  0
    7.6105  -14.3847   26.7880 C   0  0  0  0  0  0  0  0  0  0  0  0
   10.8618  -17.5263   26.4701 C   0  0  0  0  0  0  0  0  0  0  0  0
   10.9675  -18.6260   25.8748 O   0  0  0  0  0  0  0  0  0  0  0  0
   11.7180  -17.2777   27.5616 N   0  0  0  0  0  0  0  0  0  0  0  0
   12.6528  -18.3382   28.0024 C   0  0  1  0  0  0  0  0  0  0  0  0
   13.7307  -17.6921   28.8253 C   0  0  0  0  0  0  0  0  0  0  0  0
   14.5914  -18.6947   29.4736 C   0  0  0  0  0  0  0  0  0  0  0  0
   14.0756  -19.7763   30.1828 C   0  0  0  0  0  0  0  0  0  0  0  0
   15.1270  -20.4783   30.6358 N   0  0  0  0  0  0  0  0  0  0  0  0
   16.2720  -19.9111   30.2592 C   0  0  0  0  0  0  0  0  0  0  0  0
   15.9214  -18.8309   29.5555 N   0  0  0  0  0  0  0  0  0  0  0  0
   11.8432  -19.2988   28.8241 C   0  0  0  0  0  0  0  0  0  0  0  0
   10.7601  -18.8965   29.2953 O   0  0  0  0  0  0  0  0  0  0  0  0
   12.2636  -20.5829   29.0593 O   0  0  0  0  0  0  0  0  0  0  0  0
  2  1  1  1
  2  3  1  0
  3  4  1  0
  4  5  2  0
  5  6  1  0
  7  6  1  0
  8  7  2  0
  9  8  1  0
 10 11  1  0
 10  9  2  0
 11 12  2  0
 12  4  1  0
 12  7  1  0
 13  2  1  0
 14 13  2  0
 15 13  1  0
 16 15  1  0
 16 17  1  1
 18 26  1  0
 18 17  1  0
 19 18  2  0
 20 19  1  0
 20 21  1  0
 21 22  1  0
 21 26  2  0
 22 23  2  0
 23 24  1  0
 25 24  2  0
 26 25  1  0
 27 16  1  0
 28 27  2  0
 29 27  1  0
 30 29  1  0
 30 31  1  1
 32 31  1  0
 32 36  1  0
 33 34  1  0
 33 32  2  0
 34 35  1  0
 35 36  2  0
 37 30  1  0
 37 39  1  0
 38 37  2  0
M  END
$$$$
