WWH.pdb
     RDKit          3D

 39 43  0  0  1  0  0  0  0  0999 V2000
   11.1402  -15.9597   21.0083 N   0  0  0  0  0  0  0  0  0  0  0  0
    9.9729  -16.0836   21.8288 C   0  0  1  0  0  0  0  0  0  0  0  0
    8.8862  -16.9400   21.2313 C   0  0  0  0  0  0  0  0  0  0  0  0
    7.8097  -16.1719   20.5751 C   0  0  0  0  0  0  0  0  0  0  0  0
    6.6655  -16.6762   19.9921 C   0  0  0  0  0  0  0  0  0  0  0  0
    5.9476  -15.6702   19.4825 N   0  0  0  0  0  0  0  0  0  0  0  0
    6.5921  -14.5128   19.7166 C   0  0  0  0  0  0  0  0  0  0  0  0
    6.3134  -13.1972   19.4261 C   0  0  0  0  0  0  0  0  0  0  0  0
    7.1857  -12.1861   19.8118 C   0  0  0  0  0  0  0  0  0  0  0  0
    8.3462  -12.4816   20.4929 C   0  0  0  0  0  0  0  0  0  0  0  0
    8.6227  -13.8213   20.7844 C   0  0  0  0  0  0  0  0  0  0  0  0
    7.7697  -14.8175   20.4068 C   0  0  0  0  0  0  0  0  0  0  0  0
   10.2931  -16.4453   23.2339 C   0  0  0  0  0  0  0  0  0  0  0  0
   11.5079  -16.5282   23.6295 O   0  0  0  0  0  0  0  0  0  0  0  0
    9.2137  -16.6928   24.1219 N   0  0  0  0  0  0  0  0  0  0  0  0
    9.4316  -16.8100   25.5334 C   0  0  1  0  0  0  0  0  0  0  0  0
    8.1425  -16.7323   26.3259 C   0  0  0  0  0  0  0  0  0  0  0  0
    7.3947  -15.4940   26.0770 C   0  0  0  0  0  0  0  0  0  0  0  0
    6.2975  -15.3711   25.2658 C   0  0  0  0  0  0  0  0  0  0  0  0
    5.9179  -14.0646   25.3186 N   0  0  0  0  0  0  0  0  0  0  0  0
    6.7351  -13.3736   26.1292 C   0  0  0  0  0  0  0  0  0  0  0  0
    6.8230  -12.0541   26.5452 C   0  0  0  0  0  0  0  0  0  0  0  0
    7.7799  -11.5946   27.4024 C   0  0  0  0  0  0  0  0  0  0  0  0
    8.7196  -12.4831   27.8906 C   0  0  0  0  0  0  0  0  0  0  0  0
    8.6512  -13.8034   27.4894 C   0  0  0  0  0  0  0  0  0  0  0  0
    7.6680  -14.2618   26.6121 C   0  0  0  0  0  0  0  0  0  0  0  0
   10.0665  -18.1018   25.9039 C   0  0  0  0  0  0  0  0  0  0  0  0
    9.4943  -19.1765   25.5998 O   0  0  0  0  0  0  0  0  0  0  0  0
   11.2960  -18.1754   26.5889 N   0  0  0  0  0  0  0  0  0  0  0  0
   11.7829  -19.4924   27.0592 C   0  0  1  0  0  0  0  0  0  0  0  0
   13.2611  -19.3798   27.3012 C   0  0  0  0  0  0  0  0  0  0  0  0
   14.0116  -19.2931   26.0381 C   0  0  0  0  0  0  0  0  0  0  0  0
   13.4610  -19.6651   24.8144 C   0  0  0  0  0  0  0  0  0  0  0  0
   14.4096  -19.4616   23.8859 N   0  0  0  0  0  0  0  0  0  0  0  0
   15.5223  -18.9858   24.4429 C   0  0  0  0  0  0  0  0  0  0  0  0
   15.2565  -18.8922   25.7489 N   0  0  0  0  0  0  0  0  0  0  0  0
   11.0439  -19.7847   28.3329 C   0  0  0  0  0  0  0  0  0  0  0  0
   11.3409  -20.8243   28.9557 O   0  0  0  0  0  0  0  0  0  0  0  0
   10.0708  -18.9464   28.8136 O   0  0  0  0  0  0  0  0  0  0  0  0
  2  1  1  6
  2  3  1  0
  3  4  1  0
  4  5  2  0
  5  6  1  0
  7  6  1  0
  8  7  2  0
  9  8  1  0
 10 11  1  0
 10  9  2  0
 11 12  2  0
 12  4  1  0
 12  7  1  0
 13  2  1  0
 14 13  2  0
 15 13  1  0
 16 15  1  0
 16 17  1  1
 18 26  1  0
 18 17  1  0
 19 18  2  0
 20 19  1  0
 20 21  1  0
 21 22  1  0
 21 26  2  0
 22 23  2  0
 23 24  1  0
 25 24  2  0
 26 25  1  0
 27 16  1  0
 28 27  2  0
 29 27  1  0
 30 29  1  0
 30 31  1  1
 32 31  1  0
 32 36  1  0
 33 34  1  0
 33 32  2  0
 34 35  1  0
 35 36  2  0
 37 30  1  0
 37 39  1  0
 38 37  2  0
M  END
$$$$
