WWH.pdb
     RDKit          3D

 39 43  0  0  1  0  0  0  0  0999 V2000
    8.7324  -19.8996   26.3790 N   0  0  0  0  0  0  0  0  0  0  0  0
    9.1083  -18.5678   26.0100 C   0  0  1  0  0  0  0  0  0  0  0  0
   10.5202  -18.1980   26.3858 C   0  0  0  0  0  0  0  0  0  0  0  0
   10.6333  -17.5049   27.6844 C   0  0  0  0  0  0  0  0  0  0  0  0
   10.9575  -18.0680   28.9015 C   0  0  0  0  0  0  0  0  0  0  0  0
   10.9343  -17.1231   29.8469 N   0  0  0  0  0  0  0  0  0  0  0  0
   10.6026  -15.9486   29.2810 C   0  0  0  0  0  0  0  0  0  0  0  0
   10.4412  -14.6730   29.7703 C   0  0  0  0  0  0  0  0  0  0  0  0
   10.0938  -13.6275   28.9226 C   0  0  0  0  0  0  0  0  0  0  0  0
    9.9047  -13.8484   27.5760 C   0  0  0  0  0  0  0  0  0  0  0  0
   10.0704  -15.1479   27.0861 C   0  0  0  0  0  0  0  0  0  0  0  0
   10.4105  -16.1776   27.9148 C   0  0  0  0  0  0  0  0  0  0  0  0
    8.7789  -18.2478   24.5969 C   0  0  0  0  0  0  0  0  0  0  0  0
    8.6434  -19.1781   23.7279 O   0  0  0  0  0  0  0  0  0  0  0  0
    8.6171  -16.8829   24.2420 N   0  0  0  0  0  0  0  0  0  0  0  0
    8.3745  -16.4977   22.8832 C   0  0  1  0  0  0  0  0  0  0  0  0
    7.3355  -15.4007   22.7700 C   0  0  0  0  0  0  0  0  0  0  0  0
    6.8006  -14.9861   24.0725 C   0  0  0  0  0  0  0  0  0  0  0  0
    6.0540  -15.7661   24.9158 C   0  0  0  0  0  0  0  0  0  0  0  0
    5.7677  -15.0000   26.0044 N   0  0  0  0  0  0  0  0  0  0  0  0
    6.3065  -13.7777   25.8695 C   0  0  0  0  0  0  0  0  0  0  0  0
    6.3372  -12.6256   26.6399 C   0  0  0  0  0  0  0  0  0  0  0  0
    6.9760  -11.4809   26.2617 C   0  0  0  0  0  0  0  0  0  0  0  0
    7.6328  -11.4548   25.0457 C   0  0  0  0  0  0  0  0  0  0  0  0
    7.6154  -12.5919   24.2611 C   0  0  0  0  0  0  0  0  0  0  0  0
    6.9586  -13.7569   24.6584 C   0  0  0  0  0  0  0  0  0  0  0  0
    9.5962  -15.9797   22.2139 C   0  0  0  0  0  0  0  0  0  0  0  0
   10.2780  -15.0923   22.7820 O   0  0  0  0  0  0  0  0  0  0  0  0
   10.0288  -16.4450   20.9558 N   0  0  0  0  0  0  0  0  0  0  0  0
   11.4805  -16.5167   20.6725 C   0  0  1  0  0  0  0  0  0  0  0  0
   12.0974  -17.4698   21.6560 C   0  0  0  0  0  0  0  0  0  0  0  0
   13.5004  -17.7617   21.3204 C   0  0  0  0  0  0  0  0  0  0  0  0
   14.2144  -17.0202   20.3827 C   0  0  0  0  0  0  0  0  0  0  0  0
   15.4456  -17.5534   20.3246 N   0  0  0  0  0  0  0  0  0  0  0  0
   15.5554  -18.5823   21.1637 C   0  0  0  0  0  0  0  0  0  0  0  0
   14.3628  -18.6892   21.7563 N   0  0  0  0  0  0  0  0  0  0  0  0
   11.6108  -17.0261   19.2663 C   0  0  0  0  0  0  0  0  0  0  0  0
   10.6117  -17.5599   18.7430 O   0  0  0  0  0  0  0  0  0  0  0  0
   12.7826  -16.9159   18.5624 O   0  0  0  0  0  0  0  0  0  0  0  0
  2  1  1  6
  2  3  1  0
  3  4  1  0
  4  5  2  0
  5  6  1  0
  7  6  1  0
  8  7  2  0
  9  8  1  0
 10 11  1  0
 10  9  2  0
 11 12  2  0
 12  4  1  0
 12  7  1  0
 13  2  1  0
 14 13  2  0
 15 13  1  0
 16 15  1  0
 16 17  1  1
 18 26  1  0
 18 17  1  0
 19 18  2  0
 20 19  1  0
 20 21  1  0
 21 22  1  0
 21 26  2  0
 22 23  2  0
 23 24  1  0
 25 24  2  0
 26 25  1  0
 27 16  1  0
 28 27  2  0
 29 27  1  0
 30 29  1  0
 30 31  1  1
 32 31  1  0
 32 36  1  0
 33 34  1  0
 33 32  2  0
 34 35  1  0
 35 36  2  0
 37 30  1  0
 37 39  1  0
 38 37  2  0
M  END
$$$$
