WWH.pdb
     RDKit          3D

 39 43  0  0  1  0  0  0  0  0999 V2000
    8.1316  -16.1762   21.3174 N   0  0  0  0  0  0  0  0  0  0  0  0
    9.0963  -15.1653   21.6314 C   0  0  1  0  0  0  0  0  0  0  0  0
    8.6584  -13.7652   21.2860 C   0  0  0  0  0  0  0  0  0  0  0  0
    8.1945  -13.6080   19.8934 C   0  0  0  0  0  0  0  0  0  0  0  0
    7.7332  -12.4529   19.2964 C   0  0  0  0  0  0  0  0  0  0  0  0
    7.3830  -12.7164   18.0335 N   0  0  0  0  0  0  0  0  0  0  0  0
    7.6035  -14.0196   17.7831 C   0  0  0  0  0  0  0  0  0  0  0  0
    7.4329  -14.8134   16.6724 C   0  0  0  0  0  0  0  0  0  0  0  0
    7.7652  -16.1627   16.7078 C   0  0  0  0  0  0  0  0  0  0  0  0
    8.2720  -16.7313   17.8558 C   0  0  0  0  0  0  0  0  0  0  0  0
    8.4423  -15.9180   18.9808 C   0  0  0  0  0  0  0  0  0  0  0  0
    8.1166  -14.5930   18.9510 C   0  0  0  0  0  0  0  0  0  0  0  0
    9.6260  -15.2854   23.0144 C   0  0  0  0  0  0  0  0  0  0  0  0
   10.5229  -14.4800   23.4457 O   0  0  0  0  0  0  0  0  0  0  0  0
    9.1064  -16.3159   23.8409 N   0  0  0  0  0  0  0  0  0  0  0  0
    9.4814  -16.4147   25.2205 C   0  0  1  0  0  0  0  0  0  0  0  0
    8.2864  -16.6059   26.1321 C   0  0  0  0  0  0  0  0  0  0  0  0
    7.2771  -15.5514   25.9770 C   0  0  0  0  0  0  0  0  0  0  0  0
    6.0309  -15.7108   25.4306 C   0  0  0  0  0  0  0  0  0  0  0  0
    5.4248  -14.4926   25.4799 N   0  0  0  0  0  0  0  0  0  0  0  0
    6.2447  -13.5856   26.0346 C   0  0  0  0  0  0  0  0  0  0  0  0
    6.1606  -12.2336   26.3295 C   0  0  0  0  0  0  0  0  0  0  0  0
    7.1690  -11.5238   26.9131 C   0  0  0  0  0  0  0  0  0  0  0  0
    8.3448  -12.1763   27.2334 C   0  0  0  0  0  0  0  0  0  0  0  0
    8.4509  -13.5241   26.9486 C   0  0  0  0  0  0  0  0  0  0  0  0
    7.4127  -14.2397   26.3513 C   0  0  0  0  0  0  0  0  0  0  0  0
   10.3872  -17.5638   25.4810 C   0  0  0  0  0  0  0  0  0  0  0  0
   10.7535  -18.2864   24.5226 O   0  0  0  0  0  0  0  0  0  0  0  0
   10.8591  -17.8825   26.7703 N   0  0  0  0  0  0  0  0  0  0  0  0
   11.8377  -18.9823   26.9298 C   0  0  1  0  0  0  0  0  0  0  0  0
   13.2136  -18.4072   26.7489 C   0  0  0  0  0  0  0  0  0  0  0  0
   13.6716  -18.5268   25.3553 C   0  0  0  0  0  0  0  0  0  0  0  0
   12.8710  -19.0599   24.3484 C   0  0  0  0  0  0  0  0  0  0  0  0
   13.5942  -19.0200   23.2176 N   0  0  0  0  0  0  0  0  0  0  0  0
   14.7982  -18.4969   23.4445 C   0  0  0  0  0  0  0  0  0  0  0  0
   14.8215  -18.2055   24.7482 N   0  0  0  0  0  0  0  0  0  0  0  0
   11.6496  -19.5155   28.3205 C   0  0  0  0  0  0  0  0  0  0  0  0
   11.0005  -18.8220   29.1296 O   0  0  0  0  0  0  0  0  0  0  0  0
   12.1664  -20.7254   28.7077 O   0  0  0  0  0  0  0  0  0  0  0  0
  2  1  1  1
  2  3  1  0
  3  4  1  0
  4  5  2  0
  5  6  1  0
  7  6  1  0
  8  7  2  0
  9  8  1  0
 10 11  1  0
 10  9  2  0
 11 12  2  0
 12  4  1  0
 12  7  1  0
 13  2  1  0
 14 13  2  0
 15 13  1  0
 16 15  1  0
 16 17  1  1
 18 26  1  0
 18 17  1  0
 19 18  2  0
 20 19  1  0
 20 21  1  0
 21 22  1  0
 21 26  2  0
 22 23  2  0
 23 24  1  0
 25 24  2  0
 26 25  1  0
 27 16  1  0
 28 27  2  0
 29 27  1  0
 30 29  1  0
 30 31  1  1
 32 31  1  0
 32 36  1  0
 33 34  1  0
 33 32  2  0
 34 35  1  0
 35 36  2  0
 37 30  1  0
 37 39  1  0
 38 37  2  0
M  END
$$$$
