WWH.pdb
     RDKit          3D

 39 43  0  0  1  0  0  0  0  0999 V2000
   10.5260  -15.6829   21.3150 N   0  0  0  0  0  0  0  0  0  0  0  0
    9.4626  -16.0032   22.2192 C   0  0  1  0  0  0  0  0  0  0  0  0
    8.2964  -16.7087   21.5760 C   0  0  0  0  0  0  0  0  0  0  0  0
    7.4906  -15.8481   20.6875 C   0  0  0  0  0  0  0  0  0  0  0  0
    6.3283  -16.1913   20.0283 C   0  0  0  0  0  0  0  0  0  0  0  0
    5.9083  -15.1516   19.3004 N   0  0  0  0  0  0  0  0  0  0  0  0
    6.7672  -14.1293   19.4649 C   0  0  0  0  0  0  0  0  0  0  0  0
    6.8196  -12.8466   18.9703 C   0  0  0  0  0  0  0  0  0  0  0  0
    7.8514  -11.9887   19.3332 C   0  0  0  0  0  0  0  0  0  0  0  0
    8.8414  -12.4062   20.1955 C   0  0  0  0  0  0  0  0  0  0  0  0
    8.7814  -13.7116   20.6939 C   0  0  0  0  0  0  0  0  0  0  0  0
    7.7708  -14.5577   20.3396 C   0  0  0  0  0  0  0  0  0  0  0  0
    9.9410  -16.6763   23.4545 C   0  0  0  0  0  0  0  0  0  0  0  0
   11.1774  -16.9737   23.6028 O   0  0  0  0  0  0  0  0  0  0  0  0
    8.9881  -16.9759   24.4630 N   0  0  0  0  0  0  0  0  0  0  0  0
    9.3599  -16.9958   25.8468 C   0  0  1  0  0  0  0  0  0  0  0  0
    8.1749  -16.7846   26.7670 C   0  0  0  0  0  0  0  0  0  0  0  0
    7.3968  -15.5870   26.4280 C   0  0  0  0  0  0  0  0  0  0  0  0
    6.2075  -15.5715   25.7482 C   0  0  0  0  0  0  0  0  0  0  0  0
    5.8316  -14.2666   25.6496 N   0  0  0  0  0  0  0  0  0  0  0  0
    6.7396  -13.4736   26.2406 C   0  0  0  0  0  0  0  0  0  0  0  0
    6.8724  -12.1080   26.4391 C   0  0  0  0  0  0  0  0  0  0  0  0
    7.9256  -11.5389   27.0935 C   0  0  0  0  0  0  0  0  0  0  0  0
    8.9222  -12.3575   27.5911 C   0  0  0  0  0  0  0  0  0  0  0  0
    8.8106  -13.7219   27.4049 C   0  0  0  0  0  0  0  0  0  0  0  0
    7.7287  -14.2926   26.7338 C   0  0  0  0  0  0  0  0  0  0  0  0
    9.9712  -18.2888   26.2513 C   0  0  0  0  0  0  0  0  0  0  0  0
    9.2473  -19.1760   26.7649 O   0  0  0  0  0  0  0  0  0  0  0  0
   11.3425  -18.5669   26.0823 N   0  0  0  0  0  0  0  0  0  0  0  0
   11.8902  -19.8412   26.6012 C   0  0  1  0  0  0  0  0  0  0  0  0
   13.3108  -19.9610   26.1280 C   0  0  0  0  0  0  0  0  0  0  0  0
   13.3824  -20.1380   24.6686 C   0  0  0  0  0  0  0  0  0  0  0  0
   12.2634  -20.4382   23.8962 C   0  0  0  0  0  0  0  0  0  0  0  0
   12.6848  -20.5301   22.6245 N   0  0  0  0  0  0  0  0  0  0  0  0
   13.9958  -20.3077   22.5435 C   0  0  0  0  0  0  0  0  0  0  0  0
   14.3965  -20.0721   23.7961 N   0  0  0  0  0  0  0  0  0  0  0  0
   11.8212  -19.7510   28.0981 C   0  0  0  0  0  0  0  0  0  0  0  0
   11.6167  -20.8023   28.7383 O   0  0  0  0  0  0  0  0  0  0  0  0
   11.9772  -18.5596   28.7592 O   0  0  0  0  0  0  0  0  0  0  0  0
  2  1  1  6
  2  3  1  0
  3  4  1  0
  4  5  2  0
  5  6  1  0
  7  6  1  0
  8  7  2  0
  9  8  1  0
 10 11  1  0
 10  9  2  0
 11 12  2  0
 12  4  1  0
 12  7  1  0
 13  2  1  0
 14 13  2  0
 15 13  1  0
 16 15  1  0
 16 17  1  1
 18 26  1  0
 18 17  1  0
 19 18  2  0
 20 19  1  0
 20 21  1  0
 21 22  1  0
 21 26  2  0
 22 23  2  0
 23 24  1  0
 25 24  2  0
 26 25  1  0
 27 16  1  0
 28 27  2  0
 29 27  1  0
 30 29  1  0
 30 31  1  1
 32 31  1  0
 32 36  1  0
 33 34  1  0
 33 32  2  0
 34 35  1  0
 35 36  2  0
 37 30  1  0
 37 39  1  0
 38 37  2  0
M  END
$$$$
