FTG.pdb
     RDKit          3D

 23 23  0  0  1  0  0  0  0  0999 V2000
    5.9995  -16.9239   25.6974 N   0  0  0  0  0  0  0  0  0  0  0  0
    6.9281  -15.9783   25.1511 C   0  0  1  0  0  0  0  0  0  0  0  0
    7.6063  -15.2693   26.2945 C   0  0  0  0  0  0  0  0  0  0  0  0
    7.1629  -13.8969   26.4839 C   0  0  0  0  0  0  0  0  0  0  0  0
    7.9452  -12.8498   26.0393 C   0  0  0  0  0  0  0  0  0  0  0  0
    7.5767  -11.5230   26.1908 C   0  0  0  0  0  0  0  0  0  0  0  0
    6.3730  -11.2151   26.8139 C   0  0  0  0  0  0  0  0  0  0  0  0
    5.5692  -12.2408   27.2692 C   0  0  0  0  0  0  0  0  0  0  0  0
    5.9645  -13.5506   27.1031 C   0  0  0  0  0  0  0  0  0  0  0  0
    7.9098  -16.6538   24.2942 C   0  0  0  0  0  0  0  0  0  0  0  0
    8.2266  -17.8657   24.5070 O   0  0  0  0  0  0  0  0  0  0  0  0
    7.7391  -16.5210   20.5800 C   0  0  0  0  0  0  0  0  0  0  0  0
    9.2146  -16.4606   20.8789 C   0  0  1  0  0  0  0  0  0  0  0  0
    9.7383  -15.2157   20.5550 O   0  0  0  0  0  0  0  0  0  0  0  0
    9.5061  -16.7467   22.3374 C   0  0  2  0  0  0  0  0  0  0  0  0
    8.5621  -16.0267   23.1951 N   0  0  0  0  0  0  0  0  0  0  0  0
   10.8804  -16.3624   22.7371 C   0  0  0  0  0  0  0  0  0  0  0  0
   11.0887  -15.1606   23.0596 O   0  0  0  0  0  0  0  0  0  0  0  0
   11.9763  -17.2652   22.7794 N   0  0  0  0  0  0  0  0  0  0  0  0
   13.2421  -16.8087   23.3098 C   0  0  0  0  0  0  0  0  0  0  0  0
   14.2341  -16.6033   22.2033 C   0  0  0  0  0  0  0  0  0  0  0  0
   13.8867  -16.4214   21.0222 O   0  0  0  0  0  0  0  0  0  0  0  0
   15.5891  -16.6147   22.4967 O   0  0  0  0  0  0  0  0  0  0  0  0
  2  1  1  1
  2 10  1  0
  3  2  1  0
  4  5  2  0
  4  3  1  0
  6  5  1  0
  7  6  2  0
  8  7  1  0
  8  9  2  0
  9  4  1  0
 10 11  2  0
 10 16  1  0
 13 12  1  1
 13 14  1  0
 15 13  1  0
 15 16  1  1
 17 15  1  0
 17 18  2  0
 19 17  1  0
 20 19  1  0
 20 21  1  0
 21 23  1  0
 22 21  2  0
M  END
$$$$
