FTG.pdb
     RDKit          3D

 23 23  0  0  1  0  0  0  0  0999 V2000
    6.5937  -17.1281   26.2012 N   0  0  0  0  0  0  0  0  0  0  0  0
    7.1396  -16.0729   25.3991 C   0  0  1  0  0  0  0  0  0  0  0  0
    7.8555  -15.1101   26.3105 C   0  0  0  0  0  0  0  0  0  0  0  0
    7.1290  -13.8727   26.5493 C   0  0  0  0  0  0  0  0  0  0  0  0
    7.7604  -12.8067   27.1586 C   0  0  0  0  0  0  0  0  0  0  0  0
    7.1218  -11.6038   27.4124 C   0  0  0  0  0  0  0  0  0  0  0  0
    5.7906  -11.4462   27.0452 C   0  0  0  0  0  0  0  0  0  0  0  0
    5.1323  -12.4945   26.4340 C   0  0  0  0  0  0  0  0  0  0  0  0
    5.7961  -13.6785   26.1955 C   0  0  0  0  0  0  0  0  0  0  0  0
    8.0517  -16.6139   24.3843 C   0  0  0  0  0  0  0  0  0  0  0  0
    8.5474  -17.7763   24.5161 O   0  0  0  0  0  0  0  0  0  0  0  0
    7.4858  -16.5436   20.6105 C   0  0  0  0  0  0  0  0  0  0  0  0
    8.9256  -16.1573   20.8299 C   0  0  1  0  0  0  0  0  0  0  0  0
    9.1224  -14.8053   20.5803 O   0  0  0  0  0  0  0  0  0  0  0  0
    9.3822  -16.4633   22.2412 C   0  0  2  0  0  0  0  0  0  0  0  0
    8.4396  -15.9040   23.2129 N   0  0  0  0  0  0  0  0  0  0  0  0
   10.7299  -15.9247   22.5409 C   0  0  0  0  0  0  0  0  0  0  0  0
   10.8052  -14.7989   23.1054 O   0  0  0  0  0  0  0  0  0  0  0  0
   11.9410  -16.5996   22.2318 N   0  0  0  0  0  0  0  0  0  0  0  0
   13.2003  -15.9636   22.5504 C   0  0  0  0  0  0  0  0  0  0  0  0
   14.3489  -16.7845   22.0429 C   0  0  0  0  0  0  0  0  0  0  0  0
   14.1866  -17.8883   21.4917 O   0  0  0  0  0  0  0  0  0  0  0  0
   15.6416  -16.3048   22.1884 O   0  0  0  0  0  0  0  0  0  0  0  0
  2  1  1  1
  2 10  1  0
  3  2  1  0
  4  5  2  0
  4  3  1  0
  6  5  1  0
  7  6  2  0
  8  7  1  0
  8  9  2  0
  9  4  1  0
 10 11  2  0
 10 16  1  0
 13 12  1  1
 13 14  1  0
 15 13  1  0
 15 16  1  1
 17 15  1  0
 17 18  2  0
 19 17  1  0
 20 19  1  0
 20 21  1  0
 21 23  1  0
 22 21  2  0
M  END
$$$$
