FTG.pdb
     RDKit          3D

 23 23  0  0  1  0  0  0  0  0999 V2000
    6.7064  -16.5289   25.7248 N   0  0  0  0  0  0  0  0  0  0  0  0
    7.6536  -15.7336   25.0001 C   0  0  1  0  0  0  0  0  0  0  0  0
    8.2359  -14.7157   25.9462 C   0  0  0  0  0  0  0  0  0  0  0  0
    7.4046  -13.5360   26.1282 C   0  0  0  0  0  0  0  0  0  0  0  0
    7.2216  -13.0071   27.3903 C   0  0  0  0  0  0  0  0  0  0  0  0
    6.4421  -11.8865   27.6267 C   0  0  0  0  0  0  0  0  0  0  0  0
    5.8109  -11.2561   26.5609 C   0  0  0  0  0  0  0  0  0  0  0  0
    5.9750  -11.7617   25.2869 C   0  0  0  0  0  0  0  0  0  0  0  0
    6.7572  -12.8784   25.0852 C   0  0  0  0  0  0  0  0  0  0  0  0
    8.7058  -16.5796   24.4246 C   0  0  0  0  0  0  0  0  0  0  0  0
    9.0236  -17.6792   24.9760 O   0  0  0  0  0  0  0  0  0  0  0  0
    8.9124  -17.8685   20.9084 C   0  0  0  0  0  0  0  0  0  0  0  0
   10.2810  -17.3204   21.2193 C   0  0  1  0  0  0  0  0  0  0  0  0
   10.4940  -16.1126   20.5675 O   0  0  0  0  0  0  0  0  0  0  0  0
   10.4804  -17.1128   22.7063 C   0  0  2  0  0  0  0  0  0  0  0  0
    9.4286  -16.2468   23.2440 N   0  0  0  0  0  0  0  0  0  0  0  0
   11.7920  -16.5054   23.0331 C   0  0  0  0  0  0  0  0  0  0  0  0
   11.8314  -15.2632   23.2500 O   0  0  0  0  0  0  0  0  0  0  0  0
   13.0065  -17.2373   23.1175 N   0  0  0  0  0  0  0  0  0  0  0  0
   14.2330  -16.5307   23.4148 C   0  0  0  0  0  0  0  0  0  0  0  0
   15.4096  -17.4574   23.3289 C   0  0  0  0  0  0  0  0  0  0  0  0
   15.2810  -18.6833   23.1573 O   0  0  0  0  0  0  0  0  0  0  0  0
   16.6905  -16.9394   23.4434 O   0  0  0  0  0  0  0  0  0  0  0  0
  2  1  1  1
  2 10  1  0
  3  2  1  0
  4  5  2  0
  4  3  1  0
  6  5  1  0
  7  6  2  0
  8  7  1  0
  8  9  2  0
  9  4  1  0
 10 11  2  0
 10 16  1  0
 13 12  1  1
 13 14  1  0
 15 13  1  0
 15 16  1  6
 17 15  1  0
 17 18  2  0
 19 17  1  0
 20 19  1  0
 20 21  1  0
 21 23  1  0
 22 21  2  0
M  END
$$$$
