FTG.pdb
     RDKit          3D

 23 23  0  0  1  0  0  0  0  0999 V2000
    6.7062  -16.1859   26.0618 N   0  0  0  0  0  0  0  0  0  0  0  0
    7.1870  -15.3680   24.9873 C   0  0  1  0  0  0  0  0  0  0  0  0
    7.9930  -14.2402   25.5777 C   0  0  0  0  0  0  0  0  0  0  0  0
    7.1935  -13.2473   26.2782 C   0  0  0  0  0  0  0  0  0  0  0  0
    6.0392  -12.7565   25.7011 C   0  0  0  0  0  0  0  0  0  0  0  0
    5.2370  -11.8109   26.3186 C   0  0  0  0  0  0  0  0  0  0  0  0
    5.5938  -11.3251   27.5710 C   0  0  0  0  0  0  0  0  0  0  0  0
    6.7426  -11.7968   28.1736 C   0  0  0  0  0  0  0  0  0  0  0  0
    7.5193  -12.7379   27.5327 C   0  0  0  0  0  0  0  0  0  0  0  0
    7.9968  -16.1620   24.0556 C   0  0  0  0  0  0  0  0  0  0  0  0
    8.5041  -17.2676   24.4221 O   0  0  0  0  0  0  0  0  0  0  0  0
    7.5233  -16.3367   20.0862 C   0  0  0  0  0  0  0  0  0  0  0  0
    8.9872  -16.2069   20.4183 C   0  0  1  0  0  0  0  0  0  0  0  0
    9.4620  -14.9430   20.0925 O   0  0  0  0  0  0  0  0  0  0  0  0
    9.2569  -16.4648   21.8862 C   0  0  2  0  0  0  0  0  0  0  0  0
    8.2685  -15.7700   22.7142 N   0  0  0  0  0  0  0  0  0  0  0  0
   10.6070  -16.0252   22.3104 C   0  0  0  0  0  0  0  0  0  0  0  0
   10.7151  -14.8971   22.8650 O   0  0  0  0  0  0  0  0  0  0  0  0
   11.7858  -16.7973   22.1311 N   0  0  0  0  0  0  0  0  0  0  0  0
   13.0394  -16.2959   22.6498 C   0  0  0  0  0  0  0  0  0  0  0  0
   14.1426  -17.2835   22.4088 C   0  0  0  0  0  0  0  0  0  0  0  0
   13.9209  -18.4836   22.1651 O   0  0  0  0  0  0  0  0  0  0  0  0
   15.4599  -16.8538   22.4569 O   0  0  0  0  0  0  0  0  0  0  0  0
  2  1  1  1
  2 10  1  0
  3  2  1  0
  4  5  2  0
  4  3  1  0
  6  5  1  0
  7  6  2  0
  8  7  1  0
  8  9  2  0
  9  4  1  0
 10 11  2  0
 10 16  1  0
 13 12  1  1
 13 14  1  0
 15 13  1  0
 15 16  1  1
 17 15  1  0
 17 18  2  0
 19 17  1  0
 20 19  1  0
 20 21  1  0
 21 23  1  0
 22 21  2  0
M  END
$$$$
