FTG.pdb
     RDKit          3D

 23 23  0  0  1  0  0  0  0  0999 V2000
    8.0179  -14.1349   21.1977 N   0  0  0  0  0  0  0  0  0  0  0  0
    8.1693  -13.9674   22.6133 C   0  0  1  0  0  0  0  0  0  0  0  0
    7.0517  -13.0849   23.1056 C   0  0  0  0  0  0  0  0  0  0  0  0
    7.0417  -12.8948   24.5477 C   0  0  0  0  0  0  0  0  0  0  0  0
    8.1394  -12.3464   25.1805 C   0  0  0  0  0  0  0  0  0  0  0  0
    8.1892  -12.1409   26.5496 C   0  0  0  0  0  0  0  0  0  0  0  0
    7.0979  -12.4957   27.3339 C   0  0  0  0  0  0  0  0  0  0  0  0
    5.9856  -13.0464   26.7297 C   0  0  0  0  0  0  0  0  0  0  0  0
    5.9676  -13.2380   25.3650 C   0  0  0  0  0  0  0  0  0  0  0  0
    8.1508  -15.2684   23.2926 C   0  0  0  0  0  0  0  0  0  0  0  0
    7.3762  -16.1934   22.8946 O   0  0  0  0  0  0  0  0  0  0  0  0
    8.9450  -17.8254   22.5123 C   0  0  0  0  0  0  0  0  0  0  0  0
    9.8205  -17.7770   23.7376 C   0  0  1  0  0  0  0  0  0  0  0  0
   11.0638  -17.2340   23.4407 O   0  0  0  0  0  0  0  0  0  0  0  0
    9.1884  -16.9665   24.8501 C   0  0  2  0  0  0  0  0  0  0  0  0
    8.9708  -15.5858   24.4123 N   0  0  0  0  0  0  0  0  0  0  0  0
   10.0119  -16.9371   26.0818 C   0  0  0  0  0  0  0  0  0  0  0  0
   10.9995  -16.1527   26.1148 O   0  0  0  0  0  0  0  0  0  0  0  0
    9.7559  -17.7379   27.2268 N   0  0  0  0  0  0  0  0  0  0  0  0
   10.5333  -17.5169   28.4263 C   0  0  0  0  0  0  0  0  0  0  0  0
   11.1181  -18.8069   28.9208 C   0  0  0  0  0  0  0  0  0  0  0  0
   11.6881  -18.9008   30.0231 O   0  0  0  0  0  0  0  0  0  0  0  0
   11.0252  -19.9411   28.1288 O   0  0  0  0  0  0  0  0  0  0  0  0
  2  1  1  6
  2 10  1  0
  3  2  1  0
  4  5  2  0
  4  3  1  0
  6  5  1  0
  7  6  2  0
  8  7  1  0
  8  9  2  0
  9  4  1  0
 10 11  2  0
 10 16  1  0
 13 12  1  6
 13 14  1  0
 15 13  1  0
 15 16  1  6
 17 15  1  0
 17 18  2  0
 19 17  1  0
 20 19  1  0
 20 21  1  0
 21 23  1  0
 22 21  2  0
M  END
$$$$
