FTG.pdb
     RDKit          3D

 23 23  0  0  1  0  0  0  0  0999 V2000
    6.1912  -16.1935   25.4261 N   0  0  0  0  0  0  0  0  0  0  0  0
    7.0262  -15.5053   24.4859 C   0  0  1  0  0  0  0  0  0  0  0  0
    7.9885  -14.6389   25.2562 C   0  0  0  0  0  0  0  0  0  0  0  0
    7.3634  -13.4998   25.9100 C   0  0  0  0  0  0  0  0  0  0  0  0
    7.8637  -12.2283   25.7116 C   0  0  0  0  0  0  0  0  0  0  0  0
    7.3118  -11.1054   26.3062 C   0  0  0  0  0  0  0  0  0  0  0  0
    6.2086  -11.2461   27.1398 C   0  0  0  0  0  0  0  0  0  0  0  0
    5.6857  -12.5049   27.3575 C   0  0  0  0  0  0  0  0  0  0  0  0
    6.2580  -13.6022   26.7509 C   0  0  0  0  0  0  0  0  0  0  0  0
    7.7444  -16.4620   23.6354 C   0  0  0  0  0  0  0  0  0  0  0  0
    7.1919  -17.5486   23.2774 O   0  0  0  0  0  0  0  0  0  0  0  0
    7.0668  -15.3763   21.4665 C   0  0  0  0  0  0  0  0  0  0  0  0
    8.4932  -15.2926   20.9885 C   0  0  1  0  0  0  0  0  0  0  0  0
    8.9948  -14.0063   21.1393 O   0  0  0  0  0  0  0  0  0  0  0  0
    9.3941  -16.2566   21.7323 C   0  0  2  0  0  0  0  0  0  0  0  0
    9.0706  -16.2553   23.1608 N   0  0  0  0  0  0  0  0  0  0  0  0
   10.8327  -15.9333   21.5833 C   0  0  0  0  0  0  0  0  0  0  0  0
   11.3328  -15.9792   20.4259 O   0  0  0  0  0  0  0  0  0  0  0  0
   11.6815  -15.5746   22.6643 N   0  0  0  0  0  0  0  0  0  0  0  0
   12.8508  -16.3813   22.9366 C   0  0  0  0  0  0  0  0  0  0  0  0
   12.8073  -16.9167   24.3373 C   0  0  0  0  0  0  0  0  0  0  0  0
   11.7426  -17.0457   24.9686 O   0  0  0  0  0  0  0  0  0  0  0  0
   13.9905  -17.2841   24.9598 O   0  0  0  0  0  0  0  0  0  0  0  0
  2  1  1  1
  2 10  1  0
  3  2  1  0
  4  5  2  0
  4  3  1  0
  6  5  1  0
  7  6  2  0
  8  7  1  0
  8  9  2  0
  9  4  1  0
 10 11  2  0
 10 16  1  0
 13 12  1  1
 13 14  1  0
 15 13  1  0
 15 16  1  1
 17 15  1  0
 17 18  2  0
 19 17  1  0
 20 19  1  0
 20 21  1  0
 21 23  1  0
 22 21  2  0
M  END
$$$$
