FTG.pdb
     RDKit          3D

 23 23  0  0  1  0  0  0  0  0999 V2000
    6.0919  -17.7808   25.9048 N   0  0  0  0  0  0  0  0  0  0  0  0
    6.6069  -16.5009   25.5158 C   0  0  1  0  0  0  0  0  0  0  0  0
    7.2451  -15.8631   26.7225 C   0  0  0  0  0  0  0  0  0  0  0  0
    7.2283  -14.4087   26.6994 C   0  0  0  0  0  0  0  0  0  0  0  0
    6.0660  -13.7258   26.9975 C   0  0  0  0  0  0  0  0  0  0  0  0
    5.9880  -12.3427   26.9921 C   0  0  0  0  0  0  0  0  0  0  0  0
    7.1167  -11.5959   26.6759 C   0  0  0  0  0  0  0  0  0  0  0  0
    8.2938  -12.2505   26.3733 C   0  0  0  0  0  0  0  0  0  0  0  0
    8.3385  -13.6280   26.3875 C   0  0  0  0  0  0  0  0  0  0  0  0
    7.5754  -16.6440   24.4222 C   0  0  0  0  0  0  0  0  0  0  0  0
    8.4370  -17.5775   24.4413 O   0  0  0  0  0  0  0  0  0  0  0  0
    6.6445  -15.6101   20.6923 C   0  0  0  0  0  0  0  0  0  0  0  0
    8.1006  -15.3126   20.9403 C   0  0  1  0  0  0  0  0  0  0  0  0
    8.3233  -13.9440   21.0192 O   0  0  0  0  0  0  0  0  0  0  0  0
    8.5990  -15.9612   22.2150 C   0  0  2  0  0  0  0  0  0  0  0  0
    7.6243  -15.7785   23.2929 N   0  0  0  0  0  0  0  0  0  0  0  0
    9.8995  -15.4151   22.6697 C   0  0  0  0  0  0  0  0  0  0  0  0
    9.8849  -14.4191   23.4439 O   0  0  0  0  0  0  0  0  0  0  0  0
   11.1603  -15.9458   22.2870 N   0  0  0  0  0  0  0  0  0  0  0  0
   12.3632  -15.3742   22.8513 C   0  0  0  0  0  0  0  0  0  0  0  0
   13.5766  -16.1039   22.3553 C   0  0  0  0  0  0  0  0  0  0  0  0
   13.4975  -17.1143   21.6331 O   0  0  0  0  0  0  0  0  0  0  0  0
   14.8359  -15.6439   22.7086 O   0  0  0  0  0  0  0  0  0  0  0  0
  2  1  1  1
  2 10  1  0
  3  2  1  0
  4  5  2  0
  4  3  1  0
  6  5  1  0
  7  6  2  0
  8  7  1  0
  8  9  2  0
  9  4  1  0
 10 11  2  0
 10 16  1  0
 13 12  1  1
 13 14  1  0
 15 13  1  0
 15 16  1  1
 17 15  1  0
 17 18  2  0
 19 17  1  0
 20 19  1  0
 20 21  1  0
 21 23  1  0
 22 21  2  0
M  END
$$$$
