FTG.pdb
     RDKit          3D

 23 23  0  0  1  0  0  0  0  0999 V2000
    8.4327  -16.8957   22.2674 N   0  0  0  0  0  0  0  0  0  0  0  0
    9.6868  -16.2365   22.0491 C   0  0  1  0  0  0  0  0  0  0  0  0
    9.5284  -14.7860   22.4246 C   0  0  0  0  0  0  0  0  0  0  0  0
    8.6456  -14.0407   21.5408 C   0  0  0  0  0  0  0  0  0  0  0  0
    9.1460  -13.4603   20.3924 C   0  0  0  0  0  0  0  0  0  0  0  0
    8.3556  -12.7391   19.5124 C   0  0  0  0  0  0  0  0  0  0  0  0
    7.0009  -12.5834   19.7813 C   0  0  0  0  0  0  0  0  0  0  0  0
    6.4714  -13.1523   20.9221 C   0  0  0  0  0  0  0  0  0  0  0  0
    7.2847  -13.8639   21.7775 C   0  0  0  0  0  0  0  0  0  0  0  0
   10.7488  -16.8716   22.8384 C   0  0  0  0  0  0  0  0  0  0  0  0
   10.4760  -17.8092   23.6511 O   0  0  0  0  0  0  0  0  0  0  0  0
   11.7077  -19.3523   22.1760 C   0  0  0  0  0  0  0  0  0  0  0  0
   13.0034  -18.6242   21.9287 C   0  0  1  0  0  0  0  0  0  0  0  0
   13.0551  -18.1244   20.6340 O   0  0  0  0  0  0  0  0  0  0  0  0
   13.2008  -17.4795   22.9006 C   0  0  2  0  0  0  0  0  0  0  0  0
   12.1209  -16.5003   22.7586 N   0  0  0  0  0  0  0  0  0  0  0  0
   14.4912  -16.7764   22.7092 C   0  0  0  0  0  0  0  0  0  0  0  0
   14.5907  -15.9757   21.7393 O   0  0  0  0  0  0  0  0  0  0  0  0
   15.6217  -16.9490   23.5518 N   0  0  0  0  0  0  0  0  0  0  0  0
   16.4067  -15.7912   23.9197 C   0  0  0  0  0  0  0  0  0  0  0  0
   17.6057  -16.2007   24.7230 C   0  0  0  0  0  0  0  0  0  0  0  0
   17.7439  -17.3523   25.1740 O   0  0  0  0  0  0  0  0  0  0  0  0
   18.6013  -15.2700   24.9776 O   0  0  0  0  0  0  0  0  0  0  0  0
  2  1  1  1
  2 10  1  0
  3  2  1  0
  4  5  2  0
  4  3  1  0
  6  5  1  0
  7  6  2  0
  8  7  1  0
  8  9  2  0
  9  4  1  0
 10 11  2  0
 10 16  1  0
 13 12  1  1
 13 14  1  0
 15 13  1  0
 15 16  1  6
 17 15  1  0
 17 18  2  0
 19 17  1  0
 20 19  1  0
 20 21  1  0
 21 23  1  0
 22 21  2  0
M  END
$$$$
