FTG.pdb
     RDKit          3D

 23 23  0  0  1  0  0  0  0  0999 V2000
    6.5841  -16.5513   25.7708 N   0  0  0  0  0  0  0  0  0  0  0  0
    7.3141  -15.6974   24.8803 C   0  0  1  0  0  0  0  0  0  0  0  0
    8.0370  -14.6642   25.7051 C   0  0  0  0  0  0  0  0  0  0  0  0
    7.1720  -13.6218   26.2352 C   0  0  0  0  0  0  0  0  0  0  0  0
    7.7201  -12.5242   26.8685 C   0  0  0  0  0  0  0  0  0  0  0  0
    6.9488  -11.5001   27.3933 C   0  0  0  0  0  0  0  0  0  0  0  0
    5.5645  -11.5639   27.2868 C   0  0  0  0  0  0  0  0  0  0  0  0
    4.9871  -12.6491   26.6587 C   0  0  0  0  0  0  0  0  0  0  0  0
    5.7825  -13.6516   26.1471 C   0  0  0  0  0  0  0  0  0  0  0  0
    8.2570  -16.4791   24.0716 C   0  0  0  0  0  0  0  0  0  0  0  0
    7.8703  -17.5218   23.4573 O   0  0  0  0  0  0  0  0  0  0  0  0
    8.4038  -16.5003   21.4144 C   0  0  0  0  0  0  0  0  0  0  0  0
    9.8941  -16.2925   21.4904 C   0  0  1  0  0  0  0  0  0  0  0  0
   10.2249  -14.9647   21.2531 O   0  0  0  0  0  0  0  0  0  0  0  0
   10.4517  -16.6996   22.8385 C   0  0  2  0  0  0  0  0  0  0  0  0
    9.6317  -16.1427   23.9168 N   0  0  0  0  0  0  0  0  0  0  0  0
   11.8501  -16.2534   23.0429 C   0  0  0  0  0  0  0  0  0  0  0  0
   12.0489  -15.0396   23.3240 O   0  0  0  0  0  0  0  0  0  0  0  0
   12.9790  -17.1096   22.9421 N   0  0  0  0  0  0  0  0  0  0  0  0
   14.1474  -16.8288   23.7471 C   0  0  0  0  0  0  0  0  0  0  0  0
   15.3368  -16.5584   22.8738 C   0  0  0  0  0  0  0  0  0  0  0  0
   15.2816  -16.6281   21.6325 O   0  0  0  0  0  0  0  0  0  0  0  0
   16.5457  -16.2176   23.4611 O   0  0  0  0  0  0  0  0  0  0  0  0
  2  1  1  1
  2 10  1  0
  3  2  1  0
  4  5  2  0
  4  3  1  0
  6  5  1  0
  7  6  2  0
  8  7  1  0
  8  9  2  0
  9  4  1  0
 10 11  2  0
 10 16  1  0
 13 12  1  1
 13 14  1  0
 15 13  1  0
 15 16  1  1
 17 15  1  0
 17 18  2  0
 19 17  1  0
 20 19  1  0
 20 21  1  0
 21 23  1  0
 22 21  2  0
M  END
$$$$
