FTG.pdb
     RDKit          3D

 23 23  0  0  1  0  0  0  0  0999 V2000
    6.6619  -16.1894   25.8726 N   0  0  0  0  0  0  0  0  0  0  0  0
    7.0825  -15.4213   24.7377 C   0  0  1  0  0  0  0  0  0  0  0  0
    7.8667  -14.2351   25.2359 C   0  0  0  0  0  0  0  0  0  0  0  0
    7.0911  -13.3173   26.0558 C   0  0  0  0  0  0  0  0  0  0  0  0
    5.7127  -13.3946   26.0653 C   0  0  0  0  0  0  0  0  0  0  0  0
    4.9207  -12.5490   26.8248 C   0  0  0  0  0  0  0  0  0  0  0  0
    5.5218  -11.5770   27.6157 C   0  0  0  0  0  0  0  0  0  0  0  0
    6.8984  -11.4752   27.6271 C   0  0  0  0  0  0  0  0  0  0  0  0
    7.6582  -12.3318   26.8600 C   0  0  0  0  0  0  0  0  0  0  0  0
    7.8909  -16.2424   23.8286 C   0  0  0  0  0  0  0  0  0  0  0  0
    7.5077  -17.4078   23.4985 O   0  0  0  0  0  0  0  0  0  0  0  0
    7.2358  -16.2899   21.2224 C   0  0  0  0  0  0  0  0  0  0  0  0
    8.6643  -15.9673   20.8680 C   0  0  1  0  0  0  0  0  0  0  0  0
    8.8130  -14.6175   20.5767 O   0  0  0  0  0  0  0  0  0  0  0  0
    9.6184  -16.3319   21.9864 C   0  0  2  0  0  0  0  0  0  0  0  0
    9.1254  -15.8130   23.2643 N   0  0  0  0  0  0  0  0  0  0  0  0
   10.9873  -15.8069   21.7709 C   0  0  0  0  0  0  0  0  0  0  0  0
   11.1078  -14.6679   21.2417 O   0  0  0  0  0  0  0  0  0  0  0  0
   12.1710  -16.5081   22.1246 N   0  0  0  0  0  0  0  0  0  0  0  0
   13.1876  -15.8259   22.8948 C   0  0  0  0  0  0  0  0  0  0  0  0
   14.3579  -16.7313   23.1421 C   0  0  0  0  0  0  0  0  0  0  0  0
   14.2268  -17.8766   23.6112 O   0  0  0  0  0  0  0  0  0  0  0  0
   15.6356  -16.2856   22.8404 O   0  0  0  0  0  0  0  0  0  0  0  0
  2  1  1  1
  2 10  1  0
  3  2  1  0
  4  5  2  0
  4  3  1  0
  6  5  1  0
  7  6  2  0
  8  7  1  0
  8  9  2  0
  9  4  1  0
 10 11  2  0
 10 16  1  0
 13 12  1  1
 13 14  1  0
 15 13  1  0
 15 16  1  1
 17 15  1  0
 17 18  2  0
 19 17  1  0
 20 19  1  0
 20 21  1  0
 21 23  1  0
 22 21  2  0
M  END
$$$$
