NVR.pdb
     RDKit          3D

 27 26  0  0  1  0  0  0  0  0999 V2000
    6.6265  -13.0424   17.6673 N   0  0  0  0  0  0  0  0  0  0  0  0
    6.8972  -14.2473   18.3444 C   0  0  0  0  0  0  0  0  0  0  0  0
    6.7492  -15.3251   17.7129 O   0  0  0  0  0  0  0  0  0  0  0  0
    7.3448  -14.3159   19.7548 C   0  0  0  0  0  0  0  0  0  0  0  0
    7.3503  -12.9394   20.3831 C   0  0  2  0  0  0  0  0  0  0  0  0
    8.0325  -12.0659   19.4737 N   0  0  0  0  0  0  0  0  0  0  0  0
    7.8471  -12.9306   21.7550 C   0  0  0  0  0  0  0  0  0  0  0  0
    9.0945  -12.9269   21.9379 O   0  0  0  0  0  0  0  0  0  0  0  0
    7.4599  -12.4686   26.6775 C   0  0  0  0  0  0  0  0  0  0  0  0
    6.7416  -12.4749   25.3296 C   0  0  2  0  0  0  0  0  0  0  0  0
    5.4419  -13.2020   25.4264 C   0  0  0  0  0  0  0  0  0  0  0  0
    7.6556  -13.0018   24.2441 C   0  0  2  0  0  0  0  0  0  0  0  0
    7.0468  -12.9261   22.9320 N   0  0  0  0  0  0  0  0  0  0  0  0
    7.9971  -14.4012   24.6057 C   0  0  0  0  0  0  0  0  0  0  0  0
    7.1070  -15.2937   24.4114 O   0  0  0  0  0  0  0  0  0  0  0  0
   12.6492  -14.9905   20.5089 N   0  0  0  0  0  0  0  0  0  0  0  0
   13.6879  -15.7774   21.1195 C   0  0  0  0  0  0  0  0  0  0  0  0
   14.8445  -15.8516   20.5744 N   0  0  0  0  0  0  0  0  0  0  0  0
   13.4566  -16.4866   22.3264 N   0  0  0  0  0  0  0  0  0  0  0  0
   12.4167  -17.4253   22.5441 C   0  0  0  0  0  0  0  0  0  0  0  0
   11.7568  -17.2534   23.8738 C   0  0  0  0  0  0  0  0  0  0  0  0
   11.0328  -15.9399   24.0050 C   0  0  0  0  0  0  0  0  0  0  0  0
    9.8679  -16.0554   24.9188 C   0  0  2  0  0  0  0  0  0  0  0  0
    9.2387  -14.7389   25.1380 N   0  0  0  0  0  0  0  0  0  0  0  0
   10.1435  -16.6940   26.2247 C   0  0  0  0  0  0  0  0  0  0  0  0
   10.1298  -16.1450   27.3302 O   0  0  0  0  0  0  0  0  0  0  0  0
   10.4552  -18.0678   26.2269 O   0  0  0  0  0  0  0  0  0  0  0  0
  2  3  2  0
  2  1  1  0
  4  2  1  0
  5  4  1  0
  5  6  1  6
  7  5  1  0
  8  7  2  0
 10  9  1  1
 10 11  1  0
 10 12  1  0
 12 13  1  6
 13  7  1  0
 14 15  2  0
 14 12  1  0
 17 16  1  0
 17 18  2  0
 19 17  1  0
 20 19  1  0
 21 20  1  0
 23 22  1  1
 22 21  1  0
 23 24  1  0
 24 14  1  0
 25 23  1  0
 26 25  2  0
 27 25  1  0
M  END
$$$$
