NVR.pdb
     RDKit          3D

 27 26  0  0  1  0  0  0  0  0999 V2000
   11.5496  -17.5092   14.5074 N   0  0  0  0  0  0  0  0  0  0  0  0
   10.3548  -16.8384   14.8328 C   0  0  0  0  0  0  0  0  0  0  0  0
    9.3579  -17.0130   14.0859 O   0  0  0  0  0  0  0  0  0  0  0  0
   10.2074  -15.9409   16.0021 C   0  0  0  0  0  0  0  0  0  0  0  0
    9.7406  -16.7141   17.2160 C   0  0  2  0  0  0  0  0  0  0  0  0
    8.4295  -17.2117   16.9178 N   0  0  0  0  0  0  0  0  0  0  0  0
    9.8597  -15.9640   18.4618 C   0  0  0  0  0  0  0  0  0  0  0  0
   10.9675  -15.9787   19.0637 O   0  0  0  0  0  0  0  0  0  0  0  0
    6.6411  -14.0873   20.9205 C   0  0  0  0  0  0  0  0  0  0  0  0
    8.0265  -13.4991   20.6610 C   0  0  2  0  0  0  0  0  0  0  0  0
    7.9671  -12.4563   19.5950 C   0  0  0  0  0  0  0  0  0  0  0  0
    9.0264  -14.6005   20.3813 C   0  0  2  0  0  0  0  0  0  0  0  0
    8.8281  -15.2015   19.0784 N   0  0  0  0  0  0  0  0  0  0  0  0
    8.8855  -15.6013   21.4694 C   0  0  0  0  0  0  0  0  0  0  0  0
    8.0329  -16.5354   21.3038 O   0  0  0  0  0  0  0  0  0  0  0  0
   10.3422  -19.6825   28.4300 N   0  0  0  0  0  0  0  0  0  0  0  0
   11.7269  -19.5661   28.0557 C   0  0  0  0  0  0  0  0  0  0  0  0
   12.6415  -19.6032   28.9515 N   0  0  0  0  0  0  0  0  0  0  0  0
   12.1082  -19.4049   26.6986 N   0  0  0  0  0  0  0  0  0  0  0  0
   12.1261  -18.1783   25.9880 C   0  0  0  0  0  0  0  0  0  0  0  0
   10.7960  -17.8361   25.3991 C   0  0  0  0  0  0  0  0  0  0  0  0
   10.8901  -16.8396   24.2745 C   0  0  0  0  0  0  0  0  0  0  0  0
    9.5507  -16.5365   23.7094 C   0  0  2  0  0  0  0  0  0  0  0  0
    9.6490  -15.5332   22.6318 N   0  0  0  0  0  0  0  0  0  0  0  0
    8.5276  -16.1092   24.6892 C   0  0  0  0  0  0  0  0  0  0  0  0
    7.9602  -16.8241   25.5202 O   0  0  0  0  0  0  0  0  0  0  0  0
    8.1498  -14.7522   24.6889 O   0  0  0  0  0  0  0  0  0  0  0  0
  2  3  2  0
  2  1  1  0
  4  2  1  0
  5  4  1  0
  5  6  1  6
  7  5  1  0
  8  7  2  0
 10  9  1  6
 10 11  1  0
 10 12  1  0
 12 13  1  6
 13  7  1  0
 14 15  2  0
 14 12  1  0
 17 16  1  0
 17 18  2  0
 19 17  1  0
 20 19  1  0
 21 20  1  0
 23 22  1  1
 22 21  1  0
 23 24  1  0
 24 14  1  0
 25 23  1  0
 26 25  2  0
 27 25  1  0
M  END
$$$$
