NVR.pdb
     RDKit          3D

 27 26  0  0  1  0  0  0  0  0999 V2000
    8.1666  -19.0926   15.4715 N   0  0  0  0  0  0  0  0  0  0  0  0
    9.2508  -19.4323   16.3036 C   0  0  0  0  0  0  0  0  0  0  0  0
    9.7438  -20.5840   16.1897 O   0  0  0  0  0  0  0  0  0  0  0  0
    9.8411  -18.5117   17.3028 C   0  0  0  0  0  0  0  0  0  0  0  0
    9.0098  -17.2539   17.4298 C   0  0  2  0  0  0  0  0  0  0  0  0
    9.1104  -16.5566   16.1811 N   0  0  0  0  0  0  0  0  0  0  0  0
    9.3276  -16.4666   18.6165 C   0  0  0  0  0  0  0  0  0  0  0  0
   10.4783  -16.5820   19.1186 O   0  0  0  0  0  0  0  0  0  0  0  0
    6.5778  -14.2077   21.1853 C   0  0  0  0  0  0  0  0  0  0  0  0
    7.9530  -13.6809   20.7804 C   0  0  2  0  0  0  0  0  0  0  0  0
    7.8318  -12.6695   19.6896 C   0  0  0  0  0  0  0  0  0  0  0  0
    8.8834  -14.8276   20.4479 C   0  0  2  0  0  0  0  0  0  0  0  0
    8.4493  -15.5626   19.2777 N   0  0  0  0  0  0  0  0  0  0  0  0
    8.9426  -15.7005   21.6479 C   0  0  0  0  0  0  0  0  0  0  0  0
    8.0190  -16.5686   21.7909 O   0  0  0  0  0  0  0  0  0  0  0  0
   13.0398  -17.9932   20.5891 N   0  0  0  0  0  0  0  0  0  0  0  0
   13.9736  -18.6925   21.4317 C   0  0  0  0  0  0  0  0  0  0  0  0
   14.3643  -19.8717   21.1202 N   0  0  0  0  0  0  0  0  0  0  0  0
   14.4758  -18.0996   22.6189 N   0  0  0  0  0  0  0  0  0  0  0  0
   13.6934  -17.4752   23.6228 C   0  0  0  0  0  0  0  0  0  0  0  0
   12.2552  -17.3518   23.2364 C   0  0  0  0  0  0  0  0  0  0  0  0
   11.4380  -16.5931   24.2478 C   0  0  0  0  0  0  0  0  0  0  0  0
   10.0328  -16.4330   23.7948 C   0  0  2  0  0  0  0  0  0  0  0  0
    9.9622  -15.5852   22.5891 N   0  0  0  0  0  0  0  0  0  0  0  0
    9.0894  -15.9214   24.8134 C   0  0  0  0  0  0  0  0  0  0  0  0
    8.6396  -14.7745   24.8902 O   0  0  0  0  0  0  0  0  0  0  0  0
    8.6486  -16.8199   25.8047 O   0  0  0  0  0  0  0  0  0  0  0  0
  2  3  2  0
  2  1  1  0
  4  2  1  0
  5  4  1  0
  5  6  1  6
  7  5  1  0
  8  7  2  0
 10  9  1  6
 10 11  1  0
 10 12  1  0
 12 13  1  6
 13  7  1  0
 14 15  2  0
 14 12  1  0
 17 16  1  0
 17 18  2  0
 19 17  1  0
 20 19  1  0
 21 20  1  0
 23 22  1  1
 22 21  1  0
 23 24  1  0
 24 14  1  0
 25 23  1  0
 26 25  2  0
 27 25  1  0
M  END
$$$$
