NVR.pdb
     RDKit          3D

 27 26  0  0  1  0  0  0  0  0999 V2000
   10.6973  -16.9346   13.3129 N   0  0  0  0  0  0  0  0  0  0  0  0
   10.1004  -15.6618   13.2294 C   0  0  0  0  0  0  0  0  0  0  0  0
   10.2031  -15.0319   12.1454 O   0  0  0  0  0  0  0  0  0  0  0  0
    9.3607  -15.0253   14.3438 C   0  0  0  0  0  0  0  0  0  0  0  0
    9.3646  -15.9153   15.5674 C   0  0  2  0  0  0  0  0  0  0  0  0
    8.1571  -16.6873   15.5286 N   0  0  0  0  0  0  0  0  0  0  0  0
    9.6075  -15.1906   16.8104 C   0  0  0  0  0  0  0  0  0  0  0  0
   10.7980  -14.9066   17.1127 O   0  0  0  0  0  0  0  0  0  0  0  0
    7.1385  -12.4394   18.8524 C   0  0  0  0  0  0  0  0  0  0  0  0
    7.7867  -13.5342   19.6973 C   0  0  2  0  0  0  0  0  0  0  0  0
    8.0958  -13.0312   21.0680 C   0  0  0  0  0  0  0  0  0  0  0  0
    8.9831  -14.1202   18.9788 C   0  0  2  0  0  0  0  0  0  0  0  0
    8.6132  -14.7637   17.7349 N   0  0  0  0  0  0  0  0  0  0  0  0
    9.6267  -15.0761   19.9156 C   0  0  0  0  0  0  0  0  0  0  0  0
    9.0696  -16.2127   20.0723 O   0  0  0  0  0  0  0  0  0  0  0  0
   17.9587  -15.9776   20.8172 N   0  0  0  0  0  0  0  0  0  0  0  0
   16.9674  -14.9971   21.1736 C   0  0  0  0  0  0  0  0  0  0  0  0
   17.2953  -13.7654   21.2978 N   0  0  0  0  0  0  0  0  0  0  0  0
   15.6166  -15.3687   21.3979 N   0  0  0  0  0  0  0  0  0  0  0  0
   15.1437  -16.1351   22.4928 C   0  0  0  0  0  0  0  0  0  0  0  0
   13.6735  -16.3926   22.4214 C   0  0  0  0  0  0  0  0  0  0  0  0
   12.9542  -15.4407   21.5031 C   0  0  0  0  0  0  0  0  0  0  0  0
   11.4956  -15.7181   21.4743 C   0  0  2  0  0  0  0  0  0  0  0  0
   10.7941  -14.7553   20.6035 N   0  0  0  0  0  0  0  0  0  0  0  0
   10.8298  -15.7647   22.7948 C   0  0  0  0  0  0  0  0  0  0  0  0
   10.0914  -14.9016   23.2779 O   0  0  0  0  0  0  0  0  0  0  0  0
   11.0492  -16.9019   23.5968 O   0  0  0  0  0  0  0  0  0  0  0  0
  2  3  2  0
  2  1  1  0
  4  2  1  0
  5  4  1  0
  5  6  1  1
  7  5  1  0
  8  7  2  0
 10  9  1  6
 10 11  1  0
 10 12  1  0
 12 13  1  6
 13  7  1  0
 14 15  2  0
 14 12  1  0
 17 16  1  0
 17 18  2  0
 19 17  1  0
 20 19  1  0
 21 20  1  0
 23 22  1  1
 22 21  1  0
 23 24  1  0
 24 14  1  0
 25 23  1  0
 26 25  2  0
 27 25  1  0
M  END
$$$$
