NVR.pdb
     RDKit          3D

 27 26  0  0  1  0  0  0  0  0999 V2000
    8.8969  -19.4926   15.4874 N   0  0  0  0  0  0  0  0  0  0  0  0
    9.0862  -18.1348   15.1649 C   0  0  0  0  0  0  0  0  0  0  0  0
    9.3200  -17.8406   13.9644 O   0  0  0  0  0  0  0  0  0  0  0  0
    9.0258  -17.0371   16.1578 C   0  0  0  0  0  0  0  0  0  0  0  0
    8.8828  -17.5892   17.5592 C   0  0  2  0  0  0  0  0  0  0  0  0
    7.5766  -18.1734   17.6488 N   0  0  0  0  0  0  0  0  0  0  0  0
    9.2105  -16.6203   18.5999 C   0  0  0  0  0  0  0  0  0  0  0  0
   10.4189  -16.2952   18.7534 O   0  0  0  0  0  0  0  0  0  0  0  0
    7.0860  -13.3638   19.9752 C   0  0  0  0  0  0  0  0  0  0  0  0
    7.6387  -14.2507   21.0890 C   0  0  2  0  0  0  0  0  0  0  0  0
    8.0463  -13.4290   22.2663 C   0  0  0  0  0  0  0  0  0  0  0  0
    8.7395  -15.1441   20.5586 C   0  0  2  0  0  0  0  0  0  0  0  0
    8.2822  -15.9927   19.4775 N   0  0  0  0  0  0  0  0  0  0  0  0
    9.2387  -15.9451   21.7053 C   0  0  0  0  0  0  0  0  0  0  0  0
    8.5621  -16.9713   22.0459 O   0  0  0  0  0  0  0  0  0  0  0  0
   17.7248  -17.3777   24.0189 N   0  0  0  0  0  0  0  0  0  0  0  0
   16.8557  -16.2409   23.8662 C   0  0  0  0  0  0  0  0  0  0  0  0
   17.3397  -15.0977   23.5516 N   0  0  0  0  0  0  0  0  0  0  0  0
   15.4553  -16.3573   24.0629 N   0  0  0  0  0  0  0  0  0  0  0  0
   14.6880  -17.5300   23.8492 C   0  0  0  0  0  0  0  0  0  0  0  0
   13.2421  -17.3374   24.1739 C   0  0  0  0  0  0  0  0  0  0  0  0
   12.5477  -16.3950   23.2272 C   0  0  0  0  0  0  0  0  0  0  0  0
   11.0713  -16.5148   23.3335 C   0  0  2  0  0  0  0  0  0  0  0  0
   10.4000  -15.5990   22.3913 N   0  0  0  0  0  0  0  0  0  0  0  0
   10.5128  -16.3232   24.6902 C   0  0  0  0  0  0  0  0  0  0  0  0
   10.5476  -17.1323   25.6218 O   0  0  0  0  0  0  0  0  0  0  0  0
    9.8722  -15.0992   24.9656 O   0  0  0  0  0  0  0  0  0  0  0  0
  2  3  2  0
  2  1  1  0
  4  2  1  0
  5  4  1  0
  5  6  1  1
  7  5  1  0
  8  7  2  0
 10  9  1  6
 10 11  1  0
 10 12  1  0
 12 13  1  6
 13  7  1  0
 14 15  2  0
 14 12  1  0
 17 16  1  0
 17 18  2  0
 19 17  1  0
 20 19  1  0
 21 20  1  0
 23 22  1  1
 22 21  1  0
 23 24  1  0
 24 14  1  0
 25 23  1  0
 26 25  2  0
 27 25  1  0
M  END
$$$$
