NVR.pdb
     RDKit          3D

 27 26  0  0  1  0  0  0  0  0999 V2000
    9.2525  -15.3852   18.1780 N   0  0  0  0  0  0  0  0  0  0  0  0
    8.3819  -14.4876   18.8259 C   0  0  0  0  0  0  0  0  0  0  0  0
    7.3052  -14.1892   18.2481 O   0  0  0  0  0  0  0  0  0  0  0  0
    8.6630  -13.8769   20.1459 C   0  0  0  0  0  0  0  0  0  0  0  0
    7.8522  -14.5499   21.2317 C   0  0  2  0  0  0  0  0  0  0  0  0
    6.4706  -14.3091   20.9339 N   0  0  0  0  0  0  0  0  0  0  0  0
    8.2766  -14.1886   22.5801 C   0  0  0  0  0  0  0  0  0  0  0  0
    9.4860  -14.3615   22.8915 O   0  0  0  0  0  0  0  0  0  0  0  0
    8.0156  -11.8785   26.9051 C   0  0  0  0  0  0  0  0  0  0  0  0
    7.3100  -12.2148   25.5929 C   0  0  2  0  0  0  0  0  0  0  0  0
    5.8413  -12.3711   25.8071 C   0  0  0  0  0  0  0  0  0  0  0  0
    7.9605  -13.4114   24.9325 C   0  0  2  0  0  0  0  0  0  0  0  0
    7.4437  -13.6492   23.6004 N   0  0  0  0  0  0  0  0  0  0  0  0
    7.7286  -14.5776   25.8224 C   0  0  0  0  0  0  0  0  0  0  0  0
    6.6526  -15.2416   25.6549 O   0  0  0  0  0  0  0  0  0  0  0  0
   11.3315  -21.1303   22.0671 N   0  0  0  0  0  0  0  0  0  0  0  0
   11.8145  -19.8909   22.6165 C   0  0  0  0  0  0  0  0  0  0  0  0
   12.7373  -19.2366   22.0162 N   0  0  0  0  0  0  0  0  0  0  0  0
   11.2878  -19.3713   23.8271 N   0  0  0  0  0  0  0  0  0  0  0  0
   11.5597  -18.0858   24.3594 C   0  0  0  0  0  0  0  0  0  0  0  0
   10.7932  -17.8088   25.6119 C   0  0  0  0  0  0  0  0  0  0  0  0
   10.0249  -16.5152   25.5566 C   0  0  0  0  0  0  0  0  0  0  0  0
    9.3047  -16.2612   26.8303 C   0  0  2  0  0  0  0  0  0  0  0  0
    8.6435  -14.9423   26.8067 N   0  0  0  0  0  0  0  0  0  0  0  0
   10.1208  -16.3819   28.0586 C   0  0  0  0  0  0  0  0  0  0  0  0
   10.8343  -15.5068   28.5574 O   0  0  0  0  0  0  0  0  0  0  0  0
   10.0936  -17.6133   28.7421 O   0  0  0  0  0  0  0  0  0  0  0  0
  2  3  2  0
  2  1  1  0
  4  2  1  0
  5  4  1  0
  5  6  1  6
  7  5  1  0
  8  7  2  0
 10  9  1  1
 10 11  1  0
 10 12  1  0
 12 13  1  6
 13  7  1  0
 14 15  2  0
 14 12  1  0
 17 16  1  0
 17 18  2  0
 19 17  1  0
 20 19  1  0
 21 20  1  0
 23 22  1  6
 22 21  1  0
 23 24  1  0
 24 14  1  0
 25 23  1  0
 26 25  2  0
 27 25  1  0
M  END
$$$$
