NVR.pdb
     RDKit          3D

 27 26  0  0  1  0  0  0  0  0999 V2000
    6.0291  -21.3471   17.8605 N   0  0  0  0  0  0  0  0  0  0  0  0
    5.9249  -19.9467   17.9670 C   0  0  0  0  0  0  0  0  0  0  0  0
    4.8993  -19.3936   17.4932 O   0  0  0  0  0  0  0  0  0  0  0  0
    6.9532  -19.0912   18.6036 C   0  0  0  0  0  0  0  0  0  0  0  0
    7.1068  -17.7875   17.8511 C   0  0  2  0  0  0  0  0  0  0  0  0
    7.6112  -18.1117   16.5488 N   0  0  0  0  0  0  0  0  0  0  0  0
    7.8650  -16.7803   18.5858 C   0  0  0  0  0  0  0  0  0  0  0  0
    9.1235  -16.8531   18.5720 O   0  0  0  0  0  0  0  0  0  0  0  0
    6.8867  -12.8266   19.4058 C   0  0  0  0  0  0  0  0  0  0  0  0
    7.4393  -13.5994   20.6018 C   0  0  2  0  0  0  0  0  0  0  0  0
    8.2696  -12.7113   21.4674 C   0  0  0  0  0  0  0  0  0  0  0  0
    8.1604  -14.8474   20.1396 C   0  0  2  0  0  0  0  0  0  0  0  0
    7.3135  -15.7013   19.3323 N   0  0  0  0  0  0  0  0  0  0  0  0
    8.6375  -15.5495   21.3582 C   0  0  0  0  0  0  0  0  0  0  0  0
    7.7554  -16.0154   22.1530 O   0  0  0  0  0  0  0  0  0  0  0  0
   13.0562  -20.8224   24.9825 N   0  0  0  0  0  0  0  0  0  0  0  0
   12.6294  -21.5962   23.8466 C   0  0  0  0  0  0  0  0  0  0  0  0
   13.3080  -22.6148   23.4695 N   0  0  0  0  0  0  0  0  0  0  0  0
   11.4599  -21.2500   23.1217 N   0  0  0  0  0  0  0  0  0  0  0  0
   10.6579  -20.1036   23.3503 C   0  0  0  0  0  0  0  0  0  0  0  0
   11.4220  -18.8284   23.1983 C   0  0  0  0  0  0  0  0  0  0  0  0
   10.8532  -17.9256   22.1362 C   0  0  0  0  0  0  0  0  0  0  0  0
   10.4969  -16.5959   22.6931 C   0  0  2  0  0  0  0  0  0  0  0  0
    9.9940  -15.6996   21.6343 N   0  0  0  0  0  0  0  0  0  0  0  0
   11.5705  -15.9132   23.4485 C   0  0  0  0  0  0  0  0  0  0  0  0
   12.2993  -15.0067   23.0353 O   0  0  0  0  0  0  0  0  0  0  0  0
   11.7990  -16.3261   24.7757 O   0  0  0  0  0  0  0  0  0  0  0  0
  2  3  2  0
  2  1  1  0
  4  2  1  0
  5  4  1  0
  5  6  1  6
  7  5  1  0
  8  7  2  0
 10  9  1  6
 10 11  1  0
 10 12  1  0
 12 13  1  1
 13  7  1  0
 14 15  2  0
 14 12  1  0
 17 16  1  0
 17 18  2  0
 19 17  1  0
 20 19  1  0
 21 20  1  0
 23 22  1  6
 22 21  1  0
 23 24  1  0
 24 14  1  0
 25 23  1  0
 26 25  2  0
 27 25  1  0
M  END
$$$$
