NVR.pdb
     RDKit          3D

 27 26  0  0  1  0  0  0  0  0999 V2000
    5.3148  -11.6959   27.3728 N   0  0  0  0  0  0  0  0  0  0  0  0
    6.7125  -11.8224   27.2555 C   0  0  0  0  0  0  0  0  0  0  0  0
    7.4342  -11.0653   27.9541 O   0  0  0  0  0  0  0  0  0  0  0  0
    7.3781  -12.7945   26.3574 C   0  0  0  0  0  0  0  0  0  0  0  0
    6.3739  -13.4405   25.4280 C   0  0  2  0  0  0  0  0  0  0  0  0
    5.4052  -14.1025   26.2519 N   0  0  0  0  0  0  0  0  0  0  0  0
    6.9889  -14.2662   24.3941 C   0  0  0  0  0  0  0  0  0  0  0  0
    7.1171  -15.5009   24.6143 O   0  0  0  0  0  0  0  0  0  0  0  0
    6.9475  -13.3273   20.3917 C   0  0  0  0  0  0  0  0  0  0  0  0
    8.2029  -14.0920   20.8062 C   0  0  2  0  0  0  0  0  0  0  0  0
    8.6137  -15.0520   19.7398 C   0  0  0  0  0  0  0  0  0  0  0  0
    8.0088  -14.7345   22.1629 C   0  0  2  0  0  0  0  0  0  0  0  0
    7.4687  -13.8067   23.1354 N   0  0  0  0  0  0  0  0  0  0  0  0
    9.3315  -15.2595   22.5878 C   0  0  0  0  0  0  0  0  0  0  0  0
   10.1880  -14.4186   23.0193 O   0  0  0  0  0  0  0  0  0  0  0  0
    6.9919  -20.6610   25.9780 N   0  0  0  0  0  0  0  0  0  0  0  0
    7.9964  -20.2906   26.9397 C   0  0  0  0  0  0  0  0  0  0  0  0
    7.6694  -20.0605   28.1564 N   0  0  0  0  0  0  0  0  0  0  0  0
    9.3595  -20.1683   26.5655 N   0  0  0  0  0  0  0  0  0  0  0  0
    9.8447  -20.0849   25.2360 C   0  0  0  0  0  0  0  0  0  0  0  0
   10.0948  -18.6767   24.8032 C   0  0  0  0  0  0  0  0  0  0  0  0
   10.7401  -18.5849   23.4460 C   0  0  0  0  0  0  0  0  0  0  0  0
   10.9093  -17.1712   23.0240 C   0  0  2  0  0  0  0  0  0  0  0  0
    9.6376  -16.6162   22.5219 N   0  0  0  0  0  0  0  0  0  0  0  0
   11.9800  -16.9261   22.0326 C   0  0  0  0  0  0  0  0  0  0  0  0
   11.8773  -16.9998   20.8047 O   0  0  0  0  0  0  0  0  0  0  0  0
   13.2529  -16.5716   22.5207 O   0  0  0  0  0  0  0  0  0  0  0  0
  2  3  2  0
  2  1  1  0
  4  2  1  0
  5  4  1  0
  5  6  1  1
  7  5  1  0
  8  7  2  0
 10  9  1  6
 10 11  1  0
 10 12  1  0
 12 13  1  1
 13  7  1  0
 14 15  2  0
 14 12  1  0
 17 16  1  0
 17 18  2  0
 19 17  1  0
 20 19  1  0
 21 20  1  0
 23 22  1  6
 22 21  1  0
 23 24  1  0
 24 14  1  0
 25 23  1  0
 26 25  2  0
 27 25  1  0
M  END
$$$$
