NVR.pdb
     RDKit          3D

 27 26  0  0  1  0  0  0  0  0999 V2000
    6.9413  -20.9283   16.9715 N   0  0  0  0  0  0  0  0  0  0  0  0
    6.7167  -19.5688   17.2625 C   0  0  0  0  0  0  0  0  0  0  0  0
    5.8006  -18.9752   16.6375 O   0  0  0  0  0  0  0  0  0  0  0  0
    7.4972  -18.8012   18.2605 C   0  0  0  0  0  0  0  0  0  0  0  0
    7.8953  -17.4507   17.7062 C   0  0  2  0  0  0  0  0  0  0  0  0
    8.7586  -17.6942   16.5877 N   0  0  0  0  0  0  0  0  0  0  0  0
    8.4202  -16.5406   18.7187 C   0  0  0  0  0  0  0  0  0  0  0  0
    9.5871  -16.7397   19.1526 O   0  0  0  0  0  0  0  0  0  0  0  0
    7.5706  -12.5620   19.2165 C   0  0  0  0  0  0  0  0  0  0  0  0
    7.6305  -13.3206   20.5408 C   0  0  2  0  0  0  0  0  0  0  0  0
    8.2414  -12.4744   21.6078 C   0  0  0  0  0  0  0  0  0  0  0  0
    8.3161  -14.6573   20.3558 C   0  0  2  0  0  0  0  0  0  0  0  0
    7.7314  -15.4273   19.2772 N   0  0  0  0  0  0  0  0  0  0  0  0
    8.2214  -15.3768   21.6516 C   0  0  0  0  0  0  0  0  0  0  0  0
    7.1600  -16.0473   21.8767 O   0  0  0  0  0  0  0  0  0  0  0  0
   12.8291  -20.3096   19.5087 N   0  0  0  0  0  0  0  0  0  0  0  0
   13.0280  -20.8874   20.8117 C   0  0  0  0  0  0  0  0  0  0  0  0
   14.0628  -21.6042   21.0473 N   0  0  0  0  0  0  0  0  0  0  0  0
   12.0890  -20.6822   21.8554 N   0  0  0  0  0  0  0  0  0  0  0  0
   10.9541  -19.8353   21.7880 C   0  0  0  0  0  0  0  0  0  0  0  0
   11.0865  -18.6271   22.6574 C   0  0  0  0  0  0  0  0  0  0  0  0
   10.4018  -17.4141   22.0859 C   0  0  0  0  0  0  0  0  0  0  0  0
    9.8639  -16.5422   23.1609 C   0  0  2  0  0  0  0  0  0  0  0  0
    9.2455  -15.3285   22.5937 N   0  0  0  0  0  0  0  0  0  0  0  0
   10.8308  -16.1576   24.2128 C   0  0  0  0  0  0  0  0  0  0  0  0
   11.8862  -15.5380   24.0517 O   0  0  0  0  0  0  0  0  0  0  0  0
   10.5340  -16.5275   25.5392 O   0  0  0  0  0  0  0  0  0  0  0  0
  2  3  2  0
  2  1  1  0
  4  2  1  0
  5  4  1  0
  5  6  1  6
  7  5  1  0
  8  7  2  0
 10  9  1  6
 10 11  1  0
 10 12  1  0
 12 13  1  6
 13  7  1  0
 14 15  2  0
 14 12  1  0
 17 16  1  0
 17 18  2  0
 19 17  1  0
 20 19  1  0
 21 20  1  0
 23 22  1  6
 22 21  1  0
 23 24  1  0
 24 14  1  0
 25 23  1  0
 26 25  2  0
 27 25  1  0
M  END
$$$$
