NVR.pdb
     RDKit          3D

 27 26  0  0  1  0  0  0  0  0999 V2000
    6.0406  -14.0372   17.3992 N   0  0  0  0  0  0  0  0  0  0  0  0
    7.2664  -14.2883   18.0456 C   0  0  0  0  0  0  0  0  0  0  0  0
    8.3217  -14.1892   17.3684 O   0  0  0  0  0  0  0  0  0  0  0  0
    7.3816  -14.6619   19.4744 C   0  0  0  0  0  0  0  0  0  0  0  0
    7.2896  -13.4371   20.3580 C   0  0  2  0  0  0  0  0  0  0  0  0
    7.6645  -12.3108   19.5541 N   0  0  0  0  0  0  0  0  0  0  0  0
    8.0103  -13.5769   21.6190 C   0  0  0  0  0  0  0  0  0  0  0  0
    9.2704  -13.6014   21.5866 O   0  0  0  0  0  0  0  0  0  0  0  0
    6.2913  -14.1675   25.6346 C   0  0  0  0  0  0  0  0  0  0  0  0
    7.5981  -13.4307   25.3475 C   0  0  2  0  0  0  0  0  0  0  0  0
    7.3835  -11.9538   25.3475 C   0  0  0  0  0  0  0  0  0  0  0  0
    8.2342  -13.9543   24.0777 C   0  0  2  0  0  0  0  0  0  0  0  0
    7.4200  -13.6909   22.9090 N   0  0  0  0  0  0  0  0  0  0  0  0
    8.4541  -15.4103   24.2708 C   0  0  0  0  0  0  0  0  0  0  0  0
    7.4506  -16.1828   24.1195 O   0  0  0  0  0  0  0  0  0  0  0  0
   15.2083  -15.8931   20.5955 N   0  0  0  0  0  0  0  0  0  0  0  0
   13.8564  -15.4136   20.7120 C   0  0  0  0  0  0  0  0  0  0  0  0
   13.5869  -14.1836   20.4781 N   0  0  0  0  0  0  0  0  0  0  0  0
   12.8005  -16.2829   21.0894 N   0  0  0  0  0  0  0  0  0  0  0  0
   12.8414  -17.2136   22.1579 C   0  0  0  0  0  0  0  0  0  0  0  0
   11.9551  -16.8216   23.2954 C   0  0  0  0  0  0  0  0  0  0  0  0
   10.8349  -17.7994   23.5314 C   0  0  0  0  0  0  0  0  0  0  0  0
    9.9780  -17.3737   24.6672 C   0  0  2  0  0  0  0  0  0  0  0  0
    9.7039  -15.9251   24.6052 N   0  0  0  0  0  0  0  0  0  0  0  0
   10.4843  -17.7227   26.0130 C   0  0  0  0  0  0  0  0  0  0  0  0
   10.8187  -18.8442   26.4057 O   0  0  0  0  0  0  0  0  0  0  0  0
   10.6038  -16.6828   26.9556 O   0  0  0  0  0  0  0  0  0  0  0  0
  2  3  2  0
  2  1  1  0
  4  2  1  0
  5  4  1  0
  5  6  1  6
  7  5  1  0
  8  7  2  0
 10  9  1  6
 10 11  1  0
 10 12  1  0
 12 13  1  6
 13  7  1  0
 14 15  2  0
 14 12  1  0
 17 16  1  0
 17 18  2  0
 19 17  1  0
 20 19  1  0
 21 20  1  0
 23 22  1  6
 22 21  1  0
 23 24  1  0
 24 14  1  0
 25 23  1  0
 26 25  2  0
 27 25  1  0
M  END
$$$$
