NVR.pdb
     RDKit          3D

 27 26  0  0  1  0  0  0  0  0999 V2000
    4.2986  -17.1781   20.1981 N   0  0  0  0  0  0  0  0  0  0  0  0
    5.6556  -17.4844   20.4174 C   0  0  0  0  0  0  0  0  0  0  0  0
    6.2805  -18.0826   19.5042 O   0  0  0  0  0  0  0  0  0  0  0  0
    6.3857  -17.1427   21.6602 C   0  0  0  0  0  0  0  0  0  0  0  0
    7.1427  -15.8428   21.4972 C   0  0  2  0  0  0  0  0  0  0  0  0
    8.0921  -16.0399   20.4411 N   0  0  0  0  0  0  0  0  0  0  0  0
    7.6918  -15.3312   22.7485 C   0  0  0  0  0  0  0  0  0  0  0  0
    8.6887  -15.9198   23.2475 O   0  0  0  0  0  0  0  0  0  0  0  0
    7.8410  -12.2307   26.6533 C   0  0  0  0  0  0  0  0  0  0  0  0
    7.1934  -12.5757   25.3138 C   0  0  2  0  0  0  0  0  0  0  0  0
    5.7052  -12.5363   25.4201 C   0  0  0  0  0  0  0  0  0  0  0  0
    7.7323  -13.8882   24.7866 C   0  0  2  0  0  0  0  0  0  0  0  0
    7.2035  -14.2103   23.4771 N   0  0  0  0  0  0  0  0  0  0  0  0
    7.3865  -14.9318   25.7850 C   0  0  0  0  0  0  0  0  0  0  0  0
    6.1738  -15.3245   25.8306 O   0  0  0  0  0  0  0  0  0  0  0  0
    8.6184  -22.4160   27.3557 N   0  0  0  0  0  0  0  0  0  0  0  0
    7.1924  -22.2289   27.4095 C   0  0  0  0  0  0  0  0  0  0  0  0
    6.4563  -23.0665   28.0393 N   0  0  0  0  0  0  0  0  0  0  0  0
    6.5735  -21.1247   26.7686 N   0  0  0  0  0  0  0  0  0  0  0  0
    7.2327  -20.1675   25.9569 C   0  0  0  0  0  0  0  0  0  0  0  0
    8.0931  -19.2375   26.7492 C   0  0  0  0  0  0  0  0  0  0  0  0
    8.1555  -17.8520   26.1633 C   0  0  0  0  0  0  0  0  0  0  0  0
    8.2178  -16.8187   27.2282 C   0  0  2  0  0  0  0  0  0  0  0  0
    8.3409  -15.4689   26.6449 N   0  0  0  0  0  0  0  0  0  0  0  0
    9.2745  -17.0149   28.2451 C   0  0  0  0  0  0  0  0  0  0  0  0
   10.3187  -16.3661   28.3564 O   0  0  0  0  0  0  0  0  0  0  0  0
    9.0878  -18.0419   29.1910 O   0  0  0  0  0  0  0  0  0  0  0  0
  2  3  2  0
  2  1  1  0
  4  2  1  0
  5  4  1  0
  5  6  1  6
  7  5  1  0
  8  7  2  0
 10  9  1  1
 10 11  1  0
 10 12  1  0
 12 13  1  6
 13  7  1  0
 14 15  2  0
 14 12  1  0
 17 16  1  0
 17 18  2  0
 19 17  1  0
 20 19  1  0
 21 20  1  0
 23 22  1  6
 22 21  1  0
 23 24  1  0
 24 14  1  0
 25 23  1  0
 26 25  2  0
 27 25  1  0
M  END
$$$$
