NVR.pdb
     RDKit          3D

 27 26  0  0  1  0  0  0  0  0999 V2000
   10.3496  -19.5175   18.8602 N   0  0  0  0  0  0  0  0  0  0  0  0
   10.1564  -19.4566   17.4665 C   0  0  0  0  0  0  0  0  0  0  0  0
    9.9060  -20.5287   16.8581 O   0  0  0  0  0  0  0  0  0  0  0  0
   10.2320  -18.2039   16.6794 C   0  0  0  0  0  0  0  0  0  0  0  0
    9.0404  -17.3171   16.9672 C   0  0  2  0  0  0  0  0  0  0  0  0
    8.5498  -16.8504   15.7035 N   0  0  0  0  0  0  0  0  0  0  0  0
    9.3151  -16.2803   17.9565 C   0  0  0  0  0  0  0  0  0  0  0  0
   10.4704  -15.7766   17.9879 O   0  0  0  0  0  0  0  0  0  0  0  0
    6.9446  -13.2340   19.2337 C   0  0  0  0  0  0  0  0  0  0  0  0
    7.6287  -13.9606   20.3900 C   0  0  2  0  0  0  0  0  0  0  0  0
    7.9912  -13.0031   21.4759 C   0  0  0  0  0  0  0  0  0  0  0  0
    8.7968  -14.7799   19.8846 C   0  0  2  0  0  0  0  0  0  0  0  0
    8.3892  -15.7705   18.9096 N   0  0  0  0  0  0  0  0  0  0  0  0
    9.4293  -15.4116   21.0706 C   0  0  0  0  0  0  0  0  0  0  0  0
    8.8551  -16.4357   21.5689 O   0  0  0  0  0  0  0  0  0  0  0  0
    9.4337  -15.6762   29.0238 N   0  0  0  0  0  0  0  0  0  0  0  0
   10.7616  -16.1012   28.6672 C   0  0  0  0  0  0  0  0  0  0  0  0
   11.6527  -16.2583   29.5736 N   0  0  0  0  0  0  0  0  0  0  0  0
   11.1132  -16.3500   27.3153 N   0  0  0  0  0  0  0  0  0  0  0  0
   10.2008  -16.4957   26.2401 C   0  0  0  0  0  0  0  0  0  0  0  0
   10.8865  -16.7203   24.9315 C   0  0  0  0  0  0  0  0  0  0  0  0
   10.2440  -15.9701   23.7951 C   0  0  0  0  0  0  0  0  0  0  0  0
   11.2545  -15.5312   22.7994 C   0  0  2  0  0  0  0  0  0  0  0  0
   10.6045  -14.9139   21.6273 N   0  0  0  0  0  0  0  0  0  0  0  0
   12.1983  -16.5768   22.3462 C   0  0  0  0  0  0  0  0  0  0  0  0
   12.3541  -16.9763   21.1887 O   0  0  0  0  0  0  0  0  0  0  0  0
   13.0100  -17.1903   23.3205 O   0  0  0  0  0  0  0  0  0  0  0  0
  2  3  2  0
  2  1  1  0
  4  2  1  0
  5  4  1  0
  5  6  1  6
  7  5  1  0
  8  7  2  0
 10  9  1  6
 10 11  1  0
 10 12  1  0
 12 13  1  6
 13  7  1  0
 14 15  2  0
 14 12  1  0
 17 16  1  0
 17 18  2  0
 19 17  1  0
 20 19  1  0
 21 20  1  0
 23 22  1  1
 22 21  1  0
 23 24  1  0
 24 14  1  0
 25 23  1  0
 26 25  2  0
 27 25  1  0
M  END
$$$$
