QLC.pdb
     RDKit          3D

 24 23  0  0  1  0  0  0  0  0999 V2000
    9.0773  -18.3567   18.3251 N   0  0  0  0  0  0  0  0  0  0  0  0
    7.7513  -18.4414   18.8591 C   0  0  0  0  0  0  0  0  0  0  0  0
    6.9189  -19.0729   18.1950 O   0  0  0  0  0  0  0  0  0  0  0  0
    7.4513  -17.8027   20.1227 C   0  0  0  0  0  0  0  0  0  0  0  0
    8.6061  -17.1330   20.8056 C   0  0  0  0  0  0  0  0  0  0  0  0
    8.6190  -17.1864   22.2898 C   0  0  2  0  0  0  0  0  0  0  0  0
    7.5481  -17.9100   22.9138 N   0  0  0  0  0  0  0  0  0  0  0  0
    8.8235  -15.8506   22.9152 C   0  0  0  0  0  0  0  0  0  0  0  0
    9.7481  -15.1353   22.4546 O   0  0  0  0  0  0  0  0  0  0  0  0
    7.3209  -11.1890   25.5174 C   0  0  0  0  0  0  0  0  0  0  0  0
    7.2336  -12.4677   26.3032 C   0  0  1  0  0  0  0  0  0  0  0  0
    5.9720  -12.3667   27.1789 C   0  0  0  0  0  0  0  0  0  0  0  0
    7.0804  -13.7087   25.5047 C   0  0  0  0  0  0  0  0  0  0  0  0
    8.2102  -14.0861   24.6068 C   0  0  2  0  0  0  0  0  0  0  0  0
    8.0353  -15.3727   23.9798 N   0  0  0  0  0  0  0  0  0  0  0  0
    9.4273  -14.1908   25.4946 C   0  0  0  0  0  0  0  0  0  0  0  0
   10.1948  -13.2052   25.6903 O   0  0  0  0  0  0  0  0  0  0  0  0
    9.6850  -15.4431   26.1087 N   0  0  0  0  0  0  0  0  0  0  0  0
   10.6146  -15.6054   27.2055 C   0  0  1  0  0  0  0  0  0  0  0  0
   10.0600  -14.8103   28.3738 C   0  0  0  0  0  0  0  0  0  0  0  0
   11.1163  -14.9070   29.8260 S   0  0  0  0  0  0  0  0  0  0  0  0
   10.7124  -17.0185   27.5830 C   0  0  0  0  0  0  0  0  0  0  0  0
    9.7000  -17.7565   27.5157 O   0  0  0  0  0  0  0  0  0  0  0  0
   11.9056  -17.5399   28.0098 O   0  0  0  0  0  0  0  0  0  0  0  0
  2  1  1  0
  3  2  2  0
  4  2  1  0
  5  4  1  0
  6  7  1  1
  6  5  1  0
  8  6  1  0
  9  8  2  0
 11 10  1  6
 12 11  1  0
 14 13  1  1
 13 11  1  0
 14 15  1  0
 15  8  1  0
 16 18  1  0
 16 14  1  0
 17 16  2  0
 19 20  1  1
 19 18  1  0
 21 20  1  0
 22 19  1  0
 22 24  1  0
 23 22  2  0
M  END
$$$$
