QLC.pdb
     RDKit          3D

 24 23  0  0  1  0  0  0  0  0999 V2000
    8.8749  -17.0004   18.7973 N   0  0  0  0  0  0  0  0  0  0  0  0
    7.6023  -17.0635   19.4507 C   0  0  0  0  0  0  0  0  0  0  0  0
    6.6005  -17.1023   18.7242 O   0  0  0  0  0  0  0  0  0  0  0  0
    7.5453  -17.0817   20.8968 C   0  0  0  0  0  0  0  0  0  0  0  0
    8.8685  -17.1121   21.6014 C   0  0  0  0  0  0  0  0  0  0  0  0
    8.8273  -17.1716   23.0849 C   0  0  2  0  0  0  0  0  0  0  0  0
    7.6250  -17.6911   23.6717 N   0  0  0  0  0  0  0  0  0  0  0  0
    9.2516  -15.8969   23.7272 C   0  0  0  0  0  0  0  0  0  0  0  0
   10.2187  -15.2854   23.2082 O   0  0  0  0  0  0  0  0  0  0  0  0
    5.5526  -12.3451   25.9273 C   0  0  0  0  0  0  0  0  0  0  0  0
    6.7242  -12.9948   25.2450 C   0  0  1  0  0  0  0  0  0  0  0  0
    7.3183  -11.9472   24.2869 C   0  0  0  0  0  0  0  0  0  0  0  0
    7.8362  -13.4175   26.1313 C   0  0  0  0  0  0  0  0  0  0  0  0
    8.9879  -14.1192   25.4939 C   0  0  2  0  0  0  0  0  0  0  0  0
    8.6214  -15.3659   24.8691 N   0  0  0  0  0  0  0  0  0  0  0  0
    9.9419  -14.4527   26.6160 C   0  0  0  0  0  0  0  0  0  0  0  0
   10.5301  -13.5512   27.2792 O   0  0  0  0  0  0  0  0  0  0  0  0
   10.1596  -15.8241   26.9055 N   0  0  0  0  0  0  0  0  0  0  0  0
   10.9751  -16.2750   28.0123 C   0  0  1  0  0  0  0  0  0  0  0  0
   10.2134  -15.9451   29.2833 C   0  0  0  0  0  0  0  0  0  0  0  0
   10.4086  -14.2241   29.7670 S   0  0  0  0  0  0  0  0  0  0  0  0
   11.1822  -17.7241   27.9327 C   0  0  0  0  0  0  0  0  0  0  0  0
   10.6513  -18.3829   27.0063 O   0  0  0  0  0  0  0  0  0  0  0  0
   11.9538  -18.3652   28.8661 O   0  0  0  0  0  0  0  0  0  0  0  0
  2  1  1  0
  3  2  2  0
  4  2  1  0
  5  4  1  0
  6  7  1  6
  6  5  1  0
  8  6  1  0
  9  8  2  0
 11 10  1  1
 12 11  1  0
 14 13  1  1
 13 11  1  0
 14 15  1  0
 15  8  1  0
 16 18  1  0
 16 14  1  0
 17 16  2  0
 19 20  1  1
 19 18  1  0
 21 20  1  0
 22 19  1  0
 22 24  1  0
 23 22  2  0
M  END
$$$$
