QLC.pdb
     RDKit          3D

 24 23  0  0  1  0  0  0  0  0999 V2000
    0.4053  -26.4978   32.1982 N   0  0  0  0  0  0  0  0  0  0  0  0
    0.4227  -26.8945   30.8224 C   0  0  0  0  0  0  0  0  0  0  0  0
    1.5232  -27.1897   30.3380 O   0  0  0  0  0  0  0  0  0  0  0  0
   -0.8179  -26.9348   30.0780 C   0  0  0  0  0  0  0  0  0  0  0  0
   -2.0420  -26.4985   30.8260 C   0  0  0  0  0  0  0  0  0  0  0  0
   -3.3403  -26.6613   30.1234 C   0  0  2  0  0  0  0  0  0  0  0  0
   -3.2882  -27.2237   28.8041 N   0  0  0  0  0  0  0  0  0  0  0  0
   -4.1813  -25.4333   30.1696 C   0  0  0  0  0  0  0  0  0  0  0  0
   -4.3718  -24.9086   31.2953 O   0  0  0  0  0  0  0  0  0  0  0  0
   -3.6750  -21.4063   26.4285 C   0  0  0  0  0  0  0  0  0  0  0  0
   -3.9121  -22.2105   27.6763 C   0  0  1  0  0  0  0  0  0  0  0  0
   -3.7065  -21.2567   28.8664 C   0  0  0  0  0  0  0  0  0  0  0  0
   -5.2753  -22.7746   27.8332 C   0  0  0  0  0  0  0  0  0  0  0  0
   -5.5251  -23.6335   29.0269 C   0  0  2  0  0  0  0  0  0  0  0  0
   -4.7570  -24.8537   29.0225 N   0  0  0  0  0  0  0  0  0  0  0  0
   -6.9807  -24.0291   28.9549 C   0  0  0  0  0  0  0  0  0  0  0  0
   -7.9064  -23.1684   28.9842 O   0  0  0  0  0  0  0  0  0  0  0  0
   -7.2798  -25.4118   28.8520 N   0  0  0  0  0  0  0  0  0  0  0  0
   -8.6325  -25.9246   28.8255 C   0  0  1  0  0  0  0  0  0  0  0  0
   -8.6867  -26.9660   27.7223 C   0  0  0  0  0  0  0  0  0  0  0  0
  -10.2798  -27.7970   27.6479 S   0  0  0  0  0  0  0  0  0  0  0  0
   -8.9607  -26.5570   30.1066 C   0  0  0  0  0  0  0  0  0  0  0  0
   -8.1224  -27.3001   30.6715 O   0  0  0  0  0  0  0  0  0  0  0  0
  -10.1804  -26.3412   30.6926 O   0  0  0  0  0  0  0  0  0  0  0  0
  2  1  1  0
  3  2  2  0
  4  2  1  0
  5  4  1  0
  6  7  1  6
  6  5  1  0
  8  6  1  0
  9  8  2  0
 11 10  1  6
 12 11  1  0
 14 13  1  6
 13 11  1  0
 14 15  1  0
 15  8  1  0
 16 18  1  0
 16 14  1  0
 17 16  2  0
 19 20  1  6
 19 18  1  0
 21 20  1  0
 22 19  1  0
 22 24  1  0
 23 22  2  0
M  END
$$$$
