QLC.pdb
     RDKit          3D

 24 23  0  0  1  0  0  0  0  0999 V2000
   11.1429  -16.6614   15.4284 N   0  0  0  0  0  0  0  0  0  0  0  0
   10.8226  -18.0298   15.7025 C   0  0  0  0  0  0  0  0  0  0  0  0
   10.8660  -18.8177   14.7484 O   0  0  0  0  0  0  0  0  0  0  0  0
   10.4738  -18.4223   17.0512 C   0  0  0  0  0  0  0  0  0  0  0  0
   10.5194  -17.3325   18.0802 C   0  0  0  0  0  0  0  0  0  0  0  0
   10.2872  -17.7420   19.4888 C   0  0  2  0  0  0  0  0  0  0  0  0
    9.1474  -18.5792   19.7326 N   0  0  0  0  0  0  0  0  0  0  0  0
   10.3493  -16.5992   20.4414 C   0  0  0  0  0  0  0  0  0  0  0  0
   11.4888  -16.2182   20.8091 O   0  0  0  0  0  0  0  0  0  0  0  0
    6.3042  -12.9632   19.9306 C   0  0  0  0  0  0  0  0  0  0  0  0
    7.6478  -13.6111   20.1178 C   0  0  1  0  0  0  0  0  0  0  0  0
    8.6938  -12.6420   19.5388 C   0  0  0  0  0  0  0  0  0  0  0  0
    8.0547  -13.8627   21.5222 C   0  0  0  0  0  0  0  0  0  0  0  0
    9.2304  -14.7537   21.7427 C   0  0  2  0  0  0  0  0  0  0  0  0
    9.2024  -15.9463   20.9328 N   0  0  0  0  0  0  0  0  0  0  0  0
    9.1487  -15.1980   23.1836 C   0  0  0  0  0  0  0  0  0  0  0  0
    9.1654  -14.3684   24.1377 O   0  0  0  0  0  0  0  0  0  0  0  0
    9.0513  -16.5904   23.4358 N   0  0  0  0  0  0  0  0  0  0  0  0
    9.0767  -17.1526   24.7687 C   0  0  1  0  0  0  0  0  0  0  0  0
    7.8271  -18.0026   24.9117 C   0  0  0  0  0  0  0  0  0  0  0  0
    6.3324  -17.0066   25.0004 S   0  0  0  0  0  0  0  0  0  0  0  0
   10.2615  -17.9986   24.9402 C   0  0  0  0  0  0  0  0  0  0  0  0
   11.1166  -18.0722   24.0251 O   0  0  0  0  0  0  0  0  0  0  0  0
   10.4415  -18.7114   26.0966 O   0  0  0  0  0  0  0  0  0  0  0  0
  2  1  1  0
  3  2  2  0
  4  2  1  0
  5  4  1  0
  6  7  1  6
  6  5  1  0
  8  6  1  0
  9  8  2  0
 11 10  1  1
 12 11  1  0
 14 13  1  6
 13 11  1  0
 14 15  1  0
 15  8  1  0
 16 18  1  0
 16 14  1  0
 17 16  2  0
 19 20  1  6
 19 18  1  0
 21 20  1  0
 22 19  1  0
 22 24  1  0
 23 22  2  0
M  END
$$$$
