QLC.pdb
     RDKit          3D

 24 23  0  0  1  0  0  0  0  0999 V2000
    8.3338  -17.9097   18.4553 N   0  0  0  0  0  0  0  0  0  0  0  0
    9.2835  -18.8913   18.8853 C   0  0  0  0  0  0  0  0  0  0  0  0
    9.3891  -19.9110   18.1911 O   0  0  0  0  0  0  0  0  0  0  0  0
   10.0614  -18.6520   20.0822 C   0  0  0  0  0  0  0  0  0  0  0  0
    9.7253  -17.4024   20.8396 C   0  0  0  0  0  0  0  0  0  0  0  0
    9.6907  -17.5148   22.3201 C   0  0  2  0  0  0  0  0  0  0  0  0
    8.6640  -18.3500   22.8751 N   0  0  0  0  0  0  0  0  0  0  0  0
    9.7591  -16.1931   23.0027 C   0  0  0  0  0  0  0  0  0  0  0  0
   10.6853  -15.4161   22.6603 O   0  0  0  0  0  0  0  0  0  0  0  0
    7.5900  -11.6089   25.1202 C   0  0  0  0  0  0  0  0  0  0  0  0
    7.4329  -12.8497   25.9542 C   0  0  1  0  0  0  0  0  0  0  0  0
    6.0212  -12.7997   26.5650 C   0  0  0  0  0  0  0  0  0  0  0  0
    7.5175  -14.1369   25.2214 C   0  0  0  0  0  0  0  0  0  0  0  0
    8.8331  -14.4914   24.6145 C   0  0  2  0  0  0  0  0  0  0  0  0
    8.8434  -15.7934   23.9951 N   0  0  0  0  0  0  0  0  0  0  0  0
    9.8171  -14.5404   25.7589 C   0  0  0  0  0  0  0  0  0  0  0  0
   10.5144  -13.5359   26.0803 O   0  0  0  0  0  0  0  0  0  0  0  0
    9.9357  -15.7622   26.4697 N   0  0  0  0  0  0  0  0  0  0  0  0
   10.8026  -15.9246   27.6166 C   0  0  1  0  0  0  0  0  0  0  0  0
   10.1688  -15.1531   28.7601 C   0  0  0  0  0  0  0  0  0  0  0  0
   10.8836  -13.5145   28.9548 S   0  0  0  0  0  0  0  0  0  0  0  0
   10.9006  -17.3409   27.9821 C   0  0  0  0  0  0  0  0  0  0  0  0
   10.2706  -18.2030   27.3234 O   0  0  0  0  0  0  0  0  0  0  0  0
   11.6779  -17.7301   29.0413 O   0  0  0  0  0  0  0  0  0  0  0  0
  2  1  1  0
  3  2  2  0
  4  2  1  0
  5  4  1  0
  6  7  1  6
  6  5  1  0
  8  6  1  0
  9  8  2  0
 11 10  1  6
 12 11  1  0
 14 13  1  1
 13 11  1  0
 14 15  1  0
 15  8  1  0
 16 18  1  0
 16 14  1  0
 17 16  2  0
 19 20  1  1
 19 18  1  0
 21 20  1  0
 22 19  1  0
 22 24  1  0
 23 22  2  0
M  END
$$$$
