QLC.pdb
     RDKit          3D

 24 23  0  0  1  0  0  0  0  0999 V2000
    9.1089  -12.1494   18.8102 N   0  0  0  0  0  0  0  0  0  0  0  0
    8.2535  -13.1561   18.2577 C   0  0  0  0  0  0  0  0  0  0  0  0
    8.0819  -13.1349   17.0317 O   0  0  0  0  0  0  0  0  0  0  0  0
    7.6446  -14.1324   19.1357 C   0  0  0  0  0  0  0  0  0  0  0  0
    7.9555  -13.9812   20.5947 C   0  0  0  0  0  0  0  0  0  0  0  0
    8.0276  -15.2337   21.3895 C   0  0  2  0  0  0  0  0  0  0  0  0
    6.8322  -16.0258   21.4463 N   0  0  0  0  0  0  0  0  0  0  0  0
    8.6216  -15.0291   22.7396 C   0  0  0  0  0  0  0  0  0  0  0  0
    9.7925  -14.5760   22.7903 O   0  0  0  0  0  0  0  0  0  0  0  0
    5.8181  -12.5928   26.7256 C   0  0  0  0  0  0  0  0  0  0  0  0
    6.9168  -13.1121   25.8407 C   0  0  1  0  0  0  0  0  0  0  0  0
    8.1082  -12.1509   25.9996 C   0  0  0  0  0  0  0  0  0  0  0  0
    7.4322  -14.4628   26.1742 C   0  0  0  0  0  0  0  0  0  0  0  0
    8.4470  -15.0524   25.2535 C   0  0  2  0  0  0  0  0  0  0  0  0
    7.9328  -15.3190   23.9332 N   0  0  0  0  0  0  0  0  0  0  0  0
    8.8275  -16.3842   25.8552 C   0  0  0  0  0  0  0  0  0  0  0  0
    7.9702  -17.2905   26.0612 O   0  0  0  0  0  0  0  0  0  0  0  0
   10.1917  -16.5885   26.1854 N   0  0  0  0  0  0  0  0  0  0  0  0
   10.6797  -17.8057   26.7967 C   0  0  1  0  0  0  0  0  0  0  0  0
   12.1279  -17.9626   26.3695 C   0  0  0  0  0  0  0  0  0  0  0  0
   12.3257  -17.8673   24.5847 S   0  0  0  0  0  0  0  0  0  0  0  0
   10.6130  -17.7021   28.2574 C   0  0  0  0  0  0  0  0  0  0  0  0
   10.2335  -16.6329   28.7930 O   0  0  0  0  0  0  0  0  0  0  0  0
   10.9633  -18.7684   29.0436 O   0  0  0  0  0  0  0  0  0  0  0  0
  2  1  1  0
  3  2  2  0
  4  2  1  0
  5  4  1  0
  6  7  1  1
  6  5  1  0
  8  6  1  0
  9  8  2  0
 11 10  1  1
 12 11  1  0
 14 13  1  1
 13 11  1  0
 14 15  1  0
 15  8  1  0
 16 18  1  0
 16 14  1  0
 17 16  2  0
 19 20  1  1
 19 18  1  0
 21 20  1  0
 22 19  1  0
 22 24  1  0
 23 22  2  0
M  END
$$$$
