QLC.pdb
     RDKit          3D

 24 23  0  0  1  0  0  0  0  0999 V2000
    7.0150  -13.0352   18.9616 N   0  0  0  0  0  0  0  0  0  0  0  0
    8.3970  -13.1789   19.3077 C   0  0  0  0  0  0  0  0  0  0  0  0
    9.2076  -12.4869   18.6776 O   0  0  0  0  0  0  0  0  0  0  0  0
    8.7754  -14.1023   20.3559 C   0  0  0  0  0  0  0  0  0  0  0  0
    7.6482  -14.8423   21.0117 C   0  0  0  0  0  0  0  0  0  0  0  0
    8.0214  -15.8105   22.0743 C   0  0  2  0  0  0  0  0  0  0  0  0
    7.0060  -16.7407   22.4783 N   0  0  0  0  0  0  0  0  0  0  0  0
    8.6763  -15.1622   23.2440 C   0  0  0  0  0  0  0  0  0  0  0  0
    9.7883  -14.6110   23.0482 O   0  0  0  0  0  0  0  0  0  0  0  0
    5.5650  -12.3356   26.5754 C   0  0  0  0  0  0  0  0  0  0  0  0
    6.7625  -12.7991   25.7936 C   0  0  1  0  0  0  0  0  0  0  0  0
    7.6077  -11.5490   25.4914 C   0  0  0  0  0  0  0  0  0  0  0  0
    7.6655  -13.7454   26.4937 C   0  0  0  0  0  0  0  0  0  0  0  0
    8.6775  -14.4625   25.6650 C   0  0  2  0  0  0  0  0  0  0  0  0
    8.1058  -15.1460   24.5314 N   0  0  0  0  0  0  0  0  0  0  0  0
    9.2730  -15.5206   26.5628 C   0  0  0  0  0  0  0  0  0  0  0  0
    9.4106  -15.3376   27.8063 O   0  0  0  0  0  0  0  0  0  0  0  0
    9.6774  -16.7395   25.9607 N   0  0  0  0  0  0  0  0  0  0  0  0
   10.0414  -17.9125   26.7254 C   0  0  1  0  0  0  0  0  0  0  0  0
    8.7503  -18.6359   27.0631 C   0  0  0  0  0  0  0  0  0  0  0  0
    8.9977  -19.9408   28.2756 S   0  0  0  0  0  0  0  0  0  0  0  0
   10.8970  -18.7943   25.9258 C   0  0  0  0  0  0  0  0  0  0  0  0
   10.9438  -18.6601   24.6792 O   0  0  0  0  0  0  0  0  0  0  0  0
   11.6478  -19.7667   26.5326 O   0  0  0  0  0  0  0  0  0  0  0  0
  2  1  1  0
  3  2  2  0
  4  2  1  0
  5  4  1  0
  6  7  1  1
  6  5  1  0
  8  6  1  0
  9  8  2  0
 11 10  1  1
 12 11  1  0
 14 13  1  1
 13 11  1  0
 14 15  1  0
 15  8  1  0
 16 18  1  0
 16 14  1  0
 17 16  2  0
 19 20  1  6
 19 18  1  0
 21 20  1  0
 22 19  1  0
 22 24  1  0
 23 22  2  0
M  END
$$$$
