QLC.pdb
     RDKit          3D

 24 23  0  0  1  0  0  0  0  0999 V2000
    6.8157  -20.0717   28.3273 N   0  0  0  0  0  0  0  0  0  0  0  0
    7.2061  -20.8363   27.1813 C   0  0  0  0  0  0  0  0  0  0  0  0
    7.4573  -22.0345   27.3659 O   0  0  0  0  0  0  0  0  0  0  0  0
    7.2847  -20.1904   25.8885 C   0  0  0  0  0  0  0  0  0  0  0  0
    6.8855  -18.7455   25.8557 C   0  0  0  0  0  0  0  0  0  0  0  0
    6.8065  -18.1107   24.5153 C   0  0  2  0  0  0  0  0  0  0  0  0
    6.8826  -18.9911   23.3845 N   0  0  0  0  0  0  0  0  0  0  0  0
    7.7215  -16.9446   24.3724 C   0  0  0  0  0  0  0  0  0  0  0  0
    8.6101  -17.0159   23.4868 O   0  0  0  0  0  0  0  0  0  0  0  0
    5.8042  -12.4539   26.8451 C   0  0  0  0  0  0  0  0  0  0  0  0
    6.3283  -13.3879   25.7901 C   0  0  1  0  0  0  0  0  0  0  0  0
    5.7199  -12.9337   24.4515 C   0  0  0  0  0  0  0  0  0  0  0  0
    7.7989  -13.3836   25.5948 C   0  0  0  0  0  0  0  0  0  0  0  0
    8.4088  -14.5968   24.9774 C   0  0  2  0  0  0  0  0  0  0  0  0
    7.6276  -15.7922   25.1762 N   0  0  0  0  0  0  0  0  0  0  0  0
    9.7240  -14.8068   25.6891 C   0  0  0  0  0  0  0  0  0  0  0  0
   10.6793  -13.9859   25.5779 O   0  0  0  0  0  0  0  0  0  0  0  0
    9.8554  -15.9665   26.4951 N   0  0  0  0  0  0  0  0  0  0  0  0
   10.7411  -16.0352   27.6371 C   0  0  1  0  0  0  0  0  0  0  0  0
   10.2169  -15.0445   28.6608 C   0  0  0  0  0  0  0  0  0  0  0  0
   11.1399  -15.1062   30.2030 S   0  0  0  0  0  0  0  0  0  0  0  0
   10.7233  -17.3833   28.2127 C   0  0  0  0  0  0  0  0  0  0  0  0
   11.6186  -17.7319   29.0195 O   0  0  0  0  0  0  0  0  0  0  0  0
    9.7326  -18.2673   27.8743 O   0  0  0  0  0  0  0  0  0  0  0  0
  2  1  1  0
  3  2  2  0
  4  2  1  0
  5  4  1  0
  6  7  1  6
  6  5  1  0
  8  6  1  0
  9  8  2  0
 11 10  1  1
 12 11  1  0
 14 13  1  1
 13 11  1  0
 14 15  1  0
 15  8  1  0
 16 18  1  0
 16 14  1  0
 17 16  2  0
 19 20  1  1
 19 18  1  0
 21 20  1  0
 22 19  1  0
 22 24  1  0
 23 22  2  0
M  END
$$$$
