QLC.pdb
     RDKit          3D

 24 23  0  0  1  0  0  0  0  0999 V2000
    9.3862  -20.9818   25.0884 N   0  0  0  0  0  0  0  0  0  0  0  0
   10.0096  -20.4826   23.8999 C   0  0  0  0  0  0  0  0  0  0  0  0
   10.9051  -21.1777   23.4022 O   0  0  0  0  0  0  0  0  0  0  0  0
    9.5733  -19.2191   23.3448 C   0  0  0  0  0  0  0  0  0  0  0  0
    8.4396  -18.5485   24.0613 C   0  0  0  0  0  0  0  0  0  0  0  0
    7.9096  -17.3056   23.4448 C   0  0  2  0  0  0  0  0  0  0  0  0
    7.7378  -17.3204   22.0201 N   0  0  0  0  0  0  0  0  0  0  0  0
    8.6230  -16.0819   23.9043 C   0  0  0  0  0  0  0  0  0  0  0  0
    9.6689  -15.7599   23.2868 O   0  0  0  0  0  0  0  0  0  0  0  0
    5.4609  -12.3509   26.3867 C   0  0  0  0  0  0  0  0  0  0  0  0
    6.5188  -12.9161   25.4803 C   0  0  1  0  0  0  0  0  0  0  0  0
    6.7350  -11.8894   24.3544 C   0  0  0  0  0  0  0  0  0  0  0  0
    7.8501  -13.1348   26.0974 C   0  0  0  0  0  0  0  0  0  0  0  0
    8.7888  -14.0515   25.3877 C   0  0  2  0  0  0  0  0  0  0  0  0
    8.1767  -15.2920   24.9812 N   0  0  0  0  0  0  0  0  0  0  0  0
    9.8646  -14.3985   26.3890 C   0  0  0  0  0  0  0  0  0  0  0  0
   10.6508  -13.5228   26.8513 O   0  0  0  0  0  0  0  0  0  0  0  0
    9.9664  -15.7526   26.7990 N   0  0  0  0  0  0  0  0  0  0  0  0
   10.9160  -16.2050   27.7924 C   0  0  1  0  0  0  0  0  0  0  0  0
   10.5392  -15.5322   29.0999 C   0  0  0  0  0  0  0  0  0  0  0  0
   11.4375  -16.2144   30.5005 S   0  0  0  0  0  0  0  0  0  0  0  0
   10.8291  -17.6596   27.9522 C   0  0  0  0  0  0  0  0  0  0  0  0
    9.8428  -18.2827   27.4909 O   0  0  0  0  0  0  0  0  0  0  0  0
   11.8208  -18.3447   28.6039 O   0  0  0  0  0  0  0  0  0  0  0  0
  2  1  1  0
  3  2  2  0
  4  2  1  0
  5  4  1  0
  6  7  1  6
  6  5  1  0
  8  6  1  0
  9  8  2  0
 11 10  1  1
 12 11  1  0
 14 13  1  1
 13 11  1  0
 14 15  1  0
 15  8  1  0
 16 18  1  0
 16 14  1  0
 17 16  2  0
 19 20  1  1
 19 18  1  0
 21 20  1  0
 22 19  1  0
 22 24  1  0
 23 22  2  0
M  END
$$$$
