QLC.pdb
     RDKit          3D

 24 23  0  0  1  0  0  0  0  0999 V2000
    7.6551  -12.6671   18.8487 N   0  0  0  0  0  0  0  0  0  0  0  0
    8.2191  -13.7728   18.1347 C   0  0  0  0  0  0  0  0  0  0  0  0
    8.6916  -13.5349   17.0153 O   0  0  0  0  0  0  0  0  0  0  0  0
    8.2147  -15.0873   18.7405 C   0  0  0  0  0  0  0  0  0  0  0  0
    7.4896  -15.2006   20.0480 C   0  0  0  0  0  0  0  0  0  0  0  0
    8.1970  -15.9215   21.1369 C   0  0  2  0  0  0  0  0  0  0  0  0
    7.5789  -17.1253   21.6148 N   0  0  0  0  0  0  0  0  0  0  0  0
    8.6040  -15.0259   22.2549 C   0  0  0  0  0  0  0  0  0  0  0  0
    9.6162  -14.3037   22.0740 O   0  0  0  0  0  0  0  0  0  0  0  0
    7.5491  -11.2389   26.0641 C   0  0  0  0  0  0  0  0  0  0  0  0
    7.1109  -12.6404   26.3863 C   0  0  1  0  0  0  0  0  0  0  0  0
    5.7294  -12.5321   27.0557 C   0  0  0  0  0  0  0  0  0  0  0  0
    6.9340  -13.5462   25.2247 C   0  0  0  0  0  0  0  0  0  0  0  0
    8.1663  -13.9854   24.5080 C   0  0  2  0  0  0  0  0  0  0  0  0
    7.9101  -14.9619   23.4786 N   0  0  0  0  0  0  0  0  0  0  0  0
    9.0320  -14.6575   25.5469 C   0  0  0  0  0  0  0  0  0  0  0  0
    9.1860  -14.1679   26.7024 O   0  0  0  0  0  0  0  0  0  0  0  0
    9.6738  -15.8685   25.1816 N   0  0  0  0  0  0  0  0  0  0  0  0
   10.4925  -16.6328   26.0975 C   0  0  1  0  0  0  0  0  0  0  0  0
    9.5763  -17.1190   27.2059 C   0  0  0  0  0  0  0  0  0  0  0  0
   10.4058  -18.2557   28.3257 S   0  0  0  0  0  0  0  0  0  0  0  0
   11.0791  -17.7877   25.4110 C   0  0  0  0  0  0  0  0  0  0  0  0
   11.9956  -18.4445   25.9613 O   0  0  0  0  0  0  0  0  0  0  0  0
   10.6317  -18.1553   24.1691 O   0  0  0  0  0  0  0  0  0  0  0  0
  2  1  1  0
  3  2  2  0
  4  2  1  0
  5  4  1  0
  6  7  1  1
  6  5  1  0
  8  6  1  0
  9  8  2  0
 11 10  1  6
 12 11  1  0
 14 13  1  1
 13 11  1  0
 14 15  1  0
 15  8  1  0
 16 18  1  0
 16 14  1  0
 17 16  2  0
 19 20  1  1
 19 18  1  0
 21 20  1  0
 22 19  1  0
 22 24  1  0
 23 22  2  0
M  END
$$$$
