QLC.pdb
     RDKit          3D

 24 23  0  0  1  0  0  0  0  0999 V2000
   10.4014  -18.5085   18.9759 N   0  0  0  0  0  0  0  0  0  0  0  0
   10.7951  -17.2023   19.4108 C   0  0  0  0  0  0  0  0  0  0  0  0
   11.9268  -16.8203   19.0847 O   0  0  0  0  0  0  0  0  0  0  0  0
    9.8734  -16.4045   20.1911 C   0  0  0  0  0  0  0  0  0  0  0  0
   10.2903  -16.1202   21.6030 C   0  0  0  0  0  0  0  0  0  0  0  0
    9.3998  -16.6374   22.6731 C   0  0  2  0  0  0  0  0  0  0  0  0
    8.0293  -16.8631   22.3121 N   0  0  0  0  0  0  0  0  0  0  0  0
    9.5191  -15.8727   23.9453 C   0  0  0  0  0  0  0  0  0  0  0  0
   10.6726  -15.5230   24.3002 O   0  0  0  0  0  0  0  0  0  0  0  0
    5.5933  -12.2414   25.7344 C   0  0  0  0  0  0  0  0  0  0  0  0
    6.9144  -12.9026   25.4563 C   0  0  1  0  0  0  0  0  0  0  0  0
    8.0035  -11.8453   25.7103 C   0  0  0  0  0  0  0  0  0  0  0  0
    7.2546  -14.0582   26.3223 C   0  0  0  0  0  0  0  0  0  0  0  0
    8.4959  -14.8164   25.9919 C   0  0  2  0  0  0  0  0  0  0  0  0
    8.4102  -15.5359   24.7453 N   0  0  0  0  0  0  0  0  0  0  0  0
    8.6552  -15.8463   27.0847 C   0  0  0  0  0  0  0  0  0  0  0  0
    8.7812  -15.5146   28.2983 O   0  0  0  0  0  0  0  0  0  0  0  0
    8.6588  -17.2123   26.7027 N   0  0  0  0  0  0  0  0  0  0  0  0
    8.8250  -18.2939   27.6493 C   0  0  1  0  0  0  0  0  0  0  0  0
    7.7069  -19.2860   27.3847 C   0  0  0  0  0  0  0  0  0  0  0  0
    7.6602  -19.8175   25.6674 S   0  0  0  0  0  0  0  0  0  0  0  0
   10.1180  -18.9536   27.4442 C   0  0  0  0  0  0  0  0  0  0  0  0
   10.4843  -19.8690   28.2200 O   0  0  0  0  0  0  0  0  0  0  0  0
   10.9310  -18.5759   26.4078 O   0  0  0  0  0  0  0  0  0  0  0  0
  2  1  1  0
  3  2  2  0
  4  2  1  0
  5  4  1  0
  6  7  1  6
  6  5  1  0
  8  6  1  0
  9  8  2  0
 11 10  1  1
 12 11  1  0
 14 13  1  1
 13 11  1  0
 14 15  1  0
 15  8  1  0
 16 18  1  0
 16 14  1  0
 17 16  2  0
 19 20  1  6
 19 18  1  0
 21 20  1  0
 22 19  1  0
 22 24  1  0
 23 22  2  0
M  END
$$$$
