QLC.pdb
     RDKit          3D

 24 23  0  0  1  0  0  0  0  0999 V2000
    8.2679  -20.0087   22.8910 N   0  0  0  0  0  0  0  0  0  0  0  0
    8.2606  -19.1481   21.7465 C   0  0  0  0  0  0  0  0  0  0  0  0
    7.8535  -19.6336   20.6828 O   0  0  0  0  0  0  0  0  0  0  0  0
    8.7156  -17.7809   21.8817 C   0  0  0  0  0  0  0  0  0  0  0  0
    7.6658  -16.7240   21.7110 C   0  0  0  0  0  0  0  0  0  0  0  0
    8.1120  -15.3162   21.8681 C   0  0  2  0  0  0  0  0  0  0  0  0
    8.9547  -14.7921   20.8314 N   0  0  0  0  0  0  0  0  0  0  0  0
    8.6579  -15.0299   23.2236 C   0  0  0  0  0  0  0  0  0  0  0  0
    9.9065  -15.0636   23.3598 O   0  0  0  0  0  0  0  0  0  0  0  0
    5.4877  -11.9681   26.5777 C   0  0  0  0  0  0  0  0  0  0  0  0
    6.6245  -12.5650   25.7957 C   0  0  1  0  0  0  0  0  0  0  0  0
    7.6309  -11.4299   25.5366 C   0  0  0  0  0  0  0  0  0  0  0  0
    7.3855  -13.6400   26.4787 C   0  0  0  0  0  0  0  0  0  0  0  0
    8.3418  -14.4307   25.6510 C   0  0  2  0  0  0  0  0  0  0  0  0
    7.8425  -14.7298   24.3319 N   0  0  0  0  0  0  0  0  0  0  0  0
    8.5156  -15.7495   26.3656 C   0  0  0  0  0  0  0  0  0  0  0  0
    8.0001  -15.9646   27.5000 O   0  0  0  0  0  0  0  0  0  0  0  0
    9.2836  -16.7503   25.7172 N   0  0  0  0  0  0  0  0  0  0  0  0
    9.5951  -18.0236   26.3296 C   0  0  1  0  0  0  0  0  0  0  0  0
    8.6274  -19.0393   25.7496 C   0  0  0  0  0  0  0  0  0  0  0  0
    7.0218  -18.9891   26.5580 S   0  0  0  0  0  0  0  0  0  0  0  0
   10.9683  -18.4207   26.0044 C   0  0  0  0  0  0  0  0  0  0  0  0
   11.6601  -17.7111   25.2351 O   0  0  0  0  0  0  0  0  0  0  0  0
   11.5023  -19.5648   26.5368 O   0  0  0  0  0  0  0  0  0  0  0  0
  2  1  1  0
  3  2  2  0
  4  2  1  0
  5  4  1  0
  6  7  1  6
  6  5  1  0
  8  6  1  0
  9  8  2  0
 11 10  1  1
 12 11  1  0
 14 13  1  1
 13 11  1  0
 14 15  1  0
 15  8  1  0
 16 18  1  0
 16 14  1  0
 17 16  2  0
 19 20  1  6
 19 18  1  0
 21 20  1  0
 22 19  1  0
 22 24  1  0
 23 22  2  0
M  END
$$$$
