QLC.pdb
     RDKit          3D

 24 23  0  0  1  0  0  0  0  0999 V2000
    9.5840  -13.4697   18.0660 N   0  0  0  0  0  0  0  0  0  0  0  0
    8.1649  -13.6137   18.1915 C   0  0  0  0  0  0  0  0  0  0  0  0
    7.4971  -13.5111   17.1540 O   0  0  0  0  0  0  0  0  0  0  0  0
    7.5884  -13.8697   19.4942 C   0  0  0  0  0  0  0  0  0  0  0  0
    8.5627  -13.9791   20.6287 C   0  0  0  0  0  0  0  0  0  0  0  0
    8.3233  -15.0736   21.6036 C   0  0  2  0  0  0  0  0  0  0  0  0
    7.0196  -15.6734   21.5855 N   0  0  0  0  0  0  0  0  0  0  0  0
    8.7524  -14.7219   22.9855 C   0  0  0  0  0  0  0  0  0  0  0  0
    9.9384  -14.3366   23.1389 O   0  0  0  0  0  0  0  0  0  0  0  0
    5.3526  -12.0330   26.3696 C   0  0  0  0  0  0  0  0  0  0  0  0
    6.5538  -12.5699   25.6423 C   0  0  1  0  0  0  0  0  0  0  0  0
    7.6432  -11.4857   25.7213 C   0  0  0  0  0  0  0  0  0  0  0  0
    7.1575  -13.8004   26.2101 C   0  0  0  0  0  0  0  0  0  0  0  0
    8.2688  -14.4324   25.4417 C   0  0  2  0  0  0  0  0  0  0  0  0
    7.8952  -14.8043   24.0998 N   0  0  0  0  0  0  0  0  0  0  0  0
    8.6054  -15.7089   26.1750 C   0  0  0  0  0  0  0  0  0  0  0  0
    8.8436  -15.7200   27.4167 O   0  0  0  0  0  0  0  0  0  0  0  0
    8.6461  -16.9081   25.4186 N   0  0  0  0  0  0  0  0  0  0  0  0
    8.9569  -18.1957   26.0007 C   0  0  1  0  0  0  0  0  0  0  0  0
    7.9748  -19.1930   25.4130 C   0  0  0  0  0  0  0  0  0  0  0  0
    6.2688  -18.7801   25.8040 S   0  0  0  0  0  0  0  0  0  0  0  0
   10.3230  -18.5951   25.6494 C   0  0  0  0  0  0  0  0  0  0  0  0
   11.0064  -17.8790   24.8786 O   0  0  0  0  0  0  0  0  0  0  0  0
   10.8595  -19.7484   26.1590 O   0  0  0  0  0  0  0  0  0  0  0  0
  2  1  1  0
  3  2  2  0
  4  2  1  0
  5  4  1  0
  6  7  1  1
  6  5  1  0
  8  6  1  0
  9  8  2  0
 11 10  1  1
 12 11  1  0
 14 13  1  1
 13 11  1  0
 14 15  1  0
 15  8  1  0
 16 18  1  0
 16 14  1  0
 17 16  2  0
 19 20  1  6
 19 18  1  0
 21 20  1  0
 22 19  1  0
 22 24  1  0
 23 22  2  0
M  END
$$$$
