QLC.pdb
     RDKit          3D

 24 23  0  0  1  0  0  0  0  0999 V2000
    9.5431  -14.0393   16.9279 N   0  0  0  0  0  0  0  0  0  0  0  0
    8.1456  -13.7906   17.1164 C   0  0  0  0  0  0  0  0  0  0  0  0
    7.4646  -13.6173   16.0970 O   0  0  0  0  0  0  0  0  0  0  0  0
    7.6037  -13.7567   18.4580 C   0  0  0  0  0  0  0  0  0  0  0  0
    8.5809  -14.0253   19.5632 C   0  0  0  0  0  0  0  0  0  0  0  0
    8.2012  -15.0762   20.5416 C   0  0  2  0  0  0  0  0  0  0  0  0
    6.8442  -15.5402   20.4886 N   0  0  0  0  0  0  0  0  0  0  0  0
    8.6217  -14.7510   21.9326 C   0  0  0  0  0  0  0  0  0  0  0  0
    9.8534  -14.6248   22.1465 O   0  0  0  0  0  0  0  0  0  0  0  0
    8.3872  -12.2794   26.8037 C   0  0  0  0  0  0  0  0  0  0  0  0
    7.3235  -13.3135   26.5603 C   0  0  1  0  0  0  0  0  0  0  0  0
    6.0178  -12.7578   27.1561 C   0  0  0  0  0  0  0  0  0  0  0  0
    7.0291  -13.6167   25.1382 C   0  0  0  0  0  0  0  0  0  0  0  0
    8.0871  -14.3210   24.3575 C   0  0  2  0  0  0  0  0  0  0  0  0
    7.7084  -14.5839   22.9914 N   0  0  0  0  0  0  0  0  0  0  0  0
    8.2737  -15.6610   25.0284 C   0  0  0  0  0  0  0  0  0  0  0  0
    7.3047  -16.4506   25.2183 O   0  0  0  0  0  0  0  0  0  0  0  0
    9.5845  -16.0095   25.4432 N   0  0  0  0  0  0  0  0  0  0  0  0
    9.8885  -17.2410   26.1393 C   0  0  1  0  0  0  0  0  0  0  0  0
   11.0476  -17.8880   25.4031 C   0  0  0  0  0  0  0  0  0  0  0  0
   10.6570  -18.2256   23.6804 S   0  0  0  0  0  0  0  0  0  0  0  0
   10.2885  -16.9576   27.5209 C   0  0  0  0  0  0  0  0  0  0  0  0
   10.4402  -15.7708   27.8983 O   0  0  0  0  0  0  0  0  0  0  0  0
   10.4982  -17.9833   28.4049 O   0  0  0  0  0  0  0  0  0  0  0  0
  2  1  1  0
  3  2  2  0
  4  2  1  0
  5  4  1  0
  6  7  1  1
  6  5  1  0
  8  6  1  0
  9  8  2  0
 11 10  1  6
 12 11  1  0
 14 13  1  1
 13 11  1  0
 14 15  1  0
 15  8  1  0
 16 18  1  0
 16 14  1  0
 17 16  2  0
 19 20  1  6
 19 18  1  0
 21 20  1  0
 22 19  1  0
 22 24  1  0
 23 22  2  0
M  END
$$$$
