QLC.pdb
     RDKit          3D

 24 23  0  0  1  0  0  0  0  0999 V2000
    9.5582  -12.6403   18.3276 N   0  0  0  0  0  0  0  0  0  0  0  0
    8.2769  -13.2074   18.0324 C   0  0  0  0  0  0  0  0  0  0  0  0
    7.8923  -13.1425   16.8574 O   0  0  0  0  0  0  0  0  0  0  0  0
    7.5081  -13.8194   19.0951 C   0  0  0  0  0  0  0  0  0  0  0  0
    8.1590  -13.8344   20.4458 C   0  0  0  0  0  0  0  0  0  0  0  0
    8.1855  -15.1399   21.1534 C   0  0  2  0  0  0  0  0  0  0  0  0
    7.0030  -15.9468   21.0528 N   0  0  0  0  0  0  0  0  0  0  0  0
    8.6609  -15.0263   22.5600 C   0  0  0  0  0  0  0  0  0  0  0  0
    9.8990  -14.9114   22.7412 O   0  0  0  0  0  0  0  0  0  0  0  0
    5.7822  -12.2339   26.4346 C   0  0  0  0  0  0  0  0  0  0  0  0
    6.8939  -12.8366   25.6216 C   0  0  1  0  0  0  0  0  0  0  0  0
    8.1674  -12.0359   25.9463 C   0  0  0  0  0  0  0  0  0  0  0  0
    7.2149  -14.2549   25.9155 C   0  0  0  0  0  0  0  0  0  0  0  0
    8.2204  -14.9227   25.0391 C   0  0  2  0  0  0  0  0  0  0  0  0
    7.7916  -15.0429   23.6678 N   0  0  0  0  0  0  0  0  0  0  0  0
    8.3722  -16.3254   25.5776 C   0  0  0  0  0  0  0  0  0  0  0  0
    7.5039  -17.2187   25.3614 O   0  0  0  0  0  0  0  0  0  0  0  0
    9.5322  -16.6122   26.3417 N   0  0  0  0  0  0  0  0  0  0  0  0
   10.0318  -17.9555   26.5401 C   0  0  1  0  0  0  0  0  0  0  0  0
   10.4798  -18.4634   25.1815 C   0  0  0  0  0  0  0  0  0  0  0  0
   11.1743  -20.1199   25.2689 S   0  0  0  0  0  0  0  0  0  0  0  0
   11.1773  -17.9410   27.4547 C   0  0  0  0  0  0  0  0  0  0  0  0
   11.9487  -16.9517   27.4771 O   0  0  0  0  0  0  0  0  0  0  0  0
   11.4116  -19.0037   28.2874 O   0  0  0  0  0  0  0  0  0  0  0  0
  2  1  1  0
  3  2  2  0
  4  2  1  0
  5  4  1  0
  6  7  1  1
  6  5  1  0
  8  6  1  0
  9  8  2  0
 11 10  1  1
 12 11  1  0
 14 13  1  1
 13 11  1  0
 14 15  1  0
 15  8  1  0
 16 18  1  0
 16 14  1  0
 17 16  2  0
 19 20  1  6
 19 18  1  0
 21 20  1  0
 22 19  1  0
 22 24  1  0
 23 22  2  0
M  END
$$$$
