QLC.pdb
     RDKit          3D

 24 23  0  0  1  0  0  0  0  0999 V2000
    8.9621  -12.3196   18.4439 N   0  0  0  0  0  0  0  0  0  0  0  0
    8.3729  -13.5277   17.9502 C   0  0  0  0  0  0  0  0  0  0  0  0
    8.1159  -13.5722   16.7399 O   0  0  0  0  0  0  0  0  0  0  0  0
    8.1132  -14.6182   18.8657 C   0  0  0  0  0  0  0  0  0  0  0  0
    8.4360  -14.3521   20.3056 C   0  0  0  0  0  0  0  0  0  0  0  0
    8.2297  -15.4799   21.2496 C   0  0  2  0  0  0  0  0  0  0  0  0
    6.9413  -16.1115   21.2210 N   0  0  0  0  0  0  0  0  0  0  0  0
    8.6581  -15.1575   22.6389 C   0  0  0  0  0  0  0  0  0  0  0  0
    9.8409  -14.7652   22.7997 O   0  0  0  0  0  0  0  0  0  0  0  0
    5.5065  -12.5078   26.1592 C   0  0  0  0  0  0  0  0  0  0  0  0
    6.7240  -13.0574   25.4694 C   0  0  1  0  0  0  0  0  0  0  0  0
    7.8716  -12.0673   25.7360 C   0  0  0  0  0  0  0  0  0  0  0  0
    7.2003  -14.3771   25.9514 C   0  0  0  0  0  0  0  0  0  0  0  0
    8.2190  -15.0805   25.1193 C   0  0  2  0  0  0  0  0  0  0  0  0
    7.8037  -15.2744   23.7522 N   0  0  0  0  0  0  0  0  0  0  0  0
    8.3771  -16.4524   25.7303 C   0  0  0  0  0  0  0  0  0  0  0  0
    7.7619  -17.4587   25.2746 O   0  0  0  0  0  0  0  0  0  0  0  0
    9.2469  -16.5779   26.8437 N   0  0  0  0  0  0  0  0  0  0  0  0
    9.9551  -17.8004   27.1554 C   0  0  1  0  0  0  0  0  0  0  0  0
   10.8868  -18.0788   25.9897 C   0  0  0  0  0  0  0  0  0  0  0  0
   11.9375  -19.5082   26.2839 S   0  0  0  0  0  0  0  0  0  0  0  0
   10.7451  -17.6315   28.3786 C   0  0  0  0  0  0  0  0  0  0  0  0
   11.4200  -16.5878   28.5494 O   0  0  0  0  0  0  0  0  0  0  0  0
   10.7511  -18.6088   29.3391 O   0  0  0  0  0  0  0  0  0  0  0  0
  2  1  1  0
  3  2  2  0
  4  2  1  0
  5  4  1  0
  6  7  1  1
  6  5  1  0
  8  6  1  0
  9  8  2  0
 11 10  1  1
 12 11  1  0
 14 13  1  1
 13 11  1  0
 14 15  1  0
 15  8  1  0
 16 18  1  0
 16 14  1  0
 17 16  2  0
 19 20  1  6
 19 18  1  0
 21 20  1  0
 22 19  1  0
 22 24  1  0
 23 22  2  0
M  END
$$$$
