QDF.pdb
     RDKit          3D

 29 29  0  0  1  0  0  0  0  0999 V2000
    8.0278  -12.4532   17.4335 N   0  0  0  0  0  0  0  0  0  0  0  0
    7.6224  -13.8164   17.3160 C   0  0  0  0  0  0  0  0  0  0  0  0
    7.4754  -14.2436   16.1490 O   0  0  0  0  0  0  0  0  0  0  0  0
    7.3829  -14.6823   18.4593 C   0  0  0  0  0  0  0  0  0  0  0  0
    7.3467  -14.0728   19.8058 C   0  0  0  0  0  0  0  0  0  0  0  0
    8.6498  -14.0123   20.5531 C   0  0  2  0  0  0  0  0  0  0  0  0
    9.8315  -14.0277   19.7533 N   0  0  0  0  0  0  0  0  0  0  0  0
    8.6044  -15.1125   21.5618 C   0  0  0  0  0  0  0  0  0  0  0  0
    7.4895  -15.3809   22.0957 O   0  0  0  0  0  0  0  0  0  0  0  0
    9.7081  -15.8834   21.9734 N   0  0  0  0  0  0  0  0  0  0  0  0
    9.6135  -16.9257   22.9812 C   0  0  1  0  0  0  0  0  0  0  0  0
   10.6103  -18.0265   22.7445 C   0  0  0  0  0  0  0  0  0  0  0  0
   10.1967  -18.9933   21.7034 C   0  0  0  0  0  0  0  0  0  0  0  0
   10.9572  -19.5187   20.8576 O   0  0  0  0  0  0  0  0  0  0  0  0
    9.8812  -16.3414   24.3084 C   0  0  0  0  0  0  0  0  0  0  0  0
   10.8490  -15.5624   24.4684 O   0  0  0  0  0  0  0  0  0  0  0  0
    8.8541  -19.3417   21.6674 O   0  0  0  0  0  0  0  0  0  0  0  0
    9.0558  -16.6505   25.4075 N   0  0  0  0  0  0  0  0  0  0  0  0
    9.4035  -16.1368   26.7296 C   0  0  1  0  0  0  0  0  0  0  0  0
    8.1654  -15.5196   27.2886 C   0  0  0  0  0  0  0  0  0  0  0  0
    7.8704  -14.1731   26.7669 C   0  0  0  0  0  0  0  0  0  0  0  0
    8.7074  -13.1399   27.0669 C   0  0  0  0  0  0  0  0  0  0  0  0
    8.4241  -11.8862   26.5709 C   0  0  0  0  0  0  0  0  0  0  0  0
    7.3291  -11.6545   25.7889 C   0  0  0  0  0  0  0  0  0  0  0  0
    6.4850  -12.7073   25.4889 C   0  0  0  0  0  0  0  0  0  0  0  0
    6.7547  -13.9618   25.9760 C   0  0  0  0  0  0  0  0  0  0  0  0
    9.9358  -17.2231   27.5522 C   0  0  0  0  0  0  0  0  0  0  0  0
   10.0405  -18.5294   27.1279 O   0  0  0  0  0  0  0  0  0  0  0  0
   10.3395  -16.9941   28.7422 O   0  0  0  0  0  0  0  0  0  0  0  0
  2  3  2  0
  2  1  1  0
  4  2  1  0
  5  4  1  0
  5  6  1  0
  6  8  1  0
  6  7  1  6
  8  9  2  0
 10 11  1  0
 10  8  1  0
 11 12  1  6
 13 12  1  0
 14 13  2  0
 15 11  1  0
 15 16  2  0
 17 13  1  0
 18 15  1  0
 19 18  1  0
 19 27  1  0
 19 20  1  1
 21 20  1  0
 22 21  2  0
 23 22  1  0
 24 23  2  0
 24 25  1  0
 25 26  2  0
 26 21  1  0
 27 28  1  0
 29 27  2  0
M  END
$$$$
