QDF.pdb
     RDKit          3D

 29 29  0  0  1  0  0  0  0  0999 V2000
    9.8613  -13.7352   16.8174 N   0  0  0  0  0  0  0  0  0  0  0  0
    8.4970  -13.6223   16.4144 C   0  0  0  0  0  0  0  0  0  0  0  0
    8.2838  -13.6922   15.1833 O   0  0  0  0  0  0  0  0  0  0  0  0
    7.3988  -13.4337   17.3486 C   0  0  0  0  0  0  0  0  0  0  0  0
    7.6683  -13.6044   18.7922 C   0  0  0  0  0  0  0  0  0  0  0  0
    8.5812  -14.7351   19.1779 C   0  0  2  0  0  0  0  0  0  0  0  0
    8.8039  -15.7288   18.1783 N   0  0  0  0  0  0  0  0  0  0  0  0
    8.0411  -15.2912   20.4541 C   0  0  0  0  0  0  0  0  0  0  0  0
    7.4281  -14.5033   21.2311 O   0  0  0  0  0  0  0  0  0  0  0  0
    8.1578  -16.6310   20.8704 N   0  0  0  0  0  0  0  0  0  0  0  0
    7.7912  -17.0805   22.2025 C   0  0  1  0  0  0  0  0  0  0  0  0
    7.4957  -18.5546   22.2352 C   0  0  0  0  0  0  0  0  0  0  0  0
    7.0868  -19.0526   23.5673 C   0  0  0  0  0  0  0  0  0  0  0  0
    5.9382  -18.9535   24.0580 O   0  0  0  0  0  0  0  0  0  0  0  0
    8.9088  -16.8157   23.1274 C   0  0  0  0  0  0  0  0  0  0  0  0
   10.0155  -16.4332   22.6824 O   0  0  0  0  0  0  0  0  0  0  0  0
    8.0616  -19.6799   24.3298 O   0  0  0  0  0  0  0  0  0  0  0  0
    8.7465  -16.9886   24.5161 N   0  0  0  0  0  0  0  0  0  0  0  0
    8.7542  -15.8173   25.3882 C   0  0  1  0  0  0  0  0  0  0  0  0
    7.6232  -14.9488   24.9490 C   0  0  0  0  0  0  0  0  0  0  0  0
    7.3664  -13.7959   25.8307 C   0  0  0  0  0  0  0  0  0  0  0  0
    8.3826  -12.9352   26.1217 C   0  0  0  0  0  0  0  0  0  0  0  0
    8.1305  -11.8589   26.9439 C   0  0  0  0  0  0  0  0  0  0  0  0
    6.8917  -11.6344   27.4724 C   0  0  0  0  0  0  0  0  0  0  0  0
    5.8662  -12.5115   27.1727 C   0  0  0  0  0  0  0  0  0  0  0  0
    6.1027  -13.5881   26.3549 C   0  0  0  0  0  0  0  0  0  0  0  0
    8.6525  -16.2453   26.7834 C   0  0  0  0  0  0  0  0  0  0  0  0
    8.1222  -17.4529   27.1812 O   0  0  0  0  0  0  0  0  0  0  0  0
    9.0671  -15.4868   27.7237 O   0  0  0  0  0  0  0  0  0  0  0  0
  2  3  2  0
  2  1  1  0
  4  2  1  0
  5  4  1  0
  5  6  1  0
  6  8  1  0
  6  7  1  6
  8  9  2  0
 10 11  1  0
 10  8  1  0
 11 12  1  6
 13 12  1  0
 14 13  2  0
 15 11  1  0
 15 16  2  0
 17 13  1  0
 18 15  1  0
 19 18  1  0
 19 27  1  0
 19 20  1  6
 21 20  1  0
 22 21  2  0
 23 22  1  0
 24 23  2  0
 24 25  1  0
 25 26  2  0
 26 21  1  0
 27 28  1  0
 29 27  2  0
M  END
$$$$
