QDF.pdb
     RDKit          3D

 29 29  0  0  1  0  0  0  0  0999 V2000
    7.3594  -15.1266   17.2020 N   0  0  0  0  0  0  0  0  0  0  0  0
    7.5810  -13.7172   17.2316 C   0  0  0  0  0  0  0  0  0  0  0  0
    7.9534  -13.2003   16.1546 O   0  0  0  0  0  0  0  0  0  0  0  0
    7.3984  -12.9025   18.4222 C   0  0  0  0  0  0  0  0  0  0  0  0
    7.4872  -13.5604   19.7431 C   0  0  0  0  0  0  0  0  0  0  0  0
    8.8684  -13.7782   20.2958 C   0  0  2  0  0  0  0  0  0  0  0  0
    9.9016  -13.9873   19.3342 N   0  0  0  0  0  0  0  0  0  0  0  0
    8.7510  -14.8878   21.2881 C   0  0  0  0  0  0  0  0  0  0  0  0
    7.5950  -15.1937   21.7008 O   0  0  0  0  0  0  0  0  0  0  0  0
    9.8284  -15.6293   21.8090 N   0  0  0  0  0  0  0  0  0  0  0  0
    9.6502  -16.7831   22.6740 C   0  0  1  0  0  0  0  0  0  0  0  0
   10.6658  -17.8561   22.3937 C   0  0  0  0  0  0  0  0  0  0  0  0
   10.4558  -18.5559   21.1069 C   0  0  0  0  0  0  0  0  0  0  0  0
    9.3516  -18.9552   20.6696 O   0  0  0  0  0  0  0  0  0  0  0  0
    9.8024  -16.3626   24.0792 C   0  0  0  0  0  0  0  0  0  0  0  0
   10.7447  -15.6066   24.4103 O   0  0  0  0  0  0  0  0  0  0  0  0
   11.5794  -18.7852   20.3259 O   0  0  0  0  0  0  0  0  0  0  0  0
    8.8944  -16.8038   25.0619 N   0  0  0  0  0  0  0  0  0  0  0  0
    9.0566  -16.3501   26.4405 C   0  0  1  0  0  0  0  0  0  0  0  0
    7.7466  -15.7705   26.8577 C   0  0  0  0  0  0  0  0  0  0  0  0
    7.5510  -14.3651   26.4590 C   0  0  0  0  0  0  0  0  0  0  0  0
    8.2055  -13.3792   27.1356 C   0  0  0  0  0  0  0  0  0  0  0  0
    8.0182  -12.0692   26.7522 C   0  0  0  0  0  0  0  0  0  0  0  0
    7.1957  -11.7359   25.7146 C   0  0  0  0  0  0  0  0  0  0  0  0
    6.5354  -12.7412   25.0332 C   0  0  0  0  0  0  0  0  0  0  0  0
    6.7125  -14.0508   25.4040 C   0  0  0  0  0  0  0  0  0  0  0  0
    9.4912  -17.4695   27.2760 C   0  0  0  0  0  0  0  0  0  0  0  0
    9.9766  -17.3301   28.5577 O   0  0  0  0  0  0  0  0  0  0  0  0
    9.4359  -18.6661   26.8328 O   0  0  0  0  0  0  0  0  0  0  0  0
  2  3  2  0
  2  1  1  0
  4  2  1  0
  5  4  1  0
  5  6  1  0
  6  8  1  0
  6  7  1  6
  8  9  2  0
 10 11  1  0
 10  8  1  0
 11 12  1  6
 13 12  1  0
 14 13  2  0
 15 11  1  0
 15 16  2  0
 17 13  1  0
 18 15  1  0
 19 18  1  0
 19 27  1  0
 19 20  1  1
 21 20  1  0
 22 21  2  0
 23 22  1  0
 24 23  2  0
 24 25  1  0
 25 26  2  0
 26 21  1  0
 27 28  1  0
 29 27  2  0
M  END
$$$$
