QDF.pdb
     RDKit          3D

 29 29  0  0  1  0  0  0  0  0999 V2000
   10.3184  -12.7363   18.8146 N   0  0  0  0  0  0  0  0  0  0  0  0
    8.9424  -12.9285   18.4886 C   0  0  0  0  0  0  0  0  0  0  0  0
    8.6718  -12.9749   17.2678 O   0  0  0  0  0  0  0  0  0  0  0  0
    7.8938  -13.0623   19.4872 C   0  0  0  0  0  0  0  0  0  0  0  0
    8.0868  -14.0380   20.5810 C   0  0  0  0  0  0  0  0  0  0  0  0
    8.2572  -15.4765   20.1783 C   0  0  2  0  0  0  0  0  0  0  0  0
    7.1623  -16.0641   19.4770 N   0  0  0  0  0  0  0  0  0  0  0  0
    8.6291  -16.2168   21.4207 C   0  0  0  0  0  0  0  0  0  0  0  0
    7.6969  -16.5827   22.1936 O   0  0  0  0  0  0  0  0  0  0  0  0
    9.9420  -16.5447   21.8089 N   0  0  0  0  0  0  0  0  0  0  0  0
   10.2463  -17.2955   23.0150 C   0  0  1  0  0  0  0  0  0  0  0  0
   11.3624  -18.2793   22.7962 C   0  0  0  0  0  0  0  0  0  0  0  0
   11.7036  -19.0725   23.9979 C   0  0  0  0  0  0  0  0  0  0  0  0
   12.7087  -18.8936   24.7244 O   0  0  0  0  0  0  0  0  0  0  0  0
   10.6610  -16.3593   24.0761 C   0  0  0  0  0  0  0  0  0  0  0  0
   11.5284  -15.4867   23.8406 O   0  0  0  0  0  0  0  0  0  0  0  0
   10.8338  -20.0973   24.3421 O   0  0  0  0  0  0  0  0  0  0  0  0
   10.0896  -16.4340   25.3617 N   0  0  0  0  0  0  0  0  0  0  0  0
   10.5629  -15.5320   26.4081 C   0  0  1  0  0  0  0  0  0  0  0  0
   10.2216  -14.1480   25.9673 C   0  0  0  0  0  0  0  0  0  0  0  0
    8.7989  -13.7958   26.1225 C   0  0  0  0  0  0  0  0  0  0  0  0
    8.3749  -13.2145   27.2803 C   0  0  0  0  0  0  0  0  0  0  0  0
    7.0435  -12.8860   27.4133 C   0  0  0  0  0  0  0  0  0  0  0  0
    6.1419  -13.1279   26.4170 C   0  0  0  0  0  0  0  0  0  0  0  0
    6.5794  -13.7176   25.2458 C   0  0  0  0  0  0  0  0  0  0  0  0
    7.9029  -14.0502   25.0992 C   0  0  0  0  0  0  0  0  0  0  0  0
    9.9549  -15.9032   27.6859 C   0  0  0  0  0  0  0  0  0  0  0  0
   10.2770  -15.3173   28.8903 O   0  0  0  0  0  0  0  0  0  0  0  0
    9.0677  -16.8206   27.7369 O   0  0  0  0  0  0  0  0  0  0  0  0
  2  3  2  0
  2  1  1  0
  4  2  1  0
  5  4  1  0
  5  6  1  0
  6  8  1  0
  6  7  1  1
  8  9  2  0
 10 11  1  0
 10  8  1  0
 11 12  1  6
 13 12  1  0
 14 13  2  0
 15 11  1  0
 15 16  2  0
 17 13  1  0
 18 15  1  0
 19 18  1  0
 19 27  1  0
 19 20  1  6
 21 20  1  0
 22 21  2  0
 23 22  1  0
 24 23  2  0
 24 25  1  0
 25 26  2  0
 26 21  1  0
 27 28  1  0
 29 27  2  0
M  END
$$$$
