QDF.pdb
     RDKit          3D

 29 29  0  0  1  0  0  0  0  0999 V2000
    8.8569  -14.9134   15.6775 N   0  0  0  0  0  0  0  0  0  0  0  0
    7.8790  -14.6490   16.6827 C   0  0  0  0  0  0  0  0  0  0  0  0
    7.0078  -15.5329   16.8428 O   0  0  0  0  0  0  0  0  0  0  0  0
    7.8638  -13.4373   17.4865 C   0  0  0  0  0  0  0  0  0  0  0  0
    7.4862  -13.5454   18.9118 C   0  0  0  0  0  0  0  0  0  0  0  0
    8.6076  -13.4903   19.9118 C   0  0  2  0  0  0  0  0  0  0  0  0
    9.9226  -13.3677   19.3716 N   0  0  0  0  0  0  0  0  0  0  0  0
    8.4397  -14.6835   20.7938 C   0  0  0  0  0  0  0  0  0  0  0  0
    7.2926  -14.9048   21.2789 O   0  0  0  0  0  0  0  0  0  0  0  0
    9.4599  -15.5916   21.1351 N   0  0  0  0  0  0  0  0  0  0  0  0
    9.2363  -16.7519   21.9805 C   0  0  1  0  0  0  0  0  0  0  0  0
   10.3140  -17.7865   21.8091 C   0  0  0  0  0  0  0  0  0  0  0  0
    9.8275  -19.1797   21.9186 C   0  0  0  0  0  0  0  0  0  0  0  0
   10.5037  -20.2059   21.6744 O   0  0  0  0  0  0  0  0  0  0  0  0
    9.2278  -16.3273   23.3927 C   0  0  0  0  0  0  0  0  0  0  0  0
   10.1408  -15.5913   23.8330 O   0  0  0  0  0  0  0  0  0  0  0  0
    8.5128  -19.3558   22.3259 O   0  0  0  0  0  0  0  0  0  0  0  0
    8.1978  -16.7421   24.2599 N   0  0  0  0  0  0  0  0  0  0  0  0
    8.1958  -16.2738   25.6431 C   0  0  1  0  0  0  0  0  0  0  0  0
    6.8782  -15.6112   25.8691 C   0  0  0  0  0  0  0  0  0  0  0  0
    6.9653  -14.1648   26.1385 C   0  0  0  0  0  0  0  0  0  0  0  0
    5.8729  -13.3769   25.9283 C   0  0  0  0  0  0  0  0  0  0  0  0
    5.9644  -12.0268   26.1869 C   0  0  0  0  0  0  0  0  0  0  0  0
    7.1186  -11.4609   26.6470 C   0  0  0  0  0  0  0  0  0  0  0  0
    8.2222  -12.2663   26.8578 C   0  0  0  0  0  0  0  0  0  0  0  0
    8.1457  -13.6131   26.6046 C   0  0  0  0  0  0  0  0  0  0  0  0
    8.4429  -17.4013   26.5418 C   0  0  0  0  0  0  0  0  0  0  0  0
    8.5546  -18.7090   26.1231 O   0  0  0  0  0  0  0  0  0  0  0  0
    8.5693  -17.2103   27.7984 O   0  0  0  0  0  0  0  0  0  0  0  0
  2  3  2  0
  2  1  1  0
  4  2  1  0
  5  4  1  0
  5  6  1  0
  6  8  1  0
  6  7  1  6
  8  9  2  0
 10 11  1  0
 10  8  1  0
 11 12  1  1
 13 12  1  0
 14 13  2  0
 15 11  1  0
 15 16  2  0
 17 13  1  0
 18 15  1  0
 19 18  1  0
 19 27  1  0
 19 20  1  1
 21 20  1  0
 22 21  2  0
 23 22  1  0
 24 23  2  0
 24 25  1  0
 25 26  2  0
 26 21  1  0
 27 28  1  0
 29 27  2  0
M  END
$$$$
