QDF.pdb
     RDKit          3D

 29 29  0  0  1  0  0  0  0  0999 V2000
   10.1136  -12.4150   18.9719 N   0  0  0  0  0  0  0  0  0  0  0  0
    8.8604  -12.8813   18.4732 C   0  0  0  0  0  0  0  0  0  0  0  0
    8.7821  -13.0136   17.2314 O   0  0  0  0  0  0  0  0  0  0  0  0
    7.7237  -13.1895   19.3260 C   0  0  0  0  0  0  0  0  0  0  0  0
    7.9356  -14.0890   20.4800 C   0  0  0  0  0  0  0  0  0  0  0  0
    8.4519  -15.4674   20.1738 C   0  0  2  0  0  0  0  0  0  0  0  0
    7.6765  -16.2366   19.2555 N   0  0  0  0  0  0  0  0  0  0  0  0
    8.6486  -16.1421   21.4914 C   0  0  0  0  0  0  0  0  0  0  0  0
    7.6705  -16.1728   22.2930 O   0  0  0  0  0  0  0  0  0  0  0  0
    9.8421  -16.7522   21.9216 N   0  0  0  0  0  0  0  0  0  0  0  0
    9.9778  -17.4008   23.2147 C   0  0  1  0  0  0  0  0  0  0  0  0
   10.9434  -18.5525   23.1655 C   0  0  0  0  0  0  0  0  0  0  0  0
   11.9908  -18.4103   22.1300 C   0  0  0  0  0  0  0  0  0  0  0  0
   11.8450  -18.6605   20.9110 O   0  0  0  0  0  0  0  0  0  0  0  0
   10.4802  -16.4220   24.1966 C   0  0  0  0  0  0  0  0  0  0  0  0
   11.2656  -15.5156   23.8350 O   0  0  0  0  0  0  0  0  0  0  0  0
   13.2344  -17.9622   22.5518 O   0  0  0  0  0  0  0  0  0  0  0  0
   10.0851  -16.4939   25.5470 N   0  0  0  0  0  0  0  0  0  0  0  0
   10.5696  -15.4879   26.4882 C   0  0  1  0  0  0  0  0  0  0  0  0
   10.1903  -14.1584   25.9273 C   0  0  0  0  0  0  0  0  0  0  0  0
    8.8031  -13.7522   26.2155 C   0  0  0  0  0  0  0  0  0  0  0  0
    7.8065  -14.1166   25.3598 C   0  0  0  0  0  0  0  0  0  0  0  0
    6.5130  -13.7346   25.6408 C   0  0  0  0  0  0  0  0  0  0  0  0
    6.2063  -13.0025   26.7517 C   0  0  0  0  0  0  0  0  0  0  0  0
    7.2223  -12.6368   27.6148 C   0  0  0  0  0  0  0  0  0  0  0  0
    8.5157  -13.0103   27.3476 C   0  0  0  0  0  0  0  0  0  0  0  0
   10.0039  -15.7445   27.8127 C   0  0  0  0  0  0  0  0  0  0  0  0
    9.0798  -16.7313   28.0769 O   0  0  0  0  0  0  0  0  0  0  0  0
   10.3580  -15.0359   28.8147 O   0  0  0  0  0  0  0  0  0  0  0  0
  2  3  2  0
  2  1  1  0
  4  2  1  0
  5  4  1  0
  5  6  1  0
  6  8  1  0
  6  7  1  6
  8  9  2  0
 10 11  1  0
 10  8  1  0
 11 12  1  6
 13 12  1  0
 14 13  2  0
 15 11  1  0
 15 16  2  0
 17 13  1  0
 18 15  1  0
 19 18  1  0
 19 27  1  0
 19 20  1  6
 21 20  1  0
 22 21  2  0
 23 22  1  0
 24 23  2  0
 24 25  1  0
 25 26  2  0
 26 21  1  0
 27 28  1  0
 29 27  2  0
M  END
$$$$
