QDF.pdb
     RDKit          3D

 29 29  0  0  1  0  0  0  0  0999 V2000
    4.5451  -22.6508   21.8812 N   0  0  0  0  0  0  0  0  0  0  0  0
    4.5868  -22.7166   23.3062 C   0  0  0  0  0  0  0  0  0  0  0  0
    3.7376  -23.4623   23.8434 O   0  0  0  0  0  0  0  0  0  0  0  0
    5.5406  -21.9744   24.1147 C   0  0  0  0  0  0  0  0  0  0  0  0
    6.5068  -21.0917   23.4267 C   0  0  0  0  0  0  0  0  0  0  0  0
    6.6460  -19.6953   23.9662 C   0  0  2  0  0  0  0  0  0  0  0  0
    5.4497  -18.9187   24.0094 N   0  0  0  0  0  0  0  0  0  0  0  0
    7.7408  -19.0513   23.1809 C   0  0  0  0  0  0  0  0  0  0  0  0
    8.9154  -19.4977   23.3262 O   0  0  0  0  0  0  0  0  0  0  0  0
    7.5750  -17.9787   22.2844 N   0  0  0  0  0  0  0  0  0  0  0  0
    8.6911  -17.2926   21.6563 C   0  0  1  0  0  0  0  0  0  0  0  0
    8.3297  -16.7623   20.2964 C   0  0  0  0  0  0  0  0  0  0  0  0
    7.5466  -17.7110   19.4740 C   0  0  0  0  0  0  0  0  0  0  0  0
    7.9275  -18.8511   19.1205 O   0  0  0  0  0  0  0  0  0  0  0  0
    9.0959  -16.1534   22.5006 C   0  0  0  0  0  0  0  0  0  0  0  0
    9.3274  -15.0372   21.9812 O   0  0  0  0  0  0  0  0  0  0  0  0
    6.2873  -17.2964   19.0646 O   0  0  0  0  0  0  0  0  0  0  0  0
    9.2265  -16.3053   23.8952 N   0  0  0  0  0  0  0  0  0  0  0  0
    9.1345  -15.1281   24.7544 C   0  0  1  0  0  0  0  0  0  0  0  0
    7.8087  -14.5006   24.4809 C   0  0  0  0  0  0  0  0  0  0  0  0
    7.4682  -13.3855   25.3824 C   0  0  0  0  0  0  0  0  0  0  0  0
    8.0859  -12.1810   25.2215 C   0  0  0  0  0  0  0  0  0  0  0  0
    7.7573  -11.1444   26.0676 C   0  0  0  0  0  0  0  0  0  0  0  0
    6.8313  -11.2940   27.0596 C   0  0  0  0  0  0  0  0  0  0  0  0
    6.2091  -12.5184   27.2166 C   0  0  0  0  0  0  0  0  0  0  0  0
    6.5264  -13.5601   26.3811 C   0  0  0  0  0  0  0  0  0  0  0  0
    9.3139  -15.5261   26.1506 C   0  0  0  0  0  0  0  0  0  0  0  0
    9.2139  -16.8246   26.5996 O   0  0  0  0  0  0  0  0  0  0  0  0
    9.5802  -14.6516   27.0426 O   0  0  0  0  0  0  0  0  0  0  0  0
  2  3  2  0
  2  1  1  0
  4  2  1  0
  5  4  1  0
  5  6  1  0
  6  8  1  0
  6  7  1  6
  8  9  2  0
 10 11  1  0
 10  8  1  0
 11 12  1  6
 13 12  1  0
 14 13  2  0
 15 11  1  0
 15 16  2  0
 17 13  1  0
 18 15  1  0
 19 18  1  0
 19 27  1  0
 19 20  1  1
 21 20  1  0
 22 21  2  0
 23 22  1  0
 24 23  2  0
 24 25  1  0
 25 26  2  0
 26 21  1  0
 27 28  1  0
 29 27  2  0
M  END
$$$$
