QDF.pdb
     RDKit          3D

 29 29  0  0  1  0  0  0  0  0999 V2000
    8.5423  -12.3534   17.8428 N   0  0  0  0  0  0  0  0  0  0  0  0
    7.7093  -13.4041   17.3541 C   0  0  0  0  0  0  0  0  0  0  0  0
    7.4594  -13.3773   16.1282 O   0  0  0  0  0  0  0  0  0  0  0  0
    7.1651  -14.4541   18.2001 C   0  0  0  0  0  0  0  0  0  0  0  0
    7.6476  -14.5529   19.5941 C   0  0  0  0  0  0  0  0  0  0  0  0
    9.0737  -14.9892   19.7839 C   0  0  2  0  0  0  0  0  0  0  0  0
    9.6997  -15.5926   18.6525 N   0  0  0  0  0  0  0  0  0  0  0  0
    9.0869  -15.8568   20.9992 C   0  0  0  0  0  0  0  0  0  0  0  0
    7.9748  -16.1816   21.5071 O   0  0  0  0  0  0  0  0  0  0  0  0
   10.2432  -16.3481   21.6344 N   0  0  0  0  0  0  0  0  0  0  0  0
   10.1982  -17.2473   22.7748 C   0  0  1  0  0  0  0  0  0  0  0  0
   11.4564  -18.0618   22.8965 C   0  0  0  0  0  0  0  0  0  0  0  0
   12.6748  -17.3488   22.4532 C   0  0  0  0  0  0  0  0  0  0  0  0
   12.8151  -16.7665   21.3527 O   0  0  0  0  0  0  0  0  0  0  0  0
   10.0423  -16.4558   24.0092 C   0  0  0  0  0  0  0  0  0  0  0  0
   10.7555  -15.4440   24.2012 O   0  0  0  0  0  0  0  0  0  0  0  0
   13.7461  -17.3277   23.3348 O   0  0  0  0  0  0  0  0  0  0  0  0
    9.0941  -16.8258   24.9833 N   0  0  0  0  0  0  0  0  0  0  0  0
    8.9057  -15.9770   26.1565 C   0  0  1  0  0  0  0  0  0  0  0  0
    7.4643  -15.5921   26.1798 C   0  0  0  0  0  0  0  0  0  0  0  0
    7.2258  -14.1387   26.2371 C   0  0  0  0  0  0  0  0  0  0  0  0
    5.9495  -13.6656   26.1635 C   0  0  0  0  0  0  0  0  0  0  0  0
    5.7378  -12.3055   26.2217 C   0  0  0  0  0  0  0  0  0  0  0  0
    6.7718  -11.4233   26.3508 C   0  0  0  0  0  0  0  0  0  0  0  0
    8.0633  -11.9106   26.4249 C   0  0  0  0  0  0  0  0  0  0  0  0
    8.2893  -13.2632   26.3683 C   0  0  0  0  0  0  0  0  0  0  0  0
    9.3362  -16.6965   27.3553 C   0  0  0  0  0  0  0  0  0  0  0  0
    9.6596  -18.0354   27.3746 O   0  0  0  0  0  0  0  0  0  0  0  0
    9.4324  -16.0882   28.4743 O   0  0  0  0  0  0  0  0  0  0  0  0
  2  3  2  0
  2  1  1  0
  4  2  1  0
  5  4  1  0
  5  6  1  0
  6  8  1  0
  6  7  1  6
  8  9  2  0
 10 11  1  0
 10  8  1  0
 11 12  1  1
 13 12  1  0
 14 13  2  0
 15 11  1  0
 15 16  2  0
 17 13  1  0
 18 15  1  0
 19 18  1  0
 19 27  1  0
 19 20  1  1
 21 20  1  0
 22 21  2  0
 23 22  1  0
 24 23  2  0
 24 25  1  0
 25 26  2  0
 26 21  1  0
 27 28  1  0
 29 27  2  0
M  END
$$$$
