QDF.pdb
     RDKit          3D

 29 29  0  0  1  0  0  0  0  0999 V2000
    7.9410  -11.8610   18.4888 N   0  0  0  0  0  0  0  0  0  0  0  0
    7.7309  -13.2724   18.4685 C   0  0  0  0  0  0  0  0  0  0  0  0
    8.5008  -13.9283   17.7317 O   0  0  0  0  0  0  0  0  0  0  0  0
    6.6945  -13.9391   19.2403 C   0  0  0  0  0  0  0  0  0  0  0  0
    7.0168  -14.3804   20.6140 C   0  0  0  0  0  0  0  0  0  0  0  0
    8.4678  -14.3541   21.0070 C   0  0  2  0  0  0  0  0  0  0  0  0
    9.4057  -14.5689   19.9533 N   0  0  0  0  0  0  0  0  0  0  0  0
    8.6129  -15.3227   22.1342 C   0  0  0  0  0  0  0  0  0  0  0  0
    7.6157  -15.5043   22.8911 O   0  0  0  0  0  0  0  0  0  0  0  0
    9.7769  -16.0575   22.4293 N   0  0  0  0  0  0  0  0  0  0  0  0
    9.8684  -16.9789   23.5490 C   0  0  1  0  0  0  0  0  0  0  0  0
   10.9570  -17.9969   23.3497 C   0  0  0  0  0  0  0  0  0  0  0  0
   10.7483  -18.8727   22.1753 C   0  0  0  0  0  0  0  0  0  0  0  0
   11.3793  -18.8012   21.0953 O   0  0  0  0  0  0  0  0  0  0  0  0
   10.1688  -16.2199   24.7770 C   0  0  0  0  0  0  0  0  0  0  0  0
   11.1555  -15.4489   24.8137 O   0  0  0  0  0  0  0  0  0  0  0  0
    9.7711  -19.8515   22.2874 O   0  0  0  0  0  0  0  0  0  0  0  0
    9.3539  -16.3516   25.9187 N   0  0  0  0  0  0  0  0  0  0  0  0
    9.7759  -15.7350   27.1734 C   0  0  1  0  0  0  0  0  0  0  0  0
    8.5602  -15.1142   27.7758 C   0  0  0  0  0  0  0  0  0  0  0  0
    8.0766  -13.9161   27.0665 C   0  0  0  0  0  0  0  0  0  0  0  0
    8.8243  -12.7765   27.0889 C   0  0  0  0  0  0  0  0  0  0  0  0
    8.3644  -11.6636   26.4195 C   0  0  0  0  0  0  0  0  0  0  0  0
    7.1821  -11.6746   25.7367 C   0  0  0  0  0  0  0  0  0  0  0  0
    6.4294  -12.8339   25.7186 C   0  0  0  0  0  0  0  0  0  0  0  0
    6.8751  -13.9504   26.3809 C   0  0  0  0  0  0  0  0  0  0  0  0
   10.3997  -16.7443   28.0291 C   0  0  0  0  0  0  0  0  0  0  0  0
   10.5298  -18.0716   27.6843 O   0  0  0  0  0  0  0  0  0  0  0  0
   10.8658  -16.4221   29.1738 O   0  0  0  0  0  0  0  0  0  0  0  0
  2  3  2  0
  2  1  1  0
  4  2  1  0
  5  4  1  0
  5  6  1  0
  6  8  1  0
  6  7  1  6
  8  9  2  0
 10 11  1  0
 10  8  1  0
 11 12  1  6
 13 12  1  0
 14 13  2  0
 15 11  1  0
 15 16  2  0
 17 13  1  0
 18 15  1  0
 19 18  1  0
 19 27  1  0
 19 20  1  1
 21 20  1  0
 22 21  2  0
 23 22  1  0
 24 23  2  0
 24 25  1  0
 25 26  2  0
 26 21  1  0
 27 28  1  0
 29 27  2  0
M  END
$$$$
