QDF.pdb
     RDKit          3D

 29 29  0  0  1  0  0  0  0  0999 V2000
    6.9254  -13.4655   16.7287 N   0  0  0  0  0  0  0  0  0  0  0  0
    7.6520  -14.6083   17.1790 C   0  0  0  0  0  0  0  0  0  0  0  0
    8.1548  -15.3232   16.2834 O   0  0  0  0  0  0  0  0  0  0  0  0
    7.8149  -14.9521   18.5824 C   0  0  0  0  0  0  0  0  0  0  0  0
    7.1423  -14.1093   19.5939 C   0  0  0  0  0  0  0  0  0  0  0  0
    7.9811  -13.6512   20.7546 C   0  0  2  0  0  0  0  0  0  0  0  0
    9.1503  -12.9026   20.4251 N   0  0  0  0  0  0  0  0  0  0  0  0
    8.2692  -14.8696   21.5684 C   0  0  0  0  0  0  0  0  0  0  0  0
    7.2868  -15.5393   22.0004 O   0  0  0  0  0  0  0  0  0  0  0  0
    9.5540  -15.3405   21.8994 N   0  0  0  0  0  0  0  0  0  0  0  0
    9.7781  -16.4976   22.7491 C   0  0  1  0  0  0  0  0  0  0  0  0
   11.1166  -17.1322   22.4905 C   0  0  0  0  0  0  0  0  0  0  0  0
   11.2901  -17.6165   21.1031 C   0  0  0  0  0  0  0  0  0  0  0  0
   10.4732  -18.3301   20.4759 O   0  0  0  0  0  0  0  0  0  0  0  0
    9.7348  -16.0764   24.1616 C   0  0  0  0  0  0  0  0  0  0  0  0
   10.4786  -15.1527   24.5650 O   0  0  0  0  0  0  0  0  0  0  0  0
   12.4564  -17.2454   20.4493 O   0  0  0  0  0  0  0  0  0  0  0  0
    8.8608  -16.7046   25.0706 N   0  0  0  0  0  0  0  0  0  0  0  0
    8.8323  -16.2574   26.4605 C   0  0  1  0  0  0  0  0  0  0  0  0
    7.4377  -15.8044   26.7363 C   0  0  0  0  0  0  0  0  0  0  0  0
    7.1442  -14.4338   26.2805 C   0  0  0  0  0  0  0  0  0  0  0  0
    6.1479  -14.2282   25.3731 C   0  0  0  0  0  0  0  0  0  0  0  0
    5.8796  -12.9426   24.9567 C   0  0  0  0  0  0  0  0  0  0  0  0
    6.5850  -11.8734   25.4294 C   0  0  0  0  0  0  0  0  0  0  0  0
    7.5938  -12.0898   26.3494 C   0  0  0  0  0  0  0  0  0  0  0  0
    7.8722  -13.3652   26.7733 C   0  0  0  0  0  0  0  0  0  0  0  0
    9.2753  -17.3445   27.3334 C   0  0  0  0  0  0  0  0  0  0  0  0
    9.5775  -18.6131   26.8898 O   0  0  0  0  0  0  0  0  0  0  0  0
    9.4039  -17.1527   28.5897 O   0  0  0  0  0  0  0  0  0  0  0  0
  2  3  2  0
  2  1  1  0
  4  2  1  0
  5  4  1  0
  5  6  1  0
  6  8  1  0
  6  7  1  6
  8  9  2  0
 10 11  1  0
 10  8  1  0
 11 12  1  6
 13 12  1  0
 14 13  2  0
 15 11  1  0
 15 16  2  0
 17 13  1  0
 18 15  1  0
 19 18  1  0
 19 27  1  0
 19 20  1  1
 21 20  1  0
 22 21  2  0
 23 22  1  0
 24 23  2  0
 24 25  1  0
 25 26  2  0
 26 21  1  0
 27 28  1  0
 29 27  2  0
M  END
$$$$
