QDF.pdb
     RDKit          3D

 29 29  0  0  1  0  0  0  0  0999 V2000
    9.7955  -11.9831   18.8480 N   0  0  0  0  0  0  0  0  0  0  0  0
    8.7683  -12.8361   18.3442 C   0  0  0  0  0  0  0  0  0  0  0  0
    9.0426  -13.4597   17.2945 O   0  0  0  0  0  0  0  0  0  0  0  0
    7.4715  -12.9920   18.9832 C   0  0  0  0  0  0  0  0  0  0  0  0
    7.3682  -13.8933   20.1505 C   0  0  0  0  0  0  0  0  0  0  0  0
    7.7248  -15.3358   19.9215 C   0  0  2  0  0  0  0  0  0  0  0  0
    6.9916  -16.0071   18.8979 N   0  0  0  0  0  0  0  0  0  0  0  0
    7.6304  -16.0059   21.2526 C   0  0  0  0  0  0  0  0  0  0  0  0
    6.6661  -15.6896   22.0079 O   0  0  0  0  0  0  0  0  0  0  0  0
    8.5325  -16.9687   21.7434 N   0  0  0  0  0  0  0  0  0  0  0  0
    8.4048  -17.5757   23.0573 C   0  0  1  0  0  0  0  0  0  0  0  0
    8.6238  -19.0628   23.0115 C   0  0  0  0  0  0  0  0  0  0  0  0
    8.5305  -19.7213   24.3333 C   0  0  0  0  0  0  0  0  0  0  0  0
    8.2651  -19.1455   25.4140 O   0  0  0  0  0  0  0  0  0  0  0  0
    9.4127  -16.9908   23.9607 C   0  0  0  0  0  0  0  0  0  0  0  0
   10.6318  -17.0892   23.6900 O   0  0  0  0  0  0  0  0  0  0  0  0
    8.7571  -21.0897   24.3708 O   0  0  0  0  0  0  0  0  0  0  0  0
    9.0192  -16.3172   25.1339 N   0  0  0  0  0  0  0  0  0  0  0  0
   10.0406  -15.7445   26.0064 C   0  0  1  0  0  0  0  0  0  0  0  0
    9.9996  -14.2672   25.8018 C   0  0  0  0  0  0  0  0  0  0  0  0
    8.7088  -13.6434   26.1439 C   0  0  0  0  0  0  0  0  0  0  0  0
    8.5472  -13.0656   27.3680 C   0  0  0  0  0  0  0  0  0  0  0  0
    7.3377  -12.4823   27.6759 C   0  0  0  0  0  0  0  0  0  0  0  0
    6.3008  -12.4689   26.7878 C   0  0  0  0  0  0  0  0  0  0  0  0
    6.4722  -13.0566   25.5484 C   0  0  0  0  0  0  0  0  0  0  0  0
    7.6718  -13.6416   25.2278 C   0  0  0  0  0  0  0  0  0  0  0  0
    9.7857  -16.1487   27.3891 C   0  0  0  0  0  0  0  0  0  0  0  0
   10.6323  -15.8725   28.4401 O   0  0  0  0  0  0  0  0  0  0  0  0
    8.7275  -16.7988   27.6875 O   0  0  0  0  0  0  0  0  0  0  0  0
  2  3  2  0
  2  1  1  0
  4  2  1  0
  5  4  1  0
  5  6  1  0
  6  8  1  0
  6  7  1  6
  8  9  2  0
 10 11  1  0
 10  8  1  0
 11 12  1  6
 13 12  1  0
 14 13  2  0
 15 11  1  0
 15 16  2  0
 17 13  1  0
 18 15  1  0
 19 18  1  0
 19 27  1  0
 19 20  1  1
 21 20  1  0
 22 21  2  0
 23 22  1  0
 24 23  2  0
 24 25  1  0
 25 26  2  0
 26 21  1  0
 27 28  1  0
 29 27  2  0
M  END
$$$$
