QDF.pdb
     RDKit          3D

 29 29  0  0  1  0  0  0  0  0999 V2000
    9.8080  -12.3417   18.4301 N   0  0  0  0  0  0  0  0  0  0  0  0
    8.6102  -13.0642   18.1475 C   0  0  0  0  0  0  0  0  0  0  0  0
    8.5517  -13.6047   17.0204 O   0  0  0  0  0  0  0  0  0  0  0  0
    7.5057  -13.1824   19.0859 C   0  0  0  0  0  0  0  0  0  0  0  0
    7.6675  -14.0782   20.2509 C   0  0  0  0  0  0  0  0  0  0  0  0
    7.7998  -15.5469   19.9581 C   0  0  2  0  0  0  0  0  0  0  0  0
    6.7097  -16.1466   19.2594 N   0  0  0  0  0  0  0  0  0  0  0  0
    8.1005  -16.2076   21.2631 C   0  0  0  0  0  0  0  0  0  0  0  0
    7.1772  -16.2618   22.1262 O   0  0  0  0  0  0  0  0  0  0  0  0
    9.3366  -16.7802   21.6181 N   0  0  0  0  0  0  0  0  0  0  0  0
    9.5564  -17.4704   22.8776 C   0  0  1  0  0  0  0  0  0  0  0  0
   10.4855  -18.6423   22.7200 C   0  0  0  0  0  0  0  0  0  0  0  0
   10.8030  -19.3282   23.9921 C   0  0  0  0  0  0  0  0  0  0  0  0
    9.9970  -20.0033   24.6735 O   0  0  0  0  0  0  0  0  0  0  0  0
   10.1587  -16.5337   23.8441 C   0  0  0  0  0  0  0  0  0  0  0  0
   11.1804  -15.8795   23.5321 O   0  0  0  0  0  0  0  0  0  0  0  0
   12.1030  -19.2090   24.4625 O   0  0  0  0  0  0  0  0  0  0  0  0
    9.5954  -16.3636   25.1242 N   0  0  0  0  0  0  0  0  0  0  0  0
   10.3093  -15.5686   26.1196 C   0  0  1  0  0  0  0  0  0  0  0  0
   10.1166  -14.1377   25.7436 C   0  0  0  0  0  0  0  0  0  0  0  0
    8.7370  -13.6471   25.9122 C   0  0  0  0  0  0  0  0  0  0  0  0
    8.3595  -13.1050   27.1045 C   0  0  0  0  0  0  0  0  0  0  0  0
    7.0685  -12.6462   27.2499 C   0  0  0  0  0  0  0  0  0  0  0  0
    6.1615  -12.7212   26.2321 C   0  0  0  0  0  0  0  0  0  0  0  0
    6.5518  -13.2721   25.0259 C   0  0  0  0  0  0  0  0  0  0  0  0
    7.8347  -13.7332   24.8666 C   0  0  0  0  0  0  0  0  0  0  0  0
    9.8085  -15.8927   27.4554 C   0  0  0  0  0  0  0  0  0  0  0  0
   10.3432  -15.3891   28.6208 O   0  0  0  0  0  0  0  0  0  0  0  0
    8.8180  -16.6861   27.5991 O   0  0  0  0  0  0  0  0  0  0  0  0
  2  3  2  0
  2  1  1  0
  4  2  1  0
  5  4  1  0
  5  6  1  0
  6  8  1  0
  6  7  1  1
  8  9  2  0
 10 11  1  0
 10  8  1  0
 11 12  1  6
 13 12  1  0
 14 13  2  0
 15 11  1  0
 15 16  2  0
 17 13  1  0
 18 15  1  0
 19 18  1  0
 19 27  1  0
 19 20  1  6
 21 20  1  0
 22 21  2  0
 23 22  1  0
 24 23  2  0
 24 25  1  0
 25 26  2  0
 26 21  1  0
 27 28  1  0
 29 27  2  0
M  END
$$$$
