QDF.pdb
     RDKit          3D

 29 29  0  0  1  0  0  0  0  0999 V2000
    7.5264  -12.9343   16.3548 N   0  0  0  0  0  0  0  0  0  0  0  0
    8.4610  -12.9542   17.4330 C   0  0  0  0  0  0  0  0  0  0  0  0
    9.6141  -13.3486   17.1489 O   0  0  0  0  0  0  0  0  0  0  0  0
    8.1273  -12.5515   18.7898 C   0  0  0  0  0  0  0  0  0  0  0  0
    7.8702  -13.6075   19.7921 C   0  0  0  0  0  0  0  0  0  0  0  0
    8.2827  -15.0045   19.4196 C   0  0  2  0  0  0  0  0  0  0  0  0
    7.4786  -15.6533   18.4355 N   0  0  0  0  0  0  0  0  0  0  0  0
    8.3797  -15.7668   20.7000 C   0  0  0  0  0  0  0  0  0  0  0  0
    7.3080  -16.0131   21.3254 O   0  0  0  0  0  0  0  0  0  0  0  0
    9.5743  -16.2386   21.2762 N   0  0  0  0  0  0  0  0  0  0  0  0
    9.6014  -17.1766   22.3855 C   0  0  1  0  0  0  0  0  0  0  0  0
   10.7520  -18.1388   22.2781 C   0  0  0  0  0  0  0  0  0  0  0  0
   10.6449  -19.0729   21.1354 C   0  0  0  0  0  0  0  0  0  0  0  0
    9.5847  -19.6004   20.7261 O   0  0  0  0  0  0  0  0  0  0  0  0
    9.7446  -16.4288   23.6483 C   0  0  0  0  0  0  0  0  0  0  0  0
   10.6787  -15.6062   23.7890 O   0  0  0  0  0  0  0  0  0  0  0  0
   11.8202  -19.3854   20.4673 O   0  0  0  0  0  0  0  0  0  0  0  0
    8.8370  -16.6292   24.7071 N   0  0  0  0  0  0  0  0  0  0  0  0
    9.0596  -15.9463   25.9786 C   0  0  1  0  0  0  0  0  0  0  0  0
    7.7146  -15.5744   26.5064 C   0  0  0  0  0  0  0  0  0  0  0  0
    7.3271  -14.1761   26.2475 C   0  0  0  0  0  0  0  0  0  0  0  0
    6.1518  -13.7023   26.7499 C   0  0  0  0  0  0  0  0  0  0  0  0
    5.8013  -12.3927   26.5048 C   0  0  0  0  0  0  0  0  0  0  0  0
    6.5998  -11.5610   25.7735 C   0  0  0  0  0  0  0  0  0  0  0  0
    7.7901  -12.0486   25.2674 C   0  0  0  0  0  0  0  0  0  0  0  0
    8.1523  -13.3513   25.5036 C   0  0  0  0  0  0  0  0  0  0  0  0
    9.8172  -16.8184   26.8762 C   0  0  0  0  0  0  0  0  0  0  0  0
   10.4215  -16.3891   28.0374 O   0  0  0  0  0  0  0  0  0  0  0  0
    9.9537  -18.0597   26.6080 O   0  0  0  0  0  0  0  0  0  0  0  0
  2  3  2  0
  2  1  1  0
  4  2  1  0
  5  4  1  0
  5  6  1  0
  6  8  1  0
  6  7  1  6
  8  9  2  0
 10 11  1  0
 10  8  1  0
 11 12  1  6
 13 12  1  0
 14 13  2  0
 15 11  1  0
 15 16  2  0
 17 13  1  0
 18 15  1  0
 19 18  1  0
 19 27  1  0
 19 20  1  1
 21 20  1  0
 22 21  2  0
 23 22  1  0
 24 23  2  0
 24 25  1  0
 25 26  2  0
 26 21  1  0
 27 28  1  0
 29 27  2  0
M  END
$$$$
