QDF.pdb
     RDKit          3D

 29 29  0  0  1  0  0  0  0  0999 V2000
    7.2180  -14.7048   17.2178 N   0  0  0  0  0  0  0  0  0  0  0  0
    7.9429  -13.7053   17.9334 C   0  0  0  0  0  0  0  0  0  0  0  0
    8.3525  -12.7370   17.2548 O   0  0  0  0  0  0  0  0  0  0  0  0
    8.2101  -13.7774   19.3609 C   0  0  0  0  0  0  0  0  0  0  0  0
    7.6249  -14.8971   20.1287 C   0  0  0  0  0  0  0  0  0  0  0  0
    7.9186  -14.9293   21.6029 C   0  0  2  0  0  0  0  0  0  0  0  0
    8.8195  -13.9326   22.0836 N   0  0  0  0  0  0  0  0  0  0  0  0
    8.3592  -16.3224   21.9108 C   0  0  0  0  0  0  0  0  0  0  0  0
    8.2423  -17.1950   21.0024 O   0  0  0  0  0  0  0  0  0  0  0  0
    8.8983  -16.7515   23.1384 N   0  0  0  0  0  0  0  0  0  0  0  0
   10.3121  -17.0272   23.3287 C   0  0  1  0  0  0  0  0  0  0  0  0
   11.1759  -16.1428   22.4724 C   0  0  0  0  0  0  0  0  0  0  0  0
   12.6183  -16.4648   22.5459 C   0  0  0  0  0  0  0  0  0  0  0  0
   13.5158  -15.6881   22.9473 O   0  0  0  0  0  0  0  0  0  0  0  0
   10.6663  -16.7875   24.7399 C   0  0  0  0  0  0  0  0  0  0  0  0
   11.4936  -17.5316   25.3152 O   0  0  0  0  0  0  0  0  0  0  0  0
   13.0005  -17.7336   22.1344 O   0  0  0  0  0  0  0  0  0  0  0  0
   10.0814  -15.7239   25.4552 N   0  0  0  0  0  0  0  0  0  0  0  0
    9.3509  -16.0072   26.6875 C   0  0  1  0  0  0  0  0  0  0  0  0
    7.9151  -15.7088   26.4126 C   0  0  0  0  0  0  0  0  0  0  0  0
    7.6175  -14.2768   26.2312 C   0  0  0  0  0  0  0  0  0  0  0  0
    7.9904  -13.3875   27.1947 C   0  0  0  0  0  0  0  0  0  0  0  0
    7.7104  -12.0507   27.0131 C   0  0  0  0  0  0  0  0  0  0  0  0
    7.0708  -11.5970   25.8955 C   0  0  0  0  0  0  0  0  0  0  0  0
    6.6957  -12.5048   24.9228 C   0  0  0  0  0  0  0  0  0  0  0  0
    6.9681  -13.8396   25.0901 C   0  0  0  0  0  0  0  0  0  0  0  0
    9.5912  -17.3926   27.0913 C   0  0  0  0  0  0  0  0  0  0  0  0
    9.2036  -17.9191   28.3038 O   0  0  0  0  0  0  0  0  0  0  0  0
   10.1935  -18.1994   26.3053 O   0  0  0  0  0  0  0  0  0  0  0  0
  2  3  2  0
  2  1  1  0
  4  2  1  0
  5  4  1  0
  5  6  1  0
  6  8  1  0
  6  7  1  6
  8  9  2  0
 10 11  1  0
 10  8  1  0
 11 12  1  6
 13 12  1  0
 14 13  2  0
 15 11  1  0
 15 16  2  0
 17 13  1  0
 18 15  1  0
 19 18  1  0
 19 27  1  0
 19 20  1  6
 21 20  1  0
 22 21  2  0
 23 22  1  0
 24 23  2  0
 24 25  1  0
 25 26  2  0
 26 21  1  0
 27 28  1  0
 29 27  2  0
M  END
$$$$
