LQK.pdb
     RDKit          3D

 27 26  0  0  1  0  0  0  0  0999 V2000
    7.5646  -12.1373   21.0659 C   0  0  0  0  0  0  0  0  0  0  0  0
    7.6643  -13.2537   20.0508 C   0  0  1  0  0  0  0  0  0  0  0  0
    8.4426  -12.8405   18.8268 C   0  0  0  0  0  0  0  0  0  0  0  0
    8.3931  -14.4282   20.6700 C   0  0  0  0  0  0  0  0  0  0  0  0
    8.3599  -15.5654   19.6947 C   0  0  2  0  0  0  0  0  0  0  0  0
    7.0437  -15.9712   19.3067 N   0  0  0  0  0  0  0  0  0  0  0  0
    9.1331  -16.7271   20.2030 C   0  0  0  0  0  0  0  0  0  0  0  0
    8.5638  -17.6804   20.7813 O   0  0  0  0  0  0  0  0  0  0  0  0
   12.5132  -20.2101   17.6426 N   0  0  0  0  0  0  0  0  0  0  0  0
   13.4086  -20.2584   18.7390 C   0  0  0  0  0  0  0  0  0  0  0  0
   14.1766  -21.2199   18.8852 O   0  0  0  0  0  0  0  0  0  0  0  0
   13.4055  -19.1394   19.7022 C   0  0  0  0  0  0  0  0  0  0  0  0
   12.4295  -18.0621   19.3983 C   0  0  0  0  0  0  0  0  0  0  0  0
   11.3121  -17.9404   20.4084 C   0  0  2  0  0  0  0  0  0  0  0  0
   10.5394  -16.7320   20.0172 N   0  0  0  0  0  0  0  0  0  0  0  0
   11.8721  -17.6182   21.7316 C   0  0  0  0  0  0  0  0  0  0  0  0
   12.4068  -16.4760   21.9317 O   0  0  0  0  0  0  0  0  0  0  0  0
   11.8364  -18.5232   22.7948 N   0  0  0  0  0  0  0  0  0  0  0  0
   12.4699  -18.2228   24.0947 C   0  0  1  0  0  0  0  0  0  0  0  0
   11.8084  -19.1654   25.0691 C   0  0  0  0  0  0  0  0  0  0  0  0
   12.4046  -19.1676   26.4329 C   0  0  0  0  0  0  0  0  0  0  0  0
   11.8335  -20.2787   27.2632 C   0  0  0  0  0  0  0  0  0  0  0  0
   12.3868  -20.2202   28.6611 C   0  0  0  0  0  0  0  0  0  0  0  0
   11.9759  -21.3816   29.4210 N   0  0  0  0  0  0  0  0  0  0  0  0
   13.9222  -18.3759   24.0353 C   0  0  0  0  0  0  0  0  0  0  0  0
   14.7557  -17.6352   24.8473 O   0  0  0  0  0  0  0  0  0  0  0  0
   14.4434  -19.1879   23.2406 O   0  0  0  0  0  0  0  0  0  0  0  0
  2  4  1  0
  2  1  1  1
  3  2  1  0
  4  5  1  0
  5  6  1  1
  7  5  1  0
  8  7  2  0
 10  9  1  0
 10 12  1  0
 11 10  2  0
 13 12  1  0
 14 13  1  6
 14 15  1  0
 15  7  1  0
 16 18  1  0
 16 14  1  0
 17 16  2  0
 19 25  1  0
 19 18  1  0
 19 20  1  1
 20 21  1  0
 22 21  1  0
 23 22  1  0
 24 23  1  0
 25 26  1  0
 27 25  2  0
M  END
$$$$
