LQK.pdb
     RDKit          3D

 27 26  0  0  1  0  0  0  0  0999 V2000
    6.8903  -12.5042   18.6036 C   0  0  0  0  0  0  0  0  0  0  0  0
    8.2710  -13.0252   18.9333 C   0  0  1  0  0  0  0  0  0  0  0  0
    9.1306  -11.9771   19.5948 C   0  0  0  0  0  0  0  0  0  0  0  0
    8.1500  -14.1826   19.9026 C   0  0  0  0  0  0  0  0  0  0  0  0
    9.5295  -14.5732   20.3386 C   0  0  2  0  0  0  0  0  0  0  0  0
   10.4184  -14.8949   19.2644 N   0  0  0  0  0  0  0  0  0  0  0  0
    9.4834  -15.6826   21.3249 C   0  0  0  0  0  0  0  0  0  0  0  0
    8.6470  -15.6859   22.2565 O   0  0  0  0  0  0  0  0  0  0  0  0
   13.1705  -20.9422   19.9918 N   0  0  0  0  0  0  0  0  0  0  0  0
   13.2150  -20.1553   21.1686 C   0  0  0  0  0  0  0  0  0  0  0  0
   13.8800  -20.5213   22.1482 O   0  0  0  0  0  0  0  0  0  0  0  0
   12.4517  -18.8920   21.2017 C   0  0  0  0  0  0  0  0  0  0  0  0
   10.9911  -19.0550   21.4150 C   0  0  0  0  0  0  0  0  0  0  0  0
   10.3391  -17.8929   22.1277 C   0  0  2  0  0  0  0  0  0  0  0  0
   10.4138  -16.7443   21.1867 N   0  0  0  0  0  0  0  0  0  0  0  0
   11.1639  -17.4912   23.2795 C   0  0  0  0  0  0  0  0  0  0  0  0
   12.2261  -16.8084   23.0901 O   0  0  0  0  0  0  0  0  0  0  0  0
   10.8230  -17.8272   24.5916 N   0  0  0  0  0  0  0  0  0  0  0  0
   11.6266  -17.3746   25.7452 C   0  0  1  0  0  0  0  0  0  0  0  0
   10.7083  -16.4582   26.5148 C   0  0  0  0  0  0  0  0  0  0  0  0
   11.2829  -15.9217   27.7787 C   0  0  0  0  0  0  0  0  0  0  0  0
   10.2726  -15.0923   28.5144 C   0  0  0  0  0  0  0  0  0  0  0  0
   10.8842  -14.5131   29.7611 C   0  0  0  0  0  0  0  0  0  0  0  0
    9.9645  -13.5978   30.4024 N   0  0  0  0  0  0  0  0  0  0  0  0
   12.1171  -18.5015   26.5362 C   0  0  0  0  0  0  0  0  0  0  0  0
   13.2204  -18.3774   27.3549 O   0  0  0  0  0  0  0  0  0  0  0  0
   11.5422  -19.6104   26.4868 O   0  0  0  0  0  0  0  0  0  0  0  0
  2  4  1  0
  2  1  1  1
  3  2  1  0
  4  5  1  0
  5  6  1  6
  7  5  1  0
  8  7  2  0
 10  9  1  0
 10 12  1  0
 11 10  2  0
 13 12  1  0
 14 13  1  6
 14 15  1  0
 15  7  1  0
 16 18  1  0
 16 14  1  0
 17 16  2  0
 19 25  1  0
 19 18  1  0
 19 20  1  1
 20 21  1  0
 22 21  1  0
 23 22  1  0
 24 23  1  0
 25 26  1  0
 27 25  2  0
M  END
$$$$
