LQK.pdb
     RDKit          3D

 27 26  0  0  1  0  0  0  0  0999 V2000
    7.0988  -12.2905   18.4625 C   0  0  0  0  0  0  0  0  0  0  0  0
    8.1555  -13.3006   18.8495 C   0  0  1  0  0  0  0  0  0  0  0  0
    9.4601  -12.6426   19.2235 C   0  0  0  0  0  0  0  0  0  0  0  0
    7.6831  -14.0791   20.0597 C   0  0  0  0  0  0  0  0  0  0  0  0
    8.7556  -15.0562   20.4344 C   0  0  2  0  0  0  0  0  0  0  0  0
    9.1438  -15.9396   19.3778 N   0  0  0  0  0  0  0  0  0  0  0  0
    8.3745  -15.8289   21.6442 C   0  0  0  0  0  0  0  0  0  0  0  0
    7.8586  -15.2655   22.6360 O   0  0  0  0  0  0  0  0  0  0  0  0
    5.8311  -20.8044   22.6756 N   0  0  0  0  0  0  0  0  0  0  0  0
    6.8139  -21.0917   23.6541 C   0  0  0  0  0  0  0  0  0  0  0  0
    6.5740  -21.8835   24.5767 O   0  0  0  0  0  0  0  0  0  0  0  0
    8.1280  -20.4267   23.5505 C   0  0  0  0  0  0  0  0  0  0  0  0
    8.2480  -19.4613   22.4285 C   0  0  0  0  0  0  0  0  0  0  0  0
    8.2457  -18.0128   22.8592 C   0  0  2  0  0  0  0  0  0  0  0  0
    8.6097  -17.2278   21.6502 N   0  0  0  0  0  0  0  0  0  0  0  0
    9.3461  -17.7756   23.8085 C   0  0  0  0  0  0  0  0  0  0  0  0
   10.5550  -17.8154   23.3991 O   0  0  0  0  0  0  0  0  0  0  0  0
    9.1174  -17.4990   25.1582 N   0  0  0  0  0  0  0  0  0  0  0  0
   10.2248  -17.2172   26.0940 C   0  0  1  0  0  0  0  0  0  0  0  0
    9.6782  -16.1661   27.0277 C   0  0  0  0  0  0  0  0  0  0  0  0
   10.5740  -15.8192   28.1646 C   0  0  0  0  0  0  0  0  0  0  0  0
    9.9184  -14.8249   29.0765 C   0  0  0  0  0  0  0  0  0  0  0  0
   10.8213  -14.5107   30.2383 C   0  0  0  0  0  0  0  0  0  0  0  0
   10.2694  -13.4374   31.0373 N   0  0  0  0  0  0  0  0  0  0  0  0
   10.6713  -18.4274   26.7813 C   0  0  0  0  0  0  0  0  0  0  0  0
   11.9691  -18.5608   27.2294 O   0  0  0  0  0  0  0  0  0  0  0  0
    9.8798  -19.3745   26.9789 O   0  0  0  0  0  0  0  0  0  0  0  0
  2  4  1  0
  2  1  1  1
  3  2  1  0
  4  5  1  0
  5  6  1  6
  7  5  1  0
  8  7  2  0
 10  9  1  0
 10 12  1  0
 11 10  2  0
 13 12  1  0
 14 13  1  6
 14 15  1  0
 15  7  1  0
 16 18  1  0
 16 14  1  0
 17 16  2  0
 19 25  1  0
 19 18  1  0
 19 20  1  1
 20 21  1  0
 22 21  1  0
 23 22  1  0
 24 23  1  0
 25 26  1  0
 27 25  2  0
M  END
$$$$
