LQK.pdb
     RDKit          3D

 27 26  0  0  1  0  0  0  0  0999 V2000
    8.8345  -12.2651   20.0085 C   0  0  0  0  0  0  0  0  0  0  0  0
    7.9426  -13.4504   20.3022 C   0  0  1  0  0  0  0  0  0  0  0  0
    6.5418  -13.2501   19.7803 C   0  0  0  0  0  0  0  0  0  0  0  0
    8.5041  -14.6796   19.6185 C   0  0  0  0  0  0  0  0  0  0  0  0
    9.6034  -15.2298   20.4755 C   0  0  2  0  0  0  0  0  0  0  0  0
   10.3268  -16.3130   19.8832 N   0  0  0  0  0  0  0  0  0  0  0  0
    9.0927  -15.6171   21.8153 C   0  0  0  0  0  0  0  0  0  0  0  0
    8.1208  -15.0223   22.3341 O   0  0  0  0  0  0  0  0  0  0  0  0
   10.6445  -21.1392   24.3058 N   0  0  0  0  0  0  0  0  0  0  0  0
   11.5998  -20.1162   24.0896 C   0  0  0  0  0  0  0  0  0  0  0  0
   12.8119  -20.3743   24.0868 O   0  0  0  0  0  0  0  0  0  0  0  0
   11.1195  -18.7376   23.8689 C   0  0  0  0  0  0  0  0  0  0  0  0
    9.6468  -18.5712   23.9634 C   0  0  0  0  0  0  0  0  0  0  0  0
    9.1760  -17.1451   23.7952 C   0  0  2  0  0  0  0  0  0  0  0  0
    9.7346  -16.6822   22.4975 N   0  0  0  0  0  0  0  0  0  0  0  0
    9.8152  -16.2887   24.8082 C   0  0  0  0  0  0  0  0  0  0  0  0
   10.9763  -15.8055   24.5872 O   0  0  0  0  0  0  0  0  0  0  0  0
    9.1909  -15.9740   26.0173 N   0  0  0  0  0  0  0  0  0  0  0  0
    9.8900  -15.2291   27.0839 C   0  0  1  0  0  0  0  0  0  0  0  0
    8.8477  -14.2924   27.6421 C   0  0  0  0  0  0  0  0  0  0  0  0
    8.2297  -13.3825   26.6393 C   0  0  0  0  0  0  0  0  0  0  0  0
    7.1463  -12.5553   27.2653 C   0  0  0  0  0  0  0  0  0  0  0  0
    6.5232  -11.6507   26.2372 C   0  0  0  0  0  0  0  0  0  0  0  0
    5.4927  -10.8303   26.8374 N   0  0  0  0  0  0  0  0  0  0  0  0
   10.4578  -16.1282   28.0866 C   0  0  0  0  0  0  0  0  0  0  0  0
   11.3708  -15.6794   29.0182 O   0  0  0  0  0  0  0  0  0  0  0  0
   10.1251  -17.3327   28.1210 O   0  0  0  0  0  0  0  0  0  0  0  0
  2  4  1  0
  2  1  1  6
  3  2  1  0
  4  5  1  0
  5  6  1  6
  7  5  1  0
  8  7  2  0
 10  9  1  0
 10 12  1  0
 11 10  2  0
 13 12  1  0
 14 13  1  1
 14 15  1  0
 15  7  1  0
 16 18  1  0
 16 14  1  0
 17 16  2  0
 19 25  1  0
 19 18  1  0
 19 20  1  1
 20 21  1  0
 22 21  1  0
 23 22  1  0
 24 23  1  0
 25 26  1  0
 27 25  2  0
M  END
$$$$
