LQK.pdb
     RDKit          3D

 27 26  0  0  1  0  0  0  0  0999 V2000
    5.1159  -11.5343   26.6019 C   0  0  0  0  0  0  0  0  0  0  0  0
    6.4645  -12.1730   26.3570 C   0  0  1  0  0  0  0  0  0  0  0  0
    7.4158  -11.9492   27.5058 C   0  0  0  0  0  0  0  0  0  0  0  0
    6.2884  -13.6696   26.2060 C   0  0  0  0  0  0  0  0  0  0  0  0
    7.5995  -14.2532   25.7746 C   0  0  2  0  0  0  0  0  0  0  0  0
    8.6920  -13.3293   25.7971 N   0  0  0  0  0  0  0  0  0  0  0  0
    7.4859  -14.8911   24.4383 C   0  0  0  0  0  0  0  0  0  0  0  0
    6.6404  -15.7880   24.2191 O   0  0  0  0  0  0  0  0  0  0  0  0
    8.3032  -12.4471   18.8896 N   0  0  0  0  0  0  0  0  0  0  0  0
    8.4048  -13.8226   18.5676 C   0  0  0  0  0  0  0  0  0  0  0  0
    8.4055  -14.1962   17.3860 O   0  0  0  0  0  0  0  0  0  0  0  0
    8.5086  -14.7994   19.6699 C   0  0  0  0  0  0  0  0  0  0  0  0
    8.3865  -14.2154   21.0299 C   0  0  0  0  0  0  0  0  0  0  0  0
    8.4240  -15.2356   22.1440 C   0  0  2  0  0  0  0  0  0  0  0  0
    8.3622  -14.4586   23.4100 N   0  0  0  0  0  0  0  0  0  0  0  0
    9.7407  -15.8944   22.1696 C   0  0  0  0  0  0  0  0  0  0  0  0
   10.7397  -15.2926   22.6895 O   0  0  0  0  0  0  0  0  0  0  0  0
    9.9430  -17.1730   21.6451 N   0  0  0  0  0  0  0  0  0  0  0  0
   11.2722  -17.8167   21.6533 C   0  0  1  0  0  0  0  0  0  0  0  0
   11.0467  -19.1508   22.3202 C   0  0  0  0  0  0  0  0  0  0  0  0
   12.2400  -20.0400   22.3491 C   0  0  0  0  0  0  0  0  0  0  0  0
   11.8887  -21.3865   22.9093 C   0  0  0  0  0  0  0  0  0  0  0  0
   13.1333  -22.2090   23.1047 C   0  0  0  0  0  0  0  0  0  0  0  0
   12.8182  -23.4647   23.7519 N   0  0  0  0  0  0  0  0  0  0  0  0
   11.8256  -17.9288   20.3052 C   0  0  0  0  0  0  0  0  0  0  0  0
   13.1869  -17.9886   20.0908 O   0  0  0  0  0  0  0  0  0  0  0  0
   11.0703  -17.9729   19.3101 O   0  0  0  0  0  0  0  0  0  0  0  0
  2  4  1  0
  2  1  1  1
  3  2  1  0
  4  5  1  0
  5  6  1  6
  7  5  1  0
  8  7  2  0
 10  9  1  0
 10 12  1  0
 11 10  2  0
 13 12  1  0
 14 13  1  6
 14 15  1  0
 15  7  1  0
 16 18  1  0
 16 14  1  0
 17 16  2  0
 19 25  1  0
 19 18  1  0
 19 20  1  6
 20 21  1  0
 22 21  1  0
 23 22  1  0
 24 23  1  0
 25 26  1  0
 27 25  2  0
M  END
$$$$
