LQK.pdb
     RDKit          3D

 27 26  0  0  1  0  0  0  0  0999 V2000
    6.7260  -12.7866   20.9264 C   0  0  0  0  0  0  0  0  0  0  0  0
    7.3209  -13.4754   19.7188 C   0  0  1  0  0  0  0  0  0  0  0  0
    7.7929  -12.4907   18.6784 C   0  0  0  0  0  0  0  0  0  0  0  0
    8.5263  -14.2852   20.1489 C   0  0  0  0  0  0  0  0  0  0  0  0
    8.9999  -15.0801   18.9702 C   0  0  2  0  0  0  0  0  0  0  0  0
    8.0271  -15.9861   18.4406 N   0  0  0  0  0  0  0  0  0  0  0  0
   10.2622  -15.7976   19.2828 C   0  0  0  0  0  0  0  0  0  0  0  0
   10.2538  -16.9995   19.6329 O   0  0  0  0  0  0  0  0  0  0  0  0
   15.9681  -13.6451   17.6197 N   0  0  0  0  0  0  0  0  0  0  0  0
   16.3109  -14.6066   18.6015 C   0  0  0  0  0  0  0  0  0  0  0  0
   17.4952  -14.7963   18.9132 O   0  0  0  0  0  0  0  0  0  0  0  0
   15.2270  -15.3770   19.2431 C   0  0  0  0  0  0  0  0  0  0  0  0
   13.8555  -14.9242   18.8975 C   0  0  0  0  0  0  0  0  0  0  0  0
   12.7583  -15.7972   19.4610 C   0  0  2  0  0  0  0  0  0  0  0  0
   11.4845  -15.0859   19.1749 N   0  0  0  0  0  0  0  0  0  0  0  0
   12.8525  -15.8264   20.9302 C   0  0  0  0  0  0  0  0  0  0  0  0
   12.8275  -14.7322   21.5880 O   0  0  0  0  0  0  0  0  0  0  0  0
   12.9641  -17.0212   21.6448 N   0  0  0  0  0  0  0  0  0  0  0  0
   13.1129  -17.0388   23.1140 C   0  0  1  0  0  0  0  0  0  0  0  0
   12.5040  -18.3502   23.5442 C   0  0  0  0  0  0  0  0  0  0  0  0
   12.6279  -18.6451   24.9979 C   0  0  0  0  0  0  0  0  0  0  0  0
   11.9204  -19.9212   25.3457 C   0  0  0  0  0  0  0  0  0  0  0  0
   12.1158  -20.2436   26.8023 C   0  0  0  0  0  0  0  0  0  0  0  0
   11.5622  -21.5437   27.1155 N   0  0  0  0  0  0  0  0  0  0  0  0
   14.5099  -16.8887   23.5166 C   0  0  0  0  0  0  0  0  0  0  0  0
   14.8636  -16.1276   24.6113 O   0  0  0  0  0  0  0  0  0  0  0  0
   15.4208  -17.4516   22.8717 O   0  0  0  0  0  0  0  0  0  0  0  0
  2  4  1  0
  2  1  1  1
  3  2  1  0
  4  5  1  0
  5  6  1  1
  7  5  1  0
  8  7  2  0
 10  9  1  0
 10 12  1  0
 11 10  2  0
 13 12  1  0
 14 13  1  6
 14 15  1  0
 15  7  1  0
 16 18  1  0
 16 14  1  0
 17 16  2  0
 19 25  1  0
 19 18  1  0
 19 20  1  6
 20 21  1  0
 22 21  1  0
 23 22  1  0
 24 23  1  0
 25 26  1  0
 27 25  2  0
M  END
$$$$
