LQK.pdb
     RDKit          3D

 27 26  0  0  1  0  0  0  0  0999 V2000
    7.3716  -12.0566   28.1920 C   0  0  0  0  0  0  0  0  0  0  0  0
    6.4619  -12.8281   27.2627 C   0  0  1  0  0  0  0  0  0  0  0  0
    5.7773  -11.9299   26.2630 C   0  0  0  0  0  0  0  0  0  0  0  0
    7.2831  -13.8292   26.4770 C   0  0  0  0  0  0  0  0  0  0  0  0
    6.3445  -14.6685   25.6645 C   0  0  2  0  0  0  0  0  0  0  0  0
    5.5790  -15.6050   26.4290 N   0  0  0  0  0  0  0  0  0  0  0  0
    7.0633  -15.3601   24.5642 C   0  0  0  0  0  0  0  0  0  0  0  0
    7.3740  -16.5696   24.6540 O   0  0  0  0  0  0  0  0  0  0  0  0
    8.0169  -12.6639   18.9032 N   0  0  0  0  0  0  0  0  0  0  0  0
    8.7255  -13.8823   18.7638 C   0  0  0  0  0  0  0  0  0  0  0  0
    9.2866  -14.1679   17.6964 O   0  0  0  0  0  0  0  0  0  0  0  0
    8.7795  -14.8028   19.9168 C   0  0  0  0  0  0  0  0  0  0  0  0
    8.0210  -14.3481   21.1098 C   0  0  0  0  0  0  0  0  0  0  0  0
    8.0861  -15.3006   22.2811 C   0  0  2  0  0  0  0  0  0  0  0  0
    7.3916  -14.6150   23.4027 N   0  0  0  0  0  0  0  0  0  0  0  0
    9.4815  -15.4402   22.7303 C   0  0  0  0  0  0  0  0  0  0  0  0
   10.1073  -14.4212   23.1780 O   0  0  0  0  0  0  0  0  0  0  0  0
   10.1567  -16.6621   22.6911 N   0  0  0  0  0  0  0  0  0  0  0  0
   11.5516  -16.7964   23.1577 C   0  0  1  0  0  0  0  0  0  0  0  0
   11.6084  -18.1571   23.8062 C   0  0  0  0  0  0  0  0  0  0  0  0
   11.7608  -18.1335   25.2866 C   0  0  0  0  0  0  0  0  0  0  0  0
   11.6247  -19.5133   25.8591 C   0  0  0  0  0  0  0  0  0  0  0  0
   11.6366  -19.4557   27.3625 C   0  0  0  0  0  0  0  0  0  0  0  0
   11.2530  -20.7332   27.9247 N   0  0  0  0  0  0  0  0  0  0  0  0
   12.5049  -16.6364   22.0614 C   0  0  0  0  0  0  0  0  0  0  0  0
   13.8091  -16.2526   22.2947 O   0  0  0  0  0  0  0  0  0  0  0  0
   12.1551  -16.8457   20.8797 O   0  0  0  0  0  0  0  0  0  0  0  0
  2  4  1  0
  2  1  1  1
  3  2  1  0
  4  5  1  0
  5  6  1  1
  7  5  1  0
  8  7  2  0
 10  9  1  0
 10 12  1  0
 11 10  2  0
 13 12  1  0
 14 13  1  6
 14 15  1  0
 15  7  1  0
 16 18  1  0
 16 14  1  0
 17 16  2  0
 19 25  1  0
 19 18  1  0
 19 20  1  6
 20 21  1  0
 22 21  1  0
 23 22  1  0
 24 23  1  0
 25 26  1  0
 27 25  2  0
M  END
$$$$
