LQK.pdb
     RDKit          3D

 27 26  0  0  1  0  0  0  0  0999 V2000
    6.7362  -11.3170   25.7881 C   0  0  0  0  0  0  0  0  0  0  0  0
    7.1481  -12.7228   26.1634 C   0  0  1  0  0  0  0  0  0  0  0  0
    7.6179  -12.8142   27.5937 C   0  0  0  0  0  0  0  0  0  0  0  0
    5.9562  -13.6467   26.0233 C   0  0  0  0  0  0  0  0  0  0  0  0
    6.4667  -15.0334   25.7739 C   0  0  2  0  0  0  0  0  0  0  0  0
    7.5464  -15.4264   26.6267 N   0  0  0  0  0  0  0  0  0  0  0  0
    6.8378  -15.2169   24.3476 C   0  0  0  0  0  0  0  0  0  0  0  0
    5.9653  -15.4191   23.4728 O   0  0  0  0  0  0  0  0  0  0  0  0
    8.5902  -12.5513   19.7537 N   0  0  0  0  0  0  0  0  0  0  0  0
    7.9990  -13.7688   19.3363 C   0  0  0  0  0  0  0  0  0  0  0  0
    7.7835  -13.9871   18.1356 O   0  0  0  0  0  0  0  0  0  0  0  0
    7.6451  -14.7694   20.3626 C   0  0  0  0  0  0  0  0  0  0  0  0
    7.9397  -14.3573   21.7586 C   0  0  0  0  0  0  0  0  0  0  0  0
    8.6061  -15.4291   22.5897 C   0  0  2  0  0  0  0  0  0  0  0  0
    8.2110  -15.1577   23.9970 N   0  0  0  0  0  0  0  0  0  0  0  0
   10.0663  -15.2403   22.5647 C   0  0  0  0  0  0  0  0  0  0  0  0
   10.5681  -14.1323   22.9533 O   0  0  0  0  0  0  0  0  0  0  0  0
   10.9384  -16.2417   22.1319 N   0  0  0  0  0  0  0  0  0  0  0  0
   11.8157  -16.9696   23.0709 C   0  0  1  0  0  0  0  0  0  0  0  0
   10.8700  -17.7378   23.9602 C   0  0  0  0  0  0  0  0  0  0  0  0
   11.3945  -18.0246   25.3233 C   0  0  0  0  0  0  0  0  0  0  0  0
   10.4437  -18.8968   26.0884 C   0  0  0  0  0  0  0  0  0  0  0  0
   11.0042  -19.2079   27.4495 C   0  0  0  0  0  0  0  0  0  0  0  0
   10.1138  -20.0852   28.1793 N   0  0  0  0  0  0  0  0  0  0  0  0
   12.7704  -17.8228   22.3660 C   0  0  0  0  0  0  0  0  0  0  0  0
   12.3994  -18.5473   21.2523 O   0  0  0  0  0  0  0  0  0  0  0  0
   13.9527  -17.9146   22.7612 O   0  0  0  0  0  0  0  0  0  0  0  0
  2  4  1  0
  2  1  1  1
  3  2  1  0
  4  5  1  0
  5  6  1  1
  7  5  1  0
  8  7  2  0
 10  9  1  0
 10 12  1  0
 11 10  2  0
 13 12  1  0
 14 13  1  6
 14 15  1  0
 15  7  1  0
 16 18  1  0
 16 14  1  0
 17 16  2  0
 19 25  1  0
 19 18  1  0
 19 20  1  1
 20 21  1  0
 22 21  1  0
 23 22  1  0
 24 23  1  0
 25 26  1  0
 27 25  2  0
M  END
$$$$
