LQK.pdb
     RDKit          3D

 27 26  0  0  1  0  0  0  0  0999 V2000
    7.0924  -11.7703   27.3490 C   0  0  0  0  0  0  0  0  0  0  0  0
    6.6239  -12.6512   26.2128 C   0  0  1  0  0  0  0  0  0  0  0  0
    6.8051  -11.9897   24.8695 C   0  0  0  0  0  0  0  0  0  0  0  0
    7.4421  -13.9256   26.1987 C   0  0  0  0  0  0  0  0  0  0  0  0
    6.8329  -14.8609   25.1988 C   0  0  2  0  0  0  0  0  0  0  0  0
    5.5302  -15.3355   25.5528 N   0  0  0  0  0  0  0  0  0  0  0  0
    7.7409  -16.0006   24.9118 C   0  0  0  0  0  0  0  0  0  0  0  0
    7.5832  -17.1101   25.4700 O   0  0  0  0  0  0  0  0  0  0  0  0
   11.8688  -15.9945   20.0970 N   0  0  0  0  0  0  0  0  0  0  0  0
   12.2892  -17.1258   20.8383 C   0  0  0  0  0  0  0  0  0  0  0  0
   13.2886  -17.7717   20.4923 O   0  0  0  0  0  0  0  0  0  0  0  0
   11.5103  -17.5177   22.0297 C   0  0  0  0  0  0  0  0  0  0  0  0
   10.5183  -16.5092   22.4817 C   0  0  0  0  0  0  0  0  0  0  0  0
    9.7156  -16.9332   23.6898 C   0  0  2  0  0  0  0  0  0  0  0  0
    8.7968  -15.8024   23.9856 N   0  0  0  0  0  0  0  0  0  0  0  0
   10.5974  -17.0205   24.8659 C   0  0  0  0  0  0  0  0  0  0  0  0
   11.3053  -16.0125   25.2025 O   0  0  0  0  0  0  0  0  0  0  0  0
   10.6879  -18.1771   25.6434 N   0  0  0  0  0  0  0  0  0  0  0  0
   11.6219  -18.2783   26.7830 C   0  0  1  0  0  0  0  0  0  0  0  0
   11.0489  -19.3708   27.6511 C   0  0  0  0  0  0  0  0  0  0  0  0
   11.8780  -19.7209   28.8366 C   0  0  0  0  0  0  0  0  0  0  0  0
   11.2852  -20.8822   29.5782 C   0  0  0  0  0  0  0  0  0  0  0  0
   12.1624  -21.2587   30.7412 C   0  0  0  0  0  0  0  0  0  0  0  0
   11.5224  -22.2690   31.5565 N   0  0  0  0  0  0  0  0  0  0  0  0
   12.9880  -18.5477   26.3385 C   0  0  0  0  0  0  0  0  0  0  0  0
   13.2435  -19.3774   25.2666 O   0  0  0  0  0  0  0  0  0  0  0  0
   13.9612  -18.0274   26.9255 O   0  0  0  0  0  0  0  0  0  0  0  0
  2  4  1  0
  2  1  1  1
  3  2  1  0
  4  5  1  0
  5  6  1  1
  7  5  1  0
  8  7  2  0
 10  9  1  0
 10 12  1  0
 11 10  2  0
 13 12  1  0
 14 13  1  6
 14 15  1  0
 15  7  1  0
 16 18  1  0
 16 14  1  0
 17 16  2  0
 19 25  1  0
 19 18  1  0
 19 20  1  1
 20 21  1  0
 22 21  1  0
 23 22  1  0
 24 23  1  0
 25 26  1  0
 27 25  2  0
M  END
$$$$
