LQK.pdb
     RDKit          3D

 27 26  0  0  1  0  0  0  0  0999 V2000
    6.8157  -12.4308   18.3480 C   0  0  0  0  0  0  0  0  0  0  0  0
    8.2010  -12.9862   18.5914 C   0  0  1  0  0  0  0  0  0  0  0  0
    9.1270  -11.9589   19.1930 C   0  0  0  0  0  0  0  0  0  0  0  0
    8.1124  -14.1379   19.5709 C   0  0  0  0  0  0  0  0  0  0  0  0
    9.5065  -14.5642   19.9182 C   0  0  2  0  0  0  0  0  0  0  0  0
   10.2821  -15.0102   18.8015 N   0  0  0  0  0  0  0  0  0  0  0  0
    9.4988  -15.5927   20.9895 C   0  0  0  0  0  0  0  0  0  0  0  0
    8.7748  -15.4661   22.0030 O   0  0  0  0  0  0  0  0  0  0  0  0
   12.2399  -21.1782   20.1012 N   0  0  0  0  0  0  0  0  0  0  0  0
   12.7678  -19.8966   19.8100 C   0  0  0  0  0  0  0  0  0  0  0  0
   13.7758  -19.7753   19.0995 O   0  0  0  0  0  0  0  0  0  0  0  0
   12.0914  -18.7107   20.3722 C   0  0  0  0  0  0  0  0  0  0  0  0
   10.9199  -19.0144   21.2329 C   0  0  0  0  0  0  0  0  0  0  0  0
   10.2915  -17.7968   21.8702 C   0  0  2  0  0  0  0  0  0  0  0  0
   10.3351  -16.7283   20.8374 N   0  0  0  0  0  0  0  0  0  0  0  0
   11.1536  -17.3054   22.9581 C   0  0  0  0  0  0  0  0  0  0  0  0
   12.2711  -16.7535   22.6802 O   0  0  0  0  0  0  0  0  0  0  0  0
   10.7903  -17.4151   24.3023 N   0  0  0  0  0  0  0  0  0  0  0  0
   11.6574  -16.9121   25.3868 C   0  0  1  0  0  0  0  0  0  0  0  0
   10.7087  -16.2687   26.3674 C   0  0  0  0  0  0  0  0  0  0  0  0
   11.3433  -15.8024   27.6305 C   0  0  0  0  0  0  0  0  0  0  0  0
   10.3175  -15.2302   28.5634 C   0  0  0  0  0  0  0  0  0  0  0  0
   10.9677  -14.7997   29.8501 C   0  0  0  0  0  0  0  0  0  0  0  0
   10.0036  -14.1594   30.7193 N   0  0  0  0  0  0  0  0  0  0  0  0
   12.4614  -17.9817   25.9748 C   0  0  0  0  0  0  0  0  0  0  0  0
   12.0537  -19.2984   25.9210 O   0  0  0  0  0  0  0  0  0  0  0  0
   13.5442  -17.7233   26.5434 O   0  0  0  0  0  0  0  0  0  0  0  0
  2  4  1  0
  2  1  1  1
  3  2  1  0
  4  5  1  0
  5  6  1  6
  7  5  1  0
  8  7  2  0
 10  9  1  0
 10 12  1  0
 11 10  2  0
 13 12  1  0
 14 13  1  6
 14 15  1  0
 15  7  1  0
 16 18  1  0
 16 14  1  0
 17 16  2  0
 19 25  1  0
 19 18  1  0
 19 20  1  1
 20 21  1  0
 22 21  1  0
 23 22  1  0
 24 23  1  0
 25 26  1  0
 27 25  2  0
M  END
$$$$
