QMQ.pdb
     RDKit          3D

 27 26  0  0  1  0  0  0  0  0999 V2000
   27.1364  -23.7990  -18.6450 N   0  0  0  0  0  0  0  0  0  0  0  0
   28.3332  -23.0490  -18.7287 C   0  0  0  0  0  0  0  0  0  0  0  0
   28.8714  -22.8951  -19.8445 O   0  0  0  0  0  0  0  0  0  0  0  0
   28.8903  -22.4892  -17.5040 C   0  0  0  0  0  0  0  0  0  0  0  0
   28.1133  -22.7277  -16.2510 C   0  0  0  0  0  0  0  0  0  0  0  0
   27.0703  -21.7219  -15.9131 C   0  0  2  0  0  0  0  0  0  0  0  0
   27.4854  -20.3573  -16.0587 N   0  0  0  0  0  0  0  0  0  0  0  0
   26.4700  -21.9635  -14.5677 C   0  0  0  0  0  0  0  0  0  0  0  0
   25.8806  -23.0703  -14.3531 O   0  0  0  0  0  0  0  0  0  0  0  0
   25.4682  -20.7824   -6.9528 C   0  0  0  0  0  0  0  0  0  0  0  0
   26.4868  -20.5124   -8.4142 S   0  0  0  0  0  0  0  0  0  0  0  0
   25.5271  -20.9360   -9.8915 C   0  0  0  0  0  0  0  0  0  0  0  0
   26.4420  -20.8477  -11.0970 C   0  0  0  0  0  0  0  0  0  0  0  0
   25.6242  -21.1089  -12.3641 C   0  0  2  0  0  0  0  0  0  0  0  0
   26.5009  -21.0542  -13.4960 N   0  0  0  0  0  0  0  0  0  0  0  0
   24.5264  -20.1562  -12.3892 C   0  0  0  0  0  0  0  0  0  0  0  0
   24.6912  -19.0197  -12.8697 O   0  0  0  0  0  0  0  0  0  0  0  0
   23.2227  -22.2942  -16.2227 N   0  0  0  0  0  0  0  0  0  0  0  0
   21.8186  -22.2286  -16.0753 C   0  0  0  0  0  0  0  0  0  0  0  0
   21.0792  -22.4865  -17.0336 O   0  0  0  0  0  0  0  0  0  0  0  0
   21.2528  -21.8453  -14.7523 C   0  0  0  0  0  0  0  0  0  0  0  0
   22.3922  -21.6032  -13.8088 C   0  0  0  0  0  0  0  0  0  0  0  0
   22.0720  -20.6178  -12.7355 C   0  0  2  0  0  0  0  0  0  0  0  0
   23.2659  -20.5124  -11.8691 N   0  0  0  0  0  0  0  0  0  0  0  0
   20.9173  -20.9368  -11.9089 C   0  0  0  0  0  0  0  0  0  0  0  0
   19.7525  -20.7594  -12.3407 O   0  0  0  0  0  0  0  0  0  0  0  0
   21.0611  -21.4422  -10.6334 O   0  0  0  0  0  0  0  0  0  0  0  0
  1  2  1  0
  2  3  2  0
  4  5  1  0
  4  2  1  0
  6  5  1  0
  6  7  1  1
  8  6  1  0
  9  8  2  0
 11 10  1  0
 12 11  1  0
 13 12  1  0
 14 13  1  1
 14 15  1  0
 15  8  1  0
 16 14  1  0
 16 24  1  0
 17 16  2  0
 19 21  1  0
 19 18  1  0
 20 19  2  0
 22 21  1  0
 23 22  1  6
 23 24  1  0
 23 25  1  0
 25 27  1  0
 26 25  2  0
M  END
$$$$
