QMQ.pdb
     RDKit          3D

 27 26  0  0  1  0  0  0  0  0999 V2000
   29.8884  -19.1126  -17.9614 N   0  0  0  0  0  0  0  0  0  0  0  0
   29.8174  -17.8529  -17.3211 C   0  0  0  0  0  0  0  0  0  0  0  0
   30.3407  -16.8645  -17.8755 O   0  0  0  0  0  0  0  0  0  0  0  0
   29.1371  -17.7635  -16.0354 C   0  0  0  0  0  0  0  0  0  0  0  0
   28.5420  -19.0284  -15.5093 C   0  0  0  0  0  0  0  0  0  0  0  0
   27.0626  -19.0533  -15.3531 C   0  0  2  0  0  0  0  0  0  0  0  0
   26.4685  -17.7780  -15.0768 N   0  0  0  0  0  0  0  0  0  0  0  0
   26.6179  -20.0818  -14.3667 C   0  0  0  0  0  0  0  0  0  0  0  0
   26.4196  -21.2709  -14.7733 O   0  0  0  0  0  0  0  0  0  0  0  0
   26.9327  -19.6704   -8.0633 C   0  0  0  0  0  0  0  0  0  0  0  0
   25.7197  -21.0025   -8.0744 S   0  0  0  0  0  0  0  0  0  0  0  0
   25.2102  -21.3252   -9.7830 C   0  0  0  0  0  0  0  0  0  0  0  0
   25.9345  -20.3500  -10.6898 C   0  0  0  0  0  0  0  0  0  0  0  0
   25.6182  -20.6947  -12.1471 C   0  0  2  0  0  0  0  0  0  0  0  0
   26.3947  -19.8440  -12.9992 N   0  0  0  0  0  0  0  0  0  0  0  0
   24.1788  -20.5958  -12.3251 C   0  0  0  0  0  0  0  0  0  0  0  0
   23.6196  -19.4835  -12.3199 O   0  0  0  0  0  0  0  0  0  0  0  0
   21.0445  -25.3316  -14.6128 N   0  0  0  0  0  0  0  0  0  0  0  0
   19.9397  -24.4674  -14.4401 C   0  0  0  0  0  0  0  0  0  0  0  0
   18.8064  -24.8301  -14.7802 O   0  0  0  0  0  0  0  0  0  0  0  0
   20.1670  -23.1215  -13.8449 C   0  0  0  0  0  0  0  0  0  0  0  0
   21.6208  -23.0026  -13.4993 C   0  0  0  0  0  0  0  0  0  0  0  0
   21.9779  -21.6895  -12.8880 C   0  0  2  0  0  0  0  0  0  0  0  0
   23.4046  -21.7596  -12.5051 N   0  0  0  0  0  0  0  0  0  0  0  0
   21.1963  -21.3013  -11.7232 C   0  0  0  0  0  0  0  0  0  0  0  0
   21.5882  -21.5863  -10.5656 O   0  0  0  0  0  0  0  0  0  0  0  0
   20.0084  -20.6115  -11.8492 O   0  0  0  0  0  0  0  0  0  0  0  0
  1  2  1  0
  2  3  2  0
  4  5  1  0
  4  2  1  0
  6  5  1  0
  6  7  1  1
  8  6  1  0
  9  8  2  0
 11 10  1  0
 12 11  1  0
 13 12  1  0
 14 13  1  1
 14 15  1  0
 15  8  1  0
 16 14  1  0
 16 24  1  0
 17 16  2  0
 19 21  1  0
 19 18  1  0
 20 19  2  0
 22 21  1  0
 23 22  1  1
 23 24  1  0
 23 25  1  0
 25 27  1  0
 26 25  2  0
M  END
$$$$
