QMQ.pdb
     RDKit          3D

 27 26  0  0  1  0  0  0  0  0999 V2000
   20.2437  -17.8887  -18.4093 N   0  0  0  0  0  0  0  0  0  0  0  0
   20.7869  -16.5824  -18.4270 C   0  0  0  0  0  0  0  0  0  0  0  0
   21.9739  -16.4278  -18.7815 O   0  0  0  0  0  0  0  0  0  0  0  0
   19.9357  -15.4696  -18.0259 C   0  0  0  0  0  0  0  0  0  0  0  0
   20.5716  -14.4199  -17.1748 C   0  0  0  0  0  0  0  0  0  0  0  0
   21.2028  -13.2769  -17.8882 C   0  0  2  0  0  0  0  0  0  0  0  0
   22.2340  -13.6451  -18.8138 N   0  0  0  0  0  0  0  0  0  0  0  0
   21.6737  -12.2172  -16.9480 C   0  0  0  0  0  0  0  0  0  0  0  0
   20.8421  -11.7210  -16.1229 O   0  0  0  0  0  0  0  0  0  0  0  0
   28.0320  -13.2389  -15.0975 C   0  0  0  0  0  0  0  0  0  0  0  0
   27.3063  -11.7398  -15.7846 S   0  0  0  0  0  0  0  0  0  0  0  0
   25.5071  -11.8053  -15.5801 C   0  0  0  0  0  0  0  0  0  0  0  0
   24.9190  -10.5117  -16.1081 C   0  0  0  0  0  0  0  0  0  0  0  0
   23.3918  -10.6083  -16.0757 C   0  0  2  0  0  0  0  0  0  0  0  0
   22.9839  -11.7103  -16.8953 N   0  0  0  0  0  0  0  0  0  0  0  0
   22.8560   -9.3159  -16.4707 C   0  0  0  0  0  0  0  0  0  0  0  0
   23.0470   -8.8814  -17.6217 O   0  0  0  0  0  0  0  0  0  0  0  0
   17.8217   -8.0935  -17.5756 N   0  0  0  0  0  0  0  0  0  0  0  0
   18.1079   -6.7140  -17.4644 C   0  0  0  0  0  0  0  0  0  0  0  0
   17.2849   -5.8743  -17.8505 O   0  0  0  0  0  0  0  0  0  0  0  0
   19.4109   -6.2961  -16.8771 C   0  0  0  0  0  0  0  0  0  0  0  0
   20.1986   -7.5314  -16.5603 C   0  0  0  0  0  0  0  0  0  0  0  0
   21.5222   -7.2446  -15.9346 C   0  0  2  0  0  0  0  0  0  0  0  0
   22.1156   -8.5443  -15.5529 N   0  0  0  0  0  0  0  0  0  0  0  0
   21.4938   -6.3785  -14.7652 C   0  0  0  0  0  0  0  0  0  0  0  0
   21.6526   -6.8521  -13.6140 O   0  0  0  0  0  0  0  0  0  0  0  0
   21.2946   -5.0183  -14.8801 O   0  0  0  0  0  0  0  0  0  0  0  0
  1  2  1  0
  2  3  2  0
  4  5  1  0
  4  2  1  0
  6  5  1  0
  6  7  1  1
  8  6  1  0
  9  8  2  0
 11 10  1  0
 12 11  1  0
 13 12  1  0
 14 13  1  6
 14 15  1  0
 15  8  1  0
 16 14  1  0
 16 24  1  0
 17 16  2  0
 19 21  1  0
 19 18  1  0
 20 19  2  0
 22 21  1  0
 23 22  1  1
 23 24  1  0
 23 25  1  0
 25 27  1  0
 26 25  2  0
M  END
$$$$
