QMQ.pdb
     RDKit          3D

 27 26  0  0  1  0  0  0  0  0999 V2000
   25.1529  -24.0278  -17.4545 N   0  0  0  0  0  0  0  0  0  0  0  0
   26.4149  -23.7125  -18.0111 C   0  0  0  0  0  0  0  0  0  0  0  0
   26.5639  -23.7876  -19.2483 O   0  0  0  0  0  0  0  0  0  0  0  0
   27.4917  -23.3153  -17.1130 C   0  0  0  0  0  0  0  0  0  0  0  0
   27.1351  -23.1759  -15.6693 C   0  0  0  0  0  0  0  0  0  0  0  0
   26.4365  -21.9230  -15.2743 C   0  0  2  0  0  0  0  0  0  0  0  0
   27.2645  -20.7525  -15.2689 N   0  0  0  0  0  0  0  0  0  0  0  0
   25.7018  -22.0712  -13.9832 C   0  0  0  0  0  0  0  0  0  0  0  0
   24.8279  -22.9900  -13.8811 O   0  0  0  0  0  0  0  0  0  0  0  0
   27.5299  -20.3071   -8.1889 C   0  0  0  0  0  0  0  0  0  0  0  0
   25.7755  -20.0198   -7.8963 S   0  0  0  0  0  0  0  0  0  0  0  0
   24.8326  -20.6054   -9.3285 C   0  0  0  0  0  0  0  0  0  0  0  0
   25.7486  -20.6043  -10.5363 C   0  0  0  0  0  0  0  0  0  0  0  0
   25.0085  -21.2239  -11.7242 C   0  0  2  0  0  0  0  0  0  0  0  0
   25.8968  -21.2659  -12.8475 N   0  0  0  0  0  0  0  0  0  0  0  0
   23.7874  -20.4632  -11.9332 C   0  0  0  0  0  0  0  0  0  0  0  0
   23.8079  -19.2190  -11.8973 O   0  0  0  0  0  0  0  0  0  0  0  0
   20.0236  -21.6097  -16.2301 N   0  0  0  0  0  0  0  0  0  0  0  0
   21.4126  -21.3606  -16.1521 C   0  0  0  0  0  0  0  0  0  0  0  0
   22.1299  -21.5164  -17.1485 O   0  0  0  0  0  0  0  0  0  0  0  0
   21.9896  -20.9103  -14.8554 C   0  0  0  0  0  0  0  0  0  0  0  0
   20.8818  -20.8469  -13.8475 C   0  0  0  0  0  0  0  0  0  0  0  0
   21.3322  -20.3871  -12.5017 C   0  0  2  0  0  0  0  0  0  0  0  0
   22.5698  -21.1292  -12.1783 N   0  0  0  0  0  0  0  0  0  0  0  0
   20.3769  -20.5703  -11.4190 C   0  0  0  0  0  0  0  0  0  0  0  0
   20.4788  -21.5436  -10.6334 O   0  0  0  0  0  0  0  0  0  0  0  0
   19.3357  -19.6878  -11.2191 O   0  0  0  0  0  0  0  0  0  0  0  0
  1  2  1  0
  2  3  2  0
  4  5  1  0
  4  2  1  0
  6  5  1  0
  6  7  1  1
  8  6  1  0
  9  8  2  0
 11 10  1  0
 12 11  1  0
 13 12  1  0
 14 13  1  1
 14 15  1  0
 15  8  1  0
 16 14  1  0
 16 24  1  0
 17 16  2  0
 19 21  1  0
 19 18  1  0
 20 19  2  0
 22 21  1  0
 23 22  1  6
 23 24  1  0
 23 25  1  0
 25 27  1  0
 26 25  2  0
M  END
$$$$
