QMQ.pdb
     RDKit          3D

 27 26  0  0  1  0  0  0  0  0999 V2000
   28.9050  -24.1339  -17.0995 N   0  0  0  0  0  0  0  0  0  0  0  0
   29.5401  -22.9612  -17.5721 C   0  0  0  0  0  0  0  0  0  0  0  0
   30.1447  -23.0011  -18.6636 O   0  0  0  0  0  0  0  0  0  0  0  0
   29.4640  -21.7534  -16.7601 C   0  0  0  0  0  0  0  0  0  0  0  0
   28.6445  -21.8410  -15.5145 C   0  0  0  0  0  0  0  0  0  0  0  0
   27.2482  -21.3341  -15.5994 C   0  0  2  0  0  0  0  0  0  0  0  0
   27.1338  -19.9572  -15.9828 N   0  0  0  0  0  0  0  0  0  0  0  0
   26.4707  -21.6153  -14.3564 C   0  0  0  0  0  0  0  0  0  0  0  0
   26.2292  -22.8260  -14.0493 O   0  0  0  0  0  0  0  0  0  0  0  0
   27.1011  -20.3768   -8.1913 C   0  0  0  0  0  0  0  0  0  0  0  0
   25.4161  -19.8034   -8.4706 S   0  0  0  0  0  0  0  0  0  0  0  0
   24.7533  -20.6112   -9.9510 C   0  0  0  0  0  0  0  0  0  0  0  0
   25.6015  -20.2018  -11.1388 C   0  0  0  0  0  0  0  0  0  0  0  0
   25.0773  -20.9060  -12.3925 C   0  0  2  0  0  0  0  0  0  0  0  0
   25.9721  -20.6369  -13.4785 N   0  0  0  0  0  0  0  0  0  0  0  0
   23.7052  -20.4745  -12.6041 C   0  0  0  0  0  0  0  0  0  0  0  0
   23.4604  -19.3028  -12.9463 O   0  0  0  0  0  0  0  0  0  0  0  0
   19.1969  -24.5037  -13.3166 N   0  0  0  0  0  0  0  0  0  0  0  0
   19.4618  -23.7456  -14.4795 C   0  0  0  0  0  0  0  0  0  0  0  0
   19.0847  -24.1511  -15.5863 O   0  0  0  0  0  0  0  0  0  0  0  0
   20.1987  -22.4587  -14.3454 C   0  0  0  0  0  0  0  0  0  0  0  0
   20.4483  -22.2125  -12.8879 C   0  0  0  0  0  0  0  0  0  0  0  0
   21.2336  -20.9720  -12.6236 C   0  0  2  0  0  0  0  0  0  0  0  0
   22.6408  -21.3802  -12.4231 N   0  0  0  0  0  0  0  0  0  0  0  0
   20.8040  -20.1845  -11.4774 C   0  0  0  0  0  0  0  0  0  0  0  0
   20.2854  -19.0529  -11.6365 O   0  0  0  0  0  0  0  0  0  0  0  0
   20.9492  -20.6505  -10.1872 O   0  0  0  0  0  0  0  0  0  0  0  0
  1  2  1  0
  2  3  2  0
  4  5  1  0
  4  2  1  0
  6  5  1  0
  6  7  1  1
  8  6  1  0
  9  8  2  0
 11 10  1  0
 12 11  1  0
 13 12  1  0
 14 13  1  1
 14 15  1  0
 15  8  1  0
 16 14  1  0
 16 24  1  0
 17 16  2  0
 19 21  1  0
 19 18  1  0
 20 19  2  0
 22 21  1  0
 23 22  1  1
 23 24  1  0
 23 25  1  0
 25 27  1  0
 26 25  2  0
M  END
$$$$
