QMQ.pdb
     RDKit          3D

 27 26  0  0  1  0  0  0  0  0999 V2000
   29.1681  -12.2645  -20.1109 N   0  0  0  0  0  0  0  0  0  0  0  0
   30.3154  -13.0347  -19.8068 C   0  0  0  0  0  0  0  0  0  0  0  0
   30.4557  -14.1487  -20.3523 O   0  0  0  0  0  0  0  0  0  0  0  0
   31.2861  -12.4941  -18.8638 C   0  0  0  0  0  0  0  0  0  0  0  0
   30.9503  -11.1758  -18.2471 C   0  0  0  0  0  0  0  0  0  0  0  0
   31.9823  -10.1093  -18.3533 C   0  0  2  0  0  0  0  0  0  0  0  0
   33.0094  -10.3645  -19.3206 N   0  0  0  0  0  0  0  0  0  0  0  0
   32.5661   -9.7566  -17.0254 C   0  0  0  0  0  0  0  0  0  0  0  0
   31.7769   -9.4803  -16.0665 O   0  0  0  0  0  0  0  0  0  0  0  0
   38.5399  -11.0222  -14.5772 C   0  0  0  0  0  0  0  0  0  0  0  0
   37.4149  -10.8622  -13.1791 S   0  0  0  0  0  0  0  0  0  0  0  0
   36.0283   -9.7966  -13.6536 C   0  0  0  0  0  0  0  0  0  0  0  0
   35.6296  -10.1366  -15.0761 C   0  0  0  0  0  0  0  0  0  0  0  0
   34.4914   -9.2100  -15.5102 C   0  0  2  0  0  0  0  0  0  0  0  0
   33.9412   -9.7024  -16.7379 N   0  0  0  0  0  0  0  0  0  0  0  0
   35.0185   -7.8565  -15.5709 C   0  0  0  0  0  0  0  0  0  0  0  0
   35.7539   -7.5100  -16.5137 O   0  0  0  0  0  0  0  0  0  0  0  0
   31.8826   -3.1176  -13.7183 N   0  0  0  0  0  0  0  0  0  0  0  0
   32.4148   -2.9008  -15.0094 C   0  0  0  0  0  0  0  0  0  0  0  0
   31.9255   -2.0360  -15.7473 O   0  0  0  0  0  0  0  0  0  0  0  0
   33.5678   -3.7287  -15.4592 C   0  0  0  0  0  0  0  0  0  0  0  0
   33.9250   -4.6738  -14.3518 C   0  0  0  0  0  0  0  0  0  0  0  0
   35.1227   -5.5109  -14.6520 C   0  0  2  0  0  0  0  0  0  0  0  0
   34.7006   -6.9254  -14.5619 N   0  0  0  0  0  0  0  0  0  0  0  0
   36.2711   -5.3060  -13.7816 C   0  0  0  0  0  0  0  0  0  0  0  0
   36.4791   -6.0680  -12.8065 O   0  0  0  0  0  0  0  0  0  0  0  0
   37.1641   -4.2768  -13.9965 O   0  0  0  0  0  0  0  0  0  0  0  0
  1  2  1  0
  2  3  2  0
  4  5  1  0
  4  2  1  0
  6  5  1  0
  6  7  1  6
  8  6  1  0
  9  8  2  0
 11 10  1  0
 12 11  1  0
 13 12  1  0
 14 13  1  6
 14 15  1  0
 15  8  1  0
 16 14  1  0
 16 24  1  0
 17 16  2  0
 19 21  1  0
 19 18  1  0
 20 19  2  0
 22 21  1  0
 23 22  1  1
 23 24  1  0
 23 25  1  0
 25 27  1  0
 26 25  2  0
M  END
$$$$
