QMQ.pdb
     RDKit          3D

 27 26  0  0  1  0  0  0  0  0999 V2000
   18.1380  -15.4778  -17.5860 N   0  0  0  0  0  0  0  0  0  0  0  0
   19.4883  -15.6758  -17.9592 C   0  0  0  0  0  0  0  0  0  0  0  0
   20.0721  -16.7128  -17.5821 O   0  0  0  0  0  0  0  0  0  0  0  0
   20.1433  -14.6555  -18.7678 C   0  0  0  0  0  0  0  0  0  0  0  0
   20.3485  -13.3253  -18.1204 C   0  0  0  0  0  0  0  0  0  0  0  0
   21.6799  -12.6897  -18.3130 C   0  0  2  0  0  0  0  0  0  0  0  0
   22.7749  -13.6106  -18.4053 N   0  0  0  0  0  0  0  0  0  0  0  0
   21.9497  -11.6293  -17.2974 C   0  0  0  0  0  0  0  0  0  0  0  0
   21.2482  -11.6088  -16.2363 O   0  0  0  0  0  0  0  0  0  0  0  0
   27.7853  -11.9712  -14.9304 C   0  0  0  0  0  0  0  0  0  0  0  0
   27.0619  -10.5214  -15.7183 S   0  0  0  0  0  0  0  0  0  0  0  0
   25.2558  -10.6474  -15.6462 C   0  0  0  0  0  0  0  0  0  0  0  0
   24.6646   -9.4029  -16.2786 C   0  0  0  0  0  0  0  0  0  0  0  0
   23.1560   -9.5982  -16.4482 C   0  0  2  0  0  0  0  0  0  0  0  0
   22.9325  -10.6310  -17.4157 N   0  0  0  0  0  0  0  0  0  0  0  0
   22.5751   -8.3076  -16.7802 C   0  0  0  0  0  0  0  0  0  0  0  0
   22.6263   -7.8766  -17.9470 O   0  0  0  0  0  0  0  0  0  0  0  0
   18.8676   -3.9768  -19.0339 N   0  0  0  0  0  0  0  0  0  0  0  0
   18.9005   -5.2114  -18.3469 C   0  0  0  0  0  0  0  0  0  0  0  0
   18.6802   -6.2674  -18.9535 O   0  0  0  0  0  0  0  0  0  0  0  0
   19.2034   -5.2141  -16.8890 C   0  0  0  0  0  0  0  0  0  0  0  0
   19.9586   -6.4693  -16.5707 C   0  0  0  0  0  0  0  0  0  0  0  0
   21.3471   -6.2175  -16.0869 C   0  0  2  0  0  0  0  0  0  0  0  0
   21.9490   -7.5337  -15.7826 N   0  0  0  0  0  0  0  0  0  0  0  0
   21.4623   -5.3645  -14.9132 C   0  0  0  0  0  0  0  0  0  0  0  0
   21.8241   -5.8399  -13.8096 O   0  0  0  0  0  0  0  0  0  0  0  0
   21.1817   -4.0152  -14.9721 O   0  0  0  0  0  0  0  0  0  0  0  0
  1  2  1  0
  2  3  2  0
  4  5  1  0
  4  2  1  0
  6  5  1  0
  6  7  1  1
  8  6  1  0
  9  8  2  0
 11 10  1  0
 12 11  1  0
 13 12  1  0
 14 13  1  6
 14 15  1  0
 15  8  1  0
 16 14  1  0
 16 24  1  0
 17 16  2  0
 19 21  1  0
 19 18  1  0
 20 19  2  0
 22 21  1  0
 23 22  1  1
 23 24  1  0
 23 25  1  0
 25 27  1  0
 26 25  2  0
M  END
$$$$
