QMQ.pdb
     RDKit          3D

 27 26  0  0  1  0  0  0  0  0999 V2000
   28.1465  -25.6293  -16.5393 N   0  0  0  0  0  0  0  0  0  0  0  0
   28.4706  -24.7639  -17.6108 C   0  0  0  0  0  0  0  0  0  0  0  0
   28.7507  -25.2591  -18.7220 O   0  0  0  0  0  0  0  0  0  0  0  0
   28.4670  -23.3267  -17.3697 C   0  0  0  0  0  0  0  0  0  0  0  0
   28.1723  -22.8881  -15.9727 C   0  0  0  0  0  0  0  0  0  0  0  0
   27.2045  -21.7689  -15.8166 C   0  0  2  0  0  0  0  0  0  0  0  0
   27.7834  -20.4603  -15.9079 N   0  0  0  0  0  0  0  0  0  0  0  0
   26.3763  -21.9087  -14.5825 C   0  0  0  0  0  0  0  0  0  0  0  0
   25.5883  -22.9027  -14.4865 O   0  0  0  0  0  0  0  0  0  0  0  0
   25.4972  -20.5000   -6.9680 C   0  0  0  0  0  0  0  0  0  0  0  0
   26.3594  -20.0553   -8.4863 S   0  0  0  0  0  0  0  0  0  0  0  0
   25.4252  -20.6870   -9.9046 C   0  0  0  0  0  0  0  0  0  0  0  0
   26.2442  -20.4527  -11.1585 C   0  0  0  0  0  0  0  0  0  0  0  0
   25.5524  -21.1352  -12.3409 C   0  0  2  0  0  0  0  0  0  0  0  0
   26.3929  -21.0176  -13.4951 N   0  0  0  0  0  0  0  0  0  0  0  0
   24.2293  -20.5493  -12.4807 C   0  0  0  0  0  0  0  0  0  0  0  0
   24.1024  -19.3408  -12.7514 O   0  0  0  0  0  0  0  0  0  0  0  0
   19.6047  -23.6270  -14.6918 N   0  0  0  0  0  0  0  0  0  0  0  0
   20.1374  -22.5745  -15.4701 C   0  0  0  0  0  0  0  0  0  0  0  0
   19.9857  -22.5700  -16.6984 O   0  0  0  0  0  0  0  0  0  0  0  0
   20.8794  -21.4799  -14.7857 C   0  0  0  0  0  0  0  0  0  0  0  0
   20.9669  -21.8150  -13.3273 C   0  0  0  0  0  0  0  0  0  0  0  0
   21.7213  -20.8030  -12.5321 C   0  0  2  0  0  0  0  0  0  0  0  0
   23.0791  -21.3456  -12.3105 N   0  0  0  0  0  0  0  0  0  0  0  0
   21.1400  -20.4491  -11.2456 C   0  0  0  0  0  0  0  0  0  0  0  0
   21.4846  -21.0516  -10.2001 O   0  0  0  0  0  0  0  0  0  0  0  0
   20.1990  -19.4469  -11.1307 O   0  0  0  0  0  0  0  0  0  0  0  0
  1  2  1  0
  2  3  2  0
  4  5  1  0
  4  2  1  0
  6  5  1  0
  6  7  1  1
  8  6  1  0
  9  8  2  0
 11 10  1  0
 12 11  1  0
 13 12  1  0
 14 13  1  1
 14 15  1  0
 15  8  1  0
 16 14  1  0
 16 24  1  0
 17 16  2  0
 19 21  1  0
 19 18  1  0
 20 19  2  0
 22 21  1  0
 23 22  1  1
 23 24  1  0
 23 25  1  0
 25 27  1  0
 26 25  2  0
M  END
$$$$
