QMQ.pdb
     RDKit          3D

 27 26  0  0  1  0  0  0  0  0999 V2000
   18.2867  -22.2679  -11.2058 N   0  0  0  0  0  0  0  0  0  0  0  0
   18.0905  -22.6183  -12.5625 C   0  0  0  0  0  0  0  0  0  0  0  0
   17.1397  -23.3708  -12.8593 O   0  0  0  0  0  0  0  0  0  0  0  0
   19.0120  -22.0867  -13.5585 C   0  0  0  0  0  0  0  0  0  0  0  0
   20.1172  -21.2223  -13.0466 C   0  0  0  0  0  0  0  0  0  0  0  0
   21.0750  -20.6982  -14.0575 C   0  0  2  0  0  0  0  0  0  0  0  0
   21.2039  -21.5062  -15.2349 N   0  0  0  0  0  0  0  0  0  0  0  0
   22.4098  -20.3925  -13.4630 C   0  0  0  0  0  0  0  0  0  0  0  0
   22.4584  -19.6964  -12.3993 O   0  0  0  0  0  0  0  0  0  0  0  0
   24.3685  -20.4689   -8.8470 C   0  0  0  0  0  0  0  0  0  0  0  0
   25.7108  -21.5315   -9.4084 S   0  0  0  0  0  0  0  0  0  0  0  0
   26.0464  -21.1887  -11.1557 C   0  0  0  0  0  0  0  0  0  0  0  0
   24.7648  -21.3970  -11.9380 C   0  0  0  0  0  0  0  0  0  0  0  0
   24.8945  -20.7105  -13.2999 C   0  0  2  0  0  0  0  0  0  0  0  0
   23.6428  -20.8166  -13.9887 N   0  0  0  0  0  0  0  0  0  0  0  0
   26.0290  -21.3023  -13.9899 C   0  0  0  0  0  0  0  0  0  0  0  0
   26.4069  -22.4538  -13.7053 O   0  0  0  0  0  0  0  0  0  0  0  0
   24.7218  -23.8117  -18.0314 N   0  0  0  0  0  0  0  0  0  0  0  0
   24.3568  -22.4481  -18.0994 C   0  0  0  0  0  0  0  0  0  0  0  0
   23.3505  -22.1038  -18.7321 O   0  0  0  0  0  0  0  0  0  0  0  0
   25.2026  -21.4426  -17.3988 C   0  0  0  0  0  0  0  0  0  0  0  0
   26.3341  -22.1660  -16.7329 C   0  0  0  0  0  0  0  0  0  0  0  0
   27.3509  -21.2519  -16.1363 C   0  0  2  0  0  0  0  0  0  0  0  0
   26.7102  -20.5763  -14.9873 N   0  0  0  0  0  0  0  0  0  0  0  0
   27.8958  -20.2423  -17.0320 C   0  0  0  0  0  0  0  0  0  0  0  0
   27.4996  -19.0531  -16.9726 O   0  0  0  0  0  0  0  0  0  0  0  0
   28.8594  -20.5539  -17.9687 O   0  0  0  0  0  0  0  0  0  0  0  0
  1  2  1  0
  2  3  2  0
  4  5  1  0
  4  2  1  0
  6  5  1  0
  6  7  1  6
  8  6  1  0
  9  8  2  0
 11 10  1  0
 12 11  1  0
 13 12  1  0
 14 13  1  1
 14 15  1  0
 15  8  1  0
 16 14  1  0
 16 24  1  0
 17 16  2  0
 19 21  1  0
 19 18  1  0
 20 19  2  0
 22 21  1  0
 23 22  1  6
 23 24  1  0
 23 25  1  0
 25 27  1  0
 26 25  2  0
M  END
$$$$
