QMQ.pdb
     RDKit          3D

 27 26  0  0  1  0  0  0  0  0999 V2000
   22.7954  -17.6753  -17.8633 N   0  0  0  0  0  0  0  0  0  0  0  0
   23.7643  -17.0902  -18.7123 C   0  0  0  0  0  0  0  0  0  0  0  0
   24.7310  -17.7832  -19.0914 O   0  0  0  0  0  0  0  0  0  0  0  0
   23.5937  -15.6976  -19.1066 C   0  0  0  0  0  0  0  0  0  0  0  0
   22.3998  -14.9918  -18.5524 C   0  0  0  0  0  0  0  0  0  0  0  0
   22.1865  -13.5900  -19.0034 C   0  0  2  0  0  0  0  0  0  0  0  0
   22.8467  -13.2490  -20.2296 N   0  0  0  0  0  0  0  0  0  0  0  0
   22.4956  -12.6000  -17.9297 C   0  0  0  0  0  0  0  0  0  0  0  0
   21.8966  -12.7055  -16.8123 O   0  0  0  0  0  0  0  0  0  0  0  0
   28.0673  -13.5044  -15.5242 C   0  0  0  0  0  0  0  0  0  0  0  0
   27.5061  -11.9429  -16.2263 S   0  0  0  0  0  0  0  0  0  0  0  0
   25.6944  -11.9227  -16.2530 C   0  0  0  0  0  0  0  0  0  0  0  0
   25.2397  -10.5866  -16.8062 C   0  0  0  0  0  0  0  0  0  0  0  0
   23.7216  -10.6170  -16.9987 C   0  0  2  0  0  0  0  0  0  0  0  0
   23.4104  -11.5393  -18.0501 N   0  0  0  0  0  0  0  0  0  0  0  0
   23.2745   -9.2523  -17.2246 C   0  0  0  0  0  0  0  0  0  0  0  0
   23.7930   -8.5612  -18.1210 O   0  0  0  0  0  0  0  0  0  0  0  0
   17.8747   -7.7995  -18.1019 N   0  0  0  0  0  0  0  0  0  0  0  0
   18.2365   -6.4626  -17.8205 C   0  0  0  0  0  0  0  0  0  0  0  0
   17.4235   -5.5469  -17.9994 O   0  0  0  0  0  0  0  0  0  0  0  0
   19.6062   -6.1820  -17.3083 C   0  0  0  0  0  0  0  0  0  0  0  0
   20.3393   -7.4847  -17.1960 C   0  0  0  0  0  0  0  0  0  0  0  0
   21.7289   -7.3382  -16.6733 C   0  0  2  0  0  0  0  0  0  0  0  0
   22.2498   -8.7007  -16.4298 N   0  0  0  0  0  0  0  0  0  0  0  0
   21.8658   -6.5568  -15.4530 C   0  0  0  0  0  0  0  0  0  0  0  0
   22.0197   -7.1236  -14.3440 O   0  0  0  0  0  0  0  0  0  0  0  0
   21.8328   -5.1779  -15.4723 O   0  0  0  0  0  0  0  0  0  0  0  0
  1  2  1  0
  2  3  2  0
  4  5  1  0
  4  2  1  0
  6  5  1  0
  6  7  1  6
  8  6  1  0
  9  8  2  0
 11 10  1  0
 12 11  1  0
 13 12  1  0
 14 13  1  6
 14 15  1  0
 15  8  1  0
 16 14  1  0
 16 24  1  0
 17 16  2  0
 19 21  1  0
 19 18  1  0
 20 19  2  0
 22 21  1  0
 23 22  1  1
 23 24  1  0
 23 25  1  0
 25 27  1  0
 26 25  2  0
M  END
$$$$
