QMQ.pdb
     RDKit          3D

 27 26  0  0  1  0  0  0  0  0999 V2000
   28.5421  -21.9831  -18.1501 N   0  0  0  0  0  0  0  0  0  0  0  0
   29.4719  -20.9305  -17.9789 C   0  0  0  0  0  0  0  0  0  0  0  0
   30.1270  -20.5383  -18.9665 O   0  0  0  0  0  0  0  0  0  0  0  0
   29.6283  -20.3495  -16.6516 C   0  0  0  0  0  0  0  0  0  0  0  0
   28.7961  -20.9448  -15.5635 C   0  0  0  0  0  0  0  0  0  0  0  0
   27.3405  -20.6384  -15.5956 C   0  0  2  0  0  0  0  0  0  0  0  0
   27.0247  -19.2535  -15.7907 N   0  0  0  0  0  0  0  0  0  0  0  0
   26.6218  -21.1950  -14.4114 C   0  0  0  0  0  0  0  0  0  0  0  0
   26.6884  -22.4461  -14.1905 O   0  0  0  0  0  0  0  0  0  0  0  0
   26.9672  -20.8589   -8.2444 C   0  0  0  0  0  0  0  0  0  0  0  0
   25.1877  -20.8111   -8.5220 S   0  0  0  0  0  0  0  0  0  0  0  0
   24.8263  -21.4840  -10.1651 C   0  0  0  0  0  0  0  0  0  0  0  0
   25.1566  -20.4249  -11.1982 C   0  0  0  0  0  0  0  0  0  0  0  0
   24.9001  -20.9941  -12.5956 C   0  0  2  0  0  0  0  0  0  0  0  0
   25.8621  -20.4396  -13.5010 N   0  0  0  0  0  0  0  0  0  0  0  0
   23.5115  -20.7301  -12.9354 C   0  0  0  0  0  0  0  0  0  0  0  0
   23.1494  -19.5823  -13.2535 O   0  0  0  0  0  0  0  0  0  0  0  0
   19.9151  -24.9573  -15.2524 N   0  0  0  0  0  0  0  0  0  0  0  0
   18.8776  -24.0358  -14.9844 C   0  0  0  0  0  0  0  0  0  0  0  0
   17.7380  -24.2363  -15.4234 O   0  0  0  0  0  0  0  0  0  0  0  0
   19.1830  -22.8280  -14.1688 C   0  0  0  0  0  0  0  0  0  0  0  0
   20.6350  -22.8687  -13.7985 C   0  0  0  0  0  0  0  0  0  0  0  0
   21.1611  -21.5562  -13.3232 C   0  0  2  0  0  0  0  0  0  0  0  0
   22.5637  -21.7727  -12.9072 N   0  0  0  0  0  0  0  0  0  0  0  0
   20.4324  -20.9448  -12.2216 C   0  0  0  0  0  0  0  0  0  0  0  0
   20.6714  -21.2748  -11.0347 O   0  0  0  0  0  0  0  0  0  0  0  0
   19.4627  -19.9885  -12.4412 O   0  0  0  0  0  0  0  0  0  0  0  0
  1  2  1  0
  2  3  2  0
  4  5  1  0
  4  2  1  0
  6  5  1  0
  6  7  1  1
  8  6  1  0
  9  8  2  0
 11 10  1  0
 12 11  1  0
 13 12  1  0
 14 13  1  1
 14 15  1  0
 15  8  1  0
 16 14  1  0
 16 24  1  0
 17 16  2  0
 19 21  1  0
 19 18  1  0
 20 19  2  0
 22 21  1  0
 23 22  1  1
 23 24  1  0
 23 25  1  0
 25 27  1  0
 26 25  2  0
M  END
$$$$
