QMQ.pdb
     RDKit          3D

 27 26  0  0  1  0  0  0  0  0999 V2000
   21.7926  -20.2305  -14.7584 N   0  0  0  0  0  0  0  0  0  0  0  0
   21.1787  -19.1452  -14.0897 C   0  0  0  0  0  0  0  0  0  0  0  0
   20.9061  -19.2608  -12.8770 O   0  0  0  0  0  0  0  0  0  0  0  0
   20.8868  -17.9358  -14.8486 C   0  0  0  0  0  0  0  0  0  0  0  0
   21.2815  -17.9439  -16.2890 C   0  0  0  0  0  0  0  0  0  0  0  0
   21.0686  -16.6799  -17.0446 C   0  0  2  0  0  0  0  0  0  0  0  0
   21.4642  -16.7322  -18.4217 N   0  0  0  0  0  0  0  0  0  0  0  0
   21.6720  -15.5024  -16.3532 C   0  0  0  0  0  0  0  0  0  0  0  0
   21.2082  -15.1573  -15.2200 O   0  0  0  0  0  0  0  0  0  0  0  0
   28.1145  -11.3934  -14.8881 C   0  0  0  0  0  0  0  0  0  0  0  0
   27.3119  -12.7283  -15.7935 S   0  0  0  0  0  0  0  0  0  0  0  0
   25.5163  -12.5779  -15.6019 C   0  0  0  0  0  0  0  0  0  0  0  0
   24.8584  -13.7148  -16.3587 C   0  0  0  0  0  0  0  0  0  0  0  0
   23.3436  -13.6403  -16.1526 C   0  0  2  0  0  0  0  0  0  0  0  0
   22.7303  -14.7264  -16.8576 N   0  0  0  0  0  0  0  0  0  0  0  0
   22.9039  -12.3158  -16.5597 C   0  0  0  0  0  0  0  0  0  0  0  0
   22.7007  -12.0627  -17.7616 O   0  0  0  0  0  0  0  0  0  0  0  0
   19.7229   -8.8798  -12.7767 N   0  0  0  0  0  0  0  0  0  0  0  0
   19.7362   -7.9585  -13.8483 C   0  0  0  0  0  0  0  0  0  0  0  0
   19.0746   -6.9148  -13.7803 O   0  0  0  0  0  0  0  0  0  0  0  0
   20.5570   -8.2683  -15.0514 C   0  0  0  0  0  0  0  0  0  0  0  0
   21.1984   -9.6078  -14.8475 C   0  0  0  0  0  0  0  0  0  0  0  0
   22.1189   -9.9974  -15.9549 C   0  0  2  0  0  0  0  0  0  0  0  0
   22.7043  -11.3072  -15.5959 N   0  0  0  0  0  0  0  0  0  0  0  0
   23.1972   -9.0619  -16.2389 C   0  0  0  0  0  0  0  0  0  0  0  0
   24.3620   -9.2840  -15.8283 O   0  0  0  0  0  0  0  0  0  0  0  0
   22.9791   -7.9089  -16.9642 O   0  0  0  0  0  0  0  0  0  0  0  0
  1  2  1  0
  2  3  2  0
  4  5  1  0
  4  2  1  0
  6  5  1  0
  6  7  1  6
  8  6  1  0
  9  8  2  0
 11 10  1  0
 12 11  1  0
 13 12  1  0
 14 13  1  6
 14 15  1  0
 15  8  1  0
 16 14  1  0
 16 24  1  0
 17 16  2  0
 19 21  1  0
 19 18  1  0
 20 19  2  0
 22 21  1  0
 23 22  1  1
 23 24  1  0
 23 25  1  0
 25 27  1  0
 26 25  2  0
M  END
$$$$
