TRG.pdb
     RDKit          3D

 23 22  0  0  1  0  0  0  0  0999 V2000
    8.4627  -16.0377   18.0789 C   0  0  0  0  0  0  0  0  0  0  0  0
    8.4917  -14.5314   17.9056 C   0  0  1  0  0  0  0  0  0  0  0  0
    8.0982  -14.2382   16.5990 O   0  0  0  0  0  0  0  0  0  0  0  0
    7.4864  -13.9310   18.8514 C   0  0  2  0  0  0  0  0  0  0  0  0
    7.2590  -12.5574   18.5191 N   0  0  0  0  0  0  0  0  0  0  0  0
    8.0044  -14.0368   20.2503 C   0  0  0  0  0  0  0  0  0  0  0  0
    8.8661  -13.2423   20.6944 O   0  0  0  0  0  0  0  0  0  0  0  0
    7.4184  -20.0935   24.8821 N   0  0  0  0  0  0  0  0  0  0  0  0
    7.6893  -19.4523   26.1379 C   0  0  0  0  0  0  0  0  0  0  0  0
    8.2879  -20.1142   27.0382 N   0  0  0  0  0  0  0  0  0  0  0  0
    7.2942  -18.1027   26.3643 N   0  0  0  0  0  0  0  0  0  0  0  0
    6.6375  -17.3474   25.3354 C   0  0  0  0  0  0  0  0  0  0  0  0
    7.5377  -16.3538   24.6356 C   0  0  0  0  0  0  0  0  0  0  0  0
    7.1814  -16.2501   23.1703 C   0  0  0  0  0  0  0  0  0  0  0  0
    8.0363  -15.2722   22.4332 C   0  0  2  0  0  0  0  0  0  0  0  0
    7.5189  -15.0583   21.1117 N   0  0  0  0  0  0  0  0  0  0  0  0
    9.4547  -15.6776   22.3652 C   0  0  0  0  0  0  0  0  0  0  0  0
    9.9299  -16.0218   21.2583 O   0  0  0  0  0  0  0  0  0  0  0  0
    8.4474  -19.6954   27.9757 N   0  0  0  0  0  0  0  0  0  0  0  0
   10.3046  -15.6907   23.5176 C   0  0  0  0  0  0  0  0  0  0  0  0
   11.6776  -16.1143   23.3369 C   0  0  0  0  0  0  0  0  0  0  0  0
   12.4753  -15.9926   24.5586 O   0  0  0  0  0  0  0  0  0  0  0  0
   11.9508  -15.5751   25.6125 O   0  0  0  0  0  0  0  0  0  0  0  0
  2  1  1  6
  2  3  1  0
  4  6  1  0
  4  2  1  0
  4  5  1  6
  6  7  2  0
  9 11  1  0
  9  8  1  0
 10  9  2  0
 12 11  1  0
 12 13  1  0
 13 14  1  0
 15 14  1  6
 15 17  1  0
 16 15  1  0
 16  6  1  0
 17 19  1  0
 17 18  2  0
 19 20  1  0
 20 21  1  0
 21 22  2  0
 21 23  1  0
M  END
$$$$
