TRG.pdb
     RDKit          3D

 23 22  0  0  1  0  0  0  0  0999 V2000
    7.3139  -13.8591   27.4126 C   0  0  0  0  0  0  0  0  0  0  0  0
    8.1925  -14.7265   26.5322 C   0  0  1  0  0  0  0  0  0  0  0  0
    8.8509  -15.6464   27.3496 O   0  0  0  0  0  0  0  0  0  0  0  0
    7.3032  -15.4842   25.5832 C   0  0  2  0  0  0  0  0  0  0  0  0
    6.6108  -16.5234   26.2830 N   0  0  0  0  0  0  0  0  0  0  0  0
    8.1390  -16.0747   24.4928 C   0  0  0  0  0  0  0  0  0  0  0  0
    8.4746  -17.2823   24.5020 O   0  0  0  0  0  0  0  0  0  0  0  0
    9.6178  -14.1850   18.5831 N   0  0  0  0  0  0  0  0  0  0  0  0
    8.5477  -13.2324   18.6781 C   0  0  0  0  0  0  0  0  0  0  0  0
    8.7591  -12.0444   18.2894 N   0  0  0  0  0  0  0  0  0  0  0  0
    7.2779  -13.6161   19.1969 N   0  0  0  0  0  0  0  0  0  0  0  0
    7.0062  -14.9843   19.5360 C   0  0  0  0  0  0  0  0  0  0  0  0
    7.4524  -15.3704   20.9285 C   0  0  0  0  0  0  0  0  0  0  0  0
    8.9589  -15.3171   21.0405 C   0  0  0  0  0  0  0  0  0  0  0  0
    9.4560  -15.7371   22.3848 C   0  0  2  0  0  0  0  0  0  0  0  0
    8.5733  -15.2606   23.4112 N   0  0  0  0  0  0  0  0  0  0  0  0
   10.8385  -15.2945   22.6562 C   0  0  0  0  0  0  0  0  0  0  0  0
   11.0274  -14.1233   23.0588 O   0  0  0  0  0  0  0  0  0  0  0  0
    8.0067  -11.3310   18.3569 N   0  0  0  0  0  0  0  0  0  0  0  0
   11.9685  -16.1554   22.4763 C   0  0  0  0  0  0  0  0  0  0  0  0
   13.2867  -15.5819   22.6521 C   0  0  0  0  0  0  0  0  0  0  0  0
   14.3627  -16.5264   22.3463 O   0  0  0  0  0  0  0  0  0  0  0  0
   14.0946  -17.7092   22.0475 O   0  0  0  0  0  0  0  0  0  0  0  0
  2  1  1  1
  2  3  1  0
  4  6  1  0
  4  2  1  0
  4  5  1  1
  6  7  2  0
  9 11  1  0
  9  8  1  0
 10  9  2  0
 12 11  1  0
 12 13  1  0
 13 14  1  0
 15 14  1  6
 15 17  1  0
 16 15  1  0
 16  6  1  0
 17 19  1  0
 17 18  2  0
 19 20  1  0
 20 21  1  0
 21 22  2  0
 21 23  1  0
M  END
$$$$
