TRG.pdb
     RDKit          3D

 23 22  0  0  1  0  0  0  0  0999 V2000
    7.6045  -16.4920   19.4674 C   0  0  0  0  0  0  0  0  0  0  0  0
    7.8567  -15.1325   18.8446 C   0  0  1  0  0  0  0  0  0  0  0  0
    6.9143  -14.9377   17.8337 O   0  0  0  0  0  0  0  0  0  0  0  0
    7.6423  -14.0845   19.9034 C   0  0  2  0  0  0  0  0  0  0  0  0
    7.6307  -12.7819   19.3099 N   0  0  0  0  0  0  0  0  0  0  0  0
    8.7425  -14.1737   20.9124 C   0  0  0  0  0  0  0  0  0  0  0  0
    9.8845  -13.7108   20.6829 O   0  0  0  0  0  0  0  0  0  0  0  0
    9.3675  -15.9985   30.1656 N   0  0  0  0  0  0  0  0  0  0  0  0
    9.9885  -15.0373   29.2985 C   0  0  0  0  0  0  0  0  0  0  0  0
   10.2095  -13.8722   29.7468 N   0  0  0  0  0  0  0  0  0  0  0  0
   10.3478  -15.3872   27.9655 N   0  0  0  0  0  0  0  0  0  0  0  0
    9.3946  -15.2848   26.8970 C   0  0  0  0  0  0  0  0  0  0  0  0
    9.9614  -15.6220   25.5361 C   0  0  0  0  0  0  0  0  0  0  0  0
    8.9283  -15.3953   24.4562 C   0  0  0  0  0  0  0  0  0  0  0  0
    9.5299  -14.9643   23.1590 C   0  0  2  0  0  0  0  0  0  0  0  0
    8.5052  -14.7964   22.1683 N   0  0  0  0  0  0  0  0  0  0  0  0
   10.5686  -15.8908   22.6652 C   0  0  0  0  0  0  0  0  0  0  0  0
   10.2137  -16.9036   22.0189 O   0  0  0  0  0  0  0  0  0  0  0  0
   10.6623  -13.1575   29.1436 N   0  0  0  0  0  0  0  0  0  0  0  0
   11.9645  -15.6725   22.8984 C   0  0  0  0  0  0  0  0  0  0  0  0
   12.8934  -16.6682   22.4054 C   0  0  0  0  0  0  0  0  0  0  0  0
   14.2912  -16.3202   22.6670 O   0  0  0  0  0  0  0  0  0  0  0  0
   14.5709  -15.3049   23.3386 O   0  0  0  0  0  0  0  0  0  0  0  0
  2  1  1  1
  2  3  1  0
  4  6  1  0
  4  2  1  0
  4  5  1  6
  6  7  2  0
  9 11  1  0
  9  8  1  0
 10  9  2  0
 12 11  1  0
 12 13  1  0
 13 14  1  0
 15 14  1  1
 15 17  1  0
 16 15  1  0
 16  6  1  0
 17 19  1  0
 17 18  2  0
 19 20  1  0
 20 21  1  0
 21 22  2  0
 21 23  1  0
M  END
$$$$
