TRG.pdb
     RDKit          3D

 23 22  0  0  1  0  0  0  0  0999 V2000
    9.0920  -15.4618   17.9664 C   0  0  0  0  0  0  0  0  0  0  0  0
    8.6631  -14.0134   18.1006 C   0  0  1  0  0  0  0  0  0  0  0  0
    8.2988  -13.5506   16.8353 O   0  0  0  0  0  0  0  0  0  0  0  0
    7.4516  -13.9636   18.9925 C   0  0  2  0  0  0  0  0  0  0  0  0
    6.8599  -12.6611   18.9446 N   0  0  0  0  0  0  0  0  0  0  0  0
    7.8607  -14.2852   20.3945 C   0  0  0  0  0  0  0  0  0  0  0  0
    8.2888  -13.4018   21.1738 O   0  0  0  0  0  0  0  0  0  0  0  0
    4.3909  -19.4876   20.2477 N   0  0  0  0  0  0  0  0  0  0  0  0
    3.5556  -19.1564   21.3675 C   0  0  0  0  0  0  0  0  0  0  0  0
    2.2984  -19.1529   21.2043 N   0  0  0  0  0  0  0  0  0  0  0  0
    4.1287  -18.8402   22.6325 N   0  0  0  0  0  0  0  0  0  0  0  0
    5.5512  -18.7219   22.7853 C   0  0  0  0  0  0  0  0  0  0  0  0
    6.0922  -17.3518   22.4427 C   0  0  0  0  0  0  0  0  0  0  0  0
    7.5997  -17.3303   22.5520 C   0  0  0  0  0  0  0  0  0  0  0  0
    8.1889  -16.0068   22.1891 C   0  0  2  0  0  0  0  0  0  0  0  0
    7.7689  -15.6212   20.8720 N   0  0  0  0  0  0  0  0  0  0  0  0
    9.6626  -15.9833   22.2810 C   0  0  0  0  0  0  0  0  0  0  0  0
   10.3233  -15.6464   21.2712 O   0  0  0  0  0  0  0  0  0  0  0  0
    1.6681  -18.9529   22.0058 N   0  0  0  0  0  0  0  0  0  0  0  0
   10.3617  -16.3308   23.4814 C   0  0  0  0  0  0  0  0  0  0  0  0
   11.8054  -16.2158   23.4771 C   0  0  0  0  0  0  0  0  0  0  0  0
   12.4146  -16.6610   24.7318 O   0  0  0  0  0  0  0  0  0  0  0  0
   11.6954  -17.0458   25.6777 O   0  0  0  0  0  0  0  0  0  0  0  0
  2  1  1  6
  2  3  1  0
  4  6  1  0
  4  2  1  0
  4  5  1  1
  6  7  2  0
  9 11  1  0
  9  8  1  0
 10  9  2  0
 12 11  1  0
 12 13  1  0
 13 14  1  0
 15 14  1  6
 15 17  1  0
 16 15  1  0
 16  6  1  0
 17 19  1  0
 17 18  2  0
 19 20  1  0
 20 21  1  0
 21 22  2  0
 21 23  1  0
M  END
$$$$
