TRG.pdb
     RDKit          3D

 23 22  0  0  1  0  0  0  0  0999 V2000
   14.2327  -21.4746   11.6512 C   0  0  0  0  0  0  0  0  0  0  0  0
   13.5043  -21.4421   12.9808 C   0  0  1  0  0  0  0  0  0  0  0  0
   14.2392  -20.6430   13.8579 O   0  0  0  0  0  0  0  0  0  0  0  0
   12.1606  -20.7995   12.7639 C   0  0  2  0  0  0  0  0  0  0  0  0
   12.3281  -19.4500   12.3169 N   0  0  0  0  0  0  0  0  0  0  0  0
   11.3944  -20.8185   14.0481 C   0  0  0  0  0  0  0  0  0  0  0  0
   11.1655  -19.7684   14.6930 O   0  0  0  0  0  0  0  0  0  0  0  0
    7.0158  -26.0015   18.4662 N   0  0  0  0  0  0  0  0  0  0  0  0
    5.9402  -25.0610   18.3248 C   0  0  0  0  0  0  0  0  0  0  0  0
    5.0294  -25.0467   19.2065 N   0  0  0  0  0  0  0  0  0  0  0  0
    5.9000  -24.1648   17.2185 N   0  0  0  0  0  0  0  0  0  0  0  0
    6.9049  -24.2163   16.1948 C   0  0  0  0  0  0  0  0  0  0  0  0
    8.2088  -23.5553   16.5826 C   0  0  0  0  0  0  0  0  0  0  0  0
    8.7829  -22.7823   15.4173 C   0  0  0  0  0  0  0  0  0  0  0  0
   10.0863  -22.1287   15.7405 C   0  0  2  0  0  0  0  0  0  0  0  0
   10.9064  -22.0496   14.5654 N   0  0  0  0  0  0  0  0  0  0  0  0
   10.8201  -22.8052   16.8290 C   0  0  0  0  0  0  0  0  0  0  0  0
   11.4391  -23.8633   16.5707 O   0  0  0  0  0  0  0  0  0  0  0  0
    4.2516  -24.3606   19.1430 N   0  0  0  0  0  0  0  0  0  0  0  0
   10.8494  -22.2949   18.1667 C   0  0  0  0  0  0  0  0  0  0  0  0
   11.6156  -23.0304   19.1513 C   0  0  0  0  0  0  0  0  0  0  0  0
   12.9814  -22.5249   19.3017 O   0  0  0  0  0  0  0  0  0  0  0  0
   13.7336  -22.4416   18.3081 O   0  0  0  0  0  0  0  0  0  0  0  0
  2  1  1  6
  2  3  1  0
  4  6  1  0
  4  2  1  0
  4  5  1  1
  6  7  2  0
  9 11  1  0
  9  8  1  0
 10  9  2  0
 12 11  1  0
 12 13  1  0
 13 14  1  0
 15 14  1  6
 15 17  1  0
 16 15  1  0
 16  6  1  0
 17 19  1  0
 17 18  2  0
 19 20  1  0
 20 21  1  0
 21 22  2  0
 21 23  1  0
M  END
$$$$
