TRG.pdb
     RDKit          3D

 23 22  0  0  1  0  0  0  0  0999 V2000
    8.1155  -16.0942   18.4201 C   0  0  0  0  0  0  0  0  0  0  0  0
    8.3200  -14.6100   18.1857 C   0  0  1  0  0  0  0  0  0  0  0  0
    7.7131  -14.2754   16.9742 O   0  0  0  0  0  0  0  0  0  0  0  0
    7.6238  -13.8604   19.2897 C   0  0  2  0  0  0  0  0  0  0  0  0
    7.5822  -12.4626   18.9839 N   0  0  0  0  0  0  0  0  0  0  0  0
    8.3612  -14.0787   20.5722 C   0  0  0  0  0  0  0  0  0  0  0  0
    9.4087  -13.4465   20.8445 O   0  0  0  0  0  0  0  0  0  0  0  0
    6.5278  -19.9543   26.9938 N   0  0  0  0  0  0  0  0  0  0  0  0
    7.6686  -19.2541   27.5132 C   0  0  0  0  0  0  0  0  0  0  0  0
    8.1369  -19.6098   28.6363 N   0  0  0  0  0  0  0  0  0  0  0  0
    8.2594  -18.1847   26.7811 N   0  0  0  0  0  0  0  0  0  0  0  0
    7.6314  -17.6701   25.5973 C   0  0  0  0  0  0  0  0  0  0  0  0
    8.4663  -16.6508   24.8548 C   0  0  0  0  0  0  0  0  0  0  0  0
    7.7256  -16.1350   23.6422 C   0  0  0  0  0  0  0  0  0  0  0  0
    8.6089  -15.3893   22.6967 C   0  0  2  0  0  0  0  0  0  0  0  0
    7.8768  -15.0237   21.5176 N   0  0  0  0  0  0  0  0  0  0  0  0
    9.8270  -16.1383   22.3279 C   0  0  0  0  0  0  0  0  0  0  0  0
    9.7201  -17.1181   21.5546 O   0  0  0  0  0  0  0  0  0  0  0  0
    8.9498  -19.1086   29.0458 N   0  0  0  0  0  0  0  0  0  0  0  0
   11.1237  -15.7843   22.8216 C   0  0  0  0  0  0  0  0  0  0  0  0
   12.2285  -16.6654   22.5046 C   0  0  0  0  0  0  0  0  0  0  0  0
   13.4997  -16.2087   23.0695 O   0  0  0  0  0  0  0  0  0  0  0  0
   13.5393  -15.1809   23.7782 O   0  0  0  0  0  0  0  0  0  0  0  0
  2  1  1  1
  2  3  1  0
  4  6  1  0
  4  2  1  0
  4  5  1  6
  6  7  2  0
  9 11  1  0
  9  8  1  0
 10  9  2  0
 12 11  1  0
 12 13  1  0
 13 14  1  0
 15 14  1  1
 15 17  1  0
 16 15  1  0
 16  6  1  0
 17 19  1  0
 17 18  2  0
 19 20  1  0
 20 21  1  0
 21 22  2  0
 21 23  1  0
M  END
$$$$
