TRG.pdb
     RDKit          3D

 23 22  0  0  1  0  0  0  0  0999 V2000
   11.3202  -19.7190   25.1806 C   0  0  0  0  0  0  0  0  0  0  0  0
   10.8101  -20.7790   24.2236 C   0  0  1  0  0  0  0  0  0  0  0  0
   10.6550  -21.9683   24.9374 O   0  0  0  0  0  0  0  0  0  0  0  0
    9.4590  -20.3461   23.7209 C   0  0  2  0  0  0  0  0  0  0  0  0
    8.8525  -21.4032   22.9703 N   0  0  0  0  0  0  0  0  0  0  0  0
    9.6214  -19.1367   22.8564 C   0  0  0  0  0  0  0  0  0  0  0  0
   10.3023  -19.1667   21.8045 O   0  0  0  0  0  0  0  0  0  0  0  0
    8.5435  -14.4873   17.7468 N   0  0  0  0  0  0  0  0  0  0  0  0
    8.3661  -13.2793   18.5023 C   0  0  0  0  0  0  0  0  0  0  0  0
    8.1549  -12.1985   17.8741 N   0  0  0  0  0  0  0  0  0  0  0  0
    8.4257  -13.2973   19.9252 N   0  0  0  0  0  0  0  0  0  0  0  0
    8.2889  -14.5286   20.6503 C   0  0  0  0  0  0  0  0  0  0  0  0
    8.3542  -14.3653   22.1525 C   0  0  0  0  0  0  0  0  0  0  0  0
    8.1549  -15.6949   22.8434 C   0  0  0  0  0  0  0  0  0  0  0  0
    9.2301  -16.6812   22.5248 C   0  0  2  0  0  0  0  0  0  0  0  0
    8.9953  -17.9136   23.2217 N   0  0  0  0  0  0  0  0  0  0  0  0
   10.5859  -16.1778   22.8234 C   0  0  0  0  0  0  0  0  0  0  0  0
   10.8539  -15.8298   23.9967 O   0  0  0  0  0  0  0  0  0  0  0  0
    8.0269  -11.3083   18.3945 N   0  0  0  0  0  0  0  0  0  0  0  0
   11.6034  -16.0740   21.8212 C   0  0  0  0  0  0  0  0  0  0  0  0
   12.8528  -15.4431   22.1928 C   0  0  0  0  0  0  0  0  0  0  0  0
   13.8284  -15.4277   21.1012 O   0  0  0  0  0  0  0  0  0  0  0  0
   13.6430  -16.1267   20.0828 O   0  0  0  0  0  0  0  0  0  0  0  0
  2  1  1  1
  2  3  1  0
  4  6  1  0
  4  2  1  0
  4  5  1  6
  6  7  2  0
  9 11  1  0
  9  8  1  0
 10  9  2  0
 12 11  1  0
 12 13  1  0
 13 14  1  0
 15 14  1  1
 15 17  1  0
 16 15  1  0
 16  6  1  0
 17 19  1  0
 17 18  2  0
 19 20  1  0
 20 21  1  0
 21 22  2  0
 21 23  1  0
M  END
$$$$
