TRG.pdb
     RDKit          3D

 23 22  0  0  1  0  0  0  0  0999 V2000
    8.4019  -16.7056   18.1806 C   0  0  0  0  0  0  0  0  0  0  0  0
    8.6398  -15.3894   17.4661 C   0  0  1  0  0  0  0  0  0  0  0  0
    8.1608  -15.5123   16.1609 O   0  0  0  0  0  0  0  0  0  0  0  0
    7.8413  -14.3237   18.1676 C   0  0  2  0  0  0  0  0  0  0  0  0
    7.8332  -13.1231   17.3882 N   0  0  0  0  0  0  0  0  0  0  0  0
    8.4499  -14.0563   19.5072 C   0  0  0  0  0  0  0  0  0  0  0  0
    9.3923  -13.2424   19.6509 O   0  0  0  0  0  0  0  0  0  0  0  0
    7.2259  -13.0553   28.0247 N   0  0  0  0  0  0  0  0  0  0  0  0
    6.5035  -12.2413   27.0880 C   0  0  0  0  0  0  0  0  0  0  0  0
    5.9502  -11.1812   27.5088 N   0  0  0  0  0  0  0  0  0  0  0  0
    6.4128  -12.6181   25.7175 N   0  0  0  0  0  0  0  0  0  0  0  0
    6.6640  -13.9713   25.3097 C   0  0  0  0  0  0  0  0  0  0  0  0
    7.8363  -14.1189   24.3656 C   0  0  0  0  0  0  0  0  0  0  0  0
    7.3567  -14.3398   22.9492 C   0  0  0  0  0  0  0  0  0  0  0  0
    8.4777  -14.5013   21.9757 C   0  0  2  0  0  0  0  0  0  0  0  0
    7.9603  -14.7336   20.6574 N   0  0  0  0  0  0  0  0  0  0  0  0
    9.4202  -15.5751   22.3494 C   0  0  0  0  0  0  0  0  0  0  0  0
    9.0947  -16.7648   22.1301 O   0  0  0  0  0  0  0  0  0  0  0  0
    5.4347  -10.5642   26.8505 N   0  0  0  0  0  0  0  0  0  0  0  0
   10.6908  -15.3047   22.9520 C   0  0  0  0  0  0  0  0  0  0  0  0
   11.4977  -16.4366   23.3584 C   0  0  0  0  0  0  0  0  0  0  0  0
   12.7917  -16.4864   22.6752 O   0  0  0  0  0  0  0  0  0  0  0  0
   12.9348  -15.9426   21.5599 O   0  0  0  0  0  0  0  0  0  0  0  0
  2  1  1  1
  2  3  1  0
  4  6  1  0
  4  2  1  0
  4  5  1  6
  6  7  2  0
  9 11  1  0
  9  8  1  0
 10  9  2  0
 12 11  1  0
 12 13  1  0
 13 14  1  0
 15 14  1  1
 15 17  1  0
 16 15  1  0
 16  6  1  0
 17 19  1  0
 17 18  2  0
 19 20  1  0
 20 21  1  0
 21 22  2  0
 21 23  1  0
M  END
$$$$
