TRG.pdb
     RDKit          3D

 23 22  0  0  1  0  0  0  0  0999 V2000
    6.4845  -15.4899   18.2055 C   0  0  0  0  0  0  0  0  0  0  0  0
    7.5229  -15.3953   19.3065 C   0  0  1  0  0  0  0  0  0  0  0  0
    8.7750  -15.6474   18.7437 O   0  0  0  0  0  0  0  0  0  0  0  0
    7.5153  -13.9874   19.8388 C   0  0  2  0  0  0  0  0  0  0  0  0
    7.8894  -13.0698   18.8059 N   0  0  0  0  0  0  0  0  0  0  0  0
    8.4772  -13.8888   20.9796 C   0  0  0  0  0  0  0  0  0  0  0  0
    9.6264  -13.4107   20.8316 O   0  0  0  0  0  0  0  0  0  0  0  0
    9.6701  -16.3528   28.4184 N   0  0  0  0  0  0  0  0  0  0  0  0
    9.6805  -15.0507   29.0234 C   0  0  0  0  0  0  0  0  0  0  0  0
   10.1327  -14.9350   30.2021 N   0  0  0  0  0  0  0  0  0  0  0  0
    9.1941  -13.9160   28.3131 N   0  0  0  0  0  0  0  0  0  0  0  0
    8.3844  -14.0765   27.1387 C   0  0  0  0  0  0  0  0  0  0  0  0
    9.1803  -14.2899   25.8705 C   0  0  0  0  0  0  0  0  0  0  0  0
    8.2659  -14.3365   24.6677 C   0  0  0  0  0  0  0  0  0  0  0  0
    9.0107  -14.4075   23.3752 C   0  0  2  0  0  0  0  0  0  0  0  0
    8.0958  -14.3444   22.2713 N   0  0  0  0  0  0  0  0  0  0  0  0
    9.8630  -15.6082   23.2621 C   0  0  0  0  0  0  0  0  0  0  0  0
    9.3251  -16.7035   22.9780 O   0  0  0  0  0  0  0  0  0  0  0  0
   10.0859  -14.0200   30.6921 N   0  0  0  0  0  0  0  0  0  0  0  0
   11.2798  -15.5647   23.4648 C   0  0  0  0  0  0  0  0  0  0  0  0
   12.0151  -16.8070   23.3489 C   0  0  0  0  0  0  0  0  0  0  0  0
   13.4649  -16.6186   23.4265 O   0  0  0  0  0  0  0  0  0  0  0  0
   14.2327  -17.5973   23.3139 O   0  0  0  0  0  0  0  0  0  0  0  0
  2  1  1  6
  2  3  1  0
  4  6  1  0
  4  2  1  0
  4  5  1  6
  6  7  2  0
  9 11  1  0
  9  8  1  0
 10  9  2  0
 12 11  1  0
 12 13  1  0
 13 14  1  0
 15 14  1  1
 15 17  1  0
 16 15  1  0
 16  6  1  0
 17 19  1  0
 17 18  2  0
 19 20  1  0
 20 21  1  0
 21 22  2  0
 21 23  1  0
M  END
$$$$
