TRG.pdb
     RDKit          3D

 23 22  0  0  1  0  0  0  0  0999 V2000
   -4.1291  -27.5112   31.3815 C   0  0  0  0  0  0  0  0  0  0  0  0
   -2.7676  -26.9712   31.7743 C   0  0  1  0  0  0  0  0  0  0  0  0
   -2.0276  -28.0198   32.3229 O   0  0  0  0  0  0  0  0  0  0  0  0
   -2.0717  -26.5002   30.5256 C   0  0  2  0  0  0  0  0  0  0  0  0
   -0.7208  -26.1334   30.8248 N   0  0  0  0  0  0  0  0  0  0  0  0
   -2.8068  -25.3231   29.9683 C   0  0  0  0  0  0  0  0  0  0  0  0
   -2.6981  -24.1808   30.4727 O   0  0  0  0  0  0  0  0  0  0  0  0
   -2.1988  -20.5804   24.1168 N   0  0  0  0  0  0  0  0  0  0  0  0
   -3.6238  -20.4060   24.0937 C   0  0  0  0  0  0  0  0  0  0  0  0
   -4.1011  -19.4087   23.4733 N   0  0  0  0  0  0  0  0  0  0  0  0
   -4.4798  -21.3340   24.7529 N   0  0  0  0  0  0  0  0  0  0  0  0
   -3.9391  -22.4776   25.4316 C   0  0  0  0  0  0  0  0  0  0  0  0
   -4.9892  -23.4009   26.0079 C   0  0  0  0  0  0  0  0  0  0  0  0
   -4.3423  -24.5599   26.7311 C   0  0  0  0  0  0  0  0  0  0  0  0
   -4.3373  -24.3881   28.2146 C   0  0  2  0  0  0  0  0  0  0  0  0
   -3.6550  -25.4855   28.8389 N   0  0  0  0  0  0  0  0  0  0  0  0
   -5.6911  -24.2391   28.7857 C   0  0  0  0  0  0  0  0  0  0  0  0
   -6.4602  -25.2280   28.7769 O   0  0  0  0  0  0  0  0  0  0  0  0
   -5.1297  -19.2962   23.3781 N   0  0  0  0  0  0  0  0  0  0  0  0
   -6.1545  -23.0066   29.3486 C   0  0  0  0  0  0  0  0  0  0  0  0
   -7.4905  -22.9815   29.9068 C   0  0  0  0  0  0  0  0  0  0  0  0
   -7.9436  -21.6288   30.2359 O   0  0  0  0  0  0  0  0  0  0  0  0
   -7.1708  -20.6569   30.1004 O   0  0  0  0  0  0  0  0  0  0  0  0
  2  1  1  6
  2  3  1  0
  4  6  1  0
  4  2  1  0
  4  5  1  1
  6  7  2  0
  9 11  1  0
  9  8  1  0
 10  9  2  0
 12 11  1  0
 12 13  1  0
 13 14  1  0
 15 14  1  6
 15 17  1  0
 16 15  1  0
 16  6  1  0
 17 19  1  0
 17 18  2  0
 19 20  1  0
 20 21  1  0
 21 22  2  0
 21 23  1  0
M  END
$$$$
