TRG.pdb
     RDKit          3D

 23 22  0  0  1  0  0  0  0  0999 V2000
    8.9650  -16.5488   17.5187 C   0  0  0  0  0  0  0  0  0  0  0  0
    8.8634  -15.1102   17.0500 C   0  0  1  0  0  0  0  0  0  0  0  0
    8.3539  -15.1131   15.7506 O   0  0  0  0  0  0  0  0  0  0  0  0
    7.8860  -14.3939   17.9427 C   0  0  2  0  0  0  0  0  0  0  0  0
    7.5611  -13.1147   17.3885 N   0  0  0  0  0  0  0  0  0  0  0  0
    8.4943  -14.2214   19.2979 C   0  0  0  0  0  0  0  0  0  0  0  0
    9.2766  -13.2756   19.5521 O   0  0  0  0  0  0  0  0  0  0  0  0
    7.8549  -14.3801   26.8460 N   0  0  0  0  0  0  0  0  0  0  0  0
    7.4345  -13.0350   26.5714 C   0  0  0  0  0  0  0  0  0  0  0  0
    7.6159  -12.1509   27.4618 N   0  0  0  0  0  0  0  0  0  0  0  0
    6.8284  -12.7036   25.3259 N   0  0  0  0  0  0  0  0  0  0  0  0
    6.7052  -13.6845   24.2851 C   0  0  0  0  0  0  0  0  0  0  0  0
    8.0253  -14.2702   23.8360 C   0  0  0  0  0  0  0  0  0  0  0  0
    7.8168  -15.2530   22.7066 C   0  0  0  0  0  0  0  0  0  0  0  0
    8.8305  -15.1107   21.6192 C   0  0  2  0  0  0  0  0  0  0  0  0
    8.1893  -15.1440   20.3357 N   0  0  0  0  0  0  0  0  0  0  0  0
    9.8962  -16.1311   21.6826 C   0  0  0  0  0  0  0  0  0  0  0  0
    9.6764  -17.2623   21.1911 O   0  0  0  0  0  0  0  0  0  0  0  0
    7.3111  -11.1716   27.2953 N   0  0  0  0  0  0  0  0  0  0  0  0
   11.1697  -15.8734   22.2845 C   0  0  0  0  0  0  0  0  0  0  0  0
   12.0801  -16.9892   22.4380 C   0  0  0  0  0  0  0  0  0  0  0  0
   13.4006  -16.5827   22.9222 O   0  0  0  0  0  0  0  0  0  0  0  0
   13.6899  -15.3712   23.0165 O   0  0  0  0  0  0  0  0  0  0  0  0
  2  1  1  1
  2  3  1  0
  4  6  1  0
  4  2  1  0
  4  5  1  6
  6  7  2  0
  9 11  1  0
  9  8  1  0
 10  9  2  0
 12 11  1  0
 12 13  1  0
 13 14  1  0
 15 14  1  1
 15 17  1  0
 16 15  1  0
 16  6  1  0
 17 19  1  0
 17 18  2  0
 19 20  1  0
 20 21  1  0
 21 22  2  0
 21 23  1  0
M  END
$$$$
