TRG.pdb
     RDKit          3D

 23 22  0  0  1  0  0  0  0  0999 V2000
    8.1942  -17.2070   14.8822 C   0  0  0  0  0  0  0  0  0  0  0  0
    8.5436  -16.6340   16.2420 C   0  0  1  0  0  0  0  0  0  0  0  0
    7.4931  -15.8094   16.6474 O   0  0  0  0  0  0  0  0  0  0  0  0
    8.6563  -17.7751   17.2170 C   0  0  2  0  0  0  0  0  0  0  0  0
    7.3906  -18.4291   17.3561 N   0  0  0  0  0  0  0  0  0  0  0  0
    9.1037  -17.2460   18.5423 C   0  0  0  0  0  0  0  0  0  0  0  0
   10.2213  -16.6979   18.6884 O   0  0  0  0  0  0  0  0  0  0  0  0
    9.4713  -17.1901   26.2523 N   0  0  0  0  0  0  0  0  0  0  0  0
    8.0872  -17.5477   26.3862 C   0  0  0  0  0  0  0  0  0  0  0  0
    7.7855  -18.5318   27.1262 N   0  0  0  0  0  0  0  0  0  0  0  0
    7.0776  -16.8113   25.7028 N   0  0  0  0  0  0  0  0  0  0  0  0
    6.7717  -17.0867   24.3276 C   0  0  0  0  0  0  0  0  0  0  0  0
    7.9023  -16.7720   23.3737 C   0  0  0  0  0  0  0  0  0  0  0  0
    7.5523  -17.2066   21.9688 C   0  0  0  0  0  0  0  0  0  0  0  0
    8.6638  -16.9797   20.9975 C   0  0  2  0  0  0  0  0  0  0  0  0
    8.2531  -17.3596   19.6759 N   0  0  0  0  0  0  0  0  0  0  0  0
    9.9087  -17.6837   21.3659 C   0  0  0  0  0  0  0  0  0  0  0  0
    9.9237  -18.9361   21.3346 O   0  0  0  0  0  0  0  0  0  0  0  0
    6.7933  -18.8223   27.2305 N   0  0  0  0  0  0  0  0  0  0  0  0
   11.0970  -16.9867   21.7564 C   0  0  0  0  0  0  0  0  0  0  0  0
   12.1966  -17.7709   22.2793 C   0  0  0  0  0  0  0  0  0  0  0  0
   13.3612  -16.9550   22.6277 O   0  0  0  0  0  0  0  0  0  0  0  0
   13.3455  -15.7214   22.4320 O   0  0  0  0  0  0  0  0  0  0  0  0
  2  1  1  6
  2  3  1  0
  4  6  1  0
  4  2  1  0
  4  5  1  1
  6  7  2  0
  9 11  1  0
  9  8  1  0
 10  9  2  0
 12 11  1  0
 12 13  1  0
 13 14  1  0
 15 14  1  1
 15 17  1  0
 16 15  1  0
 16  6  1  0
 17 19  1  0
 17 18  2  0
 19 20  1  0
 20 21  1  0
 21 22  2  0
 21 23  1  0
M  END
$$$$
