TRG.pdb
     RDKit          3D

 23 22  0  0  1  0  0  0  0  0999 V2000
    7.2964  -15.0285   14.9835 C   0  0  0  0  0  0  0  0  0  0  0  0
    8.4096  -14.8829   16.0029 C   0  0  1  0  0  0  0  0  0  0  0  0
    9.5128  -14.3176   15.3616 O   0  0  0  0  0  0  0  0  0  0  0  0
    7.9437  -13.9336   17.0740 C   0  0  2  0  0  0  0  0  0  0  0  0
    7.7535  -12.6264   16.5227 N   0  0  0  0  0  0  0  0  0  0  0  0
    8.9670  -13.8822   18.1633 C   0  0  0  0  0  0  0  0  0  0  0  0
    9.8094  -12.9565   18.2313 O   0  0  0  0  0  0  0  0  0  0  0  0
    9.3419  -15.8309   25.7759 N   0  0  0  0  0  0  0  0  0  0  0  0
   10.6614  -16.3898   25.6859 C   0  0  0  0  0  0  0  0  0  0  0  0
   11.4496  -16.2407   26.6676 N   0  0  0  0  0  0  0  0  0  0  0  0
   11.0730  -17.0959   24.5195 N   0  0  0  0  0  0  0  0  0  0  0  0
   10.2637  -17.0903   23.3339 C   0  0  0  0  0  0  0  0  0  0  0  0
   10.5891  -15.9666   22.3754 C   0  0  0  0  0  0  0  0  0  0  0  0
    9.7054  -16.0362   21.1511 C   0  0  0  0  0  0  0  0  0  0  0  0
   10.0507  -15.0055   20.1270 C   0  0  2  0  0  0  0  0  0  0  0  0
    9.0003  -14.9007   19.1547 N   0  0  0  0  0  0  0  0  0  0  0  0
   11.3411  -15.2635   19.4566 C   0  0  0  0  0  0  0  0  0  0  0  0
   11.5243  -16.3766   18.9117 O   0  0  0  0  0  0  0  0  0  0  0  0
   12.3935  -16.6748   26.6502 N   0  0  0  0  0  0  0  0  0  0  0  0
   12.3881  -14.2878   19.4072 C   0  0  0  0  0  0  0  0  0  0  0  0
   13.7245  -14.7155   19.7656 C   0  0  0  0  0  0  0  0  0  0  0  0
   14.3941  -15.4490   18.6899 O   0  0  0  0  0  0  0  0  0  0  0  0
   14.1125  -16.6470   18.4762 O   0  0  0  0  0  0  0  0  0  0  0  0
  2  1  1  6
  2  3  1  0
  4  6  1  0
  4  2  1  0
  4  5  1  6
  6  7  2  0
  9 11  1  0
  9  8  1  0
 10  9  2  0
 12 11  1  0
 12 13  1  0
 13 14  1  0
 15 14  1  1
 15 17  1  0
 16 15  1  0
 16  6  1  0
 17 19  1  0
 17 18  2  0
 19 20  1  0
 20 21  1  0
 21 22  2  0
 21 23  1  0
M  END
$$$$
