TRG.pdb
     RDKit          3D

 23 22  0  0  1  0  0  0  0  0999 V2000
   10.6087  -21.1476   23.2360 C   0  0  0  0  0  0  0  0  0  0  0  0
   10.7600  -21.1392   21.7271 C   0  0  1  0  0  0  0  0  0  0  0  0
   10.4808  -22.4232   21.2567 O   0  0  0  0  0  0  0  0  0  0  0  0
    9.7382  -20.1915   21.1585 C   0  0  2  0  0  0  0  0  0  0  0  0
    9.6152  -20.3914   19.7464 N   0  0  0  0  0  0  0  0  0  0  0  0
   10.1638  -18.7853   21.4379 C   0  0  0  0  0  0  0  0  0  0  0  0
   11.0882  -18.2374   20.7928 O   0  0  0  0  0  0  0  0  0  0  0  0
    7.7245  -11.6598   19.8439 N   0  0  0  0  0  0  0  0  0  0  0  0
    7.6969  -13.0001   19.3299 C   0  0  0  0  0  0  0  0  0  0  0  0
    7.9726  -13.1845   18.1063 N   0  0  0  0  0  0  0  0  0  0  0  0
    7.3677  -14.0964   20.1776 N   0  0  0  0  0  0  0  0  0  0  0  0
    8.2254  -14.4646   21.2682 C   0  0  0  0  0  0  0  0  0  0  0  0
    7.6916  -15.6020   22.1101 C   0  0  0  0  0  0  0  0  0  0  0  0
    8.6506  -15.9326   23.2308 C   0  0  0  0  0  0  0  0  0  0  0  0
    9.8575  -16.6764   22.7610 C   0  0  2  0  0  0  0  0  0  0  0  0
    9.5151  -18.0367   22.4578 N   0  0  0  0  0  0  0  0  0  0  0  0
   10.9755  -16.6355   23.7250 C   0  0  0  0  0  0  0  0  0  0  0  0
   10.7212  -16.7461   24.9468 O   0  0  0  0  0  0  0  0  0  0  0  0
    8.0355  -14.1488   17.7245 N   0  0  0  0  0  0  0  0  0  0  0  0
   12.3375  -16.4747   23.3133 C   0  0  0  0  0  0  0  0  0  0  0  0
   13.3474  -16.3842   24.3473 C   0  0  0  0  0  0  0  0  0  0  0  0
   14.6972  -16.2050   23.8093 O   0  0  0  0  0  0  0  0  0  0  0  0
   14.8849  -16.1922   22.5745 O   0  0  0  0  0  0  0  0  0  0  0  0
  2  1  1  1
  2  3  1  0
  4  6  1  0
  4  2  1  0
  4  5  1  6
  6  7  2  0
  9 11  1  0
  9  8  1  0
 10  9  2  0
 12 11  1  0
 12 13  1  0
 13 14  1  0
 15 14  1  1
 15 17  1  0
 16 15  1  0
 16  6  1  0
 17 19  1  0
 17 18  2  0
 19 20  1  0
 20 21  1  0
 21 22  2  0
 21 23  1  0
M  END
$$$$
