TRG.pdb
     RDKit          3D

 23 22  0  0  1  0  0  0  0  0999 V2000
    7.9849  -17.9104   26.7042 C   0  0  0  0  0  0  0  0  0  0  0  0
    7.7099  -19.2447   26.0381 C   0  0  1  0  0  0  0  0  0  0  0  0
    7.0679  -20.0673   26.9651 O   0  0  0  0  0  0  0  0  0  0  0  0
    6.7740  -19.0084   24.8832 C   0  0  2  0  0  0  0  0  0  0  0  0
    6.3564  -20.2590   24.3258 N   0  0  0  0  0  0  0  0  0  0  0  0
    7.4750  -18.1960   23.8416 C   0  0  0  0  0  0  0  0  0  0  0  0
    8.1348  -18.7340   22.9217 O   0  0  0  0  0  0  0  0  0  0  0  0
    9.8361  -13.4346   19.0557 N   0  0  0  0  0  0  0  0  0  0  0  0
    8.5265  -13.6009   18.4912 C   0  0  0  0  0  0  0  0  0  0  0  0
    8.3648  -13.3608   17.2570 N   0  0  0  0  0  0  0  0  0  0  0  0
    7.4353  -14.0270   19.3014 N   0  0  0  0  0  0  0  0  0  0  0  0
    7.1284  -13.3553   20.5323 C   0  0  0  0  0  0  0  0  0  0  0  0
    7.9998  -13.7774   21.6942 C   0  0  0  0  0  0  0  0  0  0  0  0
    7.2697  -14.7615   22.5793 C   0  0  0  0  0  0  0  0  0  0  0  0
    8.1107  -15.9362   22.9578 C   0  0  2  0  0  0  0  0  0  0  0  0
    7.4025  -16.7767   23.8807 N   0  0  0  0  0  0  0  0  0  0  0  0
    9.4216  -15.5537   23.5203 C   0  0  0  0  0  0  0  0  0  0  0  0
    9.4498  -14.8450   24.5529 O   0  0  0  0  0  0  0  0  0  0  0  0
    7.4451  -13.5367   16.8066 N   0  0  0  0  0  0  0  0  0  0  0  0
   10.6592  -15.9641   22.9283 C   0  0  0  0  0  0  0  0  0  0  0  0
   11.8859  -15.5536   23.5794 C   0  0  0  0  0  0  0  0  0  0  0  0
   13.0843  -16.0242   22.8823 O   0  0  0  0  0  0  0  0  0  0  0  0
   12.9785  -16.7204   21.8507 O   0  0  0  0  0  0  0  0  0  0  0  0
  2  1  1  1
  2  3  1  0
  4  6  1  0
  4  2  1  0
  4  5  1  6
  6  7  2  0
  9 11  1  0
  9  8  1  0
 10  9  2  0
 12 11  1  0
 12 13  1  0
 13 14  1  0
 15 14  1  1
 15 17  1  0
 16 15  1  0
 16  6  1  0
 17 19  1  0
 17 18  2  0
 19 20  1  0
 20 21  1  0
 21 22  2  0
 21 23  1  0
M  END
$$$$
