GSW.pdb
     RDKit          3D

 25 26  0  0  1  0  0  0  0  0999 V2000
    8.0640  -13.0050   17.3191 N   0  0  0  0  0  0  0  0  0  0  0  0
    9.0008  -13.6089   18.2217 C   0  0  0  0  0  0  0  0  0  0  0  0
    8.2786  -14.1956   19.4012 C   0  0  0  0  0  0  0  0  0  0  0  0
    7.0164  -14.2956   19.3894 O   0  0  0  0  0  0  0  0  0  0  0  0
    8.7568  -17.4693   20.5014 O   0  0  0  0  0  0  0  0  0  0  0  0
    7.7828  -16.6374   21.0487 C   0  0  0  0  0  0  0  0  0  0  0  0
    8.4012  -15.3686   21.6193 C   0  0  2  0  0  0  0  0  0  0  0  0
    9.0108  -14.6367   20.5229 N   0  0  0  0  0  0  0  0  0  0  0  0
    9.3617  -15.6852   22.6984 C   0  0  0  0  0  0  0  0  0  0  0  0
   10.5878  -15.8820   22.4092 O   0  0  0  0  0  0  0  0  0  0  0  0
    9.0120  -15.7865   24.0581 N   0  0  0  0  0  0  0  0  0  0  0  0
   10.0287  -15.9991   25.0878 C   0  0  1  0  0  0  0  0  0  0  0  0
    9.6211  -15.2895   26.3513 C   0  0  0  0  0  0  0  0  0  0  0  0
    8.1947  -14.9199   26.3252 C   0  0  0  0  0  0  0  0  0  0  0  0
    7.1237  -15.8347   26.3000 C   0  0  0  0  0  0  0  0  0  0  0  0
    6.0144  -15.0914   26.2259 N   0  0  0  0  0  0  0  0  0  0  0  0
    6.3146  -13.7826   26.2046 C   0  0  0  0  0  0  0  0  0  0  0  0
    5.5384  -12.6264   26.1597 C   0  0  0  0  0  0  0  0  0  0  0  0
    6.0824  -11.3616   26.1762 C   0  0  0  0  0  0  0  0  0  0  0  0
    7.4543  -11.2106   26.2398 C   0  0  0  0  0  0  0  0  0  0  0  0
    8.2355  -12.3447   26.2837 C   0  0  0  0  0  0  0  0  0  0  0  0
    7.6829  -13.6245   26.2659 C   0  0  0  0  0  0  0  0  0  0  0  0
   10.2060  -17.4260   25.2943 C   0  0  0  0  0  0  0  0  0  0  0  0
    9.4191  -18.3123   24.8647 O   0  0  0  0  0  0  0  0  0  0  0  0
   11.3158  -17.8804   26.0147 O   0  0  0  0  0  0  0  0  0  0  0  0
  2  3  1  0
  2  1  1  0
  3  4  2  0
  6  5  1  0
  7  6  1  6
  8  7  1  0
  8  3  1  0
  9 11  1  0
  9  7  1  0
 10  9  2  0
 12 11  1  0
 12 13  1  1
 13 14  1  0
 14 15  2  0
 15 16  1  0
 17 16  1  0
 18 17  2  0
 19 18  1  0
 20 21  1  0
 20 19  2  0
 21 22  2  0
 22 14  1  0
 22 17  1  0
 23 12  1  0
 24 23  2  0
 25 23  1  0
M  END
$$$$
