GSW.pdb
     RDKit          3D

 25 26  0  0  1  0  0  0  0  0999 V2000
    7.7847  -12.2423   18.6720 N   0  0  0  0  0  0  0  0  0  0  0  0
    8.6658  -13.3612   18.8415 C   0  0  0  0  0  0  0  0  0  0  0  0
    8.3285  -14.0986   20.1061 C   0  0  0  0  0  0  0  0  0  0  0  0
    7.7580  -13.4953   21.0620 O   0  0  0  0  0  0  0  0  0  0  0  0
    9.3839  -18.1438   20.3721 O   0  0  0  0  0  0  0  0  0  0  0  0
    8.2174  -17.7055   20.9946 C   0  0  0  0  0  0  0  0  0  0  0  0
    8.3317  -16.2455   21.4106 C   0  0  2  0  0  0  0  0  0  0  0  0
    8.6480  -15.4670   20.2261 N   0  0  0  0  0  0  0  0  0  0  0  0
    9.3306  -16.0774   22.4881 C   0  0  0  0  0  0  0  0  0  0  0  0
   10.5345  -15.7845   22.1873 O   0  0  0  0  0  0  0  0  0  0  0  0
    9.0413  -16.2194   23.8583 N   0  0  0  0  0  0  0  0  0  0  0  0
   10.1001  -16.1637   24.8657 C   0  0  1  0  0  0  0  0  0  0  0  0
    9.7961  -15.0705   25.8550 C   0  0  0  0  0  0  0  0  0  0  0  0
    8.3469  -14.8235   25.9562 C   0  0  0  0  0  0  0  0  0  0  0  0
    7.3525  -15.8204   25.9094 C   0  0  0  0  0  0  0  0  0  0  0  0
    6.1854  -15.1710   25.9795 N   0  0  0  0  0  0  0  0  0  0  0  0
    6.3789  -13.8451   26.0680 C   0  0  0  0  0  0  0  0  0  0  0  0
    5.5125  -12.7604   26.1866 C   0  0  0  0  0  0  0  0  0  0  0  0
    5.9545  -11.4606   26.2928 C   0  0  0  0  0  0  0  0  0  0  0  0
    7.3112  -11.1993   26.2834 C   0  0  0  0  0  0  0  0  0  0  0  0
    8.1807  -12.2616   26.1658 C   0  0  0  0  0  0  0  0  0  0  0  0
    7.7312  -13.5768   26.0573 C   0  0  0  0  0  0  0  0  0  0  0  0
   10.2181  -17.4629   25.5046 C   0  0  0  0  0  0  0  0  0  0  0  0
    9.4015  -18.4108   25.3500 O   0  0  0  0  0  0  0  0  0  0  0  0
   11.3006  -17.7113   26.3552 O   0  0  0  0  0  0  0  0  0  0  0  0
  2  3  1  0
  2  1  1  0
  3  4  2  0
  6  5  1  0
  7  6  1  6
  8  7  1  0
  8  3  1  0
  9 11  1  0
  9  7  1  0
 10  9  2  0
 12 11  1  0
 12 13  1  1
 13 14  1  0
 14 15  2  0
 15 16  1  0
 17 16  1  0
 18 17  2  0
 19 18  1  0
 20 21  1  0
 20 19  2  0
 21 22  2  0
 22 14  1  0
 22 17  1  0
 23 12  1  0
 24 23  2  0
 25 23  1  0
M  END
$$$$
