GSW.pdb
     RDKit          3D

 25 26  0  0  1  0  0  0  0  0999 V2000
    7.9489  -12.1259   18.6148 N   0  0  0  0  0  0  0  0  0  0  0  0
    8.6432  -13.3808   18.6262 C   0  0  0  0  0  0  0  0  0  0  0  0
    8.2829  -14.1604   19.8589 C   0  0  0  0  0  0  0  0  0  0  0  0
    7.6943  -13.5895   20.8238 O   0  0  0  0  0  0  0  0  0  0  0  0
    9.5335  -18.1932   20.2038 O   0  0  0  0  0  0  0  0  0  0  0  0
    8.2747  -17.8048   20.6564 C   0  0  0  0  0  0  0  0  0  0  0  0
    8.2742  -16.3471   21.0954 C   0  0  2  0  0  0  0  0  0  0  0  0
    8.6008  -15.5321   19.9386 N   0  0  0  0  0  0  0  0  0  0  0  0
    9.2037  -16.1329   22.2256 C   0  0  0  0  0  0  0  0  0  0  0  0
   10.3777  -15.6909   21.9973 O   0  0  0  0  0  0  0  0  0  0  0  0
    8.8778  -16.3869   23.5712 N   0  0  0  0  0  0  0  0  0  0  0  0
    9.8854  -16.2861   24.6266 C   0  0  1  0  0  0  0  0  0  0  0  0
    9.7325  -14.9715   25.3440 C   0  0  0  0  0  0  0  0  0  0  0  0
    8.3246  -14.7071   25.6895 C   0  0  0  0  0  0  0  0  0  0  0  0
    7.2974  -15.6712   25.6864 C   0  0  0  0  0  0  0  0  0  0  0  0
    6.1788  -15.0095   26.0020 N   0  0  0  0  0  0  0  0  0  0  0  0
    6.4331  -13.7063   26.2029 C   0  0  0  0  0  0  0  0  0  0  0  0
    5.6353  -12.6239   26.5677 C   0  0  0  0  0  0  0  0  0  0  0  0
    6.1368  -11.3539   26.7455 C   0  0  0  0  0  0  0  0  0  0  0  0
    7.4860  -11.1217   26.5592 C   0  0  0  0  0  0  0  0  0  0  0  0
    8.2879  -12.1820   26.1972 C   0  0  0  0  0  0  0  0  0  0  0  0
    7.7781  -13.4670   26.0167 C   0  0  0  0  0  0  0  0  0  0  0  0
    9.7486  -17.4192   25.5251 C   0  0  0  0  0  0  0  0  0  0  0  0
    8.8013  -18.2502   25.4864 O   0  0  0  0  0  0  0  0  0  0  0  0
   10.7175  -17.6309   26.5117 O   0  0  0  0  0  0  0  0  0  0  0  0
  2  3  1  0
  2  1  1  0
  3  4  2  0
  6  5  1  0
  7  6  1  6
  8  7  1  0
  8  3  1  0
  9 11  1  0
  9  7  1  0
 10  9  2  0
 12 11  1  0
 12 13  1  1
 13 14  1  0
 14 15  2  0
 15 16  1  0
 17 16  1  0
 18 17  2  0
 19 18  1  0
 20 21  1  0
 20 19  2  0
 21 22  2  0
 22 14  1  0
 22 17  1  0
 23 12  1  0
 24 23  2  0
 25 23  1  0
M  END
$$$$
