GSW.pdb
     RDKit          3D

 25 26  0  0  1  0  0  0  0  0999 V2000
    7.7759  -12.2449   17.8163 N   0  0  0  0  0  0  0  0  0  0  0  0
    8.3429  -13.5379   18.0680 C   0  0  0  0  0  0  0  0  0  0  0  0
    8.0205  -13.9811   19.4668 C   0  0  0  0  0  0  0  0  0  0  0  0
    7.9686  -13.1344   20.4069 O   0  0  0  0  0  0  0  0  0  0  0  0
    7.7648  -18.1271   20.3839 O   0  0  0  0  0  0  0  0  0  0  0  0
    6.8349  -17.2265   20.8983 C   0  0  0  0  0  0  0  0  0  0  0  0
    7.4420  -15.8393   21.0554 C   0  0  2  0  0  0  0  0  0  0  0  0
    7.7739  -15.3443   19.7309 N   0  0  0  0  0  0  0  0  0  0  0  0
    8.6097  -15.8706   21.9624 C   0  0  0  0  0  0  0  0  0  0  0  0
    9.7844  -15.9358   21.4709 O   0  0  0  0  0  0  0  0  0  0  0  0
    8.5165  -15.8311   23.3664 N   0  0  0  0  0  0  0  0  0  0  0  0
    9.7034  -15.9770   24.2086 C   0  0  1  0  0  0  0  0  0  0  0  0
    9.6542  -14.9694   25.3260 C   0  0  0  0  0  0  0  0  0  0  0  0
    8.2658  -14.6208   25.6760 C   0  0  0  0  0  0  0  0  0  0  0  0
    7.2106  -15.5444   25.8107 C   0  0  0  0  0  0  0  0  0  0  0  0
    6.1224  -14.8143   26.0779 N   0  0  0  0  0  0  0  0  0  0  0  0
    6.4215  -13.5058   26.1212 C   0  0  0  0  0  0  0  0  0  0  0  0
    5.6678  -12.3630   26.3805 C   0  0  0  0  0  0  0  0  0  0  0  0
    6.2122  -11.0984   26.3982 C   0  0  0  0  0  0  0  0  0  0  0  0
    7.5616  -10.9339   26.1508 C   0  0  0  0  0  0  0  0  0  0  0  0
    8.3201  -12.0545   25.8917 C   0  0  0  0  0  0  0  0  0  0  0  0
    7.7668  -13.3341   25.8732 C   0  0  0  0  0  0  0  0  0  0  0  0
    9.7708  -17.3408   24.7039 C   0  0  0  0  0  0  0  0  0  0  0  0
    8.8273  -18.1738   24.6312 O   0  0  0  0  0  0  0  0  0  0  0  0
   10.9493  -17.7919   25.3079 O   0  0  0  0  0  0  0  0  0  0  0  0
  2  3  1  0
  2  1  1  0
  3  4  2  0
  6  5  1  0
  7  6  1  6
  8  7  1  0
  8  3  1  0
  9 11  1  0
  9  7  1  0
 10  9  2  0
 12 11  1  0
 12 13  1  1
 13 14  1  0
 14 15  2  0
 15 16  1  0
 17 16  1  0
 18 17  2  0
 19 18  1  0
 20 21  1  0
 20 19  2  0
 21 22  2  0
 22 14  1  0
 22 17  1  0
 23 12  1  0
 24 23  2  0
 25 23  1  0
M  END
$$$$
