GSW.pdb
     RDKit          3D

 25 26  0  0  1  0  0  0  0  0999 V2000
    7.8813  -12.5211   18.0005 N   0  0  0  0  0  0  0  0  0  0  0  0
    8.7716  -13.5891   18.3517 C   0  0  0  0  0  0  0  0  0  0  0  0
    8.3176  -14.2439   19.6253 C   0  0  0  0  0  0  0  0  0  0  0  0
    7.8207  -13.5461   20.5578 O   0  0  0  0  0  0  0  0  0  0  0  0
    9.1909  -18.3427   20.2787 O   0  0  0  0  0  0  0  0  0  0  0  0
    7.9734  -17.8124   20.6993 C   0  0  0  0  0  0  0  0  0  0  0  0
    8.0991  -16.3276   21.0114 C   0  0  2  0  0  0  0  0  0  0  0  0
    8.4447  -15.6399   19.7798 N   0  0  0  0  0  0  0  0  0  0  0  0
    9.0822  -16.0937   22.0913 C   0  0  0  0  0  0  0  0  0  0  0  0
   10.2206  -15.5952   21.8061 O   0  0  0  0  0  0  0  0  0  0  0  0
    8.8461  -16.3878   23.4474 N   0  0  0  0  0  0  0  0  0  0  0  0
    9.8904  -16.2051   24.4549 C   0  0  1  0  0  0  0  0  0  0  0  0
    9.7076  -14.8737   25.1332 C   0  0  0  0  0  0  0  0  0  0  0  0
    8.3453  -14.7283   25.6760 C   0  0  0  0  0  0  0  0  0  0  0  0
    7.4037  -15.7706   25.7845 C   0  0  0  0  0  0  0  0  0  0  0  0
    6.2929  -15.2058   26.2701 N   0  0  0  0  0  0  0  0  0  0  0  0
    6.4731  -13.8906   26.4734 C   0  0  0  0  0  0  0  0  0  0  0  0
    5.6539  -12.8821   26.9763 C   0  0  0  0  0  0  0  0  0  0  0  0
    6.0775  -11.5800   27.1219 C   0  0  0  0  0  0  0  0  0  0  0  0
    7.3663  -11.2381   26.7597 C   0  0  0  0  0  0  0  0  0  0  0  0
    8.1882  -12.2244   26.2596 C   0  0  0  0  0  0  0  0  0  0  0  0
    7.7571  -13.5420   26.1120 C   0  0  0  0  0  0  0  0  0  0  0  0
    9.8420  -17.3102   25.3965 C   0  0  0  0  0  0  0  0  0  0  0  0
   10.6369  -17.4589   26.3637 O   0  0  0  0  0  0  0  0  0  0  0  0
    8.8579  -18.2933   25.2477 O   0  0  0  0  0  0  0  0  0  0  0  0
  2  3  1  0
  2  1  1  0
  3  4  2  0
  6  5  1  0
  7  6  1  6
  8  7  1  0
  8  3  1  0
  9 11  1  0
  9  7  1  0
 10  9  2  0
 12 11  1  0
 12 13  1  1
 13 14  1  0
 14 15  2  0
 15 16  1  0
 17 16  1  0
 18 17  2  0
 19 18  1  0
 20 21  1  0
 20 19  2  0
 21 22  2  0
 22 14  1  0
 22 17  1  0
 23 12  1  0
 24 23  2  0
 25 23  1  0
M  END
$$$$
