GSW.pdb
     RDKit          3D

 25 26  0  0  1  0  0  0  0  0999 V2000
    8.7055  -12.2829   18.1009 N   0  0  0  0  0  0  0  0  0  0  0  0
    8.8092  -13.7022   18.2787 C   0  0  0  0  0  0  0  0  0  0  0  0
    8.3308  -14.0884   19.6495 C   0  0  0  0  0  0  0  0  0  0  0  0
    8.2298  -13.2128   20.5586 O   0  0  0  0  0  0  0  0  0  0  0  0
    7.8525  -18.1861   20.5595 O   0  0  0  0  0  0  0  0  0  0  0  0
    6.9660  -17.2583   21.1012 C   0  0  0  0  0  0  0  0  0  0  0  0
    7.6217  -15.8922   21.2477 C   0  0  2  0  0  0  0  0  0  0  0  0
    7.9925  -15.4302   19.9217 N   0  0  0  0  0  0  0  0  0  0  0  0
    8.7730  -15.9528   22.1740 C   0  0  0  0  0  0  0  0  0  0  0  0
    9.9520  -16.0692   21.7027 O   0  0  0  0  0  0  0  0  0  0  0  0
    8.6593  -15.8881   23.5755 N   0  0  0  0  0  0  0  0  0  0  0  0
    9.8440  -15.9069   24.4331 C   0  0  1  0  0  0  0  0  0  0  0  0
    9.6632  -14.9279   25.5623 C   0  0  0  0  0  0  0  0  0  0  0  0
    8.2367  -14.6834   25.8397 C   0  0  0  0  0  0  0  0  0  0  0  0
    7.2402  -15.6783   25.8832 C   0  0  0  0  0  0  0  0  0  0  0  0
    6.0917  -15.0308   26.1075 N   0  0  0  0  0  0  0  0  0  0  0  0
    6.2989  -13.7078   26.2085 C   0  0  0  0  0  0  0  0  0  0  0  0
    5.4562  -12.6265   26.4574 C   0  0  0  0  0  0  0  0  0  0  0  0
    5.9121  -11.3303   26.5460 C   0  0  0  0  0  0  0  0  0  0  0  0
    7.2592  -11.0692   26.3843 C   0  0  0  0  0  0  0  0  0  0  0  0
    8.1052  -12.1281   26.1366 C   0  0  0  0  0  0  0  0  0  0  0  0
    7.6415  -13.4397   26.0462 C   0  0  0  0  0  0  0  0  0  0  0  0
   10.0634  -17.2606   24.9122 C   0  0  0  0  0  0  0  0  0  0  0  0
   11.0823  -17.6340   25.5539 O   0  0  0  0  0  0  0  0  0  0  0  0
    9.0969  -18.2404   24.6611 O   0  0  0  0  0  0  0  0  0  0  0  0
  2  3  1  0
  2  1  1  0
  3  4  2  0
  6  5  1  0
  7  6  1  6
  8  7  1  0
  8  3  1  0
  9 11  1  0
  9  7  1  0
 10  9  2  0
 12 11  1  0
 12 13  1  1
 13 14  1  0
 14 15  2  0
 15 16  1  0
 17 16  1  0
 18 17  2  0
 19 18  1  0
 20 21  1  0
 20 19  2  0
 21 22  2  0
 22 14  1  0
 22 17  1  0
 23 12  1  0
 24 23  2  0
 25 23  1  0
M  END
$$$$
