GSW.pdb
     RDKit          3D

 25 26  0  0  1  0  0  0  0  0999 V2000
    8.6610  -12.1781   18.1005 N   0  0  0  0  0  0  0  0  0  0  0  0
    8.6657  -13.5977   18.3043 C   0  0  0  0  0  0  0  0  0  0  0  0
    8.3864  -13.9146   19.7460 C   0  0  0  0  0  0  0  0  0  0  0  0
    8.4463  -13.0018   20.6216 O   0  0  0  0  0  0  0  0  0  0  0  0
    7.4764  -17.9056   20.8632 O   0  0  0  0  0  0  0  0  0  0  0  0
    6.7655  -16.8257   21.3819 C   0  0  0  0  0  0  0  0  0  0  0  0
    7.6405  -15.5830   21.4697 C   0  0  2  0  0  0  0  0  0  0  0  0
    8.0553  -15.2327   20.1226 N   0  0  0  0  0  0  0  0  0  0  0  0
    8.7847  -15.8028   22.3805 C   0  0  0  0  0  0  0  0  0  0  0  0
    9.9390  -16.0377   21.8925 O   0  0  0  0  0  0  0  0  0  0  0  0
    8.6902  -15.7692   23.7846 N   0  0  0  0  0  0  0  0  0  0  0  0
    9.8822  -15.8682   24.6264 C   0  0  1  0  0  0  0  0  0  0  0  0
    9.6829  -15.0557   25.8780 C   0  0  0  0  0  0  0  0  0  0  0  0
    8.2577  -14.7579   26.1055 C   0  0  0  0  0  0  0  0  0  0  0  0
    7.2488  -15.7251   26.2826 C   0  0  0  0  0  0  0  0  0  0  0  0
    6.1068  -15.0393   26.4021 N   0  0  0  0  0  0  0  0  0  0  0  0
    6.3296  -13.7179   26.3142 C   0  0  0  0  0  0  0  0  0  0  0  0
    5.4986  -12.6027   26.3985 C   0  0  0  0  0  0  0  0  0  0  0  0
    5.9699  -11.3123   26.3044 C   0  0  0  0  0  0  0  0  0  0  0  0
    7.3212  -11.0922   26.1184 C   0  0  0  0  0  0  0  0  0  0  0  0
    8.1557  -12.1851   26.0320 C   0  0  0  0  0  0  0  0  0  0  0  0
    7.6765  -13.4909   26.1266 C   0  0  0  0  0  0  0  0  0  0  0  0
   10.1444  -17.2669   24.9178 C   0  0  0  0  0  0  0  0  0  0  0  0
   11.2133  -17.7017   25.4255 O   0  0  0  0  0  0  0  0  0  0  0  0
    9.1642  -18.2217   24.6272 O   0  0  0  0  0  0  0  0  0  0  0  0
  2  3  1  0
  2  1  1  0
  3  4  2  0
  6  5  1  0
  7  6  1  6
  8  7  1  0
  8  3  1  0
  9 11  1  0
  9  7  1  0
 10  9  2  0
 12 11  1  0
 12 13  1  1
 13 14  1  0
 14 15  2  0
 15 16  1  0
 17 16  1  0
 18 17  2  0
 19 18  1  0
 20 21  1  0
 20 19  2  0
 21 22  2  0
 22 14  1  0
 22 17  1  0
 23 12  1  0
 24 23  2  0
 25 23  1  0
M  END
$$$$
