GSW.pdb
     RDKit          3D

 25 26  0  0  1  0  0  0  0  0999 V2000
    7.1071  -12.7383   18.4946 N   0  0  0  0  0  0  0  0  0  0  0  0
    8.3563  -13.1860   19.0385 C   0  0  0  0  0  0  0  0  0  0  0  0
    8.1191  -14.2498   20.0725 C   0  0  0  0  0  0  0  0  0  0  0  0
    6.9523  -14.4532   20.5205 O   0  0  0  0  0  0  0  0  0  0  0  0
   10.9308  -17.1633   20.4420 O   0  0  0  0  0  0  0  0  0  0  0  0
    9.6166  -17.3726   20.8535 C   0  0  0  0  0  0  0  0  0  0  0  0
    9.0315  -16.1166   21.4843 C   0  0  2  0  0  0  0  0  0  0  0  0
    9.2002  -15.0237   20.5428 N   0  0  0  0  0  0  0  0  0  0  0  0
    9.6560  -15.8414   22.7964 C   0  0  0  0  0  0  0  0  0  0  0  0
   10.6485  -15.0438   22.8639 O   0  0  0  0  0  0  0  0  0  0  0  0
    9.2223  -16.4100   24.0088 N   0  0  0  0  0  0  0  0  0  0  0  0
    9.8931  -16.1033   25.2718 C   0  0  1  0  0  0  0  0  0  0  0  0
    8.9081  -16.2156   26.4047 C   0  0  0  0  0  0  0  0  0  0  0  0
    7.6768  -15.4557   26.1251 C   0  0  0  0  0  0  0  0  0  0  0  0
    6.4782  -16.0116   25.6360 C   0  0  0  0  0  0  0  0  0  0  0  0
    5.6416  -14.9811   25.4724 N   0  0  0  0  0  0  0  0  0  0  0  0
    6.2290  -13.8259   25.8244 C   0  0  0  0  0  0  0  0  0  0  0  0
    5.7886  -12.5046   25.8627 C   0  0  0  0  0  0  0  0  0  0  0  0
    6.5812  -11.4663   26.2984 C   0  0  0  0  0  0  0  0  0  0  0  0
    7.8714  -11.7244   26.7199 C   0  0  0  0  0  0  0  0  0  0  0  0
    8.3219  -13.0261   26.6871 C   0  0  0  0  0  0  0  0  0  0  0  0
    7.5182  -14.0758   26.2446 C   0  0  0  0  0  0  0  0  0  0  0  0
   11.0245  -16.9988   25.4395 C   0  0  0  0  0  0  0  0  0  0  0  0
   11.8855  -16.8969   26.3548 O   0  0  0  0  0  0  0  0  0  0  0  0
   11.1989  -18.0567   24.5410 O   0  0  0  0  0  0  0  0  0  0  0  0
  2  3  1  0
  2  1  1  0
  3  4  2  0
  6  5  1  0
  7  6  1  6
  8  7  1  0
  8  3  1  0
  9 11  1  0
  9  7  1  0
 10  9  2  0
 12 11  1  0
 12 13  1  1
 13 14  1  0
 14 15  2  0
 15 16  1  0
 17 16  1  0
 18 17  2  0
 19 18  1  0
 20 21  1  0
 20 19  2  0
 21 22  2  0
 22 14  1  0
 22 17  1  0
 23 12  1  0
 24 23  2  0
 25 23  1  0
M  END
$$$$
