GSW.pdb
     RDKit          3D

 25 26  0  0  1  0  0  0  0  0999 V2000
    6.8875  -16.9718   18.0190 N   0  0  0  0  0  0  0  0  0  0  0  0
    7.6944  -15.8922   18.5094 C   0  0  0  0  0  0  0  0  0  0  0  0
    8.5897  -16.3759   19.6146 C   0  0  0  0  0  0  0  0  0  0  0  0
    8.2298  -17.3431   20.3482 O   0  0  0  0  0  0  0  0  0  0  0  0
   12.3173  -14.4197   20.3511 O   0  0  0  0  0  0  0  0  0  0  0  0
   12.1563  -15.7989   20.4608 C   0  0  0  0  0  0  0  0  0  0  0  0
   10.7406  -16.1544   20.8934 C   0  0  2  0  0  0  0  0  0  0  0  0
    9.8346  -15.7502   19.8328 N   0  0  0  0  0  0  0  0  0  0  0  0
   10.4111  -15.5321   22.1939 C   0  0  0  0  0  0  0  0  0  0  0  0
    9.7971  -14.4148   22.2172 O   0  0  0  0  0  0  0  0  0  0  0  0
   10.7332  -16.0990   23.4415 N   0  0  0  0  0  0  0  0  0  0  0  0
    9.8869  -15.8800   24.6140 C   0  0  1  0  0  0  0  0  0  0  0  0
    8.4493  -16.1433   24.2530 C   0  0  0  0  0  0  0  0  0  0  0  0
    7.5280  -15.4447   25.1666 C   0  0  0  0  0  0  0  0  0  0  0  0
    6.4877  -16.0598   25.8906 C   0  0  0  0  0  0  0  0  0  0  0  0
    5.8684  -15.0714   26.5449 N   0  0  0  0  0  0  0  0  0  0  0  0
    6.4461  -13.8876   26.2837 C   0  0  0  0  0  0  0  0  0  0  0  0
    6.2013  -12.5887   26.7243 C   0  0  0  0  0  0  0  0  0  0  0  0
    6.9635  -11.5114   26.3313 C   0  0  0  0  0  0  0  0  0  0  0  0
    8.0209  -11.7053   25.4633 C   0  0  0  0  0  0  0  0  0  0  0  0
    8.2751  -12.9841   25.0179 C   0  0  0  0  0  0  0  0  0  0  0  0
    7.5015  -14.0734   25.4162 C   0  0  0  0  0  0  0  0  0  0  0  0
   10.3442  -16.7331   25.6971 C   0  0  0  0  0  0  0  0  0  0  0  0
   10.7763  -17.9078   25.5464 O   0  0  0  0  0  0  0  0  0  0  0  0
   10.3164  -16.2476   27.0088 O   0  0  0  0  0  0  0  0  0  0  0  0
  2  3  1  0
  2  1  1  0
  3  4  2  0
  6  5  1  0
  7  6  1  6
  8  7  1  0
  8  3  1  0
  9 11  1  0
  9  7  1  0
 10  9  2  0
 12 11  1  0
 12 13  1  6
 13 14  1  0
 14 15  2  0
 15 16  1  0
 17 16  1  0
 18 17  2  0
 19 18  1  0
 20 21  1  0
 20 19  2  0
 21 22  2  0
 22 14  1  0
 22 17  1  0
 23 12  1  0
 24 23  2  0
 25 23  1  0
M  END
$$$$
