GSW.pdb
     RDKit          3D

 25 26  0  0  1  0  0  0  0  0999 V2000
    8.3975  -12.1358   18.0132 N   0  0  0  0  0  0  0  0  0  0  0  0
    8.5847  -13.5366   18.2574 C   0  0  0  0  0  0  0  0  0  0  0  0
    8.1335  -13.8846   19.6475 C   0  0  0  0  0  0  0  0  0  0  0  0
    7.9399  -12.9701   20.5016 O   0  0  0  0  0  0  0  0  0  0  0  0
    7.6385  -17.9664   20.7138 O   0  0  0  0  0  0  0  0  0  0  0  0
    6.8005  -16.9757   21.2204 C   0  0  0  0  0  0  0  0  0  0  0  0
    7.5301  -15.6445   21.3355 C   0  0  2  0  0  0  0  0  0  0  0  0
    7.9243  -15.2342   19.9993 N   0  0  0  0  0  0  0  0  0  0  0  0
    8.6774  -15.7467   22.2632 C   0  0  0  0  0  0  0  0  0  0  0  0
    9.8455  -15.9535   21.7960 O   0  0  0  0  0  0  0  0  0  0  0  0
    8.5712  -15.6276   23.6618 N   0  0  0  0  0  0  0  0  0  0  0  0
    9.7256  -15.8532   24.5309 C   0  0  1  0  0  0  0  0  0  0  0  0
    9.5466  -15.0868   25.8142 C   0  0  0  0  0  0  0  0  0  0  0  0
    8.1376  -14.7095   26.0239 C   0  0  0  0  0  0  0  0  0  0  0  0
    7.0606  -15.6151   26.0933 C   0  0  0  0  0  0  0  0  0  0  0  0
    5.9638  -14.8630   26.2349 N   0  0  0  0  0  0  0  0  0  0  0  0
    6.2775  -13.5575   26.2605 C   0  0  0  0  0  0  0  0  0  0  0  0
    5.5207  -12.3973   26.4106 C   0  0  0  0  0  0  0  0  0  0  0  0
    6.0803  -11.1394   26.4345 C   0  0  0  0  0  0  0  0  0  0  0  0
    7.4489  -10.9999   26.3058 C   0  0  0  0  0  0  0  0  0  0  0  0
    8.2108  -12.1380   26.1556 C   0  0  0  0  0  0  0  0  0  0  0  0
    7.6422  -13.4107   26.1305 C   0  0  0  0  0  0  0  0  0  0  0  0
    9.8763  -17.2794   24.7616 C   0  0  0  0  0  0  0  0  0  0  0  0
    9.0073  -18.1450   24.4703 O   0  0  0  0  0  0  0  0  0  0  0  0
   11.0546  -17.7575   25.3449 O   0  0  0  0  0  0  0  0  0  0  0  0
  2  3  1  0
  2  1  1  0
  3  4  2  0
  6  5  1  0
  7  6  1  6
  8  7  1  0
  8  3  1  0
  9 11  1  0
  9  7  1  0
 10  9  2  0
 12 11  1  0
 12 13  1  1
 13 14  1  0
 14 15  2  0
 15 16  1  0
 17 16  1  0
 18 17  2  0
 19 18  1  0
 20 21  1  0
 20 19  2  0
 21 22  2  0
 22 14  1  0
 22 17  1  0
 23 12  1  0
 24 23  2  0
 25 23  1  0
M  END
$$$$
