GSW.pdb
     RDKit          3D

 25 26  0  0  1  0  0  0  0  0999 V2000
    7.8481  -12.6930   16.9463 N   0  0  0  0  0  0  0  0  0  0  0  0
    8.8117  -13.2958   17.8209 C   0  0  0  0  0  0  0  0  0  0  0  0
    8.1151  -14.0282   18.9324 C   0  0  0  0  0  0  0  0  0  0  0  0
    6.8524  -14.1223   18.9394 O   0  0  0  0  0  0  0  0  0  0  0  0
    8.5317  -17.4695   19.9108 O   0  0  0  0  0  0  0  0  0  0  0  0
    7.5928  -16.5928   20.4496 C   0  0  0  0  0  0  0  0  0  0  0  0
    8.2669  -15.3679   21.0520 C   0  0  2  0  0  0  0  0  0  0  0  0
    8.8719  -14.6129   19.9689 N   0  0  0  0  0  0  0  0  0  0  0  0
    9.2437  -15.7573   22.0919 C   0  0  0  0  0  0  0  0  0  0  0  0
   10.4690  -15.9126   21.7751 O   0  0  0  0  0  0  0  0  0  0  0  0
    8.9109  -15.9735   23.4424 N   0  0  0  0  0  0  0  0  0  0  0  0
    9.9476  -16.1222   24.4634 C   0  0  1  0  0  0  0  0  0  0  0  0
    9.7752  -15.0580   25.5140 C   0  0  0  0  0  0  0  0  0  0  0  0
    8.3508  -14.7804   25.7707 C   0  0  0  0  0  0  0  0  0  0  0  0
    7.3246  -15.7454   25.7565 C   0  0  0  0  0  0  0  0  0  0  0  0
    6.1912  -15.0718   25.9808 N   0  0  0  0  0  0  0  0  0  0  0  0
    6.4352  -13.7603   26.1351 C   0  0  0  0  0  0  0  0  0  0  0  0
    5.6198  -12.6637   26.4064 C   0  0  0  0  0  0  0  0  0  0  0  0
    6.1119  -11.3860   26.5526 C   0  0  0  0  0  0  0  0  0  0  0  0
    7.4694  -11.1604   26.4287 C   0  0  0  0  0  0  0  0  0  0  0  0
    8.2888  -12.2348   26.1595 C   0  0  0  0  0  0  0  0  0  0  0  0
    7.7885  -13.5275   26.0108 C   0  0  0  0  0  0  0  0  0  0  0  0
    9.8758  -17.4607   25.0232 C   0  0  0  0  0  0  0  0  0  0  0  0
    8.9340  -18.2722   24.8137 O   0  0  0  0  0  0  0  0  0  0  0  0
   10.9065  -17.9105   25.8554 O   0  0  0  0  0  0  0  0  0  0  0  0
  2  3  1  0
  2  1  1  0
  3  4  2  0
  6  5  1  0
  7  6  1  6
  8  7  1  0
  8  3  1  0
  9 11  1  0
  9  7  1  0
 10  9  2  0
 12 11  1  0
 12 13  1  1
 13 14  1  0
 14 15  2  0
 15 16  1  0
 17 16  1  0
 18 17  2  0
 19 18  1  0
 20 21  1  0
 20 19  2  0
 21 22  2  0
 22 14  1  0
 22 17  1  0
 23 12  1  0
 24 23  2  0
 25 23  1  0
M  END
$$$$
