GSW.pdb
     RDKit          3D

 25 26  0  0  1  0  0  0  0  0999 V2000
    8.3019  -12.6316   17.3288 N   0  0  0  0  0  0  0  0  0  0  0  0
    8.7551  -13.8897   17.8472 C   0  0  0  0  0  0  0  0  0  0  0  0
    8.3503  -14.0324   19.2869 C   0  0  0  0  0  0  0  0  0  0  0  0
    8.0810  -13.0056   19.9772 O   0  0  0  0  0  0  0  0  0  0  0  0
    7.4715  -17.8726   20.7173 O   0  0  0  0  0  0  0  0  0  0  0  0
    6.8172  -16.7274   21.1656 C   0  0  0  0  0  0  0  0  0  0  0  0
    7.7640  -15.5361   21.2120 C   0  0  2  0  0  0  0  0  0  0  0  0
    8.2693  -15.3146   19.8685 N   0  0  0  0  0  0  0  0  0  0  0  0
    8.8432  -15.7541   22.1993 C   0  0  0  0  0  0  0  0  0  0  0  0
    9.9967  -16.1197   21.7975 O   0  0  0  0  0  0  0  0  0  0  0  0
    8.6862  -15.5814   23.5875 N   0  0  0  0  0  0  0  0  0  0  0  0
    9.7986  -15.8082   24.5095 C   0  0  1  0  0  0  0  0  0  0  0  0
    9.6468  -14.9137   25.7107 C   0  0  0  0  0  0  0  0  0  0  0  0
    8.2309  -14.6002   25.9732 C   0  0  0  0  0  0  0  0  0  0  0  0
    7.1964  -15.5522   26.0642 C   0  0  0  0  0  0  0  0  0  0  0  0
    6.0741  -14.8501   26.2541 N   0  0  0  0  0  0  0  0  0  0  0  0
    6.3327  -13.5328   26.2896 C   0  0  0  0  0  0  0  0  0  0  0  0
    5.5329  -12.4084   26.4830 C   0  0  0  0  0  0  0  0  0  0  0  0
    6.0391  -11.1281   26.5080 C   0  0  0  0  0  0  0  0  0  0  0  0
    7.3953  -10.9281   26.3360 C   0  0  0  0  0  0  0  0  0  0  0  0
    8.1993  -12.0301   26.1426 C   0  0  0  0  0  0  0  0  0  0  0  0
    7.6848  -13.3256   26.1166 C   0  0  0  0  0  0  0  0  0  0  0  0
    9.8351  -17.2137   24.8749 C   0  0  0  0  0  0  0  0  0  0  0  0
    8.9138  -18.0387   24.6299 O   0  0  0  0  0  0  0  0  0  0  0  0
   10.9549  -17.7176   25.5449 O   0  0  0  0  0  0  0  0  0  0  0  0
  2  3  1  0
  2  1  1  0
  3  4  2  0
  6  5  1  0
  7  6  1  6
  8  7  1  0
  8  3  1  0
  9 11  1  0
  9  7  1  0
 10  9  2  0
 12 11  1  0
 12 13  1  1
 13 14  1  0
 14 15  2  0
 15 16  1  0
 17 16  1  0
 18 17  2  0
 19 18  1  0
 20 21  1  0
 20 19  2  0
 21 22  2  0
 22 14  1  0
 22 17  1  0
 23 12  1  0
 24 23  2  0
 25 23  1  0
M  END
$$$$
