GSW.pdb
     RDKit          3D

 25 26  0  0  1  0  0  0  0  0999 V2000
    7.7117  -12.9142   17.8203 N   0  0  0  0  0  0  0  0  0  0  0  0
    8.6395  -13.0249   18.9084 C   0  0  0  0  0  0  0  0  0  0  0  0
    8.2530  -14.1677   19.8038 C   0  0  0  0  0  0  0  0  0  0  0  0
    7.1155  -14.7116   19.6868 O   0  0  0  0  0  0  0  0  0  0  0  0
   10.6626  -16.9355   20.4005 O   0  0  0  0  0  0  0  0  0  0  0  0
    9.3317  -17.0347   20.7997 C   0  0  0  0  0  0  0  0  0  0  0  0
    8.9028  -15.8078   21.5923 C   0  0  2  0  0  0  0  0  0  0  0  0
    9.1620  -14.6352   20.7755 N   0  0  0  0  0  0  0  0  0  0  0  0
    9.5891  -15.7549   22.9012 C   0  0  0  0  0  0  0  0  0  0  0  0
   10.6827  -15.1085   23.0106 O   0  0  0  0  0  0  0  0  0  0  0  0
    9.1097  -16.3818   24.0668 N   0  0  0  0  0  0  0  0  0  0  0  0
    9.7998  -16.2294   25.3473 C   0  0  1  0  0  0  0  0  0  0  0  0
    8.7945  -16.2595   26.4673 C   0  0  0  0  0  0  0  0  0  0  0  0
    7.6287  -15.4093   26.1675 C   0  0  0  0  0  0  0  0  0  0  0  0
    6.3868  -15.8786   25.6962 C   0  0  0  0  0  0  0  0  0  0  0  0
    5.6369  -14.7879   25.5041 N   0  0  0  0  0  0  0  0  0  0  0  0
    6.3184  -13.6753   25.8221 C   0  0  0  0  0  0  0  0  0  0  0  0
    5.9881  -12.3217   25.8229 C   0  0  0  0  0  0  0  0  0  0  0  0
    6.8648  -11.3401   26.2276 C   0  0  0  0  0  0  0  0  0  0  0  0
    8.1310  -11.6912   26.6548 C   0  0  0  0  0  0  0  0  0  0  0  0
    8.4730  -13.0259   26.6587 C   0  0  0  0  0  0  0  0  0  0  0  0
    7.5843  -14.0182   26.2476 C   0  0  0  0  0  0  0  0  0  0  0  0
   10.7968  -17.2777   25.4784 C   0  0  0  0  0  0  0  0  0  0  0  0
   10.8838  -18.2789   24.7172 O   0  0  0  0  0  0  0  0  0  0  0  0
   11.7395  -17.2004   26.5092 O   0  0  0  0  0  0  0  0  0  0  0  0
  2  3  1  0
  2  1  1  0
  3  4  2  0
  6  5  1  0
  7  6  1  6
  8  7  1  0
  8  3  1  0
  9 11  1  0
  9  7  1  0
 10  9  2  0
 12 11  1  0
 12 13  1  1
 13 14  1  0
 14 15  2  0
 15 16  1  0
 17 16  1  0
 18 17  2  0
 19 18  1  0
 20 21  1  0
 20 19  2  0
 21 22  2  0
 22 14  1  0
 22 17  1  0
 23 12  1  0
 24 23  2  0
 25 23  1  0
M  END
$$$$
