GSW.pdb
     RDKit          3D

 25 26  0  0  1  0  0  0  0  0999 V2000
    5.5314  -20.0519   22.2681 N   0  0  0  0  0  0  0  0  0  0  0  0
    5.4457  -18.6251   22.1497 C   0  0  0  0  0  0  0  0  0  0  0  0
    6.8117  -18.0413   21.9259 C   0  0  0  0  0  0  0  0  0  0  0  0
    7.8382  -18.7796   21.9921 O   0  0  0  0  0  0  0  0  0  0  0  0
    6.8631  -14.1653   20.8193 O   0  0  0  0  0  0  0  0  0  0  0  0
    8.0584  -14.8297   20.5544 C   0  0  0  0  0  0  0  0  0  0  0  0
    8.2407  -16.0236   21.4812 C   0  0  2  0  0  0  0  0  0  0  0  0
    6.9484  -16.6670   21.6402 N   0  0  0  0  0  0  0  0  0  0  0  0
    8.8346  -15.6088   22.7705 C   0  0  0  0  0  0  0  0  0  0  0  0
    9.0127  -14.3690   23.0093 O   0  0  0  0  0  0  0  0  0  0  0  0
    9.2267  -16.5067   23.7812 N   0  0  0  0  0  0  0  0  0  0  0  0
    9.9811  -16.0508   24.9483 C   0  0  1  0  0  0  0  0  0  0  0  0
    9.1509  -16.2412   26.1896 C   0  0  0  0  0  0  0  0  0  0  0  0
    7.9276  -15.4204   26.1504 C   0  0  0  0  0  0  0  0  0  0  0  0
    6.6469  -15.8955   25.8056 C   0  0  0  0  0  0  0  0  0  0  0  0
    5.8427  -14.8275   25.8418 N   0  0  0  0  0  0  0  0  0  0  0  0
    6.5265  -13.7237   26.1848 C   0  0  0  0  0  0  0  0  0  0  0  0
    6.1563  -12.3951   26.3822 C   0  0  0  0  0  0  0  0  0  0  0  0
    7.0497  -11.4213   26.7689 C   0  0  0  0  0  0  0  0  0  0  0  0
    8.3745  -11.7551   26.9753 C   0  0  0  0  0  0  0  0  0  0  0  0
    8.7562  -13.0649   26.7830 C   0  0  0  0  0  0  0  0  0  0  0  0
    7.8503  -14.0493   26.3905 C   0  0  0  0  0  0  0  0  0  0  0  0
   11.2388  -16.7746   25.0147 C   0  0  0  0  0  0  0  0  0  0  0  0
   12.1484  -16.5487   25.8579 O   0  0  0  0  0  0  0  0  0  0  0  0
   11.4883  -17.7985   24.0947 O   0  0  0  0  0  0  0  0  0  0  0  0
  2  3  1  0
  2  1  1  0
  3  4  2  0
  6  5  1  0
  7  6  1  6
  8  7  1  0
  8  3  1  0
  9 11  1  0
  9  7  1  0
 10  9  2  0
 12 11  1  0
 12 13  1  1
 13 14  1  0
 14 15  2  0
 15 16  1  0
 17 16  1  0
 18 17  2  0
 19 18  1  0
 20 21  1  0
 20 19  2  0
 21 22  2  0
 22 14  1  0
 22 17  1  0
 23 12  1  0
 24 23  2  0
 25 23  1  0
M  END
$$$$
