GSW.pdb
     RDKit          3D

 25 26  0  0  1  0  0  0  0  0999 V2000
    7.3582  -12.8237   18.4704 N   0  0  0  0  0  0  0  0  0  0  0  0
    8.5380  -13.1478   19.2187 C   0  0  0  0  0  0  0  0  0  0  0  0
    8.2548  -14.2771   20.1681 C   0  0  0  0  0  0  0  0  0  0  0  0
    7.0598  -14.6003   20.4347 O   0  0  0  0  0  0  0  0  0  0  0  0
   11.0943  -17.0684   20.6603 O   0  0  0  0  0  0  0  0  0  0  0  0
    9.7724  -17.3288   21.0140 C   0  0  0  0  0  0  0  0  0  0  0  0
    9.1236  -16.1084   21.6522 C   0  0  2  0  0  0  0  0  0  0  0  0
    9.3245  -14.9787   20.7618 N   0  0  0  0  0  0  0  0  0  0  0  0
    9.6624  -15.8692   23.0086 C   0  0  0  0  0  0  0  0  0  0  0  0
   10.6419  -15.0676   23.1622 O   0  0  0  0  0  0  0  0  0  0  0  0
    9.1584  -16.4772   24.1738 N   0  0  0  0  0  0  0  0  0  0  0  0
    9.8007  -16.2748   25.4721 C   0  0  1  0  0  0  0  0  0  0  0  0
    8.7644  -16.3418   26.5619 C   0  0  0  0  0  0  0  0  0  0  0  0
    7.6382  -15.4308   26.2909 C   0  0  0  0  0  0  0  0  0  0  0  0
    6.3989  -15.8188   25.7447 C   0  0  0  0  0  0  0  0  0  0  0  0
    5.6923  -14.6909   25.6131 N   0  0  0  0  0  0  0  0  0  0  0  0
    6.3983  -13.6304   26.0377 C   0  0  0  0  0  0  0  0  0  0  0  0
    6.1125  -12.2700   26.1321 C   0  0  0  0  0  0  0  0  0  0  0  0
    7.0061  -11.3534   26.6394 C   0  0  0  0  0  0  0  0  0  0  0  0
    8.2444  -11.7803   27.0791 C   0  0  0  0  0  0  0  0  0  0  0  0
    8.5422  -13.1227   26.9913 C   0  0  0  0  0  0  0  0  0  0  0  0
    7.6365  -14.0491   26.4764 C   0  0  0  0  0  0  0  0  0  0  0  0
   10.8442  -17.2701   25.6472 C   0  0  0  0  0  0  0  0  0  0  0  0
   11.0448  -18.2387   24.8655 O   0  0  0  0  0  0  0  0  0  0  0  0
   11.7022  -17.1756   26.7481 O   0  0  0  0  0  0  0  0  0  0  0  0
  2  3  1  0
  2  1  1  0
  3  4  2  0
  6  5  1  0
  7  6  1  6
  8  7  1  0
  8  3  1  0
  9 11  1  0
  9  7  1  0
 10  9  2  0
 12 11  1  0
 12 13  1  1
 13 14  1  0
 14 15  2  0
 15 16  1  0
 17 16  1  0
 18 17  2  0
 19 18  1  0
 20 21  1  0
 20 19  2  0
 21 22  2  0
 22 14  1  0
 22 17  1  0
 23 12  1  0
 24 23  2  0
 25 23  1  0
M  END
$$$$
