GSW.pdb
     RDKit          3D

 25 26  0  0  1  0  0  0  0  0999 V2000
    6.9502  -13.4022   18.6115 N   0  0  0  0  0  0  0  0  0  0  0  0
    8.1323  -13.4583   19.4217 C   0  0  0  0  0  0  0  0  0  0  0  0
    8.0305  -14.5865   20.4085 C   0  0  0  0  0  0  0  0  0  0  0  0
    6.8961  -15.0353   20.7475 O   0  0  0  0  0  0  0  0  0  0  0  0
   11.2678  -16.9479   20.8547 O   0  0  0  0  0  0  0  0  0  0  0  0
   10.0018  -17.4006   21.2189 C   0  0  0  0  0  0  0  0  0  0  0  0
    9.1820  -16.2869   21.8554 C   0  0  2  0  0  0  0  0  0  0  0  0
    9.2032  -15.1467   20.9561 N   0  0  0  0  0  0  0  0  0  0  0  0
    9.6897  -15.9591   23.2052 C   0  0  0  0  0  0  0  0  0  0  0  0
   10.6031  -15.0791   23.3353 O   0  0  0  0  0  0  0  0  0  0  0  0
    9.2248  -16.5629   24.3887 N   0  0  0  0  0  0  0  0  0  0  0  0
    9.8693  -16.3025   25.6755 C   0  0  1  0  0  0  0  0  0  0  0  0
    8.8242  -16.2340   26.7569 C   0  0  0  0  0  0  0  0  0  0  0  0
    7.6924  -15.3785   26.3584 C   0  0  0  0  0  0  0  0  0  0  0  0
    6.5016  -15.8398   25.7634 C   0  0  0  0  0  0  0  0  0  0  0  0
    5.7734  -14.7458   25.5155 N   0  0  0  0  0  0  0  0  0  0  0  0
    6.4209  -13.6384   25.9130 C   0  0  0  0  0  0  0  0  0  0  0  0
    6.0916  -12.2847   25.9010 C   0  0  0  0  0  0  0  0  0  0  0  0
    6.9251  -11.3097   26.4018 C   0  0  0  0  0  0  0  0  0  0  0  0
    8.1445  -11.6680   26.9437 C   0  0  0  0  0  0  0  0  0  0  0  0
    8.4849  -13.0030   26.9617 C   0  0  0  0  0  0  0  0  0  0  0  0
    7.6401  -13.9886   26.4533 C   0  0  0  0  0  0  0  0  0  0  0  0
   10.8554  -17.3379   25.9322 C   0  0  0  0  0  0  0  0  0  0  0  0
   11.6394  -17.3475   26.9194 O   0  0  0  0  0  0  0  0  0  0  0  0
   10.9676  -18.4115   25.0424 O   0  0  0  0  0  0  0  0  0  0  0  0
  2  3  1  0
  2  1  1  0
  3  4  2  0
  6  5  1  0
  7  6  1  6
  8  7  1  0
  8  3  1  0
  9 11  1  0
  9  7  1  0
 10  9  2  0
 12 11  1  0
 12 13  1  1
 13 14  1  0
 14 15  2  0
 15 16  1  0
 17 16  1  0
 18 17  2  0
 19 18  1  0
 20 21  1  0
 20 19  2  0
 21 22  2  0
 22 14  1  0
 22 17  1  0
 23 12  1  0
 24 23  2  0
 25 23  1  0
M  END
$$$$
