AVH.pdb
     RDKit          3D

 23 23  0  0  1  0  0  0  0  0999 V2000
   18.3484  -11.7488  -16.2561 C   0  0  0  0  0  0  0  0  0  0  0  0
   17.5011  -10.7612  -17.0167 C   0  0  2  0  0  0  0  0  0  0  0  0
   17.1579  -11.2235  -18.3515 N   0  0  0  0  0  0  0  0  0  0  0  0
   18.2250   -9.4685  -17.1853 C   0  0  0  0  0  0  0  0  0  0  0  0
   19.2491   -9.4547  -17.9117 O   0  0  0  0  0  0  0  0  0  0  0  0
   16.2747   -5.9880  -16.5155 C   0  0  0  0  0  0  0  0  0  0  0  0
   17.4832   -6.0872  -17.4631 C   0  0  2  0  0  0  0  0  0  0  0  0
   16.9078   -6.5503  -18.7775 C   0  0  0  0  0  0  0  0  0  0  0  0
   18.4907   -6.9910  -16.8470 C   0  0  2  0  0  0  0  0  0  0  0  0
   17.8441   -8.2536  -16.5871 N   0  0  0  0  0  0  0  0  0  0  0  0
   19.2437   -6.4645  -15.7059 C   0  0  0  0  0  0  0  0  0  0  0  0
   18.7052   -6.4701  -14.5409 O   0  0  0  0  0  0  0  0  0  0  0  0
   20.5507   -5.9346  -15.7756 N   0  0  0  0  0  0  0  0  0  0  0  0
   21.2501   -5.5793  -14.5717 C   0  0  1  0  0  0  0  0  0  0  0  0
   22.6423   -6.1532  -14.4723 C   0  0  0  0  0  0  0  0  0  0  0  0
   22.6777   -7.6146  -14.6446 C   0  0  0  0  0  0  0  0  0  0  0  0
   21.8889   -8.5350  -14.0079 C   0  0  0  0  0  0  0  0  0  0  0  0
   22.2028   -9.7916  -14.4303 N   0  0  0  0  0  0  0  0  0  0  0  0
   23.1902   -9.6321  -15.3304 C   0  0  0  0  0  0  0  0  0  0  0  0
   23.4677   -8.3070  -15.4490 N   0  0  0  0  0  0  0  0  0  0  0  0
   21.3999   -4.1089  -14.5136 C   0  0  0  0  0  0  0  0  0  0  0  0
   20.9658   -3.4049  -15.4352 O   0  0  0  0  0  0  0  0  0  0  0  0
   22.0245   -3.5399  -13.4324 O   0  0  0  0  0  0  0  0  0  0  0  0
  2  1  1  6
  2  4  1  0
  2  3  1  0
  4  5  2  0
  7  6  1  1
  7  9  1  0
  8  7  1  0
  9 11  1  0
  9 10  1  1
 10  4  1  0
 11 12  2  0
 13 11  1  0
 13 14  1  0
 14 21  1  0
 15 16  1  0
 14 15  1  6
 16 20  1  0
 17 18  1  0
 17 16  2  0
 18 19  1  0
 19 20  2  0
 21 22  2  0
 21 23  1  0
M  END
$$$$
