AVH.pdb
     RDKit          3D

 23 23  0  0  1  0  0  0  0  0999 V2000
   31.7602  -12.3460  -19.9903 C   0  0  0  0  0  0  0  0  0  0  0  0
   32.3055  -12.2825  -18.5866 C   0  0  2  0  0  0  0  0  0  0  0  0
   31.7616  -13.3178  -17.7232 N   0  0  0  0  0  0  0  0  0  0  0  0
   31.9691  -10.9761  -17.9512 C   0  0  0  0  0  0  0  0  0  0  0  0
   30.8440  -10.8558  -17.4067 O   0  0  0  0  0  0  0  0  0  0  0  0
   34.9283   -8.2166  -17.1802 C   0  0  0  0  0  0  0  0  0  0  0  0
   33.6450   -8.3039  -16.3353 C   0  0  2  0  0  0  0  0  0  0  0  0
   33.9482   -9.3326  -15.2755 C   0  0  0  0  0  0  0  0  0  0  0  0
   32.5083   -8.6257  -17.2386 C   0  0  2  0  0  0  0  0  0  0  0  0
   32.8239   -9.8594  -17.9154 N   0  0  0  0  0  0  0  0  0  0  0  0
   32.0497   -7.5595  -18.1325 C   0  0  0  0  0  0  0  0  0  0  0  0
   32.9091   -6.9147  -18.8347 O   0  0  0  0  0  0  0  0  0  0  0  0
   30.7036   -7.1654  -18.2959 N   0  0  0  0  0  0  0  0  0  0  0  0
   30.3579   -6.1646  -19.2673 C   0  0  1  0  0  0  0  0  0  0  0  0
   29.4021   -6.6410  -20.3336 C   0  0  0  0  0  0  0  0  0  0  0  0
   28.2482   -7.3743  -19.7883 C   0  0  0  0  0  0  0  0  0  0  0  0
   28.0424   -8.7273  -19.8288 C   0  0  0  0  0  0  0  0  0  0  0  0
   26.8680   -9.0403  -19.2134 N   0  0  0  0  0  0  0  0  0  0  0  0
   26.3571   -7.8674  -18.7964 C   0  0  0  0  0  0  0  0  0  0  0  0
   27.2046   -6.8667  -19.1529 N   0  0  0  0  0  0  0  0  0  0  0  0
   29.6910   -5.0350  -18.5839 C   0  0  0  0  0  0  0  0  0  0  0  0
   29.4473   -3.9917  -19.2050 O   0  0  0  0  0  0  0  0  0  0  0  0
   29.3504   -5.1576  -17.2604 O   0  0  0  0  0  0  0  0  0  0  0  0
  2  1  1  6
  2  4  1  0
  2  3  1  0
  4  5  2  0
  7  6  1  6
  7  9  1  0
  8  7  1  0
  9 11  1  0
  9 10  1  6
 10  4  1  0
 11 12  2  0
 13 11  1  0
 13 14  1  0
 14 21  1  0
 15 16  1  0
 14 15  1  6
 16 20  1  0
 17 18  1  0
 17 16  2  0
 18 19  1  0
 19 20  2  0
 21 22  2  0
 21 23  1  0
M  END
$$$$
