AVH.pdb
     RDKit          3D

 23 23  0  0  1  0  0  0  0  0999 V2000
   24.5669  -35.9789  -13.2717 C   0  0  0  0  0  0  0  0  0  0  0  0
   24.9201  -34.5199  -13.1365 C   0  0  2  0  0  0  0  0  0  0  0  0
   25.7735  -34.0445  -14.2130 N   0  0  0  0  0  0  0  0  0  0  0  0
   25.6593  -34.2741  -11.8650 C   0  0  0  0  0  0  0  0  0  0  0  0
   26.8956  -34.4932  -11.8481 O   0  0  0  0  0  0  0  0  0  0  0  0
   26.0642  -31.9892   -7.5853 C   0  0  0  0  0  0  0  0  0  0  0  0
   25.2908  -32.2834   -8.8829 C   0  0  2  0  0  0  0  0  0  0  0  0
   23.8394  -32.2952   -8.4744 C   0  0  0  0  0  0  0  0  0  0  0  0
   25.8075  -33.5524   -9.4609 C   0  0  2  0  0  0  0  0  0  0  0  0
   25.0715  -33.8116  -10.6737 N   0  0  0  0  0  0  0  0  0  0  0  0
   25.8916  -34.7050   -8.5605 C   0  0  0  0  0  0  0  0  0  0  0  0
   24.8155  -35.3145   -8.2172 O   0  0  0  0  0  0  0  0  0  0  0  0
   27.0892  -35.2218   -8.0194 N   0  0  0  0  0  0  0  0  0  0  0  0
   27.0522  -36.3576   -7.1402 C   0  0  1  0  0  0  0  0  0  0  0  0
   28.3564  -37.1115   -7.0475 C   0  0  0  0  0  0  0  0  0  0  0  0
   28.2364  -38.3844   -6.3181 C   0  0  0  0  0  0  0  0  0  0  0  0
   27.1688  -39.2414   -6.3339 C   0  0  0  0  0  0  0  0  0  0  0  0
   27.4247  -40.3217   -5.5442 N   0  0  0  0  0  0  0  0  0  0  0  0
   28.6576  -40.1180   -5.0451 C   0  0  0  0  0  0  0  0  0  0  0  0
   29.1364  -38.9392   -5.5227 N   0  0  0  0  0  0  0  0  0  0  0  0
   26.7366  -35.9002   -5.7695 C   0  0  0  0  0  0  0  0  0  0  0  0
   27.1734  -34.8152   -5.3623 O   0  0  0  0  0  0  0  0  0  0  0  0
   25.9601  -36.6904   -4.9600 O   0  0  0  0  0  0  0  0  0  0  0  0
  2  1  1  6
  2  4  1  0
  2  3  1  0
  4  5  2  0
  7  6  1  1
  7  9  1  0
  8  7  1  0
  9 11  1  0
  9 10  1  6
 10  4  1  0
 11 12  2  0
 13 11  1  0
 13 14  1  0
 14 21  1  0
 15 16  1  0
 14 15  1  1
 16 20  1  0
 17 18  1  0
 17 16  2  0
 18 19  1  0
 19 20  2  0
 21 22  2  0
 21 23  1  0
M  END
$$$$
