AVH.pdb
     RDKit          3D

 23 23  0  0  1  0  0  0  0  0999 V2000
   20.9066  -12.1570  -20.1851 C   0  0  0  0  0  0  0  0  0  0  0  0
   21.1584  -13.0182  -18.9740 C   0  0  2  0  0  0  0  0  0  0  0  0
   20.1990  -14.1026  -18.8443 N   0  0  0  0  0  0  0  0  0  0  0  0
   21.0606  -12.2095  -17.7251 C   0  0  0  0  0  0  0  0  0  0  0  0
   19.9165  -11.9277  -17.2913 O   0  0  0  0  0  0  0  0  0  0  0  0
   22.8399  -12.8320  -14.4633 C   0  0  0  0  0  0  0  0  0  0  0  0
   23.1113  -11.3689  -14.8558 C   0  0  2  0  0  0  0  0  0  0  0  0
   23.1723  -10.6218  -13.5475 C   0  0  0  0  0  0  0  0  0  0  0  0
   22.0484  -10.9302  -15.7988 C   0  0  2  0  0  0  0  0  0  0  0  0
   22.1622  -11.7348  -16.9902 N   0  0  0  0  0  0  0  0  0  0  0  0
   21.9477   -9.4924  -16.0617 C   0  0  0  0  0  0  0  0  0  0  0  0
   22.8837   -8.9057  -16.7152 O   0  0  0  0  0  0  0  0  0  0  0  0
   20.8787   -8.6683  -15.6472 N   0  0  0  0  0  0  0  0  0  0  0  0
   20.8825   -7.2672  -15.9658 C   0  0  1  0  0  0  0  0  0  0  0  0
   19.8268   -6.8562  -16.9628 C   0  0  0  0  0  0  0  0  0  0  0  0
   20.0483   -7.4214  -18.3037 C   0  0  0  0  0  0  0  0  0  0  0  0
   20.9108   -6.9539  -19.2588 C   0  0  0  0  0  0  0  0  0  0  0  0
   20.8499   -7.7408  -20.3692 N   0  0  0  0  0  0  0  0  0  0  0  0
   19.9428   -8.6933  -20.0854 C   0  0  0  0  0  0  0  0  0  0  0  0
   19.4651   -8.4860  -18.8301 N   0  0  0  0  0  0  0  0  0  0  0  0
   20.6198   -6.4891  -14.7356 C   0  0  0  0  0  0  0  0  0  0  0  0
   20.2612   -7.0678  -13.7011 O   0  0  0  0  0  0  0  0  0  0  0  0
   20.7759   -5.1261  -14.7571 O   0  0  0  0  0  0  0  0  0  0  0  0
  2  1  1  6
  2  4  1  0
  2  3  1  0
  4  5  2  0
  7  6  1  1
  7  9  1  0
  8  7  1  0
  9 11  1  0
  9 10  1  6
 10  4  1  0
 11 12  2  0
 13 11  1  0
 13 14  1  0
 14 21  1  0
 15 16  1  0
 14 15  1  6
 16 20  1  0
 17 18  1  0
 17 16  2  0
 18 19  1  0
 19 20  2  0
 21 22  2  0
 21 23  1  0
M  END
$$$$
