AVH.pdb
     RDKit          3D

 23 23  0  0  1  0  0  0  0  0999 V2000
   16.3075  -22.9339   -0.5989 C   0  0  0  0  0  0  0  0  0  0  0  0
   15.2203  -23.5908    0.2125 C   0  0  2  0  0  0  0  0  0  0  0  0
   14.0096  -23.8294   -0.5559 N   0  0  0  0  0  0  0  0  0  0  0  0
   14.8317  -22.7284    1.3653 C   0  0  0  0  0  0  0  0  0  0  0  0
   13.9347  -21.8686    1.1844 O   0  0  0  0  0  0  0  0  0  0  0  0
   13.7645  -23.7960    4.8439 C   0  0  0  0  0  0  0  0  0  0  0  0
   14.9553  -22.8297    4.9728 C   0  0  2  0  0  0  0  0  0  0  0  0
   14.7266  -22.1046    6.2748 C   0  0  0  0  0  0  0  0  0  0  0  0
   14.9994  -21.9733    3.7579 C   0  0  2  0  0  0  0  0  0  0  0  0
   15.3986  -22.8063    2.6504 N   0  0  0  0  0  0  0  0  0  0  0  0
   15.7508  -20.7195    3.8577 C   0  0  0  0  0  0  0  0  0  0  0  0
   17.0336  -20.7519    3.8357 O   0  0  0  0  0  0  0  0  0  0  0  0
   15.1710  -19.4377    3.9797 N   0  0  0  0  0  0  0  0  0  0  0  0
   16.0079  -18.2741    4.0804 C   0  0  1  0  0  0  0  0  0  0  0  0
   16.1145  -17.4759    2.8040 C   0  0  0  0  0  0  0  0  0  0  0  0
   16.9468  -16.2701    2.9454 C   0  0  0  0  0  0  0  0  0  0  0  0
   17.5801  -15.8388    4.0801 C   0  0  0  0  0  0  0  0  0  0  0  0
   18.2653  -14.6893    3.8249 N   0  0  0  0  0  0  0  0  0  0  0  0
   18.0456  -14.4211    2.5247 C   0  0  0  0  0  0  0  0  0  0  0  0
   17.2440  -15.3877    2.0053 N   0  0  0  0  0  0  0  0  0  0  0  0
   15.4471  -17.3596    5.0986 C   0  0  0  0  0  0  0  0  0  0  0  0
   14.2862  -17.5167    5.5005 O   0  0  0  0  0  0  0  0  0  0  0  0
   16.2249  -16.3402    5.5869 O   0  0  0  0  0  0  0  0  0  0  0  0
  2  1  1  6
  2  4  1  0
  2  3  1  0
  4  5  2  0
  7  6  1  6
  7  9  1  0
  8  7  1  0
  9 11  1  0
  9 10  1  6
 10  4  1  0
 11 12  2  0
 13 11  1  0
 13 14  1  0
 14 21  1  0
 15 16  1  0
 14 15  1  6
 16 20  1  0
 17 18  1  0
 17 16  2  0
 18 19  1  0
 19 20  2  0
 21 22  2  0
 21 23  1  0
M  END
$$$$
