AVH.pdb
     RDKit          3D

 23 23  0  0  1  0  0  0  0  0999 V2000
   27.5355  -18.2116  -15.2925 C   0  0  0  0  0  0  0  0  0  0  0  0
   28.0744  -19.3996  -14.5374 C   0  0  2  0  0  0  0  0  0  0  0  0
   28.8892  -20.2722  -15.3667 N   0  0  0  0  0  0  0  0  0  0  0  0
   26.9587  -20.2343  -14.0064 C   0  0  0  0  0  0  0  0  0  0  0  0
   26.4199  -21.0630  -14.7808 O   0  0  0  0  0  0  0  0  0  0  0  0
   25.1581  -19.7722  -10.0720 C   0  0  0  0  0  0  0  0  0  0  0  0
   25.5596  -21.1083  -10.7216 C   0  0  2  0  0  0  0  0  0  0  0  0
   26.9687  -21.3611  -10.2485 C   0  0  0  0  0  0  0  0  0  0  0  0
   25.3867  -20.9862  -12.1936 C   0  0  2  0  0  0  0  0  0  0  0  0
   26.4604  -20.1630  -12.6928 N   0  0  0  0  0  0  0  0  0  0  0  0
   24.0613  -20.5880  -12.6745 C   0  0  0  0  0  0  0  0  0  0  0  0
   23.7405  -19.3452  -12.6765 O   0  0  0  0  0  0  0  0  0  0  0  0
   23.0739  -21.4777  -13.1513 N   0  0  0  0  0  0  0  0  0  0  0  0
   21.8412  -20.9681  -13.6855 C   0  0  1  0  0  0  0  0  0  0  0  0
   21.4302  -21.5915  -14.9971 C   0  0  0  0  0  0  0  0  0  0  0  0
   20.2514  -20.9467  -15.5980 C   0  0  0  0  0  0  0  0  0  0  0  0
   20.1166  -19.6235  -15.9232 C   0  0  0  0  0  0  0  0  0  0  0  0
   18.8885  -19.3989  -16.4686 N   0  0  0  0  0  0  0  0  0  0  0  0
   18.2733  -20.5956  -16.4739 C   0  0  0  0  0  0  0  0  0  0  0  0
   19.1117  -21.5238  -15.9425 N   0  0  0  0  0  0  0  0  0  0  0  0
   20.7467  -21.2463  -12.7304 C   0  0  0  0  0  0  0  0  0  0  0  0
   20.8870  -22.1206  -11.8646 O   0  0  0  0  0  0  0  0  0  0  0  0
   19.5806  -20.5284  -12.8177 O   0  0  0  0  0  0  0  0  0  0  0  0
  2  1  1  6
  2  4  1  0
  2  3  1  0
  4  5  2  0
  7  6  1  1
  7  9  1  0
  8  7  1  0
  9 11  1  0
  9 10  1  1
 10  4  1  0
 11 12  2  0
 13 11  1  0
 13 14  1  0
 14 21  1  0
 15 16  1  0
 14 15  1  6
 16 20  1  0
 17 18  1  0
 17 16  2  0
 18 19  1  0
 19 20  2  0
 21 22  2  0
 21 23  1  0
M  END
$$$$
