AVH.pdb
     RDKit          3D

 23 23  0  0  1  0  0  0  0  0999 V2000
   33.4795   -5.6979  -15.2741 C   0  0  0  0  0  0  0  0  0  0  0  0
   34.2367   -6.7629  -16.0254 C   0  0  2  0  0  0  0  0  0  0  0  0
   35.3195   -6.2225  -16.8308 N   0  0  0  0  0  0  0  0  0  0  0  0
   33.3309   -7.4905  -16.9602 C   0  0  0  0  0  0  0  0  0  0  0  0
   32.9502   -6.8949  -17.9980 O   0  0  0  0  0  0  0  0  0  0  0  0
   32.6798  -11.6413  -16.7099 C   0  0  0  0  0  0  0  0  0  0  0  0
   32.6212  -10.8054  -18.0007 C   0  0  2  0  0  0  0  0  0  0  0  0
   34.0463  -10.7473  -18.4895 C   0  0  0  0  0  0  0  0  0  0  0  0
   31.9952   -9.4942  -17.6838 C   0  0  2  0  0  0  0  0  0  0  0  0
   32.8673   -8.8043  -16.7655 N   0  0  0  0  0  0  0  0  0  0  0  0
   30.5909   -9.5138  -17.2666 C   0  0  0  0  0  0  0  0  0  0  0  0
   30.3031   -9.3924  -16.0217 O   0  0  0  0  0  0  0  0  0  0  0  0
   29.4906   -9.6587  -18.1397 N   0  0  0  0  0  0  0  0  0  0  0  0
   28.1520   -9.6694  -17.6177 C   0  0  1  0  0  0  0  0  0  0  0  0
   27.3642   -8.4153  -17.9081 C   0  0  0  0  0  0  0  0  0  0  0  0
   26.0008   -8.4494  -17.3545 C   0  0  0  0  0  0  0  0  0  0  0  0
   25.4774   -9.4009  -16.5207 C   0  0  0  0  0  0  0  0  0  0  0  0
   24.1874   -9.0920  -16.2100 N   0  0  0  0  0  0  0  0  0  0  0  0
   23.9261   -7.9437  -16.8611 C   0  0  0  0  0  0  0  0  0  0  0  0
   25.0346   -7.5670  -17.5511 N   0  0  0  0  0  0  0  0  0  0  0  0
   27.4006  -10.7856  -18.2318 C   0  0  0  0  0  0  0  0  0  0  0  0
   27.8868  -11.4100  -19.1843 O   0  0  0  0  0  0  0  0  0  0  0  0
   26.1645  -11.1159  -17.7361 O   0  0  0  0  0  0  0  0  0  0  0  0
  2  1  1  6
  2  4  1  0
  2  3  1  0
  4  5  2  0
  7  6  1  1
  7  9  1  0
  8  7  1  0
  9 11  1  0
  9 10  1  1
 10  4  1  0
 11 12  2  0
 13 11  1  0
 13 14  1  0
 14 21  1  0
 15 16  1  0
 14 15  1  6
 16 20  1  0
 17 18  1  0
 17 16  2  0
 18 19  1  0
 19 20  2  0
 21 22  2  0
 21 23  1  0
M  END
$$$$
