AVH.pdb
     RDKit          3D

 23 23  0  0  1  0  0  0  0  0999 V2000
   15.5484  -10.4691  -15.0883 C   0  0  0  0  0  0  0  0  0  0  0  0
   17.0529  -10.5591  -15.0792 C   0  0  2  0  0  0  0  0  0  0  0  0
   17.5364  -11.9260  -15.1846 N   0  0  0  0  0  0  0  0  0  0  0  0
   17.6043  -10.0077  -13.8082 C   0  0  0  0  0  0  0  0  0  0  0  0
   17.5637  -10.7315  -12.7829 O   0  0  0  0  0  0  0  0  0  0  0  0
   20.9859   -8.7306  -13.0286 C   0  0  0  0  0  0  0  0  0  0  0  0
   20.0016   -7.5973  -12.6892 C   0  0  2  0  0  0  0  0  0  0  0  0
   20.6329   -6.8705  -11.5287 C   0  0  0  0  0  0  0  0  0  0  0  0
   18.6670   -8.1973  -12.4240 C   0  0  2  0  0  0  0  0  0  0  0  0
   18.1711   -8.7277  -13.6700 N   0  0  0  0  0  0  0  0  0  0  0  0
   17.6976   -7.3664  -11.7055 C   0  0  0  0  0  0  0  0  0  0  0  0
   17.1562   -6.3699  -12.3066 O   0  0  0  0  0  0  0  0  0  0  0  0
   17.2927   -7.5705  -10.3683 N   0  0  0  0  0  0  0  0  0  0  0  0
   16.3594   -6.6688   -9.7516 C   0  0  1  0  0  0  0  0  0  0  0  0
   15.5152   -7.2962   -8.6693 C   0  0  0  0  0  0  0  0  0  0  0  0
   14.4339   -8.1429   -9.1989 C   0  0  0  0  0  0  0  0  0  0  0  0
   14.1053   -8.3258  -10.5154 C   0  0  0  0  0  0  0  0  0  0  0  0
   13.0552   -9.1874  -10.6198 N   0  0  0  0  0  0  0  0  0  0  0  0
   12.7441   -9.5296   -9.3562 C   0  0  0  0  0  0  0  0  0  0  0  0
   13.5880   -8.8879   -8.5061 N   0  0  0  0  0  0  0  0  0  0  0  0
   17.1040   -5.5628   -9.1112 C   0  0  0  0  0  0  0  0  0  0  0  0
   18.2512   -5.7529   -8.6854 O   0  0  0  0  0  0  0  0  0  0  0  0
   16.5089   -4.3319   -8.9943 O   0  0  0  0  0  0  0  0  0  0  0  0
  2  1  1  1
  2  4  1  0
  2  3  1  0
  4  5  2  0
  7  6  1  1
  7  9  1  0
  8  7  1  0
  9 11  1  0
  9 10  1  6
 10  4  1  0
 11 12  2  0
 13 11  1  0
 13 14  1  0
 14 21  1  0
 15 16  1  0
 14 15  1  1
 16 20  1  0
 17 18  1  0
 17 16  2  0
 18 19  1  0
 19 20  2  0
 21 22  2  0
 21 23  1  0
M  END
$$$$
