AVH.pdb
     RDKit          3D

 23 23  0  0  1  0  0  0  0  0999 V2000
   12.8911   -6.9392   -8.2603 C   0  0  0  0  0  0  0  0  0  0  0  0
   13.3907   -8.2943   -7.8290 C   0  0  2  0  0  0  0  0  0  0  0  0
   13.6719   -8.3640   -6.4045 N   0  0  0  0  0  0  0  0  0  0  0  0
   14.6608   -8.6339   -8.5324 C   0  0  0  0  0  0  0  0  0  0  0  0
   15.7436   -8.2971   -7.9931 O   0  0  0  0  0  0  0  0  0  0  0  0
   15.8324  -11.9589   -9.9214 C   0  0  0  0  0  0  0  0  0  0  0  0
   15.8738  -10.9264  -11.0618 C   0  0  2  0  0  0  0  0  0  0  0  0
   17.0380  -11.3467  -11.9228 C   0  0  0  0  0  0  0  0  0  0  0  0
   15.9725   -9.5686  -10.4634 C   0  0  2  0  0  0  0  0  0  0  0  0
   14.7382   -9.3085   -9.7644 N   0  0  0  0  0  0  0  0  0  0  0  0
   16.3912   -8.4816  -11.3519 C   0  0  0  0  0  0  0  0  0  0  0  0
   15.6324   -8.1410  -12.3294 O   0  0  0  0  0  0  0  0  0  0  0  0
   17.5933   -7.7517  -11.2246 N   0  0  0  0  0  0  0  0  0  0  0  0
   17.9115   -6.7157  -12.1680 C   0  0  1  0  0  0  0  0  0  0  0  0
   18.7831   -5.6170  -11.6105 C   0  0  0  0  0  0  0  0  0  0  0  0
   18.0962   -4.7896  -10.6055 C   0  0  0  0  0  0  0  0  0  0  0  0
   16.7878   -4.8908  -10.2149 C   0  0  0  0  0  0  0  0  0  0  0  0
   16.5129   -3.9627   -9.2562 N   0  0  0  0  0  0  0  0  0  0  0  0
   17.6640   -3.2928   -9.0640 C   0  0  0  0  0  0  0  0  0  0  0  0
   18.6143   -3.8049   -9.8895 N   0  0  0  0  0  0  0  0  0  0  0  0
   18.6567   -7.3044  -13.3020 C   0  0  0  0  0  0  0  0  0  0  0  0
   19.1079   -8.4545  -13.2167 O   0  0  0  0  0  0  0  0  0  0  0  0
   18.8416   -6.5625  -14.4414 O   0  0  0  0  0  0  0  0  0  0  0  0
  2  1  1  6
  2  4  1  0
  2  3  1  0
  4  5  2  0
  7  6  1  1
  7  9  1  0
  8  7  1  0
  9 11  1  0
  9 10  1  6
 10  4  1  0
 11 12  2  0
 13 11  1  0
 13 14  1  0
 14 21  1  0
 15 16  1  0
 14 15  1  1
 16 20  1  0
 17 18  1  0
 17 16  2  0
 18 19  1  0
 19 20  2  0
 21 22  2  0
 21 23  1  0
M  END
$$$$
