AVH.pdb
     RDKit          3D

 23 23  0  0  1  0  0  0  0  0999 V2000
   20.7122  -12.0192  -20.0383 C   0  0  0  0  0  0  0  0  0  0  0  0
   21.5860  -13.0603  -19.3869 C   0  0  2  0  0  0  0  0  0  0  0  0
   21.1419  -14.4179  -19.6569 N   0  0  0  0  0  0  0  0  0  0  0  0
   21.5823  -12.8963  -17.9048 C   0  0  0  0  0  0  0  0  0  0  0  0
   20.4876  -13.0097  -17.3002 O   0  0  0  0  0  0  0  0  0  0  0  0
   25.1609  -12.3737  -15.6533 C   0  0  0  0  0  0  0  0  0  0  0  0
   23.9468  -13.1968  -15.1878 C   0  0  2  0  0  0  0  0  0  0  0  0
   24.1995  -14.5888  -15.7095 C   0  0  0  0  0  0  0  0  0  0  0  0
   22.7115  -12.5364  -15.6871 C   0  0  2  0  0  0  0  0  0  0  0  0
   22.7217  -12.6222  -17.1267 N   0  0  0  0  0  0  0  0  0  0  0  0
   22.4243  -11.1941  -15.1751 C   0  0  0  0  0  0  0  0  0  0  0  0
   22.1433  -11.0422  -13.9320 O   0  0  0  0  0  0  0  0  0  0  0  0
   22.4293  -10.0149  -15.9519 N   0  0  0  0  0  0  0  0  0  0  0  0
   21.9766   -8.7751  -15.3840 C   0  0  1  0  0  0  0  0  0  0  0  0
   22.4873   -7.5456  -16.0946 C   0  0  0  0  0  0  0  0  0  0  0  0
   22.0174   -6.2905  -15.4860 C   0  0  0  0  0  0  0  0  0  0  0  0
   22.3382   -5.8103  -14.2445 C   0  0  0  0  0  0  0  0  0  0  0  0
   21.7211   -4.6145  -14.0319 N   0  0  0  0  0  0  0  0  0  0  0  0
   21.0200   -4.3675  -15.1535 C   0  0  0  0  0  0  0  0  0  0  0  0
   21.2090   -5.3926  -16.0254 N   0  0  0  0  0  0  0  0  0  0  0  0
   20.5005   -8.7174  -15.4591 C   0  0  0  0  0  0  0  0  0  0  0  0
   19.9025   -9.3106  -16.3670 O   0  0  0  0  0  0  0  0  0  0  0  0
   19.8078   -8.0003  -14.5165 O   0  0  0  0  0  0  0  0  0  0  0  0
  2  1  1  6
  2  4  1  0
  2  3  1  0
  4  5  2  0
  7  6  1  6
  7  9  1  0
  8  7  1  0
  9 11  1  0
  9 10  1  6
 10  4  1  0
 11 12  2  0
 13 11  1  0
 13 14  1  0
 14 21  1  0
 15 16  1  0
 14 15  1  6
 16 20  1  0
 17 18  1  0
 17 16  2  0
 18 19  1  0
 19 20  2  0
 21 22  2  0
 21 23  1  0
M  END
$$$$
