AVH.pdb
     RDKit          3D

 23 23  0  0  1  0  0  0  0  0999 V2000
   15.5957  -13.6543  -14.9672 C   0  0  0  0  0  0  0  0  0  0  0  0
   16.8368  -12.9743  -15.4860 C   0  0  2  0  0  0  0  0  0  0  0  0
   17.9157  -13.9076  -15.7657 N   0  0  0  0  0  0  0  0  0  0  0  0
   17.3613  -12.0030  -14.4835 C   0  0  0  0  0  0  0  0  0  0  0  0
   18.0355  -12.4504  -13.5233 O   0  0  0  0  0  0  0  0  0  0  0  0
   17.7404   -7.9888  -15.3692 C   0  0  0  0  0  0  0  0  0  0  0  0
   18.6045   -8.7521  -14.3499 C   0  0  2  0  0  0  0  0  0  0  0  0
   19.6879   -9.4036  -15.1715 C   0  0  0  0  0  0  0  0  0  0  0  0
   17.7258   -9.6808  -13.5905 C   0  0  2  0  0  0  0  0  0  0  0  0
   17.1563  -10.6122  -14.5329 N   0  0  0  0  0  0  0  0  0  0  0  0
   16.7433   -9.0748  -12.6883 C   0  0  0  0  0  0  0  0  0  0  0  0
   15.5775   -8.7785  -13.1360 O   0  0  0  0  0  0  0  0  0  0  0  0
   16.9717   -8.7783  -11.3267 N   0  0  0  0  0  0  0  0  0  0  0  0
   15.9447   -8.1486  -10.5435 C   0  0  1  0  0  0  0  0  0  0  0  0
   16.0935   -8.3452   -9.0546 C   0  0  0  0  0  0  0  0  0  0  0  0
   15.0425   -7.6704   -8.2757 C   0  0  0  0  0  0  0  0  0  0  0  0
   13.7981   -8.1594   -7.9808 C   0  0  0  0  0  0  0  0  0  0  0  0
   13.1060   -7.2558   -7.2322 N   0  0  0  0  0  0  0  0  0  0  0  0
   13.9374   -6.2099   -7.0720 C   0  0  0  0  0  0  0  0  0  0  0  0
   15.1070   -6.4757   -7.7108 N   0  0  0  0  0  0  0  0  0  0  0  0
   15.9828   -6.6886  -10.7773 C   0  0  0  0  0  0  0  0  0  0  0  0
   17.0701   -6.1094  -10.9038 O   0  0  0  0  0  0  0  0  0  0  0  0
   14.8045   -5.9892  -10.8493 O   0  0  0  0  0  0  0  0  0  0  0  0
  2  1  1  1
  2  4  1  0
  2  3  1  0
  4  5  2  0
  7  6  1  6
  7  9  1  0
  8  7  1  0
  9 11  1  0
  9 10  1  6
 10  4  1  0
 11 12  2  0
 13 11  1  0
 13 14  1  0
 14 21  1  0
 15 16  1  0
 14 15  1  1
 16 20  1  0
 17 18  1  0
 17 16  2  0
 18 19  1  0
 19 20  2  0
 21 22  2  0
 21 23  1  0
M  END
$$$$
