AVH.pdb
     RDKit          3D

 23 23  0  0  1  0  0  0  0  0999 V2000
   16.5853  -10.9658  -15.0444 C   0  0  0  0  0  0  0  0  0  0  0  0
   17.5630  -11.0902  -16.1847 C   0  0  2  0  0  0  0  0  0  0  0  0
   17.9881  -12.4611  -16.4156 N   0  0  0  0  0  0  0  0  0  0  0  0
   18.7974  -10.3013  -15.9065 C   0  0  0  0  0  0  0  0  0  0  0  0
   19.7050  -10.8430  -15.2287 O   0  0  0  0  0  0  0  0  0  0  0  0
   19.8489   -7.1052  -18.2456 C   0  0  0  0  0  0  0  0  0  0  0  0
   20.8498   -7.9488  -17.4362 C   0  0  2  0  0  0  0  0  0  0  0  0
   21.1472   -9.1410  -18.3100 C   0  0  0  0  0  0  0  0  0  0  0  0
   20.2444   -8.2552  -16.1129 C   0  0  2  0  0  0  0  0  0  0  0  0
   19.0236   -8.9855  -16.3496 N   0  0  0  0  0  0  0  0  0  0  0  0
   20.0949   -7.1375  -15.1776 C   0  0  0  0  0  0  0  0  0  0  0  0
   19.1032   -6.3339  -15.3116 O   0  0  0  0  0  0  0  0  0  0  0  0
   20.9725   -6.8567  -14.1075 N   0  0  0  0  0  0  0  0  0  0  0  0
   20.7421   -5.7146  -13.2666 C   0  0  1  0  0  0  0  0  0  0  0  0
   20.6714   -6.0347  -11.7934 C   0  0  0  0  0  0  0  0  0  0  0  0
   19.4545   -6.7747  -11.4216 C   0  0  0  0  0  0  0  0  0  0  0  0
   18.4926   -7.2517  -12.2713 C   0  0  0  0  0  0  0  0  0  0  0  0
   17.5207   -7.8931  -11.5643 N   0  0  0  0  0  0  0  0  0  0  0  0
   17.8959   -7.8041  -10.2751 C   0  0  0  0  0  0  0  0  0  0  0  0
   19.0696   -7.1228  -10.2046 N   0  0  0  0  0  0  0  0  0  0  0  0
   21.8574   -4.7572  -13.4323 C   0  0  0  0  0  0  0  0  0  0  0  0
   22.8339   -5.0584  -14.1319 O   0  0  0  0  0  0  0  0  0  0  0  0
   21.7964   -3.5398  -12.8024 O   0  0  0  0  0  0  0  0  0  0  0  0
  2  1  1  1
  2  4  1  0
  2  3  1  0
  4  5  2  0
  7  6  1  6
  7  9  1  0
  8  7  1  0
  9 11  1  0
  9 10  1  6
 10  4  1  0
 11 12  2  0
 13 11  1  0
 13 14  1  0
 14 21  1  0
 15 16  1  0
 14 15  1  1
 16 20  1  0
 17 18  1  0
 17 16  2  0
 18 19  1  0
 19 20  2  0
 21 22  2  0
 21 23  1  0
M  END
$$$$
