AVH.pdb
     RDKit          3D

 23 23  0  0  1  0  0  0  0  0999 V2000
   18.2667  -22.5368   -8.6118 C   0  0  0  0  0  0  0  0  0  0  0  0
   18.5962  -23.9736   -8.9261 C   0  0  2  0  0  0  0  0  0  0  0  0
   18.1992  -24.3619  -10.2696 N   0  0  0  0  0  0  0  0  0  0  0  0
   17.8876  -24.8919   -7.9890 C   0  0  0  0  0  0  0  0  0  0  0  0
   16.6355  -24.9559   -8.0577 O   0  0  0  0  0  0  0  0  0  0  0  0
   18.0764  -28.3650   -8.0258 C   0  0  0  0  0  0  0  0  0  0  0  0
   18.4402  -28.0173   -6.5715 C   0  0  2  0  0  0  0  0  0  0  0  0
   17.9410  -29.1843   -5.7577 C   0  0  0  0  0  0  0  0  0  0  0  0
   17.8409  -26.6974   -6.2395 C   0  0  2  0  0  0  0  0  0  0  0  0
   18.5212  -25.6984   -7.0263 N   0  0  0  0  0  0  0  0  0  0  0  0
   17.7295  -26.3586   -4.8186 C   0  0  0  0  0  0  0  0  0  0  0  0
   18.7593  -25.9119   -4.1962 O   0  0  0  0  0  0  0  0  0  0  0  0
   16.5528  -26.4834   -4.0480 N   0  0  0  0  0  0  0  0  0  0  0  0
   16.5234  -26.0049   -2.6935 C   0  0  1  0  0  0  0  0  0  0  0  0
   15.1394  -25.7016   -2.1739 C   0  0  0  0  0  0  0  0  0  0  0  0
   14.5648  -24.4730   -2.7459 C   0  0  0  0  0  0  0  0  0  0  0  0
   15.2200  -23.2946   -2.9841 C   0  0  0  0  0  0  0  0  0  0  0  0
   14.3640  -22.3856   -3.5291 N   0  0  0  0  0  0  0  0  0  0  0  0
   13.1798  -23.0178   -3.6219 C   0  0  0  0  0  0  0  0  0  0  0  0
   13.3171  -24.2820   -3.1426 N   0  0  0  0  0  0  0  0  0  0  0  0
   17.0863  -27.0410   -1.8006 C   0  0  0  0  0  0  0  0  0  0  0  0
   17.1148  -28.2243   -2.1650 O   0  0  0  0  0  0  0  0  0  0  0  0
   17.5713  -26.6757   -0.5701 O   0  0  0  0  0  0  0  0  0  0  0  0
  2  1  1  1
  2  4  1  0
  2  3  1  0
  4  5  2  0
  7  6  1  6
  7  9  1  0
  8  7  1  0
  9 11  1  0
  9 10  1  6
 10  4  1  0
 11 12  2  0
 13 11  1  0
 13 14  1  0
 14 21  1  0
 15 16  1  0
 14 15  1  1
 16 20  1  0
 17 18  1  0
 17 16  2  0
 18 19  1  0
 19 20  2  0
 21 22  2  0
 21 23  1  0
M  END
$$$$
