AVH.pdb
     RDKit          3D

 23 23  0  0  1  0  0  0  0  0999 V2000
   13.5577  -12.5570    5.6694 C   0  0  0  0  0  0  0  0  0  0  0  0
   14.7613  -12.0578    4.9117 C   0  0  2  0  0  0  0  0  0  0  0  0
   14.5684  -12.0777    3.4710 N   0  0  0  0  0  0  0  0  0  0  0  0
   15.9511  -12.9108    5.1952 C   0  0  0  0  0  0  0  0  0  0  0  0
   16.1022  -13.9583    4.5194 O   0  0  0  0  0  0  0  0  0  0  0  0
   19.6140  -11.5820    5.7337 C   0  0  0  0  0  0  0  0  0  0  0  0
   19.1769  -12.5101    6.8808 C   0  0  2  0  0  0  0  0  0  0  0  0
   20.4458  -13.1828    7.3399 C   0  0  0  0  0  0  0  0  0  0  0  0
   18.1145  -13.4180    6.3722 C   0  0  2  0  0  0  0  0  0  0  0  0
   16.9248  -12.6283    6.1704 N   0  0  0  0  0  0  0  0  0  0  0  0
   17.8847  -14.6552    7.1225 C   0  0  0  0  0  0  0  0  0  0  0  0
   17.2725  -14.6026    8.2493 O   0  0  0  0  0  0  0  0  0  0  0  0
   18.2896  -15.9413    6.7032 N   0  0  0  0  0  0  0  0  0  0  0  0
   17.9659  -17.0941    7.4975 C   0  0  1  0  0  0  0  0  0  0  0  0
   17.6093  -18.3201    6.6929 C   0  0  0  0  0  0  0  0  0  0  0  0
   16.2828  -18.2300    6.0613 C   0  0  0  0  0  0  0  0  0  0  0  0
   15.0953  -17.9518    6.6833 C   0  0  0  0  0  0  0  0  0  0  0  0
   14.0815  -17.9437    5.7733 N   0  0  0  0  0  0  0  0  0  0  0  0
   14.6589  -18.2196    4.5896 C   0  0  0  0  0  0  0  0  0  0  0  0
   15.9934  -18.3914    4.7804 N   0  0  0  0  0  0  0  0  0  0  0  0
   19.1391  -17.4616    8.3199 C   0  0  0  0  0  0  0  0  0  0  0  0
   19.0349  -18.3329    9.1938 O   0  0  0  0  0  0  0  0  0  0  0  0
   20.3360  -16.8263    8.1040 O   0  0  0  0  0  0  0  0  0  0  0  0
  2  1  1  1
  2  4  1  0
  2  3  1  0
  4  5  2  0
  7  6  1  6
  7  9  1  0
  8  7  1  0
  9 11  1  0
  9 10  1  1
 10  4  1  0
 11 12  2  0
 13 11  1  0
 13 14  1  0
 14 21  1  0
 15 16  1  0
 14 15  1  6
 16 20  1  0
 17 18  1  0
 17 16  2  0
 18 19  1  0
 19 20  2  0
 21 22  2  0
 21 23  1  0
M  END
$$$$
