WHD.pdb
     RDKit          3D

 33 35  0  0  1  0  0  0  0  0999 V2000
    6.5502  -16.6090   23.0146 N   0  0  0  0  0  0  0  0  0  0  0  0
    7.6281  -15.6362   22.9940 C   0  0  1  0  0  0  0  0  0  0  0  0
    8.2608  -15.6156   24.3896 C   0  0  0  0  0  0  0  0  0  0  0  0
    7.3127  -14.9144   25.2838 C   0  0  0  0  0  0  0  0  0  0  0  0
    6.2700  -15.4873   25.9743 C   0  0  0  0  0  0  0  0  0  0  0  0
    5.6163  -14.5519   26.6853 N   0  0  0  0  0  0  0  0  0  0  0  0
    6.2238  -13.3997   26.4590 C   0  0  0  0  0  0  0  0  0  0  0  0
    5.9890  -12.1096   26.9221 C   0  0  0  0  0  0  0  0  0  0  0  0
    6.7974  -11.0684   26.5179 C   0  0  0  0  0  0  0  0  0  0  0  0
    7.8471  -11.2453   25.6611 C   0  0  0  0  0  0  0  0  0  0  0  0
    8.0929  -12.5321   25.1899 C   0  0  0  0  0  0  0  0  0  0  0  0
    7.2961  -13.5769   25.5844 C   0  0  0  0  0  0  0  0  0  0  0  0
    8.6149  -15.9493   21.9452 C   0  0  0  0  0  0  0  0  0  0  0  0
    8.7391  -17.1459   21.5832 O   0  0  0  0  0  0  0  0  0  0  0  0
    9.3851  -14.8973   21.3844 N   0  0  0  0  0  0  0  0  0  0  0  0
   10.3695  -15.1512   20.3654 C   0  0  1  0  0  0  0  0  0  0  0  0
   10.4275  -14.0189   19.3511 C   0  0  0  0  0  0  0  0  0  0  0  0
    9.1222  -13.9057   18.6322 C   0  0  0  0  0  0  0  0  0  0  0  0
    8.1871  -12.8908   18.7722 C   0  0  0  0  0  0  0  0  0  0  0  0
    7.1426  -13.1387   17.9582 N   0  0  0  0  0  0  0  0  0  0  0  0
    7.3988  -14.2832   17.3114 C   0  0  0  0  0  0  0  0  0  0  0  0
    8.5856  -14.7398   17.7176 N   0  0  0  0  0  0  0  0  0  0  0  0
   11.6934  -15.3880   20.9849 C   0  0  0  0  0  0  0  0  0  0  0  0
   12.7112  -14.7385   20.6321 O   0  0  0  0  0  0  0  0  0  0  0  0
   11.8250  -16.3697   22.0015 N   0  0  0  0  0  0  0  0  0  0  0  0
   13.1425  -16.5897   22.6012 C   0  0  1  0  0  0  0  0  0  0  0  0
   13.0011  -16.9134   24.0620 C   0  0  0  0  0  0  0  0  0  0  0  0
   14.2536  -17.2192   24.7615 C   0  0  0  0  0  0  0  0  0  0  0  0
   15.3864  -17.1581   24.2414 O   0  0  0  0  0  0  0  0  0  0  0  0
   13.7505  -17.6866   21.8116 C   0  0  0  0  0  0  0  0  0  0  0  0
   15.0459  -17.6714   21.3423 O   0  0  0  0  0  0  0  0  0  0  0  0
   14.2115  -17.6097   26.1056 O   0  0  0  0  0  0  0  0  0  0  0  0
   13.0943  -18.7509   21.5041 O   0  0  0  0  0  0  0  0  0  0  0  0
  2  1  1  1
  2  3  1  0
  3  4  1  0
  4  5  2  0
  6  5  1  0
  7  6  1  0
  8  7  2  0
  9  8  1  0
 10 11  1  0
 10  9  2  0
 11 12  2  0
 12  7  1  0
 12  4  1  0
 13 14  2  0
 13  2  1  0
 15 13  1  0
 16 15  1  0
 16 17  1  6
 18 17  1  0
 18 22  1  0
 19 20  1  0
 19 18  2  0
 20 21  1  0
 21 22  2  0
 23 16  1  0
 24 23  2  0
 25 23  1  0
 26 25  1  0
 26 27  1  1
 27 28  1  0
 28 29  2  0
 30 26  1  0
 30 31  1  0
 32 28  1  0
 33 30  2  0
M  END
$$$$
