WHD.pdb
     RDKit          3D

 33 35  0  0  1  0  0  0  0  0999 V2000
    6.2172  -17.1929   23.9454 N   0  0  0  0  0  0  0  0  0  0  0  0
    7.1690  -16.1094   23.7762 C   0  0  1  0  0  0  0  0  0  0  0  0
    7.8392  -15.8650   25.1326 C   0  0  0  0  0  0  0  0  0  0  0  0
    7.0007  -14.8852   25.8587 C   0  0  0  0  0  0  0  0  0  0  0  0
    5.7620  -15.1230   26.4076 C   0  0  0  0  0  0  0  0  0  0  0  0
    5.2908  -14.0056   26.9882 N   0  0  0  0  0  0  0  0  0  0  0  0
    6.2055  -13.0663   26.8181 C   0  0  0  0  0  0  0  0  0  0  0  0
    6.2610  -11.7313   27.2035 C   0  0  0  0  0  0  0  0  0  0  0  0
    7.3618  -10.9626   26.8897 C   0  0  0  0  0  0  0  0  0  0  0  0
    8.4309  -11.4606   26.1997 C   0  0  0  0  0  0  0  0  0  0  0  0
    8.3879  -12.7957   25.8077 C   0  0  0  0  0  0  0  0  0  0  0  0
    7.2986  -13.5715   26.1136 C   0  0  0  0  0  0  0  0  0  0  0  0
    8.1522  -16.4172   22.7224 C   0  0  0  0  0  0  0  0  0  0  0  0
    8.3652  -17.6230   22.4411 O   0  0  0  0  0  0  0  0  0  0  0  0
    8.8196  -15.3501   22.0665 N   0  0  0  0  0  0  0  0  0  0  0  0
    9.8543  -15.5973   21.0970 C   0  0  1  0  0  0  0  0  0  0  0  0
   10.0601  -14.3992   20.1825 C   0  0  0  0  0  0  0  0  0  0  0  0
    8.9641  -14.3326   19.1686 C   0  0  0  0  0  0  0  0  0  0  0  0
    7.9825  -13.3569   19.0758 C   0  0  0  0  0  0  0  0  0  0  0  0
    7.1771  -13.6400   18.0336 N   0  0  0  0  0  0  0  0  0  0  0  0
    7.6285  -14.7682   17.4705 C   0  0  0  0  0  0  0  0  0  0  0  0
    8.6992  -15.1802   18.1530 N   0  0  0  0  0  0  0  0  0  0  0  0
   11.1121  -15.9754   21.7808 C   0  0  0  0  0  0  0  0  0  0  0  0
   11.6719  -15.2053   22.6029 O   0  0  0  0  0  0  0  0  0  0  0  0
   11.7064  -17.2350   21.5071 N   0  0  0  0  0  0  0  0  0  0  0  0
   12.9274  -17.6078   22.2239 C   0  0  1  0  0  0  0  0  0  0  0  0
   13.0360  -19.1035   22.3227 C   0  0  0  0  0  0  0  0  0  0  0  0
   14.3094  -19.6073   22.8481 C   0  0  0  0  0  0  0  0  0  0  0  0
   15.2385  -18.8842   23.2621 O   0  0  0  0  0  0  0  0  0  0  0  0
   14.0331  -16.9870   21.4567 C   0  0  0  0  0  0  0  0  0  0  0  0
   14.0988  -16.9661   20.0805 O   0  0  0  0  0  0  0  0  0  0  0  0
   14.5309  -20.9889   22.9029 O   0  0  0  0  0  0  0  0  0  0  0  0
   15.0287  -16.4131   22.0375 O   0  0  0  0  0  0  0  0  0  0  0  0
  2  1  1  1
  2  3  1  0
  3  4  1  0
  4  5  2  0
  6  5  1  0
  7  6  1  0
  8  7  2  0
  9  8  1  0
 10 11  1  0
 10  9  2  0
 11 12  2  0
 12  7  1  0
 12  4  1  0
 13 14  2  0
 13  2  1  0
 15 13  1  0
 16 15  1  0
 16 17  1  1
 18 17  1  0
 18 22  1  0
 19 20  1  0
 19 18  2  0
 20 21  1  0
 21 22  2  0
 23 16  1  0
 24 23  2  0
 25 23  1  0
 26 25  1  0
 26 27  1  6
 27 28  1  0
 28 29  2  0
 30 26  1  0
 30 31  1  0
 32 28  1  0
 33 30  2  0
M  END
$$$$
