WHD.pdb
     RDKit          3D

 33 35  0  0  1  0  0  0  0  0999 V2000
    6.3374  -17.2360   23.8784 N   0  0  0  0  0  0  0  0  0  0  0  0
    7.3731  -16.2201   23.8162 C   0  0  1  0  0  0  0  0  0  0  0  0
    7.9339  -16.0425   25.2313 C   0  0  0  0  0  0  0  0  0  0  0  0
    7.0655  -15.0621   25.9206 C   0  0  0  0  0  0  0  0  0  0  0  0
    5.8442  -15.3213   26.4979 C   0  0  0  0  0  0  0  0  0  0  0  0
    5.3356  -14.1961   27.0298 N   0  0  0  0  0  0  0  0  0  0  0  0
    6.2095  -13.2309   26.8010 C   0  0  0  0  0  0  0  0  0  0  0  0
    6.2159  -11.8772   27.1200 C   0  0  0  0  0  0  0  0  0  0  0  0
    7.2810  -11.0821   26.7534 C   0  0  0  0  0  0  0  0  0  0  0  0
    8.3608  -11.5708   26.0734 C   0  0  0  0  0  0  0  0  0  0  0  0
    8.3668  -12.9244   25.7478 C   0  0  0  0  0  0  0  0  0  0  0  0
    7.3134  -13.7266   26.1067 C   0  0  0  0  0  0  0  0  0  0  0  0
    8.4234  -16.5817   22.8478 C   0  0  0  0  0  0  0  0  0  0  0  0
    8.8156  -17.7748   22.8132 O   0  0  0  0  0  0  0  0  0  0  0  0
    8.9519  -15.5785   21.9942 N   0  0  0  0  0  0  0  0  0  0  0  0
   10.0583  -15.8505   21.1146 C   0  0  1  0  0  0  0  0  0  0  0  0
   10.3197  -14.6867   20.1704 C   0  0  0  0  0  0  0  0  0  0  0  0
    9.1457  -14.4832   19.2684 C   0  0  0  0  0  0  0  0  0  0  0  0
    8.4392  -15.4698   18.5963 C   0  0  0  0  0  0  0  0  0  0  0  0
    7.4499  -14.8959   17.8844 N   0  0  0  0  0  0  0  0  0  0  0  0
    7.5179  -13.5746   18.0927 C   0  0  0  0  0  0  0  0  0  0  0  0
    8.5349  -13.3311   18.9224 N   0  0  0  0  0  0  0  0  0  0  0  0
   11.2653  -16.1853   21.9041 C   0  0  0  0  0  0  0  0  0  0  0  0
   11.7660  -15.3691   22.7199 O   0  0  0  0  0  0  0  0  0  0  0  0
   11.8778  -17.4555   21.7420 N   0  0  0  0  0  0  0  0  0  0  0  0
   13.0418  -17.7860   22.5663 C   0  0  1  0  0  0  0  0  0  0  0  0
   12.7093  -18.9083   23.5090 C   0  0  0  0  0  0  0  0  0  0  0  0
   13.8526  -19.4910   24.2196 C   0  0  0  0  0  0  0  0  0  0  0  0
   14.4622  -18.9331   25.1548 O   0  0  0  0  0  0  0  0  0  0  0  0
   14.1161  -18.1252   21.6033 C   0  0  0  0  0  0  0  0  0  0  0  0
   15.4559  -17.9011   21.8337 O   0  0  0  0  0  0  0  0  0  0  0  0
   14.3179  -20.7585   23.8486 O   0  0  0  0  0  0  0  0  0  0  0  0
   13.8637  -18.6638   20.4613 O   0  0  0  0  0  0  0  0  0  0  0  0
  2  1  1  1
  2  3  1  0
  3  4  1  0
  4  5  2  0
  6  5  1  0
  7  6  1  0
  8  7  2  0
  9  8  1  0
 10 11  1  0
 10  9  2  0
 11 12  2  0
 12  7  1  0
 12  4  1  0
 13 14  2  0
 13  2  1  0
 15 13  1  0
 16 15  1  0
 16 17  1  1
 18 17  1  0
 18 22  1  0
 19 20  1  0
 19 18  2  0
 20 21  1  0
 21 22  2  0
 23 16  1  0
 24 23  2  0
 25 23  1  0
 26 25  1  0
 26 27  1  1
 27 28  1  0
 28 29  2  0
 30 26  1  0
 30 31  1  0
 32 28  1  0
 33 30  2  0
M  END
$$$$
