WHD.pdb
     RDKit          3D

 33 35  0  0  1  0  0  0  0  0999 V2000
    6.5811  -17.2532   24.1152 N   0  0  0  0  0  0  0  0  0  0  0  0
    7.7145  -16.4426   23.7070 C   0  0  1  0  0  0  0  0  0  0  0  0
    8.2330  -15.7111   24.9500 C   0  0  0  0  0  0  0  0  0  0  0  0
    7.1454  -14.8202   25.4124 C   0  0  0  0  0  0  0  0  0  0  0  0
    5.8620  -15.2000   25.7299 C   0  0  0  0  0  0  0  0  0  0  0  0
    5.1429  -14.1291   26.1092 N   0  0  0  0  0  0  0  0  0  0  0  0
    5.9446  -13.0803   26.0382 C   0  0  0  0  0  0  0  0  0  0  0  0
    5.7483  -11.7305   26.3097 C   0  0  0  0  0  0  0  0  0  0  0  0
    6.7818  -10.8321   26.1491 C   0  0  0  0  0  0  0  0  0  0  0  0
    8.0240  -11.2118   25.7247 C   0  0  0  0  0  0  0  0  0  0  0  0
    8.2336  -12.5603   25.4493 C   0  0  0  0  0  0  0  0  0  0  0  0
    7.2138  -13.4646   25.6050 C   0  0  0  0  0  0  0  0  0  0  0  0
    8.7616  -17.2629   23.0726 C   0  0  0  0  0  0  0  0  0  0  0  0
    9.3566  -18.1166   23.7766 O   0  0  0  0  0  0  0  0  0  0  0  0
    9.0599  -17.0624   21.6996 N   0  0  0  0  0  0  0  0  0  0  0  0
   10.0459  -16.1013   21.2803 C   0  0  1  0  0  0  0  0  0  0  0  0
    9.5869  -14.6764   21.5511 C   0  0  0  0  0  0  0  0  0  0  0  0
    8.7314  -14.1898   20.4265 C   0  0  0  0  0  0  0  0  0  0  0  0
    8.4028  -14.8904   19.2752 C   0  0  0  0  0  0  0  0  0  0  0  0
    7.6139  -14.1203   18.5009 N   0  0  0  0  0  0  0  0  0  0  0  0
    7.4395  -12.9547   19.1370 C   0  0  0  0  0  0  0  0  0  0  0  0
    8.1103  -12.9999   20.2902 N   0  0  0  0  0  0  0  0  0  0  0  0
   11.3427  -16.3835   21.9369 C   0  0  0  0  0  0  0  0  0  0  0  0
   12.3637  -15.6861   21.7054 O   0  0  0  0  0  0  0  0  0  0  0  0
   11.4441  -17.4653   22.8503 N   0  0  0  0  0  0  0  0  0  0  0  0
   12.7556  -17.7890   23.4151 C   0  0  1  0  0  0  0  0  0  0  0  0
   12.5954  -18.6118   24.6625 C   0  0  0  0  0  0  0  0  0  0  0  0
   12.2012  -17.8643   25.8614 C   0  0  0  0  0  0  0  0  0  0  0  0
   12.3519  -16.6342   26.0085 O   0  0  0  0  0  0  0  0  0  0  0  0
   13.4807  -18.4959   22.3330 C   0  0  0  0  0  0  0  0  0  0  0  0
   14.8277  -18.3473   22.0837 O   0  0  0  0  0  0  0  0  0  0  0  0
   11.6128  -18.5468   26.9333 O   0  0  0  0  0  0  0  0  0  0  0  0
   12.8875  -19.3142   21.5353 O   0  0  0  0  0  0  0  0  0  0  0  0
  2  1  1  1
  2  3  1  0
  3  4  1  0
  4  5  2  0
  6  5  1  0
  7  6  1  0
  8  7  2  0
  9  8  1  0
 10 11  1  0
 10  9  2  0
 11 12  2  0
 12  7  1  0
 12  4  1  0
 13 14  2  0
 13  2  1  0
 15 13  1  0
 16 15  1  0
 16 17  1  1
 18 17  1  0
 18 22  1  0
 19 20  1  0
 19 18  2  0
 20 21  1  0
 21 22  2  0
 23 16  1  0
 24 23  2  0
 25 23  1  0
 26 25  1  0
 26 27  1  1
 27 28  1  0
 28 29  2  0
 30 26  1  0
 30 31  1  0
 32 28  1  0
 33 30  2  0
M  END
$$$$
