WHD.pdb
     RDKit          3D

 33 35  0  0  1  0  0  0  0  0999 V2000
    6.1119  -17.1576   23.4507 N   0  0  0  0  0  0  0  0  0  0  0  0
    7.1253  -16.1216   23.3604 C   0  0  1  0  0  0  0  0  0  0  0  0
    7.7412  -15.9528   24.7536 C   0  0  0  0  0  0  0  0  0  0  0  0
    6.8589  -15.0349   25.5080 C   0  0  0  0  0  0  0  0  0  0  0  0
    5.7280  -15.3854   26.2084 C   0  0  0  0  0  0  0  0  0  0  0  0
    5.1738  -14.2957   26.7680 N   0  0  0  0  0  0  0  0  0  0  0  0
    5.9304  -13.2636   26.4362 C   0  0  0  0  0  0  0  0  0  0  0  0
    5.8452  -11.9066   26.7287 C   0  0  0  0  0  0  0  0  0  0  0  0
    6.7932  -11.0306   26.2440 C   0  0  0  0  0  0  0  0  0  0  0  0
    7.8414  -11.4400   25.4689 C   0  0  0  0  0  0  0  0  0  0  0  0
    7.9382  -12.7959   25.1686 C   0  0  0  0  0  0  0  0  0  0  0  0
    7.0017  -13.6782   25.6447 C   0  0  0  0  0  0  0  0  0  0  0  0
    8.1409  -16.4499   22.3442 C   0  0  0  0  0  0  0  0  0  0  0  0
    8.0536  -17.5539   21.7509 O   0  0  0  0  0  0  0  0  0  0  0  0
    9.1742  -15.5157   22.0724 N   0  0  0  0  0  0  0  0  0  0  0  0
   10.1686  -15.7717   21.0637 C   0  0  1  0  0  0  0  0  0  0  0  0
   10.3433  -14.5782   20.1367 C   0  0  0  0  0  0  0  0  0  0  0  0
    9.0357  -14.2204   19.5078 C   0  0  0  0  0  0  0  0  0  0  0  0
    8.3601  -13.0155   19.6343 C   0  0  0  0  0  0  0  0  0  0  0  0
    7.2190  -13.0731   18.9206 N   0  0  0  0  0  0  0  0  0  0  0  0
    7.1615  -14.2833   18.3499 C   0  0  0  0  0  0  0  0  0  0  0  0
    8.2515  -14.9679   18.7038 N   0  0  0  0  0  0  0  0  0  0  0  0
   11.4507  -16.1529   21.6987 C   0  0  0  0  0  0  0  0  0  0  0  0
   12.5138  -16.2450   21.0326 O   0  0  0  0  0  0  0  0  0  0  0  0
   11.4891  -16.4227   23.0918 N   0  0  0  0  0  0  0  0  0  0  0  0
   12.7673  -16.7936   23.7019 C   0  0  1  0  0  0  0  0  0  0  0  0
   12.6969  -16.6321   25.1945 C   0  0  0  0  0  0  0  0  0  0  0  0
   11.7383  -17.5082   25.8763 C   0  0  0  0  0  0  0  0  0  0  0  0
   10.9666  -18.2986   25.2957 O   0  0  0  0  0  0  0  0  0  0  0  0
   13.0120  -18.1907   23.2722 C   0  0  0  0  0  0  0  0  0  0  0  0
   14.2551  -18.7848   23.2552 O   0  0  0  0  0  0  0  0  0  0  0  0
   11.6574  -17.4811   27.2741 O   0  0  0  0  0  0  0  0  0  0  0  0
   12.0582  -18.9600   22.8768 O   0  0  0  0  0  0  0  0  0  0  0  0
  2  1  1  1
  2  3  1  0
  3  4  1  0
  4  5  2  0
  6  5  1  0
  7  6  1  0
  8  7  2  0
  9  8  1  0
 10 11  1  0
 10  9  2  0
 11 12  2  0
 12  7  1  0
 12  4  1  0
 13 14  2  0
 13  2  1  0
 15 13  1  0
 16 15  1  0
 16 17  1  1
 18 17  1  0
 18 22  1  0
 19 20  1  0
 19 18  2  0
 20 21  1  0
 21 22  2  0
 23 16  1  0
 24 23  2  0
 25 23  1  0
 26 25  1  0
 26 27  1  1
 27 28  1  0
 28 29  2  0
 30 26  1  0
 30 31  1  0
 32 28  1  0
 33 30  2  0
M  END
$$$$
