WHD.pdb
     RDKit          3D

 33 35  0  0  1  0  0  0  0  0999 V2000
    8.8135  -14.8916   22.2686 N   0  0  0  0  0  0  0  0  0  0  0  0
    8.6173  -15.7671   23.4103 C   0  0  1  0  0  0  0  0  0  0  0  0
    7.1109  -15.8461   23.6807 C   0  0  0  0  0  0  0  0  0  0  0  0
    6.8120  -14.8688   24.7511 C   0  0  0  0  0  0  0  0  0  0  0  0
    6.3955  -15.1631   26.0286 C   0  0  0  0  0  0  0  0  0  0  0  0
    6.2167  -14.0299   26.7297 N   0  0  0  0  0  0  0  0  0  0  0  0
    6.5113  -13.0253   25.9225 C   0  0  0  0  0  0  0  0  0  0  0  0
    6.5092  -11.6463   26.1029 C   0  0  0  0  0  0  0  0  0  0  0  0
    6.8715  -10.8097   25.0685 C   0  0  0  0  0  0  0  0  0  0  0  0
    7.2430  -11.2805   23.8407 C   0  0  0  0  0  0  0  0  0  0  0  0
    7.2493  -12.6591   23.6469 C   0  0  0  0  0  0  0  0  0  0  0  0
    6.8910  -13.5026   24.6678 C   0  0  0  0  0  0  0  0  0  0  0  0
    9.2062  -17.0975   23.1752 C   0  0  0  0  0  0  0  0  0  0  0  0
    8.6323  -17.8674   22.3650 O   0  0  0  0  0  0  0  0  0  0  0  0
   10.3916  -17.4608   23.8660 N   0  0  0  0  0  0  0  0  0  0  0  0
   11.3731  -18.3253   23.2652 C   0  0  1  0  0  0  0  0  0  0  0  0
   11.7986  -17.8193   21.8951 C   0  0  0  0  0  0  0  0  0  0  0  0
   12.7326  -18.7943   21.2545 C   0  0  0  0  0  0  0  0  0  0  0  0
   12.4824  -20.1353   21.0032 C   0  0  0  0  0  0  0  0  0  0  0  0
   13.5635  -20.6824   20.4142 N   0  0  0  0  0  0  0  0  0  0  0  0
   14.4853  -19.7188   20.2898 C   0  0  0  0  0  0  0  0  0  0  0  0
   13.9841  -18.5890   20.7942 N   0  0  0  0  0  0  0  0  0  0  0  0
   12.5365  -18.4787   24.1681 C   0  0  0  0  0  0  0  0  0  0  0  0
   13.2709  -17.5023   24.4677 O   0  0  0  0  0  0  0  0  0  0  0  0
   12.8369  -19.7547   24.7123 N   0  0  0  0  0  0  0  0  0  0  0  0
   13.6904  -19.8304   25.8996 C   0  0  1  0  0  0  0  0  0  0  0  0
   13.2638  -20.9757   26.7742 C   0  0  0  0  0  0  0  0  0  0  0  0
   12.7672  -20.6003   28.1024 C   0  0  0  0  0  0  0  0  0  0  0  0
   13.4337  -19.9814   28.9570 O   0  0  0  0  0  0  0  0  0  0  0  0
   15.0704  -19.9710   25.3776 C   0  0  0  0  0  0  0  0  0  0  0  0
   16.2006  -19.6234   26.0851 O   0  0  0  0  0  0  0  0  0  0  0  0
   11.4604  -20.9446   28.4693 O   0  0  0  0  0  0  0  0  0  0  0  0
   15.3111  -20.4374   24.2019 O   0  0  0  0  0  0  0  0  0  0  0  0
  2  1  1  6
  2  3  1  0
  3  4  1  0
  4  5  2  0
  6  5  1  0
  7  6  1  0
  8  7  2  0
  9  8  1  0
 10 11  1  0
 10  9  2  0
 11 12  2  0
 12  7  1  0
 12  4  1  0
 13 14  2  0
 13  2  1  0
 15 13  1  0
 16 15  1  0
 16 17  1  6
 18 17  1  0
 18 22  1  0
 19 20  1  0
 19 18  2  0
 20 21  1  0
 21 22  2  0
 23 16  1  0
 24 23  2  0
 25 23  1  0
 26 25  1  0
 26 27  1  1
 27 28  1  0
 28 29  2  0
 30 26  1  0
 30 31  1  0
 32 28  1  0
 33 30  2  0
M  END
$$$$
