WHD.pdb
     RDKit          3D

 33 35  0  0  1  0  0  0  0  0999 V2000
    5.8377  -17.3670   23.7338 N   0  0  0  0  0  0  0  0  0  0  0  0
    6.8502  -16.3261   23.7337 C   0  0  1  0  0  0  0  0  0  0  0  0
    7.4495  -16.2621   25.1427 C   0  0  0  0  0  0  0  0  0  0  0  0
    6.7372  -15.1860   25.8671 C   0  0  0  0  0  0  0  0  0  0  0  0
    5.5025  -15.2866   26.4651 C   0  0  0  0  0  0  0  0  0  0  0  0
    5.1635  -14.1133   27.0273 N   0  0  0  0  0  0  0  0  0  0  0  0
    6.1577  -13.2728   26.7973 C   0  0  0  0  0  0  0  0  0  0  0  0
    6.3563  -11.9396   27.1398 C   0  0  0  0  0  0  0  0  0  0  0  0
    7.5138  -11.2910   26.7651 C   0  0  0  0  0  0  0  0  0  0  0  0
    8.5034  -11.9095   26.0543 C   0  0  0  0  0  0  0  0  0  0  0  0
    8.3171  -13.2441   25.7049 C   0  0  0  0  0  0  0  0  0  0  0  0
    7.1699  -13.9012   26.0715 C   0  0  0  0  0  0  0  0  0  0  0  0
    7.8781  -16.5760   22.7076 C   0  0  0  0  0  0  0  0  0  0  0  0
    8.0191  -17.7489   22.2800 O   0  0  0  0  0  0  0  0  0  0  0  0
    8.6671  -15.4925   22.2412 N   0  0  0  0  0  0  0  0  0  0  0  0
    9.7097  -15.6897   21.2686 C   0  0  1  0  0  0  0  0  0  0  0  0
    9.9381  -14.4385   20.4339 C   0  0  0  0  0  0  0  0  0  0  0  0
    8.9033  -14.3413   19.3600 C   0  0  0  0  0  0  0  0  0  0  0  0
    8.0320  -13.2835   19.1455 C   0  0  0  0  0  0  0  0  0  0  0  0
    7.2514  -13.5640   18.0839 N   0  0  0  0  0  0  0  0  0  0  0  0
    7.6109  -14.7706   17.6272 C   0  0  0  0  0  0  0  0  0  0  0  0
    8.6008  -15.2333   18.3941 N   0  0  0  0  0  0  0  0  0  0  0  0
   10.9558  -16.1245   21.9397 C   0  0  0  0  0  0  0  0  0  0  0  0
   11.3461  -15.5943   23.0115 O   0  0  0  0  0  0  0  0  0  0  0  0
   11.7340  -17.1638   21.3659 N   0  0  0  0  0  0  0  0  0  0  0  0
   12.9620  -17.5808   22.0456 C   0  0  1  0  0  0  0  0  0  0  0  0
   13.2442  -19.0302   21.7658 C   0  0  0  0  0  0  0  0  0  0  0  0
   12.2903  -19.9796   22.3493 C   0  0  0  0  0  0  0  0  0  0  0  0
   11.9876  -21.0789   21.8421 O   0  0  0  0  0  0  0  0  0  0  0  0
   14.0147  -16.6682   21.5403 C   0  0  0  0  0  0  0  0  0  0  0  0
   15.3005  -16.6273   22.0340 O   0  0  0  0  0  0  0  0  0  0  0  0
   11.6578  -19.6621   23.5576 O   0  0  0  0  0  0  0  0  0  0  0  0
   13.7935  -15.8336   20.5850 O   0  0  0  0  0  0  0  0  0  0  0  0
  2  1  1  1
  2  3  1  0
  3  4  1  0
  4  5  2  0
  6  5  1  0
  7  6  1  0
  8  7  2  0
  9  8  1  0
 10 11  1  0
 10  9  2  0
 11 12  2  0
 12  7  1  0
 12  4  1  0
 13 14  2  0
 13  2  1  0
 15 13  1  0
 16 15  1  0
 16 17  1  1
 18 17  1  0
 18 22  1  0
 19 20  1  0
 19 18  2  0
 20 21  1  0
 21 22  2  0
 23 16  1  0
 24 23  2  0
 25 23  1  0
 26 25  1  0
 26 27  1  6
 27 28  1  0
 28 29  2  0
 30 26  1  0
 30 31  1  0
 32 28  1  0
 33 30  2  0
M  END
$$$$
