WHD.pdb
     RDKit          3D

 33 35  0  0  1  0  0  0  0  0999 V2000
    6.6382  -17.9175   24.7636 N   0  0  0  0  0  0  0  0  0  0  0  0
    6.8998  -16.5603   24.3188 C   0  0  1  0  0  0  0  0  0  0  0  0
    7.9295  -15.9492   25.2753 C   0  0  0  0  0  0  0  0  0  0  0  0
    7.2091  -14.9673   26.1163 C   0  0  0  0  0  0  0  0  0  0  0  0
    6.3142  -15.2571   27.1200 C   0  0  0  0  0  0  0  0  0  0  0  0
    5.8511  -14.1207   27.6695 N   0  0  0  0  0  0  0  0  0  0  0  0
    6.4344  -13.1186   27.0345 C   0  0  0  0  0  0  0  0  0  0  0  0
    6.3408  -11.7382   27.1756 C   0  0  0  0  0  0  0  0  0  0  0  0
    7.0803  -10.9050   26.3633 C   0  0  0  0  0  0  0  0  0  0  0  0
    7.9241  -11.3806   25.3994 C   0  0  0  0  0  0  0  0  0  0  0  0
    8.0270  -12.7606   25.2477 C   0  0  0  0  0  0  0  0  0  0  0  0
    7.2967  -13.6008   26.0495 C   0  0  0  0  0  0  0  0  0  0  0  0
    7.3618  -16.5326   22.9196 C   0  0  0  0  0  0  0  0  0  0  0  0
    7.8619  -17.5794   22.4374 O   0  0  0  0  0  0  0  0  0  0  0  0
    7.2272  -15.3346   22.1706 N   0  0  0  0  0  0  0  0  0  0  0  0
    7.6992  -15.2428   20.8139 C   0  0  1  0  0  0  0  0  0  0  0  0
    7.3017  -13.9217   20.1729 C   0  0  0  0  0  0  0  0  0  0  0  0
    7.8159  -13.8554   18.7713 C   0  0  0  0  0  0  0  0  0  0  0  0
    8.7873  -12.9913   18.2875 C   0  0  0  0  0  0  0  0  0  0  0  0
    8.9807  -13.2353   16.9769 N   0  0  0  0  0  0  0  0  0  0  0  0
    8.1555  -14.2302   16.6262 C   0  0  0  0  0  0  0  0  0  0  0  0
    7.4593  -14.5992   17.7038 N   0  0  0  0  0  0  0  0  0  0  0  0
    9.1657  -15.4427   20.7710 C   0  0  0  0  0  0  0  0  0  0  0  0
    9.9179  -14.9969   21.6753 O   0  0  0  0  0  0  0  0  0  0  0  0
    9.7439  -16.1532   19.6867 N   0  0  0  0  0  0  0  0  0  0  0  0
   11.1824  -16.4251   19.7105 C   0  0  1  0  0  0  0  0  0  0  0  0
   11.4611  -17.6816   20.4865 C   0  0  0  0  0  0  0  0  0  0  0  0
   12.8543  -18.1394   20.4608 C   0  0  0  0  0  0  0  0  0  0  0  0
   13.8041  -17.4862   19.9825 O   0  0  0  0  0  0  0  0  0  0  0  0
   11.5850  -16.5113   18.2867 C   0  0  0  0  0  0  0  0  0  0  0  0
   12.8644  -16.2759   17.8325 O   0  0  0  0  0  0  0  0  0  0  0  0
   13.1758  -19.3905   21.0014 O   0  0  0  0  0  0  0  0  0  0  0  0
   10.7476  -16.8184   17.3581 O   0  0  0  0  0  0  0  0  0  0  0  0
  2  1  1  1
  2  3  1  0
  3  4  1  0
  4  5  2  0
  6  5  1  0
  7  6  1  0
  8  7  2  0
  9  8  1  0
 10 11  1  0
 10  9  2  0
 11 12  2  0
 12  7  1  0
 12  4  1  0
 13 14  2  0
 13  2  1  0
 15 13  1  0
 16 15  1  0
 16 17  1  1
 18 17  1  0
 18 22  1  0
 19 20  1  0
 19 18  2  0
 20 21  1  0
 21 22  2  0
 23 16  1  0
 24 23  2  0
 25 23  1  0
 26 25  1  0
 26 27  1  1
 27 28  1  0
 28 29  2  0
 30 26  1  0
 30 31  1  0
 32 28  1  0
 33 30  2  0
M  END
$$$$
