WHD.pdb
     RDKit          3D

 33 35  0  0  1  0  0  0  0  0999 V2000
    6.9901  -17.1275   24.0154 N   0  0  0  0  0  0  0  0  0  0  0  0
    7.8750  -15.9874   23.8553 C   0  0  1  0  0  0  0  0  0  0  0  0
    8.4501  -15.6495   25.2351 C   0  0  0  0  0  0  0  0  0  0  0  0
    7.3447  -15.0775   26.0359 C   0  0  0  0  0  0  0  0  0  0  0  0
    6.3549  -15.7843   26.6783 C   0  0  0  0  0  0  0  0  0  0  0  0
    5.5171  -14.9410   27.3065 N   0  0  0  0  0  0  0  0  0  0  0  0
    5.9565  -13.7158   27.0749 C   0  0  0  0  0  0  0  0  0  0  0  0
    5.4952  -12.4644   27.4693 C   0  0  0  0  0  0  0  0  0  0  0  0
    6.1623  -11.3230   27.0779 C   0  0  0  0  0  0  0  0  0  0  0  0
    7.2851  -11.3604   26.3001 C   0  0  0  0  0  0  0  0  0  0  0  0
    7.7573  -12.6069   25.8982 C   0  0  0  0  0  0  0  0  0  0  0  0
    7.1030  -13.7504   26.2808 C   0  0  0  0  0  0  0  0  0  0  0  0
    8.9342  -16.2633   22.8685 C   0  0  0  0  0  0  0  0  0  0  0  0
    9.3238  -17.4497   22.7299 O   0  0  0  0  0  0  0  0  0  0  0  0
    9.4737  -15.1887   22.1145 N   0  0  0  0  0  0  0  0  0  0  0  0
   10.4801  -15.4102   21.1097 C   0  0  1  0  0  0  0  0  0  0  0  0
   10.6301  -14.2041   20.1947 C   0  0  0  0  0  0  0  0  0  0  0  0
    9.4421  -14.0909   19.2951 C   0  0  0  0  0  0  0  0  0  0  0  0
    8.4991  -15.0766   19.0436 C   0  0  0  0  0  0  0  0  0  0  0  0
    7.5809  -14.5983   18.1815 N   0  0  0  0  0  0  0  0  0  0  0  0
    7.9240  -13.3380   17.8859 C   0  0  0  0  0  0  0  0  0  0  0  0
    9.0394  -13.0373   18.5548 N   0  0  0  0  0  0  0  0  0  0  0  0
   11.7677  -15.7647   21.7490 C   0  0  0  0  0  0  0  0  0  0  0  0
   12.2331  -15.0965   22.7078 O   0  0  0  0  0  0  0  0  0  0  0  0
   12.5004  -16.8839   21.2740 N   0  0  0  0  0  0  0  0  0  0  0  0
   13.6568  -17.3463   22.0439 C   0  0  1  0  0  0  0  0  0  0  0  0
   13.7894  -18.8394   21.9361 C   0  0  0  0  0  0  0  0  0  0  0  0
   15.0008  -19.4072   22.5375 C   0  0  0  0  0  0  0  0  0  0  0  0
   15.8563  -18.7466   23.1614 O   0  0  0  0  0  0  0  0  0  0  0  0
   14.8153  -16.6107   21.4843 C   0  0  0  0  0  0  0  0  0  0  0  0
   15.9230  -16.2454   22.2179 O   0  0  0  0  0  0  0  0  0  0  0  0
   15.2453  -20.7812   22.4223 O   0  0  0  0  0  0  0  0  0  0  0  0
   14.8655  -16.2556   20.2476 O   0  0  0  0  0  0  0  0  0  0  0  0
  2  1  1  1
  2  3  1  0
  3  4  1  0
  4  5  2  0
  6  5  1  0
  7  6  1  0
  8  7  2  0
  9  8  1  0
 10 11  1  0
 10  9  2  0
 11 12  2  0
 12  7  1  0
 12  4  1  0
 13 14  2  0
 13  2  1  0
 15 13  1  0
 16 15  1  0
 16 17  1  1
 18 17  1  0
 18 22  1  0
 19 20  1  0
 19 18  2  0
 20 21  1  0
 21 22  2  0
 23 16  1  0
 24 23  2  0
 25 23  1  0
 26 25  1  0
 26 27  1  6
 27 28  1  0
 28 29  2  0
 30 26  1  0
 30 31  1  0
 32 28  1  0
 33 30  2  0
M  END
$$$$
