MSQ.pdb
     RDKit          3D

 24 23  0  0  1  0  0  0  0  0999 V2000
    8.6670  -11.4503   19.9383 C   0  0  0  0  0  0  0  0  0  0  0  0
    7.7432  -12.2491   18.6017 S   0  0  0  0  0  0  0  0  0  0  0  0
    8.0717  -14.0284   18.6133 C   0  0  0  0  0  0  0  0  0  0  0  0
    8.1585  -14.5762   20.0236 C   0  0  0  0  0  0  0  0  0  0  0  0
    8.2959  -16.0914   19.8975 C   0  0  2  0  0  0  0  0  0  0  0  0
    7.2910  -16.6469   19.0492 N   0  0  0  0  0  0  0  0  0  0  0  0
    8.2292  -16.6444   21.3015 C   0  0  0  0  0  0  0  0  0  0  0  0
    7.1378  -16.8115   21.8966 O   0  0  0  0  0  0  0  0  0  0  0  0
   11.7190  -18.0193   23.2252 O   0  0  0  0  0  0  0  0  0  0  0  0
   10.4886  -18.6054   23.4922 C   0  0  0  0  0  0  0  0  0  0  0  0
    9.4242  -17.5392   23.3563 C   0  0  2  0  0  0  0  0  0  0  0  0
    9.4101  -16.9964   21.9985 N   0  0  0  0  0  0  0  0  0  0  0  0
    9.5709  -16.4645   24.3490 C   0  0  0  0  0  0  0  0  0  0  0  0
   10.4367  -15.5301   24.1670 O   0  0  0  0  0  0  0  0  0  0  0  0
    5.5872  -12.8397   26.8635 N   0  0  0  0  0  0  0  0  0  0  0  0
    6.8033  -12.1937   26.5738 C   0  0  0  0  0  0  0  0  0  0  0  0
    6.8419  -10.9618   26.4367 O   0  0  0  0  0  0  0  0  0  0  0  0
    8.0442  -12.9935   26.4322 C   0  0  0  0  0  0  0  0  0  0  0  0
    7.8058  -14.4527   26.6987 C   0  0  0  0  0  0  0  0  0  0  0  0
    9.0229  -15.2515   26.4995 C   0  0  2  0  0  0  0  0  0  0  0  0
    8.8358  -16.3350   25.5340 N   0  0  0  0  0  0  0  0  0  0  0  0
    9.6136  -15.8173   27.6879 C   0  0  0  0  0  0  0  0  0  0  0  0
    9.6833  -17.0825   27.8457 O   0  0  0  0  0  0  0  0  0  0  0  0
   10.1300  -15.0532   28.7020 O   0  0  0  0  0  0  0  0  0  0  0  0
  2  1  1  0
  2  3  1  0
  4  3  1  0
  5  4  1  0
  5  6  1  6
  7  8  2  0
  7  5  1  0
  9 10  1  0
 11 10  1  6
 11 12  1  0
 12  7  1  0
 13 11  1  0
 13 21  1  0
 14 13  2  0
 16 17  2  0
 16 15  1  0
 18 16  1  0
 19 18  1  0
 20 19  1  1
 20 21  1  0
 20 22  1  0
 22 24  1  0
 23 22  2  0
M  END
$$$$
