MSQ.pdb
     RDKit          3D

 24 23  0  0  1  0  0  0  0  0999 V2000
    7.2740  -11.6296   27.4353 C   0  0  0  0  0  0  0  0  0  0  0  0
    5.7628  -11.9772   26.5004 S   0  0  0  0  0  0  0  0  0  0  0  0
    6.1897  -12.4472   24.8060 C   0  0  0  0  0  0  0  0  0  0  0  0
    6.6785  -13.8793   24.7245 C   0  0  0  0  0  0  0  0  0  0  0  0
    8.0079  -13.8466   23.9749 C   0  0  2  0  0  0  0  0  0  0  0  0
    7.8425  -13.4354   22.6179 N   0  0  0  0  0  0  0  0  0  0  0  0
    8.5942  -15.2343   24.0848 C   0  0  0  0  0  0  0  0  0  0  0  0
    8.6818  -15.8315   25.1843 O   0  0  0  0  0  0  0  0  0  0  0  0
   10.9152  -16.7387   21.0316 O   0  0  0  0  0  0  0  0  0  0  0  0
   10.0592  -17.6877   21.5750 C   0  0  0  0  0  0  0  0  0  0  0  0
    9.6886  -17.2373   22.9709 C   0  0  2  0  0  0  0  0  0  0  0  0
    9.0685  -15.9135   22.9368 N   0  0  0  0  0  0  0  0  0  0  0  0
   10.8335  -17.2564   23.8933 C   0  0  0  0  0  0  0  0  0  0  0  0
   11.5836  -16.2179   24.0143 O   0  0  0  0  0  0  0  0  0  0  0  0
   11.4335  -18.6092   29.6706 N   0  0  0  0  0  0  0  0  0  0  0  0
   10.9132  -19.5965   28.8135 C   0  0  0  0  0  0  0  0  0  0  0  0
   10.1986  -20.5046   29.2636 O   0  0  0  0  0  0  0  0  0  0  0  0
   11.2233  -19.5481   27.3640 C   0  0  0  0  0  0  0  0  0  0  0  0
   12.0306  -18.3339   27.0022 C   0  0  0  0  0  0  0  0  0  0  0  0
   12.3912  -18.3206   25.5778 C   0  0  2  0  0  0  0  0  0  0  0  0
   11.2214  -18.3344   24.6989 N   0  0  0  0  0  0  0  0  0  0  0  0
   13.2848  -19.3645   25.1384 C   0  0  0  0  0  0  0  0  0  0  0  0
   12.9395  -20.1766   24.2155 O   0  0  0  0  0  0  0  0  0  0  0  0
   14.5360  -19.5485   25.6673 O   0  0  0  0  0  0  0  0  0  0  0  0
  2  1  1  0
  2  3  1  0
  4  3  1  0
  5  4  1  0
  5  6  1  6
  7  8  2  0
  7  5  1  0
  9 10  1  0
 11 10  1  6
 11 12  1  0
 12  7  1  0
 13 11  1  0
 13 21  1  0
 14 13  2  0
 16 17  2  0
 16 15  1  0
 18 16  1  0
 19 18  1  0
 20 19  1  1
 20 21  1  0
 20 22  1  0
 22 24  1  0
 23 22  2  0
M  END
$$$$
