MSQ.pdb
     RDKit          3D

 24 23  0  0  1  0  0  0  0  0999 V2000
    7.7261  -11.7354   20.8452 C   0  0  0  0  0  0  0  0  0  0  0  0
    8.0728  -12.8248   19.4412 S   0  0  0  0  0  0  0  0  0  0  0  0
    7.3961  -14.4711   19.7665 C   0  0  0  0  0  0  0  0  0  0  0  0
    7.9538  -15.0676   21.0431 C   0  0  0  0  0  0  0  0  0  0  0  0
    7.1993  -16.3728   21.2830 C   0  0  2  0  0  0  0  0  0  0  0  0
    5.9355  -16.3854   20.6191 N   0  0  0  0  0  0  0  0  0  0  0  0
    7.0604  -16.5166   22.7802 C   0  0  0  0  0  0  0  0  0  0  0  0
    6.2176  -15.8566   23.4339 O   0  0  0  0  0  0  0  0  0  0  0  0
    8.8094  -19.6895   24.7909 O   0  0  0  0  0  0  0  0  0  0  0  0
    7.7455  -18.9995   25.3572 C   0  0  0  0  0  0  0  0  0  0  0  0
    7.8665  -17.5454   24.9579 C   0  0  2  0  0  0  0  0  0  0  0  0
    7.8864  -17.4117   23.5019 N   0  0  0  0  0  0  0  0  0  0  0  0
    9.0363  -16.8894   25.5606 C   0  0  0  0  0  0  0  0  0  0  0  0
   10.1139  -16.7323   24.8753 O   0  0  0  0  0  0  0  0  0  0  0  0
    8.4223  -13.1373   25.9757 N   0  0  0  0  0  0  0  0  0  0  0  0
    8.0850  -13.2624   27.3361 C   0  0  0  0  0  0  0  0  0  0  0  0
    6.9957  -12.8417   27.7535 O   0  0  0  0  0  0  0  0  0  0  0  0
    9.0401  -13.9014   28.2737 C   0  0  0  0  0  0  0  0  0  0  0  0
   10.2862  -14.3676   27.5757 C   0  0  0  0  0  0  0  0  0  0  0  0
   10.3322  -15.8315   27.4574 C   0  0  2  0  0  0  0  0  0  0  0  0
    9.1153  -16.3890   26.8663 N   0  0  0  0  0  0  0  0  0  0  0  0
   10.6052  -16.5593   28.6727 C   0  0  0  0  0  0  0  0  0  0  0  0
    9.8100  -17.4702   29.0831 O   0  0  0  0  0  0  0  0  0  0  0  0
   11.7117  -16.3295   29.4487 O   0  0  0  0  0  0  0  0  0  0  0  0
  2  1  1  0
  2  3  1  0
  4  3  1  0
  5  4  1  0
  5  6  1  6
  7  8  2  0
  7  5  1  0
  9 10  1  0
 11 10  1  6
 11 12  1  0
 12  7  1  0
 13 11  1  0
 13 21  1  0
 14 13  2  0
 16 17  2  0
 16 15  1  0
 18 16  1  0
 19 18  1  0
 20 19  1  1
 20 21  1  0
 20 22  1  0
 22 24  1  0
 23 22  2  0
M  END
$$$$
