MSQ.pdb
     RDKit          3D

 24 23  0  0  1  0  0  0  0  0999 V2000
    7.5531  -11.4661   26.1835 C   0  0  0  0  0  0  0  0  0  0  0  0
    6.1777  -12.2852   27.0295 S   0  0  0  0  0  0  0  0  0  0  0  0
    5.7567  -13.8176   26.1643 C   0  0  0  0  0  0  0  0  0  0  0  0
    6.9715  -14.4512   25.5167 C   0  0  0  0  0  0  0  0  0  0  0  0
    6.4719  -15.6721   24.7483 C   0  0  2  0  0  0  0  0  0  0  0  0
    5.8535  -16.6263   25.6116 N   0  0  0  0  0  0  0  0  0  0  0  0
    7.6707  -16.2438   24.0290 C   0  0  0  0  0  0  0  0  0  0  0  0
    8.3659  -17.1619   24.5260 O   0  0  0  0  0  0  0  0  0  0  0  0
    8.7451  -14.3683   20.6371 O   0  0  0  0  0  0  0  0  0  0  0  0
    9.2673  -15.6551   20.6353 C   0  0  0  0  0  0  0  0  0  0  0  0
    9.2752  -16.1578   22.0621 C   0  0  2  0  0  0  0  0  0  0  0  0
    8.0522  -15.7563   22.7558 N   0  0  0  0  0  0  0  0  0  0  0  0
   10.4667  -15.7250   22.8070 C   0  0  0  0  0  0  0  0  0  0  0  0
   10.5603  -14.5132   23.2293 O   0  0  0  0  0  0  0  0  0  0  0  0
   10.2015  -15.2054   27.5685 N   0  0  0  0  0  0  0  0  0  0  0  0
   11.4048  -15.8641   27.8820 C   0  0  0  0  0  0  0  0  0  0  0  0
   11.9209  -15.7286   29.0014 O   0  0  0  0  0  0  0  0  0  0  0  0
   12.0572  -16.7248   26.8654 C   0  0  0  0  0  0  0  0  0  0  0  0
   11.3312  -16.6905   25.5505 C   0  0  0  0  0  0  0  0  0  0  0  0
   12.2522  -16.5010   24.4215 C   0  0  2  0  0  0  0  0  0  0  0  0
   11.5710  -16.5249   23.1267 N   0  0  0  0  0  0  0  0  0  0  0  0
   13.3668  -17.4141   24.3499 C   0  0  0  0  0  0  0  0  0  0  0  0
   13.3380  -18.4226   23.5672 O   0  0  0  0  0  0  0  0  0  0  0  0
   14.5059  -17.2626   25.0974 O   0  0  0  0  0  0  0  0  0  0  0  0
  2  1  1  0
  2  3  1  0
  4  3  1  0
  5  4  1  0
  5  6  1  1
  7  8  2  0
  7  5  1  0
  9 10  1  0
 11 10  1  6
 11 12  1  0
 12  7  1  0
 13 11  1  0
 13 21  1  0
 14 13  2  0
 16 17  2  0
 16 15  1  0
 18 16  1  0
 19 18  1  0
 20 19  1  1
 20 21  1  0
 20 22  1  0
 22 24  1  0
 23 22  2  0
M  END
$$$$
