MSQ.pdb
     RDKit          3D

 24 23  0  0  1  0  0  0  0  0999 V2000
    8.0046  -11.8216   20.7689 C   0  0  0  0  0  0  0  0  0  0  0  0
    7.6228  -12.4624   19.1191 S   0  0  0  0  0  0  0  0  0  0  0  0
    8.0935  -14.2067   19.0196 C   0  0  0  0  0  0  0  0  0  0  0  0
    7.7291  -14.9617   20.2820 C   0  0  0  0  0  0  0  0  0  0  0  0
    8.1725  -16.4073   20.0715 C   0  0  2  0  0  0  0  0  0  0  0  0
    7.4656  -17.0286   18.9981 N   0  0  0  0  0  0  0  0  0  0  0  0
    7.9540  -17.1167   21.3870 C   0  0  0  0  0  0  0  0  0  0  0  0
    6.9672  -17.8666   21.5794 O   0  0  0  0  0  0  0  0  0  0  0  0
   10.7967  -19.3006   22.5202 O   0  0  0  0  0  0  0  0  0  0  0  0
    9.4444  -19.3029   22.8362 C   0  0  0  0  0  0  0  0  0  0  0  0
    9.1128  -17.9738   23.4782 C   0  0  2  0  0  0  0  0  0  0  0  0
    8.8668  -16.9564   22.4571 N   0  0  0  0  0  0  0  0  0  0  0  0
   10.1476  -17.5288   24.4231 C   0  0  0  0  0  0  0  0  0  0  0  0
   10.5326  -18.3062   25.3735 O   0  0  0  0  0  0  0  0  0  0  0  0
    9.9664  -14.8555   29.0885 N   0  0  0  0  0  0  0  0  0  0  0  0
    9.7632  -13.9782   28.0074 C   0  0  0  0  0  0  0  0  0  0  0  0
    9.0659  -12.9621   28.1466 O   0  0  0  0  0  0  0  0  0  0  0  0
   10.3879  -14.2731   26.6949 C   0  0  0  0  0  0  0  0  0  0  0  0
   11.1469  -15.5695   26.7124 C   0  0  0  0  0  0  0  0  0  0  0  0
   11.7680  -15.8578   25.4123 C   0  0  2  0  0  0  0  0  0  0  0  0
   10.7973  -16.2882   24.4056 N   0  0  0  0  0  0  0  0  0  0  0  0
   12.8472  -16.8151   25.4215 C   0  0  0  0  0  0  0  0  0  0  0  0
   14.0432  -16.4562   25.1550 O   0  0  0  0  0  0  0  0  0  0  0  0
   12.6661  -18.1423   25.7130 O   0  0  0  0  0  0  0  0  0  0  0  0
  2  1  1  0
  2  3  1  0
  4  3  1  0
  5  4  1  0
  5  6  1  6
  7  8  2  0
  7  5  1  0
  9 10  1  0
 11 10  1  6
 11 12  1  0
 12  7  1  0
 13 11  1  0
 13 21  1  0
 14 13  2  0
 16 17  2  0
 16 15  1  0
 18 16  1  0
 19 18  1  0
 20 19  1  1
 20 21  1  0
 20 22  1  0
 22 24  1  0
 23 22  2  0
M  END
$$$$
