MSQ.pdb
     RDKit          3D

 24 23  0  0  1  0  0  0  0  0999 V2000
   11.5591  -22.1681   18.8221 C   0  0  0  0  0  0  0  0  0  0  0  0
   11.2288  -21.8119   17.0778 S   0  0  0  0  0  0  0  0  0  0  0  0
   10.5553  -20.1404   16.9148 C   0  0  0  0  0  0  0  0  0  0  0  0
   10.9725  -19.2497   18.0677 C   0  0  0  0  0  0  0  0  0  0  0  0
   10.2769  -17.9070   17.8581 C   0  0  2  0  0  0  0  0  0  0  0  0
   10.7051  -17.2693   16.6548 N   0  0  0  0  0  0  0  0  0  0  0  0
   10.5753  -17.0758   19.0835 C   0  0  0  0  0  0  0  0  0  0  0  0
   11.7178  -16.6078   19.3046 O   0  0  0  0  0  0  0  0  0  0  0  0
    8.7269  -14.8873   23.0196 O   0  0  0  0  0  0  0  0  0  0  0  0
    8.4626  -15.6873   21.9156 C   0  0  0  0  0  0  0  0  0  0  0  0
    9.7811  -16.0154   21.2504 C   0  0  2  0  0  0  0  0  0  0  0  0
    9.5631  -16.7948   20.0326 N   0  0  0  0  0  0  0  0  0  0  0  0
   10.7138  -16.7048   22.1542 C   0  0  0  0  0  0  0  0  0  0  0  0
   10.5621  -17.9574   22.4069 O   0  0  0  0  0  0  0  0  0  0  0  0
   16.6307  -15.3468   23.4696 N   0  0  0  0  0  0  0  0  0  0  0  0
   16.0202  -15.7622   22.2718 C   0  0  0  0  0  0  0  0  0  0  0  0
   16.6306  -15.6804   21.1954 O   0  0  0  0  0  0  0  0  0  0  0  0
   14.6384  -16.3004   22.3001 C   0  0  0  0  0  0  0  0  0  0  0  0
   14.0735  -16.3256   23.6920 C   0  0  0  0  0  0  0  0  0  0  0  0
   12.6986  -16.8435   23.7155 C   0  0  2  0  0  0  0  0  0  0  0  0
   11.8076  -16.1220   22.8063 N   0  0  0  0  0  0  0  0  0  0  0  0
   12.0608  -16.8957   25.0084 C   0  0  0  0  0  0  0  0  0  0  0  0
   10.9896  -16.2395   25.2370 O   0  0  0  0  0  0  0  0  0  0  0  0
   12.5486  -17.6377   26.0527 O   0  0  0  0  0  0  0  0  0  0  0  0
  2  1  1  0
  2  3  1  0
  4  3  1  0
  5  4  1  0
  5  6  1  6
  7  8  2  0
  7  5  1  0
  9 10  1  0
 11 10  1  1
 11 12  1  0
 12  7  1  0
 13 11  1  0
 13 21  1  0
 14 13  2  0
 16 17  2  0
 16 15  1  0
 18 16  1  0
 19 18  1  0
 20 19  1  1
 20 21  1  0
 20 22  1  0
 22 24  1  0
 23 22  2  0
M  END
$$$$
