MSQ.pdb
     RDKit          3D

 24 23  0  0  1  0  0  0  0  0999 V2000
    7.0980  -12.3912   26.9678 C   0  0  0  0  0  0  0  0  0  0  0  0
    7.2386  -11.6205   25.3355 S   0  0  0  0  0  0  0  0  0  0  0  0
    6.5493  -12.7254   24.0792 C   0  0  0  0  0  0  0  0  0  0  0  0
    6.9339  -14.1701   24.3270 C   0  0  0  0  0  0  0  0  0  0  0  0
    7.8343  -14.5890   23.1675 C   0  0  2  0  0  0  0  0  0  0  0  0
    7.1308  -14.5978   21.9253 N   0  0  0  0  0  0  0  0  0  0  0  0
    8.3833  -15.9503   23.5237 C   0  0  0  0  0  0  0  0  0  0  0  0
    7.7183  -16.9994   23.3493 O   0  0  0  0  0  0  0  0  0  0  0  0
   12.3061  -16.6651   23.3945 O   0  0  0  0  0  0  0  0  0  0  0  0
   11.3848  -17.7043   23.3878 C   0  0  0  0  0  0  0  0  0  0  0  0
   10.3006  -17.3734   24.3896 C   0  0  2  0  0  0  0  0  0  0  0  0
    9.6815  -16.0874   24.0717 N   0  0  0  0  0  0  0  0  0  0  0  0
   10.7880  -17.3920   25.7766 C   0  0  0  0  0  0  0  0  0  0  0  0
   11.2919  -16.3296   26.2991 O   0  0  0  0  0  0  0  0  0  0  0  0
   10.9853  -20.6609   31.1498 N   0  0  0  0  0  0  0  0  0  0  0  0
   10.5499  -21.3287   29.9903 C   0  0  0  0  0  0  0  0  0  0  0  0
   10.4380  -22.5638   29.9825 O   0  0  0  0  0  0  0  0  0  0  0  0
   10.2236  -20.5483   28.7721 C   0  0  0  0  0  0  0  0  0  0  0  0
   10.4048  -19.0721   28.9850 C   0  0  0  0  0  0  0  0  0  0  0  0
   11.3180  -18.4843   27.9953 C   0  0  2  0  0  0  0  0  0  0  0  0
   10.7651  -18.4940   26.6406 N   0  0  0  0  0  0  0  0  0  0  0  0
   12.6422  -19.0537   27.9350 C   0  0  0  0  0  0  0  0  0  0  0  0
   13.0136  -19.7419   26.9256 O   0  0  0  0  0  0  0  0  0  0  0  0
   13.5696  -18.8956   28.9320 O   0  0  0  0  0  0  0  0  0  0  0  0
  2  1  1  0
  2  3  1  0
  4  3  1  0
  5  4  1  0
  5  6  1  6
  7  8  2  0
  7  5  1  0
  9 10  1  0
 11 10  1  6
 11 12  1  0
 12  7  1  0
 13 11  1  0
 13 21  1  0
 14 13  2  0
 16 17  2  0
 16 15  1  0
 18 16  1  0
 19 18  1  0
 20 19  1  1
 20 21  1  0
 20 22  1  0
 22 24  1  0
 23 22  2  0
M  END
$$$$
