MSQ.pdb
     RDKit          3D

 24 23  0  0  1  0  0  0  0  0999 V2000
    7.5252  -11.4858   19.6704 C   0  0  0  0  0  0  0  0  0  0  0  0
    8.2024  -12.9116   20.5573 S   0  0  0  0  0  0  0  0  0  0  0  0
    6.8498  -13.9302   21.1955 C   0  0  0  0  0  0  0  0  0  0  0  0
    7.3548  -15.0325   22.1045 C   0  0  0  0  0  0  0  0  0  0  0  0
    8.1286  -16.0084   21.2218 C   0  0  2  0  0  0  0  0  0  0  0  0
    7.2721  -16.6875   20.3034 N   0  0  0  0  0  0  0  0  0  0  0  0
    8.8354  -16.9613   22.1566 C   0  0  0  0  0  0  0  0  0  0  0  0
    8.2114  -17.6406   23.0066 O   0  0  0  0  0  0  0  0  0  0  0  0
   13.0436  -16.8758   22.4552 O   0  0  0  0  0  0  0  0  0  0  0  0
   12.4237  -18.1111   22.5905 C   0  0  0  0  0  0  0  0  0  0  0  0
   11.0147  -17.8744   23.0879 C   0  0  2  0  0  0  0  0  0  0  0  0
   10.2411  -17.1205   22.1024 N   0  0  0  0  0  0  0  0  0  0  0  0
   10.9826  -17.2100   24.3992 C   0  0  0  0  0  0  0  0  0  0  0  0
   11.0291  -15.9263   24.4748 O   0  0  0  0  0  0  0  0  0  0  0  0
    9.8790  -13.7626   27.3476 N   0  0  0  0  0  0  0  0  0  0  0  0
    9.9511  -14.4243   28.5873 C   0  0  0  0  0  0  0  0  0  0  0  0
   10.1923  -13.7886   29.6245 O   0  0  0  0  0  0  0  0  0  0  0  0
    9.7370  -15.8905   28.6507 C   0  0  0  0  0  0  0  0  0  0  0  0
    9.6882  -16.5110   27.2833 C   0  0  0  0  0  0  0  0  0  0  0  0
   10.9613  -17.1526   26.9276 C   0  0  2  0  0  0  0  0  0  0  0  0
   10.9028  -17.8498   25.6425 N   0  0  0  0  0  0  0  0  0  0  0  0
   11.5060  -18.0676   27.9009 C   0  0  0  0  0  0  0  0  0  0  0  0
   12.2844  -17.6539   28.8247 O   0  0  0  0  0  0  0  0  0  0  0  0
   11.2288  -19.4102   27.9013 O   0  0  0  0  0  0  0  0  0  0  0  0
  2  1  1  0
  2  3  1  0
  4  3  1  0
  5  4  1  0
  5  6  1  6
  7  8  2  0
  7  5  1  0
  9 10  1  0
 11 10  1  6
 11 12  1  0
 12  7  1  0
 13 11  1  0
 13 21  1  0
 14 13  2  0
 16 17  2  0
 16 15  1  0
 18 16  1  0
 19 18  1  0
 20 19  1  1
 20 21  1  0
 20 22  1  0
 22 24  1  0
 23 22  2  0
M  END
$$$$
