MSQ.pdb
     RDKit          3D

 24 23  0  0  1  0  0  0  0  0999 V2000
    5.3598  -10.7852   26.5502 C   0  0  0  0  0  0  0  0  0  0  0  0
    6.5456  -11.7811   25.6118 S   0  0  0  0  0  0  0  0  0  0  0  0
    6.0845  -13.5281   25.7088 C   0  0  0  0  0  0  0  0  0  0  0  0
    7.2902  -14.4371   25.5798 C   0  0  0  0  0  0  0  0  0  0  0  0
    6.8772  -15.5851   24.6621 C   0  0  2  0  0  0  0  0  0  0  0  0
    5.7758  -16.3209   25.1947 N   0  0  0  0  0  0  0  0  0  0  0  0
    8.1044  -16.4460   24.4767 C   0  0  0  0  0  0  0  0  0  0  0  0
    8.4802  -17.2613   25.3526 O   0  0  0  0  0  0  0  0  0  0  0  0
   10.7926  -15.6118   21.3694 O   0  0  0  0  0  0  0  0  0  0  0  0
   10.5919  -16.9561   21.6540 C   0  0  0  0  0  0  0  0  0  0  0  0
   10.1427  -17.0664   23.0943 C   0  0  2  0  0  0  0  0  0  0  0  0
    8.8783  -16.3596   23.2945 N   0  0  0  0  0  0  0  0  0  0  0  0
   11.1629  -16.5945   24.0421 C   0  0  0  0  0  0  0  0  0  0  0  0
   11.2609  -15.3409   24.3152 O   0  0  0  0  0  0  0  0  0  0  0  0
   11.0137  -14.9314   28.9142 N   0  0  0  0  0  0  0  0  0  0  0  0
   11.1481  -16.3289   29.0090 C   0  0  0  0  0  0  0  0  0  0  0  0
   10.6976  -16.9372   29.9913 O   0  0  0  0  0  0  0  0  0  0  0  0
   11.8331  -17.0758   27.9262 C   0  0  0  0  0  0  0  0  0  0  0  0
   12.2881  -16.1686   26.8184 C   0  0  0  0  0  0  0  0  0  0  0  0
   12.9920  -16.9067   25.7606 C   0  0  2  0  0  0  0  0  0  0  0  0
   12.0901  -17.3974   24.7181 N   0  0  0  0  0  0  0  0  0  0  0  0
   13.8089  -18.0141   26.1937 C   0  0  0  0  0  0  0  0  0  0  0  0
   13.5139  -19.2126   25.8667 O   0  0  0  0  0  0  0  0  0  0  0  0
   14.9316  -17.8577   26.9646 O   0  0  0  0  0  0  0  0  0  0  0  0
  2  1  1  0
  2  3  1  0
  4  3  1  0
  5  4  1  0
  5  6  1  1
  7  8  2  0
  7  5  1  0
  9 10  1  0
 11 10  1  6
 11 12  1  0
 12  7  1  0
 13 11  1  0
 13 21  1  0
 14 13  2  0
 16 17  2  0
 16 15  1  0
 18 16  1  0
 19 18  1  0
 20 19  1  1
 20 21  1  0
 20 22  1  0
 22 24  1  0
 23 22  2  0
M  END
$$$$
