MSQ.pdb
     RDKit          3D

 24 23  0  0  1  0  0  0  0  0999 V2000
    7.0288  -11.0717   27.2468 C   0  0  0  0  0  0  0  0  0  0  0  0
    7.3328  -12.2856   25.9383 S   0  0  0  0  0  0  0  0  0  0  0  0
    5.7573  -12.9505   25.3467 C   0  0  0  0  0  0  0  0  0  0  0  0
    5.9534  -13.9535   24.2278 C   0  0  0  0  0  0  0  0  0  0  0  0
    6.6296  -15.1741   24.8469 C   0  0  2  0  0  0  0  0  0  0  0  0
    7.4436  -14.8202   25.9651 N   0  0  0  0  0  0  0  0  0  0  0  0
    7.4270  -15.8265   23.7424 C   0  0  0  0  0  0  0  0  0  0  0  0
    6.8914  -16.2051   22.6732 O   0  0  0  0  0  0  0  0  0  0  0  0
   10.6472  -15.2719   21.2412 O   0  0  0  0  0  0  0  0  0  0  0  0
    9.4772  -15.9643   21.5247 C   0  0  0  0  0  0  0  0  0  0  0  0
    9.6569  -16.6591   22.8564 C   0  0  2  0  0  0  0  0  0  0  0  0
    8.8207  -16.0336   23.8800 N   0  0  0  0  0  0  0  0  0  0  0  0
   11.0629  -16.7055   23.2843 C   0  0  0  0  0  0  0  0  0  0  0  0
   11.7174  -15.6139   23.4736 O   0  0  0  0  0  0  0  0  0  0  0  0
   10.2115  -20.6556   27.8422 N   0  0  0  0  0  0  0  0  0  0  0  0
   10.9524  -19.4840   28.0838 C   0  0  0  0  0  0  0  0  0  0  0  0
   10.7527  -18.8159   29.1093 O   0  0  0  0  0  0  0  0  0  0  0  0
   11.9772  -19.0480   27.1043 C   0  0  0  0  0  0  0  0  0  0  0  0
   11.3664  -18.6550   25.7892 C   0  0  0  0  0  0  0  0  0  0  0  0
   12.3829  -18.2185   24.8221 C   0  0  2  0  0  0  0  0  0  0  0  0
   11.8112  -17.8652   23.5224 N   0  0  0  0  0  0  0  0  0  0  0  0
   13.4737  -19.1336   24.5896 C   0  0  0  0  0  0  0  0  0  0  0  0
   14.4302  -19.2390   25.4290 O   0  0  0  0  0  0  0  0  0  0  0  0
   13.5535  -19.9345   23.4799 O   0  0  0  0  0  0  0  0  0  0  0  0
  2  1  1  0
  2  3  1  0
  4  3  1  0
  5  4  1  0
  5  6  1  1
  7  8  2  0
  7  5  1  0
  9 10  1  0
 11 10  1  6
 11 12  1  0
 12  7  1  0
 13 11  1  0
 13 21  1  0
 14 13  2  0
 16 17  2  0
 16 15  1  0
 18 16  1  0
 19 18  1  0
 20 19  1  1
 20 21  1  0
 20 22  1  0
 22 24  1  0
 23 22  2  0
M  END
$$$$
