MSQ.pdb
     RDKit          3D

 24 23  0  0  1  0  0  0  0  0999 V2000
    7.6076  -11.9157   20.5308 C   0  0  0  0  0  0  0  0  0  0  0  0
    7.2816  -13.2707   19.3750 S   0  0  0  0  0  0  0  0  0  0  0  0
    8.5803  -14.5219   19.5219 C   0  0  0  0  0  0  0  0  0  0  0  0
    9.7926  -13.9919   20.2607 C   0  0  0  0  0  0  0  0  0  0  0  0
   10.7545  -15.1661   20.4237 C   0  0  2  0  0  0  0  0  0  0  0  0
   10.6786  -16.0715   19.3226 N   0  0  0  0  0  0  0  0  0  0  0  0
   10.4013  -15.8284   21.7345 C   0  0  0  0  0  0  0  0  0  0  0  0
   10.3404  -15.1826   22.8079 O   0  0  0  0  0  0  0  0  0  0  0  0
   10.9271  -19.8674   22.4272 O   0  0  0  0  0  0  0  0  0  0  0  0
    9.6613  -19.4101   22.7699 C   0  0  0  0  0  0  0  0  0  0  0  0
    9.7548  -17.9211   23.0202 C   0  0  2  0  0  0  0  0  0  0  0  0
   10.1239  -17.2154   21.7939 N   0  0  0  0  0  0  0  0  0  0  0  0
   10.6789  -17.5891   24.1146 C   0  0  0  0  0  0  0  0  0  0  0  0
   11.8300  -17.0758   23.8554 O   0  0  0  0  0  0  0  0  0  0  0  0
   10.7050  -13.4330   27.6255 N   0  0  0  0  0  0  0  0  0  0  0  0
   10.2356  -14.4357   28.4941 C   0  0  0  0  0  0  0  0  0  0  0  0
    9.7135  -14.1330   29.5775 O   0  0  0  0  0  0  0  0  0  0  0  0
   10.3675  -15.8618   28.1088 C   0  0  0  0  0  0  0  0  0  0  0  0
   11.3180  -16.0480   26.9603 C   0  0  0  0  0  0  0  0  0  0  0  0
   11.3956  -17.4528   26.5362 C   0  0  2  0  0  0  0  0  0  0  0  0
   10.4357  -17.7780   25.4809 N   0  0  0  0  0  0  0  0  0  0  0  0
   11.2559  -18.4403   27.5786 C   0  0  0  0  0  0  0  0  0  0  0  0
   10.2623  -19.2421   27.5920 O   0  0  0  0  0  0  0  0  0  0  0  0
   12.1603  -18.5828   28.5988 O   0  0  0  0  0  0  0  0  0  0  0  0
  2  1  1  0
  2  3  1  0
  4  3  1  0
  5  4  1  0
  5  6  1  6
  7  8  2  0
  7  5  1  0
  9 10  1  0
 11 10  1  6
 11 12  1  0
 12  7  1  0
 13 11  1  0
 13 21  1  0
 14 13  2  0
 16 17  2  0
 16 15  1  0
 18 16  1  0
 19 18  1  0
 20 19  1  1
 20 21  1  0
 20 22  1  0
 22 24  1  0
 23 22  2  0
M  END
$$$$
