HDT.pdb
     RDKit          3D

 26 26  0  0  1  0  0  0  0  0999 V2000
    7.6183  -17.2177   19.6438 N   0  0  0  0  0  0  0  0  0  0  0  0
    8.2961  -16.2342   20.4399 C   0  0  1  0  0  0  0  0  0  0  0  0
    7.6011  -14.8991   20.3077 C   0  0  0  0  0  0  0  0  0  0  0  0
    7.8371  -14.3179   18.9498 C   0  0  0  0  0  0  0  0  0  0  0  0
    8.6270  -14.8348   17.9583 C   0  0  0  0  0  0  0  0  0  0  0  0
    8.5672  -14.0106   16.9021 N   0  0  0  0  0  0  0  0  0  0  0  0
    7.7493  -13.0018   17.2463 C   0  0  0  0  0  0  0  0  0  0  0  0
    7.3036  -13.1834   18.4875 N   0  0  0  0  0  0  0  0  0  0  0  0
    8.2580  -16.6370   21.8897 C   0  0  0  0  0  0  0  0  0  0  0  0
    7.1924  -17.1193   22.2855 O   0  0  0  0  0  0  0  0  0  0  0  0
    9.3649  -16.4726   22.7324 N   0  0  0  0  0  0  0  0  0  0  0  0
    9.4730  -16.7387   24.1325 C   0  0  1  0  0  0  0  0  0  0  0  0
   10.4994  -17.7982   24.4604 C   0  0  0  0  0  0  0  0  0  0  0  0
   10.5419  -17.9771   25.9339 C   0  0  0  0  0  0  0  0  0  0  0  0
    9.5412  -18.3650   26.6207 O   0  0  0  0  0  0  0  0  0  0  0  0
    9.5010  -15.5628   25.0063 C   0  0  0  0  0  0  0  0  0  0  0  0
   10.4885  -14.7443   25.0179 O   0  0  0  0  0  0  0  0  0  0  0  0
   11.7065  -17.7252   26.6692 O   0  0  0  0  0  0  0  0  0  0  0  0
    7.0798  -12.6372   25.4468 C   0  0  0  0  0  0  0  0  0  0  0  0
    7.1796  -13.4101   26.7577 C   0  0  1  0  0  0  0  0  0  0  0  0
    6.2282  -14.3985   26.8307 O   0  0  0  0  0  0  0  0  0  0  0  0
    8.5610  -14.0827   26.7750 C   0  0  2  0  0  0  0  0  0  0  0  0
    8.4520  -15.2269   25.9073 N   0  0  0  0  0  0  0  0  0  0  0  0
    8.8524  -14.4452   28.1710 C   0  0  0  0  0  0  0  0  0  0  0  0
    8.9106  -15.6528   28.4948 O   0  0  0  0  0  0  0  0  0  0  0  0
    9.0665  -13.4947   29.1487 O   0  0  0  0  0  0  0  0  0  0  0  0
  2  3  1  0
  2  1  1  6
  2  9  1  0
  3  4  1  0
  4  8  1  0
  4  5  2  0
  5  6  1  0
  7  6  1  0
  8  7  2  0
  9 10  2  0
 11  9  1  0
 11 12  1  0
 12 16  1  0
 13 14  1  0
 12 13  1  6
 14 15  2  0
 14 18  1  0
 16 23  1  0
 16 17  2  0
 20 19  1  6
 20 22  1  0
 20 21  1  0
 22 24  1  0
 22 23  1  6
 24 25  2  0
 24 26  1  0
M  END
$$$$
