HDT.pdb
     RDKit          3D

 26 26  0  0  1  0  0  0  0  0999 V2000
    7.8608  -17.0955   20.3348 N   0  0  0  0  0  0  0  0  0  0  0  0
    8.6833  -16.2210   21.1218 C   0  0  1  0  0  0  0  0  0  0  0  0
    8.0137  -14.8738   21.2610 C   0  0  0  0  0  0  0  0  0  0  0  0
    7.9999  -14.1576   19.9479 C   0  0  0  0  0  0  0  0  0  0  0  0
    8.4903  -14.6153   18.7545 C   0  0  0  0  0  0  0  0  0  0  0  0
    8.2825  -13.6705   17.8257 N   0  0  0  0  0  0  0  0  0  0  0  0
    7.6718  -12.6475   18.4466 C   0  0  0  0  0  0  0  0  0  0  0  0
    7.4980  -12.9378   19.7341 N   0  0  0  0  0  0  0  0  0  0  0  0
    8.8643  -16.7954   22.5013 C   0  0  0  0  0  0  0  0  0  0  0  0
    7.9426  -17.5070   22.9122 O   0  0  0  0  0  0  0  0  0  0  0  0
   10.0086  -16.5354   23.2665 N   0  0  0  0  0  0  0  0  0  0  0  0
   10.2957  -16.9261   24.6110 C   0  0  1  0  0  0  0  0  0  0  0  0
   11.3470  -18.0073   24.7059 C   0  0  0  0  0  0  0  0  0  0  0  0
   11.5370  -18.3596   26.1359 C   0  0  0  0  0  0  0  0  0  0  0  0
   12.1424  -17.6073   26.9673 O   0  0  0  0  0  0  0  0  0  0  0  0
   10.4470  -15.8335   25.5757 C   0  0  0  0  0  0  0  0  0  0  0  0
   11.4950  -15.0949   25.6116 O   0  0  0  0  0  0  0  0  0  0  0  0
   11.0528  -19.5622   26.6648 O   0  0  0  0  0  0  0  0  0  0  0  0
    8.3803  -12.7387   26.4288 C   0  0  0  0  0  0  0  0  0  0  0  0
    8.4169  -13.6657   27.6392 C   0  0  1  0  0  0  0  0  0  0  0  0
    7.3616  -14.5453   27.6293 O   0  0  0  0  0  0  0  0  0  0  0  0
    9.7136  -14.4835   27.5358 C   0  0  2  0  0  0  0  0  0  0  0  0
    9.4608  -15.4976   26.5450 N   0  0  0  0  0  0  0  0  0  0  0  0
    9.9868  -15.0390   28.8707 C   0  0  0  0  0  0  0  0  0  0  0  0
    9.9503  -16.2783   29.0417 O   0  0  0  0  0  0  0  0  0  0  0  0
   10.2851  -14.2376   29.9542 O   0  0  0  0  0  0  0  0  0  0  0  0
  2  3  1  0
  2  1  1  6
  2  9  1  0
  3  4  1  0
  4  8  1  0
  4  5  2  0
  5  6  1  0
  7  6  1  0
  8  7  2  0
  9 10  2  0
 11  9  1  0
 11 12  1  0
 12 16  1  0
 13 14  1  0
 12 13  1  6
 14 15  2  0
 14 18  1  0
 16 23  1  0
 16 17  2  0
 20 19  1  6
 20 22  1  0
 20 21  1  0
 22 24  1  0
 22 23  1  6
 24 25  2  0
 24 26  1  0
M  END
$$$$
