HDT.pdb
     RDKit          3D

 26 26  0  0  1  0  0  0  0  0999 V2000
    9.7616  -17.2224   19.7453 N   0  0  0  0  0  0  0  0  0  0  0  0
    9.5479  -16.3210   20.8419 C   0  0  1  0  0  0  0  0  0  0  0  0
    8.1580  -15.7341   20.7605 C   0  0  0  0  0  0  0  0  0  0  0  0
    8.1517  -14.5222   19.8837 C   0  0  0  0  0  0  0  0  0  0  0  0
    9.2296  -13.9454   19.2676 C   0  0  0  0  0  0  0  0  0  0  0  0
    8.7973  -12.8805   18.5766 N   0  0  0  0  0  0  0  0  0  0  0  0
    7.4696  -12.8090   18.7696 C   0  0  0  0  0  0  0  0  0  0  0  0
    7.0729  -13.8026   19.5618 N   0  0  0  0  0  0  0  0  0  0  0  0
    9.6627  -17.0663   22.1446 C   0  0  0  0  0  0  0  0  0  0  0  0
    9.4065  -18.2733   22.0975 O   0  0  0  0  0  0  0  0  0  0  0  0
   10.0368  -16.4255   23.3328 N   0  0  0  0  0  0  0  0  0  0  0  0
   10.4096  -17.0052   24.5849 C   0  0  1  0  0  0  0  0  0  0  0  0
   11.4097  -18.1295   24.4470 C   0  0  0  0  0  0  0  0  0  0  0  0
   11.6942  -18.6792   25.7968 C   0  0  0  0  0  0  0  0  0  0  0  0
   10.7830  -19.0004   26.6276 O   0  0  0  0  0  0  0  0  0  0  0  0
   10.6914  -16.0597   25.6684 C   0  0  0  0  0  0  0  0  0  0  0  0
   11.8021  -15.4232   25.7473 O   0  0  0  0  0  0  0  0  0  0  0  0
   13.0055  -18.8808   26.2444 O   0  0  0  0  0  0  0  0  0  0  0  0
    8.5948  -13.1191   26.5978 C   0  0  0  0  0  0  0  0  0  0  0  0
    8.7733  -13.9452   27.8673 C   0  0  1  0  0  0  0  0  0  0  0  0
    7.7402  -14.8351   28.0358 O   0  0  0  0  0  0  0  0  0  0  0  0
   10.0687  -14.7534   27.6953 C   0  0  2  0  0  0  0  0  0  0  0  0
    9.7731  -15.7662   26.7151 N   0  0  0  0  0  0  0  0  0  0  0  0
   10.4132  -15.3111   29.0127 C   0  0  0  0  0  0  0  0  0  0  0  0
   10.3637  -16.5491   29.1898 O   0  0  0  0  0  0  0  0  0  0  0  0
   10.7932  -14.5133   30.0730 O   0  0  0  0  0  0  0  0  0  0  0  0
  2  3  1  0
  2  1  1  6
  2  9  1  0
  3  4  1  0
  4  8  1  0
  4  5  2  0
  5  6  1  0
  7  6  1  0
  8  7  2  0
  9 10  2  0
 11  9  1  0
 11 12  1  0
 12 16  1  0
 13 14  1  0
 12 13  1  6
 14 15  2  0
 14 18  1  0
 16 23  1  0
 16 17  2  0
 20 19  1  6
 20 22  1  0
 20 21  1  0
 22 24  1  0
 22 23  1  6
 24 25  2  0
 24 26  1  0
M  END
$$$$
