HDT.pdb
     RDKit          3D

 26 26  0  0  1  0  0  0  0  0999 V2000
    9.9566  -16.4079   18.8571 N   0  0  0  0  0  0  0  0  0  0  0  0
   10.8510  -15.4695   19.4736 C   0  0  1  0  0  0  0  0  0  0  0  0
   10.0694  -14.5059   20.3360 C   0  0  0  0  0  0  0  0  0  0  0  0
    9.0922  -13.7348   19.5065 C   0  0  0  0  0  0  0  0  0  0  0  0
    9.3799  -12.7713   18.5775 C   0  0  0  0  0  0  0  0  0  0  0  0
    8.2243  -12.3290   18.0605 N   0  0  0  0  0  0  0  0  0  0  0  0
    7.2424  -13.0160   18.6681 C   0  0  0  0  0  0  0  0  0  0  0  0
    7.7635  -13.8701   19.5462 N   0  0  0  0  0  0  0  0  0  0  0  0
   11.8261  -16.1995   20.3579 C   0  0  0  0  0  0  0  0  0  0  0  0
   11.3884  -17.2054   20.9248 O   0  0  0  0  0  0  0  0  0  0  0  0
   13.1461  -15.7605   20.5237 N   0  0  0  0  0  0  0  0  0  0  0  0
   14.1737  -16.3042   21.3550 C   0  0  1  0  0  0  0  0  0  0  0  0
   15.5626  -15.8716   20.9458 C   0  0  0  0  0  0  0  0  0  0  0  0
   16.5516  -16.6092   21.7721 C   0  0  0  0  0  0  0  0  0  0  0  0
   17.6071  -16.0736   22.2440 O   0  0  0  0  0  0  0  0  0  0  0  0
   13.9165  -16.2656   22.7971 C   0  0  0  0  0  0  0  0  0  0  0  0
   14.3059  -15.2906   23.5341 O   0  0  0  0  0  0  0  0  0  0  0  0
   16.3791  -17.9625   22.0873 O   0  0  0  0  0  0  0  0  0  0  0  0
   11.0662  -18.6959   24.4248 C   0  0  0  0  0  0  0  0  0  0  0  0
   11.3964  -17.3308   25.0190 C   0  0  1  0  0  0  0  0  0  0  0  0
   11.0669  -17.2708   26.3514 O   0  0  0  0  0  0  0  0  0  0  0  0
   12.9175  -17.1487   24.9006 C   0  0  2  0  0  0  0  0  0  0  0  0
   13.2224  -17.2897   23.5001 N   0  0  0  0  0  0  0  0  0  0  0  0
   13.5473  -18.1853   25.7336 C   0  0  0  0  0  0  0  0  0  0  0  0
   14.2238  -19.0866   25.1890 O   0  0  0  0  0  0  0  0  0  0  0  0
   13.4197  -18.2029   27.1078 O   0  0  0  0  0  0  0  0  0  0  0  0
  2  3  1  0
  2  1  1  1
  2  9  1  0
  3  4  1  0
  4  8  1  0
  4  5  2  0
  5  6  1  0
  7  6  1  0
  8  7  2  0
  9 10  2  0
 11  9  1  0
 11 12  1  0
 12 16  1  0
 13 14  1  0
 12 13  1  1
 14 15  2  0
 14 18  1  0
 16 23  1  0
 16 17  2  0
 20 19  1  1
 20 22  1  0
 20 21  1  0
 22 24  1  0
 22 23  1  6
 24 25  2  0
 24 26  1  0
M  END
$$$$
