HDT.pdb
     RDKit          3D

 26 26  0  0  1  0  0  0  0  0999 V2000
    9.9374  -14.9050   20.1835 N   0  0  0  0  0  0  0  0  0  0  0  0
    8.7993  -14.4019   20.8992 C   0  0  1  0  0  0  0  0  0  0  0  0
    7.5298  -14.7630   20.1637 C   0  0  0  0  0  0  0  0  0  0  0  0
    7.5933  -14.2905   18.7459 C   0  0  0  0  0  0  0  0  0  0  0  0
    8.1692  -13.1363   18.2871 C   0  0  0  0  0  0  0  0  0  0  0  0
    8.0089  -13.0879   16.9566 N   0  0  0  0  0  0  0  0  0  0  0  0
    7.3423  -14.2011   16.6080 C   0  0  0  0  0  0  0  0  0  0  0  0
    7.0877  -14.9341   17.6898 N   0  0  0  0  0  0  0  0  0  0  0  0
    8.7390  -15.0283   22.2666 C   0  0  0  0  0  0  0  0  0  0  0  0
    7.7291  -14.7739   22.9300 O   0  0  0  0  0  0  0  0  0  0  0  0
    9.7672  -15.8472   22.7510 N   0  0  0  0  0  0  0  0  0  0  0  0
    9.9469  -16.3770   24.0662 C   0  0  1  0  0  0  0  0  0  0  0  0
   10.9303  -17.5232   24.1179 C   0  0  0  0  0  0  0  0  0  0  0  0
   10.8146  -18.3042   22.8603 C   0  0  0  0  0  0  0  0  0  0  0  0
    9.7755  -18.9702   22.5435 O   0  0  0  0  0  0  0  0  0  0  0  0
   10.0955  -15.3892   25.1383 C   0  0  0  0  0  0  0  0  0  0  0  0
   11.0797  -14.5676   25.1779 O   0  0  0  0  0  0  0  0  0  0  0  0
   11.8606  -18.3557   21.9310 O   0  0  0  0  0  0  0  0  0  0  0  0
    8.1243  -12.5148   26.1496 C   0  0  0  0  0  0  0  0  0  0  0  0
    8.1203  -13.4538   27.3513 C   0  0  1  0  0  0  0  0  0  0  0  0
    7.0498  -14.3140   27.3119 O   0  0  0  0  0  0  0  0  0  0  0  0
    9.4039  -14.2939   27.2655 C   0  0  2  0  0  0  0  0  0  0  0  0
    9.1762  -15.2535   26.2160 N   0  0  0  0  0  0  0  0  0  0  0  0
    9.6055  -14.9187   28.5824 C   0  0  0  0  0  0  0  0  0  0  0  0
    9.5168  -16.1620   28.6946 O   0  0  0  0  0  0  0  0  0  0  0  0
    9.8919  -14.1786   29.7118 O   0  0  0  0  0  0  0  0  0  0  0  0
  2  3  1  0
  2  1  1  6
  2  9  1  0
  3  4  1  0
  4  8  1  0
  4  5  2  0
  5  6  1  0
  7  6  1  0
  8  7  2  0
  9 10  2  0
 11  9  1  0
 11 12  1  0
 12 16  1  0
 13 14  1  0
 12 13  1  6
 14 15  2  0
 14 18  1  0
 16 23  1  0
 16 17  2  0
 20 19  1  6
 20 22  1  0
 20 21  1  0
 22 24  1  0
 22 23  1  6
 24 25  2  0
 24 26  1  0
M  END
$$$$
