HDT.pdb
     RDKit          3D

 26 26  0  0  1  0  0  0  0  0999 V2000
    8.0941  -17.3365   15.7379 N   0  0  0  0  0  0  0  0  0  0  0  0
    8.7341  -16.3451   16.5553 C   0  0  1  0  0  0  0  0  0  0  0  0
    7.8499  -15.1252   16.6694 C   0  0  0  0  0  0  0  0  0  0  0  0
    7.7337  -14.4369   15.3465 C   0  0  0  0  0  0  0  0  0  0  0  0
    8.5771  -13.4876   14.8348 C   0  0  0  0  0  0  0  0  0  0  0  0
    8.1198  -13.1280   13.6264 N   0  0  0  0  0  0  0  0  0  0  0  0
    7.0092  -13.8507   13.4040 C   0  0  0  0  0  0  0  0  0  0  0  0
    6.7706  -14.6463   14.4444 N   0  0  0  0  0  0  0  0  0  0  0  0
    8.9546  -16.8911   17.9406 C   0  0  0  0  0  0  0  0  0  0  0  0
    8.0280  -17.5600   18.4083 O   0  0  0  0  0  0  0  0  0  0  0  0
   10.1387  -16.6520   18.6500 N   0  0  0  0  0  0  0  0  0  0  0  0
   10.4879  -17.0597   19.9746 C   0  0  1  0  0  0  0  0  0  0  0  0
   11.7857  -17.8311   20.0382 C   0  0  0  0  0  0  0  0  0  0  0  0
   11.9895  -18.3020   21.4317 C   0  0  0  0  0  0  0  0  0  0  0  0
   11.0362  -18.6741   22.1909 O   0  0  0  0  0  0  0  0  0  0  0  0
   10.3220  -16.0462   21.0200 C   0  0  0  0  0  0  0  0  0  0  0  0
   11.2754  -15.2618   21.3676 O   0  0  0  0  0  0  0  0  0  0  0  0
   13.2657  -18.3660   22.0041 O   0  0  0  0  0  0  0  0  0  0  0  0
    7.7306  -13.2772   21.4988 C   0  0  0  0  0  0  0  0  0  0  0  0
    7.6580  -14.2239   22.6922 C   0  0  1  0  0  0  0  0  0  0  0  0
    6.7241  -15.2116   22.4925 O   0  0  0  0  0  0  0  0  0  0  0  0
    9.0351  -14.8944   22.8143 C   0  0  2  0  0  0  0  0  0  0  0  0
    9.1076  -15.8432   21.7332 N   0  0  0  0  0  0  0  0  0  0  0  0
    9.0957  -15.5282   24.1408 C   0  0  0  0  0  0  0  0  0  0  0  0
    9.1320  -16.7763   24.2264 O   0  0  0  0  0  0  0  0  0  0  0  0
    9.1145  -14.7916   25.3081 O   0  0  0  0  0  0  0  0  0  0  0  0
  2  3  1  0
  2  1  1  6
  2  9  1  0
  3  4  1  0
  4  8  1  0
  4  5  2  0
  5  6  1  0
  7  6  1  0
  8  7  2  0
  9 10  2  0
 11  9  1  0
 11 12  1  0
 12 16  1  0
 13 14  1  0
 12 13  1  6
 14 15  2  0
 14 18  1  0
 16 23  1  0
 16 17  2  0
 20 19  1  6
 20 22  1  0
 20 21  1  0
 22 24  1  0
 22 23  1  6
 24 25  2  0
 24 26  1  0
M  END
$$$$
