HDT.pdb
     RDKit          3D

 26 26  0  0  1  0  0  0  0  0999 V2000
    8.9081  -17.4399   18.5494 N   0  0  0  0  0  0  0  0  0  0  0  0
    9.5606  -16.5091   19.4261 C   0  0  1  0  0  0  0  0  0  0  0  0
    8.6118  -15.3886   19.7830 C   0  0  0  0  0  0  0  0  0  0  0  0
    8.3164  -14.5494   18.5805 C   0  0  0  0  0  0  0  0  0  0  0  0
    8.7954  -14.7313   17.3110 C   0  0  0  0  0  0  0  0  0  0  0  0
    8.2918  -13.7642   16.5303 N   0  0  0  0  0  0  0  0  0  0  0  0
    7.5139  -13.0007   17.3159 C   0  0  0  0  0  0  0  0  0  0  0  0
    7.5253  -13.4727   18.5606 N   0  0  0  0  0  0  0  0  0  0  0  0
    9.9611  -17.2032   20.7002 C   0  0  0  0  0  0  0  0  0  0  0  0
    9.0918  -17.9052   21.2258 O   0  0  0  0  0  0  0  0  0  0  0  0
   11.2411  -17.0579   21.2507 N   0  0  0  0  0  0  0  0  0  0  0  0
   11.7502  -17.5714   22.4835 C   0  0  1  0  0  0  0  0  0  0  0  0
   13.2217  -17.9104   22.4258 C   0  0  0  0  0  0  0  0  0  0  0  0
   13.9385  -16.7975   21.7531 C   0  0  0  0  0  0  0  0  0  0  0  0
   13.7949  -16.5180   20.5182 O   0  0  0  0  0  0  0  0  0  0  0  0
   11.3288  -16.8616   23.6942 C   0  0  0  0  0  0  0  0  0  0  0  0
   11.9271  -15.8058   24.1096 O   0  0  0  0  0  0  0  0  0  0  0  0
   14.8314  -15.9740   22.4495 O   0  0  0  0  0  0  0  0  0  0  0  0
    8.4504  -14.9486   24.6923 C   0  0  0  0  0  0  0  0  0  0  0  0
    8.4755  -16.1456   25.6370 C   0  0  1  0  0  0  0  0  0  0  0  0
    7.7450  -17.1955   25.1356 O   0  0  0  0  0  0  0  0  0  0  0  0
    9.9398  -16.5984   25.7446 C   0  0  2  0  0  0  0  0  0  0  0  0
   10.2349  -17.2722   24.5065 N   0  0  0  0  0  0  0  0  0  0  0  0
   10.0384  -17.4814   26.9176 C   0  0  0  0  0  0  0  0  0  0  0  0
   10.3501  -18.6832   26.7598 O   0  0  0  0  0  0  0  0  0  0  0  0
    9.7980  -17.0309   28.2000 O   0  0  0  0  0  0  0  0  0  0  0  0
  2  3  1  0
  2  1  1  6
  2  9  1  0
  3  4  1  0
  4  8  1  0
  4  5  2  0
  5  6  1  0
  7  6  1  0
  8  7  2  0
  9 10  2  0
 11  9  1  0
 11 12  1  0
 12 16  1  0
 13 14  1  0
 12 13  1  6
 14 15  2  0
 14 18  1  0
 16 23  1  0
 16 17  2  0
 20 19  1  6
 20 22  1  0
 20 21  1  0
 22 24  1  0
 22 23  1  6
 24 25  2  0
 24 26  1  0
M  END
$$$$
