HDT.pdb
     RDKit          3D

 26 26  0  0  1  0  0  0  0  0999 V2000
    7.3238  -17.1540   18.8789 N   0  0  0  0  0  0  0  0  0  0  0  0
    8.4600  -16.4461   19.3970 C   0  0  1  0  0  0  0  0  0  0  0  0
    8.1336  -14.9765   19.5270 C   0  0  0  0  0  0  0  0  0  0  0  0
    7.9731  -14.3542   18.1763 C   0  0  0  0  0  0  0  0  0  0  0  0
    8.0915  -14.9769   16.9629 C   0  0  0  0  0  0  0  0  0  0  0  0
    7.8743  -14.0672   16.0018 N   0  0  0  0  0  0  0  0  0  0  0  0
    7.6261  -12.9021   16.6231 C   0  0  0  0  0  0  0  0  0  0  0  0
    7.6848  -13.0707   17.9423 N   0  0  0  0  0  0  0  0  0  0  0  0
    8.8059  -16.9687   20.7656 C   0  0  0  0  0  0  0  0  0  0  0  0
    7.8575  -17.1031   21.5449 O   0  0  0  0  0  0  0  0  0  0  0  0
   10.1229  -17.2810   21.1270 N   0  0  0  0  0  0  0  0  0  0  0  0
   10.6322  -17.6787   22.4018 C   0  0  1  0  0  0  0  0  0  0  0  0
   11.9956  -18.3255   22.3235 C   0  0  0  0  0  0  0  0  0  0  0  0
   11.8395  -19.6955   21.7724 C   0  0  0  0  0  0  0  0  0  0  0  0
   10.7071  -20.2293   21.5353 O   0  0  0  0  0  0  0  0  0  0  0  0
   10.4738  -16.7051   23.4854 C   0  0  0  0  0  0  0  0  0  0  0  0
   11.3624  -15.8157   23.7394 O   0  0  0  0  0  0  0  0  0  0  0  0
   12.9488  -20.4966   21.4754 O   0  0  0  0  0  0  0  0  0  0  0  0
    7.9571  -14.0793   24.2439 C   0  0  0  0  0  0  0  0  0  0  0  0
    7.9106  -15.0785   25.3950 C   0  0  1  0  0  0  0  0  0  0  0  0
    6.9740  -16.0583   25.1710 O   0  0  0  0  0  0  0  0  0  0  0  0
    9.2908  -15.7508   25.4584 C   0  0  2  0  0  0  0  0  0  0  0  0
    9.3377  -16.6582   24.3410 N   0  0  0  0  0  0  0  0  0  0  0  0
    9.3843  -16.4338   26.7583 C   0  0  0  0  0  0  0  0  0  0  0  0
    9.4519  -17.6830   26.7947 O   0  0  0  0  0  0  0  0  0  0  0  0
    9.4006  -15.7427   27.9531 O   0  0  0  0  0  0  0  0  0  0  0  0
  2  3  1  0
  2  1  1  1
  2  9  1  0
  3  4  1  0
  4  8  1  0
  4  5  2  0
  5  6  1  0
  7  6  1  0
  8  7  2  0
  9 10  2  0
 11  9  1  0
 11 12  1  0
 12 16  1  0
 13 14  1  0
 12 13  1  6
 14 15  2  0
 14 18  1  0
 16 23  1  0
 16 17  2  0
 20 19  1  6
 20 22  1  0
 20 21  1  0
 22 24  1  0
 22 23  1  6
 24 25  2  0
 24 26  1  0
M  END
$$$$
