HDT.pdb
     RDKit          3D

 26 26  0  0  1  0  0  0  0  0999 V2000
    8.2543  -17.3882   17.9904 N   0  0  0  0  0  0  0  0  0  0  0  0
    9.3816  -16.6268   18.4488 C   0  0  1  0  0  0  0  0  0  0  0  0
    8.9774  -15.1859   18.6567 C   0  0  0  0  0  0  0  0  0  0  0  0
    8.5348  -14.5744   17.3653 C   0  0  0  0  0  0  0  0  0  0  0  0
    8.5234  -15.1703   16.1328 C   0  0  0  0  0  0  0  0  0  0  0  0
    8.0567  -14.2827   15.2423 N   0  0  0  0  0  0  0  0  0  0  0  0
    7.7865  -13.1576   15.9251 C   0  0  0  0  0  0  0  0  0  0  0  0
    8.0748  -13.3292   17.2134 N   0  0  0  0  0  0  0  0  0  0  0  0
    9.8619  -17.1703   19.7678 C   0  0  0  0  0  0  0  0  0  0  0  0
    9.0199  -17.7758   20.4380 O   0  0  0  0  0  0  0  0  0  0  0  0
   11.1823  -16.9967   20.2025 N   0  0  0  0  0  0  0  0  0  0  0  0
   11.7736  -17.3775   21.4467 C   0  0  1  0  0  0  0  0  0  0  0  0
   13.2561  -17.6511   21.3431 C   0  0  0  0  0  0  0  0  0  0  0  0
   13.4531  -18.9199   20.5973 C   0  0  0  0  0  0  0  0  0  0  0  0
   13.0793  -19.0874   19.3907 O   0  0  0  0  0  0  0  0  0  0  0  0
   11.3735  -16.5861   22.6133 C   0  0  0  0  0  0  0  0  0  0  0  0
   12.0338  -15.5562   22.9986 O   0  0  0  0  0  0  0  0  0  0  0  0
   14.0730  -20.0280   21.1874 O   0  0  0  0  0  0  0  0  0  0  0  0
    8.3805  -14.6185   23.3006 C   0  0  0  0  0  0  0  0  0  0  0  0
    8.4310  -15.6847   24.3898 C   0  0  1  0  0  0  0  0  0  0  0  0
    7.7340  -16.8102   24.0224 O   0  0  0  0  0  0  0  0  0  0  0  0
    9.9064  -16.0784   24.5607 C   0  0  2  0  0  0  0  0  0  0  0  0
   10.2341  -16.8833   23.4123 N   0  0  0  0  0  0  0  0  0  0  0  0
   10.0173  -16.8148   25.8298 C   0  0  0  0  0  0  0  0  0  0  0  0
   10.3370  -18.0247   25.8143 O   0  0  0  0  0  0  0  0  0  0  0  0
    9.7799  -16.2165   27.0509 O   0  0  0  0  0  0  0  0  0  0  0  0
  2  3  1  0
  2  1  1  1
  2  9  1  0
  3  4  1  0
  4  8  1  0
  4  5  2  0
  5  6  1  0
  7  6  1  0
  8  7  2  0
  9 10  2  0
 11  9  1  0
 11 12  1  0
 12 16  1  0
 13 14  1  0
 12 13  1  6
 14 15  2  0
 14 18  1  0
 16 23  1  0
 16 17  2  0
 20 19  1  6
 20 22  1  0
 20 21  1  0
 22 24  1  0
 22 23  1  6
 24 25  2  0
 24 26  1  0
M  END
$$$$
