HDT.pdb
     RDKit          3D

 26 26  0  0  1  0  0  0  0  0999 V2000
   10.2195  -15.2521   20.3568 N   0  0  0  0  0  0  0  0  0  0  0  0
    9.2173  -14.7333   21.2439 C   0  0  1  0  0  0  0  0  0  0  0  0
    7.8490  -14.8964   20.6239 C   0  0  0  0  0  0  0  0  0  0  0  0
    7.7928  -14.2166   19.2927 C   0  0  0  0  0  0  0  0  0  0  0  0
    8.4773  -13.0940   18.9112 C   0  0  0  0  0  0  0  0  0  0  0  0
    8.1464  -12.8121   17.6425 N   0  0  0  0  0  0  0  0  0  0  0  0
    7.2693  -13.7531   17.2549 C   0  0  0  0  0  0  0  0  0  0  0  0
    7.0513  -14.6076   18.2521 N   0  0  0  0  0  0  0  0  0  0  0  0
    9.2357  -15.5003   22.5389 C   0  0  0  0  0  0  0  0  0  0  0  0
    8.3334  -15.2289   23.3370 O   0  0  0  0  0  0  0  0  0  0  0  0
   10.2175  -16.4605   22.8158 N   0  0  0  0  0  0  0  0  0  0  0  0
   10.4976  -17.1261   24.0492 C   0  0  1  0  0  0  0  0  0  0  0  0
   11.3352  -18.3720   23.8774 C   0  0  0  0  0  0  0  0  0  0  0  0
   10.6137  -19.3080   22.9783 C   0  0  0  0  0  0  0  0  0  0  0  0
    9.6691  -20.0674   23.3716 O   0  0  0  0  0  0  0  0  0  0  0  0
   10.8980  -16.2638   25.1643 C   0  0  0  0  0  0  0  0  0  0  0  0
   12.0213  -15.6447   25.1793 O   0  0  0  0  0  0  0  0  0  0  0  0
   10.9352  -19.4131   21.6196 O   0  0  0  0  0  0  0  0  0  0  0  0
    8.2346  -14.4573   27.5640 C   0  0  0  0  0  0  0  0  0  0  0  0
    9.6732  -13.9740   27.4133 C   0  0  1  0  0  0  0  0  0  0  0  0
   10.0538  -13.1930   28.4776 O   0  0  0  0  0  0  0  0  0  0  0  0
   10.5654  -15.2249   27.4032 C   0  0  2  0  0  0  0  0  0  0  0  0
   10.0901  -16.0380   26.3137 N   0  0  0  0  0  0  0  0  0  0  0  0
   10.4180  -15.8767   28.7142 C   0  0  0  0  0  0  0  0  0  0  0  0
    9.7983  -16.9609   28.7972 O   0  0  0  0  0  0  0  0  0  0  0  0
   10.9425  -15.3329   29.8694 O   0  0  0  0  0  0  0  0  0  0  0  0
  2  3  1  0
  2  1  1  6
  2  9  1  0
  3  4  1  0
  4  8  1  0
  4  5  2  0
  5  6  1  0
  7  6  1  0
  8  7  2  0
  9 10  2  0
 11  9  1  0
 11 12  1  0
 12 16  1  0
 13 14  1  0
 12 13  1  6
 14 15  2  0
 14 18  1  0
 16 23  1  0
 16 17  2  0
 20 19  1  1
 20 22  1  0
 20 21  1  0
 22 24  1  0
 22 23  1  6
 24 25  2  0
 24 26  1  0
M  END
$$$$
