HDT.pdb
     RDKit          3D

 26 26  0  0  1  0  0  0  0  0999 V2000
    7.9211  -17.0744   20.3442 N   0  0  0  0  0  0  0  0  0  0  0  0
    8.6664  -16.0380   21.0008 C   0  0  1  0  0  0  0  0  0  0  0  0
    7.8678  -14.7554   21.0048 C   0  0  0  0  0  0  0  0  0  0  0  0
    7.8246  -14.1609   19.6329 C   0  0  0  0  0  0  0  0  0  0  0  0
    8.3933  -14.6697   18.4962 C   0  0  0  0  0  0  0  0  0  0  0  0
    8.1233  -13.8346   17.4824 N   0  0  0  0  0  0  0  0  0  0  0  0
    7.3975  -12.8272   17.9957 C   0  0  0  0  0  0  0  0  0  0  0  0
    7.2134  -13.0204   19.3000 N   0  0  0  0  0  0  0  0  0  0  0  0
    8.9295  -16.4268   22.4310 C   0  0  0  0  0  0  0  0  0  0  0  0
    7.9364  -16.7433   23.0931 O   0  0  0  0  0  0  0  0  0  0  0  0
   10.2219  -16.4274   22.9715 N   0  0  0  0  0  0  0  0  0  0  0  0
   10.6315  -16.6918   24.3150 C   0  0  1  0  0  0  0  0  0  0  0  0
   11.9276  -17.4637   24.4021 C   0  0  0  0  0  0  0  0  0  0  0  0
   11.6530  -18.8887   24.0874 C   0  0  0  0  0  0  0  0  0  0  0  0
   10.4822  -19.3916   24.0857 O   0  0  0  0  0  0  0  0  0  0  0  0
   10.5192  -15.5692   25.2501 C   0  0  0  0  0  0  0  0  0  0  0  0
   11.3925  -14.6310   25.2983 O   0  0  0  0  0  0  0  0  0  0  0  0
   12.6841  -19.7804   23.7680 O   0  0  0  0  0  0  0  0  0  0  0  0
    7.9031  -12.9353   25.8406 C   0  0  0  0  0  0  0  0  0  0  0  0
    8.0223  -13.7676   27.1130 C   0  0  1  0  0  0  0  0  0  0  0  0
    7.1387  -14.8195   27.1087 O   0  0  0  0  0  0  0  0  0  0  0  0
    9.4453  -14.3468   27.1356 C   0  0  2  0  0  0  0  0  0  0  0  0
    9.4482  -15.4199   26.1751 N   0  0  0  0  0  0  0  0  0  0  0  0
    9.7087  -14.8037   28.5093 C   0  0  0  0  0  0  0  0  0  0  0  0
    9.8601  -16.0255   28.7339 O   0  0  0  0  0  0  0  0  0  0  0  0
    9.7964  -13.9273   29.5721 O   0  0  0  0  0  0  0  0  0  0  0  0
  2  3  1  0
  2  1  1  1
  2  9  1  0
  3  4  1  0
  4  8  1  0
  4  5  2  0
  5  6  1  0
  7  6  1  0
  8  7  2  0
  9 10  2  0
 11  9  1  0
 11 12  1  0
 12 16  1  0
 13 14  1  0
 12 13  1  6
 14 15  2  0
 14 18  1  0
 16 23  1  0
 16 17  2  0
 20 19  1  6
 20 22  1  0
 20 21  1  0
 22 24  1  0
 22 23  1  6
 24 25  2  0
 24 26  1  0
M  END
$$$$
