HDT.pdb
     RDKit          3D

 26 26  0  0  1  0  0  0  0  0999 V2000
    8.7528  -16.6498   19.7208 N   0  0  0  0  0  0  0  0  0  0  0  0
    8.8704  -15.6102   20.7037 C   0  0  1  0  0  0  0  0  0  0  0  0
    7.6908  -14.6716   20.6018 C   0  0  0  0  0  0  0  0  0  0  0  0
    7.7055  -13.9523   19.2904 C   0  0  0  0  0  0  0  0  0  0  0  0
    8.3414  -12.7742   19.0040 C   0  0  0  0  0  0  0  0  0  0  0  0
    8.1054  -12.4720   17.7189 N   0  0  0  0  0  0  0  0  0  0  0  0
    7.3337  -13.4557   17.2272 C   0  0  0  0  0  0  0  0  0  0  0  0
    7.0882  -14.3563   18.1764 N   0  0  0  0  0  0  0  0  0  0  0  0
    8.8693  -16.2107   22.0840 C   0  0  0  0  0  0  0  0  0  0  0  0
    7.8145  -16.7479   22.4353 O   0  0  0  0  0  0  0  0  0  0  0  0
    9.9971  -16.1601   22.9134 N   0  0  0  0  0  0  0  0  0  0  0  0
   10.1387  -16.6108   24.2623 C   0  0  1  0  0  0  0  0  0  0  0  0
   11.1874  -17.6866   24.4244 C   0  0  0  0  0  0  0  0  0  0  0  0
   11.1837  -18.1433   25.8374 C   0  0  0  0  0  0  0  0  0  0  0  0
   10.1178  -18.3997   26.4869 O   0  0  0  0  0  0  0  0  0  0  0  0
   10.1676  -15.5633   25.2866 C   0  0  0  0  0  0  0  0  0  0  0  0
   11.1620  -14.7638   25.4174 O   0  0  0  0  0  0  0  0  0  0  0  0
   12.3739  -18.3222   26.5527 O   0  0  0  0  0  0  0  0  0  0  0  0
    7.4446  -12.8657   26.0692 C   0  0  0  0  0  0  0  0  0  0  0  0
    7.7249  -13.7387   27.2878 C   0  0  1  0  0  0  0  0  0  0  0  0
    6.8938  -14.8322   27.3230 O   0  0  0  0  0  0  0  0  0  0  0  0
    9.1682  -14.2473   27.1499 C   0  0  2  0  0  0  0  0  0  0  0  0
    9.1119  -15.3409   26.2146 N   0  0  0  0  0  0  0  0  0  0  0  0
    9.6157  -14.6590   28.4899 C   0  0  0  0  0  0  0  0  0  0  0  0
    9.6897  -13.8070   29.4037 O   0  0  0  0  0  0  0  0  0  0  0  0
    9.9609  -15.9632   28.7819 O   0  0  0  0  0  0  0  0  0  0  0  0
  2  3  1  0
  2  1  1  6
  2  9  1  0
  3  4  1  0
  4  8  1  0
  4  5  2  0
  5  6  1  0
  7  6  1  0
  8  7  2  0
  9 10  2  0
 11  9  1  0
 11 12  1  0
 12 16  1  0
 13 14  1  0
 12 13  1  6
 14 15  2  0
 14 18  1  0
 16 23  1  0
 16 17  2  0
 20 19  1  6
 20 22  1  0
 20 21  1  0
 22 24  1  0
 22 23  1  6
 24 25  2  0
 24 26  1  0
M  END
$$$$
