HDT.pdb
     RDKit          3D

 26 26  0  0  1  0  0  0  0  0999 V2000
    9.0581  -16.8213   20.0834 N   0  0  0  0  0  0  0  0  0  0  0  0
    9.3051  -15.8143   21.0762 C   0  0  1  0  0  0  0  0  0  0  0  0
    8.1259  -14.8730   21.1570 C   0  0  0  0  0  0  0  0  0  0  0  0
    7.9249  -14.1719   19.8510 C   0  0  0  0  0  0  0  0  0  0  0  0
    8.4117  -12.9439   19.4916 C   0  0  0  0  0  0  0  0  0  0  0  0
    8.0045  -12.6810   18.2412 N   0  0  0  0  0  0  0  0  0  0  0  0
    7.2770  -13.7378   17.8427 C   0  0  0  0  0  0  0  0  0  0  0  0
    7.2256  -14.6452   18.8155 N   0  0  0  0  0  0  0  0  0  0  0  0
    9.4786  -16.4595   22.4250 C   0  0  0  0  0  0  0  0  0  0  0  0
    8.4974  -17.0714   22.8581 O   0  0  0  0  0  0  0  0  0  0  0  0
   10.6801  -16.3680   23.1396 N   0  0  0  0  0  0  0  0  0  0  0  0
   11.0075  -16.9195   24.4168 C   0  0  1  0  0  0  0  0  0  0  0  0
   12.1430  -17.9151   24.3629 C   0  0  0  0  0  0  0  0  0  0  0  0
   12.3550  -18.4668   25.7251 C   0  0  0  0  0  0  0  0  0  0  0  0
   11.4091  -18.9072   26.4565 O   0  0  0  0  0  0  0  0  0  0  0  0
   11.0778  -15.9648   25.5263 C   0  0  0  0  0  0  0  0  0  0  0  0
   12.0431  -15.1289   25.6474 O   0  0  0  0  0  0  0  0  0  0  0  0
   13.6311  -18.5366   26.2969 O   0  0  0  0  0  0  0  0  0  0  0  0
    8.8104  -13.2267   26.5667 C   0  0  0  0  0  0  0  0  0  0  0  0
    8.8770  -14.2132   27.7278 C   0  0  1  0  0  0  0  0  0  0  0  0
    7.8898  -15.1641   27.6351 O   0  0  0  0  0  0  0  0  0  0  0  0
   10.2328  -14.9292   27.6277 C   0  0  2  0  0  0  0  0  0  0  0  0
   10.0972  -15.8793   26.5539 N   0  0  0  0  0  0  0  0  0  0  0  0
   10.4875  -15.5654   28.9299 C   0  0  0  0  0  0  0  0  0  0  0  0
   10.5453  -16.8134   29.0052 O   0  0  0  0  0  0  0  0  0  0  0  0
   10.6672  -14.8313   30.0849 O   0  0  0  0  0  0  0  0  0  0  0  0
  2  3  1  0
  2  1  1  6
  2  9  1  0
  3  4  1  0
  4  8  1  0
  4  5  2  0
  5  6  1  0
  7  6  1  0
  8  7  2  0
  9 10  2  0
 11  9  1  0
 11 12  1  0
 12 16  1  0
 13 14  1  0
 12 13  1  6
 14 15  2  0
 14 18  1  0
 16 23  1  0
 16 17  2  0
 20 19  1  6
 20 22  1  0
 20 21  1  0
 22 24  1  0
 22 23  1  6
 24 25  2  0
 24 26  1  0
M  END
$$$$
