HDT.pdb
     RDKit          3D

 26 26  0  0  1  0  0  0  0  0999 V2000
    8.3805  -17.6341   17.1079 N   0  0  0  0  0  0  0  0  0  0  0  0
    9.2597  -16.7013   17.7541 C   0  0  1  0  0  0  0  0  0  0  0  0
    8.6127  -15.3368   17.8050 C   0  0  0  0  0  0  0  0  0  0  0  0
    8.4412  -14.7866   16.4247 C   0  0  0  0  0  0  0  0  0  0  0  0
    8.7519  -15.4085   15.2453 C   0  0  0  0  0  0  0  0  0  0  0  0
    8.4470  -14.5758   14.2393 N   0  0  0  0  0  0  0  0  0  0  0  0
    7.9556  -13.4580   14.7997 C   0  0  0  0  0  0  0  0  0  0  0  0
    7.9499  -13.5806   16.1253 N   0  0  0  0  0  0  0  0  0  0  0  0
    9.5232  -17.1444   19.1683 C   0  0  0  0  0  0  0  0  0  0  0  0
    8.5601  -17.6339   19.7662 O   0  0  0  0  0  0  0  0  0  0  0  0
   10.7839  -17.0073   19.7635 N   0  0  0  0  0  0  0  0  0  0  0  0
   11.1781  -17.3008   21.1056 C   0  0  1  0  0  0  0  0  0  0  0  0
   12.6072  -17.7792   21.2160 C   0  0  0  0  0  0  0  0  0  0  0  0
   12.7858  -18.9499   20.3200 C   0  0  0  0  0  0  0  0  0  0  0  0
   12.1949  -20.0645   20.4992 O   0  0  0  0  0  0  0  0  0  0  0  0
   10.7768  -16.3209   22.1185 C   0  0  0  0  0  0  0  0  0  0  0  0
   11.4917  -15.2922   22.3942 O   0  0  0  0  0  0  0  0  0  0  0  0
   13.6302  -18.8966   19.2044 O   0  0  0  0  0  0  0  0  0  0  0  0
    7.8277  -14.1506   22.3485 C   0  0  0  0  0  0  0  0  0  0  0  0
    7.8039  -15.0155   23.6043 C   0  0  1  0  0  0  0  0  0  0  0  0
    7.0602  -16.1550   23.4143 O   0  0  0  0  0  0  0  0  0  0  0  0
    9.2544  -15.4396   23.8816 C   0  0  2  0  0  0  0  0  0  0  0  0
    9.5765  -16.4195   22.8765 N   0  0  0  0  0  0  0  0  0  0  0  0
    9.2966  -15.9826   25.2486 C   0  0  0  0  0  0  0  0  0  0  0  0
    9.5163  -17.2027   25.4205 O   0  0  0  0  0  0  0  0  0  0  0  0
    9.1012  -15.1900   26.3616 O   0  0  0  0  0  0  0  0  0  0  0  0
  2  3  1  0
  2  1  1  1
  2  9  1  0
  3  4  1  0
  4  8  1  0
  4  5  2  0
  5  6  1  0
  7  6  1  0
  8  7  2  0
  9 10  2  0
 11  9  1  0
 11 12  1  0
 12 16  1  0
 13 14  1  0
 12 13  1  6
 14 15  2  0
 14 18  1  0
 16 23  1  0
 16 17  2  0
 20 19  1  6
 20 22  1  0
 20 21  1  0
 22 24  1  0
 22 23  1  6
 24 25  2  0
 24 26  1  0
M  END
$$$$
