HDT.pdb
     RDKit          3D

 26 26  0  0  1  0  0  0  0  0999 V2000
    7.5418  -17.0657   19.7546 N   0  0  0  0  0  0  0  0  0  0  0  0
    8.4633  -16.1550   20.3725 C   0  0  1  0  0  0  0  0  0  0  0  0
    7.9481  -14.7401   20.2479 C   0  0  0  0  0  0  0  0  0  0  0  0
    7.9972  -14.2883   18.8228 C   0  0  0  0  0  0  0  0  0  0  0  0
    8.4361  -15.0090   17.7447 C   0  0  0  0  0  0  0  0  0  0  0  0
    8.3158  -14.2424   16.6509 N   0  0  0  0  0  0  0  0  0  0  0  0
    7.8088  -13.0668   17.0582 C   0  0  0  0  0  0  0  0  0  0  0  0
    7.6136  -13.0893   18.3749 N   0  0  0  0  0  0  0  0  0  0  0  0
    8.5925  -16.4758   21.8375 C   0  0  0  0  0  0  0  0  0  0  0  0
    7.5318  -16.6543   22.4440 O   0  0  0  0  0  0  0  0  0  0  0  0
    9.8404  -16.5646   22.4679 N   0  0  0  0  0  0  0  0  0  0  0  0
   10.1333  -16.7173   23.8585 C   0  0  1  0  0  0  0  0  0  0  0  0
   11.4422  -17.4264   24.1176 C   0  0  0  0  0  0  0  0  0  0  0  0
   11.3319  -18.8217   23.6216 C   0  0  0  0  0  0  0  0  0  0  0  0
   12.2862  -19.4355   23.0417 O   0  0  0  0  0  0  0  0  0  0  0  0
    9.8956  -15.5379   24.6950 C   0  0  0  0  0  0  0  0  0  0  0  0
   10.7499  -14.5859   24.7912 O   0  0  0  0  0  0  0  0  0  0  0  0
   10.1502  -19.5589   23.7648 O   0  0  0  0  0  0  0  0  0  0  0  0
    6.9556  -13.0768   25.0000 C   0  0  0  0  0  0  0  0  0  0  0  0
    7.1437  -13.7893   26.3352 C   0  0  1  0  0  0  0  0  0  0  0  0
    6.3478  -14.9055   26.4244 O   0  0  0  0  0  0  0  0  0  0  0  0
    8.6088  -14.2487   26.3934 C   0  0  2  0  0  0  0  0  0  0  0  0
    8.7144  -15.3442   25.4646 N   0  0  0  0  0  0  0  0  0  0  0  0
    8.8873  -14.6440   27.7831 C   0  0  0  0  0  0  0  0  0  0  0  0
    9.0909  -15.8493   28.0519 O   0  0  0  0  0  0  0  0  0  0  0  0
    8.9334  -13.7271   28.8138 O   0  0  0  0  0  0  0  0  0  0  0  0
  2  3  1  0
  2  1  1  1
  2  9  1  0
  3  4  1  0
  4  8  1  0
  4  5  2  0
  5  6  1  0
  7  6  1  0
  8  7  2  0
  9 10  2  0
 11  9  1  0
 11 12  1  0
 12 16  1  0
 13 14  1  0
 12 13  1  6
 14 15  2  0
 14 18  1  0
 16 23  1  0
 16 17  2  0
 20 19  1  6
 20 22  1  0
 20 21  1  0
 22 24  1  0
 22 23  1  6
 24 25  2  0
 24 26  1  0
M  END
$$$$
