HDT.pdb
     RDKit          3D

 26 26  0  0  1  0  0  0  0  0999 V2000
    8.1670  -17.2818   19.5460 N   0  0  0  0  0  0  0  0  0  0  0  0
    9.0802  -16.4827   20.3128 C   0  0  1  0  0  0  0  0  0  0  0  0
    8.3767  -15.2472   20.8242 C   0  0  0  0  0  0  0  0  0  0  0  0
    8.0557  -14.3216   19.6938 C   0  0  0  0  0  0  0  0  0  0  0  0
    8.3585  -14.5008   18.3708 C   0  0  0  0  0  0  0  0  0  0  0  0
    7.8973  -13.4427   17.6881 N   0  0  0  0  0  0  0  0  0  0  0  0
    7.3195  -12.6270   18.5858 C   0  0  0  0  0  0  0  0  0  0  0  0
    7.4128  -13.1555   19.8040 N   0  0  0  0  0  0  0  0  0  0  0  0
    9.5687  -17.2657   21.5019 C   0  0  0  0  0  0  0  0  0  0  0  0
    8.7244  -17.9681   22.0664 O   0  0  0  0  0  0  0  0  0  0  0  0
   10.8988  -17.1978   21.9365 N   0  0  0  0  0  0  0  0  0  0  0  0
   11.4850  -17.7488   23.1177 C   0  0  1  0  0  0  0  0  0  0  0  0
   12.9891  -17.8698   23.0361 C   0  0  0  0  0  0  0  0  0  0  0  0
   13.3395  -18.5918   21.7868 C   0  0  0  0  0  0  0  0  0  0  0  0
   12.7994  -19.6925   21.4400 O   0  0  0  0  0  0  0  0  0  0  0  0
   10.9775  -17.2234   24.3881 C   0  0  0  0  0  0  0  0  0  0  0  0
   11.3611  -16.0950   24.8621 O   0  0  0  0  0  0  0  0  0  0  0  0
   14.3024  -18.0959   20.8995 O   0  0  0  0  0  0  0  0  0  0  0  0
    8.0389  -15.8106   25.6325 C   0  0  0  0  0  0  0  0  0  0  0  0
    8.1842  -17.0878   26.4531 C   0  0  1  0  0  0  0  0  0  0  0  0
    7.5438  -18.1448   25.8531 O   0  0  0  0  0  0  0  0  0  0  0  0
    9.6845  -17.4147   26.5080 C   0  0  2  0  0  0  0  0  0  0  0  0
   10.0279  -17.9062   25.1986 N   0  0  0  0  0  0  0  0  0  0  0  0
    9.8740  -18.4185   27.5671 C   0  0  0  0  0  0  0  0  0  0  0  0
   10.2884  -19.5606   27.2666 O   0  0  0  0  0  0  0  0  0  0  0  0
    9.6095  -18.1467   28.8943 O   0  0  0  0  0  0  0  0  0  0  0  0
  2  3  1  0
  2  1  1  1
  2  9  1  0
  3  4  1  0
  4  8  1  0
  4  5  2  0
  5  6  1  0
  7  6  1  0
  8  7  2  0
  9 10  2  0
 11  9  1  0
 11 12  1  0
 12 16  1  0
 13 14  1  0
 12 13  1  6
 14 15  2  0
 14 18  1  0
 16 23  1  0
 16 17  2  0
 20 19  1  6
 20 22  1  0
 20 21  1  0
 22 24  1  0
 22 23  1  6
 24 25  2  0
 24 26  1  0
M  END
$$$$
