HHT.pdb
     RDKit          3D

 28 29  0  0  1  0  0  0  0  0999 V2000
    8.1155  -17.3667   20.0811 N   0  0  0  0  0  0  0  0  0  0  0  0
    8.4872  -16.2573   20.8814 C   0  0  1  0  0  0  0  0  0  0  0  0
    7.4475  -15.1628   20.7451 C   0  0  0  0  0  0  0  0  0  0  0  0
    7.7363  -14.3160   19.5624 C   0  0  0  0  0  0  0  0  0  0  0  0
    8.7849  -14.4755   18.6737 C   0  0  0  0  0  0  0  0  0  0  0  0
    8.7171  -13.5258   17.7413 N   0  0  0  0  0  0  0  0  0  0  0  0
    7.6508  -12.7600   18.0092 C   0  0  0  0  0  0  0  0  0  0  0  0
    7.0488  -13.2321   19.1132 N   0  0  0  0  0  0  0  0  0  0  0  0
    8.6981  -16.6155   22.3188 C   0  0  0  0  0  0  0  0  0  0  0  0
    7.7700  -17.0809   23.0219 O   0  0  0  0  0  0  0  0  0  0  0  0
    9.9681  -16.4333   22.9241 N   0  0  0  0  0  0  0  0  0  0  0  0
   10.3328  -16.6884   24.2734 C   0  0  1  0  0  0  0  0  0  0  0  0
   11.5508  -17.5278   24.4387 C   0  0  0  0  0  0  0  0  0  0  0  0
   11.3239  -18.9298   23.9644 C   0  0  0  0  0  0  0  0  0  0  0  0
   10.2225  -19.5177   23.4318 C   0  0  0  0  0  0  0  0  0  0  0  0
   10.4835  -20.8225   23.1471 N   0  0  0  0  0  0  0  0  0  0  0  0
   11.7572  -21.0341   23.5093 C   0  0  0  0  0  0  0  0  0  0  0  0
   12.2647  -19.8968   24.0011 N   0  0  0  0  0  0  0  0  0  0  0  0
   10.2832  -15.4974   25.1792 C   0  0  0  0  0  0  0  0  0  0  0  0
   11.0237  -14.4920   25.0712 O   0  0  0  0  0  0  0  0  0  0  0  0
    7.6712  -12.9666   25.9025 C   0  0  0  0  0  0  0  0  0  0  0  0
    7.9596  -13.6809   27.1770 C   0  0  1  0  0  0  0  0  0  0  0  0
    6.9314  -14.6339   27.3534 O   0  0  0  0  0  0  0  0  0  0  0  0
    9.3124  -14.3559   27.2096 C   0  0  2  0  0  0  0  0  0  0  0  0
    9.3496  -15.4579   26.2462 N   0  0  0  0  0  0  0  0  0  0  0  0
    9.7352  -14.7746   28.5416 C   0  0  0  0  0  0  0  0  0  0  0  0
    9.9083  -13.9386   29.6255 O   0  0  0  0  0  0  0  0  0  0  0  0
    9.9793  -16.0103   28.7764 O   0  0  0  0  0  0  0  0  0  0  0  0
  2  9  1  0
  2  1  1  6
  3  2  1  0
  4  5  2  0
  4  3  1  0
  6  5  1  0
  7  8  2  0
  7  6  1  0
  8  4  1  0
  9 11  1  0
 10  9  2  0
 11 12  1  0
 12 13  1  6
 13 14  1  0
 14 15  2  0
 14 18  1  0
 15 16  1  0
 16 17  1  0
 18 17  2  0
 19 20  2  0
 19 12  1  0
 22 21  1  6
 22 24  1  0
 23 22  1  0
 24 26  1  0
 24 25  1  6
 25 19  1  0
 26 27  1  0
 28 26  2  0
M  END
$$$$
