HHT.pdb
     RDKit          3D

 28 29  0  0  1  0  0  0  0  0999 V2000
   11.3316  -20.6415   17.5376 N   0  0  0  0  0  0  0  0  0  0  0  0
   11.6831  -21.4088   18.6765 C   0  0  1  0  0  0  0  0  0  0  0  0
   13.1634  -21.2472   18.9595 C   0  0  0  0  0  0  0  0  0  0  0  0
   13.9669  -22.0215   17.9826 C   0  0  0  0  0  0  0  0  0  0  0  0
   13.5298  -23.0944   17.2259 C   0  0  0  0  0  0  0  0  0  0  0  0
   14.5324  -23.5301   16.4639 N   0  0  0  0  0  0  0  0  0  0  0  0
   15.6030  -22.7635   16.7124 C   0  0  0  0  0  0  0  0  0  0  0  0
   15.2691  -21.8445   17.6334 N   0  0  0  0  0  0  0  0  0  0  0  0
   10.8696  -21.0700   19.8858 C   0  0  0  0  0  0  0  0  0  0  0  0
   10.9053  -19.9278   20.4016 O   0  0  0  0  0  0  0  0  0  0  0  0
   10.0308  -22.0465   20.4820 N   0  0  0  0  0  0  0  0  0  0  0  0
    9.1191  -21.8699   21.5573 C   0  0  1  0  0  0  0  0  0  0  0  0
    7.7176  -22.2690   21.2542 C   0  0  0  0  0  0  0  0  0  0  0  0
    7.1899  -21.5581   20.0466 C   0  0  0  0  0  0  0  0  0  0  0  0
    6.7616  -20.2800   19.8874 C   0  0  0  0  0  0  0  0  0  0  0  0
    6.3675  -20.0784   18.6007 N   0  0  0  0  0  0  0  0  0  0  0  0
    6.5569  -21.2451   17.9671 C   0  0  0  0  0  0  0  0  0  0  0  0
    7.0516  -22.1366   18.8350 N   0  0  0  0  0  0  0  0  0  0  0  0
    9.6136  -22.3379   22.8907 C   0  0  0  0  0  0  0  0  0  0  0  0
    9.5829  -23.5284   23.2813 O   0  0  0  0  0  0  0  0  0  0  0  0
   13.0493  -20.9248   24.4468 C   0  0  0  0  0  0  0  0  0  0  0  0
   11.9234  -20.8977   25.4212 C   0  0  1  0  0  0  0  0  0  0  0  0
   11.4678  -19.5616   25.4825 O   0  0  0  0  0  0  0  0  0  0  0  0
   10.7831  -21.8256   25.0674 C   0  0  2  0  0  0  0  0  0  0  0  0
   10.1642  -21.4070   23.8082 N   0  0  0  0  0  0  0  0  0  0  0  0
    9.8019  -21.9942   26.1337 C   0  0  0  0  0  0  0  0  0  0  0  0
   10.0569  -22.5356   27.3769 O   0  0  0  0  0  0  0  0  0  0  0  0
    8.5886  -21.6256   25.9509 O   0  0  0  0  0  0  0  0  0  0  0  0
  2  9  1  0
  2  1  1  6
  3  2  1  0
  4  5  2  0
  4  3  1  0
  6  5  1  0
  7  8  2  0
  7  6  1  0
  8  4  1  0
  9 11  1  0
 10  9  2  0
 11 12  1  0
 12 13  1  6
 13 14  1  0
 14 15  2  0
 14 18  1  0
 15 16  1  0
 16 17  1  0
 18 17  2  0
 19 20  2  0
 19 12  1  0
 22 21  1  6
 22 24  1  0
 23 22  1  0
 24 26  1  0
 24 25  1  6
 25 19  1  0
 26 27  1  0
 28 26  2  0
M  END
$$$$
