HHT.pdb
     RDKit          3D

 28 29  0  0  1  0  0  0  0  0999 V2000
    8.3898  -17.7078   20.0815 N   0  0  0  0  0  0  0  0  0  0  0  0
    8.4696  -16.5087   20.8334 C   0  0  1  0  0  0  0  0  0  0  0  0
    7.3088  -15.6042   20.4702 C   0  0  0  0  0  0  0  0  0  0  0  0
    7.7781  -14.4592   19.6528 C   0  0  0  0  0  0  0  0  0  0  0  0
    9.0705  -14.2415   19.2088 C   0  0  0  0  0  0  0  0  0  0  0  0
    9.1067  -13.1111   18.5040 N   0  0  0  0  0  0  0  0  0  0  0  0
    7.8694  -12.5971   18.4845 C   0  0  0  0  0  0  0  0  0  0  0  0
    7.0557  -13.4089   19.1795 N   0  0  0  0  0  0  0  0  0  0  0  0
    8.5189  -16.7447   22.3102 C   0  0  0  0  0  0  0  0  0  0  0  0
    7.5338  -17.2055   22.9342 O   0  0  0  0  0  0  0  0  0  0  0  0
    9.6958  -16.4479   23.0447 N   0  0  0  0  0  0  0  0  0  0  0  0
    9.9201  -16.6255   24.4364 C   0  0  1  0  0  0  0  0  0  0  0  0
   11.0918  -17.4798   24.7717 C   0  0  0  0  0  0  0  0  0  0  0  0
   10.9214  -18.8767   24.2600 C   0  0  0  0  0  0  0  0  0  0  0  0
   11.5115  -19.5171   23.2189 C   0  0  0  0  0  0  0  0  0  0  0  0
   11.0425  -20.7914   23.1305 N   0  0  0  0  0  0  0  0  0  0  0  0
   10.1568  -20.9312   24.1277 C   0  0  0  0  0  0  0  0  0  0  0  0
   10.0824  -19.7806   24.8085 N   0  0  0  0  0  0  0  0  0  0  0  0
    9.8165  -15.3790   25.2590 C   0  0  0  0  0  0  0  0  0  0  0  0
   10.5489  -14.3718   25.1170 O   0  0  0  0  0  0  0  0  0  0  0  0
    6.9327  -13.0069   25.6541 C   0  0  0  0  0  0  0  0  0  0  0  0
    7.2717  -13.5540   26.9971 C   0  0  1  0  0  0  0  0  0  0  0  0
    6.3400  -14.5813   27.2672 O   0  0  0  0  0  0  0  0  0  0  0  0
    8.6839  -14.0841   27.1052 C   0  0  2  0  0  0  0  0  0  0  0  0
    8.8368  -15.2839   26.2801 N   0  0  0  0  0  0  0  0  0  0  0  0
    9.1348  -14.2974   28.4761 C   0  0  0  0  0  0  0  0  0  0  0  0
    9.1859  -13.3321   29.4606 O   0  0  0  0  0  0  0  0  0  0  0  0
    9.5269  -15.4593   28.8471 O   0  0  0  0  0  0  0  0  0  0  0  0
  2  9  1  0
  2  1  1  6
  3  2  1  0
  4  5  2  0
  4  3  1  0
  6  5  1  0
  7  8  2  0
  7  6  1  0
  8  4  1  0
  9 11  1  0
 10  9  2  0
 11 12  1  0
 12 13  1  6
 13 14  1  0
 14 15  2  0
 14 18  1  0
 15 16  1  0
 16 17  1  0
 18 17  2  0
 19 20  2  0
 19 12  1  0
 22 21  1  6
 22 24  1  0
 23 22  1  0
 24 26  1  0
 24 25  1  6
 25 19  1  0
 26 27  1  0
 28 26  2  0
M  END
$$$$
