HHT.pdb
     RDKit          3D

 28 29  0  0  1  0  0  0  0  0999 V2000
   16.2405  -14.3145   16.5089 N   0  0  0  0  0  0  0  0  0  0  0  0
   15.4755  -15.1261   17.3838 C   0  0  1  0  0  0  0  0  0  0  0  0
   16.2063  -15.2785   18.7029 C   0  0  0  0  0  0  0  0  0  0  0  0
   17.3986  -16.1452   18.5395 C   0  0  0  0  0  0  0  0  0  0  0  0
   17.4161  -17.5288   18.5467 C   0  0  0  0  0  0  0  0  0  0  0  0
   18.6675  -17.9518   18.3715 N   0  0  0  0  0  0  0  0  0  0  0  0
   19.4546  -16.8740   18.2520 C   0  0  0  0  0  0  0  0  0  0  0  0
   18.6929  -15.7722   18.3527 N   0  0  0  0  0  0  0  0  0  0  0  0
   14.0881  -14.6092   17.6002 C   0  0  0  0  0  0  0  0  0  0  0  0
   13.8786  -13.4385   17.9972 O   0  0  0  0  0  0  0  0  0  0  0  0
   12.9665  -15.4436   17.3584 N   0  0  0  0  0  0  0  0  0  0  0  0
   11.5915  -15.1138   17.4973 C   0  0  1  0  0  0  0  0  0  0  0  0
   10.6917  -15.7797   16.5163 C   0  0  0  0  0  0  0  0  0  0  0  0
    9.2992  -15.2337   16.5848 C   0  0  0  0  0  0  0  0  0  0  0  0
    8.7871  -14.0550   16.1479 C   0  0  0  0  0  0  0  0  0  0  0  0
    7.4574  -13.9924   16.4302 N   0  0  0  0  0  0  0  0  0  0  0  0
    7.1538  -15.1445   17.0458 C   0  0  0  0  0  0  0  0  0  0  0  0
    8.2602  -15.8927   17.1398 N   0  0  0  0  0  0  0  0  0  0  0  0
   11.0767  -15.1219   18.9031 C   0  0  0  0  0  0  0  0  0  0  0  0
   11.3909  -15.9717   19.7692 O   0  0  0  0  0  0  0  0  0  0  0  0
    8.3851  -11.9937   20.0559 C   0  0  0  0  0  0  0  0  0  0  0  0
    8.2632  -13.3546   20.6484 C   0  0  1  0  0  0  0  0  0  0  0  0
    7.2821  -14.0409   19.8981 O   0  0  0  0  0  0  0  0  0  0  0  0
    9.5573  -14.1368   20.6606 C   0  0  2  0  0  0  0  0  0  0  0  0
   10.1703  -14.1185   19.3310 N   0  0  0  0  0  0  0  0  0  0  0  0
    9.4280  -15.4905   21.1887 C   0  0  0  0  0  0  0  0  0  0  0  0
    9.0940  -15.8137   22.4878 O   0  0  0  0  0  0  0  0  0  0  0  0
    9.6319  -16.4979   20.4238 O   0  0  0  0  0  0  0  0  0  0  0  0
  2  9  1  0
  2  1  1  6
  3  2  1  0
  4  5  2  0
  4  3  1  0
  6  5  1  0
  7  8  2  0
  7  6  1  0
  8  4  1  0
  9 11  1  0
 10  9  2  0
 11 12  1  0
 12 13  1  6
 13 14  1  0
 14 15  2  0
 14 18  1  0
 15 16  1  0
 16 17  1  0
 18 17  2  0
 19 20  2  0
 19 12  1  0
 22 21  1  6
 22 24  1  0
 23 22  1  0
 24 26  1  0
 24 25  1  6
 25 19  1  0
 26 27  1  0
 28 26  2  0
M  END
$$$$
