HHT.pdb
     RDKit          3D

 28 29  0  0  1  0  0  0  0  0999 V2000
    9.8119  -15.1966   20.2628 N   0  0  0  0  0  0  0  0  0  0  0  0
    8.7122  -14.6814   20.9939 C   0  0  1  0  0  0  0  0  0  0  0  0
    7.4502  -14.8009   20.1628 C   0  0  0  0  0  0  0  0  0  0  0  0
    7.6734  -14.2638   18.7986 C   0  0  0  0  0  0  0  0  0  0  0  0
    8.1594  -13.0082   18.4790 C   0  0  0  0  0  0  0  0  0  0  0  0
    8.2227  -12.8875   17.1534 N   0  0  0  0  0  0  0  0  0  0  0  0
    7.7893  -14.0347   16.6134 C   0  0  0  0  0  0  0  0  0  0  0  0
    7.4535  -14.8766   17.6047 N   0  0  0  0  0  0  0  0  0  0  0  0
    8.5356  -15.3368   22.3274 C   0  0  0  0  0  0  0  0  0  0  0  0
    7.5070  -15.1495   23.0195 O   0  0  0  0  0  0  0  0  0  0  0  0
    9.5412  -16.1942   22.8434 N   0  0  0  0  0  0  0  0  0  0  0  0
    9.6062  -16.7779   24.1372 C   0  0  1  0  0  0  0  0  0  0  0  0
   10.0653  -18.1935   24.1565 C   0  0  0  0  0  0  0  0  0  0  0  0
    9.0795  -19.1031   23.4911 C   0  0  0  0  0  0  0  0  0  0  0  0
    7.8386  -18.8570   22.9993 C   0  0  0  0  0  0  0  0  0  0  0  0
    7.3093  -19.9979   22.4799 N   0  0  0  0  0  0  0  0  0  0  0  0
    8.2362  -20.9510   22.6561 C   0  0  0  0  0  0  0  0  0  0  0  0
    9.3019  -20.4149   23.2642 N   0  0  0  0  0  0  0  0  0  0  0  0
   10.2325  -15.9172   25.1899 C   0  0  0  0  0  0  0  0  0  0  0  0
   11.4067  -15.4812   25.1444 O   0  0  0  0  0  0  0  0  0  0  0  0
    8.8041  -12.6208   26.5323 C   0  0  0  0  0  0  0  0  0  0  0  0
    9.0444  -13.5485   27.6722 C   0  0  1  0  0  0  0  0  0  0  0  0
    7.7897  -14.0919   28.0287 O   0  0  0  0  0  0  0  0  0  0  0  0
   10.0280  -14.6555   27.3657 C   0  0  2  0  0  0  0  0  0  0  0  0
    9.4845  -15.5422   26.3351 N   0  0  0  0  0  0  0  0  0  0  0  0
   10.4802  -15.3905   28.5419 C   0  0  0  0  0  0  0  0  0  0  0  0
   11.0676  -14.8309   29.6579 O   0  0  0  0  0  0  0  0  0  0  0  0
   10.3439  -16.6635   28.5923 O   0  0  0  0  0  0  0  0  0  0  0  0
  2  9  1  0
  2  1  1  6
  3  2  1  0
  4  5  2  0
  4  3  1  0
  6  5  1  0
  7  8  2  0
  7  6  1  0
  8  4  1  0
  9 11  1  0
 10  9  2  0
 11 12  1  0
 12 13  1  6
 13 14  1  0
 14 15  2  0
 14 18  1  0
 15 16  1  0
 16 17  1  0
 18 17  2  0
 19 20  2  0
 19 12  1  0
 22 21  1  6
 22 24  1  0
 23 22  1  0
 24 26  1  0
 24 25  1  6
 25 19  1  0
 26 27  1  0
 28 26  2  0
M  END
$$$$
