HHT.pdb
     RDKit          3D

 28 29  0  0  1  0  0  0  0  0999 V2000
    8.8706  -17.4541   16.0175 N   0  0  0  0  0  0  0  0  0  0  0  0
    9.4290  -16.6024   17.0035 C   0  0  1  0  0  0  0  0  0  0  0  0
    8.4833  -15.4485   17.2712 C   0  0  0  0  0  0  0  0  0  0  0  0
    8.3028  -14.6299   16.0477 C   0  0  0  0  0  0  0  0  0  0  0  0
    8.8329  -14.8934   14.7970 C   0  0  0  0  0  0  0  0  0  0  0  0
    8.4540  -13.9367   13.9504 N   0  0  0  0  0  0  0  0  0  0  0  0
    7.6936  -13.0648   14.6264 C   0  0  0  0  0  0  0  0  0  0  0  0
    7.5960  -13.4775   15.9010 N   0  0  0  0  0  0  0  0  0  0  0  0
    9.7683  -17.3183   18.2729 C   0  0  0  0  0  0  0  0  0  0  0  0
    8.8794  -17.8212   19.0002 O   0  0  0  0  0  0  0  0  0  0  0  0
   11.1197  -17.4440   18.6857 N   0  0  0  0  0  0  0  0  0  0  0  0
   11.6126  -18.0350   19.8801 C   0  0  1  0  0  0  0  0  0  0  0  0
   12.7460  -18.9793   19.6829 C   0  0  0  0  0  0  0  0  0  0  0  0
   12.3395  -20.1676   18.8676 C   0  0  0  0  0  0  0  0  0  0  0  0
   11.5093  -21.2008   19.1601 C   0  0  0  0  0  0  0  0  0  0  0  0
   11.4405  -22.0558   18.1037 N   0  0  0  0  0  0  0  0  0  0  0  0
   12.2369  -21.5399   17.1560 C   0  0  0  0  0  0  0  0  0  0  0  0
   12.7786  -20.4040   17.6133 N   0  0  0  0  0  0  0  0  0  0  0  0
   11.7966  -17.0893   21.0259 C   0  0  0  0  0  0  0  0  0  0  0  0
   12.5914  -16.1202   21.0260 O   0  0  0  0  0  0  0  0  0  0  0  0
    9.0377  -15.0689   22.8290 C   0  0  0  0  0  0  0  0  0  0  0  0
    9.7704  -15.9188   23.8081 C   0  0  1  0  0  0  0  0  0  0  0  0
    8.9651  -17.0551   24.0464 O   0  0  0  0  0  0  0  0  0  0  0  0
   11.1477  -16.3388   23.3462 C   0  0  2  0  0  0  0  0  0  0  0  0
   11.0406  -17.2606   22.2137 N   0  0  0  0  0  0  0  0  0  0  0  0
   11.9946  -16.8687   24.4093 C   0  0  0  0  0  0  0  0  0  0  0  0
   12.3990  -16.1743   25.5309 O   0  0  0  0  0  0  0  0  0  0  0  0
   12.4259  -18.0733   24.3432 O   0  0  0  0  0  0  0  0  0  0  0  0
  2  9  1  0
  2  1  1  6
  3  2  1  0
  4  5  2  0
  4  3  1  0
  6  5  1  0
  7  8  2  0
  7  6  1  0
  8  4  1  0
  9 11  1  0
 10  9  2  0
 11 12  1  0
 12 13  1  6
 13 14  1  0
 14 15  2  0
 14 18  1  0
 15 16  1  0
 16 17  1  0
 18 17  2  0
 19 20  2  0
 19 12  1  0
 22 21  1  6
 22 24  1  0
 23 22  1  0
 24 26  1  0
 24 25  1  6
 25 19  1  0
 26 27  1  0
 28 26  2  0
M  END
$$$$
