HHT.pdb
     RDKit          3D

 28 29  0  0  1  0  0  0  0  0999 V2000
   11.2598  -19.2960   16.7516 N   0  0  0  0  0  0  0  0  0  0  0  0
   10.6356  -18.2102   17.4154 C   0  0  1  0  0  0  0  0  0  0  0  0
    9.3219  -17.8858   16.7323 C   0  0  0  0  0  0  0  0  0  0  0  0
    9.5547  -17.4749   15.3265 C   0  0  0  0  0  0  0  0  0  0  0  0
   10.3629  -16.4371   14.8967 C   0  0  0  0  0  0  0  0  0  0  0  0
   10.3218  -16.3723   13.5663 N   0  0  0  0  0  0  0  0  0  0  0  0
    9.5070  -17.3428   13.1308 C   0  0  0  0  0  0  0  0  0  0  0  0
    9.0365  -18.0177   14.1925 N   0  0  0  0  0  0  0  0  0  0  0  0
   10.4292  -18.4566   18.8768 C   0  0  0  0  0  0  0  0  0  0  0  0
    9.3058  -18.7696   19.3371 O   0  0  0  0  0  0  0  0  0  0  0  0
   11.5139  -18.3393   19.7837 N   0  0  0  0  0  0  0  0  0  0  0  0
   11.4847  -18.4811   21.1971 C   0  0  1  0  0  0  0  0  0  0  0  0
   12.5053  -19.4139   21.7480 C   0  0  0  0  0  0  0  0  0  0  0  0
   12.1870  -20.8391   21.4170 C   0  0  0  0  0  0  0  0  0  0  0  0
   11.1433  -21.3792   20.7378 C   0  0  0  0  0  0  0  0  0  0  0  0
   11.2742  -22.7325   20.6833 N   0  0  0  0  0  0  0  0  0  0  0  0
   12.4095  -23.0224   21.3358 C   0  0  0  0  0  0  0  0  0  0  0  0
   12.9603  -21.8849   21.7778 N   0  0  0  0  0  0  0  0  0  0  0  0
   11.3517  -17.1998   21.9599 C   0  0  0  0  0  0  0  0  0  0  0  0
   12.1299  -16.2236   21.8489 O   0  0  0  0  0  0  0  0  0  0  0  0
    8.5281  -14.7066   22.0637 C   0  0  0  0  0  0  0  0  0  0  0  0
    8.7458  -15.2249   23.4428 C   0  0  1  0  0  0  0  0  0  0  0  0
    7.7540  -16.2047   23.6727 O   0  0  0  0  0  0  0  0  0  0  0  0
   10.1225  -15.8083   23.6689 C   0  0  2  0  0  0  0  0  0  0  0  0
   10.2873  -17.0320   22.8821 N   0  0  0  0  0  0  0  0  0  0  0  0
   10.4595  -16.0077   25.0742 C   0  0  0  0  0  0  0  0  0  0  0  0
   10.5638  -15.0097   26.0211 O   0  0  0  0  0  0  0  0  0  0  0  0
   10.6874  -17.1885   25.5161 O   0  0  0  0  0  0  0  0  0  0  0  0
  2  9  1  0
  2  1  1  6
  3  2  1  0
  4  5  2  0
  4  3  1  0
  6  5  1  0
  7  8  2  0
  7  6  1  0
  8  4  1  0
  9 11  1  0
 10  9  2  0
 11 12  1  0
 12 13  1  1
 13 14  1  0
 14 15  2  0
 14 18  1  0
 15 16  1  0
 16 17  1  0
 18 17  2  0
 19 20  2  0
 19 12  1  0
 22 21  1  6
 22 24  1  0
 23 22  1  0
 24 26  1  0
 24 25  1  6
 25 19  1  0
 26 27  1  0
 28 26  2  0
M  END
$$$$
