HHT.pdb
     RDKit          3D

 28 29  0  0  1  0  0  0  0  0999 V2000
   10.2781  -17.3137   16.3494 N   0  0  0  0  0  0  0  0  0  0  0  0
    9.0485  -16.8933   16.9158 C   0  0  1  0  0  0  0  0  0  0  0  0
    7.8992  -17.5496   16.1768 C   0  0  0  0  0  0  0  0  0  0  0  0
    7.9245  -17.1780   14.7413 C   0  0  0  0  0  0  0  0  0  0  0  0
    9.0027  -16.6607   14.0452 C   0  0  0  0  0  0  0  0  0  0  0  0
    8.6467  -16.4527   12.7780 N   0  0  0  0  0  0  0  0  0  0  0  0
    7.3662  -16.8234   12.6429 C   0  0  0  0  0  0  0  0  0  0  0  0
    6.9191  -17.2653   13.8299 N   0  0  0  0  0  0  0  0  0  0  0  0
    8.9582  -17.1599   18.3853 C   0  0  0  0  0  0  0  0  0  0  0  0
    7.9079  -16.9301   19.0305 O   0  0  0  0  0  0  0  0  0  0  0  0
   10.0732  -17.6842   19.0886 N   0  0  0  0  0  0  0  0  0  0  0  0
   10.1816  -17.9363   20.4826 C   0  0  1  0  0  0  0  0  0  0  0  0
   11.1099  -19.0426   20.8425 C   0  0  0  0  0  0  0  0  0  0  0  0
   11.0795  -19.3335   22.3110 C   0  0  0  0  0  0  0  0  0  0  0  0
   10.1096  -19.8826   23.0857 C   0  0  0  0  0  0  0  0  0  0  0  0
   10.5305  -19.9529   24.3778 N   0  0  0  0  0  0  0  0  0  0  0  0
   11.7702  -19.4417   24.3929 C   0  0  0  0  0  0  0  0  0  0  0  0
   12.1025  -19.0685   23.1507 N   0  0  0  0  0  0  0  0  0  0  0  0
   10.3236  -16.7159   21.3381 C   0  0  0  0  0  0  0  0  0  0  0  0
   11.2498  -15.8782   21.2317 O   0  0  0  0  0  0  0  0  0  0  0  0
    8.1527  -13.7490   21.8353 C   0  0  0  0  0  0  0  0  0  0  0  0
    8.2972  -14.4088   23.1625 C   0  0  1  0  0  0  0  0  0  0  0  0
    7.1110  -15.1435   23.3852 O   0  0  0  0  0  0  0  0  0  0  0  0
    9.5037  -15.3142   23.2697 C   0  0  2  0  0  0  0  0  0  0  0  0
    9.3680  -16.4461   22.3509 N   0  0  0  0  0  0  0  0  0  0  0  0
    9.8051  -15.7432   24.6310 C   0  0  0  0  0  0  0  0  0  0  0  0
   10.1301  -14.9073   25.6796 O   0  0  0  0  0  0  0  0  0  0  0  0
    9.7804  -16.9889   24.9296 O   0  0  0  0  0  0  0  0  0  0  0  0
  2  9  1  0
  2  1  1  6
  3  2  1  0
  4  5  2  0
  4  3  1  0
  6  5  1  0
  7  8  2  0
  7  6  1  0
  8  4  1  0
  9 11  1  0
 10  9  2  0
 11 12  1  0
 12 13  1  6
 13 14  1  0
 14 15  2  0
 14 18  1  0
 15 16  1  0
 16 17  1  0
 18 17  2  0
 19 20  2  0
 19 12  1  0
 22 21  1  6
 22 24  1  0
 23 22  1  0
 24 26  1  0
 24 25  1  6
 25 19  1  0
 26 27  1  0
 28 26  2  0
M  END
$$$$
