HHT.pdb
     RDKit          3D

 28 29  0  0  1  0  0  0  0  0999 V2000
    9.7366  -14.9974   19.6676 N   0  0  0  0  0  0  0  0  0  0  0  0
    8.4273  -14.8038   20.1750 C   0  0  1  0  0  0  0  0  0  0  0  0
    7.4156  -15.3623   19.1941 C   0  0  0  0  0  0  0  0  0  0  0  0
    7.5504  -14.6993   17.8744 C   0  0  0  0  0  0  0  0  0  0  0  0
    8.5105  -13.7695   17.5160 C   0  0  0  0  0  0  0  0  0  0  0  0
    8.3120  -13.4004   16.2511 N   0  0  0  0  0  0  0  0  0  0  0  0
    7.2479  -14.0701   15.7879 C   0  0  0  0  0  0  0  0  0  0  0  0
    6.7786  -14.8614   16.7666 N   0  0  0  0  0  0  0  0  0  0  0  0
    8.2322  -15.3949   21.5357 C   0  0  0  0  0  0  0  0  0  0  0  0
    7.1022  -15.4361   22.0772 O   0  0  0  0  0  0  0  0  0  0  0  0
    9.3358  -15.9273   22.2508 N   0  0  0  0  0  0  0  0  0  0  0  0
    9.3468  -16.4428   23.5748 C   0  0  1  0  0  0  0  0  0  0  0  0
   10.1443  -17.6873   23.7491 C   0  0  0  0  0  0  0  0  0  0  0  0
    9.5673  -18.8271   22.9681 C   0  0  0  0  0  0  0  0  0  0  0  0
    8.6560  -19.7699   23.3186 C   0  0  0  0  0  0  0  0  0  0  0  0
    8.4331  -20.6126   22.2737 N   0  0  0  0  0  0  0  0  0  0  0  0
    9.2162  -20.1803   21.2745 C   0  0  0  0  0  0  0  0  0  0  0  0
    9.8993  -19.1063   21.6900 N   0  0  0  0  0  0  0  0  0  0  0  0
    9.5609  -15.4233   24.6500 C   0  0  0  0  0  0  0  0  0  0  0  0
   10.6074  -14.7478   24.7895 O   0  0  0  0  0  0  0  0  0  0  0  0
    7.3152  -12.3837   25.6548 C   0  0  0  0  0  0  0  0  0  0  0  0
    7.4852  -13.3224   26.7983 C   0  0  1  0  0  0  0  0  0  0  0  0
    6.3131  -14.1092   26.8593 O   0  0  0  0  0  0  0  0  0  0  0  0
    8.7066  -14.2073   26.6895 C   0  0  2  0  0  0  0  0  0  0  0  0
    8.5373  -15.1687   25.5982 N   0  0  0  0  0  0  0  0  0  0  0  0
    9.0836  -14.8556   27.9408 C   0  0  0  0  0  0  0  0  0  0  0  0
    9.3720  -14.2056   29.1232 O   0  0  0  0  0  0  0  0  0  0  0  0
    9.1691  -16.1326   27.9993 O   0  0  0  0  0  0  0  0  0  0  0  0
  2  9  1  0
  2  1  1  6
  3  2  1  0
  4  5  2  0
  4  3  1  0
  6  5  1  0
  7  8  2  0
  7  6  1  0
  8  4  1  0
  9 11  1  0
 10  9  2  0
 11 12  1  0
 12 13  1  6
 13 14  1  0
 14 15  2  0
 14 18  1  0
 15 16  1  0
 16 17  1  0
 18 17  2  0
 19 20  2  0
 19 12  1  0
 22 21  1  6
 22 24  1  0
 23 22  1  0
 24 26  1  0
 24 25  1  6
 25 19  1  0
 26 27  1  0
 28 26  2  0
M  END
$$$$
