HHT.pdb
     RDKit          3D

 28 29  0  0  1  0  0  0  0  0999 V2000
   10.5900  -15.3029   17.9494 N   0  0  0  0  0  0  0  0  0  0  0  0
   11.2661  -14.4810   18.8857 C   0  0  1  0  0  0  0  0  0  0  0  0
   10.3386  -14.1592   20.0405 C   0  0  0  0  0  0  0  0  0  0  0  0
    9.0419  -13.6440   19.5378 C   0  0  0  0  0  0  0  0  0  0  0  0
    8.8599  -12.5729   18.6808 C   0  0  0  0  0  0  0  0  0  0  0  0
    7.5568  -12.4099   18.4545 N   0  0  0  0  0  0  0  0  0  0  0  0
    6.8972  -13.3498   19.1451 C   0  0  0  0  0  0  0  0  0  0  0  0
    7.7907  -14.1040   19.8061 N   0  0  0  0  0  0  0  0  0  0  0  0
   12.5432  -15.0836   19.3804 C   0  0  0  0  0  0  0  0  0  0  0  0
   12.5958  -16.2692   19.7850 O   0  0  0  0  0  0  0  0  0  0  0  0
   13.7363  -14.3164   19.4029 N   0  0  0  0  0  0  0  0  0  0  0  0
   15.0040  -14.6952   19.9209 C   0  0  1  0  0  0  0  0  0  0  0  0
   16.1507  -13.9075   19.3920 C   0  0  0  0  0  0  0  0  0  0  0  0
   16.4440  -14.2497   17.9641 C   0  0  0  0  0  0  0  0  0  0  0  0
   15.9991  -15.2707   17.1882 C   0  0  0  0  0  0  0  0  0  0  0  0
   16.5385  -15.1774   15.9424 N   0  0  0  0  0  0  0  0  0  0  0  0
   17.3209  -14.0883   15.9571 C   0  0  0  0  0  0  0  0  0  0  0  0
   17.2655  -13.5286   17.1722 N   0  0  0  0  0  0  0  0  0  0  0  0
   15.0436  -14.9147   21.4013 C   0  0  0  0  0  0  0  0  0  0  0  0
   15.3153  -14.0271   22.2436 O   0  0  0  0  0  0  0  0  0  0  0  0
   12.3684  -16.1470   23.8003 C   0  0  0  0  0  0  0  0  0  0  0  0
   13.5239  -17.0855   23.8427 C   0  0  1  0  0  0  0  0  0  0  0  0
   13.1796  -18.1946   23.0379 O   0  0  0  0  0  0  0  0  0  0  0  0
   14.8257  -16.4779   23.3703 C   0  0  2  0  0  0  0  0  0  0  0  0
   14.7600  -16.1980   21.9347 N   0  0  0  0  0  0  0  0  0  0  0  0
   16.0075  -17.2556   23.7261 C   0  0  0  0  0  0  0  0  0  0  0  0
   16.3999  -17.5722   25.0105 O   0  0  0  0  0  0  0  0  0  0  0  0
   16.7788  -17.7043   22.8067 O   0  0  0  0  0  0  0  0  0  0  0  0
  2  9  1  0
  2  1  1  6
  3  2  1  0
  4  5  2  0
  4  3  1  0
  6  5  1  0
  7  8  2  0
  7  6  1  0
  8  4  1  0
  9 11  1  0
 10  9  2  0
 11 12  1  0
 12 13  1  1
 13 14  1  0
 14 15  2  0
 14 18  1  0
 15 16  1  0
 16 17  1  0
 18 17  2  0
 19 20  2  0
 19 12  1  0
 22 21  1  6
 22 24  1  0
 23 22  1  0
 24 26  1  0
 24 25  1  6
 25 19  1  0
 26 27  1  0
 28 26  2  0
M  END
$$$$
