HHT.pdb
     RDKit          3D

 28 29  0  0  1  0  0  0  0  0999 V2000
    9.3716  -16.8982   17.2431 N   0  0  0  0  0  0  0  0  0  0  0  0
    9.5312  -16.2620   18.4997 C   0  0  1  0  0  0  0  0  0  0  0  0
    8.2640  -15.5081   18.8509 C   0  0  0  0  0  0  0  0  0  0  0  0
    7.9573  -14.4946   17.8125 C   0  0  0  0  0  0  0  0  0  0  0  0
    8.4074  -13.1864   17.7828 C   0  0  0  0  0  0  0  0  0  0  0  0
    7.9245  -12.5819   16.6978 N   0  0  0  0  0  0  0  0  0  0  0  0
    7.1752  -13.4694   16.0299 C   0  0  0  0  0  0  0  0  0  0  0  0
    7.1892  -14.6340   16.6991 N   0  0  0  0  0  0  0  0  0  0  0  0
    9.9069  -17.2108   19.5940 C   0  0  0  0  0  0  0  0  0  0  0  0
    9.1697  -18.1752   19.9081 O   0  0  0  0  0  0  0  0  0  0  0  0
   11.1201  -17.0369   20.3085 N   0  0  0  0  0  0  0  0  0  0  0  0
   11.6246  -17.8325   21.3720 C   0  0  1  0  0  0  0  0  0  0  0  0
   12.8717  -18.5787   21.0509 C   0  0  0  0  0  0  0  0  0  0  0  0
   12.6800  -19.4993   19.8856 C   0  0  0  0  0  0  0  0  0  0  0  0
   13.1130  -19.4066   18.6025 C   0  0  0  0  0  0  0  0  0  0  0  0
   12.6937  -20.4879   17.8908 N   0  0  0  0  0  0  0  0  0  0  0  0
   11.9974  -21.2491   18.7476 C   0  0  0  0  0  0  0  0  0  0  0  0
   11.9880  -20.6564   19.9482 N   0  0  0  0  0  0  0  0  0  0  0  0
   11.6394  -17.1641   22.7115 C   0  0  0  0  0  0  0  0  0  0  0  0
   12.4797  -16.3047   23.0668 O   0  0  0  0  0  0  0  0  0  0  0  0
    8.6464  -15.4286   24.5335 C   0  0  0  0  0  0  0  0  0  0  0  0
    9.2278  -16.4987   25.3906 C   0  0  1  0  0  0  0  0  0  0  0  0
    8.3664  -17.6145   25.2923 O   0  0  0  0  0  0  0  0  0  0  0  0
   10.6386  -16.8896   25.0118 C   0  0  2  0  0  0  0  0  0  0  0  0
   10.6541  -17.4923   23.6775 N   0  0  0  0  0  0  0  0  0  0  0  0
   11.3091  -17.7257   26.0015 C   0  0  0  0  0  0  0  0  0  0  0  0
   11.5215  -17.3877   27.3222 O   0  0  0  0  0  0  0  0  0  0  0  0
   11.7572  -18.8785   25.6670 O   0  0  0  0  0  0  0  0  0  0  0  0
  2  9  1  0
  2  1  1  6
  3  2  1  0
  4  5  2  0
  4  3  1  0
  6  5  1  0
  7  8  2  0
  7  6  1  0
  8  4  1  0
  9 11  1  0
 10  9  2  0
 11 12  1  0
 12 13  1  6
 13 14  1  0
 14 15  2  0
 14 18  1  0
 15 16  1  0
 16 17  1  0
 18 17  2  0
 19 20  2  0
 19 12  1  0
 22 21  1  6
 22 24  1  0
 23 22  1  0
 24 26  1  0
 24 25  1  6
 25 19  1  0
 26 27  1  0
 28 26  2  0
M  END
$$$$
