HHT.pdb
     RDKit          3D

 28 29  0  0  1  0  0  0  0  0999 V2000
    9.2609  -15.7767   19.8273 N   0  0  0  0  0  0  0  0  0  0  0  0
    8.2998  -14.8681   20.3374 C   0  0  1  0  0  0  0  0  0  0  0  0
    7.0766  -14.8684   19.4422 C   0  0  0  0  0  0  0  0  0  0  0  0
    7.4718  -14.7073   18.0219 C   0  0  0  0  0  0  0  0  0  0  0  0
    8.0671  -13.5938   17.4558 C   0  0  0  0  0  0  0  0  0  0  0  0
    8.2730  -13.8192   16.1587 N   0  0  0  0  0  0  0  0  0  0  0  0
    7.8246  -15.0502   15.8775 C   0  0  0  0  0  0  0  0  0  0  0  0
    7.3363  -15.5973   17.0028 N   0  0  0  0  0  0  0  0  0  0  0  0
    7.9208  -15.1510   21.7570 C   0  0  0  0  0  0  0  0  0  0  0  0
    6.9262  -14.6060   22.2916 O   0  0  0  0  0  0  0  0  0  0  0  0
    8.6888  -16.0526   22.5379 N   0  0  0  0  0  0  0  0  0  0  0  0
    8.5308  -16.3621   23.9156 C   0  0  1  0  0  0  0  0  0  0  0  0
    9.0462  -17.7004   24.3138 C   0  0  0  0  0  0  0  0  0  0  0  0
    8.1570  -18.3564   25.3242 C   0  0  0  0  0  0  0  0  0  0  0  0
    7.0637  -17.8890   25.9787 C   0  0  0  0  0  0  0  0  0  0  0  0
    6.5743  -18.8479   26.8108 N   0  0  0  0  0  0  0  0  0  0  0  0
    7.3767  -19.9123   26.6634 C   0  0  0  0  0  0  0  0  0  0  0  0
    8.3294  -19.6189   25.7695 N   0  0  0  0  0  0  0  0  0  0  0  0
    8.8988  -15.2594   24.8590 C   0  0  0  0  0  0  0  0  0  0  0  0
   10.0309  -14.7249   24.9192 O   0  0  0  0  0  0  0  0  0  0  0  0
    7.0119  -11.8755   25.5987 C   0  0  0  0  0  0  0  0  0  0  0  0
    7.1530  -12.6990   26.8315 C   0  0  1  0  0  0  0  0  0  0  0  0
    5.9080  -13.3322   27.0450 O   0  0  0  0  0  0  0  0  0  0  0  0
    8.2595  -13.7272   26.7594 C   0  0  2  0  0  0  0  0  0  0  0  0
    7.9330  -14.7506   25.7646 N   0  0  0  0  0  0  0  0  0  0  0  0
    8.6161  -14.3073   28.0496 C   0  0  0  0  0  0  0  0  0  0  0  0
    9.0328  -13.5985   29.1575 O   0  0  0  0  0  0  0  0  0  0  0  0
    8.5549  -15.5757   28.2196 O   0  0  0  0  0  0  0  0  0  0  0  0
  2  9  1  0
  2  1  1  6
  3  2  1  0
  4  5  2  0
  4  3  1  0
  6  5  1  0
  7  8  2  0
  7  6  1  0
  8  4  1  0
  9 11  1  0
 10  9  2  0
 11 12  1  0
 12 13  1  1
 13 14  1  0
 14 15  2  0
 14 18  1  0
 15 16  1  0
 16 17  1  0
 18 17  2  0
 19 20  2  0
 19 12  1  0
 22 21  1  6
 22 24  1  0
 23 22  1  0
 24 26  1  0
 24 25  1  6
 25 19  1  0
 26 27  1  0
 28 26  2  0
M  END
$$$$
