HHT.pdb
     RDKit          3D

 28 29  0  0  1  0  0  0  0  0999 V2000
   12.7487  -16.6398   17.0971 N   0  0  0  0  0  0  0  0  0  0  0  0
   13.2876  -15.4766   17.7021 C   0  0  1  0  0  0  0  0  0  0  0  0
   13.1851  -14.3104   16.7392 C   0  0  0  0  0  0  0  0  0  0  0  0
   13.8578  -14.6338   15.4577 C   0  0  0  0  0  0  0  0  0  0  0  0
   13.2450  -14.8115   14.2298 C   0  0  0  0  0  0  0  0  0  0  0  0
   14.1721  -15.0893   13.3139 N   0  0  0  0  0  0  0  0  0  0  0  0
   15.3655  -15.0946   13.9230 C   0  0  0  0  0  0  0  0  0  0  0  0
   15.1847  -14.8190   15.2252 N   0  0  0  0  0  0  0  0  0  0  0  0
   12.6436  -15.1444   19.0112 C   0  0  0  0  0  0  0  0  0  0  0  0
   13.0506  -14.1936   19.7201 O   0  0  0  0  0  0  0  0  0  0  0  0
   11.5455  -15.9082   19.4842 N   0  0  0  0  0  0  0  0  0  0  0  0
   10.8947  -15.8079   20.7432 C   0  0  1  0  0  0  0  0  0  0  0  0
    9.4300  -15.5552   20.6658 C   0  0  0  0  0  0  0  0  0  0  0  0
    9.1263  -14.2876   19.9289 C   0  0  0  0  0  0  0  0  0  0  0  0
    9.9521  -13.3319   19.4320 C   0  0  0  0  0  0  0  0  0  0  0  0
    9.2222  -12.3512   18.8344 N   0  0  0  0  0  0  0  0  0  0  0  0
    7.9372  -12.7113   18.9675 C   0  0  0  0  0  0  0  0  0  0  0  0
    7.8772  -13.8758   19.6255 N   0  0  0  0  0  0  0  0  0  0  0  0
   11.2833  -16.8528   21.7424 C   0  0  0  0  0  0  0  0  0  0  0  0
   11.1471  -18.0865   21.5688 O   0  0  0  0  0  0  0  0  0  0  0  0
   14.2107  -18.2342   25.3641 C   0  0  0  0  0  0  0  0  0  0  0  0
   13.7106  -17.2700   24.3452 C   0  0  1  0  0  0  0  0  0  0  0  0
   14.5143  -17.4369   23.1951 O   0  0  0  0  0  0  0  0  0  0  0  0
   12.2503  -17.4489   23.9958 C   0  0  2  0  0  0  0  0  0  0  0  0
   11.8498  -16.4686   22.9846 N   0  0  0  0  0  0  0  0  0  0  0  0
   11.3586  -17.4445   25.1504 C   0  0  0  0  0  0  0  0  0  0  0  0
   11.2408  -18.4629   26.0738 O   0  0  0  0  0  0  0  0  0  0  0  0
   10.6006  -16.4352   25.3695 O   0  0  0  0  0  0  0  0  0  0  0  0
  2  9  1  0
  2  1  1  6
  3  2  1  0
  4  5  2  0
  4  3  1  0
  6  5  1  0
  7  8  2  0
  7  6  1  0
  8  4  1  0
  9 11  1  0
 10  9  2  0
 11 12  1  0
 12 13  1  6
 13 14  1  0
 14 15  2  0
 14 18  1  0
 15 16  1  0
 16 17  1  0
 18 17  2  0
 19 20  2  0
 19 12  1  0
 22 21  1  1
 22 24  1  0
 23 22  1  0
 24 26  1  0
 24 25  1  6
 25 19  1  0
 26 27  1  0
 28 26  2  0
M  END
$$$$
