HHT.pdb
     RDKit          3D

 28 29  0  0  1  0  0  0  0  0999 V2000
    7.9896  -16.7509   19.1456 N   0  0  0  0  0  0  0  0  0  0  0  0
    7.8741  -15.6377   20.0156 C   0  0  1  0  0  0  0  0  0  0  0  0
    7.0287  -14.5655   19.3576 C   0  0  0  0  0  0  0  0  0  0  0  0
    7.6436  -14.1296   18.0804 C   0  0  0  0  0  0  0  0  0  0  0  0
    6.9950  -13.9699   16.8685 C   0  0  0  0  0  0  0  0  0  0  0  0
    7.8737  -13.5666   15.9515 N   0  0  0  0  0  0  0  0  0  0  0  0
    9.0709  -13.4634   16.5443 C   0  0  0  0  0  0  0  0  0  0  0  0
    8.9410  -13.8032   17.8373 N   0  0  0  0  0  0  0  0  0  0  0  0
    7.3250  -15.9985   21.3599 C   0  0  0  0  0  0  0  0  0  0  0  0
    6.1746  -16.4795   21.4912 O   0  0  0  0  0  0  0  0  0  0  0  0
    8.1041  -15.8010   22.5290 N   0  0  0  0  0  0  0  0  0  0  0  0
    7.8242  -16.2524   23.8468 C   0  0  1  0  0  0  0  0  0  0  0  0
    7.9612  -17.7216   24.0414 C   0  0  0  0  0  0  0  0  0  0  0  0
    7.7087  -18.1164   25.4635 C   0  0  0  0  0  0  0  0  0  0  0  0
    7.3386  -17.3730   26.5371 C   0  0  0  0  0  0  0  0  0  0  0  0
    7.2277  -18.1668   27.6367 N   0  0  0  0  0  0  0  0  0  0  0  0
    7.5331  -19.4080   27.2310 C   0  0  0  0  0  0  0  0  0  0  0  0
    7.8227  -19.3800   25.9240 N   0  0  0  0  0  0  0  0  0  0  0  0
    8.4329  -15.4311   24.9406 C   0  0  0  0  0  0  0  0  0  0  0  0
    9.6595  -15.2012   25.0570 O   0  0  0  0  0  0  0  0  0  0  0  0
    6.6669  -11.9868   25.9921 C   0  0  0  0  0  0  0  0  0  0  0  0
    7.0319  -12.8246   27.1680 C   0  0  1  0  0  0  0  0  0  0  0  0
    5.8468  -13.4608   27.6006 O   0  0  0  0  0  0  0  0  0  0  0  0
    8.1043  -13.8514   26.8808 C   0  0  2  0  0  0  0  0  0  0  0  0
    7.6046  -14.8517   25.9355 N   0  0  0  0  0  0  0  0  0  0  0  0
    8.6778  -14.4611   28.0756 C   0  0  0  0  0  0  0  0  0  0  0  0
    9.3042  -13.7800   29.0991 O   0  0  0  0  0  0  0  0  0  0  0  0
    8.6222  -15.7311   28.2354 O   0  0  0  0  0  0  0  0  0  0  0  0
  2  9  1  0
  2  1  1  6
  3  2  1  0
  4  5  2  0
  4  3  1  0
  6  5  1  0
  7  8  2  0
  7  6  1  0
  8  4  1  0
  9 11  1  0
 10  9  2  0
 11 12  1  0
 12 13  1  6
 13 14  1  0
 14 15  2  0
 14 18  1  0
 15 16  1  0
 16 17  1  0
 18 17  2  0
 19 20  2  0
 19 12  1  0
 22 21  1  6
 22 24  1  0
 23 22  1  0
 24 26  1  0
 24 25  1  6
 25 19  1  0
 26 27  1  0
 28 26  2  0
M  END
$$$$
