HHT.pdb
     RDKit          3D

 28 29  0  0  1  0  0  0  0  0999 V2000
    9.9325  -15.3148   20.0868 N   0  0  0  0  0  0  0  0  0  0  0  0
    8.8308  -14.7811   20.8015 C   0  0  1  0  0  0  0  0  0  0  0  0
    7.5532  -15.0335   20.0261 C   0  0  0  0  0  0  0  0  0  0  0  0
    7.6346  -14.4228   18.6771 C   0  0  0  0  0  0  0  0  0  0  0  0
    8.7186  -13.7470   18.1450 C   0  0  0  0  0  0  0  0  0  0  0  0
    8.4199  -13.3430   16.9108 N   0  0  0  0  0  0  0  0  0  0  0  0
    7.1706  -13.7424   16.6369 C   0  0  0  0  0  0  0  0  0  0  0  0
    6.6856  -14.3990   17.7035 N   0  0  0  0  0  0  0  0  0  0  0  0
    8.7220  -15.3145   22.1953 C   0  0  0  0  0  0  0  0  0  0  0  0
    7.7156  -15.0876   22.9079 O   0  0  0  0  0  0  0  0  0  0  0  0
    9.7686  -16.0974   22.7470 N   0  0  0  0  0  0  0  0  0  0  0  0
    9.8445  -16.6510   24.0533 C   0  0  1  0  0  0  0  0  0  0  0  0
   10.4950  -17.9878   24.1236 C   0  0  0  0  0  0  0  0  0  0  0  0
    9.7588  -19.0040   23.3066 C   0  0  0  0  0  0  0  0  0  0  0  0
    8.6364  -18.8899   22.5521 C   0  0  0  0  0  0  0  0  0  0  0  0
    8.3330  -20.0891   21.9851 N   0  0  0  0  0  0  0  0  0  0  0  0
    9.2798  -20.9448   22.3974 C   0  0  0  0  0  0  0  0  0  0  0  0
   10.1386  -20.2942   23.1924 N   0  0  0  0  0  0  0  0  0  0  0  0
   10.2867  -15.6986   25.1204 C   0  0  0  0  0  0  0  0  0  0  0  0
   11.3340  -15.0119   25.0695 O   0  0  0  0  0  0  0  0  0  0  0  0
    8.6702  -12.6354   26.3506 C   0  0  0  0  0  0  0  0  0  0  0  0
    8.8163  -13.5380   27.5262 C   0  0  1  0  0  0  0  0  0  0  0  0
    7.5543  -14.1357   27.7421 O   0  0  0  0  0  0  0  0  0  0  0  0
    9.8784  -14.6007   27.3556 C   0  0  2  0  0  0  0  0  0  0  0  0
    9.4985  -15.5267   26.2869 N   0  0  0  0  0  0  0  0  0  0  0  0
   10.2255  -15.2969   28.5897 C   0  0  0  0  0  0  0  0  0  0  0  0
   10.7006  -14.6990   29.7388 O   0  0  0  0  0  0  0  0  0  0  0  0
   10.0971  -16.5695   28.6642 O   0  0  0  0  0  0  0  0  0  0  0  0
  2  9  1  0
  2  1  1  6
  3  2  1  0
  4  5  2  0
  4  3  1  0
  6  5  1  0
  7  8  2  0
  7  6  1  0
  8  4  1  0
  9 11  1  0
 10  9  2  0
 11 12  1  0
 12 13  1  6
 13 14  1  0
 14 15  2  0
 14 18  1  0
 15 16  1  0
 16 17  1  0
 18 17  2  0
 19 20  2  0
 19 12  1  0
 22 21  1  6
 22 24  1  0
 23 22  1  0
 24 26  1  0
 24 25  1  6
 25 19  1  0
 26 27  1  0
 28 26  2  0
M  END
$$$$
