MRV.pdb
     RDKit          3D

 27 26  0  0  1  0  0  0  0  0999 V2000
    7.3516  -10.8948   18.7901 C   0  0  0  0  0  0  0  0  0  0  0  0
    7.5476  -11.7382   20.3660 S   0  0  0  0  0  0  0  0  0  0  0  0
    7.8979  -13.4765   20.0690 C   0  0  0  0  0  0  0  0  0  0  0  0
    8.1010  -14.2185   21.3454 C   0  0  0  0  0  0  0  0  0  0  0  0
    8.2834  -15.7108   21.1473 C   0  0  2  0  0  0  0  0  0  0  0  0
    7.1247  -16.3711   20.6285 N   0  0  0  0  0  0  0  0  0  0  0  0
    8.6001  -16.2738   22.4827 C   0  0  0  0  0  0  0  0  0  0  0  0
    7.6852  -16.6706   23.2075 O   0  0  0  0  0  0  0  0  0  0  0  0
   14.3056  -19.5136   20.0219 N   0  0  0  0  0  0  0  0  0  0  0  0
   13.0724  -20.1922   19.9518 C   0  0  0  0  0  0  0  0  0  0  0  0
   12.7442  -20.9832   18.9841 N   0  0  0  0  0  0  0  0  0  0  0  0
   12.1058  -20.0198   20.9929 N   0  0  0  0  0  0  0  0  0  0  0  0
   12.4101  -19.1205   22.1000 C   0  0  0  0  0  0  0  0  0  0  0  0
   11.2331  -19.0506   23.0215 C   0  0  0  0  0  0  0  0  0  0  0  0
   11.3716  -18.0205   24.0830 C   0  0  0  0  0  0  0  0  0  0  0  0
   10.2161  -17.0739   24.1993 C   0  0  2  0  0  0  0  0  0  0  0  0
    9.9452  -16.3731   22.9637 N   0  0  0  0  0  0  0  0  0  0  0  0
   10.5965  -16.0908   25.2822 C   0  0  0  0  0  0  0  0  0  0  0  0
   11.5293  -15.2630   25.1300 O   0  0  0  0  0  0  0  0  0  0  0  0
   11.7845  -21.3808   18.8930 C   0  0  0  0  0  0  0  0  0  0  0  0
    8.9228  -13.3302   26.9257 C   0  0  2  0  0  0  0  0  0  0  0  0
    9.2480  -14.3014   28.0373 C   0  0  0  0  0  0  0  0  0  0  0  0
    8.0494  -15.0910   28.4864 C   0  0  2  0  0  0  0  0  0  0  0  0
   10.3457  -15.2502   27.6259 N   0  0  0  0  0  0  0  0  0  0  0  0
    9.9023  -16.0744   26.5188 C   0  0  0  0  0  0  0  0  0  0  0  0
   10.7698  -16.1203   28.7718 O   0  0  0  0  0  0  0  0  0  0  0  0
   11.5080  -15.6223   29.8360 O   0  0  0  0  0  0  0  0  0  0  0  0
  2  1  1  0
  3  4  1  0
  3  2  1  0
  4  5  1  0
  5  6  1  1
  7  8  2  0
  7  5  1  0
 10 12  1  0
 10  9  1  0
 11 10  2  0
 13 14  1  0
 13 12  1  0
 14 15  1  0
 16 15  1  6
 16 17  1  0
 17  7  1  0
 18 16  1  0
 19 18  2  0
 21 20  1  1
 21 22  1  0
 23 21  1  0
 23 24  1  1
 24 18  1  0
 25 26  1  0
 25 23  1  0
 27 25  2  0
M  END
$$$$
