MRV.pdb
     RDKit          3D

 27 26  0  0  1  0  0  0  0  0999 V2000
    6.9675  -11.1231   27.2065 C   0  0  0  0  0  0  0  0  0  0  0  0
    5.3464  -11.4264   26.4901 S   0  0  0  0  0  0  0  0  0  0  0  0
    5.0839  -13.1992   26.3458 C   0  0  0  0  0  0  0  0  0  0  0  0
    6.3139  -13.8969   25.8749 C   0  0  0  0  0  0  0  0  0  0  0  0
    6.0219  -15.0836   24.9773 C   0  0  2  0  0  0  0  0  0  0  0  0
    5.2548  -16.1125   25.6103 N   0  0  0  0  0  0  0  0  0  0  0  0
    7.3381  -15.6407   24.5802 C   0  0  0  0  0  0  0  0  0  0  0  0
    7.8198  -16.5777   25.2205 O   0  0  0  0  0  0  0  0  0  0  0  0
    9.7101  -15.1843   17.7819 N   0  0  0  0  0  0  0  0  0  0  0  0
    8.5832  -14.3380   17.7836 C   0  0  0  0  0  0  0  0  0  0  0  0
    7.7678  -14.2293   16.7871 N   0  0  0  0  0  0  0  0  0  0  0  0
    8.2947  -13.5404   18.9362 N   0  0  0  0  0  0  0  0  0  0  0  0
    9.2108  -13.5775   20.0704 C   0  0  0  0  0  0  0  0  0  0  0  0
    9.0891  -14.8976   20.7645 C   0  0  0  0  0  0  0  0  0  0  0  0
    9.9884  -15.0349   21.9391 C   0  0  0  0  0  0  0  0  0  0  0  0
    9.3670  -15.6844   23.1379 C   0  0  2  0  0  0  0  0  0  0  0  0
    8.0761  -15.1225   23.4678 N   0  0  0  0  0  0  0  0  0  0  0  0
   10.3369  -15.4626   24.2754 C   0  0  0  0  0  0  0  0  0  0  0  0
   11.0775  -14.4490   24.3288 O   0  0  0  0  0  0  0  0  0  0  0  0
    6.8997  -13.6541   16.8401 C   0  0  0  0  0  0  0  0  0  0  0  0
    9.0938  -15.2504   27.6267 C   0  0  1  0  0  0  0  0  0  0  0  0
   10.5268  -14.9404   27.2594 C   0  0  0  0  0  0  0  0  0  0  0  0
   11.3624  -14.5639   28.4517 C   0  0  1  0  0  0  0  0  0  0  0  0
   11.1689  -16.1042   26.5467 N   0  0  0  0  0  0  0  0  0  0  0  0
   10.4410  -16.4055   25.3297 C   0  0  0  0  0  0  0  0  0  0  0  0
   11.2190  -17.3188   27.4252 O   0  0  0  0  0  0  0  0  0  0  0  0
   12.1942  -17.4792   28.3992 O   0  0  0  0  0  0  0  0  0  0  0  0
  2  1  1  0
  3  4  1  0
  3  2  1  0
  4  5  1  0
  5  6  1  1
  7  8  2  0
  7  5  1  0
 10 12  1  0
 10  9  1  0
 11 10  2  0
 13 14  1  0
 13 12  1  0
 14 15  1  0
 16 15  1  6
 16 17  1  0
 17  7  1  0
 18 16  1  0
 19 18  2  0
 21 20  1  6
 21 22  1  0
 23 21  1  0
 23 24  1  6
 24 18  1  0
 25 26  1  0
 25 23  1  0
 27 25  2  0
M  END
$$$$
