MRV.pdb
     RDKit          3D

 27 26  0  0  1  0  0  0  0  0999 V2000
    8.3272  -11.8953   19.8875 C   0  0  0  0  0  0  0  0  0  0  0  0
    7.8509  -12.6298   18.3168 S   0  0  0  0  0  0  0  0  0  0  0  0
    7.7446  -14.4147   18.5048 C   0  0  0  0  0  0  0  0  0  0  0  0
    7.2508  -14.7929   19.8591 C   0  0  0  0  0  0  0  0  0  0  0  0
    8.1491  -15.7886   20.5669 C   0  0  2  0  0  0  0  0  0  0  0  0
    8.1775  -17.0805   19.9521 N   0  0  0  0  0  0  0  0  0  0  0  0
    7.6181  -15.9238   21.9454 C   0  0  0  0  0  0  0  0  0  0  0  0
    6.8744  -15.0510   22.3986 O   0  0  0  0  0  0  0  0  0  0  0  0
    5.6481  -21.6823   25.6388 N   0  0  0  0  0  0  0  0  0  0  0  0
    5.9585  -22.3445   24.4341 C   0  0  0  0  0  0  0  0  0  0  0  0
    5.4168  -23.4594   24.0696 N   0  0  0  0  0  0  0  0  0  0  0  0
    6.9227  -21.7793   23.5402 N   0  0  0  0  0  0  0  0  0  0  0  0
    7.8067  -20.7259   24.0257 C   0  0  0  0  0  0  0  0  0  0  0  0
    6.9939  -19.5224   24.3872 C   0  0  0  0  0  0  0  0  0  0  0  0
    7.8130  -18.3664   24.8343 C   0  0  0  0  0  0  0  0  0  0  0  0
    7.5002  -17.0693   24.1527 C   0  0  2  0  0  0  0  0  0  0  0  0
    7.9427  -17.0439   22.7763 N   0  0  0  0  0  0  0  0  0  0  0  0
    8.2158  -16.0027   24.9489 C   0  0  0  0  0  0  0  0  0  0  0  0
    9.4049  -15.6779   24.7058 O   0  0  0  0  0  0  0  0  0  0  0  0
    5.6659  -23.9312   23.1736 C   0  0  0  0  0  0  0  0  0  0  0  0
    7.6940  -12.0174   27.7980 C   0  0  2  0  0  0  0  0  0  0  0  0
    7.0939  -13.2005   27.0736 C   0  0  0  0  0  0  0  0  0  0  0  0
    6.3063  -12.7971   25.8576 C   0  0  1  0  0  0  0  0  0  0  0  0
    8.1595  -14.1898   26.6731 N   0  0  0  0  0  0  0  0  0  0  0  0
    7.5569  -15.3286   26.0086 C   0  0  0  0  0  0  0  0  0  0  0  0
    8.9472  -14.6516   27.8631 O   0  0  0  0  0  0  0  0  0  0  0  0
    9.9483  -13.8730   28.4262 O   0  0  0  0  0  0  0  0  0  0  0  0
  2  1  1  0
  3  4  1  0
  3  2  1  0
  4  5  1  0
  5  6  1  6
  7  8  2  0
  7  5  1  0
 10 12  1  0
 10  9  1  0
 11 10  2  0
 13 14  1  0
 13 12  1  0
 14 15  1  0
 16 15  1  1
 16 17  1  0
 17  7  1  0
 18 16  1  0
 19 18  2  0
 21 20  1  1
 21 22  1  0
 23 21  1  0
 23 24  1  1
 24 18  1  0
 25 26  1  0
 25 23  1  0
 27 25  2  0
M  END
$$$$
