MRV.pdb
     RDKit          3D

 27 26  0  0  1  0  0  0  0  0999 V2000
    6.6827  -10.9922   27.7233 C   0  0  0  0  0  0  0  0  0  0  0  0
    6.4591  -10.6570   25.9709 S   0  0  0  0  0  0  0  0  0  0  0  0
    5.7497  -12.1052   25.1758 C   0  0  0  0  0  0  0  0  0  0  0  0
    6.6526  -13.2858   25.2856 C   0  0  0  0  0  0  0  0  0  0  0  0
    6.0545  -14.5523   24.7046 C   0  0  2  0  0  0  0  0  0  0  0  0
    4.8789  -15.0017   25.3854 N   0  0  0  0  0  0  0  0  0  0  0  0
    7.1021  -15.5969   24.8135 C   0  0  0  0  0  0  0  0  0  0  0  0
    7.2017  -16.2518   25.8534 O   0  0  0  0  0  0  0  0  0  0  0  0
   12.8738  -20.4738   23.1797 N   0  0  0  0  0  0  0  0  0  0  0  0
   13.3267  -19.9149   21.9678 C   0  0  0  0  0  0  0  0  0  0  0  0
   14.5104  -20.1096   21.4875 N   0  0  0  0  0  0  0  0  0  0  0  0
   12.4540  -19.0803   21.1997 N   0  0  0  0  0  0  0  0  0  0  0  0
   11.0400  -19.0205   21.5518 C   0  0  0  0  0  0  0  0  0  0  0  0
   10.8671  -18.1712   22.7718 C   0  0  0  0  0  0  0  0  0  0  0  0
    9.7790  -17.1676   22.6462 C   0  0  0  0  0  0  0  0  0  0  0  0
    9.0504  -16.8630   23.9195 C   0  0  2  0  0  0  0  0  0  0  0  0
    8.0107  -15.8738   23.7420 N   0  0  0  0  0  0  0  0  0  0  0  0
   10.0978  -16.3501   24.8806 C   0  0  0  0  0  0  0  0  0  0  0  0
   11.0068  -15.5637   24.5147 O   0  0  0  0  0  0  0  0  0  0  0  0
   14.8104  -19.7118   20.5714 C   0  0  0  0  0  0  0  0  0  0  0  0
   11.5597  -14.8771   29.1518 C   0  0  2  0  0  0  0  0  0  0  0  0
   10.5886  -15.2010   28.0397 C   0  0  0  0  0  0  0  0  0  0  0  0
   10.2679  -14.0065   27.1840 C   0  0  1  0  0  0  0  0  0  0  0  0
   11.1131  -16.3140   27.1675 N   0  0  0  0  0  0  0  0  0  0  0  0
   10.0851  -16.7475   26.2419 C   0  0  0  0  0  0  0  0  0  0  0  0
   11.5801  -17.4765   27.9923 O   0  0  0  0  0  0  0  0  0  0  0  0
   12.8755  -17.5530   28.4838 O   0  0  0  0  0  0  0  0  0  0  0  0
  2  1  1  0
  3  4  1  0
  3  2  1  0
  4  5  1  0
  5  6  1  1
  7  8  2  0
  7  5  1  0
 10 12  1  0
 10  9  1  0
 11 10  2  0
 13 14  1  0
 13 12  1  0
 14 15  1  0
 16 15  1  6
 16 17  1  0
 17  7  1  0
 18 16  1  0
 19 18  2  0
 21 20  1  1
 21 22  1  0
 23 21  1  0
 23 24  1  1
 24 18  1  0
 25 26  1  0
 25 23  1  0
 27 25  2  0
M  END
$$$$
