MRV.pdb
     RDKit          3D

 27 26  0  0  1  0  0  0  0  0999 V2000
    8.8477  -11.2980   19.9277 C   0  0  0  0  0  0  0  0  0  0  0  0
    7.5960  -11.8483   18.7599 S   0  0  0  0  0  0  0  0  0  0  0  0
    7.5826  -13.6454   18.7078 C   0  0  0  0  0  0  0  0  0  0  0  0
    7.6605  -14.2321   20.0756 C   0  0  0  0  0  0  0  0  0  0  0  0
    7.5595  -15.7451   20.0842 C   0  0  2  0  0  0  0  0  0  0  0  0
    6.3144  -16.2443   19.5861 N   0  0  0  0  0  0  0  0  0  0  0  0
    7.7152  -16.1660   21.4981 C   0  0  0  0  0  0  0  0  0  0  0  0
    6.7616  -16.0600   22.2724 O   0  0  0  0  0  0  0  0  0  0  0  0
    9.6515  -22.5001   25.9694 N   0  0  0  0  0  0  0  0  0  0  0  0
   10.5918  -22.0947   25.0011 C   0  0  0  0  0  0  0  0  0  0  0  0
   11.3540  -22.9145   24.3556 N   0  0  0  0  0  0  0  0  0  0  0  0
   10.7377  -20.7055   24.6896 N   0  0  0  0  0  0  0  0  0  0  0  0
    9.9614  -19.7259   25.4411 C   0  0  0  0  0  0  0  0  0  0  0  0
   10.4170  -18.3472   25.0790 C   0  0  0  0  0  0  0  0  0  0  0  0
   10.1971  -18.0065   23.6497 C   0  0  0  0  0  0  0  0  0  0  0  0
    9.0520  -17.0754   23.3913 C   0  0  2  0  0  0  0  0  0  0  0  0
    8.9471  -16.6964   21.9997 N   0  0  0  0  0  0  0  0  0  0  0  0
    9.3126  -15.8555   24.2444 C   0  0  0  0  0  0  0  0  0  0  0  0
   10.2945  -15.0990   24.0395 O   0  0  0  0  0  0  0  0  0  0  0  0
   12.0458  -22.5885   23.6469 C   0  0  0  0  0  0  0  0  0  0  0  0
    7.6295  -12.4074   27.2652 C   0  0  2  0  0  0  0  0  0  0  0  0
    7.4132  -13.5884   26.3470 C   0  0  0  0  0  0  0  0  0  0  0  0
    6.8750  -13.1858   25.0017 C   0  0  1  0  0  0  0  0  0  0  0  0
    8.6880  -14.3725   26.1609 N   0  0  0  0  0  0  0  0  0  0  0  0
    8.4445  -15.5252   25.3162 C   0  0  0  0  0  0  0  0  0  0  0  0
    9.2508  -14.8155   27.4788 O   0  0  0  0  0  0  0  0  0  0  0  0
   10.1155  -14.0158   28.2124 O   0  0  0  0  0  0  0  0  0  0  0  0
  2  1  1  0
  3  4  1  0
  3  2  1  0
  4  5  1  0
  5  6  1  1
  7  8  2  0
  7  5  1  0
 10 12  1  0
 10  9  1  0
 11 10  2  0
 13 14  1  0
 13 12  1  0
 14 15  1  0
 16 15  1  6
 16 17  1  0
 17  7  1  0
 18 16  1  0
 19 18  2  0
 21 20  1  1
 21 22  1  0
 23 21  1  0
 23 24  1  1
 24 18  1  0
 25 26  1  0
 25 23  1  0
 27 25  2  0
M  END
$$$$
