MRV.pdb
     RDKit          3D

 27 26  0  0  1  0  0  0  0  0999 V2000
    8.0598  -11.1142   20.2321 C   0  0  0  0  0  0  0  0  0  0  0  0
    6.9818  -11.7056   18.9201 S   0  0  0  0  0  0  0  0  0  0  0  0
    7.3138  -13.4468   18.6192 C   0  0  0  0  0  0  0  0  0  0  0  0
    7.7065  -14.1524   19.8718 C   0  0  0  0  0  0  0  0  0  0  0  0
    7.9827  -15.6290   19.6652 C   0  0  2  0  0  0  0  0  0  0  0  0
    6.8695  -16.3572   19.1378 N   0  0  0  0  0  0  0  0  0  0  0  0
    8.3293  -16.1796   20.9983 C   0  0  0  0  0  0  0  0  0  0  0  0
    7.4289  -16.4708   21.7885 O   0  0  0  0  0  0  0  0  0  0  0  0
   14.3109  -14.8786   22.2474 N   0  0  0  0  0  0  0  0  0  0  0  0
   14.7741  -15.5618   21.1050 C   0  0  0  0  0  0  0  0  0  0  0  0
   15.3745  -14.9825   20.1184 N   0  0  0  0  0  0  0  0  0  0  0  0
   14.5866  -16.9765   20.9980 N   0  0  0  0  0  0  0  0  0  0  0  0
   13.6608  -17.6392   21.9094 C   0  0  0  0  0  0  0  0  0  0  0  0
   12.3422  -16.9324   21.8792 C   0  0  0  0  0  0  0  0  0  0  0  0
   11.3448  -17.4975   22.8242 C   0  0  0  0  0  0  0  0  0  0  0  0
    9.9721  -16.9057   22.7223 C   0  0  2  0  0  0  0  0  0  0  0  0
    9.6872  -16.3865   21.4031 N   0  0  0  0  0  0  0  0  0  0  0  0
    9.9278  -15.7904   23.7411 C   0  0  0  0  0  0  0  0  0  0  0  0
   10.6953  -14.7979   23.6732 O   0  0  0  0  0  0  0  0  0  0  0  0
   15.7215  -15.5132   19.2906 C   0  0  0  0  0  0  0  0  0  0  0  0
    7.6969  -13.1786   24.6846 C   0  0  2  0  0  0  0  0  0  0  0  0
    7.8015  -14.0412   25.9214 C   0  0  0  0  0  0  0  0  0  0  0  0
    6.6132  -14.9455   26.0997 C   0  0  2  0  0  0  0  0  0  0  0  0
    9.0615  -14.8699   25.9008 N   0  0  0  0  0  0  0  0  0  0  0  0
    9.0063  -15.8326   24.8183 C   0  0  0  0  0  0  0  0  0  0  0  0
    9.2658  -15.5807   27.2057 O   0  0  0  0  0  0  0  0  0  0  0  0
    9.5861  -14.8973   28.3702 O   0  0  0  0  0  0  0  0  0  0  0  0
  2  1  1  0
  3  4  1  0
  3  2  1  0
  4  5  1  0
  5  6  1  1
  7  8  2  0
  7  5  1  0
 10 12  1  0
 10  9  1  0
 11 10  2  0
 13 14  1  0
 13 12  1  0
 14 15  1  0
 16 15  1  6
 16 17  1  0
 17  7  1  0
 18 16  1  0
 19 18  2  0
 21 20  1  1
 21 22  1  0
 23 21  1  0
 23 24  1  1
 24 18  1  0
 25 26  1  0
 25 23  1  0
 27 25  2  0
M  END
$$$$
