MRV.pdb
     RDKit          3D

 27 26  0  0  1  0  0  0  0  0999 V2000
    8.0244  -11.3682   21.0920 C   0  0  0  0  0  0  0  0  0  0  0  0
    7.5618  -12.0700   19.5024 S   0  0  0  0  0  0  0  0  0  0  0  0
    8.2490  -13.7255   19.3623 C   0  0  0  0  0  0  0  0  0  0  0  0
    8.2011  -14.4487   20.6646 C   0  0  0  0  0  0  0  0  0  0  0  0
    8.8410  -15.8223   20.6098 C   0  0  2  0  0  0  0  0  0  0  0  0
    8.1998  -16.7231   19.7014 N   0  0  0  0  0  0  0  0  0  0  0  0
    8.7525  -16.3792   21.9818 C   0  0  0  0  0  0  0  0  0  0  0  0
    7.6470  -16.6368   22.4632 O   0  0  0  0  0  0  0  0  0  0  0  0
   11.3580  -21.3547   21.1405 N   0  0  0  0  0  0  0  0  0  0  0  0
   12.4391  -20.9942   21.9697 C   0  0  0  0  0  0  0  0  0  0  0  0
   13.6672  -20.9574   21.5698 N   0  0  0  0  0  0  0  0  0  0  0  0
   12.2005  -20.6429   23.3363 N   0  0  0  0  0  0  0  0  0  0  0  0
   10.8489  -20.7588   23.8718 C   0  0  0  0  0  0  0  0  0  0  0  0
   10.0894  -19.5029   23.5801 C   0  0  0  0  0  0  0  0  0  0  0  0
   10.5071  -18.3493   24.4178 C   0  0  0  0  0  0  0  0  0  0  0  0
    9.7741  -17.0715   24.1441 C   0  0  2  0  0  0  0  0  0  0  0  0
    9.9183  -16.6305   22.7745 N   0  0  0  0  0  0  0  0  0  0  0  0
   10.3656  -16.0477   25.0852 C   0  0  0  0  0  0  0  0  0  0  0  0
   11.4882  -15.5237   24.8762 O   0  0  0  0  0  0  0  0  0  0  0  0
   14.4514  -20.7000   22.2071 C   0  0  0  0  0  0  0  0  0  0  0  0
    9.3166  -12.6938   26.2064 C   0  0  2  0  0  0  0  0  0  0  0  0
    9.3786  -13.5555   27.4466 C   0  0  0  0  0  0  0  0  0  0  0  0
    8.0203  -14.0094   27.9057 C   0  0  2  0  0  0  0  0  0  0  0  0
   10.2602  -14.7595   27.2281 N   0  0  0  0  0  0  0  0  0  0  0  0
    9.6611  -15.6438   26.2479 C   0  0  0  0  0  0  0  0  0  0  0  0
   10.4934  -15.5022   28.5102 O   0  0  0  0  0  0  0  0  0  0  0  0
   11.3035  -14.9930   29.5152 O   0  0  0  0  0  0  0  0  0  0  0  0
  2  1  1  0
  3  4  1  0
  3  2  1  0
  4  5  1  0
  5  6  1  6
  7  8  2  0
  7  5  1  0
 10 12  1  0
 10  9  1  0
 11 10  2  0
 13 14  1  0
 13 12  1  0
 14 15  1  0
 16 15  1  6
 16 17  1  0
 17  7  1  0
 18 16  1  0
 19 18  2  0
 21 20  1  1
 21 22  1  0
 23 21  1  0
 23 24  1  1
 24 18  1  0
 25 26  1  0
 25 23  1  0
 27 25  2  0
M  END
$$$$
