MRV.pdb
     RDKit          3D

 27 26  0  0  1  0  0  0  0  0999 V2000
    8.7123  -11.7285   20.0030 C   0  0  0  0  0  0  0  0  0  0  0  0
    8.0048  -12.4373   18.5096 S   0  0  0  0  0  0  0  0  0  0  0  0
    8.0408  -14.2308   18.6295 C   0  0  0  0  0  0  0  0  0  0  0  0
    7.6523  -14.6950   19.9914 C   0  0  0  0  0  0  0  0  0  0  0  0
    7.6820  -16.2038   20.1402 C   0  0  2  0  0  0  0  0  0  0  0  0
    6.6525  -16.8773   19.4094 N   0  0  0  0  0  0  0  0  0  0  0  0
    7.5073  -16.4843   21.5863 C   0  0  0  0  0  0  0  0  0  0  0  0
    6.3760  -16.4681   22.0762 O   0  0  0  0  0  0  0  0  0  0  0  0
   10.2071  -19.2986   29.2501 N   0  0  0  0  0  0  0  0  0  0  0  0
   11.1536  -18.6767   28.4113 C   0  0  0  0  0  0  0  0  0  0  0  0
   12.0884  -17.8955   28.8420 N   0  0  0  0  0  0  0  0  0  0  0  0
   11.1074  -18.9005   26.9986 N   0  0  0  0  0  0  0  0  0  0  0  0
    9.8889  -19.4407   26.4066 C   0  0  0  0  0  0  0  0  0  0  0  0
    9.0527  -18.3177   25.8784 C   0  0  0  0  0  0  0  0  0  0  0  0
    9.2140  -18.0942   24.4185 C   0  0  0  0  0  0  0  0  0  0  0  0
    8.4031  -16.9655   23.8588 C   0  0  2  0  0  0  0  0  0  0  0  0
    8.6182  -16.7761   22.4414 N   0  0  0  0  0  0  0  0  0  0  0  0
    8.8334  -15.7326   24.6195 C   0  0  0  0  0  0  0  0  0  0  0  0
    9.9592  -15.2031   24.4441 O   0  0  0  0  0  0  0  0  0  0  0  0
   12.8065  -17.4858   28.2066 C   0  0  0  0  0  0  0  0  0  0  0  0
    7.5101  -11.8964   27.4422 C   0  0  2  0  0  0  0  0  0  0  0  0
    7.1404  -13.1058   26.6145 C   0  0  0  0  0  0  0  0  0  0  0  0
    6.4429  -12.7403   25.3333 C   0  0  1  0  0  0  0  0  0  0  0  0
    8.3559  -13.9417   26.3008 N   0  0  0  0  0  0  0  0  0  0  0  0
    7.9670  -15.1298   25.5668 C   0  0  0  0  0  0  0  0  0  0  0  0
    9.0853  -14.3311   27.5523 O   0  0  0  0  0  0  0  0  0  0  0  0
    9.9652  -13.4660   28.1870 O   0  0  0  0  0  0  0  0  0  0  0  0
  2  1  1  0
  3  4  1  0
  3  2  1  0
  4  5  1  0
  5  6  1  6
  7  8  2  0
  7  5  1  0
 10 12  1  0
 10  9  1  0
 11 10  2  0
 13 14  1  0
 13 12  1  0
 14 15  1  0
 16 15  1  1
 16 17  1  0
 17  7  1  0
 18 16  1  0
 19 18  2  0
 21 20  1  1
 21 22  1  0
 23 21  1  0
 23 24  1  1
 24 18  1  0
 25 26  1  0
 25 23  1  0
 27 25  2  0
M  END
$$$$
