MRV.pdb
     RDKit          3D

 27 26  0  0  1  0  0  0  0  0999 V2000
    8.6079  -11.3589   20.2677 C   0  0  0  0  0  0  0  0  0  0  0  0
    7.8005  -12.1319   18.8592 S   0  0  0  0  0  0  0  0  0  0  0  0
    8.1465  -13.8962   18.8719 C   0  0  0  0  0  0  0  0  0  0  0  0
    7.9574  -14.4801   20.2300 C   0  0  0  0  0  0  0  0  0  0  0  0
    8.3301  -15.9479   20.3073 C   0  0  2  0  0  0  0  0  0  0  0  0
    7.5304  -16.7922   19.4733 N   0  0  0  0  0  0  0  0  0  0  0  0
    8.1423  -16.3526   21.7220 C   0  0  0  0  0  0  0  0  0  0  0  0
    7.0370  -16.7469   22.0998 O   0  0  0  0  0  0  0  0  0  0  0  0
   12.5508  -20.5844   21.7418 N   0  0  0  0  0  0  0  0  0  0  0  0
   13.5228  -19.9744   22.5600 C   0  0  0  0  0  0  0  0  0  0  0  0
   14.7769  -19.9093   22.2553 N   0  0  0  0  0  0  0  0  0  0  0  0
   13.1354  -19.3836   23.8045 N   0  0  0  0  0  0  0  0  0  0  0  0
   11.7334  -19.4288   24.2039 C   0  0  0  0  0  0  0  0  0  0  0  0
   11.0953  -18.1035   23.9285 C   0  0  0  0  0  0  0  0  0  0  0  0
    9.6700  -18.0345   24.3419 C   0  0  0  0  0  0  0  0  0  0  0  0
    8.9846  -16.7385   24.0328 C   0  0  2  0  0  0  0  0  0  0  0  0
    9.2112  -16.3004   22.6735 N   0  0  0  0  0  0  0  0  0  0  0  0
    9.5518  -15.7306   25.0056 C   0  0  0  0  0  0  0  0  0  0  0  0
   10.6477  -15.1520   24.7990 O   0  0  0  0  0  0  0  0  0  0  0  0
   15.4832  -19.4888   22.8969 C   0  0  0  0  0  0  0  0  0  0  0  0
    8.0676  -12.5365   26.0155 C   0  0  2  0  0  0  0  0  0  0  0  0
    8.2864  -13.3173   27.2910 C   0  0  0  0  0  0  0  0  0  0  0  0
    7.0236  -13.9502   27.8072 C   0  0  2  0  0  0  0  0  0  0  0  0
    9.3380  -14.3819   27.1026 N   0  0  0  0  0  0  0  0  0  0  0  0
    8.8539  -15.4047   26.1965 C   0  0  0  0  0  0  0  0  0  0  0  0
    9.7242  -15.0021   28.4126 O   0  0  0  0  0  0  0  0  0  0  0  0
   10.4737  -14.3144   29.3564 O   0  0  0  0  0  0  0  0  0  0  0  0
  2  1  1  0
  3  4  1  0
  3  2  1  0
  4  5  1  0
  5  6  1  6
  7  8  2  0
  7  5  1  0
 10 12  1  0
 10  9  1  0
 11 10  2  0
 13 14  1  0
 13 12  1  0
 14 15  1  0
 16 15  1  6
 16 17  1  0
 17  7  1  0
 18 16  1  0
 19 18  2  0
 21 20  1  1
 21 22  1  0
 23 21  1  0
 23 24  1  1
 24 18  1  0
 25 26  1  0
 25 23  1  0
 27 25  2  0
M  END
$$$$
