MRV.pdb
     RDKit          3D

 27 26  0  0  1  0  0  0  0  0999 V2000
    8.4218  -11.3545   19.9612 C   0  0  0  0  0  0  0  0  0  0  0  0
    7.5922  -12.1461   18.5761 S   0  0  0  0  0  0  0  0  0  0  0  0
    7.9505  -13.9078   18.5982 C   0  0  0  0  0  0  0  0  0  0  0  0
    7.9781  -14.4420   19.9892 C   0  0  0  0  0  0  0  0  0  0  0  0
    8.2949  -15.9235   20.0548 C   0  0  2  0  0  0  0  0  0  0  0  0
    7.3779  -16.7438   19.3241 N   0  0  0  0  0  0  0  0  0  0  0  0
    8.2389  -16.2995   21.4886 C   0  0  0  0  0  0  0  0  0  0  0  0
    7.1623  -16.2525   22.0877 O   0  0  0  0  0  0  0  0  0  0  0  0
    9.5193  -21.8063   23.2755 N   0  0  0  0  0  0  0  0  0  0  0  0
   10.7046  -22.0345   22.5481 C   0  0  0  0  0  0  0  0  0  0  0  0
   10.8505  -22.9990   21.7007 N   0  0  0  0  0  0  0  0  0  0  0  0
   11.8296  -21.1693   22.7324 N   0  0  0  0  0  0  0  0  0  0  0  0
   11.7106  -20.0373   23.6442 C   0  0  0  0  0  0  0  0  0  0  0  0
   10.5682  -19.1713   23.2148 C   0  0  0  0  0  0  0  0  0  0  0  0
   10.3762  -17.9743   24.0737 C   0  0  0  0  0  0  0  0  0  0  0  0
    9.3033  -17.0340   23.6161 C   0  0  2  0  0  0  0  0  0  0  0  0
    9.4036  -16.7192   22.2082 N   0  0  0  0  0  0  0  0  0  0  0  0
    9.4742  -15.7805   24.4428 C   0  0  0  0  0  0  0  0  0  0  0  0
   10.4588  -15.0147   24.2922 O   0  0  0  0  0  0  0  0  0  0  0  0
   11.7210  -23.1180   21.1392 C   0  0  0  0  0  0  0  0  0  0  0  0
    7.5326  -12.3138   27.3015 C   0  0  2  0  0  0  0  0  0  0  0  0
    7.3981  -13.4910   26.3630 C   0  0  0  0  0  0  0  0  0  0  0  0
    6.9624  -13.0847   24.9822 C   0  0  1  0  0  0  0  0  0  0  0  0
    8.6901  -14.2637   26.2721 N   0  0  0  0  0  0  0  0  0  0  0  0
    8.5152  -15.4280   25.4264 C   0  0  0  0  0  0  0  0  0  0  0  0
    9.1671  -14.6864   27.6299 O   0  0  0  0  0  0  0  0  0  0  0  0
    9.8140  -13.8066   28.4862 O   0  0  0  0  0  0  0  0  0  0  0  0
  2  1  1  0
  3  4  1  0
  3  2  1  0
  4  5  1  0
  5  6  1  6
  7  8  2  0
  7  5  1  0
 10 12  1  0
 10  9  1  0
 11 10  2  0
 13 14  1  0
 13 12  1  0
 14 15  1  0
 16 15  1  1
 16 17  1  0
 17  7  1  0
 18 16  1  0
 19 18  2  0
 21 20  1  1
 21 22  1  0
 23 21  1  0
 23 24  1  1
 24 18  1  0
 25 26  1  0
 25 23  1  0
 27 25  2  0
M  END
$$$$
