MRV.pdb
     RDKit          3D

 27 26  0  0  1  0  0  0  0  0999 V2000
    6.3191  -12.0048   26.7042 C   0  0  0  0  0  0  0  0  0  0  0  0
    5.7265  -13.2885   27.8152 S   0  0  0  0  0  0  0  0  0  0  0  0
    6.1693  -14.8992   27.1503 C   0  0  0  0  0  0  0  0  0  0  0  0
    5.2724  -15.2914   26.0266 C   0  0  0  0  0  0  0  0  0  0  0  0
    5.5779  -16.6685   25.4701 C   0  0  2  0  0  0  0  0  0  0  0  0
    5.8815  -17.6431   26.4730 N   0  0  0  0  0  0  0  0  0  0  0  0
    6.7559  -16.5086   24.5829 C   0  0  0  0  0  0  0  0  0  0  0  0
    7.7514  -17.2138   24.7613 O   0  0  0  0  0  0  0  0  0  0  0  0
   10.4116  -14.5016   17.7218 N   0  0  0  0  0  0  0  0  0  0  0  0
    9.0319  -14.3724   17.4647 C   0  0  0  0  0  0  0  0  0  0  0  0
    8.4682  -14.7605   16.3687 N   0  0  0  0  0  0  0  0  0  0  0  0
    8.1772  -13.7837   18.4501 N   0  0  0  0  0  0  0  0  0  0  0  0
    8.7721  -13.2075   19.6505 C   0  0  0  0  0  0  0  0  0  0  0  0
    8.9457  -14.2777   20.6819 C   0  0  0  0  0  0  0  0  0  0  0  0
    7.8109  -14.3709   21.6362 C   0  0  0  0  0  0  0  0  0  0  0  0
    7.9584  -15.4236   22.6922 C   0  0  2  0  0  0  0  0  0  0  0  0
    6.7771  -15.5539   23.5159 N   0  0  0  0  0  0  0  0  0  0  0  0
    9.1370  -14.9974   23.5367 C   0  0  0  0  0  0  0  0  0  0  0  0
    9.8292  -13.9888   23.2503 O   0  0  0  0  0  0  0  0  0  0  0  0
    7.4567  -14.5963   16.1761 C   0  0  0  0  0  0  0  0  0  0  0  0
   11.1306  -14.5390   27.8657 C   0  0  2  0  0  0  0  0  0  0  0  0
   10.0222  -14.8248   26.8786 C   0  0  0  0  0  0  0  0  0  0  0  0
    9.1332  -13.6346   26.6445 C   0  0  1  0  0  0  0  0  0  0  0  0
   10.5785  -15.3000   25.5598 N   0  0  0  0  0  0  0  0  0  0  0  0
    9.5010  -15.7342   24.6926 C   0  0  0  0  0  0  0  0  0  0  0  0
   11.5586  -16.4185   25.7548 O   0  0  0  0  0  0  0  0  0  0  0  0
   12.8093  -16.2073   26.3174 O   0  0  0  0  0  0  0  0  0  0  0  0
  2  1  1  0
  3  4  1  0
  3  2  1  0
  4  5  1  0
  5  6  1  1
  7  8  2  0
  7  5  1  0
 10 12  1  0
 10  9  1  0
 11 10  2  0
 13 14  1  0
 13 12  1  0
 14 15  1  0
 16 15  1  6
 16 17  1  0
 17  7  1  0
 18 16  1  0
 19 18  2  0
 21 20  1  1
 21 22  1  0
 23 21  1  0
 23 24  1  1
 24 18  1  0
 25 26  1  0
 25 23  1  0
 27 25  2  0
M  END
$$$$
