MRV.pdb
     RDKit          3D

 27 26  0  0  1  0  0  0  0  0999 V2000
    6.5908  -11.7316   18.9982 C   0  0  0  0  0  0  0  0  0  0  0  0
    8.1982  -12.5375   18.9899 S   0  0  0  0  0  0  0  0  0  0  0  0
    7.9720  -14.3138   19.1508 C   0  0  0  0  0  0  0  0  0  0  0  0
    9.2767  -15.0341   19.1359 C   0  0  0  0  0  0  0  0  0  0  0  0
    9.1376  -16.5283   19.3531 C   0  0  2  0  0  0  0  0  0  0  0  0
    8.4475  -17.2043   18.2974 N   0  0  0  0  0  0  0  0  0  0  0  0
    8.3732  -16.6978   20.6130 C   0  0  0  0  0  0  0  0  0  0  0  0
    7.3432  -17.3754   20.6126 O   0  0  0  0  0  0  0  0  0  0  0  0
   11.7643  -20.1223   21.4786 N   0  0  0  0  0  0  0  0  0  0  0  0
   12.3998  -20.1392   22.7364 C   0  0  0  0  0  0  0  0  0  0  0  0
   13.6658  -20.3420   22.8965 N   0  0  0  0  0  0  0  0  0  0  0  0
   11.6314  -19.9231   23.9242 N   0  0  0  0  0  0  0  0  0  0  0  0
   10.1932  -19.7101   23.8084 C   0  0  0  0  0  0  0  0  0  0  0  0
    9.9295  -18.2801   23.4550 C   0  0  0  0  0  0  0  0  0  0  0  0
    8.4856  -17.9311   23.4346 C   0  0  0  0  0  0  0  0  0  0  0  0
    8.1853  -16.5047   23.0881 C   0  0  2  0  0  0  0  0  0  0  0  0
    8.7943  -16.0955   21.8420 N   0  0  0  0  0  0  0  0  0  0  0  0
    8.7322  -15.6796   24.2300 C   0  0  0  0  0  0  0  0  0  0  0  0
    9.9592  -15.4351   24.3447 O   0  0  0  0  0  0  0  0  0  0  0  0
   14.1027  -20.4079   23.8410 C   0  0  0  0  0  0  0  0  0  0  0  0
    7.5466  -12.2015   27.5397 C   0  0  2  0  0  0  0  0  0  0  0  0
    7.1267  -13.2611   26.5469 C   0  0  0  0  0  0  0  0  0  0  0  0
    6.4755  -12.6818   25.3214 C   0  0  1  0  0  0  0  0  0  0  0  0
    8.3001  -14.1137   26.1335 N   0  0  0  0  0  0  0  0  0  0  0  0
    7.8642  -15.1506   25.2190 C   0  0  0  0  0  0  0  0  0  0  0  0
    8.9687  -14.7325   27.3251 O   0  0  0  0  0  0  0  0  0  0  0  0
    9.8876  -14.0336   28.0949 O   0  0  0  0  0  0  0  0  0  0  0  0
  2  1  1  0
  3  4  1  0
  3  2  1  0
  4  5  1  0
  5  6  1  6
  7  8  2  0
  7  5  1  0
 10 12  1  0
 10  9  1  0
 11 10  2  0
 13 14  1  0
 13 12  1  0
 14 15  1  0
 16 15  1  1
 16 17  1  0
 17  7  1  0
 18 16  1  0
 19 18  2  0
 21 20  1  1
 21 22  1  0
 23 21  1  0
 23 24  1  1
 24 18  1  0
 25 26  1  0
 25 23  1  0
 27 25  2  0
M  END
$$$$
