MRV.pdb
     RDKit          3D

 27 26  0  0  1  0  0  0  0  0999 V2000
    7.3770  -11.1195   18.4459 C   0  0  0  0  0  0  0  0  0  0  0  0
    7.7464  -12.4791   17.3287 S   0  0  0  0  0  0  0  0  0  0  0  0
    8.6744  -13.7390   18.2141 C   0  0  0  0  0  0  0  0  0  0  0  0
    8.2238  -13.8552   19.6300 C   0  0  0  0  0  0  0  0  0  0  0  0
    9.0508  -14.8325   20.4426 C   0  0  2  0  0  0  0  0  0  0  0  0
    9.3676  -16.0413   19.7454 N   0  0  0  0  0  0  0  0  0  0  0  0
    8.2438  -15.1664   21.6416 C   0  0  0  0  0  0  0  0  0  0  0  0
    7.5190  -14.3057   22.1455 O   0  0  0  0  0  0  0  0  0  0  0  0
    8.9189  -20.3198   28.0811 N   0  0  0  0  0  0  0  0  0  0  0  0
    7.5157  -20.2948   28.2097 C   0  0  0  0  0  0  0  0  0  0  0  0
    6.8925  -20.5607   29.3100 N   0  0  0  0  0  0  0  0  0  0  0  0
    6.7040  -19.9602   27.0796 N   0  0  0  0  0  0  0  0  0  0  0  0
    7.3385  -19.7892   25.7776 C   0  0  0  0  0  0  0  0  0  0  0  0
    7.1497  -18.3790   25.3140 C   0  0  0  0  0  0  0  0  0  0  0  0
    7.7683  -18.1016   23.9921 C   0  0  0  0  0  0  0  0  0  0  0  0
    7.6350  -16.6870   23.5166 C   0  0  2  0  0  0  0  0  0  0  0  0
    8.2779  -16.4668   22.2401 N   0  0  0  0  0  0  0  0  0  0  0  0
    8.2844  -15.8322   24.5803 C   0  0  0  0  0  0  0  0  0  0  0  0
    9.4798  -15.9997   24.9289 O   0  0  0  0  0  0  0  0  0  0  0  0
    5.8516  -20.5823   29.3674 C   0  0  0  0  0  0  0  0  0  0  0  0
    7.4068  -11.8982   25.2484 C   0  0  2  0  0  0  0  0  0  0  0  0
    7.3570  -12.7480   26.4974 C   0  0  0  0  0  0  0  0  0  0  0  0
    5.9511  -13.0663   26.9262 C   0  0  2  0  0  0  0  0  0  0  0  0
    8.1256  -14.0323   26.3116 N   0  0  0  0  0  0  0  0  0  0  0  0
    7.5529  -14.8024   25.2251 C   0  0  0  0  0  0  0  0  0  0  0  0
    8.1301  -14.8497   27.5693 O   0  0  0  0  0  0  0  0  0  0  0  0
    7.4838  -16.0750   27.6493 O   0  0  0  0  0  0  0  0  0  0  0  0
  2  1  1  0
  3  4  1  0
  3  2  1  0
  4  5  1  0
  5  6  1  6
  7  8  2  0
  7  5  1  0
 10 12  1  0
 10  9  1  0
 11 10  2  0
 13 14  1  0
 13 12  1  0
 14 15  1  0
 16 15  1  1
 16 17  1  0
 17  7  1  0
 18 16  1  0
 19 18  2  0
 21 20  1  1
 21 22  1  0
 23 21  1  0
 23 24  1  1
 24 18  1  0
 25 26  1  0
 25 23  1  0
 27 25  2  0
M  END
$$$$
