RTR.pdb
     RDKit          3D

 30 29  0  0  1  0  0  0  0  0999 V2000
    7.4356  -14.4642   17.1972 N   0  0  0  0  0  0  0  0  0  0  0  0
    7.9602  -14.2820   15.8853 C   0  0  0  0  0  0  0  0  0  0  0  0
    7.7457  -13.1653   15.2855 N   0  0  0  0  0  0  0  0  0  0  0  0
    8.7166  -15.3356   15.2491 N   0  0  0  0  0  0  0  0  0  0  0  0
    9.6529  -16.0476   16.0714 C   0  0  0  0  0  0  0  0  0  0  0  0
   10.6819  -15.1955   16.7134 C   0  0  0  0  0  0  0  0  0  0  0  0
   10.6680  -15.0592   18.1797 C   0  0  0  0  0  0  0  0  0  0  0  0
   10.2138  -16.2660   18.9664 C   0  0  2  0  0  0  0  0  0  0  0  0
    9.3923  -17.1434   18.2207 N   0  0  0  0  0  0  0  0  0  0  0  0
    9.6636  -15.7875   20.2583 C   0  0  0  0  0  0  0  0  0  0  0  0
   10.1785  -14.7563   20.8305 O   0  0  0  0  0  0  0  0  0  0  0  0
    8.0849  -13.0524   14.3115 C   0  0  0  0  0  0  0  0  0  0  0  0
    6.5049  -14.1746   21.0999 C   0  0  2  0  0  0  0  0  0  0  0  0
    6.6468  -15.3214   22.0727 O   0  0  0  0  0  0  0  0  0  0  0  0
    5.9182  -16.3891   21.5510 C   0  0  2  0  0  0  0  0  0  0  0  0
    8.0793  -15.7914   22.2026 N   0  0  0  0  0  0  0  0  0  0  0  0
    8.5830  -16.3691   20.9661 C   0  0  0  0  0  0  0  0  0  0  0  0
    8.1524  -16.8000   23.3177 O   0  0  0  0  0  0  0  0  0  0  0  0
    8.2127  -18.0216   23.0336 N   0  0  0  0  0  0  0  0  0  0  0  0
   11.3747  -13.4578   29.7728 C   0  0  0  0  0  0  0  0  0  0  0  0
   11.1370  -14.8059   30.1452 N   0  0  0  0  0  0  0  0  0  0  0  0
   11.8855  -15.3479   31.0290 N   0  0  0  0  0  0  0  0  0  0  0  0
   10.0858  -15.5484   29.5499 C   0  0  0  0  0  0  0  0  0  0  0  0
    9.2400  -14.9547   28.5578 C   0  0  0  0  0  0  0  0  0  0  0  0
    9.2667  -15.7182   27.2504 C   0  0  0  0  0  0  0  0  0  0  0  0
    8.1111  -16.6652   27.0991 C   0  0  2  0  0  0  0  0  0  0  0  0
    8.0772  -17.3763   25.7823 N   0  0  0  0  0  0  0  0  0  0  0  0
    8.1554  -16.4179   24.6704 C   0  0  0  0  0  0  0  0  0  0  0  0
    6.8561  -18.1831   25.5627 O   0  0  0  0  0  0  0  0  0  0  0  0
    6.8657  -19.5534   25.7845 O   0  0  0  0  0  0  0  0  0  0  0  0
  2  3  2  0
  2  1  1  0
  4  2  1  0
  5  4  1  0
  6  7  1  0
  6  5  1  0
  8 10  1  0
  8  7  1  0
  8  9  1  6
 10 11  2  0
 13 12  1  1
 13 14  1  0
 15 13  1  0
 16 10  1  0
 15 16  1  1
 17 15  1  0
 18 17  2  0
 19 20  1  0
 20 22  1  0
 21 20  2  0
 22 23  1  0
 23 24  1  0
 24 25  1  0
 26 25  1  1
 26 28  1  0
 26 27  1  0
 27 17  1  0
 28 29  1  0
 30 28  2  0
M  END
$$$$
