RTR.pdb
     RDKit          3D

 30 29  0  0  1  0  0  0  0  0999 V2000
    7.7316  -12.7942   16.0694 N   0  0  0  0  0  0  0  0  0  0  0  0
    8.2337  -13.2098   17.3361 C   0  0  0  0  0  0  0  0  0  0  0  0
    7.8825  -12.5529   18.3839 N   0  0  0  0  0  0  0  0  0  0  0  0
    9.1190  -14.3473   17.4324 N   0  0  0  0  0  0  0  0  0  0  0  0
    8.5626  -15.6300   17.1085 C   0  0  0  0  0  0  0  0  0  0  0  0
    7.5673  -16.1344   18.0843 C   0  0  0  0  0  0  0  0  0  0  0  0
    8.0533  -16.7856   19.3124 C   0  0  0  0  0  0  0  0  0  0  0  0
    8.5799  -18.1940   19.1678 C   0  0  2  0  0  0  0  0  0  0  0  0
    7.6534  -19.0790   18.5684 N   0  0  0  0  0  0  0  0  0  0  0  0
    9.1344  -18.6105   20.4792 C   0  0  0  0  0  0  0  0  0  0  0  0
    8.3492  -19.0702   21.3891 O   0  0  0  0  0  0  0  0  0  0  0  0
    8.3285  -12.7897   19.2902 C   0  0  0  0  0  0  0  0  0  0  0  0
   13.3076  -18.2183   21.7468 C   0  0  2  0  0  0  0  0  0  0  0  0
   12.3859  -19.3020   22.2544 O   0  0  0  0  0  0  0  0  0  0  0  0
   12.7023  -19.5090   23.5960 C   0  0  1  0  0  0  0  0  0  0  0  0
   10.9311  -18.8884   22.2069 N   0  0  0  0  0  0  0  0  0  0  0  0
   10.4980  -18.5539   20.8589 C   0  0  0  0  0  0  0  0  0  0  0  0
   10.7385  -17.7107   23.1244 O   0  0  0  0  0  0  0  0  0  0  0  0
   11.1434  -16.5795   22.7597 N   0  0  0  0  0  0  0  0  0  0  0  0
    6.8852  -12.0026   23.5287 C   0  0  0  0  0  0  0  0  0  0  0  0
    6.6713  -12.5566   24.8171 N   0  0  0  0  0  0  0  0  0  0  0  0
    6.7570  -11.7971   25.8423 N   0  0  0  0  0  0  0  0  0  0  0  0
    6.3662  -13.9325   24.9736 C   0  0  0  0  0  0  0  0  0  0  0  0
    6.7688  -14.6430   26.1505 C   0  0  0  0  0  0  0  0  0  0  0  0
    8.2315  -15.0329   26.1124 C   0  0  0  0  0  0  0  0  0  0  0  0
    8.4862  -16.2829   25.3201 C   0  0  2  0  0  0  0  0  0  0  0  0
    9.9213  -16.7082   25.3014 N   0  0  0  0  0  0  0  0  0  0  0  0
   10.1185  -17.8363   24.3797 C   0  0  0  0  0  0  0  0  0  0  0  0
   10.4407  -17.1398   26.6183 O   0  0  0  0  0  0  0  0  0  0  0  0
   10.6496  -16.2153   27.6325 O   0  0  0  0  0  0  0  0  0  0  0  0
  2  3  2  0
  2  1  1  0
  4  2  1  0
  5  4  1  0
  6  7  1  0
  6  5  1  0
  8 10  1  0
  8  7  1  0
  8  9  1  1
 10 11  2  0
 13 12  1  6
 13 14  1  0
 15 13  1  0
 16 10  1  0
 15 16  1  6
 17 15  1  0
 18 17  2  0
 19 20  1  0
 20 22  1  0
 21 20  2  0
 22 23  1  0
 23 24  1  0
 24 25  1  0
 26 25  1  6
 26 28  1  0
 26 27  1  0
 27 17  1  0
 28 29  1  0
 30 28  2  0
M  END
$$$$
