RTR.pdb
     RDKit          3D

 30 29  0  0  1  0  0  0  0  0999 V2000
   12.5145  -20.6326   17.2736 N   0  0  0  0  0  0  0  0  0  0  0  0
   11.1470  -21.0029   17.1237 C   0  0  0  0  0  0  0  0  0  0  0  0
   10.6878  -21.9672   17.8392 N   0  0  0  0  0  0  0  0  0  0  0  0
   10.3007  -20.3039   16.1846 N   0  0  0  0  0  0  0  0  0  0  0  0
   10.9222  -19.2859   15.3862 C   0  0  0  0  0  0  0  0  0  0  0  0
   10.1801  -18.0038   15.3351 C   0  0  0  0  0  0  0  0  0  0  0  0
    8.9946  -17.8421   16.1936 C   0  0  0  0  0  0  0  0  0  0  0  0
    8.1815  -16.5849   15.9935 C   0  0  2  0  0  0  0  0  0  0  0  0
    8.2202  -16.0989   14.6657 N   0  0  0  0  0  0  0  0  0  0  0  0
    8.5595  -15.6231   17.0579 C   0  0  0  0  0  0  0  0  0  0  0  0
    8.9484  -14.4381   16.7409 O   0  0  0  0  0  0  0  0  0  0  0  0
    9.7159  -22.2895   17.6719 C   0  0  0  0  0  0  0  0  0  0  0  0
    7.5372  -12.7578   20.3740 C   0  0  2  0  0  0  0  0  0  0  0  0
    7.5703  -13.7542   19.2393 O   0  0  0  0  0  0  0  0  0  0  0  0
    7.8975  -13.0447   18.0850 C   0  0  1  0  0  0  0  0  0  0  0  0
    8.6443  -14.8037   19.4268 N   0  0  0  0  0  0  0  0  0  0  0  0
    8.5400  -15.8779   18.4513 C   0  0  0  0  0  0  0  0  0  0  0  0
    8.5361  -15.3546   20.8235 O   0  0  0  0  0  0  0  0  0  0  0  0
    7.5285  -16.0360   21.1350 N   0  0  0  0  0  0  0  0  0  0  0  0
   15.2054  -14.6867   22.0424 C   0  0  0  0  0  0  0  0  0  0  0  0
   15.0666  -16.0984   22.0205 N   0  0  0  0  0  0  0  0  0  0  0  0
   15.6265  -16.7636   21.0830 N   0  0  0  0  0  0  0  0  0  0  0  0
   14.3187  -16.7694   23.0212 C   0  0  0  0  0  0  0  0  0  0  0  0
   13.2761  -16.0931   23.7337 C   0  0  0  0  0  0  0  0  0  0  0  0
   11.9334  -16.2246   23.0460 C   0  0  0  0  0  0  0  0  0  0  0  0
   10.8128  -15.5898   23.8184 C   0  0  2  0  0  0  0  0  0  0  0  0
    9.4779  -15.6955   23.1491 N   0  0  0  0  0  0  0  0  0  0  0  0
    9.5288  -15.1303   21.7930 C   0  0  0  0  0  0  0  0  0  0  0  0
    8.3876  -14.9928   23.8617 O   0  0  0  0  0  0  0  0  0  0  0  0
    7.6883  -15.6243   24.8810 O   0  0  0  0  0  0  0  0  0  0  0  0
  2  3  2  0
  2  1  1  0
  4  2  1  0
  5  4  1  0
  6  7  1  0
  6  5  1  0
  8 10  1  0
  8  7  1  0
  8  9  1  6
 10 11  2  0
 13 12  1  6
 13 14  1  0
 15 13  1  0
 16 10  1  0
 15 16  1  6
 17 15  1  0
 18 17  2  0
 19 20  1  0
 20 22  1  0
 21 20  2  0
 22 23  1  0
 23 24  1  0
 24 25  1  0
 26 25  1  6
 26 28  1  0
 26 27  1  0
 27 17  1  0
 28 29  1  0
 30 28  2  0
M  END
$$$$
