RTR.pdb
     RDKit          3D

 30 29  0  0  1  0  0  0  0  0999 V2000
    7.5823  -18.2716   14.1565 N   0  0  0  0  0  0  0  0  0  0  0  0
    8.8661  -18.2851   13.5389 C   0  0  0  0  0  0  0  0  0  0  0  0
    9.0955  -19.1474   12.6134 N   0  0  0  0  0  0  0  0  0  0  0  0
    9.8835  -17.3457   13.9503 N   0  0  0  0  0  0  0  0  0  0  0  0
   10.0317  -17.1284   15.3612 C   0  0  0  0  0  0  0  0  0  0  0  0
   10.7295  -18.2190   16.0829 C   0  0  0  0  0  0  0  0  0  0  0  0
   11.0651  -18.0210   17.5030 C   0  0  0  0  0  0  0  0  0  0  0  0
    9.9800  -18.3386   18.5046 C   0  0  2  0  0  0  0  0  0  0  0  0
    8.8016  -18.8476   17.9105 N   0  0  0  0  0  0  0  0  0  0  0  0
    9.8149  -17.1581   19.3878 C   0  0  0  0  0  0  0  0  0  0  0  0
   10.8041  -16.7507   20.1030 O   0  0  0  0  0  0  0  0  0  0  0  0
   10.0420  -19.1799   12.1896 C   0  0  0  0  0  0  0  0  0  0  0  0
    7.4258  -13.1392   21.0877 C   0  0  2  0  0  0  0  0  0  0  0  0
    7.4079  -14.3594   20.1975 O   0  0  0  0  0  0  0  0  0  0  0  0
    7.6124  -13.9135   18.8928 C   0  0  1  0  0  0  0  0  0  0  0  0
    8.5349  -15.3184   20.5136 N   0  0  0  0  0  0  0  0  0  0  0  0
    8.6316  -16.3941   19.5389 C   0  0  0  0  0  0  0  0  0  0  0  0
    8.3116  -15.8813   21.8918 O   0  0  0  0  0  0  0  0  0  0  0  0
    7.6681  -16.9521   22.0174 N   0  0  0  0  0  0  0  0  0  0  0  0
   10.1902  -12.9971   30.3968 C   0  0  0  0  0  0  0  0  0  0  0  0
   10.4133  -14.3901   30.2467 N   0  0  0  0  0  0  0  0  0  0  0  0
   11.1302  -15.0015   31.1111 N   0  0  0  0  0  0  0  0  0  0  0  0
    9.8521  -15.1012   29.1557 C   0  0  0  0  0  0  0  0  0  0  0  0
   10.0047  -14.6238   27.8138 C   0  0  0  0  0  0  0  0  0  0  0  0
    9.2167  -15.4494   26.8186 C   0  0  0  0  0  0  0  0  0  0  0  0
    9.3694  -14.9683   25.4042 C   0  0  2  0  0  0  0  0  0  0  0  0
    8.5747  -15.7524   24.4070 N   0  0  0  0  0  0  0  0  0  0  0  0
    8.8012  -15.2454   23.0458 C   0  0  0  0  0  0  0  0  0  0  0  0
    7.1131  -15.7159   24.6363 O   0  0  0  0  0  0  0  0  0  0  0  0
    6.4797  -16.7445   25.3201 O   0  0  0  0  0  0  0  0  0  0  0  0
  2  3  2  0
  2  1  1  0
  4  2  1  0
  5  4  1  0
  6  7  1  0
  6  5  1  0
  8 10  1  0
  8  7  1  0
  8  9  1  6
 10 11  2  0
 13 12  1  6
 13 14  1  0
 15 13  1  0
 16 10  1  0
 15 16  1  1
 17 15  1  0
 18 17  2  0
 19 20  1  0
 20 22  1  0
 21 20  2  0
 22 23  1  0
 23 24  1  0
 24 25  1  0
 26 25  1  6
 26 28  1  0
 26 27  1  0
 27 17  1  0
 28 29  1  0
 30 28  2  0
M  END
$$$$
