RTR.pdb
     RDKit          3D

 30 29  0  0  1  0  0  0  0  0999 V2000
    7.5818  -12.6371   21.6115 N   0  0  0  0  0  0  0  0  0  0  0  0
    8.3106  -12.5162   20.3934 C   0  0  0  0  0  0  0  0  0  0  0  0
    9.0391  -11.4725   20.2122 N   0  0  0  0  0  0  0  0  0  0  0  0
    8.2271  -13.5498   19.3877 N   0  0  0  0  0  0  0  0  0  0  0  0
    7.5319  -14.7518   19.7507 C   0  0  0  0  0  0  0  0  0  0  0  0
    8.0931  -15.9905   19.1611 C   0  0  0  0  0  0  0  0  0  0  0  0
    7.5074  -17.2840   19.5516 C   0  0  0  0  0  0  0  0  0  0  0  0
    8.0713  -18.5125   18.8776 C   0  0  2  0  0  0  0  0  0  0  0  0
    7.2181  -19.0471   17.8841 N   0  0  0  0  0  0  0  0  0  0  0  0
    8.5164  -19.4503   19.9374 C   0  0  0  0  0  0  0  0  0  0  0  0
    7.6439  -20.1040   20.6211 O   0  0  0  0  0  0  0  0  0  0  0  0
    9.5127  -11.3512   19.2971 C   0  0  0  0  0  0  0  0  0  0  0  0
   10.5060  -22.6220   19.8893 C   0  0  2  0  0  0  0  0  0  0  0  0
   11.1292  -21.7304   20.9372 O   0  0  0  0  0  0  0  0  0  0  0  0
   12.2281  -21.1120   20.3431 C   0  0  2  0  0  0  0  0  0  0  0  0
   10.1945  -20.6270   21.3830 N   0  0  0  0  0  0  0  0  0  0  0  0
    9.8601  -19.7175   20.2979 C   0  0  0  0  0  0  0  0  0  0  0  0
   10.8466  -19.8749   22.5123 O   0  0  0  0  0  0  0  0  0  0  0  0
   11.3815  -18.7635   22.2775 N   0  0  0  0  0  0  0  0  0  0  0  0
   10.9753  -21.1873   31.4369 C   0  0  0  0  0  0  0  0  0  0  0  0
   12.0659  -20.3242   31.1569 N   0  0  0  0  0  0  0  0  0  0  0  0
   12.7860  -19.8986   32.1240 N   0  0  0  0  0  0  0  0  0  0  0  0
   12.3593  -19.9346   29.8254 C   0  0  0  0  0  0  0  0  0  0  0  0
   11.5786  -20.4258   28.7294 C   0  0  0  0  0  0  0  0  0  0  0  0
   11.9903  -19.8074   27.4098 C   0  0  0  0  0  0  0  0  0  0  0  0
   11.2016  -20.3309   26.2440 C   0  0  1  0  0  0  0  0  0  0  0  0
   11.5638  -19.7022   24.9346 N   0  0  0  0  0  0  0  0  0  0  0  0
   10.8763  -20.3776   23.8246 C   0  0  0  0  0  0  0  0  0  0  0  0
   13.0105  -19.7416   24.6253 O   0  0  0  0  0  0  0  0  0  0  0  0
   13.8329  -18.6738   24.9572 O   0  0  0  0  0  0  0  0  0  0  0  0
  2  3  2  0
  2  1  1  0
  4  2  1  0
  5  4  1  0
  6  7  1  0
  6  5  1  0
  8 10  1  0
  8  7  1  0
  8  9  1  1
 10 11  2  0
 13 12  1  1
 13 14  1  0
 15 13  1  0
 16 10  1  0
 15 16  1  1
 17 15  1  0
 18 17  2  0
 19 20  1  0
 20 22  1  0
 21 20  2  0
 22 23  1  0
 23 24  1  0
 24 25  1  0
 26 25  1  1
 26 28  1  0
 26 27  1  0
 27 17  1  0
 28 29  1  0
 30 28  2  0
M  END
$$$$
