RTR.pdb
     RDKit          3D

 30 29  0  0  1  0  0  0  0  0999 V2000
    7.0611  -13.1597   17.2345 N   0  0  0  0  0  0  0  0  0  0  0  0
    8.4191  -13.3763   16.8625 C   0  0  0  0  0  0  0  0  0  0  0  0
    8.6657  -13.9775   15.7532 N   0  0  0  0  0  0  0  0  0  0  0  0
    9.4910  -12.9266   17.7201 N   0  0  0  0  0  0  0  0  0  0  0  0
    9.4690  -13.3865   19.0794 C   0  0  0  0  0  0  0  0  0  0  0  0
    8.1128  -13.6294   19.6261 C   0  0  0  0  0  0  0  0  0  0  0  0
    7.9880  -14.0969   21.0170 C   0  0  0  0  0  0  0  0  0  0  0  0
    8.9807  -15.1411   21.4707 C   0  0  2  0  0  0  0  0  0  0  0  0
    8.9087  -16.3422   20.7271 N   0  0  0  0  0  0  0  0  0  0  0  0
    8.8646  -15.2710   22.9440 C   0  0  0  0  0  0  0  0  0  0  0  0
    8.3455  -14.3153   23.6317 O   0  0  0  0  0  0  0  0  0  0  0  0
    9.6522  -14.0599   15.4426 C   0  0  0  0  0  0  0  0  0  0  0  0
    6.8783  -15.1361   24.8514 C   0  0  2  0  0  0  0  0  0  0  0  0
    7.4866  -16.4051   25.4002 O   0  0  0  0  0  0  0  0  0  0  0  0
    6.8908  -17.4674   24.7223 C   0  0  2  0  0  0  0  0  0  0  0  0
    8.9731  -16.4933   25.1314 N   0  0  0  0  0  0  0  0  0  0  0  0
    9.2832  -16.3838   23.7142 C   0  0  0  0  0  0  0  0  0  0  0  0
    9.4812  -17.8009   25.6774 O   0  0  0  0  0  0  0  0  0  0  0  0
    9.1843  -18.8671   25.0844 N   0  0  0  0  0  0  0  0  0  0  0  0
   11.5961  -20.2077   31.8115 C   0  0  0  0  0  0  0  0  0  0  0  0
   12.7500  -21.0327   31.7861 N   0  0  0  0  0  0  0  0  0  0  0  0
   12.8113  -22.0400   32.5713 N   0  0  0  0  0  0  0  0  0  0  0  0
   13.8242  -20.7504   30.9045 C   0  0  0  0  0  0  0  0  0  0  0  0
   13.6955  -19.7469   29.8904 C   0  0  0  0  0  0  0  0  0  0  0  0
   12.5847  -20.0615   28.9105 C   0  0  0  0  0  0  0  0  0  0  0  0
   11.9115  -18.8324   28.3708 C   0  0  2  0  0  0  0  0  0  0  0  0
   10.8600  -19.1172   27.3441 N   0  0  0  0  0  0  0  0  0  0  0  0
   10.2791  -17.8674   26.8326 C   0  0  0  0  0  0  0  0  0  0  0  0
    9.7332  -19.9359   27.8446 O   0  0  0  0  0  0  0  0  0  0  0  0
    9.8088  -21.3219   27.8358 O   0  0  0  0  0  0  0  0  0  0  0  0
  2  3  2  0
  2  1  1  0
  4  2  1  0
  5  4  1  0
  6  7  1  0
  6  5  1  0
  8 10  1  0
  8  7  1  0
  8  9  1  6
 10 11  2  0
 13 12  1  1
 13 14  1  0
 15 13  1  0
 16 10  1  0
 15 16  1  1
 17 15  1  0
 18 17  2  0
 19 20  1  0
 20 22  1  0
 21 20  2  0
 22 23  1  0
 23 24  1  0
 24 25  1  0
 26 25  1  6
 26 28  1  0
 26 27  1  0
 27 17  1  0
 28 29  1  0
 30 28  2  0
M  END
$$$$
