RTR.pdb
     RDKit          3D

 30 29  0  0  1  0  0  0  0  0999 V2000
   12.6113  -17.8578   11.7502 N   0  0  0  0  0  0  0  0  0  0  0  0
   13.2813  -17.8573   13.0074 C   0  0  0  0  0  0  0  0  0  0  0  0
   14.5378  -17.5869   13.0359 N   0  0  0  0  0  0  0  0  0  0  0  0
   12.5561  -18.1556   14.2206 N   0  0  0  0  0  0  0  0  0  0  0  0
   11.1883  -18.5647   14.0734 C   0  0  0  0  0  0  0  0  0  0  0  0
   10.1949  -17.4892   14.3048 C   0  0  0  0  0  0  0  0  0  0  0  0
   10.2504  -16.7406   15.5717 C   0  0  0  0  0  0  0  0  0  0  0  0
    9.1423  -15.7438   15.8170 C   0  0  2  0  0  0  0  0  0  0  0  0
    8.9423  -14.8524   14.7370 N   0  0  0  0  0  0  0  0  0  0  0  0
    9.3701  -15.1265   17.1465 C   0  0  0  0  0  0  0  0  0  0  0  0
   10.4217  -14.4130   17.3491 O   0  0  0  0  0  0  0  0  0  0  0  0
   15.0478  -17.6937   13.9331 C   0  0  0  0  0  0  0  0  0  0  0  0
    7.1875  -12.7298   19.2464 C   0  0  2  0  0  0  0  0  0  0  0  0
    7.6456  -13.8708   20.1238 O   0  0  0  0  0  0  0  0  0  0  0  0
    6.5961  -14.7863   20.1806 C   0  0  2  0  0  0  0  0  0  0  0  0
    8.8341  -14.6036   19.5402 N   0  0  0  0  0  0  0  0  0  0  0  0
    8.5178  -15.2426   18.2721 C   0  0  0  0  0  0  0  0  0  0  0  0
    9.3016  -15.6283   20.5389 O   0  0  0  0  0  0  0  0  0  0  0  0
    9.0670  -16.8429   20.3232 N   0  0  0  0  0  0  0  0  0  0  0  0
   13.7508  -20.8173   23.5595 C   0  0  0  0  0  0  0  0  0  0  0  0
   14.7569  -19.8233   23.6706 N   0  0  0  0  0  0  0  0  0  0  0  0
   15.9091  -20.0456   23.1627 N   0  0  0  0  0  0  0  0  0  0  0  0
   14.4955  -18.5977   24.3343 C   0  0  0  0  0  0  0  0  0  0  0  0
   13.9944  -17.4662   23.6128 C   0  0  0  0  0  0  0  0  0  0  0  0
   12.4810  -17.4376   23.5709 C   0  0  0  0  0  0  0  0  0  0  0  0
   11.9364  -16.2731   22.7946 C   0  0  2  0  0  0  0  0  0  0  0  0
   10.4419  -16.2421   22.7148 N   0  0  0  0  0  0  0  0  0  0  0  0
    9.9939  -15.2690   21.7082 C   0  0  0  0  0  0  0  0  0  0  0  0
    9.7766  -15.8762   23.9852 O   0  0  0  0  0  0  0  0  0  0  0  0
    9.7966  -16.7440   25.0684 O   0  0  0  0  0  0  0  0  0  0  0  0
  2  3  2  0
  2  1  1  0
  4  2  1  0
  5  4  1  0
  6  7  1  0
  6  5  1  0
  8 10  1  0
  8  7  1  0
  8  9  1  6
 10 11  2  0
 13 12  1  1
 13 14  1  0
 15 13  1  0
 16 10  1  0
 15 16  1  1
 17 15  1  0
 18 17  2  0
 19 20  1  0
 20 22  1  0
 21 20  2  0
 22 23  1  0
 23 24  1  0
 24 25  1  0
 26 25  1  6
 26 28  1  0
 26 27  1  0
 27 17  1  0
 28 29  1  0
 30 28  2  0
M  END
$$$$
