RTR.pdb
     RDKit          3D

 30 29  0  0  1  0  0  0  0  0999 V2000
    8.2036  -28.6865   21.7929 N   0  0  0  0  0  0  0  0  0  0  0  0
    8.5972  -29.4303   20.6434 C   0  0  0  0  0  0  0  0  0  0  0  0
    9.5438  -30.2922   20.7616 N   0  0  0  0  0  0  0  0  0  0  0  0
    7.9408  -29.2144   19.3748 N   0  0  0  0  0  0  0  0  0  0  0  0
    7.0107  -28.1237   19.3045 C   0  0  0  0  0  0  0  0  0  0  0  0
    7.3417  -27.0958   18.2891 C   0  0  0  0  0  0  0  0  0  0  0  0
    8.5170  -26.2375   18.5139 C   0  0  0  0  0  0  0  0  0  0  0  0
    8.7753  -25.1620   17.4851 C   0  0  2  0  0  0  0  0  0  0  0  0
    8.6470  -25.6197   16.1528 N   0  0  0  0  0  0  0  0  0  0  0  0
   10.0550  -24.4968   17.8322 C   0  0  0  0  0  0  0  0  0  0  0  0
   11.1593  -24.9367   17.3391 O   0  0  0  0  0  0  0  0  0  0  0  0
    9.8137  -30.8496   19.9292 C   0  0  0  0  0  0  0  0  0  0  0  0
   12.9235  -20.7198   18.8088 C   0  0  2  0  0  0  0  0  0  0  0  0
   11.5865  -21.3485   18.4947 O   0  0  0  0  0  0  0  0  0  0  0  0
   11.4609  -21.3638   17.1065 C   0  0  1  0  0  0  0  0  0  0  0  0
   11.5048  -22.7871   18.9571 N   0  0  0  0  0  0  0  0  0  0  0  0
   10.2029  -23.3781   18.6886 C   0  0  0  0  0  0  0  0  0  0  0  0
   11.8050  -22.8333   20.4315 O   0  0  0  0  0  0  0  0  0  0  0  0
   10.9868  -22.3261   21.2377 N   0  0  0  0  0  0  0  0  0  0  0  0
   16.5054  -29.3518   22.4497 C   0  0  0  0  0  0  0  0  0  0  0  0
   15.4044  -29.3230   21.5555 N   0  0  0  0  0  0  0  0  0  0  0  0
   15.1400  -30.3637   20.8612 N   0  0  0  0  0  0  0  0  0  0  0  0
   14.6035  -28.1597   21.4282 C   0  0  0  0  0  0  0  0  0  0  0  0
   14.8898  -26.9854   22.1972 C   0  0  0  0  0  0  0  0  0  0  0  0
   13.9469  -25.8452   21.8747 C   0  0  0  0  0  0  0  0  0  0  0  0
   14.2359  -24.6020   22.6660 C   0  0  2  0  0  0  0  0  0  0  0  0
   13.3111  -23.4634   22.3671 N   0  0  0  0  0  0  0  0  0  0  0  0
   12.9746  -23.4272   20.9365 C   0  0  0  0  0  0  0  0  0  0  0  0
   13.8617  -22.1326   22.7078 O   0  0  0  0  0  0  0  0  0  0  0  0
   13.8586  -21.6822   24.0208 O   0  0  0  0  0  0  0  0  0  0  0  0
  2  3  2  0
  2  1  1  0
  4  2  1  0
  5  4  1  0
  6  7  1  0
  6  5  1  0
  8 10  1  0
  8  7  1  0
  8  9  1  6
 10 11  2  0
 13 12  1  1
 13 14  1  0
 15 13  1  0
 16 10  1  0
 15 16  1  1
 17 15  1  0
 18 17  2  0
 19 20  1  0
 20 22  1  0
 21 20  2  0
 22 23  1  0
 23 24  1  0
 24 25  1  0
 26 25  1  1
 26 28  1  0
 26 27  1  0
 27 17  1  0
 28 29  1  0
 30 28  2  0
M  END
$$$$
