RTR.pdb
     RDKit          3D

 30 29  0  0  1  0  0  0  0  0999 V2000
   13.0515  -19.7595   17.5132 N   0  0  0  0  0  0  0  0  0  0  0  0
   12.3034  -19.5914   16.3125 C   0  0  0  0  0  0  0  0  0  0  0  0
   12.8805  -19.0546   15.2969 N   0  0  0  0  0  0  0  0  0  0  0  0
   10.9248  -20.0182   16.2462 N   0  0  0  0  0  0  0  0  0  0  0  0
   10.2637  -19.8774   14.9801 C   0  0  0  0  0  0  0  0  0  0  0  0
    9.9994  -18.4763   14.5751 C   0  0  0  0  0  0  0  0  0  0  0  0
    8.9583  -17.7209   15.2921 C   0  0  0  0  0  0  0  0  0  0  0  0
    8.6665  -16.3271   14.7883 C   0  0  2  0  0  0  0  0  0  0  0  0
    9.2412  -16.0573   13.5243 N   0  0  0  0  0  0  0  0  0  0  0  0
    8.9902  -15.3719   15.8761 C   0  0  0  0  0  0  0  0  0  0  0  0
   10.1608  -14.8405   15.9339 O   0  0  0  0  0  0  0  0  0  0  0  0
   13.8528  -18.7089   15.4045 C   0  0  0  0  0  0  0  0  0  0  0  0
    7.8410  -12.6578   19.9246 C   0  0  2  0  0  0  0  0  0  0  0  0
    7.4029  -13.6391   18.8632 O   0  0  0  0  0  0  0  0  0  0  0  0
    6.5005  -12.9694   18.0384 C   0  0  1  0  0  0  0  0  0  0  0  0
    8.5506  -14.0858   17.9840 N   0  0  0  0  0  0  0  0  0  0  0  0
    8.1113  -14.9615   16.9085 C   0  0  0  0  0  0  0  0  0  0  0  0
    9.5680  -14.7859   18.8446 O   0  0  0  0  0  0  0  0  0  0  0  0
    9.4575  -16.0216   19.0385 N   0  0  0  0  0  0  0  0  0  0  0  0
   17.3816  -13.5272   17.6055 C   0  0  0  0  0  0  0  0  0  0  0  0
   17.1868  -14.8541   18.0682 N   0  0  0  0  0  0  0  0  0  0  0  0
   18.0816  -15.7346   17.8255 N   0  0  0  0  0  0  0  0  0  0  0  0
   16.0185  -15.2062   18.7906 C   0  0  0  0  0  0  0  0  0  0  0  0
   15.5672  -14.4054   19.8893 C   0  0  0  0  0  0  0  0  0  0  0  0
   14.2292  -14.8697   20.4254 C   0  0  0  0  0  0  0  0  0  0  0  0
   13.0632  -14.2879   19.6790 C   0  0  1  0  0  0  0  0  0  0  0  0
   11.7312  -14.7721   20.1609 N   0  0  0  0  0  0  0  0  0  0  0  0
   10.6405  -14.0997   19.4401 C   0  0  0  0  0  0  0  0  0  0  0  0
   11.4912  -14.5439   21.6033 O   0  0  0  0  0  0  0  0  0  0  0  0
   12.1886  -15.2704   22.5587 O   0  0  0  0  0  0  0  0  0  0  0  0
  2  3  2  0
  2  1  1  0
  4  2  1  0
  5  4  1  0
  6  7  1  0
  6  5  1  0
  8 10  1  0
  8  7  1  0
  8  9  1  6
 10 11  2  0
 13 12  1  1
 13 14  1  0
 15 13  1  0
 16 10  1  0
 15 16  1  1
 17 15  1  0
 18 17  2  0
 19 20  1  0
 20 22  1  0
 21 20  2  0
 22 23  1  0
 23 24  1  0
 24 25  1  0
 26 25  1  6
 26 28  1  0
 26 27  1  0
 27 17  1  0
 28 29  1  0
 30 28  2  0
M  END
$$$$
