RTR.pdb
     RDKit          3D

 30 29  0  0  1  0  0  0  0  0999 V2000
    7.0530  -13.3470   16.0381 N   0  0  0  0  0  0  0  0  0  0  0  0
    8.2401  -13.9738   15.5613 C   0  0  0  0  0  0  0  0  0  0  0  0
    8.5472  -13.8479   14.3193 N   0  0  0  0  0  0  0  0  0  0  0  0
    9.0762  -14.7334   16.4618 N   0  0  0  0  0  0  0  0  0  0  0  0
    8.4083  -15.4915   17.4811 C   0  0  0  0  0  0  0  0  0  0  0  0
    7.6831  -14.6736   18.4822 C   0  0  0  0  0  0  0  0  0  0  0  0
    8.3548  -14.3602   19.7547 C   0  0  0  0  0  0  0  0  0  0  0  0
    8.4170  -15.4700   20.7775 C   0  0  2  0  0  0  0  0  0  0  0  0
    7.3775  -16.4191   20.6373 N   0  0  0  0  0  0  0  0  0  0  0  0
    8.5649  -14.8486   22.1164 C   0  0  0  0  0  0  0  0  0  0  0  0
    9.5813  -14.0997   22.3655 O   0  0  0  0  0  0  0  0  0  0  0  0
    9.3922  -14.3350   13.9656 C   0  0  0  0  0  0  0  0  0  0  0  0
    6.7783  -12.7151   26.1149 C   0  0  2  0  0  0  0  0  0  0  0  0
    6.5748  -13.5581   24.8782 O   0  0  0  0  0  0  0  0  0  0  0  0
    6.2232  -12.6886   23.8471 C   0  0  1  0  0  0  0  0  0  0  0  0
    7.8439  -14.2595   24.4452 N   0  0  0  0  0  0  0  0  0  0  0  0
    7.6686  -14.9967   23.2033 C   0  0  0  0  0  0  0  0  0  0  0  0
    8.2766  -15.1890   25.5474 O   0  0  0  0  0  0  0  0  0  0  0  0
    7.5838  -16.2062   25.7958 N   0  0  0  0  0  0  0  0  0  0  0  0
   14.8168  -20.2624   27.4885 C   0  0  0  0  0  0  0  0  0  0  0  0
   14.0211  -20.2697   28.6630 N   0  0  0  0  0  0  0  0  0  0  0  0
   14.1719  -21.2157   29.5100 N   0  0  0  0  0  0  0  0  0  0  0  0
   13.0699  -19.2454   28.9011 C   0  0  0  0  0  0  0  0  0  0  0  0
   12.7350  -18.3035   27.8751 C   0  0  0  0  0  0  0  0  0  0  0  0
   11.5576  -17.4322   28.2589 C   0  0  0  0  0  0  0  0  0  0  0  0
   11.0649  -16.5777   27.1266 C   0  0  1  0  0  0  0  0  0  0  0  0
    9.8342  -15.7898   27.4513 N   0  0  0  0  0  0  0  0  0  0  0  0
    9.4340  -14.9545   26.3097 C   0  0  0  0  0  0  0  0  0  0  0  0
    9.9866  -14.8815   28.6097 O   0  0  0  0  0  0  0  0  0  0  0  0
   10.0435  -15.3874   29.9011 O   0  0  0  0  0  0  0  0  0  0  0  0
  2  3  2  0
  2  1  1  0
  4  2  1  0
  5  4  1  0
  6  7  1  0
  6  5  1  0
  8 10  1  0
  8  7  1  0
  8  9  1  1
 10 11  2  0
 13 12  1  1
 13 14  1  0
 15 13  1  0
 16 10  1  0
 15 16  1  1
 17 15  1  0
 18 17  2  0
 19 20  1  0
 20 22  1  0
 21 20  2  0
 22 23  1  0
 23 24  1  0
 24 25  1  0
 26 25  1  6
 26 28  1  0
 26 27  1  0
 27 17  1  0
 28 29  1  0
 30 28  2  0
M  END
$$$$
