RTR.pdb
     RDKit          3D

 30 29  0  0  1  0  0  0  0  0999 V2000
    9.2675  -17.7928   11.4258 N   0  0  0  0  0  0  0  0  0  0  0  0
   10.0699  -17.9528   12.5920 C   0  0  0  0  0  0  0  0  0  0  0  0
    9.9701  -19.0445   13.2636 N   0  0  0  0  0  0  0  0  0  0  0  0
   10.9746  -16.9048   13.0046 N   0  0  0  0  0  0  0  0  0  0  0  0
   11.0421  -16.6240   14.4104 C   0  0  0  0  0  0  0  0  0  0  0  0
    9.8201  -16.0030   14.9743 C   0  0  0  0  0  0  0  0  0  0  0  0
    9.7794  -15.7140   16.4177 C   0  0  0  0  0  0  0  0  0  0  0  0
    8.4962  -15.1237   16.9530 C   0  0  2  0  0  0  0  0  0  0  0  0
    7.9234  -14.1574   16.0934 N   0  0  0  0  0  0  0  0  0  0  0  0
    8.7393  -14.6977   18.3531 C   0  0  0  0  0  0  0  0  0  0  0  0
    9.4559  -13.6554   18.5895 O   0  0  0  0  0  0  0  0  0  0  0  0
   10.4957  -19.1286   14.1542 C   0  0  0  0  0  0  0  0  0  0  0  0
    6.4767  -13.4175   20.9859 C   0  0  2  0  0  0  0  0  0  0  0  0
    7.2821  -14.5227   21.6273 O   0  0  0  0  0  0  0  0  0  0  0  0
    6.4895  -15.6691   21.6038 C   0  0  2  0  0  0  0  0  0  0  0  0
    8.5393  -14.8441   20.8489 N   0  0  0  0  0  0  0  0  0  0  0  0
    8.2473  -15.3435   19.5140 C   0  0  0  0  0  0  0  0  0  0  0  0
    9.3350  -15.8602   21.6238 O   0  0  0  0  0  0  0  0  0  0  0  0
    9.2351  -17.0746   21.3207 N   0  0  0  0  0  0  0  0  0  0  0  0
   15.9355  -17.8113   21.1631 C   0  0  0  0  0  0  0  0  0  0  0  0
   16.3333  -17.9437   22.5184 N   0  0  0  0  0  0  0  0  0  0  0  0
   17.2026  -18.8291   22.8273 N   0  0  0  0  0  0  0  0  0  0  0  0
   15.7790  -17.1093   23.5220 C   0  0  0  0  0  0  0  0  0  0  0  0
   14.7683  -16.1469   23.1987 C   0  0  0  0  0  0  0  0  0  0  0  0
   13.3953  -16.7749   23.0818 C   0  0  0  0  0  0  0  0  0  0  0  0
   12.3228  -15.9740   23.7625 C   0  0  2  0  0  0  0  0  0  0  0  0
   10.9346  -16.4642   23.4915 N   0  0  0  0  0  0  0  0  0  0  0  0
   10.1884  -15.4929   22.6785 C   0  0  0  0  0  0  0  0  0  0  0  0
   10.1303  -16.7049   24.7104 O   0  0  0  0  0  0  0  0  0  0  0  0
    8.9888  -15.9563   24.9624 O   0  0  0  0  0  0  0  0  0  0  0  0
  2  3  2  0
  2  1  1  0
  4  2  1  0
  5  4  1  0
  6  7  1  0
  6  5  1  0
  8 10  1  0
  8  7  1  0
  8  9  1  6
 10 11  2  0
 13 12  1  1
 13 14  1  0
 15 13  1  0
 16 10  1  0
 15 16  1  1
 17 15  1  0
 18 17  2  0
 19 20  1  0
 20 22  1  0
 21 20  2  0
 22 23  1  0
 23 24  1  0
 24 25  1  0
 26 25  1  6
 26 28  1  0
 26 27  1  0
 27 17  1  0
 28 29  1  0
 30 28  2  0
M  END
$$$$
