RTR.pdb
     RDKit          3D

 30 29  0  0  1  0  0  0  0  0999 V2000
   10.7814  -19.7023   14.5260 N   0  0  0  0  0  0  0  0  0  0  0  0
   11.9069  -19.1599   13.8416 C   0  0  0  0  0  0  0  0  0  0  0  0
   12.6186  -19.9415   13.1099 N   0  0  0  0  0  0  0  0  0  0  0  0
   12.2348  -17.7590   13.9725 N   0  0  0  0  0  0  0  0  0  0  0  0
   11.3881  -16.9727   14.8238 C   0  0  0  0  0  0  0  0  0  0  0  0
   10.0076  -16.7858   14.3173 C   0  0  0  0  0  0  0  0  0  0  0  0
    9.1144  -15.8601   15.0340 C   0  0  0  0  0  0  0  0  0  0  0  0
    8.4149  -16.4061   16.2564 C   0  0  2  0  0  0  0  0  0  0  0  0
    7.0285  -16.6098   16.0636 N   0  0  0  0  0  0  0  0  0  0  0  0
    8.8018  -15.5663   17.4165 C   0  0  0  0  0  0  0  0  0  0  0  0
    9.6878  -14.6443   17.2719 O   0  0  0  0  0  0  0  0  0  0  0  0
   13.4559  -19.5519   12.6369 C   0  0  0  0  0  0  0  0  0  0  0  0
    7.1568  -12.9097   19.3256 C   0  0  2  0  0  0  0  0  0  0  0  0
    7.6210  -13.9287   20.3394 O   0  0  0  0  0  0  0  0  0  0  0  0
    6.5372  -14.7655   20.5999 C   0  0  2  0  0  0  0  0  0  0  0  0
    8.7325  -14.8059   19.8055 N   0  0  0  0  0  0  0  0  0  0  0  0
    8.2797  -15.6734   18.7290 C   0  0  0  0  0  0  0  0  0  0  0  0
    9.2815  -15.6268   20.9416 O   0  0  0  0  0  0  0  0  0  0  0  0
    8.7970  -16.7637   21.1636 N   0  0  0  0  0  0  0  0  0  0  0  0
   16.8376  -15.9203   23.4675 C   0  0  0  0  0  0  0  0  0  0  0  0
   16.3840  -17.2532   23.2929 N   0  0  0  0  0  0  0  0  0  0  0  0
   17.0996  -18.2162   23.7351 N   0  0  0  0  0  0  0  0  0  0  0  0
   15.1551  -17.5213   22.6383 C   0  0  0  0  0  0  0  0  0  0  0  0
   14.1891  -16.4824   22.4390 C   0  0  0  0  0  0  0  0  0  0  0  0
   13.2232  -16.3676   23.5995 C   0  0  0  0  0  0  0  0  0  0  0  0
   12.1504  -15.3416   23.3719 C   0  0  2  0  0  0  0  0  0  0  0  0
   10.8481  -15.9171   22.9097 N   0  0  0  0  0  0  0  0  0  0  0  0
   10.3216  -15.1608   21.7643 C   0  0  0  0  0  0  0  0  0  0  0  0
    9.7876  -15.9179   23.9420 O   0  0  0  0  0  0  0  0  0  0  0  0
    9.7239  -16.9317   24.8881 O   0  0  0  0  0  0  0  0  0  0  0  0
  2  3  2  0
  2  1  1  0
  4  2  1  0
  5  4  1  0
  6  7  1  0
  6  5  1  0
  8 10  1  0
  8  7  1  0
  8  9  1  6
 10 11  2  0
 13 12  1  1
 13 14  1  0
 15 13  1  0
 16 10  1  0
 15 16  1  1
 17 15  1  0
 18 17  2  0
 19 20  1  0
 20 22  1  0
 21 20  2  0
 22 23  1  0
 23 24  1  0
 24 25  1  0
 26 25  1  6
 26 28  1  0
 26 27  1  0
 27 17  1  0
 28 29  1  0
 30 28  2  0
M  END
$$$$
