RTR.pdb
     RDKit          3D

 30 29  0  0  1  0  0  0  0  0999 V2000
    8.3495  -11.8210   21.0637 N   0  0  0  0  0  0  0  0  0  0  0  0
    8.6614  -12.5427   19.8757 C   0  0  0  0  0  0  0  0  0  0  0  0
    9.7157  -12.2174   19.2159 N   0  0  0  0  0  0  0  0  0  0  0  0
    7.8049  -13.6168   19.4286 N   0  0  0  0  0  0  0  0  0  0  0  0
    7.9717  -14.8886   20.0723 C   0  0  0  0  0  0  0  0  0  0  0  0
    7.0535  -15.9481   19.5912 C   0  0  0  0  0  0  0  0  0  0  0  0
    7.5556  -16.9202   18.6056 C   0  0  0  0  0  0  0  0  0  0  0  0
    7.5491  -18.3717   19.0239 C   0  0  2  0  0  0  0  0  0  0  0  0
    6.2600  -18.9536   19.0052 N   0  0  0  0  0  0  0  0  0  0  0  0
    8.3032  -18.4829   20.2966 C   0  0  0  0  0  0  0  0  0  0  0  0
    7.6684  -18.5204   21.4153 O   0  0  0  0  0  0  0  0  0  0  0  0
    9.9253  -12.7239   18.3350 C   0  0  0  0  0  0  0  0  0  0  0  0
   11.9304  -20.4219   20.6434 C   0  0  2  0  0  0  0  0  0  0  0  0
   11.7930  -19.2274   21.5577 O   0  0  0  0  0  0  0  0  0  0  0  0
   12.4816  -18.1748   20.9570 C   0  0  2  0  0  0  0  0  0  0  0  0
   10.3552  -18.7804   21.7077 N   0  0  0  0  0  0  0  0  0  0  0  0
    9.7124  -18.5543   20.4223 C   0  0  0  0  0  0  0  0  0  0  0  0
   10.3292  -17.5216   22.5328 O   0  0  0  0  0  0  0  0  0  0  0  0
    9.9374  -16.4524   22.0038 N   0  0  0  0  0  0  0  0  0  0  0  0
    4.9944  -12.4120   25.3477 C   0  0  0  0  0  0  0  0  0  0  0  0
    6.2494  -12.2235   25.9819 N   0  0  0  0  0  0  0  0  0  0  0  0
    6.6453  -11.0344   26.2354 N   0  0  0  0  0  0  0  0  0  0  0  0
    7.0589  -13.3336   26.3328 C   0  0  0  0  0  0  0  0  0  0  0  0
    7.5189  -14.2502   25.3327 C   0  0  0  0  0  0  0  0  0  0  0  0
    8.3295  -15.3843   25.9240 C   0  0  0  0  0  0  0  0  0  0  0  0
    8.8296  -16.3510   24.8893 C   0  0  1  0  0  0  0  0  0  0  0  0
   10.3214  -16.4620   24.8326 N   0  0  0  0  0  0  0  0  0  0  0  0
   10.7305  -17.5040   23.8798 C   0  0  0  0  0  0  0  0  0  0  0  0
   10.9516  -16.7999   26.1284 O   0  0  0  0  0  0  0  0  0  0  0  0
   11.7220  -17.9470   26.2611 O   0  0  0  0  0  0  0  0  0  0  0  0
  2  3  2  0
  2  1  1  0
  4  2  1  0
  5  4  1  0
  6  7  1  0
  6  5  1  0
  8 10  1  0
  8  7  1  0
  8  9  1  1
 10 11  2  0
 13 12  1  1
 13 14  1  0
 15 13  1  0
 16 10  1  0
 15 16  1  1
 17 15  1  0
 18 17  2  0
 19 20  1  0
 20 22  1  0
 21 20  2  0
 22 23  1  0
 23 24  1  0
 24 25  1  0
 26 25  1  6
 26 28  1  0
 26 27  1  0
 27 17  1  0
 28 29  1  0
 30 28  2  0
M  END
$$$$
