RTR.pdb
     RDKit          3D

 30 29  0  0  1  0  0  0  0  0999 V2000
   11.4471  -16.9270   11.9115 N   0  0  0  0  0  0  0  0  0  0  0  0
   12.7978  -16.8501   12.3578 C   0  0  0  0  0  0  0  0  0  0  0  0
   13.7120  -16.5481   11.5059 N   0  0  0  0  0  0  0  0  0  0  0  0
   13.1248  -17.1078   13.7412 N   0  0  0  0  0  0  0  0  0  0  0  0
   12.0255  -17.3430   14.6333 C   0  0  0  0  0  0  0  0  0  0  0  0
   11.4870  -16.1242   15.2828 C   0  0  0  0  0  0  0  0  0  0  0  0
   11.7663  -15.9065   16.7122 C   0  0  0  0  0  0  0  0  0  0  0  0
   10.9295  -16.6948   17.6921 C   0  0  2  0  0  0  0  0  0  0  0  0
    9.8957  -17.4371   17.0748 N   0  0  0  0  0  0  0  0  0  0  0  0
   10.5198  -15.7772   18.7833 C   0  0  0  0  0  0  0  0  0  0  0  0
   11.4125  -15.1139   19.4306 O   0  0  0  0  0  0  0  0  0  0  0  0
   14.6912  -16.4639   11.8383 C   0  0  0  0  0  0  0  0  0  0  0  0
    7.5824  -12.9805   19.1567 C   0  0  2  0  0  0  0  0  0  0  0  0
    7.5764  -14.0056   20.2661 O   0  0  0  0  0  0  0  0  0  0  0  0
    6.6209  -14.9630   19.9294 C   0  0  2  0  0  0  0  0  0  0  0  0
    8.8990  -14.7309   20.3860 N   0  0  0  0  0  0  0  0  0  0  0  0
    9.1909  -15.5403   19.2129 C   0  0  0  0  0  0  0  0  0  0  0  0
    8.8613  -15.5936   21.6191 O   0  0  0  0  0  0  0  0  0  0  0  0
    8.7797  -16.8399   21.4905 N   0  0  0  0  0  0  0  0  0  0  0  0
   10.4090  -12.8720   29.5164 C   0  0  0  0  0  0  0  0  0  0  0  0
   10.6042  -14.2757   29.5822 N   0  0  0  0  0  0  0  0  0  0  0  0
   11.5554  -14.7380   30.3009 N   0  0  0  0  0  0  0  0  0  0  0  0
    9.7600  -15.1599   28.8637 C   0  0  0  0  0  0  0  0  0  0  0  0
   10.1264  -15.6248   27.5592 C   0  0  0  0  0  0  0  0  0  0  0  0
    8.9280  -15.7703   26.6451 C   0  0  0  0  0  0  0  0  0  0  0  0
    9.0838  -15.0277   25.3491 C   0  0  1  0  0  0  0  0  0  0  0  0
    8.7802  -15.8518   24.1368 N   0  0  0  0  0  0  0  0  0  0  0  0
    8.9145  -15.0478   22.9134 C   0  0  0  0  0  0  0  0  0  0  0  0
    7.4154  -16.4239   24.1216 O   0  0  0  0  0  0  0  0  0  0  0  0
    7.1706  -17.6809   24.6572 O   0  0  0  0  0  0  0  0  0  0  0  0
  2  3  2  0
  2  1  1  0
  4  2  1  0
  5  4  1  0
  6  7  1  0
  6  5  1  0
  8 10  1  0
  8  7  1  0
  8  9  1  6
 10 11  2  0
 13 12  1  1
 13 14  1  0
 15 13  1  0
 16 10  1  0
 15 16  1  1
 17 15  1  0
 18 17  2  0
 19 20  1  0
 20 22  1  0
 21 20  2  0
 22 23  1  0
 23 24  1  0
 24 25  1  0
 26 25  1  6
 26 28  1  0
 26 27  1  0
 27 17  1  0
 28 29  1  0
 30 28  2  0
M  END
$$$$
