RTR.pdb
     RDKit          3D

 30 29  0  0  1  0  0  0  0  0999 V2000
    7.9462  -11.3515   19.7900 N   0  0  0  0  0  0  0  0  0  0  0  0
    8.7422  -12.1442   18.9140 C   0  0  0  0  0  0  0  0  0  0  0  0
   10.0208  -12.0181   18.9597 N   0  0  0  0  0  0  0  0  0  0  0  0
    8.1174  -13.0684   17.9962 N   0  0  0  0  0  0  0  0  0  0  0  0
    8.9909  -13.9197   17.2398 C   0  0  0  0  0  0  0  0  0  0  0  0
    8.7359  -15.3702   17.4083 C   0  0  0  0  0  0  0  0  0  0  0  0
    9.3274  -16.0587   18.5678 C   0  0  0  0  0  0  0  0  0  0  0  0
    9.2249  -17.5657   18.5837 C   0  0  2  0  0  0  0  0  0  0  0  0
    8.1690  -18.0632   17.7847 N   0  0  0  0  0  0  0  0  0  0  0  0
    9.2446  -18.0092   19.9992 C   0  0  0  0  0  0  0  0  0  0  0  0
    8.1871  -17.8884   20.7225 O   0  0  0  0  0  0  0  0  0  0  0  0
   10.5974  -12.5677   18.2949 C   0  0  0  0  0  0  0  0  0  0  0  0
   10.7955  -21.3690   21.4667 C   0  0  2  0  0  0  0  0  0  0  0  0
   11.1301  -20.1980   22.3601 O   0  0  0  0  0  0  0  0  0  0  0  0
   12.4458  -19.8344   22.0776 C   0  0  2  0  0  0  0  0  0  0  0  0
   10.2698  -18.9878   22.0685 N   0  0  0  0  0  0  0  0  0  0  0  0
   10.3524  -18.5769   20.6753 C   0  0  0  0  0  0  0  0  0  0  0  0
   10.7037  -17.8638   22.9708 O   0  0  0  0  0  0  0  0  0  0  0  0
   11.0346  -16.7647   22.4617 N   0  0  0  0  0  0  0  0  0  0  0  0
    4.7780  -13.1591   25.5739 C   0  0  0  0  0  0  0  0  0  0  0  0
    5.9645  -12.6209   26.1355 N   0  0  0  0  0  0  0  0  0  0  0  0
    6.0156  -11.3709   26.3998 N   0  0  0  0  0  0  0  0  0  0  0  0
    7.0821  -13.4517   26.4030 C   0  0  0  0  0  0  0  0  0  0  0  0
    7.5010  -14.4431   25.4575 C   0  0  0  0  0  0  0  0  0  0  0  0
    8.6213  -15.3093   25.9938 C   0  0  0  0  0  0  0  0  0  0  0  0
    9.0621  -16.3673   25.0235 C   0  0  1  0  0  0  0  0  0  0  0  0
   10.4259  -16.9175   25.3031 N   0  0  0  0  0  0  0  0  0  0  0  0
   10.7508  -18.0048   24.3686 C   0  0  0  0  0  0  0  0  0  0  0  0
   10.5874  -17.4675   26.6675 O   0  0  0  0  0  0  0  0  0  0  0  0
   11.1571  -16.7011   27.6750 O   0  0  0  0  0  0  0  0  0  0  0  0
  2  3  2  0
  2  1  1  0
  4  2  1  0
  5  4  1  0
  6  7  1  0
  6  5  1  0
  8 10  1  0
  8  7  1  0
  8  9  1  1
 10 11  2  0
 13 12  1  1
 13 14  1  0
 15 13  1  0
 16 10  1  0
 15 16  1  1
 17 15  1  0
 18 17  2  0
 19 20  1  0
 20 22  1  0
 21 20  2  0
 22 23  1  0
 23 24  1  0
 24 25  1  0
 26 25  1  6
 26 28  1  0
 26 27  1  0
 27 17  1  0
 28 29  1  0
 30 28  2  0
M  END
$$$$
