RTR.pdb
     RDKit          3D

 30 29  0  0  1  0  0  0  0  0999 V2000
   20.6731  -12.9352   11.1295 N   0  0  0  0  0  0  0  0  0  0  0  0
   19.5008  -12.1490   10.9369 C   0  0  0  0  0  0  0  0  0  0  0  0
   19.0590  -11.9842    9.7409 N   0  0  0  0  0  0  0  0  0  0  0  0
   18.8284  -11.5527   12.0680 N   0  0  0  0  0  0  0  0  0  0  0  0
   18.5492  -12.4129   13.1823 C   0  0  0  0  0  0  0  0  0  0  0  0
   17.6834  -13.5731   12.8637 C   0  0  0  0  0  0  0  0  0  0  0  0
   17.2797  -14.4716   13.9583 C   0  0  0  0  0  0  0  0  0  0  0  0
   16.4732  -15.6888   13.5712 C   0  0  2  0  0  0  0  0  0  0  0  0
   15.4067  -15.3961   12.6893 N   0  0  0  0  0  0  0  0  0  0  0  0
   16.1184  -16.4153   14.8150 C   0  0  0  0  0  0  0  0  0  0  0  0
   15.0392  -16.1127   15.4472 O   0  0  0  0  0  0  0  0  0  0  0  0
   18.1512  -11.4992    9.6101 C   0  0  0  0  0  0  0  0  0  0  0  0
   15.6892  -20.2093   15.2021 C   0  0  2  0  0  0  0  0  0  0  0  0
   16.5125  -19.6996   16.3613 O   0  0  0  0  0  0  0  0  0  0  0  0
   17.8490  -19.9413   16.0477 C   0  0  2  0  0  0  0  0  0  0  0  0
   16.3718  -18.2052   16.5535 N   0  0  0  0  0  0  0  0  0  0  0  0
   16.8733  -17.4543   15.4129 C   0  0  0  0  0  0  0  0  0  0  0  0
   17.1122  -17.8120   17.8037 O   0  0  0  0  0  0  0  0  0  0  0  0
   18.2435  -17.2770   17.7010 N   0  0  0  0  0  0  0  0  0  0  0  0
   12.8151  -16.9604   25.0196 C   0  0  0  0  0  0  0  0  0  0  0  0
   12.7003  -17.5076   23.7157 N   0  0  0  0  0  0  0  0  0  0  0  0
   11.6552  -18.1792   23.4132 N   0  0  0  0  0  0  0  0  0  0  0  0
   13.7265  -17.3163   22.7558 C   0  0  0  0  0  0  0  0  0  0  0  0
   14.8418  -16.4621   23.0359 C   0  0  0  0  0  0  0  0  0  0  0  0
   15.8183  -16.3970   21.8804 C   0  0  0  0  0  0  0  0  0  0  0  0
   16.3719  -17.7407   21.5024 C   0  0  2  0  0  0  0  0  0  0  0  0
   17.2982  -17.7070   20.3269 N   0  0  0  0  0  0  0  0  0  0  0  0
   16.5770  -18.0248   19.0860 C   0  0  0  0  0  0  0  0  0  0  0  0
   18.4261  -18.6607   20.4190 O   0  0  0  0  0  0  0  0  0  0  0  0
   19.7142  -18.2089   20.6711 O   0  0  0  0  0  0  0  0  0  0  0  0
  2  3  2  0
  2  1  1  0
  4  2  1  0
  5  4  1  0
  6  7  1  0
  6  5  1  0
  8 10  1  0
  8  7  1  0
  8  9  1  1
 10 11  2  0
 13 12  1  1
 13 14  1  0
 15 13  1  0
 16 10  1  0
 15 16  1  1
 17 15  1  0
 18 17  2  0
 19 20  1  0
 20 22  1  0
 21 20  2  0
 22 23  1  0
 23 24  1  0
 24 25  1  0
 26 25  1  6
 26 28  1  0
 26 27  1  0
 27 17  1  0
 28 29  1  0
 30 28  2  0
M  END
$$$$
