MIC.pdb
     RDKit          3D

 23 22  0  0  1  0  0  0  0  0999 V2000
   15.4033  -11.6102  -19.4583 C   0  0  0  0  0  0  0  0  0  0  0  0
   15.9621  -13.3053  -19.4927 S   0  0  0  0  0  0  0  0  0  0  0  0
   17.4209  -13.7030  -18.5809 C   0  0  0  0  0  0  0  0  0  0  0  0
   17.8782  -12.8253  -17.4945 C   0  0  0  0  0  0  0  0  0  0  0  0
   19.1091  -13.2141  -16.7684 C   0  0  2  0  0  0  0  0  0  0  0  0
   19.0686  -14.5072  -16.1501 N   0  0  0  0  0  0  0  0  0  0  0  0
   19.5090  -12.1593  -15.7755 C   0  0  0  0  0  0  0  0  0  0  0  0
   19.0552  -12.1497  -14.6076 O   0  0  0  0  0  0  0  0  0  0  0  0
   24.4234  -11.2239  -14.5557 C   0  0  0  0  0  0  0  0  0  0  0  0
   22.9254  -11.2312  -14.5767 C   0  0  0  0  0  0  0  0  0  0  0  0
   22.2860   -9.9989  -15.1322 C   0  0  2  0  0  0  0  0  0  0  0  0
   22.7651   -8.8287  -14.3008 C   0  0  0  0  0  0  0  0  0  0  0  0
   20.7955  -10.0990  -15.1806 C   0  0  2  0  0  0  0  0  0  0  0  0
   20.4044  -11.1531  -16.1356 N   0  0  0  0  0  0  0  0  0  0  0  0
   20.0868   -8.8947  -15.6656 C   0  0  0  0  0  0  0  0  0  0  0  0
   20.1578   -8.5760  -16.9140 O   0  0  0  0  0  0  0  0  0  0  0  0
   19.2981   -8.0036  -14.9051 N   0  0  0  0  0  0  0  0  0  0  0  0
   18.7475   -6.7723  -15.4476 C   0  0  1  0  0  0  0  0  0  0  0  0
   17.3796   -6.5556  -14.7848 C   0  0  0  0  0  0  0  0  0  0  0  0
   16.7286   -4.9090  -15.1619 S   0  0  0  0  0  0  0  0  0  0  0  0
   19.5576   -5.5934  -15.1418 C   0  0  0  0  0  0  0  0  0  0  0  0
   19.7589   -4.6219  -16.0941 O   0  0  0  0  0  0  0  0  0  0  0  0
   20.0722   -5.4581  -14.0174 O   0  0  0  0  0  0  0  0  0  0  0  0
  2  1  1  0
  3  2  1  0
  4  3  1  0
  5  4  1  0
  5  6  1  1
  7 14  1  0
  7  5  1  0
  8  7  2  0
  9 10  1  0
 11 13  1  0
 11 10  1  0
 11 12  1  1
 13 14  1  6
 15 13  1  0
 16 15  2  0
 17 15  1  0
 18 21  1  0
 18 17  1  0
 18 19  1  1
 20 19  1  0
 21 22  1  0
 23 21  2  0
M  END
$$$$
