MIC.pdb
     RDKit          3D

 23 22  0  0  1  0  0  0  0  0999 V2000
   17.8374  -27.7719    2.4647 C   0  0  0  0  0  0  0  0  0  0  0  0
   17.7797  -26.3669    1.3649 S   0  0  0  0  0  0  0  0  0  0  0  0
   18.5068  -26.5507   -0.2336 C   0  0  0  0  0  0  0  0  0  0  0  0
   19.2284  -27.7826   -0.5824 C   0  0  0  0  0  0  0  0  0  0  0  0
   19.8238  -27.8709   -1.9356 C   0  0  2  0  0  0  0  0  0  0  0  0
   18.9042  -27.6804   -3.0191 N   0  0  0  0  0  0  0  0  0  0  0  0
   20.5937  -29.1502   -2.1068 C   0  0  0  0  0  0  0  0  0  0  0  0
   20.1193  -30.1237   -2.7370 O   0  0  0  0  0  0  0  0  0  0  0  0
   25.3631  -31.6839   -3.7632 C   0  0  0  0  0  0  0  0  0  0  0  0
   25.0103  -31.1800   -2.3972 C   0  0  0  0  0  0  0  0  0  0  0  0
   24.0232  -30.0572   -2.3630 C   0  0  2  0  0  0  0  0  0  0  0  0
   24.6448  -28.9349   -1.5605 C   0  0  0  0  0  0  0  0  0  0  0  0
   22.6932  -30.4798   -1.8278 C   0  0  2  0  0  0  0  0  0  0  0  0
   21.8691  -29.2859   -1.5603 N   0  0  0  0  0  0  0  0  0  0  0  0
   22.7202  -31.1944   -0.5330 C   0  0  0  0  0  0  0  0  0  0  0  0
   22.7866  -30.5184    0.5640 O   0  0  0  0  0  0  0  0  0  0  0  0
   22.6759  -32.5909   -0.3273 N   0  0  0  0  0  0  0  0  0  0  0  0
   22.6902  -33.1980    0.9937 C   0  0  1  0  0  0  0  0  0  0  0  0
   21.7423  -34.4051    0.9492 C   0  0  0  0  0  0  0  0  0  0  0  0
   20.0120  -33.8729    0.9574 S   0  0  0  0  0  0  0  0  0  0  0  0
   24.0057  -33.7068    1.3811 C   0  0  0  0  0  0  0  0  0  0  0  0
   24.3992  -33.6851    2.6987 O   0  0  0  0  0  0  0  0  0  0  0  0
   24.7812  -34.1642    0.5227 O   0  0  0  0  0  0  0  0  0  0  0  0
  2  1  1  0
  3  2  1  0
  4  3  1  0
  5  4  1  0
  5  6  1  6
  7 14  1  0
  7  5  1  0
  8  7  2  0
  9 10  1  0
 11 13  1  0
 11 10  1  0
 11 12  1  1
 13 14  1  1
 15 13  1  0
 16 15  2  0
 17 15  1  0
 18 21  1  0
 18 17  1  0
 18 19  1  6
 20 19  1  0
 21 22  1  0
 23 21  2  0
M  END
$$$$
