MIC.pdb
     RDKit          3D

 23 22  0  0  1  0  0  0  0  0999 V2000
   31.1389   -2.0104  -15.7165 C   0  0  0  0  0  0  0  0  0  0  0  0
   31.8862   -2.1316  -14.0998 S   0  0  0  0  0  0  0  0  0  0  0  0
   33.4350   -2.9705  -13.9769 C   0  0  0  0  0  0  0  0  0  0  0  0
   33.7261   -4.1201  -14.8449 C   0  0  0  0  0  0  0  0  0  0  0  0
   35.0184   -4.8176  -14.6519 C   0  0  2  0  0  0  0  0  0  0  0  0
   36.1835   -4.0000  -14.8256 N   0  0  0  0  0  0  0  0  0  0  0  0
   35.1004   -6.0529  -15.5038 C   0  0  0  0  0  0  0  0  0  0  0  0
   35.7656   -6.0765  -16.5653 O   0  0  0  0  0  0  0  0  0  0  0  0
   36.8555  -10.3700  -13.5075 C   0  0  0  0  0  0  0  0  0  0  0  0
   36.3871   -9.3618  -14.5118 C   0  0  0  0  0  0  0  0  0  0  0  0
   35.0000   -9.5700  -15.0304 C   0  0  2  0  0  0  0  0  0  0  0  0
   34.9751  -10.9150  -15.7234 C   0  0  0  0  0  0  0  0  0  0  0  0
   34.5473   -8.4561  -15.9183 C   0  0  2  0  0  0  0  0  0  0  0  0
   34.4285   -7.2156  -15.1291 N   0  0  0  0  0  0  0  0  0  0  0  0
   33.2094   -8.6237  -16.5266 C   0  0  0  0  0  0  0  0  0  0  0  0
   32.1562   -8.4000  -15.8155 O   0  0  0  0  0  0  0  0  0  0  0  0
   32.9167   -9.0119  -17.8525 N   0  0  0  0  0  0  0  0  0  0  0  0
   31.5715   -9.3216  -18.3087 C   0  0  1  0  0  0  0  0  0  0  0  0
   31.1616   -8.2193  -19.2960 C   0  0  0  0  0  0  0  0  0  0  0  0
   29.5448   -8.5728  -20.0296 S   0  0  0  0  0  0  0  0  0  0  0  0
   31.4845  -10.5905  -19.0309 C   0  0  0  0  0  0  0  0  0  0  0  0
   30.2789  -11.2416  -19.1500 O   0  0  0  0  0  0  0  0  0  0  0  0
   32.4999  -11.0930  -19.5445 O   0  0  0  0  0  0  0  0  0  0  0  0
  2  1  1  0
  3  2  1  0
  4  3  1  0
  5  4  1  0
  5  6  1  6
  7 14  1  0
  7  5  1  0
  8  7  2  0
  9 10  1  0
 11 13  1  0
 11 10  1  0
 11 12  1  6
 13 14  1  1
 15 13  1  0
 16 15  2  0
 17 15  1  0
 18 21  1  0
 18 17  1  0
 18 19  1  6
 20 19  1  0
 21 22  1  0
 23 21  2  0
M  END
$$$$
