MIC.pdb
     RDKit          3D

 23 22  0  0  1  0  0  0  0  0999 V2000
   18.3605   -9.4319  -20.2743 C   0  0  0  0  0  0  0  0  0  0  0  0
   19.3714  -10.1621  -21.5517 S   0  0  0  0  0  0  0  0  0  0  0  0
   20.7111  -11.1937  -21.0431 C   0  0  0  0  0  0  0  0  0  0  0  0
   21.2540  -11.0860  -19.6817 C   0  0  0  0  0  0  0  0  0  0  0  0
   22.3828  -11.9737  -19.3194 C   0  0  2  0  0  0  0  0  0  0  0  0
   22.1515  -13.3722  -19.5359 N   0  0  0  0  0  0  0  0  0  0  0  0
   22.8421  -11.7197  -17.9112 C   0  0  0  0  0  0  0  0  0  0  0  0
   22.4125  -12.3954  -16.9475 O   0  0  0  0  0  0  0  0  0  0  0  0
   27.8177  -11.5271  -16.4394 C   0  0  0  0  0  0  0  0  0  0  0  0
   26.3210  -11.5618  -16.4954 C   0  0  0  0  0  0  0  0  0  0  0  0
   25.6368  -10.2751  -16.1596 C   0  0  2  0  0  0  0  0  0  0  0  0
   26.1053   -9.8620  -14.7813 C   0  0  0  0  0  0  0  0  0  0  0  0
   24.1487  -10.3755  -16.2560 C   0  0  2  0  0  0  0  0  0  0  0  0
   23.7674  -10.7125  -17.6406 N   0  0  0  0  0  0  0  0  0  0  0  0
   23.4018   -9.1310  -15.9711 C   0  0  0  0  0  0  0  0  0  0  0  0
   23.3966   -8.6541  -14.7722 O   0  0  0  0  0  0  0  0  0  0  0  0
   22.6587   -8.3526  -16.8856 N   0  0  0  0  0  0  0  0  0  0  0  0
   21.8900   -7.1839  -16.4897 C   0  0  1  0  0  0  0  0  0  0  0  0
   21.8374   -6.2427  -17.7018 C   0  0  0  0  0  0  0  0  0  0  0  0
   20.7262   -4.8473  -17.3930 S   0  0  0  0  0  0  0  0  0  0  0  0
   20.5055   -7.4960  -16.1357 C   0  0  0  0  0  0  0  0  0  0  0  0
   19.8261   -6.7146  -15.2307 O   0  0  0  0  0  0  0  0  0  0  0  0
   19.9292   -8.4711  -16.6500 O   0  0  0  0  0  0  0  0  0  0  0  0
  2  1  1  0
  3  2  1  0
  4  3  1  0
  5  4  1  0
  5  6  1  1
  7 14  1  0
  7  5  1  0
  8  7  2  0
  9 10  1  0
 11 13  1  0
 11 10  1  0
 11 12  1  1
 13 14  1  6
 15 13  1  0
 16 15  2  0
 17 15  1  0
 18 21  1  0
 18 17  1  0
 18 19  1  6
 20 19  1  0
 21 22  1  0
 23 21  2  0
M  END
$$$$
