MIC.pdb
     RDKit          3D

 23 22  0  0  1  0  0  0  0  0999 V2000
   26.3405  -18.7308   -7.7913 C   0  0  0  0  0  0  0  0  0  0  0  0
   26.5399  -20.5048   -7.7962 S   0  0  0  0  0  0  0  0  0  0  0  0
   26.4407  -21.3334   -9.3521 C   0  0  0  0  0  0  0  0  0  0  0  0
   25.8578  -20.6542  -10.5177 C   0  0  0  0  0  0  0  0  0  0  0  0
   25.7974  -21.4059  -11.7925 C   0  0  2  0  0  0  0  0  0  0  0  0
   27.0573  -21.8961  -12.2705 N   0  0  0  0  0  0  0  0  0  0  0  0
   25.0939  -20.6122  -12.8572 C   0  0  0  0  0  0  0  0  0  0  0  0
   25.7117  -19.8103  -13.5957 O   0  0  0  0  0  0  0  0  0  0  0  0
   21.8412  -21.8205  -17.5007 C   0  0  0  0  0  0  0  0  0  0  0  0
   22.0142  -20.8149  -16.4037 C   0  0  0  0  0  0  0  0  0  0  0  0
   22.9083  -21.2373  -15.2819 C   0  0  2  0  0  0  0  0  0  0  0  0
   22.3567  -22.5337  -14.7296 C   0  0  0  0  0  0  0  0  0  0  0  0
   23.0523  -20.1802  -14.2351 C   0  0  2  0  0  0  0  0  0  0  0  0
   23.7200  -20.7501  -13.0496 N   0  0  0  0  0  0  0  0  0  0  0  0
   21.7876  -19.6273  -13.7033 C   0  0  0  0  0  0  0  0  0  0  0  0
   21.1096  -20.3081  -12.8421 O   0  0  0  0  0  0  0  0  0  0  0  0
   21.1953  -18.3867  -14.0264 N   0  0  0  0  0  0  0  0  0  0  0  0
   19.9429  -17.9313  -13.4452 C   0  0  1  0  0  0  0  0  0  0  0  0
   20.0573  -16.4123  -13.2525 C   0  0  0  0  0  0  0  0  0  0  0  0
   18.5788  -15.7465  -12.4475 S   0  0  0  0  0  0  0  0  0  0  0  0
   18.7868  -18.1623  -14.3110 C   0  0  0  0  0  0  0  0  0  0  0  0
   17.5873  -18.5693  -13.7753 O   0  0  0  0  0  0  0  0  0  0  0  0
   18.8773  -17.9927  -15.5400 O   0  0  0  0  0  0  0  0  0  0  0  0
  2  1  1  0
  3  2  1  0
  4  3  1  0
  5  4  1  0
  5  6  1  6
  7 14  1  0
  7  5  1  0
  8  7  2  0
  9 10  1  0
 11 13  1  0
 11 10  1  0
 11 12  1  1
 13 14  1  1
 15 13  1  0
 16 15  2  0
 17 15  1  0
 18 21  1  0
 18 17  1  0
 18 19  1  6
 20 19  1  0
 21 22  1  0
 23 21  2  0
M  END
$$$$
