MIC.pdb
     RDKit          3D

 23 22  0  0  1  0  0  0  0  0999 V2000
   28.5742   -8.8137  -17.7098 C   0  0  0  0  0  0  0  0  0  0  0  0
   28.7630  -10.5361  -17.2803 S   0  0  0  0  0  0  0  0  0  0  0  0
   27.3770  -11.3531  -16.5529 C   0  0  0  0  0  0  0  0  0  0  0  0
   26.0091  -10.9357  -16.8914 C   0  0  0  0  0  0  0  0  0  0  0  0
   24.8895  -11.6863  -16.2777 C   0  0  2  0  0  0  0  0  0  0  0  0
   24.8615  -13.0888  -16.5745 N   0  0  0  0  0  0  0  0  0  0  0  0
   23.5679  -11.0459  -16.5972 C   0  0  0  0  0  0  0  0  0  0  0  0
   22.9317  -11.3346  -17.6373 O   0  0  0  0  0  0  0  0  0  0  0  0
   18.3506   -9.9302  -15.7780 C   0  0  0  0  0  0  0  0  0  0  0  0
   19.4224   -9.2258  -15.0038 C   0  0  0  0  0  0  0  0  0  0  0  0
   20.7325   -9.9426  -14.9246 C   0  0  2  0  0  0  0  0  0  0  0  0
   21.2825   -9.7235  -13.5319 C   0  0  0  0  0  0  0  0  0  0  0  0
   21.6850   -9.5148  -15.9939 C   0  0  2  0  0  0  0  0  0  0  0  0
   23.0127  -10.1028  -15.7336 N   0  0  0  0  0  0  0  0  0  0  0  0
   21.9464   -8.0613  -16.0766 C   0  0  0  0  0  0  0  0  0  0  0  0
   22.7572   -7.5132  -15.2356 O   0  0  0  0  0  0  0  0  0  0  0  0
   21.4016   -7.1470  -17.0048 N   0  0  0  0  0  0  0  0  0  0  0  0
   21.6905   -5.7225  -16.9767 C   0  0  1  0  0  0  0  0  0  0  0  0
   22.2085   -5.3364  -18.3696 C   0  0  0  0  0  0  0  0  0  0  0  0
   21.1219   -5.9780  -19.6676 S   0  0  0  0  0  0  0  0  0  0  0  0
   20.5092   -4.8986  -16.7211 C   0  0  0  0  0  0  0  0  0  0  0  0
   20.6338   -3.5405  -16.5441 O   0  0  0  0  0  0  0  0  0  0  0  0
   19.3806   -5.4183  -16.6614 O   0  0  0  0  0  0  0  0  0  0  0  0
  2  1  1  0
  3  2  1  0
  4  3  1  0
  5  4  1  0
  5  6  1  6
  7 14  1  0
  7  5  1  0
  8  7  2  0
  9 10  1  0
 11 13  1  0
 11 10  1  0
 11 12  1  1
 13 14  1  1
 15 13  1  0
 16 15  2  0
 17 15  1  0
 18 21  1  0
 18 17  1  0
 18 19  1  6
 20 19  1  0
 21 22  1  0
 23 21  2  0
M  END
$$$$
