MIC.pdb
     RDKit          3D

 23 22  0  0  1  0  0  0  0  0999 V2000
   27.3424  -19.3136   -6.7194 C   0  0  0  0  0  0  0  0  0  0  0  0
   27.5662  -21.0392   -7.1184 S   0  0  0  0  0  0  0  0  0  0  0  0
   27.5301  -21.4944   -8.8240 C   0  0  0  0  0  0  0  0  0  0  0  0
   26.4559  -21.0048   -9.6992 C   0  0  0  0  0  0  0  0  0  0  0  0
   26.5043  -21.3898  -11.1285 C   0  0  2  0  0  0  0  0  0  0  0  0
   27.7781  -21.2156  -11.7633 N   0  0  0  0  0  0  0  0  0  0  0  0
   25.4190  -20.7058  -11.9114 C   0  0  0  0  0  0  0  0  0  0  0  0
   25.2945  -19.4590  -11.9116 O   0  0  0  0  0  0  0  0  0  0  0  0
   25.3913  -20.1810  -16.7228 C   0  0  0  0  0  0  0  0  0  0  0  0
   24.9752  -20.0843  -15.2869 C   0  0  0  0  0  0  0  0  0  0  0  0
   23.7810  -20.9012  -14.9090 C   0  0  2  0  0  0  0  0  0  0  0  0
   22.6364  -20.4638  -15.7971 C   0  0  0  0  0  0  0  0  0  0  0  0
   23.4533  -20.7977  -13.4544 C   0  0  2  0  0  0  0  0  0  0  0  0
   24.5131  -21.4520  -12.6640 N   0  0  0  0  0  0  0  0  0  0  0  0
   22.2130  -21.4806  -13.0259 C   0  0  0  0  0  0  0  0  0  0  0  0
   22.1739  -22.7701  -13.0027 O   0  0  0  0  0  0  0  0  0  0  0  0
   21.0049  -20.8771  -12.6131 N   0  0  0  0  0  0  0  0  0  0  0  0
   19.7921  -21.6333  -12.3466 C   0  0  1  0  0  0  0  0  0  0  0  0
   18.9475  -20.8067  -11.3663 C   0  0  0  0  0  0  0  0  0  0  0  0
   17.3814  -21.6368  -10.9982 S   0  0  0  0  0  0  0  0  0  0  0  0
   18.9707  -21.8459  -13.5381 C   0  0  0  0  0  0  0  0  0  0  0  0
   18.7549  -20.8184  -14.4263 O   0  0  0  0  0  0  0  0  0  0  0  0
   18.4595  -22.9581  -13.7596 O   0  0  0  0  0  0  0  0  0  0  0  0
  2  1  1  0
  3  2  1  0
  4  3  1  0
  5  4  1  0
  5  6  1  6
  7 14  1  0
  7  5  1  0
  8  7  2  0
  9 10  1  0
 11 13  1  0
 11 10  1  0
 11 12  1  6
 13 14  1  1
 15 13  1  0
 16 15  2  0
 17 15  1  0
 18 21  1  0
 18 17  1  0
 18 19  1  1
 20 19  1  0
 21 22  1  0
 23 21  2  0
M  END
$$$$
