MIC.pdb
     RDKit          3D

 23 22  0  0  1  0  0  0  0  0999 V2000
   22.4435  -17.1417  -18.2775 C   0  0  0  0  0  0  0  0  0  0  0  0
   24.2066  -17.0911  -18.5524 S   0  0  0  0  0  0  0  0  0  0  0  0
   25.1094  -18.5938  -18.3419 C   0  0  0  0  0  0  0  0  0  0  0  0
   24.6660  -19.5935  -17.3601 C   0  0  0  0  0  0  0  0  0  0  0  0
   25.4192  -19.6896  -16.0885 C   0  0  2  0  0  0  0  0  0  0  0  0
   26.7941  -20.0737  -16.2227 N   0  0  0  0  0  0  0  0  0  0  0  0
   24.7101  -20.5765  -15.1040 C   0  0  0  0  0  0  0  0  0  0  0  0
   24.3008  -21.7170  -15.4225 O   0  0  0  0  0  0  0  0  0  0  0  0
   26.4761  -20.8526  -10.0151 C   0  0  0  0  0  0  0  0  0  0  0  0
   25.8075  -21.2074  -11.3079 C   0  0  0  0  0  0  0  0  0  0  0  0
   24.3941  -20.7395  -11.4483 C   0  0  2  0  0  0  0  0  0  0  0  0
   23.5926  -21.3876  -10.3404 C   0  0  0  0  0  0  0  0  0  0  0  0
   23.8310  -21.0170  -12.8047 C   0  0  2  0  0  0  0  0  0  0  0  0
   24.4870  -20.1448  -13.7972 N   0  0  0  0  0  0  0  0  0  0  0  0
   22.3896  -20.7299  -12.9721 C   0  0  0  0  0  0  0  0  0  0  0  0
   21.9719  -19.5115  -12.8954 O   0  0  0  0  0  0  0  0  0  0  0  0
   21.3570  -21.6602  -13.2223 N   0  0  0  0  0  0  0  0  0  0  0  0
   19.9579  -21.2806  -13.3314 C   0  0  1  0  0  0  0  0  0  0  0  0
   19.4524  -21.7936  -14.6875 C   0  0  0  0  0  0  0  0  0  0  0  0
   20.2208  -20.8865  -16.0527 S   0  0  0  0  0  0  0  0  0  0  0  0
   19.1122  -21.8911  -12.3059 C   0  0  0  0  0  0  0  0  0  0  0  0
   17.8257  -21.4461  -12.1102 O   0  0  0  0  0  0  0  0  0  0  0  0
   19.5483  -22.8186  -11.6011 O   0  0  0  0  0  0  0  0  0  0  0  0
  2  1  1  0
  3  2  1  0
  4  3  1  0
  5  4  1  0
  5  6  1  6
  7 14  1  0
  7  5  1  0
  8  7  2  0
  9 10  1  0
 11 13  1  0
 11 10  1  0
 11 12  1  1
 13 14  1  6
 15 13  1  0
 16 15  2  0
 17 15  1  0
 18 21  1  0
 18 17  1  0
 18 19  1  6
 20 19  1  0
 21 22  1  0
 23 21  2  0
M  END
$$$$
