MIC.pdb
     RDKit          3D

 23 22  0  0  1  0  0  0  0  0999 V2000
   27.1643  -16.0676  -14.8109 C   0  0  0  0  0  0  0  0  0  0  0  0
   28.3706  -17.1370  -15.5779 S   0  0  0  0  0  0  0  0  0  0  0  0
   27.7692  -18.4505  -16.5931 C   0  0  0  0  0  0  0  0  0  0  0  0
   26.8988  -19.4886  -16.0234 C   0  0  0  0  0  0  0  0  0  0  0  0
   27.4950  -20.4228  -15.0409 C   0  0  2  0  0  0  0  0  0  0  0  0
   28.3627  -21.4195  -15.5973 N   0  0  0  0  0  0  0  0  0  0  0  0
   26.4361  -21.0551  -14.1822 C   0  0  0  0  0  0  0  0  0  0  0  0
   25.8998  -22.1436  -14.4943 O   0  0  0  0  0  0  0  0  0  0  0  0
   26.6463  -20.6553   -8.7246 C   0  0  0  0  0  0  0  0  0  0  0  0
   26.3580  -21.1436  -10.1113 C   0  0  0  0  0  0  0  0  0  0  0  0
   25.1334  -20.5713  -10.7510 C   0  0  2  0  0  0  0  0  0  0  0  0
   23.9553  -20.9332   -9.8729 C   0  0  0  0  0  0  0  0  0  0  0  0
   24.9596  -21.0261  -12.1641 C   0  0  2  0  0  0  0  0  0  0  0  0
   26.0195  -20.4369  -13.0041 N   0  0  0  0  0  0  0  0  0  0  0  0
   23.7040  -20.6058  -12.8236 C   0  0  0  0  0  0  0  0  0  0  0  0
   23.4947  -19.3529  -13.0505 O   0  0  0  0  0  0  0  0  0  0  0  0
   22.6514  -21.4374  -13.2650 N   0  0  0  0  0  0  0  0  0  0  0  0
   21.4534  -20.9244  -13.9095 C   0  0  1  0  0  0  0  0  0  0  0  0
   21.1349  -21.8584  -15.0858 C   0  0  0  0  0  0  0  0  0  0  0  0
   21.4359  -23.5875  -14.6423 S   0  0  0  0  0  0  0  0  0  0  0  0
   20.2805  -20.9291  -13.0355 C   0  0  0  0  0  0  0  0  0  0  0  0
   19.1096  -20.3319  -13.4400 O   0  0  0  0  0  0  0  0  0  0  0  0
   20.3307  -21.4735  -11.9182 O   0  0  0  0  0  0  0  0  0  0  0  0
  2  1  1  0
  3  2  1  0
  4  3  1  0
  5  4  1  0
  5  6  1  6
  7 14  1  0
  7  5  1  0
  8  7  2  0
  9 10  1  0
 11 13  1  0
 11 10  1  0
 11 12  1  1
 13 14  1  6
 15 13  1  0
 16 15  2  0
 17 15  1  0
 18 21  1  0
 18 17  1  0
 18 19  1  6
 20 19  1  0
 21 22  1  0
 23 21  2  0
M  END
$$$$
