MIC.pdb
     RDKit          3D

 23 22  0  0  1  0  0  0  0  0999 V2000
   20.2750  -18.0020  -15.9618 C   0  0  0  0  0  0  0  0  0  0  0  0
   19.0369  -17.5351  -17.1601 S   0  0  0  0  0  0  0  0  0  0  0  0
   18.4730  -15.8620  -17.1422 C   0  0  0  0  0  0  0  0  0  0  0  0
   19.4388  -14.7542  -17.1463 C   0  0  0  0  0  0  0  0  0  0  0  0
   18.9131  -13.3830  -16.9538 C   0  0  2  0  0  0  0  0  0  0  0  0
   17.9670  -12.9496  -17.9402 N   0  0  0  0  0  0  0  0  0  0  0  0
   20.0310  -12.3886  -16.8122 C   0  0  0  0  0  0  0  0  0  0  0  0
   20.9750  -12.5705  -16.0086 O   0  0  0  0  0  0  0  0  0  0  0  0
   21.9542  -11.3392  -20.7664 C   0  0  0  0  0  0  0  0  0  0  0  0
   22.4226  -10.9211  -19.4062 C   0  0  0  0  0  0  0  0  0  0  0  0
   21.6315   -9.8266  -18.7640 C   0  0  2  0  0  0  0  0  0  0  0  0
   22.5173   -8.6008  -18.7125 C   0  0  0  0  0  0  0  0  0  0  0  0
   21.1047  -10.2134  -17.4198 C   0  0  2  0  0  0  0  0  0  0  0  0
   20.0433  -11.2252  -17.5803 N   0  0  0  0  0  0  0  0  0  0  0  0
   20.4548   -9.1308  -16.6494 C   0  0  0  0  0  0  0  0  0  0  0  0
   19.3083   -8.6792  -17.0323 O   0  0  0  0  0  0  0  0  0  0  0  0
   20.9460   -8.4960  -15.4875 N   0  0  0  0  0  0  0  0  0  0  0  0
   20.2567   -7.3949  -14.8347 C   0  0  1  0  0  0  0  0  0  0  0  0
   20.5900   -7.4737  -13.3380 C   0  0  0  0  0  0  0  0  0  0  0  0
   19.9733   -9.0148  -12.6154 S   0  0  0  0  0  0  0  0  0  0  0  0
   20.6996   -6.0803  -15.2984 C   0  0  0  0  0  0  0  0  0  0  0  0
   19.9763   -4.9529  -14.9865 O   0  0  0  0  0  0  0  0  0  0  0  0
   21.7348   -5.9691  -15.9791 O   0  0  0  0  0  0  0  0  0  0  0  0
  2  1  1  0
  3  2  1  0
  4  3  1  0
  5  4  1  0
  5  6  1  6
  7 14  1  0
  7  5  1  0
  8  7  2  0
  9 10  1  0
 11 13  1  0
 11 10  1  0
 11 12  1  1
 13 14  1  6
 15 13  1  0
 16 15  2  0
 17 15  1  0
 18 21  1  0
 18 17  1  0
 18 19  1  1
 20 19  1  0
 21 22  1  0
 23 21  2  0
M  END
$$$$
