MIC.pdb
     RDKit          3D

 23 22  0  0  1  0  0  0  0  0999 V2000
   28.3863  -18.4259   -5.9458 C   0  0  0  0  0  0  0  0  0  0  0  0
   28.5608  -20.1620   -6.3232 S   0  0  0  0  0  0  0  0  0  0  0  0
   27.8510  -20.7453   -7.8310 C   0  0  0  0  0  0  0  0  0  0  0  0
   26.4983  -20.3264   -8.2242 C   0  0  0  0  0  0  0  0  0  0  0  0
   25.9909  -20.7858   -9.5376 C   0  0  2  0  0  0  0  0  0  0  0  0
   26.8331  -20.4793  -10.6569 N   0  0  0  0  0  0  0  0  0  0  0  0
   24.5881  -20.3023   -9.7762 C   0  0  0  0  0  0  0  0  0  0  0  0
   24.3453  -19.1095  -10.0732 O   0  0  0  0  0  0  0  0  0  0  0  0
   20.0598  -18.8154  -11.2980 C   0  0  0  0  0  0  0  0  0  0  0  0
   20.6893  -20.0378  -11.8929 C   0  0  0  0  0  0  0  0  0  0  0  0
   22.0829  -20.3287  -11.4351 C   0  0  2  0  0  0  0  0  0  0  0  0
   22.6576  -21.3679  -12.3730 C   0  0  0  0  0  0  0  0  0  0  0  0
   22.1386  -20.7520  -10.0027 C   0  0  2  0  0  0  0  0  0  0  0  0
   23.5104  -21.1803   -9.6697 N   0  0  0  0  0  0  0  0  0  0  0  0
   21.3020  -21.9183   -9.6452 C   0  0  0  0  0  0  0  0  0  0  0  0
   21.6101  -23.0847  -10.1028 O   0  0  0  0  0  0  0  0  0  0  0  0
   20.1538  -21.9257   -8.8231 N   0  0  0  0  0  0  0  0  0  0  0  0
   19.3894  -23.1296   -8.5405 C   0  0  1  0  0  0  0  0  0  0  0  0
   18.6796  -22.9121   -7.1964 C   0  0  0  0  0  0  0  0  0  0  0  0
   19.0136  -24.2784   -6.0567 S   0  0  0  0  0  0  0  0  0  0  0  0
   18.3472  -23.3978   -9.5311 C   0  0  0  0  0  0  0  0  0  0  0  0
   18.0851  -24.6866   -9.9331 O   0  0  0  0  0  0  0  0  0  0  0  0
   17.6878  -22.4629  -10.0194 O   0  0  0  0  0  0  0  0  0  0  0  0
  2  1  1  0
  3  2  1  0
  4  3  1  0
  5  4  1  0
  5  6  1  6
  7 14  1  0
  7  5  1  0
  8  7  2  0
  9 10  1  0
 11 13  1  0
 11 10  1  0
 11 12  1  6
 13 14  1  6
 15 13  1  0
 16 15  2  0
 17 15  1  0
 18 21  1  0
 18 17  1  0
 18 19  1  1
 20 19  1  0
 21 22  1  0
 23 21  2  0
M  END
$$$$
