MIC.pdb
     RDKit          3D

 23 22  0  0  1  0  0  0  0  0999 V2000
   19.9483  -25.4009  -11.8394 C   0  0  0  0  0  0  0  0  0  0  0  0
   18.7125  -24.1129  -11.8093 S   0  0  0  0  0  0  0  0  0  0  0  0
   19.2438  -22.4810  -11.3944 C   0  0  0  0  0  0  0  0  0  0  0  0
   20.5991  -22.0318  -11.7425 C   0  0  0  0  0  0  0  0  0  0  0  0
   20.9893  -20.6573  -11.3526 C   0  0  2  0  0  0  0  0  0  0  0  0
   20.1767  -19.6136  -11.9061 N   0  0  0  0  0  0  0  0  0  0  0  0
   22.4445  -20.4068  -11.6321 C   0  0  0  0  0  0  0  0  0  0  0  0
   22.8156  -19.6694  -12.5747 O   0  0  0  0  0  0  0  0  0  0  0  0
   25.8011  -20.2797   -7.3269 C   0  0  0  0  0  0  0  0  0  0  0  0
   25.1446  -20.0416   -8.6523 C   0  0  0  0  0  0  0  0  0  0  0  0
   25.5993  -20.9342   -9.7626 C   0  0  2  0  0  0  0  0  0  0  0  0
   27.0930  -20.7426   -9.9120 C   0  0  0  0  0  0  0  0  0  0  0  0
   24.8569  -20.6878  -11.0362 C   0  0  2  0  0  0  0  0  0  0  0  0
   23.4280  -20.9978  -10.8402 N   0  0  0  0  0  0  0  0  0  0  0  0
   25.2531  -21.5329  -12.1838 C   0  0  0  0  0  0  0  0  0  0  0  0
   25.3396  -22.8111  -12.0308 O   0  0  0  0  0  0  0  0  0  0  0  0
   25.5607  -21.1045  -13.4938 N   0  0  0  0  0  0  0  0  0  0  0  0
   26.0419  -22.0045  -14.5292 C   0  0  1  0  0  0  0  0  0  0  0  0
   24.8082  -22.5980  -15.2245 C   0  0  0  0  0  0  0  0  0  0  0  0
   25.2882  -23.6105  -16.6463 S   0  0  0  0  0  0  0  0  0  0  0  0
   26.8263  -21.3290  -15.5626 C   0  0  0  0  0  0  0  0  0  0  0  0
   27.7765  -22.0202  -16.2772 O   0  0  0  0  0  0  0  0  0  0  0  0
   26.6413  -20.1231  -15.8053 O   0  0  0  0  0  0  0  0  0  0  0  0
  2  1  1  0
  3  2  1  0
  4  3  1  0
  5  4  1  0
  5  6  1  6
  7 14  1  0
  7  5  1  0
  8  7  2  0
  9 10  1  0
 11 13  1  0
 11 10  1  0
 11 12  1  6
 13 14  1  1
 15 13  1  0
 16 15  2  0
 17 15  1  0
 18 21  1  0
 18 17  1  0
 18 19  1  6
 20 19  1  0
 21 22  1  0
 23 21  2  0
M  END
$$$$
