MIC.pdb
     RDKit          3D

 23 22  0  0  1  0  0  0  0  0999 V2000
   27.6554  -12.4879  -15.1944 C   0  0  0  0  0  0  0  0  0  0  0  0
   27.3968  -14.2521  -15.1058 S   0  0  0  0  0  0  0  0  0  0  0  0
   25.8773  -14.8876  -15.7421 C   0  0  0  0  0  0  0  0  0  0  0  0
   24.7581  -13.9804  -16.0323 C   0  0  0  0  0  0  0  0  0  0  0  0
   23.5276  -14.5692  -16.6092 C   0  0  2  0  0  0  0  0  0  0  0  0
   23.7431  -15.5323  -17.6493 N   0  0  0  0  0  0  0  0  0  0  0  0
   22.5747  -13.4986  -17.0613 C   0  0  0  0  0  0  0  0  0  0  0  0
   22.5020  -13.1473  -18.2618 O   0  0  0  0  0  0  0  0  0  0  0  0
   17.9537  -14.3303  -16.7126 C   0  0  0  0  0  0  0  0  0  0  0  0
   18.9186  -13.3240  -17.2608 C   0  0  0  0  0  0  0  0  0  0  0  0
   19.3881  -12.2897  -16.2881 C   0  0  2  0  0  0  0  0  0  0  0  0
   18.3818  -11.1598  -16.3109 C   0  0  0  0  0  0  0  0  0  0  0  0
   20.7806  -11.8266  -16.5720 C   0  0  2  0  0  0  0  0  0  0  0  0
   21.7399  -12.8622  -16.1437 N   0  0  0  0  0  0  0  0  0  0  0  0
   21.2141  -10.6135  -15.8451 C   0  0  0  0  0  0  0  0  0  0  0  0
   21.2892  -10.6379  -14.5572 O   0  0  0  0  0  0  0  0  0  0  0  0
   21.5801   -9.3688  -16.4029 N   0  0  0  0  0  0  0  0  0  0  0  0
   22.0586   -8.2525  -15.6039 C   0  0  1  0  0  0  0  0  0  0  0  0
   22.7791   -7.2877  -16.5566 C   0  0  0  0  0  0  0  0  0  0  0  0
   24.1462   -8.1150  -17.4074 S   0  0  0  0  0  0  0  0  0  0  0  0
   20.9816   -7.4940  -14.9680 C   0  0  0  0  0  0  0  0  0  0  0  0
   21.2474   -6.6745  -13.8960 O   0  0  0  0  0  0  0  0  0  0  0  0
   19.8151   -7.5826  -15.3907 O   0  0  0  0  0  0  0  0  0  0  0  0
  2  1  1  0
  3  2  1  0
  4  3  1  0
  5  4  1  0
  5  6  1  6
  7 14  1  0
  7  5  1  0
  8  7  2  0
  9 10  1  0
 11 13  1  0
 11 10  1  0
 11 12  1  6
 13 14  1  1
 15 13  1  0
 16 15  2  0
 17 15  1  0
 18 21  1  0
 18 17  1  0
 18 19  1  6
 20 19  1  0
 21 22  1  0
 23 21  2  0
M  END
$$$$
