WSG.pdb
     RDKit          3D

 25 26  0  0  1  0  0  0  0  0999 V2000
    6.6200  -17.7960   24.6052 N   0  0  0  0  0  0  0  0  0  0  0  0
    7.3825  -16.7433   23.9571 C   0  0  1  0  0  0  0  0  0  0  0  0
    8.1502  -15.9550   24.9860 C   0  0  0  0  0  0  0  0  0  0  0  0
    7.1906  -15.0891   25.7128 C   0  0  0  0  0  0  0  0  0  0  0  0
    6.0727  -15.4328   26.4424 C   0  0  0  0  0  0  0  0  0  0  0  0
    5.5440  -14.2951   26.8988 N   0  0  0  0  0  0  0  0  0  0  0  0
    6.2495  -13.2290   26.5110 C   0  0  0  0  0  0  0  0  0  0  0  0
    6.1213  -11.8554   26.7156 C   0  0  0  0  0  0  0  0  0  0  0  0
    7.0101  -10.9448   26.1899 C   0  0  0  0  0  0  0  0  0  0  0  0
    8.0581  -11.4302   25.4369 C   0  0  0  0  0  0  0  0  0  0  0  0
    8.1813  -12.7859   25.2372 C   0  0  0  0  0  0  0  0  0  0  0  0
    7.2958  -13.7070   25.7597 C   0  0  0  0  0  0  0  0  0  0  0  0
    8.3079  -17.3621   22.9708 C   0  0  0  0  0  0  0  0  0  0  0  0
    8.7711  -18.5350   23.1414 O   0  0  0  0  0  0  0  0  0  0  0  0
    9.5588  -15.0718   19.7525 O   0  0  0  0  0  0  0  0  0  0  0  0
    9.7988  -16.4281   19.6292 C   0  0  0  0  0  0  0  0  0  0  0  0
    9.8386  -17.1476   20.9727 C   0  0  2  0  0  0  0  0  0  0  0  0
    8.7133  -16.6800   21.8051 N   0  0  0  0  0  0  0  0  0  0  0  0
   11.1119  -16.9719   21.6684 C   0  0  0  0  0  0  0  0  0  0  0  0
   11.1959  -16.0984   22.5933 O   0  0  0  0  0  0  0  0  0  0  0  0
   12.2632  -17.7333   21.3605 N   0  0  0  0  0  0  0  0  0  0  0  0
   13.4073  -17.8041   22.2587 C   0  0  0  0  0  0  0  0  0  0  0  0
   14.4397  -16.8717   21.7074 C   0  0  0  0  0  0  0  0  0  0  0  0
   15.6142  -16.7310   22.4292 O   0  0  0  0  0  0  0  0  0  0  0  0
   14.2691  -16.2300   20.6323 O   0  0  0  0  0  0  0  0  0  0  0  0
  2  1  1  1
  2  3  1  0
  2 13  1  0
  3  4  1  0
  4  5  2  0
  6  5  1  0
  7  6  1  0
  8  7  2  0
  9  8  1  0
 10  9  2  0
 10 11  1  0
 11 12  2  0
 12  7  1  0
 12  4  1  0
 13 14  2  0
 16 15  1  0
 17 16  1  6
 18 13  1  0
 18 17  1  0
 19 17  1  0
 19 20  2  0
 21 19  1  0
 22 21  1  0
 22 23  1  0
 23 24  1  0
 25 23  2  0
M  END
$$$$
