WSG.pdb
     RDKit          3D

 25 26  0  0  1  0  0  0  0  0999 V2000
    6.8134  -17.9662   24.4557 N   0  0  0  0  0  0  0  0  0  0  0  0
    7.4637  -16.8443   23.8014 C   0  0  1  0  0  0  0  0  0  0  0  0
    8.2170  -16.0228   24.8150 C   0  0  0  0  0  0  0  0  0  0  0  0
    7.2292  -15.2578   25.6136 C   0  0  0  0  0  0  0  0  0  0  0  0
    6.1558  -15.7084   26.3520 C   0  0  0  0  0  0  0  0  0  0  0  0
    5.5737  -14.6316   26.8846 N   0  0  0  0  0  0  0  0  0  0  0  0
    6.2025  -13.5048   26.5385 C   0  0  0  0  0  0  0  0  0  0  0  0
    5.9985  -12.1547   26.8225 C   0  0  0  0  0  0  0  0  0  0  0  0
    6.8154  -11.1642   26.3253 C   0  0  0  0  0  0  0  0  0  0  0  0
    7.8678  -11.5432   25.5192 C   0  0  0  0  0  0  0  0  0  0  0  0
    8.0660  -12.8760   25.2413 C   0  0  0  0  0  0  0  0  0  0  0  0
    7.2529  -13.8765   25.7346 C   0  0  0  0  0  0  0  0  0  0  0  0
    8.3861  -17.3687   22.7593 C   0  0  0  0  0  0  0  0  0  0  0  0
    9.0413  -18.4454   22.9347 O   0  0  0  0  0  0  0  0  0  0  0  0
    8.2518  -16.7181   18.6437 O   0  0  0  0  0  0  0  0  0  0  0  0
    9.4293  -16.3500   19.2685 C   0  0  0  0  0  0  0  0  0  0  0  0
    9.6498  -17.0744   20.5917 C   0  0  2  0  0  0  0  0  0  0  0  0
    8.5767  -16.6993   21.5329 N   0  0  0  0  0  0  0  0  0  0  0  0
   10.9666  -16.8082   21.1672 C   0  0  0  0  0  0  0  0  0  0  0  0
   11.4068  -15.6117   21.1772 O   0  0  0  0  0  0  0  0  0  0  0  0
   11.7802  -17.8252   21.7185 N   0  0  0  0  0  0  0  0  0  0  0  0
   12.9622  -18.3279   21.0321 C   0  0  0  0  0  0  0  0  0  0  0  0
   14.0538  -17.3352   21.2813 C   0  0  0  0  0  0  0  0  0  0  0  0
   15.0580  -17.7074   22.1607 O   0  0  0  0  0  0  0  0  0  0  0  0
   14.0788  -16.2008   20.7252 O   0  0  0  0  0  0  0  0  0  0  0  0
  2  1  1  1
  2  3  1  0
  2 13  1  0
  3  4  1  0
  4  5  2  0
  6  5  1  0
  7  6  1  0
  8  7  2  0
  9  8  1  0
 10  9  2  0
 10 11  1  0
 11 12  2  0
 12  7  1  0
 12  4  1  0
 13 14  2  0
 16 15  1  0
 17 16  1  6
 18 13  1  0
 18 17  1  0
 19 17  1  0
 19 20  2  0
 21 19  1  0
 22 21  1  0
 22 23  1  0
 23 24  1  0
 25 23  2  0
M  END
$$$$
