WSG.pdb
     RDKit          3D

 25 26  0  0  1  0  0  0  0  0999 V2000
    6.7603  -17.9427   24.4702 N   0  0  0  0  0  0  0  0  0  0  0  0
    7.3781  -16.8027   23.8157 C   0  0  1  0  0  0  0  0  0  0  0  0
    8.2166  -16.0337   24.8032 C   0  0  0  0  0  0  0  0  0  0  0  0
    7.3080  -15.2059   25.6326 C   0  0  0  0  0  0  0  0  0  0  0  0
    6.3098  -15.5942   26.5005 C   0  0  0  0  0  0  0  0  0  0  0  0
    5.7795  -14.4775   27.0043 N   0  0  0  0  0  0  0  0  0  0  0  0
    6.3714  -13.3831   26.5176 C   0  0  0  0  0  0  0  0  0  0  0  0
    6.1936  -12.0146   26.7186 C   0  0  0  0  0  0  0  0  0  0  0  0
    6.9586  -11.0684   26.0742 C   0  0  0  0  0  0  0  0  0  0  0  0
    7.9304  -11.5122   25.2027 C   0  0  0  0  0  0  0  0  0  0  0  0
    8.1029  -12.8631   25.0070 C   0  0  0  0  0  0  0  0  0  0  0  0
    7.3414  -13.8196   25.6479 C   0  0  0  0  0  0  0  0  0  0  0  0
    8.2130  -17.2946   22.6875 C   0  0  0  0  0  0  0  0  0  0  0  0
    8.9805  -18.3010   22.8202 O   0  0  0  0  0  0  0  0  0  0  0  0
    8.6363  -15.1088   19.0120 O   0  0  0  0  0  0  0  0  0  0  0  0
    8.5759  -16.4904   19.0154 C   0  0  0  0  0  0  0  0  0  0  0  0
    9.0734  -17.1023   20.3201 C   0  0  2  0  0  0  0  0  0  0  0  0
    8.1930  -16.6706   21.4231 N   0  0  0  0  0  0  0  0  0  0  0  0
   10.4679  -16.7689   20.6032 C   0  0  0  0  0  0  0  0  0  0  0  0
   10.7246  -15.7908   21.3797 O   0  0  0  0  0  0  0  0  0  0  0  0
   11.5534  -17.4882   20.0515 N   0  0  0  0  0  0  0  0  0  0  0  0
   12.9310  -17.0362   20.1888 C   0  0  0  0  0  0  0  0  0  0  0  0
   13.4475  -17.6258   21.4635 C   0  0  0  0  0  0  0  0  0  0  0  0
   13.7400  -18.9803   21.4605 O   0  0  0  0  0  0  0  0  0  0  0  0
   13.6172  -16.9372   22.5094 O   0  0  0  0  0  0  0  0  0  0  0  0
  2  1  1  1
  2  3  1  0
  2 13  1  0
  3  4  1  0
  4  5  2  0
  6  5  1  0
  7  6  1  0
  8  7  2  0
  9  8  1  0
 10  9  2  0
 10 11  1  0
 11 12  2  0
 12  7  1  0
 12  4  1  0
 13 14  2  0
 16 15  1  0
 17 16  1  6
 18 13  1  0
 18 17  1  0
 19 17  1  0
 19 20  2  0
 21 19  1  0
 22 21  1  0
 22 23  1  0
 23 24  1  0
 25 23  2  0
M  END
$$$$
