WSG.pdb
     RDKit          3D

 25 26  0  0  1  0  0  0  0  0999 V2000
    7.1220  -17.8449   24.2039 N   0  0  0  0  0  0  0  0  0  0  0  0
    7.9418  -16.7149   23.8032 C   0  0  1  0  0  0  0  0  0  0  0  0
    8.4745  -16.0070   25.0216 C   0  0  0  0  0  0  0  0  0  0  0  0
    7.3744  -15.2008   25.6036 C   0  0  0  0  0  0  0  0  0  0  0  0
    6.1500  -15.6047   26.0915 C   0  0  0  0  0  0  0  0  0  0  0  0
    5.5161  -14.5045   26.5037 N   0  0  0  0  0  0  0  0  0  0  0  0
    6.2530  -13.4064   26.3143 C   0  0  0  0  0  0  0  0  0  0  0  0
    6.0530  -12.0496   26.5675 C   0  0  0  0  0  0  0  0  0  0  0  0
    6.9996  -11.0956   26.2684 C   0  0  0  0  0  0  0  0  0  0  0  0
    8.1814  -11.5191   25.6983 C   0  0  0  0  0  0  0  0  0  0  0  0
    8.3752  -12.8584   25.4501 C   0  0  0  0  0  0  0  0  0  0  0  0
    7.4326  -13.8226   25.7460 C   0  0  0  0  0  0  0  0  0  0  0  0
    9.0572  -17.2116   22.9539 C   0  0  0  0  0  0  0  0  0  0  0  0
    9.6770  -18.2867   23.2356 O   0  0  0  0  0  0  0  0  0  0  0  0
   10.2618  -16.3885   18.9567 O   0  0  0  0  0  0  0  0  0  0  0  0
   10.9668  -15.8094   19.9960 C   0  0  0  0  0  0  0  0  0  0  0  0
   10.8620  -16.5990   21.2959 C   0  0  2  0  0  0  0  0  0  0  0  0
    9.4780  -16.5165   21.8014 N   0  0  0  0  0  0  0  0  0  0  0  0
   11.8158  -16.1483   22.3074 C   0  0  0  0  0  0  0  0  0  0  0  0
   11.4211  -15.3444   23.2149 O   0  0  0  0  0  0  0  0  0  0  0  0
   13.1664  -16.5673   22.3259 N   0  0  0  0  0  0  0  0  0  0  0  0
   14.1124  -16.0865   23.3232 C   0  0  0  0  0  0  0  0  0  0  0  0
   15.4063  -16.7893   23.0564 C   0  0  0  0  0  0  0  0  0  0  0  0
   16.4793  -16.4696   23.8730 O   0  0  0  0  0  0  0  0  0  0  0  0
   15.5376  -17.6406   22.1319 O   0  0  0  0  0  0  0  0  0  0  0  0
  2  1  1  1
  2  3  1  0
  2 13  1  0
  3  4  1  0
  4  5  2  0
  6  5  1  0
  7  6  1  0
  8  7  2  0
  9  8  1  0
 10  9  2  0
 10 11  1  0
 11 12  2  0
 12  7  1  0
 12  4  1  0
 13 14  2  0
 16 15  1  0
 17 16  1  6
 18 13  1  0
 18 17  1  0
 19 17  1  0
 19 20  2  0
 21 19  1  0
 22 21  1  0
 22 23  1  0
 23 24  1  0
 25 23  2  0
M  END
$$$$
