WSG.pdb
     RDKit          3D

 25 26  0  0  1  0  0  0  0  0999 V2000
    6.5329  -17.9405   24.5531 N   0  0  0  0  0  0  0  0  0  0  0  0
    7.1397  -16.8293   23.8413 C   0  0  1  0  0  0  0  0  0  0  0  0
    7.9491  -15.9879   24.7934 C   0  0  0  0  0  0  0  0  0  0  0  0
    7.0107  -15.1556   25.5842 C   0  0  0  0  0  0  0  0  0  0  0  0
    5.9117  -15.5316   26.3266 C   0  0  0  0  0  0  0  0  0  0  0  0
    5.3974  -14.4157   26.8484 N   0  0  0  0  0  0  0  0  0  0  0  0
    6.0946  -13.3334   26.4915 C   0  0  0  0  0  0  0  0  0  0  0  0
    5.9745  -11.9706   26.7622 C   0  0  0  0  0  0  0  0  0  0  0  0
    6.8510  -11.0374   26.2557 C   0  0  0  0  0  0  0  0  0  0  0  0
    7.8778  -11.4886   25.4537 C   0  0  0  0  0  0  0  0  0  0  0  0
    7.9931  -12.8338   25.1889 C   0  0  0  0  0  0  0  0  0  0  0  0
    7.1198  -13.7772   25.6917 C   0  0  0  0  0  0  0  0  0  0  0  0
    8.0005  -17.3706   22.7559 C   0  0  0  0  0  0  0  0  0  0  0  0
    8.5811  -18.4972   22.8696 O   0  0  0  0  0  0  0  0  0  0  0  0
    8.2923  -15.0999   19.5034 O   0  0  0  0  0  0  0  0  0  0  0  0
    9.2616  -16.0831   19.4243 C   0  0  0  0  0  0  0  0  0  0  0  0
    9.4095  -16.8752   20.7185 C   0  0  2  0  0  0  0  0  0  0  0  0
    8.2122  -16.6628   21.5548 N   0  0  0  0  0  0  0  0  0  0  0  0
   10.6268  -16.5343   21.4519 C   0  0  0  0  0  0  0  0  0  0  0  0
   10.6865  -15.4189   22.0667 O   0  0  0  0  0  0  0  0  0  0  0  0
   11.7493  -17.3924   21.5118 N   0  0  0  0  0  0  0  0  0  0  0  0
   12.8793  -17.1283   22.3917 C   0  0  0  0  0  0  0  0  0  0  0  0
   14.0409  -16.8017   21.5066 C   0  0  0  0  0  0  0  0  0  0  0  0
   15.2792  -17.2994   21.8794 O   0  0  0  0  0  0  0  0  0  0  0  0
   13.9208  -16.1039   20.4600 O   0  0  0  0  0  0  0  0  0  0  0  0
  2  1  1  1
  2  3  1  0
  2 13  1  0
  3  4  1  0
  4  5  2  0
  6  5  1  0
  7  6  1  0
  8  7  2  0
  9  8  1  0
 10  9  2  0
 10 11  1  0
 11 12  2  0
 12  7  1  0
 12  4  1  0
 13 14  2  0
 16 15  1  0
 17 16  1  6
 18 13  1  0
 18 17  1  0
 19 17  1  0
 19 20  2  0
 21 19  1  0
 22 21  1  0
 22 23  1  0
 23 24  1  0
 25 23  2  0
M  END
$$$$
