WSG.pdb
     RDKit          3D

 25 26  0  0  1  0  0  0  0  0999 V2000
    6.7774  -18.0450   24.4290 N   0  0  0  0  0  0  0  0  0  0  0  0
    7.3620  -16.8507   23.8447 C   0  0  1  0  0  0  0  0  0  0  0  0
    8.1675  -16.1113   24.8811 C   0  0  0  0  0  0  0  0  0  0  0  0
    7.2394  -15.2624   25.6663 C   0  0  0  0  0  0  0  0  0  0  0  0
    6.1699  -15.6252   26.4568 C   0  0  0  0  0  0  0  0  0  0  0  0
    5.6526  -14.4973   26.9489 N   0  0  0  0  0  0  0  0  0  0  0  0
    6.3200  -13.4195   26.5274 C   0  0  0  0  0  0  0  0  0  0  0  0
    6.1850  -12.0489   26.7466 C   0  0  0  0  0  0  0  0  0  0  0  0
    7.0297  -11.1234   26.1760 C   0  0  0  0  0  0  0  0  0  0  0  0
    8.0393  -11.5905   25.3616 C   0  0  0  0  0  0  0  0  0  0  0  0
    8.1695  -12.9434   25.1477 C   0  0  0  0  0  0  0  0  0  0  0  0
    7.3280  -13.8793   25.7148 C   0  0  0  0  0  0  0  0  0  0  0  0
    8.2208  -17.2512   22.6985 C   0  0  0  0  0  0  0  0  0  0  0  0
    9.0990  -18.1648   22.8154 O   0  0  0  0  0  0  0  0  0  0  0  0
    8.2308  -14.8690   19.2502 O   0  0  0  0  0  0  0  0  0  0  0  0
    8.6020  -16.1907   19.0830 C   0  0  0  0  0  0  0  0  0  0  0  0
    9.1075  -16.8319   20.3705 C   0  0  2  0  0  0  0  0  0  0  0  0
    8.1022  -16.6393   21.4336 N   0  0  0  0  0  0  0  0  0  0  0  0
   10.4107  -16.3151   20.7834 C   0  0  0  0  0  0  0  0  0  0  0  0
   10.5200  -15.0805   21.0822 O   0  0  0  0  0  0  0  0  0  0  0  0
   11.5644  -17.1287   20.8680 N   0  0  0  0  0  0  0  0  0  0  0  0
   12.8552  -16.6002   21.2865 C   0  0  0  0  0  0  0  0  0  0  0  0
   13.8353  -16.9762   20.2200 C   0  0  0  0  0  0  0  0  0  0  0  0
   15.1353  -17.2398   20.6207 O   0  0  0  0  0  0  0  0  0  0  0  0
   13.5133  -17.0557   19.0007 O   0  0  0  0  0  0  0  0  0  0  0  0
  2  1  1  1
  2  3  1  0
  2 13  1  0
  3  4  1  0
  4  5  2  0
  6  5  1  0
  7  6  1  0
  8  7  2  0
  9  8  1  0
 10  9  2  0
 10 11  1  0
 11 12  2  0
 12  7  1  0
 12  4  1  0
 13 14  2  0
 16 15  1  0
 17 16  1  6
 18 13  1  0
 18 17  1  0
 19 17  1  0
 19 20  2  0
 21 19  1  0
 22 21  1  0
 22 23  1  0
 23 24  1  0
 25 23  2  0
M  END
$$$$
