WSG.pdb
     RDKit          3D

 25 26  0  0  1  0  0  0  0  0999 V2000
    6.6620  -17.8220   24.2768 N   0  0  0  0  0  0  0  0  0  0  0  0
    7.3711  -16.6724   23.7429 C   0  0  1  0  0  0  0  0  0  0  0  0
    8.1268  -15.9759   24.8445 C   0  0  0  0  0  0  0  0  0  0  0  0
    7.1603  -15.1675   25.6262 C   0  0  0  0  0  0  0  0  0  0  0  0
    6.0607  -15.5706   26.3534 C   0  0  0  0  0  0  0  0  0  0  0  0
    5.5152  -14.4683   26.8725 N   0  0  0  0  0  0  0  0  0  0  0  0
    6.1925  -13.3695   26.5281 C   0  0  0  0  0  0  0  0  0  0  0  0
    6.0388  -12.0107   26.8019 C   0  0  0  0  0  0  0  0  0  0  0  0
    6.9006  -11.0564   26.3096 C   0  0  0  0  0  0  0  0  0  0  0  0
    7.9471  -11.4817   25.5191 C   0  0  0  0  0  0  0  0  0  0  0  0
    8.0956  -12.8230   25.2512 C   0  0  0  0  0  0  0  0  0  0  0  0
    7.2373  -13.7875   25.7397 C   0  0  0  0  0  0  0  0  0  0  0  0
    8.3012  -17.1368   22.6793 C   0  0  0  0  0  0  0  0  0  0  0  0
    8.9949  -18.1943   22.8206 O   0  0  0  0  0  0  0  0  0  0  0  0
    9.0852  -14.6401   19.3623 O   0  0  0  0  0  0  0  0  0  0  0  0
    9.2890  -15.9996   19.2114 C   0  0  0  0  0  0  0  0  0  0  0  0
    9.5629  -16.7083   20.5332 C   0  0  2  0  0  0  0  0  0  0  0  0
    8.4568  -16.4294   21.4695 N   0  0  0  0  0  0  0  0  0  0  0  0
   10.8493  -16.3340   21.1172 C   0  0  0  0  0  0  0  0  0  0  0  0
   10.8985  -15.3490   21.9252 O   0  0  0  0  0  0  0  0  0  0  0  0
   12.0507  -17.0207   20.8253 N   0  0  0  0  0  0  0  0  0  0  0  0
   13.3255  -16.6343   21.4137 C   0  0  0  0  0  0  0  0  0  0  0  0
   14.3675  -17.5007   20.7788 C   0  0  0  0  0  0  0  0  0  0  0  0
   15.6925  -17.1886   21.0378 O   0  0  0  0  0  0  0  0  0  0  0  0
   14.0745  -18.4793   20.0351 O   0  0  0  0  0  0  0  0  0  0  0  0
  2  1  1  1
  2  3  1  0
  2 13  1  0
  3  4  1  0
  4  5  2  0
  6  5  1  0
  7  6  1  0
  8  7  2  0
  9  8  1  0
 10  9  2  0
 10 11  1  0
 11 12  2  0
 12  7  1  0
 12  4  1  0
 13 14  2  0
 16 15  1  0
 17 16  1  6
 18 13  1  0
 18 17  1  0
 19 17  1  0
 19 20  2  0
 21 19  1  0
 22 21  1  0
 22 23  1  0
 23 24  1  0
 25 23  2  0
M  END
$$$$
