WSG.pdb
     RDKit          3D

 25 26  0  0  1  0  0  0  0  0999 V2000
    7.4688  -17.5768   25.6407 N   0  0  0  0  0  0  0  0  0  0  0  0
    7.5346  -16.3540   24.8597 C   0  0  1  0  0  0  0  0  0  0  0  0
    8.7073  -15.5202   25.3059 C   0  0  0  0  0  0  0  0  0  0  0  0
    8.2705  -14.6875   26.4524 C   0  0  0  0  0  0  0  0  0  0  0  0
    8.4811  -14.8686   27.8027 C   0  0  0  0  0  0  0  0  0  0  0  0
    7.8882  -13.8482   28.4267 N   0  0  0  0  0  0  0  0  0  0  0  0
    7.3031  -13.0115   27.5652 C   0  0  0  0  0  0  0  0  0  0  0  0
    6.5748  -11.8303   27.7042 C   0  0  0  0  0  0  0  0  0  0  0  0
    6.0679  -11.1442   26.6235 C   0  0  0  0  0  0  0  0  0  0  0  0
    6.3007  -11.6615   25.3668 C   0  0  0  0  0  0  0  0  0  0  0  0
    7.0197  -12.8269   25.2336 C   0  0  0  0  0  0  0  0  0  0  0  0
    7.5320  -13.5223   26.3104 C   0  0  0  0  0  0  0  0  0  0  0  0
    7.6609  -16.7122   23.4217 C   0  0  0  0  0  0  0  0  0  0  0  0
    7.9748  -17.8902   23.0569 O   0  0  0  0  0  0  0  0  0  0  0  0
    7.1777  -13.7842   20.4001 O   0  0  0  0  0  0  0  0  0  0  0  0
    6.8133  -15.0917   20.1349 C   0  0  0  0  0  0  0  0  0  0  0  0
    7.5880  -16.1042   20.9709 C   0  0  2  0  0  0  0  0  0  0  0  0
    7.4393  -15.7662   22.3997 N   0  0  0  0  0  0  0  0  0  0  0  0
    8.9984  -16.1828   20.5962 C   0  0  0  0  0  0  0  0  0  0  0  0
    9.3032  -16.4260   19.3823 O   0  0  0  0  0  0  0  0  0  0  0  0
   10.0483  -15.9990   21.5258 N   0  0  0  0  0  0  0  0  0  0  0  0
   11.4494  -16.0737   21.1357 C   0  0  0  0  0  0  0  0  0  0  0  0
   11.9790  -17.3571   21.6942 C   0  0  0  0  0  0  0  0  0  0  0  0
   13.3272  -17.6183   21.5089 O   0  0  0  0  0  0  0  0  0  0  0  0
   11.2467  -18.1815   22.3112 O   0  0  0  0  0  0  0  0  0  0  0  0
  2  1  1  1
  2  3  1  0
  2 13  1  0
  3  4  1  0
  4  5  2  0
  6  5  1  0
  7  6  1  0
  8  7  2  0
  9  8  1  0
 10  9  2  0
 10 11  1  0
 11 12  2  0
 12  7  1  0
 12  4  1  0
 13 14  2  0
 16 15  1  0
 17 16  1  6
 18 13  1  0
 18 17  1  0
 19 17  1  0
 19 20  2  0
 21 19  1  0
 22 21  1  0
 22 23  1  0
 23 24  1  0
 25 23  2  0
M  END
$$$$
