WSG.pdb
     RDKit          3D

 25 26  0  0  1  0  0  0  0  0999 V2000
    6.6663  -17.9582   24.0139 N   0  0  0  0  0  0  0  0  0  0  0  0
    7.2380  -16.7055   23.5520 C   0  0  1  0  0  0  0  0  0  0  0  0
    8.0986  -16.1027   24.6316 C   0  0  0  0  0  0  0  0  0  0  0  0
    7.2296  -15.2808   25.5080 C   0  0  0  0  0  0  0  0  0  0  0  0
    6.2398  -15.6729   26.3836 C   0  0  0  0  0  0  0  0  0  0  0  0
    5.7498  -14.5609   26.9363 N   0  0  0  0  0  0  0  0  0  0  0  0
    6.3602  -13.4661   26.4742 C   0  0  0  0  0  0  0  0  0  0  0  0
    6.2230  -12.1011   26.7252 C   0  0  0  0  0  0  0  0  0  0  0  0
    6.9993  -11.1534   26.0969 C   0  0  0  0  0  0  0  0  0  0  0  0
    7.9407  -11.5918   25.1900 C   0  0  0  0  0  0  0  0  0  0  0  0
    8.0733  -12.9392   24.9450 C   0  0  0  0  0  0  0  0  0  0  0  0
    7.3001  -13.8972   25.5695 C   0  0  0  0  0  0  0  0  0  0  0  0
    8.0390  -16.9692   22.3269 C   0  0  0  0  0  0  0  0  0  0  0  0
    8.8476  -17.9497   22.2617 O   0  0  0  0  0  0  0  0  0  0  0  0
    8.3015  -14.1176   19.1255 O   0  0  0  0  0  0  0  0  0  0  0  0
    8.3024  -15.4753   18.8628 C   0  0  0  0  0  0  0  0  0  0  0  0
    8.8387  -16.3036   20.0249 C   0  0  2  0  0  0  0  0  0  0  0  0
    7.9398  -16.1479   21.1850 N   0  0  0  0  0  0  0  0  0  0  0  0
   10.2133  -15.9550   20.3782 C   0  0  0  0  0  0  0  0  0  0  0  0
   10.4174  -15.0155   21.2156 O   0  0  0  0  0  0  0  0  0  0  0  0
   11.3357  -16.6183   19.8300 N   0  0  0  0  0  0  0  0  0  0  0  0
   12.6956  -16.3205   20.2573 C   0  0  0  0  0  0  0  0  0  0  0  0
   13.6046  -17.0938   19.3544 C   0  0  0  0  0  0  0  0  0  0  0  0
   14.9032  -16.6301   19.2170 O   0  0  0  0  0  0  0  0  0  0  0  0
   13.2256  -18.1274   18.7342 O   0  0  0  0  0  0  0  0  0  0  0  0
  2  1  1  1
  2  3  1  0
  2 13  1  0
  3  4  1  0
  4  5  2  0
  6  5  1  0
  7  6  1  0
  8  7  2  0
  9  8  1  0
 10  9  2  0
 10 11  1  0
 11 12  2  0
 12  7  1  0
 12  4  1  0
 13 14  2  0
 16 15  1  0
 17 16  1  6
 18 13  1  0
 18 17  1  0
 19 17  1  0
 19 20  2  0
 21 19  1  0
 22 21  1  0
 22 23  1  0
 23 24  1  0
 25 23  2  0
M  END
$$$$
