WSG.pdb
     RDKit          3D

 25 26  0  0  1  0  0  0  0  0999 V2000
    7.4471  -18.0331   24.7319 N   0  0  0  0  0  0  0  0  0  0  0  0
    8.1681  -16.8574   24.2764 C   0  0  1  0  0  0  0  0  0  0  0  0
    8.5877  -16.0209   25.4570 C   0  0  0  0  0  0  0  0  0  0  0  0
    7.3966  -15.2866   25.9478 C   0  0  0  0  0  0  0  0  0  0  0  0
    6.1804  -15.7707   26.3800 C   0  0  0  0  0  0  0  0  0  0  0  0
    5.4407  -14.7119   26.7173 N   0  0  0  0  0  0  0  0  0  0  0  0
    6.1007  -13.5654   26.5314 C   0  0  0  0  0  0  0  0  0  0  0  0
    5.7824  -12.2215   26.7255 C   0  0  0  0  0  0  0  0  0  0  0  0
    6.6687  -11.2054   26.4469 C   0  0  0  0  0  0  0  0  0  0  0  0
    7.9110  -11.5515   25.9592 C   0  0  0  0  0  0  0  0  0  0  0  0
    8.2215  -12.8784   25.7691 C   0  0  0  0  0  0  0  0  0  0  0  0
    7.3402  -13.9044   26.0451 C   0  0  0  0  0  0  0  0  0  0  0  0
    9.3548  -17.2979   23.4956 C   0  0  0  0  0  0  0  0  0  0  0  0
   10.1899  -18.1315   23.9722 O   0  0  0  0  0  0  0  0  0  0  0  0
   10.6809  -15.1716   19.9506 O   0  0  0  0  0  0  0  0  0  0  0  0
   10.8015  -16.5432   20.0792 C   0  0  0  0  0  0  0  0  0  0  0  0
   10.9136  -16.9950   21.5309 C   0  0  2  0  0  0  0  0  0  0  0  0
    9.6085  -16.8139   22.1957 N   0  0  0  0  0  0  0  0  0  0  0  0
   11.9721  -16.2972   22.2580 C   0  0  0  0  0  0  0  0  0  0  0  0
   11.7126  -15.1725   22.7996 O   0  0  0  0  0  0  0  0  0  0  0  0
   13.2805  -16.8174   22.3900 N   0  0  0  0  0  0  0  0  0  0  0  0
   14.3100  -16.1362   23.1625 C   0  0  0  0  0  0  0  0  0  0  0  0
   15.5372  -16.9887   23.0817 C   0  0  0  0  0  0  0  0  0  0  0  0
   16.6586  -16.5489   23.7666 O   0  0  0  0  0  0  0  0  0  0  0  0
   15.5719  -18.0666   22.4231 O   0  0  0  0  0  0  0  0  0  0  0  0
  2  1  1  1
  2  3  1  0
  2 13  1  0
  3  4  1  0
  4  5  2  0
  6  5  1  0
  7  6  1  0
  8  7  2  0
  9  8  1  0
 10  9  2  0
 10 11  1  0
 11 12  2  0
 12  7  1  0
 12  4  1  0
 13 14  2  0
 16 15  1  0
 17 16  1  6
 18 13  1  0
 18 17  1  0
 19 17  1  0
 19 20  2  0
 21 19  1  0
 22 21  1  0
 22 23  1  0
 23 24  1  0
 25 23  2  0
M  END
$$$$
