WSG.pdb
     RDKit          3D

 25 26  0  0  1  0  0  0  0  0999 V2000
    6.9324  -18.0187   24.9746 N   0  0  0  0  0  0  0  0  0  0  0  0
    7.3181  -16.7977   24.2890 C   0  0  1  0  0  0  0  0  0  0  0  0
    8.2839  -16.0130   25.1380 C   0  0  0  0  0  0  0  0  0  0  0  0
    7.4990  -15.1057   26.0094 C   0  0  0  0  0  0  0  0  0  0  0  0
    6.6609  -15.4035   27.0626 C   0  0  0  0  0  0  0  0  0  0  0  0
    6.1907  -14.2420   27.5230 N   0  0  0  0  0  0  0  0  0  0  0  0
    6.6715  -13.2035   26.8338 C   0  0  0  0  0  0  0  0  0  0  0  0
    6.4952  -11.8223   26.9137 C   0  0  0  0  0  0  0  0  0  0  0  0
    7.1254  -10.9471   26.0579 C   0  0  0  0  0  0  0  0  0  0  0  0
    7.9569  -11.4769   25.0940 C   0  0  0  0  0  0  0  0  0  0  0  0
    8.1284  -12.8399   25.0183 C   0  0  0  0  0  0  0  0  0  0  0  0
    7.5013  -13.7257   25.8713 C   0  0  0  0  0  0  0  0  0  0  0  0
    7.9363  -17.1574   22.9850 C   0  0  0  0  0  0  0  0  0  0  0  0
    8.6992  -18.1694   22.8696 O   0  0  0  0  0  0  0  0  0  0  0  0
    7.6027  -14.6054   19.5629 O   0  0  0  0  0  0  0  0  0  0  0  0
    7.6797  -15.9779   19.4119 C   0  0  0  0  0  0  0  0  0  0  0  0
    8.4214  -16.6594   20.5563 C   0  0  2  0  0  0  0  0  0  0  0  0
    7.7066  -16.3963   21.8204 N   0  0  0  0  0  0  0  0  0  0  0  0
    9.8191  -16.2425   20.6494 C   0  0  0  0  0  0  0  0  0  0  0  0
   10.1044  -15.1721   21.2805 O   0  0  0  0  0  0  0  0  0  0  0  0
   10.8773  -16.9787   20.0678 N   0  0  0  0  0  0  0  0  0  0  0  0
   12.2698  -16.5774   20.2115 C   0  0  0  0  0  0  0  0  0  0  0  0
   13.0779  -17.5499   19.4112 C   0  0  0  0  0  0  0  0  0  0  0  0
   13.7863  -17.0458   18.3322 O   0  0  0  0  0  0  0  0  0  0  0  0
   13.1266  -18.7816   19.6890 O   0  0  0  0  0  0  0  0  0  0  0  0
  2  1  1  1
  2  3  1  0
  2 13  1  0
  3  4  1  0
  4  5  2  0
  6  5  1  0
  7  6  1  0
  8  7  2  0
  9  8  1  0
 10  9  2  0
 10 11  1  0
 11 12  2  0
 12  7  1  0
 12  4  1  0
 13 14  2  0
 16 15  1  0
 17 16  1  6
 18 13  1  0
 18 17  1  0
 19 17  1  0
 19 20  2  0
 21 19  1  0
 22 21  1  0
 22 23  1  0
 23 24  1  0
 25 23  2  0
M  END
$$$$
