WSG.pdb
     RDKit          3D

 25 26  0  0  1  0  0  0  0  0999 V2000
    6.9528  -18.0285   24.1468 N   0  0  0  0  0  0  0  0  0  0  0  0
    7.8177  -16.9305   23.7520 C   0  0  1  0  0  0  0  0  0  0  0  0
    8.4218  -16.2859   24.9722 C   0  0  0  0  0  0  0  0  0  0  0  0
    7.3952  -15.4097   25.5862 C   0  0  0  0  0  0  0  0  0  0  0  0
    6.2596  -15.7451   26.2921 C   0  0  0  0  0  0  0  0  0  0  0  0
    5.6645  -14.6000   26.6337 N   0  0  0  0  0  0  0  0  0  0  0  0
    6.3431  -13.5369   26.1933 C   0  0  0  0  0  0  0  0  0  0  0  0
    6.1497  -12.1586   26.2827 C   0  0  0  0  0  0  0  0  0  0  0  0
    7.0241  -11.2529   25.7251 C   0  0  0  0  0  0  0  0  0  0  0  0
    8.1247  -11.7484   25.0586 C   0  0  0  0  0  0  0  0  0  0  0  0
    8.3122  -13.1087   24.9725 C   0  0  0  0  0  0  0  0  0  0  0  0
    7.4416  -14.0249   25.5278 C   0  0  0  0  0  0  0  0  0  0  0  0
    8.8805  -17.4586   22.8555 C   0  0  0  0  0  0  0  0  0  0  0  0
    9.2077  -18.6883   22.8677 O   0  0  0  0  0  0  0  0  0  0  0  0
   10.9453  -15.0158   19.9184 O   0  0  0  0  0  0  0  0  0  0  0  0
   10.5288  -16.3202   19.7246 C   0  0  0  0  0  0  0  0  0  0  0  0
   10.5692  -17.1514   21.0020 C   0  0  2  0  0  0  0  0  0  0  0  0
    9.5723  -16.6239   21.9538 N   0  0  0  0  0  0  0  0  0  0  0  0
   11.8992  -17.1914   21.6064 C   0  0  0  0  0  0  0  0  0  0  0  0
   12.8930  -17.5477   20.8915 O   0  0  0  0  0  0  0  0  0  0  0  0
   12.1358  -16.8492   22.9581 N   0  0  0  0  0  0  0  0  0  0  0  0
   13.4581  -16.9450   23.5607 C   0  0  0  0  0  0  0  0  0  0  0  0
   13.3153  -17.8238   24.7634 C   0  0  0  0  0  0  0  0  0  0  0  0
   14.1534  -18.9243   24.8452 O   0  0  0  0  0  0  0  0  0  0  0  0
   12.4736  -17.5917   25.6768 O   0  0  0  0  0  0  0  0  0  0  0  0
  2  1  1  1
  2  3  1  0
  2 13  1  0
  3  4  1  0
  4  5  2  0
  6  5  1  0
  7  6  1  0
  8  7  2  0
  9  8  1  0
 10  9  2  0
 10 11  1  0
 11 12  2  0
 12  7  1  0
 12  4  1  0
 13 14  2  0
 16 15  1  0
 17 16  1  6
 18 13  1  0
 18 17  1  0
 19 17  1  0
 19 20  2  0
 21 19  1  0
 22 21  1  0
 22 23  1  0
 23 24  1  0
 25 23  2  0
M  END
$$$$
