WSG.pdb
     RDKit          3D

 25 26  0  0  1  0  0  0  0  0999 V2000
    6.8709  -17.3455   25.7060 N   0  0  0  0  0  0  0  0  0  0  0  0
    7.3700  -16.3392   24.7853 C   0  0  1  0  0  0  0  0  0  0  0  0
    8.6989  -15.8160   25.2646 C   0  0  0  0  0  0  0  0  0  0  0  0
    8.4476  -14.8794   26.3863 C   0  0  0  0  0  0  0  0  0  0  0  0
    8.7559  -15.0051   27.7240 C   0  0  0  0  0  0  0  0  0  0  0  0
    8.3230  -13.8953   28.3266 N   0  0  0  0  0  0  0  0  0  0  0  0
    7.7505  -13.0523   27.4627 C   0  0  0  0  0  0  0  0  0  0  0  0
    7.1569  -11.7961   27.5834 C   0  0  0  0  0  0  0  0  0  0  0  0
    6.6281  -11.1229   26.5050 C   0  0  0  0  0  0  0  0  0  0  0  0
    6.6986  -11.7314   25.2697 C   0  0  0  0  0  0  0  0  0  0  0  0
    7.2850  -12.9707   25.1546 C   0  0  0  0  0  0  0  0  0  0  0  0
    7.8179  -13.6538   26.2293 C   0  0  0  0  0  0  0  0  0  0  0  0
    7.5011  -16.9501   23.4356 C   0  0  0  0  0  0  0  0  0  0  0  0
    7.6934  -18.1995   23.2892 O   0  0  0  0  0  0  0  0  0  0  0  0
    7.8951  -14.5575   19.8125 O   0  0  0  0  0  0  0  0  0  0  0  0
    7.2766  -15.7939   19.8496 C   0  0  0  0  0  0  0  0  0  0  0  0
    7.8293  -16.7008   20.9433 C   0  0  2  0  0  0  0  0  0  0  0  0
    7.4187  -16.1758   22.2600 N   0  0  0  0  0  0  0  0  0  0  0  0
    9.2812  -16.8513   20.8701 C   0  0  0  0  0  0  0  0  0  0  0  0
   10.0080  -16.2698   21.7414 O   0  0  0  0  0  0  0  0  0  0  0  0
    9.9211  -17.6193   19.8697 N   0  0  0  0  0  0  0  0  0  0  0  0
   11.3603  -17.8418   19.8669 C   0  0  0  0  0  0  0  0  0  0  0  0
   11.6765  -18.5675   18.5971 C   0  0  0  0  0  0  0  0  0  0  0  0
   10.8304  -19.6028   18.2333 O   0  0  0  0  0  0  0  0  0  0  0  0
   12.6670  -18.2665   17.8725 O   0  0  0  0  0  0  0  0  0  0  0  0
  2  1  1  1
  2  3  1  0
  2 13  1  0
  3  4  1  0
  4  5  2  0
  6  5  1  0
  7  6  1  0
  8  7  2  0
  9  8  1  0
 10  9  2  0
 10 11  1  0
 11 12  2  0
 12  7  1  0
 12  4  1  0
 13 14  2  0
 16 15  1  0
 17 16  1  6
 18 13  1  0
 18 17  1  0
 19 17  1  0
 19 20  2  0
 21 19  1  0
 22 21  1  0
 22 23  1  0
 23 24  1  0
 25 23  2  0
M  END
$$$$
