WSG.pdb
     RDKit          3D

 25 26  0  0  1  0  0  0  0  0999 V2000
    6.6206  -17.7838   24.3171 N   0  0  0  0  0  0  0  0  0  0  0  0
    7.0000  -16.5621   23.6294 C   0  0  1  0  0  0  0  0  0  0  0  0
    7.9688  -15.7754   24.4732 C   0  0  0  0  0  0  0  0  0  0  0  0
    7.1856  -14.9308   25.4070 C   0  0  0  0  0  0  0  0  0  0  0  0
    6.1113  -15.2630   26.2043 C   0  0  0  0  0  0  0  0  0  0  0  0
    5.7588  -14.1546   26.8596 N   0  0  0  0  0  0  0  0  0  0  0  0
    6.5384  -13.1184   26.5381 C   0  0  0  0  0  0  0  0  0  0  0  0
    6.5842  -11.7813   26.9318 C   0  0  0  0  0  0  0  0  0  0  0  0
    7.5146  -10.8969   26.4342 C   0  0  0  0  0  0  0  0  0  0  0  0
    8.4251  -11.3716   25.5140 C   0  0  0  0  0  0  0  0  0  0  0  0
    8.3768  -12.6913   25.1280 C   0  0  0  0  0  0  0  0  0  0  0  0
    7.4481  -13.5859   25.6208 C   0  0  0  0  0  0  0  0  0  0  0  0
    7.6119  -16.9205   22.3220 C   0  0  0  0  0  0  0  0  0  0  0  0
    8.2245  -18.0236   22.1568 O   0  0  0  0  0  0  0  0  0  0  0  0
    8.1965  -13.9146   19.2534 O   0  0  0  0  0  0  0  0  0  0  0  0
    7.9928  -15.2477   18.9470 C   0  0  0  0  0  0  0  0  0  0  0  0
    8.4529  -16.1878   20.0554 C   0  0  2  0  0  0  0  0  0  0  0  0
    7.5418  -16.0575   21.2091 N   0  0  0  0  0  0  0  0  0  0  0  0
    9.8390  -15.9525   20.4546 C   0  0  0  0  0  0  0  0  0  0  0  0
   10.0815  -15.1091   21.3795 O   0  0  0  0  0  0  0  0  0  0  0  0
   10.9314  -16.6237   19.8577 N   0  0  0  0  0  0  0  0  0  0  0  0
   12.3014  -16.4277   20.3109 C   0  0  0  0  0  0  0  0  0  0  0  0
   13.1784  -17.1604   19.3447 C   0  0  0  0  0  0  0  0  0  0  0  0
   13.9695  -16.3948   18.5032 O   0  0  0  0  0  0  0  0  0  0  0  0
   13.2118  -18.4220   19.2815 O   0  0  0  0  0  0  0  0  0  0  0  0
  2  1  1  1
  2  3  1  0
  2 13  1  0
  3  4  1  0
  4  5  2  0
  6  5  1  0
  7  6  1  0
  8  7  2  0
  9  8  1  0
 10  9  2  0
 10 11  1  0
 11 12  2  0
 12  7  1  0
 12  4  1  0
 13 14  2  0
 16 15  1  0
 17 16  1  6
 18 13  1  0
 18 17  1  0
 19 17  1  0
 19 20  2  0
 21 19  1  0
 22 21  1  0
 22 23  1  0
 23 24  1  0
 25 23  2  0
M  END
$$$$
