QKF.pdb
     RDKit          3D

 30 30  0  0  1  0  0  0  0  0999 V2000
   18.3834  -14.0958  -18.3335 N   0  0  0  0  0  0  0  0  0  0  0  0
   18.9584  -15.2615  -18.9339 C   0  0  0  0  0  0  0  0  0  0  0  0
   18.2090  -16.2668  -19.0153 O   0  0  0  0  0  0  0  0  0  0  0  0
   20.3465  -15.2210  -19.4071 C   0  0  0  0  0  0  0  0  0  0  0  0
   21.0422  -13.9171  -19.2022 C   0  0  0  0  0  0  0  0  0  0  0  0
   21.0299  -13.0032  -20.3848 C   0  0  2  0  0  0  0  0  0  0  0  0
   22.0625  -13.3267  -21.3417 N   0  0  0  0  0  0  0  0  0  0  0  0
   21.1384  -11.5634  -19.9655 C   0  0  0  0  0  0  0  0  0  0  0  0
   22.2612  -11.1432  -19.5577 O   0  0  0  0  0  0  0  0  0  0  0  0
   20.0432  -10.7030  -20.0183 N   0  0  0  0  0  0  0  0  0  0  0  0
   20.2319   -9.2693  -19.6734 C   0  0  1  0  0  0  0  0  0  0  0  0
   19.0376   -8.5259  -20.1586 C   0  0  0  0  0  0  0  0  0  0  0  0
   18.9123   -7.0882  -19.7988 C   0  0  0  0  0  0  0  0  0  0  0  0
   19.2881   -6.1694  -20.9595 C   0  0  0  0  0  0  0  0  0  0  0  0
   19.1308   -4.7418  -20.4715 C   0  0  0  0  0  0  0  0  0  0  0  0
   19.5092   -3.8777  -21.5820 N   0  0  0  0  0  0  0  0  0  0  0  0
   20.2973   -9.1708  -18.1833 C   0  0  0  0  0  0  0  0  0  0  0  0
   19.5601   -9.9607  -17.4999 O   0  0  0  0  0  0  0  0  0  0  0  0
   21.1345   -8.2538  -17.5217 N   0  0  0  0  0  0  0  0  0  0  0  0
   21.2238   -8.1609  -16.0695 C   0  0  1  0  0  0  0  0  0  0  0  0
   22.6157   -8.0197  -15.5877 C   0  0  0  0  0  0  0  0  0  0  0  0
   22.6527   -7.9112  -14.1222 C   0  0  0  0  0  0  0  0  0  0  0  0
   22.8307   -8.9751  -13.2702 C   0  0  0  0  0  0  0  0  0  0  0  0
   22.8636   -8.8514  -11.8915 C   0  0  0  0  0  0  0  0  0  0  0  0
   22.7064   -7.5787  -11.3722 C   0  0  0  0  0  0  0  0  0  0  0  0
   22.5260   -6.4848  -12.1762 C   0  0  0  0  0  0  0  0  0  0  0  0
   22.4998   -6.6519  -13.5361 C   0  0  0  0  0  0  0  0  0  0  0  0
   20.2440   -7.1890  -15.5910 C   0  0  0  0  0  0  0  0  0  0  0  0
   20.0895   -5.9754  -16.2287 O   0  0  0  0  0  0  0  0  0  0  0  0
   19.5247   -7.4247  -14.6037 O   0  0  0  0  0  0  0  0  0  0  0  0
  2  1  1  0
  3  2  2  0
  4  2  1  0
  5  6  1  0
  5  4  1  0
  6  8  1  0
  6  7  1  6
  8  9  2  0
 10 11  1  0
 10  8  1  0
 11 12  1  1
 13 12  1  0
 13 14  1  0
 15 14  1  0
 16 15  1  0
 17 18  2  0
 17 11  1  0
 19 17  1  0
 20 19  1  0
 20 21  1  6
 21 22  1  0
 22 23  2  0
 23 24  1  0
 25 24  2  0
 26 25  1  0
 27 26  2  0
 27 22  1  0
 28 20  1  0
 29 28  1  0
 30 28  2  0
M  END
$$$$
