QKF.pdb
     RDKit          3D

 30 30  0  0  1  0  0  0  0  0999 V2000
   29.4763  -24.5955  -17.4288 N   0  0  0  0  0  0  0  0  0  0  0  0
   29.3857  -23.1904  -17.1692 C   0  0  0  0  0  0  0  0  0  0  0  0
   29.7850  -22.8113  -16.0397 O   0  0  0  0  0  0  0  0  0  0  0  0
   28.8495  -22.2973  -18.2023 C   0  0  0  0  0  0  0  0  0  0  0  0
   27.7523  -21.3954  -17.7452 C   0  0  0  0  0  0  0  0  0  0  0  0
   26.4877  -22.0891  -17.3536 C   0  0  2  0  0  0  0  0  0  0  0  0
   25.9046  -22.8305  -18.4476 N   0  0  0  0  0  0  0  0  0  0  0  0
   25.4863  -21.1224  -16.7848 C   0  0  0  0  0  0  0  0  0  0  0  0
   25.9193  -20.1403  -16.1129 O   0  0  0  0  0  0  0  0  0  0  0  0
   24.1168  -21.2889  -16.9828 N   0  0  0  0  0  0  0  0  0  0  0  0
   23.1765  -20.2856  -16.4179 C   0  0  1  0  0  0  0  0  0  0  0  0
   21.9702  -20.2547  -17.2887 C   0  0  0  0  0  0  0  0  0  0  0  0
   21.3443  -18.9360  -17.5737 C   0  0  0  0  0  0  0  0  0  0  0  0
   20.0995  -19.0667  -18.4489 C   0  0  0  0  0  0  0  0  0  0  0  0
   19.5815  -17.6642  -18.7055 C   0  0  0  0  0  0  0  0  0  0  0  0
   18.4142  -17.8023  -19.5666 N   0  0  0  0  0  0  0  0  0  0  0  0
   22.7838  -20.7561  -15.0545 C   0  0  0  0  0  0  0  0  0  0  0  0
   22.5621  -22.0049  -14.8948 O   0  0  0  0  0  0  0  0  0  0  0  0
   22.6572  -19.8815  -13.9597 N   0  0  0  0  0  0  0  0  0  0  0  0
   22.2815  -20.3272  -12.6234 C   0  0  1  0  0  0  0  0  0  0  0  0
   22.7470  -19.4097  -11.5600 C   0  0  0  0  0  0  0  0  0  0  0  0
   22.3660  -19.9127  -10.2324 C   0  0  0  0  0  0  0  0  0  0  0  0
   23.1348  -20.7651   -9.4762 C   0  0  0  0  0  0  0  0  0  0  0  0
   22.7579  -21.2268   -8.2264 C   0  0  0  0  0  0  0  0  0  0  0  0
   21.5389  -20.7909   -7.7383 C   0  0  0  0  0  0  0  0  0  0  0  0
   20.7344  -19.9418   -8.4506 C   0  0  0  0  0  0  0  0  0  0  0  0
   21.1458  -19.5088   -9.6840 C   0  0  0  0  0  0  0  0  0  0  0  0
   20.8684  -20.6972  -12.6221 C   0  0  0  0  0  0  0  0  0  0  0  0
   20.4406  -21.8330  -11.9662 O   0  0  0  0  0  0  0  0  0  0  0  0
   20.0155  -20.0047  -13.2058 O   0  0  0  0  0  0  0  0  0  0  0  0
  2  1  1  0
  3  2  2  0
  4  2  1  0
  5  6  1  0
  5  4  1  0
  6  8  1  0
  6  7  1  6
  8  9  2  0
 10 11  1  0
 10  8  1  0
 11 12  1  6
 13 12  1  0
 13 14  1  0
 15 14  1  0
 16 15  1  0
 17 18  2  0
 17 11  1  0
 19 17  1  0
 20 19  1  0
 20 21  1  1
 21 22  1  0
 22 23  2  0
 23 24  1  0
 25 24  2  0
 26 25  1  0
 27 26  2  0
 27 22  1  0
 28 20  1  0
 29 28  1  0
 30 28  2  0
M  END
$$$$
