QKF.pdb
     RDKit          3D

 30 30  0  0  1  0  0  0  0  0999 V2000
   14.9607  -14.3938  -15.0798 N   0  0  0  0  0  0  0  0  0  0  0  0
   15.5561  -15.6648  -15.3625 C   0  0  0  0  0  0  0  0  0  0  0  0
   14.8532  -16.6733  -15.1026 O   0  0  0  0  0  0  0  0  0  0  0  0
   16.9109  -15.7199  -15.9228 C   0  0  0  0  0  0  0  0  0  0  0  0
   17.5275  -14.3914  -16.2073 C   0  0  0  0  0  0  0  0  0  0  0  0
   17.2808  -13.8634  -17.5837 C   0  0  2  0  0  0  0  0  0  0  0  0
   17.9365  -14.6512  -18.6015 N   0  0  0  0  0  0  0  0  0  0  0  0
   17.6866  -12.4201  -17.6975 C   0  0  0  0  0  0  0  0  0  0  0  0
   18.9106  -12.1571  -17.8878 O   0  0  0  0  0  0  0  0  0  0  0  0
   16.7536  -11.3894  -17.5985 N   0  0  0  0  0  0  0  0  0  0  0  0
   17.2030   -9.9855  -17.7912 C   0  0  1  0  0  0  0  0  0  0  0  0
   15.9945   -9.1529  -18.0372 C   0  0  0  0  0  0  0  0  0  0  0  0
   15.4712   -9.0693  -19.4270 C   0  0  0  0  0  0  0  0  0  0  0  0
   14.1709   -9.8514  -19.6006 C   0  0  0  0  0  0  0  0  0  0  0  0
   13.7067   -9.6399  -21.0291 C   0  0  0  0  0  0  0  0  0  0  0  0
   12.4834  -10.4153  -21.1889 N   0  0  0  0  0  0  0  0  0  0  0  0
   17.8511   -9.5430  -16.5190 C   0  0  0  0  0  0  0  0  0  0  0  0
   17.4064  -10.0272  -15.4225 O   0  0  0  0  0  0  0  0  0  0  0  0
   18.9202   -8.6287  -16.4927 N   0  0  0  0  0  0  0  0  0  0  0  0
   19.6204   -8.2568  -15.2692 C   0  0  1  0  0  0  0  0  0  0  0  0
   21.0827   -8.1345  -15.4589 C   0  0  0  0  0  0  0  0  0  0  0  0
   21.7286   -7.6388  -14.2351 C   0  0  0  0  0  0  0  0  0  0  0  0
   21.9248   -6.3094  -13.9459 C   0  0  0  0  0  0  0  0  0  0  0  0
   22.5349   -5.8627  -12.7859 C   0  0  0  0  0  0  0  0  0  0  0  0
   22.9592   -6.8272  -11.8892 C   0  0  0  0  0  0  0  0  0  0  0  0
   22.7884   -8.1649  -12.1285 C   0  0  0  0  0  0  0  0  0  0  0  0
   22.1794   -8.5637  -13.2895 C   0  0  0  0  0  0  0  0  0  0  0  0
   18.9267   -7.1338  -14.6435 C   0  0  0  0  0  0  0  0  0  0  0  0
   18.8201   -7.0513  -13.2705 O   0  0  0  0  0  0  0  0  0  0  0  0
   18.4169   -6.2254  -15.3236 O   0  0  0  0  0  0  0  0  0  0  0  0
  2  1  1  0
  3  2  2  0
  4  2  1  0
  5  6  1  0
  5  4  1  0
  6  8  1  0
  6  7  1  6
  8  9  2  0
 10 11  1  0
 10  8  1  0
 11 12  1  1
 13 12  1  0
 13 14  1  0
 15 14  1  0
 16 15  1  0
 17 18  2  0
 17 11  1  0
 19 17  1  0
 20 19  1  0
 20 21  1  6
 21 22  1  0
 22 23  2  0
 23 24  1  0
 25 24  2  0
 26 25  1  0
 27 26  2  0
 27 22  1  0
 28 20  1  0
 29 28  1  0
 30 28  2  0
M  END
$$$$
