QKF.pdb
     RDKit          3D

 30 30  0  0  1  0  0  0  0  0999 V2000
   29.4424  -18.8480  -18.0622 N   0  0  0  0  0  0  0  0  0  0  0  0
   28.0186  -18.7764  -17.9297 C   0  0  0  0  0  0  0  0  0  0  0  0
   27.3530  -19.1083  -18.9425 O   0  0  0  0  0  0  0  0  0  0  0  0
   27.4319  -18.3341  -16.6599 C   0  0  0  0  0  0  0  0  0  0  0  0
   28.4185  -17.8816  -15.6361 C   0  0  0  0  0  0  0  0  0  0  0  0
   28.7103  -18.8758  -14.5589 C   0  0  2  0  0  0  0  0  0  0  0  0
   28.9841  -20.1931  -15.0845 N   0  0  0  0  0  0  0  0  0  0  0  0
   27.5950  -18.9360  -13.5523 C   0  0  0  0  0  0  0  0  0  0  0  0
   27.0852  -17.8453  -13.1599 O   0  0  0  0  0  0  0  0  0  0  0  0
   27.1245  -20.1503  -13.0557 N   0  0  0  0  0  0  0  0  0  0  0  0
   25.9874  -20.1487  -12.0981 C   0  0  1  0  0  0  0  0  0  0  0  0
   24.8173  -20.7614  -12.7835 C   0  0  0  0  0  0  0  0  0  0  0  0
   23.5101  -20.7625  -12.0740 C   0  0  0  0  0  0  0  0  0  0  0  0
   22.4106  -21.4345  -12.8938 C   0  0  0  0  0  0  0  0  0  0  0  0
   21.1122  -21.2653  -12.1280 C   0  0  0  0  0  0  0  0  0  0  0  0
   20.0561  -21.8064  -12.9736 N   0  0  0  0  0  0  0  0  0  0  0  0
   26.3774  -21.0049  -10.9365 C   0  0  0  0  0  0  0  0  0  0  0  0
   27.4328  -21.7177  -11.0480 O   0  0  0  0  0  0  0  0  0  0  0  0
   25.6332  -21.0459   -9.7432 N   0  0  0  0  0  0  0  0  0  0  0  0
   26.2474  -21.0487   -8.4211 C   0  0  1  0  0  0  0  0  0  0  0  0
   27.3218  -20.0404   -8.2848 C   0  0  0  0  0  0  0  0  0  0  0  0
   27.8515  -20.0234   -6.9137 C   0  0  0  0  0  0  0  0  0  0  0  0
   27.4822  -19.1144   -5.9510 C   0  0  0  0  0  0  0  0  0  0  0  0
   27.9926  -19.1163   -4.6639 C   0  0  0  0  0  0  0  0  0  0  0  0
   28.9211  -20.0957   -4.3590 C   0  0  0  0  0  0  0  0  0  0  0  0
   29.3236  -21.0253   -5.2807 C   0  0  0  0  0  0  0  0  0  0  0  0
   28.7930  -20.9874   -6.5436 C   0  0  0  0  0  0  0  0  0  0  0  0
   25.1974  -21.0548   -7.4056 C   0  0  0  0  0  0  0  0  0  0  0  0
   24.0029  -20.4008   -7.6267 O   0  0  0  0  0  0  0  0  0  0  0  0
   25.3466  -21.6458   -6.3211 O   0  0  0  0  0  0  0  0  0  0  0  0
  2  1  1  0
  3  2  2  0
  4  2  1  0
  5  6  1  0
  5  4  1  0
  6  8  1  0
  6  7  1  6
  8  9  2  0
 10 11  1  0
 10  8  1  0
 11 12  1  6
 13 12  1  0
 13 14  1  0
 15 14  1  0
 16 15  1  0
 17 18  2  0
 17 11  1  0
 19 17  1  0
 20 19  1  0
 20 21  1  1
 21 22  1  0
 22 23  2  0
 23 24  1  0
 25 24  2  0
 26 25  1  0
 27 26  2  0
 27 22  1  0
 28 20  1  0
 29 28  1  0
 30 28  2  0
M  END
$$$$
