QKF.pdb
     RDKit          3D

 30 30  0  0  1  0  0  0  0  0999 V2000
   17.4963  -18.7094  -15.2449 N   0  0  0  0  0  0  0  0  0  0  0  0
   18.0729  -18.9886  -13.9644 C   0  0  0  0  0  0  0  0  0  0  0  0
   17.3779  -19.6904  -13.1877 O   0  0  0  0  0  0  0  0  0  0  0  0
   19.4013  -18.4581  -13.6385 C   0  0  0  0  0  0  0  0  0  0  0  0
   20.3968  -19.4810  -13.2039 C   0  0  0  0  0  0  0  0  0  0  0  0
   21.6629  -19.5059  -13.9978 C   0  0  2  0  0  0  0  0  0  0  0  0
   21.4559  -19.9683  -15.3505 N   0  0  0  0  0  0  0  0  0  0  0  0
   22.7191  -20.3329  -13.3186 C   0  0  0  0  0  0  0  0  0  0  0  0
   22.3648  -21.0894  -12.3669 O   0  0  0  0  0  0  0  0  0  0  0  0
   24.0546  -20.2795  -13.7137 N   0  0  0  0  0  0  0  0  0  0  0  0
   25.0253  -21.2327  -13.1146 C   0  0  1  0  0  0  0  0  0  0  0  0
   26.0566  -21.5355  -14.1437 C   0  0  0  0  0  0  0  0  0  0  0  0
   25.9495  -22.8188  -14.8879 C   0  0  0  0  0  0  0  0  0  0  0  0
   27.0352  -22.9592  -15.9528 C   0  0  0  0  0  0  0  0  0  0  0  0
   27.4169  -24.4260  -16.0145 C   0  0  0  0  0  0  0  0  0  0  0  0
   26.1722  -25.1825  -15.9751 N   0  0  0  0  0  0  0  0  0  0  0  0
   25.6756  -20.5438  -11.9583 C   0  0  0  0  0  0  0  0  0  0  0  0
   25.8712  -19.2836  -12.0473 O   0  0  0  0  0  0  0  0  0  0  0  0
   26.0681  -21.2282  -10.7933 N   0  0  0  0  0  0  0  0  0  0  0  0
   26.9667  -20.6561   -9.7981 C   0  0  1  0  0  0  0  0  0  0  0  0
   26.5159  -20.8995   -8.4099 C   0  0  0  0  0  0  0  0  0  0  0  0
   27.4288  -20.2686   -7.4459 C   0  0  0  0  0  0  0  0  0  0  0  0
   27.3354  -18.9616   -7.0305 C   0  0  0  0  0  0  0  0  0  0  0  0
   28.2056  -18.3863   -6.1200 C   0  0  0  0  0  0  0  0  0  0  0  0
   29.2119  -19.1927   -5.6188 C   0  0  0  0  0  0  0  0  0  0  0  0
   29.3499  -20.5011   -5.9992 C   0  0  0  0  0  0  0  0  0  0  0  0
   28.4666  -21.0309   -6.9031 C   0  0  0  0  0  0  0  0  0  0  0  0
   28.3423  -21.0166  -10.1319 C   0  0  0  0  0  0  0  0  0  0  0  0
   29.3296  -20.0540  -10.1761 O   0  0  0  0  0  0  0  0  0  0  0  0
   28.6626  -22.1923  -10.3828 O   0  0  0  0  0  0  0  0  0  0  0  0
  2  1  1  0
  3  2  2  0
  4  2  1  0
  5  6  1  0
  5  4  1  0
  6  8  1  0
  6  7  1  6
  8  9  2  0
 10 11  1  0
 10  8  1  0
 11 12  1  6
 13 12  1  0
 13 14  1  0
 15 14  1  0
 16 15  1  0
 17 18  2  0
 17 11  1  0
 19 17  1  0
 20 19  1  0
 20 21  1  1
 21 22  1  0
 22 23  2  0
 23 24  1  0
 25 24  2  0
 26 25  1  0
 27 26  2  0
 27 22  1  0
 28 20  1  0
 29 28  1  0
 30 28  2  0
M  END
$$$$
