QKF.pdb
     RDKit          3D

 30 30  0  0  1  0  0  0  0  0999 V2000
   30.6885  -17.2612  -19.2614 N   0  0  0  0  0  0  0  0  0  0  0  0
   29.4523  -16.8451  -18.6710 C   0  0  0  0  0  0  0  0  0  0  0  0
   28.7069  -16.1369  -19.3932 O   0  0  0  0  0  0  0  0  0  0  0  0
   29.1322  -17.2548  -17.2991 C   0  0  0  0  0  0  0  0  0  0  0  0
   27.9485  -18.1542  -17.1722 C   0  0  0  0  0  0  0  0  0  0  0  0
   28.1960  -19.5793  -17.5489 C   0  0  2  0  0  0  0  0  0  0  0  0
   28.6008  -19.7221  -18.9281 N   0  0  0  0  0  0  0  0  0  0  0  0
   26.9943  -20.4373  -17.2652 C   0  0  0  0  0  0  0  0  0  0  0  0
   25.9702  -20.2910  -17.9955 O   0  0  0  0  0  0  0  0  0  0  0  0
   26.9922  -21.3720  -16.2313 N   0  0  0  0  0  0  0  0  0  0  0  0
   25.7725  -22.1888  -15.9966 C   0  0  1  0  0  0  0  0  0  0  0  0
   26.2031  -23.5996  -15.8003 C   0  0  0  0  0  0  0  0  0  0  0  0
   26.8058  -24.3163  -16.9558 C   0  0  0  0  0  0  0  0  0  0  0  0
   27.1500  -25.7655  -16.6185 C   0  0  0  0  0  0  0  0  0  0  0  0
   27.7664  -26.3816  -17.8601 C   0  0  0  0  0  0  0  0  0  0  0  0
   28.0815  -27.7645  -17.5265 N   0  0  0  0  0  0  0  0  0  0  0  0
   25.1350  -21.6925  -14.7389 C   0  0  0  0  0  0  0  0  0  0  0  0
   25.9026  -21.2958  -13.7967 O   0  0  0  0  0  0  0  0  0  0  0  0
   23.7395  -21.6456  -14.5656 N   0  0  0  0  0  0  0  0  0  0  0  0
   23.1048  -21.2124  -13.3267 C   0  0  1  0  0  0  0  0  0  0  0  0
   23.7290  -19.9985  -12.7555 C   0  0  0  0  0  0  0  0  0  0  0  0
   24.4598  -20.3184  -11.5209 C   0  0  0  0  0  0  0  0  0  0  0  0
   25.8025  -20.6079  -11.4676 C   0  0  0  0  0  0  0  0  0  0  0  0
   26.4728  -20.9059  -10.2932 C   0  0  0  0  0  0  0  0  0  0  0  0
   25.7270  -20.9048   -9.1279 C   0  0  0  0  0  0  0  0  0  0  0  0
   24.3867  -20.6233   -9.1252 C   0  0  0  0  0  0  0  0  0  0  0  0
   23.7622  -20.3335  -10.3101 C   0  0  0  0  0  0  0  0  0  0  0  0
   21.6556  -21.2015  -13.5098 C   0  0  0  0  0  0  0  0  0  0  0  0
   20.8124  -21.0449  -12.4292 O   0  0  0  0  0  0  0  0  0  0  0  0
   21.1427  -21.3304  -14.6359 O   0  0  0  0  0  0  0  0  0  0  0  0
  2  1  1  0
  3  2  2  0
  4  2  1  0
  5  6  1  0
  5  4  1  0
  6  8  1  0
  6  7  1  6
  8  9  2  0
 10 11  1  0
 10  8  1  0
 11 12  1  1
 13 12  1  0
 13 14  1  0
 15 14  1  0
 16 15  1  0
 17 18  2  0
 17 11  1  0
 19 17  1  0
 20 19  1  0
 20 21  1  6
 21 22  1  0
 22 23  2  0
 23 24  1  0
 25 24  2  0
 26 25  1  0
 27 26  2  0
 27 22  1  0
 28 20  1  0
 29 28  1  0
 30 28  2  0
M  END
$$$$
