QKF.pdb
     RDKit          3D

 30 30  0  0  1  0  0  0  0  0999 V2000
   29.4208  -25.1497  -17.6578 N   0  0  0  0  0  0  0  0  0  0  0  0
   29.5228  -24.2397  -16.5571 C   0  0  0  0  0  0  0  0  0  0  0  0
   28.4369  -23.8042  -16.0991 O   0  0  0  0  0  0  0  0  0  0  0  0
   30.8467  -23.8766  -16.0396 C   0  0  0  0  0  0  0  0  0  0  0  0
   31.9937  -24.5320  -16.7332 C   0  0  0  0  0  0  0  0  0  0  0  0
   32.2166  -25.9640  -16.3680 C   0  0  2  0  0  0  0  0  0  0  0  0
   32.5188  -26.1343  -14.9658 N   0  0  0  0  0  0  0  0  0  0  0  0
   33.2942  -26.5836  -17.2140 C   0  0  0  0  0  0  0  0  0  0  0  0
   33.2497  -26.4005  -18.4662 O   0  0  0  0  0  0  0  0  0  0  0  0
   34.3198  -27.3408  -16.6507 N   0  0  0  0  0  0  0  0  0  0  0  0
   35.3555  -27.9308  -17.5390 C   0  0  1  0  0  0  0  0  0  0  0  0
   36.4167  -28.5127  -16.6731 C   0  0  0  0  0  0  0  0  0  0  0  0
   37.5461  -29.2239  -17.3294 C   0  0  0  0  0  0  0  0  0  0  0  0
   38.5428  -29.7811  -16.3152 C   0  0  0  0  0  0  0  0  0  0  0  0
   39.6694  -30.4259  -17.1001 C   0  0  0  0  0  0  0  0  0  0  0  0
   40.5571  -31.0437  -16.1236 N   0  0  0  0  0  0  0  0  0  0  0  0
   34.7056  -29.0273  -18.3199 C   0  0  0  0  0  0  0  0  0  0  0  0
   34.0254  -29.8969  -17.6755 O   0  0  0  0  0  0  0  0  0  0  0  0
   34.8145  -29.1267  -19.7191 N   0  0  0  0  0  0  0  0  0  0  0  0
   34.2037  -30.2020  -20.4912 C   0  0  1  0  0  0  0  0  0  0  0  0
   32.9604  -29.7831  -21.1754 C   0  0  0  0  0  0  0  0  0  0  0  0
   32.4673  -30.8478  -22.0609 C   0  0  0  0  0  0  0  0  0  0  0  0
   32.6745  -30.8844  -23.4192 C   0  0  0  0  0  0  0  0  0  0  0  0
   32.2021  -31.8977  -24.2361 C   0  0  0  0  0  0  0  0  0  0  0  0
   31.4874  -32.9132  -23.6260 C   0  0  0  0  0  0  0  0  0  0  0  0
   31.2524  -32.9251  -22.2768 C   0  0  0  0  0  0  0  0  0  0  0  0
   31.7382  -31.9023  -21.5048 C   0  0  0  0  0  0  0  0  0  0  0  0
   35.2308  -30.8529  -21.3006 C   0  0  0  0  0  0  0  0  0  0  0  0
   36.3211  -30.1413  -21.7567 O   0  0  0  0  0  0  0  0  0  0  0  0
   35.1547  -32.0582  -21.5992 O   0  0  0  0  0  0  0  0  0  0  0  0
  2  1  1  0
  3  2  2  0
  4  2  1  0
  5  6  1  0
  5  4  1  0
  6  8  1  0
  6  7  1  1
  8  9  2  0
 10 11  1  0
 10  8  1  0
 11 12  1  1
 13 12  1  0
 13 14  1  0
 15 14  1  0
 16 15  1  0
 17 18  2  0
 17 11  1  0
 19 17  1  0
 20 19  1  0
 20 21  1  6
 21 22  1  0
 22 23  2  0
 23 24  1  0
 25 24  2  0
 26 25  1  0
 27 26  2  0
 27 22  1  0
 28 20  1  0
 29 28  1  0
 30 28  2  0
M  END
$$$$
