QKF.pdb
     RDKit          3D

 30 30  0  0  1  0  0  0  0  0999 V2000
   25.5490  -28.4985  -19.8374 N   0  0  0  0  0  0  0  0  0  0  0  0
   25.7476  -29.9019  -19.6347 C   0  0  0  0  0  0  0  0  0  0  0  0
   25.5092  -30.6411  -20.6224 O   0  0  0  0  0  0  0  0  0  0  0  0
   26.2044  -30.3860  -18.3273 C   0  0  0  0  0  0  0  0  0  0  0  0
   26.3995  -29.3241  -17.2975 C   0  0  0  0  0  0  0  0  0  0  0  0
   27.7412  -28.6659  -17.3165 C   0  0  2  0  0  0  0  0  0  0  0  0
   28.7530  -29.4586  -16.6573 N   0  0  0  0  0  0  0  0  0  0  0  0
   27.6840  -27.2881  -16.7174 C   0  0  0  0  0  0  0  0  0  0  0  0
   27.8708  -27.1710  -15.4704 O   0  0  0  0  0  0  0  0  0  0  0  0
   27.4333  -26.1618  -17.4991 N   0  0  0  0  0  0  0  0  0  0  0  0
   27.4239  -24.8217  -16.8556 C   0  0  1  0  0  0  0  0  0  0  0  0
   28.0408  -23.8581  -17.8070 C   0  0  0  0  0  0  0  0  0  0  0  0
   29.3814  -23.3057  -17.4755 C   0  0  0  0  0  0  0  0  0  0  0  0
   30.5109  -24.2415  -17.9009 C   0  0  0  0  0  0  0  0  0  0  0  0
   31.8111  -23.6214  -17.4255 C   0  0  0  0  0  0  0  0  0  0  0  0
   32.8704  -24.5622  -17.7660 N   0  0  0  0  0  0  0  0  0  0  0  0
   25.9958  -24.4414  -16.6314 C   0  0  0  0  0  0  0  0  0  0  0  0
   25.1654  -24.6537  -17.5800 O   0  0  0  0  0  0  0  0  0  0  0  0
   25.5449  -23.8706  -15.4270 N   0  0  0  0  0  0  0  0  0  0  0  0
   24.1549  -23.4982  -15.1933 C   0  0  1  0  0  0  0  0  0  0  0  0
   23.8647  -23.2281  -13.7677 C   0  0  0  0  0  0  0  0  0  0  0  0
   22.4520  -22.8672  -13.5815 C   0  0  0  0  0  0  0  0  0  0  0  0
   21.4240  -23.7760  -13.4985 C   0  0  0  0  0  0  0  0  0  0  0  0
   20.0989  -23.4152  -13.3217 C   0  0  0  0  0  0  0  0  0  0  0  0
   19.8247  -22.0624  -13.2269 C   0  0  0  0  0  0  0  0  0  0  0  0
   20.8113  -21.1155  -13.3032 C   0  0  0  0  0  0  0  0  0  0  0  0
   22.1100  -21.5161  -13.4786 C   0  0  0  0  0  0  0  0  0  0  0  0
   23.7623  -22.4804  -16.1647 C   0  0  0  0  0  0  0  0  0  0  0  0
   24.5735  -21.3911  -16.4071 O   0  0  0  0  0  0  0  0  0  0  0  0
   22.6949  -22.5651  -16.7981 O   0  0  0  0  0  0  0  0  0  0  0  0
  2  1  1  0
  3  2  2  0
  4  2  1  0
  5  6  1  0
  5  4  1  0
  6  8  1  0
  6  7  1  1
  8  9  2  0
 10 11  1  0
 10  8  1  0
 11 12  1  6
 13 12  1  0
 13 14  1  0
 15 14  1  0
 16 15  1  0
 17 18  2  0
 17 11  1  0
 19 17  1  0
 20 19  1  0
 20 21  1  1
 21 22  1  0
 22 23  2  0
 23 24  1  0
 25 24  2  0
 26 25  1  0
 27 26  2  0
 27 22  1  0
 28 20  1  0
 29 28  1  0
 30 28  2  0
M  END
$$$$
