QKF.pdb
     RDKit          3D

 30 30  0  0  1  0  0  0  0  0999 V2000
   17.8125  -21.3463  -11.5167 N   0  0  0  0  0  0  0  0  0  0  0  0
   17.6760  -20.1314  -12.2620 C   0  0  0  0  0  0  0  0  0  0  0  0
   16.5286  -19.8857  -12.7112 O   0  0  0  0  0  0  0  0  0  0  0  0
   18.8452  -19.2663  -12.4547 C   0  0  0  0  0  0  0  0  0  0  0  0
   20.0985  -19.7505  -11.8061 C   0  0  0  0  0  0  0  0  0  0  0  0
   21.2661  -19.9043  -12.7264 C   0  0  2  0  0  0  0  0  0  0  0  0
   20.8935  -20.4809  -13.9973 N   0  0  0  0  0  0  0  0  0  0  0  0
   22.3638  -20.7099  -12.0886 C   0  0  0  0  0  0  0  0  0  0  0  0
   22.0428  -21.7516  -11.4442 O   0  0  0  0  0  0  0  0  0  0  0  0
   23.7016  -20.3337  -12.1946 N   0  0  0  0  0  0  0  0  0  0  0  0
   24.7573  -21.2811  -11.7496 C   0  0  1  0  0  0  0  0  0  0  0  0
   25.6568  -21.5334  -12.9080 C   0  0  0  0  0  0  0  0  0  0  0  0
   25.2965  -22.6258  -13.8509 C   0  0  0  0  0  0  0  0  0  0  0  0
   26.3863  -22.8697  -14.8927 C   0  0  0  0  0  0  0  0  0  0  0  0
   25.8351  -23.8664  -15.8946 C   0  0  0  0  0  0  0  0  0  0  0  0
   26.8774  -24.0753  -16.8911 N   0  0  0  0  0  0  0  0  0  0  0  0
   25.5347  -20.6093  -10.6639 C   0  0  0  0  0  0  0  0  0  0  0  0
   25.0522  -19.5387  -10.1588 O   0  0  0  0  0  0  0  0  0  0  0  0
   26.7584  -21.1137  -10.1864 N   0  0  0  0  0  0  0  0  0  0  0  0
   27.4392  -20.5752   -9.0152 C   0  0  1  0  0  0  0  0  0  0  0  0
   26.5695  -20.5220   -7.8193 C   0  0  0  0  0  0  0  0  0  0  0  0
   27.3220  -20.0541   -6.6465 C   0  0  0  0  0  0  0  0  0  0  0  0
   27.7155  -20.8608   -5.6054 C   0  0  0  0  0  0  0  0  0  0  0  0
   28.4254  -20.4003   -4.5093 C   0  0  0  0  0  0  0  0  0  0  0  0
   28.7412  -19.0534   -4.4877 C   0  0  0  0  0  0  0  0  0  0  0  0
   28.3733  -18.2061   -5.4988 C   0  0  0  0  0  0  0  0  0  0  0  0
   27.6714  -18.7035   -6.5655 C   0  0  0  0  0  0  0  0  0  0  0  0
   28.7381  -21.2284   -8.8743 C   0  0  0  0  0  0  0  0  0  0  0  0
   29.8550  -20.5011   -8.5181 O   0  0  0  0  0  0  0  0  0  0  0  0
   28.8748  -22.4497   -9.0680 O   0  0  0  0  0  0  0  0  0  0  0  0
  2  1  1  0
  3  2  2  0
  4  2  1  0
  5  6  1  0
  5  4  1  0
  6  8  1  0
  6  7  1  6
  8  9  2  0
 10 11  1  0
 10  8  1  0
 11 12  1  6
 13 12  1  0
 13 14  1  0
 15 14  1  0
 16 15  1  0
 17 18  2  0
 17 11  1  0
 19 17  1  0
 20 19  1  0
 20 21  1  1
 21 22  1  0
 22 23  2  0
 23 24  1  0
 25 24  2  0
 26 25  1  0
 27 26  2  0
 27 22  1  0
 28 20  1  0
 29 28  1  0
 30 28  2  0
M  END
$$$$
