QKF.pdb
     RDKit          3D

 30 30  0  0  1  0  0  0  0  0999 V2000
   19.2334  -25.4896  -17.0106 N   0  0  0  0  0  0  0  0  0  0  0  0
   19.9753  -25.1230  -15.8422 C   0  0  0  0  0  0  0  0  0  0  0  0
   19.9241  -23.9112  -15.5139 O   0  0  0  0  0  0  0  0  0  0  0  0
   20.7307  -26.1485  -15.1141 C   0  0  0  0  0  0  0  0  0  0  0  0
   22.0752  -25.7155  -14.6335 C   0  0  0  0  0  0  0  0  0  0  0  0
   23.0585  -25.3972  -15.7131 C   0  0  2  0  0  0  0  0  0  0  0  0
   23.7316  -26.5748  -16.2098 N   0  0  0  0  0  0  0  0  0  0  0  0
   24.0621  -24.3752  -15.2560 C   0  0  0  0  0  0  0  0  0  0  0  0
   25.0286  -24.7670  -14.5376 O   0  0  0  0  0  0  0  0  0  0  0  0
   23.9458  -23.0308  -15.6046 N   0  0  0  0  0  0  0  0  0  0  0  0
   25.0075  -22.0793  -15.1833 C   0  0  1  0  0  0  0  0  0  0  0  0
   24.8545  -20.8415  -15.9950 C   0  0  0  0  0  0  0  0  0  0  0  0
   25.7630  -19.6990  -15.7101 C   0  0  0  0  0  0  0  0  0  0  0  0
   26.9180  -19.6195  -16.7062 C   0  0  0  0  0  0  0  0  0  0  0  0
   27.7055  -18.3643  -16.3818 C   0  0  0  0  0  0  0  0  0  0  0  0
   28.6978  -18.2104  -17.4376 N   0  0  0  0  0  0  0  0  0  0  0  0
   24.7721  -21.7525  -13.7438 C   0  0  0  0  0  0  0  0  0  0  0  0
   23.5644  -21.5842  -13.3596 O   0  0  0  0  0  0  0  0  0  0  0  0
   25.8212  -21.6309  -12.8142 N   0  0  0  0  0  0  0  0  0  0  0  0
   25.6299  -21.1310  -11.4581 C   0  0  1  0  0  0  0  0  0  0  0  0
   26.8902  -21.0711  -10.6851 C   0  0  0  0  0  0  0  0  0  0  0  0
   26.6589  -20.4947   -9.3528 C   0  0  0  0  0  0  0  0  0  0  0  0
   26.9864  -19.2080   -8.9972 C   0  0  0  0  0  0  0  0  0  0  0  0
   26.7590  -18.6835   -7.7361 C   0  0  0  0  0  0  0  0  0  0  0  0
   26.1701  -19.5210   -6.8055 C   0  0  0  0  0  0  0  0  0  0  0  0
   25.8241  -20.8112   -7.1077 C   0  0  0  0  0  0  0  0  0  0  0  0
   26.0669  -21.2905   -8.3683 C   0  0  0  0  0  0  0  0  0  0  0  0
   24.8108  -19.9225  -11.5048 C   0  0  0  0  0  0  0  0  0  0  0  0
   23.7355  -19.7696  -10.6541 O   0  0  0  0  0  0  0  0  0  0  0  0
   25.0569  -19.0021  -12.3048 O   0  0  0  0  0  0  0  0  0  0  0  0
  2  1  1  0
  3  2  2  0
  4  2  1  0
  5  6  1  0
  5  4  1  0
  6  8  1  0
  6  7  1  1
  8  9  2  0
 10 11  1  0
 10  8  1  0
 11 12  1  6
 13 12  1  0
 13 14  1  0
 15 14  1  0
 16 15  1  0
 17 18  2  0
 17 11  1  0
 19 17  1  0
 20 19  1  0
 20 21  1  6
 21 22  1  0
 22 23  2  0
 23 24  1  0
 25 24  2  0
 26 25  1  0
 27 26  2  0
 27 22  1  0
 28 20  1  0
 29 28  1  0
 30 28  2  0
M  END
$$$$
