QKF.pdb
     RDKit          3D

 30 30  0  0  1  0  0  0  0  0999 V2000
   29.5201  -16.8997  -15.8919 N   0  0  0  0  0  0  0  0  0  0  0  0
   28.4762  -17.0707  -16.8568 C   0  0  0  0  0  0  0  0  0  0  0  0
   28.8110  -16.9397  -18.0607 O   0  0  0  0  0  0  0  0  0  0  0  0
   27.1158  -17.3802  -16.4029 C   0  0  0  0  0  0  0  0  0  0  0  0
   26.9655  -17.5314  -14.9262 C   0  0  0  0  0  0  0  0  0  0  0  0
   27.3845  -18.8590  -14.3822 C   0  0  2  0  0  0  0  0  0  0  0  0
   27.3761  -19.8944  -15.3894 N   0  0  0  0  0  0  0  0  0  0  0  0
   26.5346  -19.2634  -13.2097 C   0  0  0  0  0  0  0  0  0  0  0  0
   25.9778  -18.3497  -12.5324 O   0  0  0  0  0  0  0  0  0  0  0  0
   26.3550  -20.6019  -12.8653 N   0  0  0  0  0  0  0  0  0  0  0  0
   25.4672  -20.9423  -11.7225 C   0  0  1  0  0  0  0  0  0  0  0  0
   25.0096  -22.3462  -11.9071 C   0  0  0  0  0  0  0  0  0  0  0  0
   24.2076  -22.6693  -13.1172 C   0  0  0  0  0  0  0  0  0  0  0  0
   24.8715  -23.7418  -13.9785 C   0  0  0  0  0  0  0  0  0  0  0  0
   24.0126  -23.9193  -15.2162 C   0  0  0  0  0  0  0  0  0  0  0  0
   24.7185  -24.8544  -16.0825 N   0  0  0  0  0  0  0  0  0  0  0  0
   26.2869  -20.8549  -10.4756 C   0  0  0  0  0  0  0  0  0  0  0  0
   27.5580  -20.9279  -10.5904 O   0  0  0  0  0  0  0  0  0  0  0  0
   25.7116  -20.6931   -9.2018 N   0  0  0  0  0  0  0  0  0  0  0  0
   26.4944  -20.6632   -7.9723 C   0  0  1  0  0  0  0  0  0  0  0  0
   27.5187  -19.5954   -7.9694 C   0  0  0  0  0  0  0  0  0  0  0  0
   28.1807  -19.5101   -6.6598 C   0  0  0  0  0  0  0  0  0  0  0  0
   27.8538  -18.5992   -5.6836 C   0  0  0  0  0  0  0  0  0  0  0  0
   28.4895  -18.5360   -4.4551 C   0  0  0  0  0  0  0  0  0  0  0  0
   29.5028  -19.4497   -4.2258 C   0  0  0  0  0  0  0  0  0  0  0  0
   29.8680  -20.3781   -5.1640 C   0  0  0  0  0  0  0  0  0  0  0  0
   29.2126  -20.4059   -6.3672 C   0  0  0  0  0  0  0  0  0  0  0  0
   25.5898  -20.7311   -6.8274 C   0  0  0  0  0  0  0  0  0  0  0  0
   26.0556  -21.1120   -5.5859 O   0  0  0  0  0  0  0  0  0  0  0  0
   24.3830  -20.4487   -6.9360 O   0  0  0  0  0  0  0  0  0  0  0  0
  2  1  1  0
  3  2  2  0
  4  2  1  0
  5  6  1  0
  5  4  1  0
  6  8  1  0
  6  7  1  6
  8  9  2  0
 10 11  1  0
 10  8  1  0
 11 12  1  6
 13 12  1  0
 13 14  1  0
 15 14  1  0
 16 15  1  0
 17 18  2  0
 17 11  1  0
 19 17  1  0
 20 19  1  0
 20 21  1  1
 21 22  1  0
 22 23  2  0
 23 24  1  0
 25 24  2  0
 26 25  1  0
 27 26  2  0
 27 22  1  0
 28 20  1  0
 29 28  1  0
 30 28  2  0
M  END
$$$$
