QLI.pdb
     RDKit          3D

 26 25  0  0  1  0  0  0  0  0999 V2000
   10.2314  -20.6557   23.6683 N   0  0  0  0  0  0  0  0  0  0  0  0
   10.1186  -20.2935   22.3100 C   0  0  0  0  0  0  0  0  0  0  0  0
   10.0694  -21.2449   21.4645 O   0  0  0  0  0  0  0  0  0  0  0  0
   10.0538  -18.9183   21.8373 C   0  0  0  0  0  0  0  0  0  0  0  0
    8.7792  -18.4653   21.2204 C   0  0  0  0  0  0  0  0  0  0  0  0
    8.7133  -16.9950   20.8964 C   0  0  2  0  0  0  0  0  0  0  0  0
    9.5961  -16.6814   19.8176 N   0  0  0  0  0  0  0  0  0  0  0  0
    9.0349  -16.1950   22.1324 C   0  0  0  0  0  0  0  0  0  0  0  0
   10.1960  -15.8111   22.4105 O   0  0  0  0  0  0  0  0  0  0  0  0
    7.7152  -12.0992   25.4295 C   0  0  0  0  0  0  0  0  0  0  0  0
    7.0954  -13.4172   25.8232 C   0  0  1  0  0  0  0  0  0  0  0  0
    5.6646  -13.0766   26.2721 C   0  0  0  0  0  0  0  0  0  0  0  0
    6.9660  -14.3924   24.7232 C   0  0  0  0  0  0  0  0  0  0  0  0
    8.1992  -15.0940   24.2570 C   0  0  2  0  0  0  0  0  0  0  0  0
    7.9926  -15.8461   23.0381 N   0  0  0  0  0  0  0  0  0  0  0  0
    8.9758  -15.7943   25.2802 C   0  0  0  0  0  0  0  0  0  0  0  0
    8.6788  -16.9621   25.6095 O   0  0  0  0  0  0  0  0  0  0  0  0
    9.7956  -14.1835   30.2111 C   0  0  0  0  0  0  0  0  0  0  0  0
    9.6953  -15.0953   29.0200 C   0  0  0  0  0  0  0  0  0  0  0  0
   10.9639  -15.0607   28.1809 C   0  0  2  0  0  0  0  0  0  0  0  0
   11.1955  -13.6230   27.7803 C   0  0  0  0  0  0  0  0  0  0  0  0
   10.8211  -15.8865   26.9300 C   0  0  2  0  0  0  0  0  0  0  0  0
   10.0719  -15.1568   25.9075 N   0  0  0  0  0  0  0  0  0  0  0  0
   10.1511  -17.1563   27.2853 C   0  0  0  0  0  0  0  0  0  0  0  0
   10.7733  -18.0516   27.9401 O   0  0  0  0  0  0  0  0  0  0  0  0
    8.8341  -17.3917   26.9089 O   0  0  0  0  0  0  0  0  0  0  0  0
  2  1  1  0
  3  2  2  0
  4  2  1  0
  5  4  1  0
  6  8  1  0
  6  5  1  0
  6  7  1  6
  8  9  2  0
 11 10  1  6
 12 11  1  0
 14 13  1  1
 13 11  1  0
 15 14  1  0
 15  8  1  0
 16 17  2  0
 16 14  1  0
 18 19  1  0
 19 20  1  0
 20 22  1  0
 20 21  1  6
 22 24  1  0
 22 23  1  6
 23 16  1  0
 24 26  1  0
 25 24  2  0
M  END
$$$$
