QLI.pdb
     RDKit          3D

 26 25  0  0  1  0  0  0  0  0999 V2000
   10.9568  -18.1549   18.3738 N   0  0  0  0  0  0  0  0  0  0  0  0
    9.8303  -18.9496   18.6713 C   0  0  0  0  0  0  0  0  0  0  0  0
    9.4982  -19.8218   17.8044 O   0  0  0  0  0  0  0  0  0  0  0  0
    9.0484  -18.8278   19.8929 C   0  0  0  0  0  0  0  0  0  0  0  0
    9.5506  -17.8973   20.9379 C   0  0  0  0  0  0  0  0  0  0  0  0
    8.7563  -16.6265   21.0971 C   0  0  2  0  0  0  0  0  0  0  0  0
    8.9749  -15.7583   19.9835 N   0  0  0  0  0  0  0  0  0  0  0  0
    9.1237  -15.9664   22.4011 C   0  0  0  0  0  0  0  0  0  0  0  0
   10.2443  -15.4415   22.6051 O   0  0  0  0  0  0  0  0  0  0  0  0
    5.3931  -12.9278   25.4896 C   0  0  0  0  0  0  0  0  0  0  0  0
    6.6137  -13.4564   24.7775 C   0  0  1  0  0  0  0  0  0  0  0  0
    7.6978  -12.3842   24.9767 C   0  0  0  0  0  0  0  0  0  0  0  0
    7.1596  -14.7094   25.3341 C   0  0  0  0  0  0  0  0  0  0  0  0
    8.4076  -15.2627   24.7284 C   0  0  2  0  0  0  0  0  0  0  0  0
    8.1743  -15.9225   23.4618 N   0  0  0  0  0  0  0  0  0  0  0  0
    9.3070  -15.9802   25.6320 C   0  0  0  0  0  0  0  0  0  0  0  0
    9.5034  -17.2052   25.4865 O   0  0  0  0  0  0  0  0  0  0  0  0
   10.6677  -14.1195   30.8620 C   0  0  0  0  0  0  0  0  0  0  0  0
   10.1873  -14.8570   29.6433 C   0  0  0  0  0  0  0  0  0  0  0  0
   11.3351  -15.1876   28.7010 C   0  0  2  0  0  0  0  0  0  0  0  0
   11.8523  -13.8795   28.1509 C   0  0  0  0  0  0  0  0  0  0  0  0
   10.8752  -16.0403   27.5484 C   0  0  2  0  0  0  0  0  0  0  0  0
    9.9644  -15.2945   26.6803 N   0  0  0  0  0  0  0  0  0  0  0  0
   10.2265  -17.2514   28.0962 C   0  0  0  0  0  0  0  0  0  0  0  0
   10.9205  -18.1522   28.6657 O   0  0  0  0  0  0  0  0  0  0  0  0
    8.8511  -17.4249   27.9962 O   0  0  0  0  0  0  0  0  0  0  0  0
  2  1  1  0
  3  2  2  0
  4  2  1  0
  5  4  1  0
  6  8  1  0
  6  5  1  0
  6  7  1  6
  8  9  2  0
 11 10  1  1
 12 11  1  0
 14 13  1  1
 13 11  1  0
 15 14  1  0
 15  8  1  0
 16 17  2  0
 16 14  1  0
 18 19  1  0
 19 20  1  0
 20 22  1  0
 20 21  1  6
 22 24  1  0
 22 23  1  1
 23 16  1  0
 24 26  1  0
 25 24  2  0
M  END
$$$$
