QLI.pdb
     RDKit          3D

 26 25  0  0  1  0  0  0  0  0999 V2000
   14.5406  -16.0779   16.5157 N   0  0  0  0  0  0  0  0  0  0  0  0
   13.4228  -16.9043   16.7541 C   0  0  0  0  0  0  0  0  0  0  0  0
   12.6099  -17.0633   15.7865 O   0  0  0  0  0  0  0  0  0  0  0  0
   13.1599  -17.5718   18.0205 C   0  0  0  0  0  0  0  0  0  0  0  0
   12.6160  -16.7457   19.1305 C   0  0  0  0  0  0  0  0  0  0  0  0
   11.6324  -17.4503   20.0289 C   0  0  2  0  0  0  0  0  0  0  0  0
   10.5426  -17.9706   19.2652 N   0  0  0  0  0  0  0  0  0  0  0  0
   11.1615  -16.4995   21.0990 C   0  0  0  0  0  0  0  0  0  0  0  0
   11.9491  -15.8908   21.8618 O   0  0  0  0  0  0  0  0  0  0  0  0
    6.2684  -13.8154   20.3681 C   0  0  0  0  0  0  0  0  0  0  0  0
    7.6812  -14.2494   20.6714 C   0  0  1  0  0  0  0  0  0  0  0  0
    8.5053  -12.9519   20.7160 C   0  0  0  0  0  0  0  0  0  0  0  0
    7.8593  -14.9014   21.9834 C   0  0  0  0  0  0  0  0  0  0  0  0
    9.2095  -15.4421   22.3222 C   0  0  2  0  0  0  0  0  0  0  0  0
    9.7673  -16.2642   21.2701 N   0  0  0  0  0  0  0  0  0  0  0  0
    9.3735  -15.9851   23.6708 C   0  0  0  0  0  0  0  0  0  0  0  0
    9.4721  -17.2177   23.8477 O   0  0  0  0  0  0  0  0  0  0  0  0
   10.6419  -12.4074   27.7329 C   0  0  0  0  0  0  0  0  0  0  0  0
   10.6991  -13.6022   26.8223 C   0  0  0  0  0  0  0  0  0  0  0  0
    9.6288  -14.6248   27.1736 C   0  0  2  0  0  0  0  0  0  0  0  0
   10.0338  -15.2644   28.4805 C   0  0  0  0  0  0  0  0  0  0  0  0
    9.5299  -15.7023   26.1266 C   0  0  2  0  0  0  0  0  0  0  0  0
    9.4228  -15.1200   24.7891 N   0  0  0  0  0  0  0  0  0  0  0  0
    8.3590  -16.5495   26.4407 C   0  0  0  0  0  0  0  0  0  0  0  0
    8.4474  -17.4741   27.3095 O   0  0  0  0  0  0  0  0  0  0  0  0
    7.1462  -16.3503   25.7918 O   0  0  0  0  0  0  0  0  0  0  0  0
  2  1  1  0
  3  2  2  0
  4  2  1  0
  5  4  1  0
  6  8  1  0
  6  5  1  0
  6  7  1  6
  8  9  2  0
 11 10  1  1
 12 11  1  0
 14 13  1  6
 13 11  1  0
 15 14  1  0
 15  8  1  0
 16 17  2  0
 16 14  1  0
 18 19  1  0
 19 20  1  0
 20 22  1  0
 20 21  1  1
 22 24  1  0
 22 23  1  6
 23 16  1  0
 24 26  1  0
 25 24  2  0
M  END
$$$$
