QLI.pdb
     RDKit          3D

 26 25  0  0  1  0  0  0  0  0999 V2000
   15.4431  -16.9575   17.7119 N   0  0  0  0  0  0  0  0  0  0  0  0
   14.3135  -17.6521   17.2316 C   0  0  0  0  0  0  0  0  0  0  0  0
   14.4579  -18.3010   16.1451 O   0  0  0  0  0  0  0  0  0  0  0  0
   13.0216  -17.6668   17.9021 C   0  0  0  0  0  0  0  0  0  0  0  0
   12.9135  -16.9446   19.1971 C   0  0  0  0  0  0  0  0  0  0  0  0
   12.2038  -17.6987   20.2919 C   0  0  2  0  0  0  0  0  0  0  0  0
   11.2221  -18.5768   19.7380 N   0  0  0  0  0  0  0  0  0  0  0  0
   11.5940  -16.7187   21.2609 C   0  0  0  0  0  0  0  0  0  0  0  0
   12.2813  -16.0158   22.0395 O   0  0  0  0  0  0  0  0  0  0  0  0
    8.4553  -12.8710   21.3995 C   0  0  0  0  0  0  0  0  0  0  0  0
    7.6700  -13.9525   22.0995 C   0  0  1  0  0  0  0  0  0  0  0  0
    6.2410  -13.8439   21.5421 C   0  0  0  0  0  0  0  0  0  0  0  0
    8.1243  -15.3278   21.8164 C   0  0  0  0  0  0  0  0  0  0  0  0
    9.4918  -15.7234   22.2680 C   0  0  2  0  0  0  0  0  0  0  0  0
   10.1790  -16.5649   21.3123 N   0  0  0  0  0  0  0  0  0  0  0  0
    9.6180  -16.1548   23.6603 C   0  0  0  0  0  0  0  0  0  0  0  0
    9.8327  -17.3547   23.9327 O   0  0  0  0  0  0  0  0  0  0  0  0
    9.9674  -12.1758   27.6319 C   0  0  0  0  0  0  0  0  0  0  0  0
   10.2757  -13.3301   26.7194 C   0  0  0  0  0  0  0  0  0  0  0  0
    9.4412  -14.5545   27.0649 C   0  0  2  0  0  0  0  0  0  0  0  0
    9.8709  -15.0150   28.4376 C   0  0  0  0  0  0  0  0  0  0  0  0
    9.6783  -15.6772   26.0900 C   0  0  2  0  0  0  0  0  0  0  0  0
    9.4988  -15.2174   24.7132 N   0  0  0  0  0  0  0  0  0  0  0  0
    8.7477  -16.7797   26.4156 C   0  0  0  0  0  0  0  0  0  0  0  0
    7.5349  -16.7321   26.0360 O   0  0  0  0  0  0  0  0  0  0  0  0
    9.1825  -17.8825   27.1412 O   0  0  0  0  0  0  0  0  0  0  0  0
  2  1  1  0
  3  2  2  0
  4  2  1  0
  5  4  1  0
  6  8  1  0
  6  5  1  0
  6  7  1  6
  8  9  2  0
 11 10  1  6
 12 11  1  0
 14 13  1  6
 13 11  1  0
 15 14  1  0
 15  8  1  0
 16 17  2  0
 16 14  1  0
 18 19  1  0
 19 20  1  0
 20 22  1  0
 20 21  1  1
 22 24  1  0
 22 23  1  6
 23 16  1  0
 24 26  1  0
 25 24  2  0
M  END
$$$$
