QLI.pdb
     RDKit          3D

 26 25  0  0  1  0  0  0  0  0999 V2000
   10.4317  -18.8133   16.3197 N   0  0  0  0  0  0  0  0  0  0  0  0
   11.6544  -18.7771   17.0215 C   0  0  0  0  0  0  0  0  0  0  0  0
   12.4021  -19.8038   16.9252 O   0  0  0  0  0  0  0  0  0  0  0  0
   12.0959  -17.6494   17.8291 C   0  0  0  0  0  0  0  0  0  0  0  0
   11.1616  -17.1441   18.8693 C   0  0  0  0  0  0  0  0  0  0  0  0
   11.3030  -17.7903   20.2233 C   0  0  2  0  0  0  0  0  0  0  0  0
   10.4501  -18.9322   20.3232 N   0  0  0  0  0  0  0  0  0  0  0  0
   11.0053  -16.7748   21.2963 C   0  0  0  0  0  0  0  0  0  0  0  0
   11.8754  -15.9981   21.7571 O   0  0  0  0  0  0  0  0  0  0  0  0
    5.9792  -14.4525   21.4142 C   0  0  0  0  0  0  0  0  0  0  0  0
    7.4623  -14.7109   21.5136 C   0  0  1  0  0  0  0  0  0  0  0  0
    8.1242  -13.3260   21.4218 C   0  0  0  0  0  0  0  0  0  0  0  0
    7.9027  -15.2992   22.7934 C   0  0  0  0  0  0  0  0  0  0  0  0
    9.3136  -15.7773   22.8987 C   0  0  2  0  0  0  0  0  0  0  0  0
    9.6867  -16.6723   21.8245 N   0  0  0  0  0  0  0  0  0  0  0  0
    9.7602  -16.2002   24.2262 C   0  0  0  0  0  0  0  0  0  0  0  0
   10.3948  -17.2665   24.3691 O   0  0  0  0  0  0  0  0  0  0  0  0
    9.1611  -12.5034   28.3975 C   0  0  0  0  0  0  0  0  0  0  0  0
    9.6931  -13.4305   27.3403 C   0  0  0  0  0  0  0  0  0  0  0  0
    9.5469  -14.8884   27.7500 C   0  0  2  0  0  0  0  0  0  0  0  0
   10.4198  -15.1009   28.9641 C   0  0  0  0  0  0  0  0  0  0  0  0
   10.0123  -15.8174   26.6604 C   0  0  2  0  0  0  0  0  0  0  0  0
    9.4784  -15.4058   25.3624 N   0  0  0  0  0  0  0  0  0  0  0  0
    9.5865  -17.1907   27.0071 C   0  0  0  0  0  0  0  0  0  0  0  0
    8.4191  -17.5977   26.7088 O   0  0  0  0  0  0  0  0  0  0  0  0
   10.4529  -18.0561   27.6644 O   0  0  0  0  0  0  0  0  0  0  0  0
  2  1  1  0
  3  2  2  0
  4  2  1  0
  5  4  1  0
  6  8  1  0
  6  5  1  0
  6  7  1  6
  8  9  2  0
 11 10  1  1
 12 11  1  0
 14 13  1  1
 13 11  1  0
 15 14  1  0
 15  8  1  0
 16 17  2  0
 16 14  1  0
 18 19  1  0
 19 20  1  0
 20 22  1  0
 20 21  1  1
 22 24  1  0
 22 23  1  6
 23 16  1  0
 24 26  1  0
 25 24  2  0
M  END
$$$$
