QLI.pdb
     RDKit          3D

 26 25  0  0  1  0  0  0  0  0999 V2000
   15.3530  -13.8849   18.5460 N   0  0  0  0  0  0  0  0  0  0  0  0
   15.0555  -15.1852   18.0878 C   0  0  0  0  0  0  0  0  0  0  0  0
   15.8967  -15.7208   17.2954 O   0  0  0  0  0  0  0  0  0  0  0  0
   13.8643  -15.9296   18.4692 C   0  0  0  0  0  0  0  0  0  0  0  0
   12.9614  -15.3094   19.4744 C   0  0  0  0  0  0  0  0  0  0  0  0
   12.1442  -16.2818   20.2853 C   0  0  2  0  0  0  0  0  0  0  0  0
   11.3583  -17.1109   19.4272 N   0  0  0  0  0  0  0  0  0  0  0  0
   11.2882  -15.5214   21.2652 C   0  0  0  0  0  0  0  0  0  0  0  0
   11.7674  -14.8721   22.2251 O   0  0  0  0  0  0  0  0  0  0  0  0
    6.4070  -13.7343   19.2185 C   0  0  0  0  0  0  0  0  0  0  0  0
    7.7460  -13.8967   19.8945 C   0  0  1  0  0  0  0  0  0  0  0  0
    8.3209  -12.4749   20.0063 C   0  0  0  0  0  0  0  0  0  0  0  0
    7.6838  -14.4303   21.2690 C   0  0  0  0  0  0  0  0  0  0  0  0
    8.9692  -14.7637   21.9525 C   0  0  2  0  0  0  0  0  0  0  0  0
    9.8719  -15.5235   21.1148 N   0  0  0  0  0  0  0  0  0  0  0  0
    8.8679  -15.2440   23.3307 C   0  0  0  0  0  0  0  0  0  0  0  0
    9.1350  -16.4327   23.6065 O   0  0  0  0  0  0  0  0  0  0  0  0
    6.2848  -12.0196   27.2676 C   0  0  0  0  0  0  0  0  0  0  0  0
    6.6928  -13.0432   26.2449 C   0  0  0  0  0  0  0  0  0  0  0  0
    7.9308  -13.8105   26.6847 C   0  0  2  0  0  0  0  0  0  0  0  0
    9.0764  -12.8270   26.7211 C   0  0  0  0  0  0  0  0  0  0  0  0
    8.2752  -14.9070   25.7120 C   0  0  2  0  0  0  0  0  0  0  0  0
    8.4669  -14.3673   24.3661 N   0  0  0  0  0  0  0  0  0  0  0  0
    7.1897  -15.9112   25.7402 C   0  0  0  0  0  0  0  0  0  0  0  0
    6.4197  -16.0557   24.7383 O   0  0  0  0  0  0  0  0  0  0  0  0
    6.9931  -16.7104   26.8601 O   0  0  0  0  0  0  0  0  0  0  0  0
  2  1  1  0
  3  2  2  0
  4  2  1  0
  5  4  1  0
  6  8  1  0
  6  5  1  0
  6  7  1  6
  8  9  2  0
 11 10  1  1
 12 11  1  0
 14 13  1  6
 13 11  1  0
 15 14  1  0
 15  8  1  0
 16 17  2  0
 16 14  1  0
 18 19  1  0
 19 20  1  0
 20 22  1  0
 20 21  1  6
 22 24  1  0
 22 23  1  6
 23 16  1  0
 24 26  1  0
 25 24  2  0
M  END
$$$$
