QLI.pdb
     RDKit          3D

 26 25  0  0  1  0  0  0  0  0999 V2000
    8.5227  -12.1096   18.5177 N   0  0  0  0  0  0  0  0  0  0  0  0
    7.4988  -13.0783   18.5657 C   0  0  0  0  0  0  0  0  0  0  0  0
    7.3080  -13.7645   17.5097 O   0  0  0  0  0  0  0  0  0  0  0  0
    6.6705  -13.3294   19.7361 C   0  0  0  0  0  0  0  0  0  0  0  0
    7.2937  -14.0566   20.8731 C   0  0  0  0  0  0  0  0  0  0  0  0
    7.9675  -15.3545   20.5092 C   0  0  2  0  0  0  0  0  0  0  0  0
    7.0044  -16.3066   20.0539 N   0  0  0  0  0  0  0  0  0  0  0  0
    8.7420  -15.8667   21.6962 C   0  0  0  0  0  0  0  0  0  0  0  0
    8.3547  -16.8337   22.3944 O   0  0  0  0  0  0  0  0  0  0  0  0
   14.1475  -14.8192   21.0781 C   0  0  0  0  0  0  0  0  0  0  0  0
   12.7745  -15.4034   21.3018 C   0  0  1  0  0  0  0  0  0  0  0  0
   12.8837  -16.8762   20.8733 C   0  0  0  0  0  0  0  0  0  0  0  0
   12.3276  -15.4106   22.7082 C   0  0  0  0  0  0  0  0  0  0  0  0
   10.9174  -15.8097   22.9956 C   0  0  2  0  0  0  0  0  0  0  0  0
    9.9700  -15.2436   22.0597 N   0  0  0  0  0  0  0  0  0  0  0  0
   10.4976  -15.7532   24.3960 C   0  0  0  0  0  0  0  0  0  0  0  0
   11.1721  -16.3207   25.2810 O   0  0  0  0  0  0  0  0  0  0  0  0
    5.5641  -13.2208   26.0760 C   0  0  0  0  0  0  0  0  0  0  0  0
    6.6615  -14.1644   25.6692 C   0  0  0  0  0  0  0  0  0  0  0  0
    7.9594  -13.8625   26.4036 C   0  0  2  0  0  0  0  0  0  0  0  0
    8.5002  -12.5691   25.8417 C   0  0  0  0  0  0  0  0  0  0  0  0
    8.9837  -14.9435   26.1814 C   0  0  2  0  0  0  0  0  0  0  0  0
    9.3234  -15.0548   24.7631 N   0  0  0  0  0  0  0  0  0  0  0  0
    8.4394  -16.2146   26.7064 C   0  0  0  0  0  0  0  0  0  0  0  0
    8.0506  -17.1266   25.9099 O   0  0  0  0  0  0  0  0  0  0  0  0
    8.3430  -16.4317   28.0758 O   0  0  0  0  0  0  0  0  0  0  0  0
  2  1  1  0
  3  2  2  0
  4  2  1  0
  5  4  1  0
  6  8  1  0
  6  5  1  0
  6  7  1  1
  8  9  2  0
 11 10  1  1
 12 11  1  0
 14 13  1  1
 13 11  1  0
 15 14  1  0
 15  8  1  0
 16 17  2  0
 16 14  1  0
 18 19  1  0
 19 20  1  0
 20 22  1  0
 20 21  1  6
 22 24  1  0
 22 23  1  6
 23 16  1  0
 24 26  1  0
 25 24  2  0
M  END
$$$$
