QLI.pdb
     RDKit          3D

 26 25  0  0  1  0  0  0  0  0999 V2000
   15.3234  -17.1865   18.7588 N   0  0  0  0  0  0  0  0  0  0  0  0
   14.4507  -18.0444   18.0577 C   0  0  0  0  0  0  0  0  0  0  0  0
   14.9796  -18.8292   17.2053 O   0  0  0  0  0  0  0  0  0  0  0  0
   13.0094  -18.0791   18.2576 C   0  0  0  0  0  0  0  0  0  0  0  0
   12.4400  -17.1812   19.2968 C   0  0  0  0  0  0  0  0  0  0  0  0
   11.5102  -17.8480   20.2776 C   0  0  2  0  0  0  0  0  0  0  0  0
   10.3534  -18.3508   19.6063 N   0  0  0  0  0  0  0  0  0  0  0  0
   11.1447  -16.8707   21.3650 C   0  0  0  0  0  0  0  0  0  0  0  0
   12.0022  -16.2769   22.0613 O   0  0  0  0  0  0  0  0  0  0  0  0
    6.1278  -14.3060   20.9808 C   0  0  0  0  0  0  0  0  0  0  0  0
    7.5905  -14.6202   21.1763 C   0  0  1  0  0  0  0  0  0  0  0  0
    8.3083  -13.2609   21.1339 C   0  0  0  0  0  0  0  0  0  0  0  0
    7.9235  -15.2267   22.4798 C   0  0  0  0  0  0  0  0  0  0  0  0
    9.3179  -15.7179   22.6910 C   0  0  2  0  0  0  0  0  0  0  0  0
    9.7738  -16.5917   21.6313 N   0  0  0  0  0  0  0  0  0  0  0  0
    9.6500  -16.1736   24.0409 C   0  0  0  0  0  0  0  0  0  0  0  0
   10.0902  -17.3276   24.2276 O   0  0  0  0  0  0  0  0  0  0  0  0
    9.5176  -12.3263   28.0777 C   0  0  0  0  0  0  0  0  0  0  0  0
   10.0200  -13.3876   27.1389 C   0  0  0  0  0  0  0  0  0  0  0  0
    9.5131  -14.7673   27.5319 C   0  0  2  0  0  0  0  0  0  0  0  0
   10.2149  -15.1529   28.8125 C   0  0  0  0  0  0  0  0  0  0  0  0
    9.8400  -15.7953   26.4815 C   0  0  2  0  0  0  0  0  0  0  0  0
    9.4768  -15.3121   25.1496 N   0  0  0  0  0  0  0  0  0  0  0  0
    9.1228  -17.0450   26.8152 C   0  0  0  0  0  0  0  0  0  0  0  0
    7.9119  -17.2068   26.4618 O   0  0  0  0  0  0  0  0  0  0  0  0
    9.7588  -18.0599   27.5203 O   0  0  0  0  0  0  0  0  0  0  0  0
  2  1  1  0
  3  2  2  0
  4  2  1  0
  5  4  1  0
  6  8  1  0
  6  5  1  0
  6  7  1  6
  8  9  2  0
 11 10  1  1
 12 11  1  0
 14 13  1  1
 13 11  1  0
 15 14  1  0
 15  8  1  0
 16 17  2  0
 16 14  1  0
 18 19  1  0
 19 20  1  0
 20 22  1  0
 20 21  1  1
 22 24  1  0
 22 23  1  6
 23 16  1  0
 24 26  1  0
 25 24  2  0
M  END
$$$$
