QLI.pdb
     RDKit          3D

 26 25  0  0  1  0  0  0  0  0999 V2000
    9.2198  -15.1179   18.5007 N   0  0  0  0  0  0  0  0  0  0  0  0
    9.0215  -16.4745   18.1698 C   0  0  0  0  0  0  0  0  0  0  0  0
    9.6931  -16.9297   17.1879 O   0  0  0  0  0  0  0  0  0  0  0  0
    8.1112  -17.3606   18.8802 C   0  0  0  0  0  0  0  0  0  0  0  0
    7.3887  -16.8030   20.0538 C   0  0  0  0  0  0  0  0  0  0  0  0
    7.6533  -17.5062   21.3602 C   0  0  2  0  0  0  0  0  0  0  0  0
    6.4262  -17.9337   21.9545 N   0  0  0  0  0  0  0  0  0  0  0  0
    8.4278  -16.5913   22.2735 C   0  0  0  0  0  0  0  0  0  0  0  0
    9.6063  -16.2337   22.0371 O   0  0  0  0  0  0  0  0  0  0  0  0
    5.6316  -13.0592   25.7317 C   0  0  0  0  0  0  0  0  0  0  0  0
    6.6403  -13.6421   24.7731 C   0  0  1  0  0  0  0  0  0  0  0  0
    7.4711  -12.4461   24.2790 C   0  0  0  0  0  0  0  0  0  0  0  0
    7.5946  -14.5897   25.3808 C   0  0  0  0  0  0  0  0  0  0  0  0
    8.5165  -15.3373   24.4744 C   0  0  2  0  0  0  0  0  0  0  0  0
    7.8166  -16.0972   23.4611 N   0  0  0  0  0  0  0  0  0  0  0  0
    9.6222  -16.0501   25.1145 C   0  0  0  0  0  0  0  0  0  0  0  0
   10.6887  -16.2484   24.4952 O   0  0  0  0  0  0  0  0  0  0  0  0
   10.0973  -14.3893   30.1806 C   0  0  0  0  0  0  0  0  0  0  0  0
    9.7396  -15.2471   28.9988 C   0  0  0  0  0  0  0  0  0  0  0  0
   10.9605  -15.5644   28.1482 C   0  0  2  0  0  0  0  0  0  0  0  0
   11.2428  -14.3469   27.3002 C   0  0  0  0  0  0  0  0  0  0  0  0
   10.7074  -16.7334   27.2337 C   0  0  2  0  0  0  0  0  0  0  0  0
    9.4957  -16.5221   26.4422 N   0  0  0  0  0  0  0  0  0  0  0  0
   10.6049  -17.9560   28.0597 C   0  0  0  0  0  0  0  0  0  0  0  0
   11.6048  -18.3661   28.7301 O   0  0  0  0  0  0  0  0  0  0  0  0
    9.4172  -18.6757   28.1153 O   0  0  0  0  0  0  0  0  0  0  0  0
  2  1  1  0
  3  2  2  0
  4  2  1  0
  5  4  1  0
  6  8  1  0
  6  5  1  0
  6  7  1  1
  8  9  2  0
 11 10  1  1
 12 11  1  0
 14 13  1  1
 13 11  1  0
 15 14  1  0
 15  8  1  0
 16 17  2  0
 16 14  1  0
 18 19  1  0
 19 20  1  0
 20 22  1  0
 20 21  1  6
 22 24  1  0
 22 23  1  1
 23 16  1  0
 24 26  1  0
 25 24  2  0
M  END
$$$$
