QLI.pdb
     RDKit          3D

 26 25  0  0  1  0  0  0  0  0999 V2000
   11.4089  -21.3248   22.9184 N   0  0  0  0  0  0  0  0  0  0  0  0
   12.0069  -21.2111   21.6462 C   0  0  0  0  0  0  0  0  0  0  0  0
   12.5958  -22.2463   21.1943 O   0  0  0  0  0  0  0  0  0  0  0  0
   11.9824  -19.9988   20.8410 C   0  0  0  0  0  0  0  0  0  0  0  0
   11.2498  -18.8270   21.3891 C   0  0  0  0  0  0  0  0  0  0  0  0
   11.0948  -17.6684   20.4380 C   0  0  2  0  0  0  0  0  0  0  0  0
   12.3293  -17.4025   19.7696 N   0  0  0  0  0  0  0  0  0  0  0  0
   10.5976  -16.4631   21.1938 C   0  0  0  0  0  0  0  0  0  0  0  0
   11.3564  -15.7148   21.8548 O   0  0  0  0  0  0  0  0  0  0  0  0
    6.2149  -13.6062   19.2168 C   0  0  0  0  0  0  0  0  0  0  0  0
    7.5212  -14.0017   19.8600 C   0  0  1  0  0  0  0  0  0  0  0  0
    8.3547  -12.7106   19.9165 C   0  0  0  0  0  0  0  0  0  0  0  0
    7.4048  -14.4837   21.2499 C   0  0  0  0  0  0  0  0  0  0  0  0
    8.6263  -15.0380   21.9064 C   0  0  2  0  0  0  0  0  0  0  0  0
    9.2111  -16.1383   21.1705 N   0  0  0  0  0  0  0  0  0  0  0  0
    8.5509  -15.2447   23.3528 C   0  0  0  0  0  0  0  0  0  0  0  0
    8.5389  -16.4008   23.8258 O   0  0  0  0  0  0  0  0  0  0  0  0
    6.3619  -11.0577   26.0860 C   0  0  0  0  0  0  0  0  0  0  0  0
    7.4540  -11.9997   25.6617 C   0  0  0  0  0  0  0  0  0  0  0  0
    7.2100  -13.4089   26.1809 C   0  0  2  0  0  0  0  0  0  0  0  0
    7.3338  -13.3583   27.6853 C   0  0  0  0  0  0  0  0  0  0  0  0
    8.2339  -14.3774   25.6511 C   0  0  2  0  0  0  0  0  0  0  0  0
    8.4913  -14.1376   24.2314 N   0  0  0  0  0  0  0  0  0  0  0  0
    7.7384  -15.7513   25.8843 C   0  0  0  0  0  0  0  0  0  0  0  0
    6.7511  -16.2012   25.2207 O   0  0  0  0  0  0  0  0  0  0  0  0
    8.3414  -16.5705   26.8313 O   0  0  0  0  0  0  0  0  0  0  0  0
  2  1  1  0
  3  2  2  0
  4  2  1  0
  5  4  1  0
  6  8  1  0
  6  5  1  0
  6  7  1  1
  8  9  2  0
 11 10  1  1
 12 11  1  0
 14 13  1  6
 13 11  1  0
 15 14  1  0
 15  8  1  0
 16 17  2  0
 16 14  1  0
 18 19  1  0
 19 20  1  0
 20 22  1  0
 20 21  1  1
 22 24  1  0
 22 23  1  6
 23 16  1  0
 24 26  1  0
 25 24  2  0
M  END
$$$$
