QLI.pdb
     RDKit          3D

 26 25  0  0  1  0  0  0  0  0999 V2000
    9.4832  -16.8940   16.5663 N   0  0  0  0  0  0  0  0  0  0  0  0
    8.7348  -17.9708   17.0854 C   0  0  0  0  0  0  0  0  0  0  0  0
    8.1306  -18.7093   16.2416 O   0  0  0  0  0  0  0  0  0  0  0  0
    8.6238  -18.2753   18.5044 C   0  0  0  0  0  0  0  0  0  0  0  0
    9.3257  -17.3736   19.4555 C   0  0  0  0  0  0  0  0  0  0  0  0
    9.3049  -17.8216   20.8943 C   0  0  2  0  0  0  0  0  0  0  0  0
    7.9959  -18.2613   21.2615 N   0  0  0  0  0  0  0  0  0  0  0  0
    9.7846  -16.6973   21.7757 C   0  0  0  0  0  0  0  0  0  0  0  0
   10.9608  -16.2634   21.7440 O   0  0  0  0  0  0  0  0  0  0  0  0
    5.9269  -13.0122   23.5141 C   0  0  0  0  0  0  0  0  0  0  0  0
    7.1632  -13.6992   22.9888 C   0  0  1  0  0  0  0  0  0  0  0  0
    7.9281  -12.6188   22.2062 C   0  0  0  0  0  0  0  0  0  0  0  0
    8.0861  -14.1917   24.0297 C   0  0  0  0  0  0  0  0  0  0  0  0
    9.2517  -15.0210   23.6006 C   0  0  2  0  0  0  0  0  0  0  0  0
    8.8821  -16.0840   22.6910 N   0  0  0  0  0  0  0  0  0  0  0  0
   10.1903  -15.4171   24.6506 C   0  0  0  0  0  0  0  0  0  0  0  0
   11.3910  -15.0788   24.5850 O   0  0  0  0  0  0  0  0  0  0  0  0
    9.1652  -13.9930   29.4377 C   0  0  0  0  0  0  0  0  0  0  0  0
    9.2060  -15.0778   28.3977 C   0  0  0  0  0  0  0  0  0  0  0  0
   10.6112  -15.2730   27.8480 C   0  0  2  0  0  0  0  0  0  0  0  0
   10.9881  -14.0022   27.1240 C   0  0  0  0  0  0  0  0  0  0  0  0
   10.6669  -16.4142   26.8674 C   0  0  2  0  0  0  0  0  0  0  0  0
    9.7483  -16.1871   25.7520 N   0  0  0  0  0  0  0  0  0  0  0  0
   10.3399  -17.6632   27.5888 C   0  0  0  0  0  0  0  0  0  0  0  0
    9.3154  -18.3441   27.2661 O   0  0  0  0  0  0  0  0  0  0  0  0
   11.1444  -18.1112   28.6299 O   0  0  0  0  0  0  0  0  0  0  0  0
  2  1  1  0
  3  2  2  0
  4  2  1  0
  5  4  1  0
  6  8  1  0
  6  5  1  0
  6  7  1  1
  8  9  2  0
 11 10  1  1
 12 11  1  0
 14 13  1  1
 13 11  1  0
 15 14  1  0
 15  8  1  0
 16 17  2  0
 16 14  1  0
 18 19  1  0
 19 20  1  0
 20 22  1  0
 20 21  1  6
 22 24  1  0
 22 23  1  6
 23 16  1  0
 24 26  1  0
 25 24  2  0
M  END
$$$$
