QLI.pdb
     RDKit          3D

 26 25  0  0  1  0  0  0  0  0999 V2000
   12.3860  -22.6202   19.9576 N   0  0  0  0  0  0  0  0  0  0  0  0
   11.6052  -21.5449   20.4297 C   0  0  0  0  0  0  0  0  0  0  0  0
   10.7313  -21.8159   21.3159 O   0  0  0  0  0  0  0  0  0  0  0  0
   11.7472  -20.1718   19.9678 C   0  0  0  0  0  0  0  0  0  0  0  0
   10.8618  -19.1474   20.5817 C   0  0  0  0  0  0  0  0  0  0  0  0
   11.0601  -17.7432   20.0718 C   0  0  2  0  0  0  0  0  0  0  0  0
   12.3632  -17.5975   19.5042 N   0  0  0  0  0  0  0  0  0  0  0  0
   10.8269  -16.7653   21.1945 C   0  0  0  0  0  0  0  0  0  0  0  0
   11.7600  -16.2772   21.8754 O   0  0  0  0  0  0  0  0  0  0  0  0
    6.2688  -13.4447   21.0114 C   0  0  0  0  0  0  0  0  0  0  0  0
    7.6408  -14.0545   21.1603 C   0  0  1  0  0  0  0  0  0  0  0  0
    8.6160  -12.8656   21.1712 C   0  0  0  0  0  0  0  0  0  0  0  0
    7.8590  -14.7841   22.4244 C   0  0  0  0  0  0  0  0  0  0  0  0
    9.1639  -15.4847   22.6155 C   0  0  2  0  0  0  0  0  0  0  0  0
    9.4990  -16.3614   21.5141 N   0  0  0  0  0  0  0  0  0  0  0  0
    9.4102  -16.0517   23.9415 C   0  0  0  0  0  0  0  0  0  0  0  0
    9.6022  -17.2784   24.0782 O   0  0  0  0  0  0  0  0  0  0  0  0
    9.9306  -12.4372   28.2060 C   0  0  0  0  0  0  0  0  0  0  0  0
   10.2946  -13.4966   27.2034 C   0  0  0  0  0  0  0  0  0  0  0  0
    9.5758  -14.8069   27.4885 C   0  0  2  0  0  0  0  0  0  0  0  0
   10.1694  -15.3755   28.7556 C   0  0  0  0  0  0  0  0  0  0  0  0
    9.7813  -15.8024   26.3778 C   0  0  2  0  0  0  0  0  0  0  0  0
    9.4341  -15.2167   25.0833 N   0  0  0  0  0  0  0  0  0  0  0  0
    8.9589  -16.9973   26.6665 C   0  0  0  0  0  0  0  0  0  0  0  0
    9.3843  -17.8957   27.4598 O   0  0  0  0  0  0  0  0  0  0  0  0
    7.7112  -17.1579   26.0756 O   0  0  0  0  0  0  0  0  0  0  0  0
  2  1  1  0
  3  2  2  0
  4  2  1  0
  5  4  1  0
  6  8  1  0
  6  5  1  0
  6  7  1  1
  8  9  2  0
 11 10  1  1
 12 11  1  0
 14 13  1  1
 13 11  1  0
 15 14  1  0
 15  8  1  0
 16 17  2  0
 16 14  1  0
 18 19  1  0
 19 20  1  0
 20 22  1  0
 20 21  1  1
 22 24  1  0
 22 23  1  6
 23 16  1  0
 24 26  1  0
 25 24  2  0
M  END
$$$$
