QLI.pdb
     RDKit          3D

 26 25  0  0  1  0  0  0  0  0999 V2000
   15.9067  -14.4888   18.3925 N   0  0  0  0  0  0  0  0  0  0  0  0
   15.1633  -15.3932   17.6061 C   0  0  0  0  0  0  0  0  0  0  0  0
   15.7095  -15.8016   16.5303 O   0  0  0  0  0  0  0  0  0  0  0  0
   13.8351  -15.8747   17.9562 C   0  0  0  0  0  0  0  0  0  0  0  0
   13.2792  -15.4569   19.2702 C   0  0  0  0  0  0  0  0  0  0  0  0
   12.3560  -16.4552   19.9201 C   0  0  2  0  0  0  0  0  0  0  0  0
   11.3985  -16.9382   18.9759 N   0  0  0  0  0  0  0  0  0  0  0  0
   11.6919  -15.8197   21.1143 C   0  0  0  0  0  0  0  0  0  0  0  0
   12.3386  -15.3116   22.0610 O   0  0  0  0  0  0  0  0  0  0  0  0
    8.6237  -13.0627   20.2489 C   0  0  0  0  0  0  0  0  0  0  0  0
    7.8628  -13.4742   21.4851 C   0  0  1  0  0  0  0  0  0  0  0  0
    6.3793  -13.4351   21.0821 C   0  0  0  0  0  0  0  0  0  0  0  0
    8.1327  -14.8493   21.9479 C   0  0  0  0  0  0  0  0  0  0  0  0
    9.5383  -15.2084   22.3027 C   0  0  2  0  0  0  0  0  0  0  0  0
   10.2705  -15.7807   21.1935 N   0  0  0  0  0  0  0  0  0  0  0  0
    9.7318  -15.8960   23.5794 C   0  0  0  0  0  0  0  0  0  0  0  0
   10.0811  -17.0951   23.6045 O   0  0  0  0  0  0  0  0  0  0  0  0
    9.5057  -12.7334   28.2017 C   0  0  0  0  0  0  0  0  0  0  0  0
    9.9665  -13.6138   27.0736 C   0  0  0  0  0  0  0  0  0  0  0  0
    9.4647  -15.0408   27.2370 C   0  0  2  0  0  0  0  0  0  0  0  0
   10.1317  -15.6109   28.4663 C   0  0  0  0  0  0  0  0  0  0  0  0
    9.8359  -15.8954   26.0542 C   0  0  2  0  0  0  0  0  0  0  0  0
    9.5260  -15.2104   24.7996 N   0  0  0  0  0  0  0  0  0  0  0  0
    9.1082  -17.1786   26.1614 C   0  0  0  0  0  0  0  0  0  0  0  0
    7.9223  -17.2858   25.7146 O   0  0  0  0  0  0  0  0  0  0  0  0
    9.7069  -18.2851   26.7521 O   0  0  0  0  0  0  0  0  0  0  0  0
  2  1  1  0
  3  2  2  0
  4  2  1  0
  5  4  1  0
  6  8  1  0
  6  5  1  0
  6  7  1  6
  8  9  2  0
 11 10  1  6
 12 11  1  0
 14 13  1  6
 13 11  1  0
 15 14  1  0
 15  8  1  0
 16 17  2  0
 16 14  1  0
 18 19  1  0
 19 20  1  0
 20 22  1  0
 20 21  1  1
 22 24  1  0
 22 23  1  6
 23 16  1  0
 24 26  1  0
 25 24  2  0
M  END
$$$$
