QLI.pdb
     RDKit          3D

 26 25  0  0  1  0  0  0  0  0999 V2000
   11.9483  -20.5047   20.9362 N   0  0  0  0  0  0  0  0  0  0  0  0
   10.8968  -20.2996   20.0190 C   0  0  0  0  0  0  0  0  0  0  0  0
   10.6445  -21.2528   19.2127 O   0  0  0  0  0  0  0  0  0  0  0  0
   10.1017  -19.0822   19.9517 C   0  0  0  0  0  0  0  0  0  0  0  0
   10.4051  -18.0104   20.9362 C   0  0  0  0  0  0  0  0  0  0  0  0
    9.4562  -16.8398   20.9191 C   0  0  2  0  0  0  0  0  0  0  0  0
    9.6869  -16.0268   19.7670 N   0  0  0  0  0  0  0  0  0  0  0  0
    9.6067  -16.0545   22.1965 C   0  0  0  0  0  0  0  0  0  0  0  0
   10.5677  -15.2768   22.4069 O   0  0  0  0  0  0  0  0  0  0  0  0
    5.6370  -13.2495   25.2887 C   0  0  0  0  0  0  0  0  0  0  0  0
    6.8760  -13.7250   24.5709 C   0  0  1  0  0  0  0  0  0  0  0  0
    7.9763  -12.7190   24.9476 C   0  0  0  0  0  0  0  0  0  0  0  0
    7.3633  -15.0527   24.9924 C   0  0  0  0  0  0  0  0  0  0  0  0
    8.6992  -15.5009   24.4975 C   0  0  2  0  0  0  0  0  0  0  0  0
    8.6279  -16.1828   23.2231 N   0  0  0  0  0  0  0  0  0  0  0  0
    9.5774  -16.1366   25.4798 C   0  0  0  0  0  0  0  0  0  0  0  0
    9.8916  -17.3397   25.3611 O   0  0  0  0  0  0  0  0  0  0  0  0
   11.1238  -13.0232   29.8863 C   0  0  0  0  0  0  0  0  0  0  0  0
   11.2549  -13.8514   28.6384 C   0  0  0  0  0  0  0  0  0  0  0  0
   10.8679  -15.3017   28.8866 C   0  0  2  0  0  0  0  0  0  0  0  0
   11.9166  -15.8942   29.7978 C   0  0  0  0  0  0  0  0  0  0  0  0
   10.8465  -16.0942   27.6065 C   0  0  2  0  0  0  0  0  0  0  0  0
   10.0808  -15.3954   26.5747 N   0  0  0  0  0  0  0  0  0  0  0  0
   10.2722  -17.4264   27.8942 C   0  0  0  0  0  0  0  0  0  0  0  0
    9.0487  -17.5435   28.2208 O   0  0  0  0  0  0  0  0  0  0  0  0
   11.0591  -18.5692   27.8139 O   0  0  0  0  0  0  0  0  0  0  0  0
  2  1  1  0
  3  2  2  0
  4  2  1  0
  5  4  1  0
  6  8  1  0
  6  5  1  0
  6  7  1  6
  8  9  2  0
 11 10  1  1
 12 11  1  0
 14 13  1  1
 13 11  1  0
 15 14  1  0
 15  8  1  0
 16 17  2  0
 16 14  1  0
 18 19  1  0
 19 20  1  0
 20 22  1  0
 20 21  1  1
 22 24  1  0
 22 23  1  6
 23 16  1  0
 24 26  1  0
 25 24  2  0
M  END
$$$$
