QLI.pdb
     RDKit          3D

 26 25  0  0  1  0  0  0  0  0999 V2000
   11.0908  -19.1041   17.2238 N   0  0  0  0  0  0  0  0  0  0  0  0
   11.8573  -19.5442   18.3229 C   0  0  0  0  0  0  0  0  0  0  0  0
   12.9302  -20.1773   18.0575 O   0  0  0  0  0  0  0  0  0  0  0  0
   11.4934  -19.3134   19.7132 C   0  0  0  0  0  0  0  0  0  0  0  0
   10.2496  -18.5431   19.9770 C   0  0  0  0  0  0  0  0  0  0  0  0
    9.9430  -18.3036   21.4330 C   0  0  2  0  0  0  0  0  0  0  0  0
    8.6567  -18.8293   21.7654 N   0  0  0  0  0  0  0  0  0  0  0  0
   10.0376  -16.8289   21.7287 C   0  0  0  0  0  0  0  0  0  0  0  0
   11.1191  -16.1955   21.6870 O   0  0  0  0  0  0  0  0  0  0  0  0
    6.1484  -13.4527   19.8845 C   0  0  0  0  0  0  0  0  0  0  0  0
    7.4484  -14.0531   20.3598 C   0  0  1  0  0  0  0  0  0  0  0  0
    8.5519  -13.2034   19.7079 C   0  0  0  0  0  0  0  0  0  0  0  0
    7.6687  -13.9756   21.8169 C   0  0  0  0  0  0  0  0  0  0  0  0
    8.8497  -14.6893   22.3882 C   0  0  2  0  0  0  0  0  0  0  0  0
    8.8623  -16.1011   22.0709 N   0  0  0  0  0  0  0  0  0  0  0  0
    9.1923  -14.3740   23.7752 C   0  0  0  0  0  0  0  0  0  0  0  0
    9.5973  -13.2329   24.0821 O   0  0  0  0  0  0  0  0  0  0  0  0
    6.7879  -12.1923   26.6097 C   0  0  0  0  0  0  0  0  0  0  0  0
    7.9293  -12.9569   25.9992 C   0  0  0  0  0  0  0  0  0  0  0  0
    8.2360  -14.2244   26.7831 C   0  0  2  0  0  0  0  0  0  0  0  0
    8.6430  -13.8014   28.1747 C   0  0  0  0  0  0  0  0  0  0  0  0
    9.3749  -14.9926   26.1667 C   0  0  2  0  0  0  0  0  0  0  0  0
    9.0681  -15.3580   24.7841 N   0  0  0  0  0  0  0  0  0  0  0  0
    9.6305  -16.1901   26.9963 C   0  0  0  0  0  0  0  0  0  0  0  0
    9.2048  -17.3309   26.6291 O   0  0  0  0  0  0  0  0  0  0  0  0
   10.3372  -16.0879   28.1887 O   0  0  0  0  0  0  0  0  0  0  0  0
  2  1  1  0
  3  2  2  0
  4  2  1  0
  5  4  1  0
  6  8  1  0
  6  5  1  0
  6  7  1  6
  8  9  2  0
 11 10  1  1
 12 11  1  0
 14 13  1  1
 13 11  1  0
 15 14  1  0
 15  8  1  0
 16 17  2  0
 16 14  1  0
 18 19  1  0
 19 20  1  0
 20 22  1  0
 20 21  1  1
 22 24  1  0
 22 23  1  6
 23 16  1  0
 24 26  1  0
 25 24  2  0
M  END
$$$$
