RRL.pdb
     RDKit          3D

 31 30  0  0  1  0  0  0  0  0999 V2000
   21.7957  -21.5823   -8.4845 N   0  0  0  0  0  0  0  0  0  0  0  0
   22.8122  -21.3836   -7.5168 C   0  0  0  0  0  0  0  0  0  0  0  0
   22.5869  -21.6301   -6.2533 N   0  0  0  0  0  0  0  0  0  0  0  0
   24.1143  -20.9116   -7.8685 N   0  0  0  0  0  0  0  0  0  0  0  0
   24.3918  -20.4591   -9.2152 C   0  0  0  0  0  0  0  0  0  0  0  0
   24.6962  -21.6716  -10.1014 C   0  0  0  0  0  0  0  0  0  0  0  0
   25.8995  -21.2990  -10.9188 C   0  0  0  0  0  0  0  0  0  0  0  0
   25.7948  -21.7742  -12.3557 C   0  0  2  0  0  0  0  0  0  0  0  0
   25.9349  -23.1931  -12.4697 N   0  0  0  0  0  0  0  0  0  0  0  0
   26.9310  -21.1322  -13.0648 C   0  0  0  0  0  0  0  0  0  0  0  0
   28.0664  -21.3272  -12.5748 O   0  0  0  0  0  0  0  0  0  0  0  0
   23.3303  -21.4421   -5.5469 N   0  0  0  0  0  0  0  0  0  0  0  0
   31.3896  -24.9495  -16.4871 C   0  0  0  0  0  0  0  0  0  0  0  0
   31.2983  -24.2213  -17.7064 N   0  0  0  0  0  0  0  0  0  0  0  0
   31.7677  -24.7182  -18.7798 N   0  0  0  0  0  0  0  0  0  0  0  0
   30.6800  -22.9488  -17.6935 C   0  0  0  0  0  0  0  0  0  0  0  0
   29.8369  -22.6125  -16.5702 C   0  0  0  0  0  0  0  0  0  0  0  0
   28.5161  -21.9873  -17.0393 C   0  0  0  0  0  0  0  0  0  0  0  0
   27.6801  -21.7822  -15.8145 C   0  0  1  0  0  0  0  0  0  0  0  0
   27.6134  -20.3723  -15.3316 N   0  0  0  0  0  0  0  0  0  0  0  0
   26.6812  -20.3681  -14.2086 C   0  0  0  0  0  0  0  0  0  0  0  0
   27.2555  -19.3783  -16.3479 O   0  0  0  0  0  0  0  0  0  0  0  0
   26.1410  -19.5205  -16.9211 C   0  0  0  0  0  0  0  0  0  0  0  0
   31.8436  -24.1635  -19.6559 C   0  0  2  0  0  0  0  0  0  0  0  0
   26.9844  -14.1459  -17.9129 C   0  0  0  0  0  0  0  0  0  0  0  0
   28.0835  -15.0200  -18.6194 C   0  0  0  0  0  0  0  0  0  0  0  0
   29.2145  -14.0183  -18.8150 C   0  0  1  0  0  0  0  0  0  0  0  0
   28.3601  -16.0981  -17.6484 N   0  0  0  0  0  0  0  0  0  0  0  0
   27.5289  -17.3236  -17.7207 C   0  0  0  0  0  0  0  0  0  0  0  0
   28.0582  -18.2831  -16.7203 O   0  0  0  0  0  0  0  0  0  0  0  0
   27.3782  -18.0083  -18.9934 O   0  0  0  0  0  0  0  0  0  0  0  0
  2  1  1  0
  3  2  2  0
  4  2  1  0
  5  4  1  0
  6  5  1  0
  7  6  1  0
  8  9  1  1
  8  7  1  0
 10  8  1  0
 10 11  2  0
 13 14  2  0
 13 12  1  0
 15 13  1  0
 15 16  1  0
 17 18  1  0
 17 16  1  0
 19 18  1  1
 19 20  1  0
 19 21  1  0
 20 10  1  0
 21 28  1  0
 21 22  2  0
 24 23  1  1
 24 25  1  0
 26 24  1  0
 27 26  1  6
 28 27  1  0
 29 30  1  0
 29 27  1  0
 31 29  2  0
M  END
$$$$
