RRL.pdb
     RDKit          3D

 31 30  0  0  1  0  0  0  0  0999 V2000
   22.5470  -20.6615  -13.9293 N   0  0  0  0  0  0  0  0  0  0  0  0
   21.3732  -19.8802  -13.7851 C   0  0  0  0  0  0  0  0  0  0  0  0
   21.4466  -18.5793  -13.6834 N   0  0  0  0  0  0  0  0  0  0  0  0
   20.0705  -20.4662  -13.7446 N   0  0  0  0  0  0  0  0  0  0  0  0
   19.9111  -21.9043  -13.7914 C   0  0  0  0  0  0  0  0  0  0  0  0
   18.4174  -22.2463  -13.7794 C   0  0  0  0  0  0  0  0  0  0  0  0
   18.2237  -23.2292  -12.6609 C   0  0  0  0  0  0  0  0  0  0  0  0
   18.1049  -24.6577  -13.1576 C   0  0  2  0  0  0  0  0  0  0  0  0
   17.0702  -24.8086  -14.1336 N   0  0  0  0  0  0  0  0  0  0  0  0
   17.7423  -25.4600  -11.9615 C   0  0  0  0  0  0  0  0  0  0  0  0
   16.5660  -25.3357  -11.5514 O   0  0  0  0  0  0  0  0  0  0  0  0
   20.5742  -18.0151  -13.5972 N   0  0  0  0  0  0  0  0  0  0  0  0
   22.1250  -32.2005   -9.6219 C   0  0  0  0  0  0  0  0  0  0  0  0
   22.5233  -30.8853   -9.2519 N   0  0  0  0  0  0  0  0  0  0  0  0
   23.7569  -30.6154   -9.0954 N   0  0  0  0  0  0  0  0  0  0  0  0
   21.5251  -29.8999   -9.0661 C   0  0  0  0  0  0  0  0  0  0  0  0
   20.1430  -30.2959   -9.2032 C   0  0  0  0  0  0  0  0  0  0  0  0
   19.2021  -29.1071   -8.9647 C   0  0  0  0  0  0  0  0  0  0  0  0
   19.2889  -28.2406  -10.1824 C   0  0  1  0  0  0  0  0  0  0  0  0
   18.4055  -27.0387  -10.1590 N   0  0  0  0  0  0  0  0  0  0  0  0
   18.7036  -26.2881  -11.3747 C   0  0  0  0  0  0  0  0  0  0  0  0
   18.5127  -26.2057   -8.9574 O   0  0  0  0  0  0  0  0  0  0  0  0
   18.9153  -25.0209   -9.1155 C   0  0  0  0  0  0  0  0  0  0  0  0
   24.0796  -29.6798   -8.7767 C   0  0  2  0  0  0  0  0  0  0  0  0
   15.5322  -22.7099   -7.1700 C   0  0  0  0  0  0  0  0  0  0  0  0
   16.5199  -23.5393   -6.2713 C   0  0  0  0  0  0  0  0  0  0  0  0
   15.6301  -23.9421   -5.1023 C   0  0  1  0  0  0  0  0  0  0  0  0
   16.9498  -24.6498   -7.1453 N   0  0  0  0  0  0  0  0  0  0  0  0
   17.9542  -25.6007   -6.6116 C   0  0  0  0  0  0  0  0  0  0  0  0
   18.1942  -26.6298   -7.6532 O   0  0  0  0  0  0  0  0  0  0  0  0
   17.7029  -26.2656   -5.3443 O   0  0  0  0  0  0  0  0  0  0  0  0
  2  1  1  0
  3  2  2  0
  4  2  1  0
  5  4  1  0
  6  5  1  0
  7  6  1  0
  8  9  1  6
  8  7  1  0
 10  8  1  0
 10 11  2  0
 13 14  2  0
 13 12  1  0
 15 13  1  0
 15 16  1  0
 17 18  1  0
 17 16  1  0
 19 18  1  6
 19 20  1  0
 19 21  1  0
 20 10  1  0
 21 28  1  0
 21 22  2  0
 24 23  1  6
 24 25  1  0
 26 24  1  0
 27 26  1  6
 28 27  1  0
 29 30  1  0
 29 27  1  0
 31 29  2  0
M  END
$$$$
