RRL.pdb
     RDKit          3D

 31 30  0  0  1  0  0  0  0  0999 V2000
   26.6548  -20.2761   -3.9001 N   0  0  0  0  0  0  0  0  0  0  0  0
   27.8670  -19.6763   -4.3245 C   0  0  0  0  0  0  0  0  0  0  0  0
   28.8520  -19.4972   -3.4845 N   0  0  0  0  0  0  0  0  0  0  0  0
   28.0701  -19.2442   -5.6714 N   0  0  0  0  0  0  0  0  0  0  0  0
   27.5370  -20.0122   -6.7766 C   0  0  0  0  0  0  0  0  0  0  0  0
   26.5641  -19.1377   -7.5748 C   0  0  0  0  0  0  0  0  0  0  0  0
   26.2137  -19.9214   -8.8069 C   0  0  0  0  0  0  0  0  0  0  0  0
   24.8015  -20.4734   -8.7615 C   0  0  2  0  0  0  0  0  0  0  0  0
   24.6950  -21.6228   -7.9169 N   0  0  0  0  0  0  0  0  0  0  0  0
   24.4966  -20.8857  -10.1554 C   0  0  0  0  0  0  0  0  0  0  0  0
   25.0457  -21.9392  -10.5503 O   0  0  0  0  0  0  0  0  0  0  0  0
   29.7308  -19.0370   -3.8052 N   0  0  0  0  0  0  0  0  0  0  0  0
   18.7168  -19.2380  -15.3560 C   0  0  0  0  0  0  0  0  0  0  0  0
   18.4478  -20.6335  -15.4293 N   0  0  0  0  0  0  0  0  0  0  0  0
   17.9250  -21.1254  -16.4800 N   0  0  0  0  0  0  0  0  0  0  0  0
   18.7731  -21.4477  -14.3188 C   0  0  0  0  0  0  0  0  0  0  0  0
   19.5198  -20.8541  -13.2344 C   0  0  0  0  0  0  0  0  0  0  0  0
   21.0306  -21.0081  -13.4556 C   0  0  0  0  0  0  0  0  0  0  0  0
   21.7004  -20.4729  -12.2282 C   0  0  2  0  0  0  0  0  0  0  0  0
   23.1900  -20.5511  -12.2440 N   0  0  0  0  0  0  0  0  0  0  0  0
   23.6372  -20.1007  -10.9298 C   0  0  0  0  0  0  0  0  0  0  0  0
   23.8445  -19.8158  -13.3303 O   0  0  0  0  0  0  0  0  0  0  0  0
   23.7680  -18.5572  -13.2976 C   0  0  0  0  0  0  0  0  0  0  0  0
   17.6787  -22.1330  -16.5524 C   0  0  2  0  0  0  0  0  0  0  0  0
   28.8655  -19.4692  -14.7122 C   0  0  0  0  0  0  0  0  0  0  0  0
   27.3815  -19.0603  -14.3933 C   0  0  0  0  0  0  0  0  0  0  0  0
   27.4364  -17.5416  -14.4990 C   0  0  1  0  0  0  0  0  0  0  0  0
   26.5923  -19.7350  -15.4440 N   0  0  0  0  0  0  0  0  0  0  0  0
   25.1237  -19.5321  -15.4431 C   0  0  0  0  0  0  0  0  0  0  0  0
   24.5511  -20.4103  -14.3931 O   0  0  0  0  0  0  0  0  0  0  0  0
   24.3770  -19.7251  -16.6745 O   0  0  0  0  0  0  0  0  0  0  0  0
  2  1  1  0
  3  2  2  0
  4  2  1  0
  5  4  1  0
  6  5  1  0
  7  6  1  0
  8  9  1  1
  8  7  1  0
 10  8  1  0
 10 11  2  0
 13 14  2  0
 13 12  1  0
 15 13  1  0
 15 16  1  0
 17 18  1  0
 17 16  1  0
 19 18  1  1
 19 20  1  0
 19 21  1  0
 20 10  1  0
 21 28  1  0
 21 22  2  0
 24 23  1  6
 24 25  1  0
 26 24  1  0
 27 26  1  6
 28 27  1  0
 29 30  1  0
 29 27  1  0
 31 29  2  0
M  END
$$$$
