RRL.pdb
     RDKit          3D

 31 30  0  0  1  0  0  0  0  0999 V2000
   26.4766  -26.8079  -16.4340 N   0  0  0  0  0  0  0  0  0  0  0  0
   25.5945  -25.6991  -16.3938 C   0  0  0  0  0  0  0  0  0  0  0  0
   24.3053  -25.8770  -16.2745 N   0  0  0  0  0  0  0  0  0  0  0  0
   26.0631  -24.3519  -16.4800 N   0  0  0  0  0  0  0  0  0  0  0  0
   27.4820  -24.0707  -16.5367 C   0  0  0  0  0  0  0  0  0  0  0  0
   27.6928  -22.5545  -16.6058 C   0  0  0  0  0  0  0  0  0  0  0  0
   27.1884  -22.1243  -17.9531 C   0  0  0  0  0  0  0  0  0  0  0  0
   27.3791  -20.6393  -18.1972 C   0  0  2  0  0  0  0  0  0  0  0  0
   28.7289  -20.2218  -17.9754 N   0  0  0  0  0  0  0  0  0  0  0  0
   26.5092  -19.9632  -17.2012 C   0  0  0  0  0  0  0  0  0  0  0  0
   27.0935  -19.4400  -16.2254 O   0  0  0  0  0  0  0  0  0  0  0  0
   23.6701  -25.0520  -16.2199 N   0  0  0  0  0  0  0  0  0  0  0  0
   19.1845  -19.5955  -15.7131 C   0  0  0  0  0  0  0  0  0  0  0  0
   18.8239  -18.2316  -15.9003 N   0  0  0  0  0  0  0  0  0  0  0  0
   17.7862  -17.7649  -15.3308 N   0  0  0  0  0  0  0  0  0  0  0  0
   19.6390  -17.4200  -16.7243 C   0  0  0  0  0  0  0  0  0  0  0  0
   20.7526  -18.0402  -17.4032 C   0  0  0  0  0  0  0  0  0  0  0  0
   21.8994  -18.3349  -16.4268 C   0  0  0  0  0  0  0  0  0  0  0  0
   23.0424  -18.8436  -17.2489 C   0  0  1  0  0  0  0  0  0  0  0  0
   24.2423  -19.2562  -16.4644 N   0  0  0  0  0  0  0  0  0  0  0  0
   25.1255  -19.9456  -17.3997 C   0  0  0  0  0  0  0  0  0  0  0  0
   23.9644  -20.0633  -15.2726 O   0  0  0  0  0  0  0  0  0  0  0  0
   23.5779  -21.2491  -15.4610 C   0  0  0  0  0  0  0  0  0  0  0  0
   17.4990  -16.7714  -15.4383 C   0  0  1  0  0  0  0  0  0  0  0  0
   25.5979  -22.0943  -10.6272 C   0  0  0  0  0  0  0  0  0  0  0  0
   24.5800  -20.9124  -10.4317 C   0  0  0  0  0  0  0  0  0  0  0  0
   25.1279  -20.2177   -9.1916 C   0  0  1  0  0  0  0  0  0  0  0  0
   24.6880  -20.1381  -11.6849 N   0  0  0  0  0  0  0  0  0  0  0  0
   23.8726  -20.5783  -12.8421 C   0  0  0  0  0  0  0  0  0  0  0  0
   24.1040  -19.6138  -13.9457 O   0  0  0  0  0  0  0  0  0  0  0  0
   22.4414  -20.7655  -12.6752 O   0  0  0  0  0  0  0  0  0  0  0  0
  2  1  1  0
  3  2  2  0
  4  2  1  0
  5  4  1  0
  6  5  1  0
  7  6  1  0
  8  9  1  1
  8  7  1  0
 10  8  1  0
 10 11  2  0
 13 14  2  0
 13 12  1  0
 15 13  1  0
 15 16  1  0
 17 18  1  0
 17 16  1  0
 19 18  1  6
 19 20  1  0
 19 21  1  0
 20 10  1  0
 21 28  1  0
 21 22  2  0
 24 23  1  6
 24 25  1  0
 26 24  1  0
 27 26  1  1
 28 27  1  0
 29 30  1  0
 29 27  1  0
 31 29  2  0
M  END
$$$$
