RRL.pdb
     RDKit          3D

 31 30  0  0  1  0  0  0  0  0999 V2000
   28.0462  -29.4266  -16.4284 N   0  0  0  0  0  0  0  0  0  0  0  0
   27.3806  -30.4766  -15.7475 C   0  0  0  0  0  0  0  0  0  0  0  0
   27.9564  -31.0949  -14.7504 N   0  0  0  0  0  0  0  0  0  0  0  0
   26.0667  -30.9052  -16.1109 N   0  0  0  0  0  0  0  0  0  0  0  0
   25.4219  -30.3728  -17.2925 C   0  0  0  0  0  0  0  0  0  0  0  0
   24.5409  -29.1841  -16.8933 C   0  0  0  0  0  0  0  0  0  0  0  0
   23.2820  -29.7710  -16.3230 C   0  0  0  0  0  0  0  0  0  0  0  0
   22.0571  -29.4346  -17.1523 C   0  0  2  0  0  0  0  0  0  0  0  0
   22.3971  -28.8149  -18.3957 N   0  0  0  0  0  0  0  0  0  0  0  0
   21.2873  -28.4603  -16.3375 C   0  0  0  0  0  0  0  0  0  0  0  0
   21.1016  -27.3355  -16.8549 O   0  0  0  0  0  0  0  0  0  0  0  0
   27.4276  -31.8118  -14.2089 N   0  0  0  0  0  0  0  0  0  0  0  0
   22.3677  -32.0117   -9.1766 C   0  0  0  0  0  0  0  0  0  0  0  0
   21.4838  -31.6308  -10.2249 N   0  0  0  0  0  0  0  0  0  0  0  0
   21.4013  -32.3426  -11.2764 N   0  0  0  0  0  0  0  0  0  0  0  0
   20.7098  -30.4568  -10.0685 C   0  0  0  0  0  0  0  0  0  0  0  0
   19.8113  -30.0859  -11.1366 C   0  0  0  0  0  0  0  0  0  0  0  0
   20.5151  -29.1878  -12.1629 C   0  0  0  0  0  0  0  0  0  0  0  0
   19.4688  -28.7538  -13.1418 C   0  0  1  0  0  0  0  0  0  0  0  0
   19.9800  -27.9452  -14.2864 N   0  0  0  0  0  0  0  0  0  0  0  0
   20.8230  -28.8388  -15.0744 C   0  0  0  0  0  0  0  0  0  0  0  0
   20.6794  -26.7106  -13.9183 O   0  0  0  0  0  0  0  0  0  0  0  0
   21.8948  -26.6218  -14.2437 C   0  0  0  0  0  0  0  0  0  0  0  0
   20.7450  -32.1100  -12.0485 C   0  0  2  0  0  0  0  0  0  0  0  0
   19.8286  -22.9578  -17.2077 C   0  0  0  0  0  0  0  0  0  0  0  0
   20.7623  -23.7798  -16.2466 C   0  0  0  0  0  0  0  0  0  0  0  0
   21.7156  -22.7094  -15.7310 C   0  0  1  0  0  0  0  0  0  0  0  0
   19.8362  -24.3347  -15.2385 N   0  0  0  0  0  0  0  0  0  0  0  0
   20.2422  -24.2654  -13.8144 C   0  0  0  0  0  0  0  0  0  0  0  0
   20.0932  -25.6252  -13.2396 O   0  0  0  0  0  0  0  0  0  0  0  0
   19.5918  -23.3101  -12.9337 O   0  0  0  0  0  0  0  0  0  0  0  0
  2  1  1  0
  3  2  2  0
  4  2  1  0
  5  4  1  0
  6  5  1  0
  7  6  1  0
  8  9  1  6
  8  7  1  0
 10  8  1  0
 10 11  2  0
 13 14  2  0
 13 12  1  0
 15 13  1  0
 15 16  1  0
 17 18  1  0
 17 16  1  0
 19 18  1  6
 19 20  1  0
 19 21  1  0
 20 10  1  0
 21 28  1  0
 21 22  2  0
 24 23  1  1
 24 25  1  0
 26 24  1  0
 27 26  1  1
 28 27  1  0
 29 30  1  0
 29 27  1  0
 31 29  2  0
M  END
$$$$
