RRL.pdb
     RDKit          3D

 31 30  0  0  1  0  0  0  0  0999 V2000
   18.0742  -13.8916  -16.1466 N   0  0  0  0  0  0  0  0  0  0  0  0
   18.7688  -14.1566  -14.9398 C   0  0  0  0  0  0  0  0  0  0  0  0
   18.6185  -13.3797  -13.8998 N   0  0  0  0  0  0  0  0  0  0  0  0
   19.6545  -15.2695  -14.8015 N   0  0  0  0  0  0  0  0  0  0  0  0
   19.7030  -16.2993  -15.8177 C   0  0  0  0  0  0  0  0  0  0  0  0
   18.8931  -17.5115  -15.3457 C   0  0  0  0  0  0  0  0  0  0  0  0
   19.8934  -18.5081  -14.8350 C   0  0  0  0  0  0  0  0  0  0  0  0
   20.2388  -19.5649  -15.8671 C   0  0  2  0  0  0  0  0  0  0  0  0
   19.1291  -20.4174  -16.1632 N   0  0  0  0  0  0  0  0  0  0  0  0
   21.3083  -20.3862  -15.2448 C   0  0  0  0  0  0  0  0  0  0  0  0
   21.0383  -20.8887  -14.1304 O   0  0  0  0  0  0  0  0  0  0  0  0
   19.1468  -13.5775  -13.0230 N   0  0  0  0  0  0  0  0  0  0  0  0
   28.3721  -20.6912  -16.5948 C   0  0  0  0  0  0  0  0  0  0  0  0
   28.1396  -20.0321  -17.8345 N   0  0  0  0  0  0  0  0  0  0  0  0
   28.8192  -19.0016  -18.1434 N   0  0  0  0  0  0  0  0  0  0  0  0
   27.1472  -20.5463  -18.7020 C   0  0  0  0  0  0  0  0  0  0  0  0
   26.1752  -21.4649  -18.1566 C   0  0  0  0  0  0  0  0  0  0  0  0
   25.4032  -20.8255  -16.9945 C   0  0  0  0  0  0  0  0  0  0  0  0
   24.4031  -21.8402  -16.5345 C   0  0  1  0  0  0  0  0  0  0  0  0
   23.5684  -21.4142  -15.3738 N   0  0  0  0  0  0  0  0  0  0  0  0
   22.5234  -20.5516  -15.9161 C   0  0  0  0  0  0  0  0  0  0  0  0
   24.3002  -20.7708  -14.2785 O   0  0  0  0  0  0  0  0  0  0  0  0
   24.3266  -19.5098  -14.2700 C   0  0  0  0  0  0  0  0  0  0  0  0
   28.6442  -18.4690  -19.0190 C   0  0  2  0  0  0  0  0  0  0  0  0
   25.3290  -21.1736   -8.5023 C   0  0  0  0  0  0  0  0  0  0  0  0
   26.0287  -20.5106   -9.7441 C   0  0  0  0  0  0  0  0  0  0  0  0
   27.4872  -20.8983   -9.5365 C   0  0  1  0  0  0  0  0  0  0  0  0
   25.3695  -21.1435  -10.9046 N   0  0  0  0  0  0  0  0  0  0  0  0
   25.7442  -20.6668  -12.2574 C   0  0  0  0  0  0  0  0  0  0  0  0
   24.9633  -21.4554  -13.2422 O   0  0  0  0  0  0  0  0  0  0  0  0
   27.1422  -20.6738  -12.6535 O   0  0  0  0  0  0  0  0  0  0  0  0
  2  1  1  0
  3  2  2  0
  4  2  1  0
  5  4  1  0
  6  5  1  0
  7  6  1  0
  8  9  1  1
  8  7  1  0
 10  8  1  0
 10 11  2  0
 13 14  2  0
 13 12  1  0
 15 13  1  0
 15 16  1  0
 17 18  1  0
 17 16  1  0
 19 18  1  6
 19 20  1  0
 19 21  1  0
 20 10  1  0
 21 28  1  0
 21 22  2  0
 24 23  1  1
 24 25  1  0
 26 24  1  0
 27 26  1  6
 28 27  1  0
 29 30  1  0
 29 27  1  0
 31 29  2  0
M  END
$$$$
