RRL.pdb
     RDKit          3D

 31 30  0  0  1  0  0  0  0  0999 V2000
   31.0066  -22.7865  -11.3623 N   0  0  0  0  0  0  0  0  0  0  0  0
   31.2541  -22.0307  -10.1890 C   0  0  0  0  0  0  0  0  0  0  0  0
   32.0580  -22.4818   -9.2626 N   0  0  0  0  0  0  0  0  0  0  0  0
   30.6468  -20.7569   -9.9635 N   0  0  0  0  0  0  0  0  0  0  0  0
   29.3198  -20.4768  -10.4696 C   0  0  0  0  0  0  0  0  0  0  0  0
   28.3098  -21.3918   -9.7690 C   0  0  0  0  0  0  0  0  0  0  0  0
   27.2199  -21.6524  -10.7684 C   0  0  0  0  0  0  0  0  0  0  0  0
   25.9605  -20.8597  -10.4738 C   0  0  2  0  0  0  0  0  0  0  0  0
   25.2917  -21.3211   -9.2968 N   0  0  0  0  0  0  0  0  0  0  0  0
   25.0702  -21.0900  -11.6401 C   0  0  0  0  0  0  0  0  0  0  0  0
   24.6520  -22.2604  -11.7905 O   0  0  0  0  0  0  0  0  0  0  0  0
   32.2910  -21.8839   -8.4410 N   0  0  0  0  0  0  0  0  0  0  0  0
   19.3472  -22.6725  -10.2551 C   0  0  0  0  0  0  0  0  0  0  0  0
   19.7722  -23.1935  -11.5093 N   0  0  0  0  0  0  0  0  0  0  0  0
   19.2940  -24.2929  -11.9355 N   0  0  0  0  0  0  0  0  0  0  0  0
   20.7265  -22.4663  -12.2593 C   0  0  0  0  0  0  0  0  0  0  0  0
   20.2478  -21.4585  -13.1764 C   0  0  0  0  0  0  0  0  0  0  0  0
   21.4088  -20.8236  -13.9537 C   0  0  0  0  0  0  0  0  0  0  0  0
   22.5462  -20.6872  -12.9899 C   0  0  1  0  0  0  0  0  0  0  0  0
   23.8180  -20.1888  -13.5897 N   0  0  0  0  0  0  0  0  0  0  0  0
   24.7539  -20.0202  -12.4826 C   0  0  0  0  0  0  0  0  0  0  0  0
   23.6950  -18.9714  -14.3971 O   0  0  0  0  0  0  0  0  0  0  0  0
   23.6317  -17.8756  -13.7756 C   0  0  0  0  0  0  0  0  0  0  0  0
   19.6639  -24.7608  -12.7872 C   0  0  2  0  0  0  0  0  0  0  0  0
   28.1032  -18.4124  -16.3331 C   0  0  0  0  0  0  0  0  0  0  0  0
   26.7416  -17.9371  -15.7076 C   0  0  0  0  0  0  0  0  0  0  0  0
   26.9911  -16.4509  -15.4851 C   0  0  1  0  0  0  0  0  0  0  0  0
   25.7412  -18.2577  -16.7460 N   0  0  0  0  0  0  0  0  0  0  0  0
   24.3404  -17.8331  -16.5110 C   0  0  0  0  0  0  0  0  0  0  0  0
   23.6498  -18.9398  -15.8039 O   0  0  0  0  0  0  0  0  0  0  0  0
   23.5240  -17.4149  -17.6379 O   0  0  0  0  0  0  0  0  0  0  0  0
  2  1  1  0
  3  2  2  0
  4  2  1  0
  5  4  1  0
  6  5  1  0
  7  6  1  0
  8  9  1  1
  8  7  1  0
 10  8  1  0
 10 11  2  0
 13 14  2  0
 13 12  1  0
 15 13  1  0
 15 16  1  0
 17 18  1  0
 17 16  1  0
 19 18  1  6
 19 20  1  0
 19 21  1  0
 20 10  1  0
 21 28  1  0
 21 22  2  0
 24 23  1  6
 24 25  1  0
 26 24  1  0
 27 26  1  6
 28 27  1  0
 29 30  1  0
 29 27  1  0
 31 29  2  0
M  END
$$$$
