RRL.pdb
     RDKit          3D

 31 30  0  0  1  0  0  0  0  0999 V2000
   19.3786  -23.9135   -7.5162 N   0  0  0  0  0  0  0  0  0  0  0  0
   18.4938  -24.9729   -7.8386 C   0  0  0  0  0  0  0  0  0  0  0  0
   18.3528  -25.9921   -7.0329 N   0  0  0  0  0  0  0  0  0  0  0  0
   17.7232  -24.9796   -9.0420 N   0  0  0  0  0  0  0  0  0  0  0  0
   18.3106  -24.5461  -10.2920 C   0  0  0  0  0  0  0  0  0  0  0  0
   18.3859  -23.0157  -10.3092 C   0  0  0  0  0  0  0  0  0  0  0  0
   19.6271  -22.6679  -11.0796 C   0  0  0  0  0  0  0  0  0  0  0  0
   19.4035  -22.6873  -12.5799 C   0  0  2  0  0  0  0  0  0  0  0  0
   18.9982  -23.9754  -13.0515 N   0  0  0  0  0  0  0  0  0  0  0  0
   20.7239  -22.3630  -13.1774 C   0  0  0  0  0  0  0  0  0  0  0  0
   21.5364  -23.3115  -13.2647 O   0  0  0  0  0  0  0  0  0  0  0  0
   17.7290  -26.7834   -7.3008 N   0  0  0  0  0  0  0  0  0  0  0  0
   21.0734  -18.0459  -19.8278 C   0  0  0  0  0  0  0  0  0  0  0  0
   21.0292  -19.4374  -19.5329 N   0  0  0  0  0  0  0  0  0  0  0  0
   20.4796  -20.2428  -20.3504 N   0  0  0  0  0  0  0  0  0  0  0  0
   21.6049  -19.8947  -18.3241 C   0  0  0  0  0  0  0  0  0  0  0  0
   22.5314  -19.0242  -17.6388 C   0  0  0  0  0  0  0  0  0  0  0  0
   23.0894  -19.6960  -16.3769 C   0  0  0  0  0  0  0  0  0  0  0  0
   21.9124  -20.0403  -15.5182 C   0  0  2  0  0  0  0  0  0  0  0  0
   22.2529  -20.7081  -14.2285 N   0  0  0  0  0  0  0  0  0  0  0  0
   20.9825  -21.0557  -13.5998 C   0  0  0  0  0  0  0  0  0  0  0  0
   23.1177  -19.9351  -13.3319 O   0  0  0  0  0  0  0  0  0  0  0  0
   22.6562  -19.6540  -12.1922 C   0  0  0  0  0  0  0  0  0  0  0  0
   20.4244  -21.2642  -20.1639 C   0  0  1  0  0  0  0  0  0  0  0  0
   26.6023  -22.3590  -10.6419 C   0  0  0  0  0  0  0  0  0  0  0  0
   25.2527  -21.5954  -10.9003 C   0  0  0  0  0  0  0  0  0  0  0  0
   25.3958  -20.3753   -9.9994 C   0  0  2  0  0  0  0  0  0  0  0  0
   25.2754  -21.3121  -12.3498 N   0  0  0  0  0  0  0  0  0  0  0  0
   25.5412  -19.9178  -12.7778 C   0  0  0  0  0  0  0  0  0  0  0  0
   24.4169  -19.4948  -13.6488 O   0  0  0  0  0  0  0  0  0  0  0  0
   26.7941  -19.6033  -13.4431 O   0  0  0  0  0  0  0  0  0  0  0  0
  2  1  1  0
  3  2  2  0
  4  2  1  0
  5  4  1  0
  6  5  1  0
  7  6  1  0
  8  9  1  6
  8  7  1  0
 10  8  1  0
 10 11  2  0
 13 14  2  0
 13 12  1  0
 15 13  1  0
 15 16  1  0
 17 18  1  0
 17 16  1  0
 19 18  1  6
 19 20  1  0
 19 21  1  0
 20 10  1  0
 21 28  1  0
 21 22  2  0
 24 23  1  6
 24 25  1  0
 26 24  1  0
 27 26  1  1
 28 27  1  0
 29 30  1  0
 29 27  1  0
 31 29  2  0
M  END
$$$$
