RRL.pdb
     RDKit          3D

 31 30  0  0  1  0  0  0  0  0999 V2000
   31.8759  -25.3671  -18.0907 N   0  0  0  0  0  0  0  0  0  0  0  0
   32.1790  -25.1919  -16.7172 C   0  0  0  0  0  0  0  0  0  0  0  0
   33.3012  -25.6403  -16.2197 N   0  0  0  0  0  0  0  0  0  0  0  0
   31.2869  -24.5261  -15.8212 N   0  0  0  0  0  0  0  0  0  0  0  0
   29.9340  -24.2133  -16.2303 C   0  0  0  0  0  0  0  0  0  0  0  0
   29.9044  -22.8079  -16.8404 C   0  0  0  0  0  0  0  0  0  0  0  0
   29.3647  -21.9009  -15.7722 C   0  0  0  0  0  0  0  0  0  0  0  0
   27.8877  -21.6060  -15.9529 C   0  0  2  0  0  0  0  0  0  0  0  0
   27.6216  -20.8861  -17.1599 N   0  0  0  0  0  0  0  0  0  0  0  0
   27.5159  -20.7448  -14.8014 C   0  0  0  0  0  0  0  0  0  0  0  0
   28.3951  -19.9467  -14.4047 O   0  0  0  0  0  0  0  0  0  0  0  0
   33.5292  -25.4706  -15.2167 N   0  0  0  0  0  0  0  0  0  0  0  0
   19.6611  -19.2687  -14.6212 C   0  0  0  0  0  0  0  0  0  0  0  0
   20.6025  -19.8838  -15.4933 N   0  0  0  0  0  0  0  0  0  0  0  0
   20.3273  -20.0247  -16.7276 N   0  0  0  0  0  0  0  0  0  0  0  0
   21.8351  -20.3275  -14.9588 C   0  0  0  0  0  0  0  0  0  0  0  0
   22.0255  -20.2490  -13.5293 C   0  0  0  0  0  0  0  0  0  0  0  0
   23.4168  -20.7583  -13.1292 C   0  0  0  0  0  0  0  0  0  0  0  0
   24.3813  -19.6546  -13.4336 C   0  0  1  0  0  0  0  0  0  0  0  0
   25.8113  -19.9805  -13.1608 N   0  0  0  0  0  0  0  0  0  0  0  0
   26.2419  -20.8654  -14.2386 C   0  0  0  0  0  0  0  0  0  0  0  0
   26.0824  -20.5514  -11.8381 O   0  0  0  0  0  0  0  0  0  0  0  0
   26.2643  -21.7981  -11.7784 C   0  0  0  0  0  0  0  0  0  0  0  0
   20.9852  -20.4835  -17.3893 C   0  0  2  0  0  0  0  0  0  0  0  0
   29.1956  -20.9420   -7.5431 C   0  0  0  0  0  0  0  0  0  0  0  0
   27.8246  -20.2203   -7.2776 C   0  0  0  0  0  0  0  0  0  0  0  0
   28.2177  -19.1402   -6.2779 C   0  0  1  0  0  0  0  0  0  0  0  0
   27.4182  -19.7262   -8.6090 N   0  0  0  0  0  0  0  0  0  0  0  0
   26.4421  -20.5346   -9.3781 C   0  0  0  0  0  0  0  0  0  0  0  0
   26.1598  -19.8115  -10.6427 O   0  0  0  0  0  0  0  0  0  0  0  0
   25.1813  -20.9075   -8.7595 O   0  0  0  0  0  0  0  0  0  0  0  0
  2  1  1  0
  3  2  2  0
  4  2  1  0
  5  4  1  0
  6  5  1  0
  7  6  1  0
  8  9  1  6
  8  7  1  0
 10  8  1  0
 10 11  2  0
 13 14  2  0
 13 12  1  0
 15 13  1  0
 15 16  1  0
 17 18  1  0
 17 16  1  0
 19 18  1  6
 19 20  1  0
 19 21  1  0
 20 10  1  0
 21 28  1  0
 21 22  2  0
 24 23  1  6
 24 25  1  0
 26 24  1  0
 27 26  1  1
 28 27  1  0
 29 30  1  0
 29 27  1  0
 31 29  2  0
M  END
$$$$
