RRL.pdb
     RDKit          3D

 31 30  0  0  1  0  0  0  0  0999 V2000
   14.6241  -24.4478   -7.4602 N   0  0  0  0  0  0  0  0  0  0  0  0
   15.2919  -25.4971   -6.7804 C   0  0  0  0  0  0  0  0  0  0  0  0
   14.7561  -26.0565   -5.7278 N   0  0  0  0  0  0  0  0  0  0  0  0
   16.5645  -25.9888   -7.2052 N   0  0  0  0  0  0  0  0  0  0  0  0
   17.3455  -25.2576   -8.1803 C   0  0  0  0  0  0  0  0  0  0  0  0
   17.6292  -23.8499   -7.6454 C   0  0  0  0  0  0  0  0  0  0  0  0
   18.5260  -23.1931   -8.6549 C   0  0  0  0  0  0  0  0  0  0  0  0
   18.2009  -23.6084  -10.0772 C   0  0  2  0  0  0  0  0  0  0  0  0
   17.5904  -24.9004  -10.1393 N   0  0  0  0  0  0  0  0  0  0  0  0
   19.5101  -23.6742  -10.7755 C   0  0  0  0  0  0  0  0  0  0  0  0
   20.3416  -24.4865  -10.3107 O   0  0  0  0  0  0  0  0  0  0  0  0
   15.2872  -26.7798   -5.1971 N   0  0  0  0  0  0  0  0  0  0  0  0
   22.7495  -27.0531  -16.3472 C   0  0  0  0  0  0  0  0  0  0  0  0
   23.9872  -26.4397  -16.0051 N   0  0  0  0  0  0  0  0  0  0  0  0
   25.0313  -26.6924  -16.6871 N   0  0  0  0  0  0  0  0  0  0  0  0
   24.0249  -25.5536  -14.9028 C   0  0  0  0  0  0  0  0  0  0  0  0
   22.8080  -25.3471  -14.1528 C   0  0  0  0  0  0  0  0  0  0  0  0
   22.1812  -23.9855  -14.4822 C   0  0  0  0  0  0  0  0  0  0  0  0
   20.9509  -23.8644  -13.6377 C   0  0  1  0  0  0  0  0  0  0  0  0
   21.0336  -22.8414  -12.5550 N   0  0  0  0  0  0  0  0  0  0  0  0
   19.7383  -22.8517  -11.8827 C   0  0  0  0  0  0  0  0  0  0  0  0
   21.4163  -21.4956  -12.9926 O   0  0  0  0  0  0  0  0  0  0  0  0
   20.6275  -20.5540  -12.7061 C   0  0  0  0  0  0  0  0  0  0  0  0
   25.9448  -26.2396  -16.4833 C   0  0  1  0  0  0  0  0  0  0  0  0
   26.3671  -21.5381  -11.7115 C   0  0  0  0  0  0  0  0  0  0  0  0
   25.0806  -21.2506  -10.8551 C   0  0  0  0  0  0  0  0  0  0  0  0
   25.2460  -19.7758  -10.5111 C   0  0  2  0  0  0  0  0  0  0  0  0
   23.9652  -21.5605  -11.7724 N   0  0  0  0  0  0  0  0  0  0  0  0
   23.7596  -20.6670  -12.9375 C   0  0  0  0  0  0  0  0  0  0  0  0
   22.5944  -21.1831  -13.6974 O   0  0  0  0  0  0  0  0  0  0  0  0
   24.8573  -20.4367  -13.8613 O   0  0  0  0  0  0  0  0  0  0  0  0
  2  1  1  0
  3  2  2  0
  4  2  1  0
  5  4  1  0
  6  5  1  0
  7  6  1  0
  8  9  1  1
  8  7  1  0
 10  8  1  0
 10 11  2  0
 13 14  2  0
 13 12  1  0
 15 13  1  0
 15 16  1  0
 17 18  1  0
 17 16  1  0
 19 18  1  1
 19 20  1  0
 19 21  1  0
 20 10  1  0
 21 28  1  0
 21 22  2  0
 24 23  1  6
 24 25  1  0
 26 24  1  0
 27 26  1  6
 28 27  1  0
 29 30  1  0
 29 27  1  0
 31 29  2  0
M  END
$$$$
