RRL.pdb
     RDKit          3D

 31 30  0  0  1  0  0  0  0  0999 V2000
   27.7151  -25.6065  -16.3825 N   0  0  0  0  0  0  0  0  0  0  0  0
   28.5467  -24.8179  -17.2165 C   0  0  0  0  0  0  0  0  0  0  0  0
   28.8323  -25.2058  -18.4314 N   0  0  0  0  0  0  0  0  0  0  0  0
   29.1059  -23.5781  -16.7781 N   0  0  0  0  0  0  0  0  0  0  0  0
   28.5315  -22.8713  -15.6529 C   0  0  0  0  0  0  0  0  0  0  0  0
   27.8973  -21.5671  -16.1477 C   0  0  0  0  0  0  0  0  0  0  0  0
   26.6473  -21.3776  -15.3375 C   0  0  0  0  0  0  0  0  0  0  0  0
   25.5882  -22.4168  -15.6526 C   0  0  2  0  0  0  0  0  0  0  0  0
   25.8542  -23.1094  -16.8754 N   0  0  0  0  0  0  0  0  0  0  0  0
   24.3243  -21.6531  -15.8114 C   0  0  0  0  0  0  0  0  0  0  0  0
   24.0996  -21.1922  -16.9535 O   0  0  0  0  0  0  0  0  0  0  0  0
   29.4874  -24.6433  -19.0157 N   0  0  0  0  0  0  0  0  0  0  0  0
   17.8358  -23.2448  -11.0621 C   0  0  0  0  0  0  0  0  0  0  0  0
   19.1825  -23.5179  -11.4323 N   0  0  0  0  0  0  0  0  0  0  0  0
   19.7368  -24.6008  -11.0594 N   0  0  0  0  0  0  0  0  0  0  0  0
   19.8783  -22.5668  -12.2154 C   0  0  0  0  0  0  0  0  0  0  0  0
   19.1550  -21.4058  -12.6788 C   0  0  0  0  0  0  0  0  0  0  0  0
   20.0006  -20.5849  -13.6618 C   0  0  0  0  0  0  0  0  0  0  0  0
   21.3374  -21.2543  -13.7402 C   0  0  1  0  0  0  0  0  0  0  0  0
   22.2250  -20.7531  -14.8294 N   0  0  0  0  0  0  0  0  0  0  0  0
   23.4764  -21.4947  -14.7112 C   0  0  0  0  0  0  0  0  0  0  0  0
   22.4431  -19.3035  -14.8426 O   0  0  0  0  0  0  0  0  0  0  0  0
   22.9443  -18.7900  -13.8053 C   0  0  0  0  0  0  0  0  0  0  0  0
   20.7147  -24.8374  -11.3216 C   0  0  2  0  0  0  0  0  0  0  0  0
   25.6586  -15.4375  -16.8770 C   0  0  0  0  0  0  0  0  0  0  0  0
   24.0917  -15.3422  -16.7936 C   0  0  0  0  0  0  0  0  0  0  0  0
   23.7372  -14.6979  -18.1277 C   0  0  1  0  0  0  0  0  0  0  0  0
   23.6571  -16.7453  -16.6383 N   0  0  0  0  0  0  0  0  0  0  0  0
   22.4616  -17.0103  -15.8027 C   0  0  0  0  0  0  0  0  0  0  0  0
   22.1415  -18.4541  -15.9241 O   0  0  0  0  0  0  0  0  0  0  0  0
   21.2499  -16.2407  -16.0281 O   0  0  0  0  0  0  0  0  0  0  0  0
  2  1  1  0
  3  2  2  0
  4  2  1  0
  5  4  1  0
  6  5  1  0
  7  6  1  0
  8  9  1  6
  8  7  1  0
 10  8  1  0
 10 11  2  0
 13 14  2  0
 13 12  1  0
 15 13  1  0
 15 16  1  0
 17 18  1  0
 17 16  1  0
 19 18  1  6
 19 20  1  0
 19 21  1  0
 20 10  1  0
 21 28  1  0
 21 22  2  0
 24 23  1  6
 24 25  1  0
 26 24  1  0
 27 26  1  6
 28 27  1  0
 29 30  1  0
 29 27  1  0
 31 29  2  0
M  END
$$$$
