RRL.pdb
     RDKit          3D

 31 30  0  0  1  0  0  0  0  0999 V2000
   29.5953  -25.4832  -17.8965 N   0  0  0  0  0  0  0  0  0  0  0  0
   29.1955  -26.6975  -17.2842 C   0  0  0  0  0  0  0  0  0  0  0  0
   30.0462  -27.6773  -17.1289 N   0  0  0  0  0  0  0  0  0  0  0  0
   27.8630  -26.9080  -16.8129 N   0  0  0  0  0  0  0  0  0  0  0  0
   26.8525  -25.8867  -16.9890 C   0  0  0  0  0  0  0  0  0  0  0  0
   26.9726  -24.8589  -15.8587 C   0  0  0  0  0  0  0  0  0  0  0  0
   25.5732  -24.6001  -15.3799 C   0  0  0  0  0  0  0  0  0  0  0  0
   24.5456  -24.7413  -16.4868 C   0  0  2  0  0  0  0  0  0  0  0  0
   24.6497  -23.6987  -17.4604 N   0  0  0  0  0  0  0  0  0  0  0  0
   23.2263  -24.6253  -15.8145 C   0  0  0  0  0  0  0  0  0  0  0  0
   22.5920  -23.5669  -16.0261 O   0  0  0  0  0  0  0  0  0  0  0  0
   29.7221  -28.5902  -16.7435 N   0  0  0  0  0  0  0  0  0  0  0  0
   19.4493  -27.4369   -9.7516 C   0  0  0  0  0  0  0  0  0  0  0  0
   18.3942  -28.0400  -10.4920 N   0  0  0  0  0  0  0  0  0  0  0  0
   17.1936  -27.9421  -10.0820 N   0  0  0  0  0  0  0  0  0  0  0  0
   18.7114  -28.7407  -11.6795 C   0  0  0  0  0  0  0  0  0  0  0  0
   19.9778  -28.4639  -12.3162 C   0  0  0  0  0  0  0  0  0  0  0  0
   20.0095  -27.0390  -12.8854 C   0  0  0  0  0  0  0  0  0  0  0  0
   21.2866  -26.9137  -13.6565 C   0  0  1  0  0  0  0  0  0  0  0  0
   21.4707  -25.6078  -14.3537 N   0  0  0  0  0  0  0  0  0  0  0  0
   22.7747  -25.6726  -15.0061 C   0  0  0  0  0  0  0  0  0  0  0  0
   21.3383  -24.4202  -13.5045 O   0  0  0  0  0  0  0  0  0  0  0  0
   22.3729  -24.0328  -12.8958 C   0  0  0  0  0  0  0  0  0  0  0  0
   16.4094  -28.4375  -10.5518 C   0  0  2  0  0  0  0  0  0  0  0  0
   20.6262  -19.5302  -14.5365 C   0  0  0  0  0  0  0  0  0  0  0  0
   21.6654  -20.2356  -13.5912 C   0  0  0  0  0  0  0  0  0  0  0  0
   21.3082  -19.6539  -12.2293 C   0  0  2  0  0  0  0  0  0  0  0  0
   21.3765  -21.6749  -13.7550 N   0  0  0  0  0  0  0  0  0  0  0  0
   20.2517  -22.2471  -12.9771 C   0  0  0  0  0  0  0  0  0  0  0  0
   20.1505  -23.6852  -13.3282 O   0  0  0  0  0  0  0  0  0  0  0  0
   18.9336  -21.6448  -13.0820 O   0  0  0  0  0  0  0  0  0  0  0  0
  2  1  1  0
  3  2  2  0
  4  2  1  0
  5  4  1  0
  6  5  1  0
  7  6  1  0
  8  9  1  6
  8  7  1  0
 10  8  1  0
 10 11  2  0
 13 14  2  0
 13 12  1  0
 15 13  1  0
 15 16  1  0
 17 18  1  0
 17 16  1  0
 19 18  1  6
 19 20  1  0
 19 21  1  0
 20 10  1  0
 21 28  1  0
 21 22  2  0
 24 23  1  1
 24 25  1  0
 26 24  1  0
 27 26  1  6
 28 27  1  0
 29 30  1  0
 29 27  1  0
 31 29  2  0
M  END
$$$$
