HAM.pdb
     RDKit          3D

 24 24  0  0  1  0  0  0  0  0999 V2000
   26.1941  -18.0171  -16.3645 N   0  0  0  0  0  0  0  0  0  0  0  0
   26.4299  -17.8062  -14.9238 C   0  0  1  0  0  0  0  0  0  0  0  0
   25.2373  -17.0025  -14.4541 C   0  0  0  0  0  0  0  0  0  0  0  0
   25.1831  -15.6467  -15.0128 C   0  0  0  0  0  0  0  0  0  0  0  0
   26.3024  -14.8214  -15.0994 C   0  0  0  0  0  0  0  0  0  0  0  0
   25.9715  -13.6602  -15.6411 N   0  0  0  0  0  0  0  0  0  0  0  0
   24.6533  -13.7094  -15.9115 C   0  0  0  0  0  0  0  0  0  0  0  0
   24.1851  -14.9209  -15.5256 N   0  0  0  0  0  0  0  0  0  0  0  0
   26.3517  -19.1577  -14.2973 C   0  0  0  0  0  0  0  0  0  0  0  0
   25.3148  -19.8711  -14.3134 O   0  0  0  0  0  0  0  0  0  0  0  0
   28.6514  -21.8801  -13.3328 C   0  0  0  0  0  0  0  0  0  0  0  0
   27.4002  -21.0779  -13.0241 C   0  0  2  0  0  0  0  0  0  0  0  0
   27.4740  -19.7514  -13.6194 N   0  0  0  0  0  0  0  0  0  0  0  0
   27.2590  -20.8958  -11.5607 C   0  0  0  0  0  0  0  0  0  0  0  0
   28.3012  -20.8551  -10.8646 O   0  0  0  0  0  0  0  0  0  0  0  0
   28.9899  -20.0517   -5.6610 C   0  0  0  0  0  0  0  0  0  0  0  0
   27.7191  -19.0242   -6.4585 S   0  0  0  0  0  0  0  0  0  0  0  0
   26.4823  -20.1037   -7.2776 C   0  0  0  0  0  0  0  0  0  0  0  0
   26.7591  -20.1508   -8.7657 C   0  0  0  0  0  0  0  0  0  0  0  0
   25.8363  -21.0568   -9.5214 C   0  0  2  0  0  0  0  0  0  0  0  0
   26.0006  -20.7674  -10.9267 N   0  0  0  0  0  0  0  0  0  0  0  0
   24.4194  -20.9284   -9.1432 C   0  0  0  0  0  0  0  0  0  0  0  0
   23.9094  -21.2977   -7.9091 O   0  0  0  0  0  0  0  0  0  0  0  0
   23.6080  -20.4613   -9.9678 O   0  0  0  0  0  0  0  0  0  0  0  0
  2  1  1  6
  3  2  1  0
  4  3  1  0
  4  5  2  0
  6  5  1  0
  7  6  1  0
  8  7  2  0
  8  4  1  0
  9  2  1  0
 10  9  2  0
 12 11  1  1
 12 13  1  0
 12 14  1  0
 13  9  1  0
 14 21  1  0
 15 14  2  0
 17 16  1  0
 18 17  1  0
 19 18  1  0
 20 19  1  1
 20 22  1  0
 21 20  1  0
 22 24  2  0
 22 23  1  0
M  END
$$$$
