HAM.pdb
     RDKit          3D

 24 24  0  0  1  0  0  0  0  0999 V2000
   23.1141  -13.7317  -17.2497 N   0  0  0  0  0  0  0  0  0  0  0  0
   23.7803  -12.6088  -16.5632 C   0  0  1  0  0  0  0  0  0  0  0  0
   25.1761  -12.5776  -17.1459 C   0  0  0  0  0  0  0  0  0  0  0  0
   25.9856  -13.7518  -16.8004 C   0  0  0  0  0  0  0  0  0  0  0  0
   26.2209  -14.1448  -15.4845 C   0  0  0  0  0  0  0  0  0  0  0  0
   26.9775  -15.2303  -15.4617 N   0  0  0  0  0  0  0  0  0  0  0  0
   27.2429  -15.5565  -16.7409 C   0  0  0  0  0  0  0  0  0  0  0  0
   26.6351  -14.6512  -17.5452 N   0  0  0  0  0  0  0  0  0  0  0  0
   23.0656  -11.3781  -17.0100 C   0  0  0  0  0  0  0  0  0  0  0  0
   22.8058  -11.1254  -18.2153 O   0  0  0  0  0  0  0  0  0  0  0  0
   20.3563   -9.4447  -16.2502 C   0  0  0  0  0  0  0  0  0  0  0  0
   21.8359   -9.2234  -16.5074 C   0  0  2  0  0  0  0  0  0  0  0  0
   22.6152  -10.3763  -16.0798 N   0  0  0  0  0  0  0  0  0  0  0  0
   22.3189   -8.0553  -15.7348 C   0  0  0  0  0  0  0  0  0  0  0  0
   22.7543   -8.2500  -14.5750 O   0  0  0  0  0  0  0  0  0  0  0  0
   25.5439   -3.6245  -19.7917 C   0  0  0  0  0  0  0  0  0  0  0  0
   24.2849   -3.2809  -18.5254 S   0  0  0  0  0  0  0  0  0  0  0  0
   24.1130   -4.7354  -17.4205 C   0  0  0  0  0  0  0  0  0  0  0  0
   23.0083   -4.4799  -16.4166 C   0  0  0  0  0  0  0  0  0  0  0  0
   22.7764   -5.6200  -15.4733 C   0  0  2  0  0  0  0  0  0  0  0  0
   22.3060   -6.7396  -16.2549 N   0  0  0  0  0  0  0  0  0  0  0  0
   21.8225   -5.3250  -14.3915 C   0  0  0  0  0  0  0  0  0  0  0  0
   22.1808   -4.7830  -13.1678 O   0  0  0  0  0  0  0  0  0  0  0  0
   20.6112   -5.5696  -14.5629 O   0  0  0  0  0  0  0  0  0  0  0  0
  2  1  1  6
  3  2  1  0
  4  3  1  0
  4  5  2  0
  6  5  1  0
  7  6  1  0
  8  7  2  0
  8  4  1  0
  9  2  1  0
 10  9  2  0
 12 11  1  1
 12 13  1  0
 12 14  1  0
 13  9  1  0
 14 21  1  0
 15 14  2  0
 17 16  1  0
 18 17  1  0
 19 18  1  0
 20 19  1  6
 20 22  1  0
 21 20  1  0
 22 24  2  0
 22 23  1  0
M  END
$$$$
