HAM.pdb
     RDKit          3D

 24 24  0  0  1  0  0  0  0  0999 V2000
   24.0279  -20.3112  -15.7663 N   0  0  0  0  0  0  0  0  0  0  0  0
   24.4144  -19.6498  -14.5057 C   0  0  1  0  0  0  0  0  0  0  0  0
   23.2051  -19.7983  -13.6089 C   0  0  0  0  0  0  0  0  0  0  0  0
   22.0587  -18.9822  -14.0250 C   0  0  0  0  0  0  0  0  0  0  0  0
   22.1050  -18.1179  -15.1169 C   0  0  0  0  0  0  0  0  0  0  0  0
   20.9392  -17.5100  -15.2664 N   0  0  0  0  0  0  0  0  0  0  0  0
   20.1281  -17.9608  -14.2907 C   0  0  0  0  0  0  0  0  0  0  0  0
   20.8190  -18.8547  -13.5427 N   0  0  0  0  0  0  0  0  0  0  0  0
   25.5171  -20.4764  -13.9349 C   0  0  0  0  0  0  0  0  0  0  0  0
   25.4825  -21.7332  -13.8743 O   0  0  0  0  0  0  0  0  0  0  0  0
   29.0976  -19.8825  -12.8241 C   0  0  0  0  0  0  0  0  0  0  0  0
   27.8198  -20.6976  -12.9071 C   0  0  2  0  0  0  0  0  0  0  0  0
   26.7181  -19.8864  -13.4045 N   0  0  0  0  0  0  0  0  0  0  0  0
   27.4357  -21.1829  -11.5611 C   0  0  0  0  0  0  0  0  0  0  0  0
   28.1722  -22.0311  -11.0038 O   0  0  0  0  0  0  0  0  0  0  0  0
   28.1686  -19.7997   -4.5730 C   0  0  0  0  0  0  0  0  0  0  0  0
   28.2139  -19.4288   -6.3526 S   0  0  0  0  0  0  0  0  0  0  0  0
   26.8687  -20.3407   -7.2039 C   0  0  0  0  0  0  0  0  0  0  0  0
   27.0521  -20.2288   -8.7030 C   0  0  0  0  0  0  0  0  0  0  0  0
   26.0565  -21.0220   -9.4923 C   0  0  2  0  0  0  0  0  0  0  0  0
   26.2774  -20.7270  -10.8887 N   0  0  0  0  0  0  0  0  0  0  0  0
   24.6530  -20.7550   -9.1372 C   0  0  0  0  0  0  0  0  0  0  0  0
   24.0753  -21.1182   -7.9314 O   0  0  0  0  0  0  0  0  0  0  0  0
   23.9180  -20.1670   -9.9560 O   0  0  0  0  0  0  0  0  0  0  0  0
  2  1  1  6
  3  2  1  0
  4  3  1  0
  4  5  2  0
  6  5  1  0
  7  6  1  0
  8  7  2  0
  8  4  1  0
  9  2  1  0
 10  9  2  0
 12 11  1  1
 12 13  1  0
 12 14  1  0
 13  9  1  0
 14 21  1  0
 15 14  2  0
 17 16  1  0
 18 17  1  0
 19 18  1  0
 20 19  1  1
 20 22  1  0
 21 20  1  0
 22 24  2  0
 22 23  1  0
M  END
$$$$
