HAM.pdb
     RDKit          3D

 24 24  0  0  1  0  0  0  0  0999 V2000
   20.9846  -20.7785  -13.6245 N   0  0  0  0  0  0  0  0  0  0  0  0
   22.1631  -19.9064  -13.4620 C   0  0  1  0  0  0  0  0  0  0  0  0
   21.6126  -18.6229  -12.8802 C   0  0  0  0  0  0  0  0  0  0  0  0
   21.0024  -17.7373  -13.8786 C   0  0  0  0  0  0  0  0  0  0  0  0
   19.6236  -17.5817  -14.0063 C   0  0  0  0  0  0  0  0  0  0  0  0
   19.3498  -16.7280  -14.9797 N   0  0  0  0  0  0  0  0  0  0  0  0
   20.5259  -16.3205  -15.4932 C   0  0  0  0  0  0  0  0  0  0  0  0
   21.5228  -16.9402  -14.8164 N   0  0  0  0  0  0  0  0  0  0  0  0
   23.0106  -20.5586  -12.4220 C   0  0  0  0  0  0  0  0  0  0  0  0
   22.5900  -20.8650  -11.2759 O   0  0  0  0  0  0  0  0  0  0  0  0
   26.1591  -22.5679  -12.4216 C   0  0  0  0  0  0  0  0  0  0  0  0
   25.1722  -21.6639  -11.7054 C   0  0  2  0  0  0  0  0  0  0  0  0
   24.3913  -20.8892  -12.6590 N   0  0  0  0  0  0  0  0  0  0  0  0
   25.8956  -20.7001  -10.8437 C   0  0  0  0  0  0  0  0  0  0  0  0
   26.2702  -19.6160  -11.3507 O   0  0  0  0  0  0  0  0  0  0  0  0
   29.1504  -19.7644   -3.6840 C   0  0  0  0  0  0  0  0  0  0  0  0
   27.6614  -20.0443   -4.6895 S   0  0  0  0  0  0  0  0  0  0  0  0
   28.0539  -19.7612   -6.4592 C   0  0  0  0  0  0  0  0  0  0  0  0
   26.9933  -20.4118   -7.3225 C   0  0  0  0  0  0  0  0  0  0  0  0
   27.2429  -20.2696   -8.7925 C   0  0  2  0  0  0  0  0  0  0  0  0
   26.1762  -20.9577   -9.4811 N   0  0  0  0  0  0  0  0  0  0  0  0
   28.5466  -20.7890   -9.2372 C   0  0  0  0  0  0  0  0  0  0  0  0
   28.7251  -22.0234   -9.8404 O   0  0  0  0  0  0  0  0  0  0  0  0
   29.5689  -20.0933   -9.0714 O   0  0  0  0  0  0  0  0  0  0  0  0
  2  1  1  1
  3  2  1  0
  4  3  1  0
  4  5  2  0
  6  5  1  0
  7  6  1  0
  8  7  2  0
  8  4  1  0
  9  2  1  0
 10  9  2  0
 12 11  1  6
 12 13  1  0
 12 14  1  0
 13  9  1  0
 14 21  1  0
 15 14  2  0
 17 16  1  0
 18 17  1  0
 19 18  1  0
 20 19  1  1
 20 22  1  0
 21 20  1  0
 22 24  2  0
 22 23  1  0
M  END
$$$$
