HAM.pdb
     RDKit          3D

 24 24  0  0  1  0  0  0  0  0999 V2000
   26.9480  -18.3943  -16.5842 N   0  0  0  0  0  0  0  0  0  0  0  0
   27.0437  -18.2134  -15.1234 C   0  0  1  0  0  0  0  0  0  0  0  0
   25.6671  -17.7460  -14.7044 C   0  0  0  0  0  0  0  0  0  0  0  0
   25.3578  -16.3738  -15.1225 C   0  0  0  0  0  0  0  0  0  0  0  0
   26.1187  -15.2755  -14.7274 C   0  0  0  0  0  0  0  0  0  0  0  0
   25.6195  -14.1651  -15.2464 N   0  0  0  0  0  0  0  0  0  0  0  0
   24.5434  -14.5163  -15.9757 C   0  0  0  0  0  0  0  0  0  0  0  0
   24.3942  -15.8605  -15.8930 N   0  0  0  0  0  0  0  0  0  0  0  0
   27.2602  -19.5769  -14.5586 C   0  0  0  0  0  0  0  0  0  0  0  0
   26.6831  -20.6077  -14.9929 O   0  0  0  0  0  0  0  0  0  0  0  0
   29.7706  -21.2078  -12.2512 C   0  0  0  0  0  0  0  0  0  0  0  0
   28.4315  -21.1560  -12.9641 C   0  0  2  0  0  0  0  0  0  0  0  0
   28.1587  -19.8145  -13.4595 N   0  0  0  0  0  0  0  0  0  0  0  0
   27.3402  -21.5086  -12.0264 C   0  0  0  0  0  0  0  0  0  0  0  0
   27.2545  -22.6971  -11.6357 O   0  0  0  0  0  0  0  0  0  0  0  0
   28.6000  -18.7220   -7.4507 C   0  0  0  0  0  0  0  0  0  0  0  0
   26.7962  -18.8847   -7.2885 S   0  0  0  0  0  0  0  0  0  0  0  0
   26.2231  -20.3421   -8.2443 C   0  0  0  0  0  0  0  0  0  0  0  0
   25.4846  -19.8765   -9.4818 C   0  0  0  0  0  0  0  0  0  0  0  0
   25.4135  -20.9087  -10.5647 C   0  0  2  0  0  0  0  0  0  0  0  0
   26.3996  -20.5599  -11.5605 N   0  0  0  0  0  0  0  0  0  0  0  0
   24.0879  -21.0366  -11.1919 C   0  0  0  0  0  0  0  0  0  0  0  0
   23.8453  -20.8350  -12.5410 O   0  0  0  0  0  0  0  0  0  0  0  0
   23.1063  -21.3442  -10.4859 O   0  0  0  0  0  0  0  0  0  0  0  0
  2  1  1  6
  3  2  1  0
  4  3  1  0
  4  5  2  0
  6  5  1  0
  7  6  1  0
  8  7  2  0
  8  4  1  0
  9  2  1  0
 10  9  2  0
 12 11  1  1
 12 13  1  0
 12 14  1  0
 13  9  1  0
 14 21  1  0
 15 14  2  0
 17 16  1  0
 18 17  1  0
 19 18  1  0
 20 19  1  1
 20 22  1  0
 21 20  1  0
 22 24  2  0
 22 23  1  0
M  END
$$$$
