HAM.pdb
     RDKit          3D

 24 24  0  0  1  0  0  0  0  0999 V2000
   18.9319  -11.9909  -18.5141 N   0  0  0  0  0  0  0  0  0  0  0  0
   19.7746  -11.8585  -17.3107 C   0  0  1  0  0  0  0  0  0  0  0  0
   21.1940  -11.9636  -17.8237 C   0  0  0  0  0  0  0  0  0  0  0  0
   21.5429  -13.2984  -18.3237 C   0  0  0  0  0  0  0  0  0  0  0  0
   21.9684  -14.3292  -17.4883 C   0  0  0  0  0  0  0  0  0  0  0  0
   22.2142  -15.4187  -18.1980 N   0  0  0  0  0  0  0  0  0  0  0  0
   21.9570  -15.1204  -19.4857 C   0  0  0  0  0  0  0  0  0  0  0  0
   21.5499  -13.8296  -19.5499 N   0  0  0  0  0  0  0  0  0  0  0  0
   19.5635  -10.4665  -16.8181 C   0  0  0  0  0  0  0  0  0  0  0  0
   19.6957   -9.4461  -17.5432 O   0  0  0  0  0  0  0  0  0  0  0  0
   18.0892   -8.8074  -13.7570 C   0  0  0  0  0  0  0  0  0  0  0  0
   18.9935   -8.8265  -14.9761 C   0  0  2  0  0  0  0  0  0  0  0  0
   19.1875  -10.1867  -15.4572 N   0  0  0  0  0  0  0  0  0  0  0  0
   20.3293   -8.2883  -14.6289 C   0  0  0  0  0  0  0  0  0  0  0  0
   21.3146   -9.0616  -14.6896 O   0  0  0  0  0  0  0  0  0  0  0  0
   25.9816   -5.2443  -17.6764 C   0  0  0  0  0  0  0  0  0  0  0  0
   24.3670   -6.0561  -17.4746 S   0  0  0  0  0  0  0  0  0  0  0  0
   23.7674   -5.8114  -15.7581 C   0  0  0  0  0  0  0  0  0  0  0  0
   22.4118   -6.4672  -15.5978 C   0  0  0  0  0  0  0  0  0  0  0  0
   21.8505   -6.3591  -14.2134 C   0  0  2  0  0  0  0  0  0  0  0  0
   20.5305   -6.9444  -14.2347 N   0  0  0  0  0  0  0  0  0  0  0  0
   21.7829   -4.9832  -13.6943 C   0  0  0  0  0  0  0  0  0  0  0  0
   22.7960   -4.3770  -12.9692 O   0  0  0  0  0  0  0  0  0  0  0  0
   20.7605   -4.3006  -13.9071 O   0  0  0  0  0  0  0  0  0  0  0  0
  2  1  1  6
  3  2  1  0
  4  3  1  0
  4  5  2  0
  6  5  1  0
  7  6  1  0
  8  7  2  0
  8  4  1  0
  9  2  1  0
 10  9  2  0
 12 11  1  1
 12 13  1  0
 12 14  1  0
 13  9  1  0
 14 21  1  0
 15 14  2  0
 17 16  1  0
 18 17  1  0
 19 18  1  0
 20 19  1  6
 20 22  1  0
 21 20  1  0
 22 24  2  0
 22 23  1  0
M  END
$$$$
