HAM.pdb
     RDKit          3D

 24 24  0  0  1  0  0  0  0  0999 V2000
   25.2751  -10.0748  -19.2969 N   0  0  0  0  0  0  0  0  0  0  0  0
   24.4798   -8.8865  -19.6593 C   0  0  1  0  0  0  0  0  0  0  0  0
   23.6721   -9.3188  -20.8632 C   0  0  0  0  0  0  0  0  0  0  0  0
   24.4716   -9.4776  -22.0834 C   0  0  0  0  0  0  0  0  0  0  0  0
   24.1592  -10.4062  -23.0742 C   0  0  0  0  0  0  0  0  0  0  0  0
   25.0412  -10.3365  -24.0583 N   0  0  0  0  0  0  0  0  0  0  0  0
   25.9276   -9.3775  -23.7300 C   0  0  0  0  0  0  0  0  0  0  0  0
   25.5716   -8.8628  -22.5283 N   0  0  0  0  0  0  0  0  0  0  0  0
   23.5365   -8.6676  -18.5246 C   0  0  0  0  0  0  0  0  0  0  0  0
   22.5954   -7.8324  -18.5557 O   0  0  0  0  0  0  0  0  0  0  0  0
   22.9160  -10.2328  -15.1036 C   0  0  0  0  0  0  0  0  0  0  0  0
   22.7207   -9.1856  -16.1850 C   0  0  2  0  0  0  0  0  0  0  0  0
   23.6370   -9.4078  -17.2942 N   0  0  0  0  0  0  0  0  0  0  0  0
   23.0037   -7.8354  -15.6448 C   0  0  0  0  0  0  0  0  0  0  0  0
   24.1993   -7.4646  -15.5710 O   0  0  0  0  0  0  0  0  0  0  0  0
   18.8735   -2.6210  -15.8589 C   0  0  0  0  0  0  0  0  0  0  0  0
   20.6133   -2.1042  -15.9709 S   0  0  0  0  0  0  0  0  0  0  0  0
   21.6534   -3.2274  -14.9597 C   0  0  0  0  0  0  0  0  0  0  0  0
   21.4776   -4.6516  -15.4437 C   0  0  0  0  0  0  0  0  0  0  0  0
   22.2903   -5.6516  -14.6803 C   0  0  2  0  0  0  0  0  0  0  0  0
   21.9813   -6.9578  -15.2132 N   0  0  0  0  0  0  0  0  0  0  0  0
   22.0606   -5.6337  -13.2263 C   0  0  0  0  0  0  0  0  0  0  0  0
   22.6388   -4.7193  -12.3608 O   0  0  0  0  0  0  0  0  0  0  0  0
   21.3027   -6.4845  -12.7181 O   0  0  0  0  0  0  0  0  0  0  0  0
  2  1  1  1
  3  2  1  0
  4  3  1  0
  4  5  2  0
  6  5  1  0
  7  6  1  0
  8  7  2  0
  8  4  1  0
  9  2  1  0
 10  9  2  0
 12 11  1  1
 12 13  1  0
 12 14  1  0
 13  9  1  0
 14 21  1  0
 15 14  2  0
 17 16  1  0
 18 17  1  0
 19 18  1  0
 20 19  1  6
 20 22  1  0
 21 20  1  0
 22 24  2  0
 22 23  1  0
M  END
$$$$
