HAM.pdb
     RDKit          3D

 24 24  0  0  1  0  0  0  0  0999 V2000
   26.8150  -27.4194  -17.6677 N   0  0  0  0  0  0  0  0  0  0  0  0
   26.4988  -26.4722  -16.5820 C   0  0  1  0  0  0  0  0  0  0  0  0
   27.1414  -25.1711  -17.0096 C   0  0  0  0  0  0  0  0  0  0  0  0
   28.6083  -25.2000  -16.9788 C   0  0  0  0  0  0  0  0  0  0  0  0
   29.3885  -25.1199  -18.1304 C   0  0  0  0  0  0  0  0  0  0  0  0
   30.6728  -25.1683  -17.8148 N   0  0  0  0  0  0  0  0  0  0  0  0
   30.7487  -25.2789  -16.4750 C   0  0  0  0  0  0  0  0  0  0  0  0
   29.4883  -25.2971  -15.9779 N   0  0  0  0  0  0  0  0  0  0  0  0
   25.0187  -26.2906  -16.6199 C   0  0  0  0  0  0  0  0  0  0  0  0
   24.3308  -26.4143  -17.6667 O   0  0  0  0  0  0  0  0  0  0  0  0
   22.2054  -26.3406  -14.1666 C   0  0  0  0  0  0  0  0  0  0  0  0
   22.8085  -25.8458  -15.4688 C   0  0  2  0  0  0  0  0  0  0  0  0
   24.2599  -25.9558  -15.4434 N   0  0  0  0  0  0  0  0  0  0  0  0
   22.4796  -24.4158  -15.6725 C   0  0  0  0  0  0  0  0  0  0  0  0
   23.4245  -23.6053  -15.8236 O   0  0  0  0  0  0  0  0  0  0  0  0
   21.9096  -18.6936  -19.7105 C   0  0  0  0  0  0  0  0  0  0  0  0
   21.9034  -20.4807  -19.3749 S   0  0  0  0  0  0  0  0  0  0  0  0
   21.0984  -20.7985  -17.7572 C   0  0  0  0  0  0  0  0  0  0  0  0
   21.4310  -22.2015  -17.2941 C   0  0  0  0  0  0  0  0  0  0  0  0
   20.8584  -22.5446  -15.9533 C   0  0  2  0  0  0  0  0  0  0  0  0
   21.1486  -23.9368  -15.7021 N   0  0  0  0  0  0  0  0  0  0  0  0
   19.4113  -22.3024  -15.8340 C   0  0  0  0  0  0  0  0  0  0  0  0
   18.4382  -23.2006  -16.2413 O   0  0  0  0  0  0  0  0  0  0  0  0
   19.0113  -21.2292  -15.3391 O   0  0  0  0  0  0  0  0  0  0  0  0
  2  1  1  6
  3  2  1  0
  4  3  1  0
  4  5  2  0
  6  5  1  0
  7  6  1  0
  8  7  2  0
  8  4  1  0
  9  2  1  0
 10  9  2  0
 12 11  1  1
 12 13  1  0
 12 14  1  0
 13  9  1  0
 14 21  1  0
 15 14  2  0
 17 16  1  0
 18 17  1  0
 19 18  1  0
 20 19  1  6
 20 22  1  0
 21 20  1  0
 22 24  2  0
 22 23  1  0
M  END
$$$$
