HAM.pdb
     RDKit          3D

 24 24  0  0  1  0  0  0  0  0999 V2000
   18.3762  -12.0317  -17.6277 N   0  0  0  0  0  0  0  0  0  0  0  0
   18.0358  -11.0923  -16.5425 C   0  0  1  0  0  0  0  0  0  0  0  0
   18.5970  -11.7323  -15.2918 C   0  0  0  0  0  0  0  0  0  0  0  0
   17.8638  -12.9285  -14.8618 C   0  0  0  0  0  0  0  0  0  0  0  0
   16.4724  -13.0012  -14.8631 C   0  0  0  0  0  0  0  0  0  0  0  0
   16.0778  -14.1878  -14.4302 N   0  0  0  0  0  0  0  0  0  0  0  0
   17.1872  -14.8955  -14.1447 C   0  0  0  0  0  0  0  0  0  0  0  0
   18.2662  -14.1203  -14.4107 N   0  0  0  0  0  0  0  0  0  0  0  0
   18.8185   -9.8527  -16.8180 C   0  0  0  0  0  0  0  0  0  0  0  0
   20.0537   -9.8512  -17.0600 O   0  0  0  0  0  0  0  0  0  0  0  0
   18.0500   -6.1710  -17.3901 C   0  0  0  0  0  0  0  0  0  0  0  0
   18.9722   -7.3421  -17.1029 C   0  0  2  0  0  0  0  0  0  0  0  0
   18.2072   -8.5496  -16.8270 N   0  0  0  0  0  0  0  0  0  0  0  0
   19.7965   -7.0605  -15.9046 C   0  0  0  0  0  0  0  0  0  0  0  0
   19.2974   -7.2821  -14.7758 O   0  0  0  0  0  0  0  0  0  0  0  0
   24.6168  -10.9930  -14.4303 C   0  0  0  0  0  0  0  0  0  0  0  0
   24.7436   -9.2047  -14.7342 S   0  0  0  0  0  0  0  0  0  0  0  0
   23.0805   -8.4409  -14.6049 C   0  0  0  0  0  0  0  0  0  0  0  0
   23.1812   -6.9581  -14.8958 C   0  0  0  0  0  0  0  0  0  0  0  0
   21.8726   -6.2357  -14.8011 C   0  0  2  0  0  0  0  0  0  0  0  0
   21.1151   -6.5547  -15.9886 N   0  0  0  0  0  0  0  0  0  0  0  0
   21.9969   -4.7756  -14.6603 C   0  0  0  0  0  0  0  0  0  0  0  0
   22.3342   -4.1362  -13.4784 O   0  0  0  0  0  0  0  0  0  0  0  0
   21.7904   -4.0475  -15.6521 O   0  0  0  0  0  0  0  0  0  0  0  0
  2  1  1  6
  3  2  1  0
  4  3  1  0
  4  5  2  0
  6  5  1  0
  7  6  1  0
  8  7  2  0
  8  4  1  0
  9  2  1  0
 10  9  2  0
 12 11  1  1
 12 13  1  0
 12 14  1  0
 13  9  1  0
 14 21  1  0
 15 14  2  0
 17 16  1  0
 18 17  1  0
 19 18  1  0
 20 19  1  6
 20 22  1  0
 21 20  1  0
 22 24  2  0
 22 23  1  0
M  END
$$$$
