HAM.pdb
     RDKit          3D

 24 24  0  0  1  0  0  0  0  0999 V2000
   20.2109  -14.2325  -19.4623 N   0  0  0  0  0  0  0  0  0  0  0  0
   20.3027  -13.9355  -18.0203 C   0  0  1  0  0  0  0  0  0  0  0  0
   21.7215  -14.3014  -17.6435 C   0  0  0  0  0  0  0  0  0  0  0  0
   21.9699  -15.7473  -17.6159 C   0  0  0  0  0  0  0  0  0  0  0  0
   22.7462  -16.3976  -18.5729 C   0  0  0  0  0  0  0  0  0  0  0  0
   22.8050  -17.6929  -18.3085 N   0  0  0  0  0  0  0  0  0  0  0  0
   22.0800  -17.9039  -17.1936 C   0  0  0  0  0  0  0  0  0  0  0  0
   21.5775  -16.7149  -16.7818 N   0  0  0  0  0  0  0  0  0  0  0  0
   20.1601  -12.4555  -17.9006 C   0  0  0  0  0  0  0  0  0  0  0  0
   20.9094  -11.6359  -18.4931 O   0  0  0  0  0  0  0  0  0  0  0  0
   17.5275  -10.0697  -16.6043 C   0  0  0  0  0  0  0  0  0  0  0  0
   18.9390  -10.4085  -17.0484 C   0  0  2  0  0  0  0  0  0  0  0  0
   19.1394  -11.8499  -17.0862 N   0  0  0  0  0  0  0  0  0  0  0  0
   19.9226   -9.8529  -16.0900 C   0  0  0  0  0  0  0  0  0  0  0  0
   20.1711  -10.5065  -15.0491 O   0  0  0  0  0  0  0  0  0  0  0  0
   25.9604   -9.1364  -18.5073 C   0  0  0  0  0  0  0  0  0  0  0  0
   24.9306   -7.8512  -17.7364 S   0  0  0  0  0  0  0  0  0  0  0  0
   23.5147   -8.6356  -16.8728 C   0  0  0  0  0  0  0  0  0  0  0  0
   22.7073   -7.5727  -16.1572 C   0  0  0  0  0  0  0  0  0  0  0  0
   21.5595   -8.1196  -15.3656 C   0  0  2  0  0  0  0  0  0  0  0  0
   20.5853   -8.6217  -16.3061 N   0  0  0  0  0  0  0  0  0  0  0  0
   20.9296   -7.1438  -14.4610 C   0  0  0  0  0  0  0  0  0  0  0  0
   21.4003   -6.8458  -13.1925 O   0  0  0  0  0  0  0  0  0  0  0  0
   19.9076   -6.5350  -14.8369 O   0  0  0  0  0  0  0  0  0  0  0  0
  2  1  1  6
  3  2  1  0
  4  3  1  0
  4  5  2  0
  6  5  1  0
  7  6  1  0
  8  7  2  0
  8  4  1  0
  9  2  1  0
 10  9  2  0
 12 11  1  1
 12 13  1  0
 12 14  1  0
 13  9  1  0
 14 21  1  0
 15 14  2  0
 17 16  1  0
 18 17  1  0
 19 18  1  0
 20 19  1  6
 20 22  1  0
 21 20  1  0
 22 24  2  0
 22 23  1  0
M  END
$$$$
