HAM.pdb
     RDKit          3D

 24 24  0  0  1  0  0  0  0  0999 V2000
   24.8623  -21.7750  -12.5630 N   0  0  0  0  0  0  0  0  0  0  0  0
   24.6591  -20.3148  -12.5109 C   0  0  1  0  0  0  0  0  0  0  0  0
   25.0415  -19.9251  -11.1000 C   0  0  0  0  0  0  0  0  0  0  0  0
   24.1754  -20.5121  -10.0710 C   0  0  0  0  0  0  0  0  0  0  0  0
   24.6755  -21.1157   -8.9190 C   0  0  0  0  0  0  0  0  0  0  0  0
   23.6799  -21.5573   -8.1673 N   0  0  0  0  0  0  0  0  0  0  0  0
   22.5344  -21.2536   -8.8066 C   0  0  0  0  0  0  0  0  0  0  0  0
   22.8479  -20.6188   -9.9620 N   0  0  0  0  0  0  0  0  0  0  0  0
   25.6687  -19.7309  -13.4409 C   0  0  0  0  0  0  0  0  0  0  0  0
   25.9222  -18.4997  -13.5059 O   0  0  0  0  0  0  0  0  0  0  0  0
   28.5298  -20.9286  -15.5580 C   0  0  0  0  0  0  0  0  0  0  0  0
   27.3851  -19.9695  -15.2861 C   0  0  2  0  0  0  0  0  0  0  0  0
   26.4368  -20.5467  -14.3444 N   0  0  0  0  0  0  0  0  0  0  0  0
   26.6454  -19.6896  -16.5389 C   0  0  0  0  0  0  0  0  0  0  0  0
   25.4119  -19.4767  -16.4646 O   0  0  0  0  0  0  0  0  0  0  0  0
   24.3950  -14.5169  -20.0248 C   0  0  0  0  0  0  0  0  0  0  0  0
   24.9000  -15.8155  -18.8564 S   0  0  0  0  0  0  0  0  0  0  0  0
   26.6878  -16.1694  -19.0675 C   0  0  0  0  0  0  0  0  0  0  0  0
   27.0859  -17.3178  -18.1642 C   0  0  0  0  0  0  0  0  0  0  0  0
   26.9169  -18.6660  -18.7943 C   0  0  2  0  0  0  0  0  0  0  0  0
   27.2765  -19.6544  -17.8047 N   0  0  0  0  0  0  0  0  0  0  0  0
   27.7118  -18.8656  -20.0172 C   0  0  0  0  0  0  0  0  0  0  0  0
   27.1852  -18.8348  -21.2983 O   0  0  0  0  0  0  0  0  0  0  0  0
   28.9374  -19.0775  -19.9201 O   0  0  0  0  0  0  0  0  0  0  0  0
  2  1  1  1
  3  2  1  0
  4  3  1  0
  4  5  2  0
  6  5  1  0
  7  6  1  0
  8  7  2  0
  8  4  1  0
  9  2  1  0
 10  9  2  0
 12 11  1  6
 12 13  1  0
 12 14  1  0
 13  9  1  0
 14 21  1  0
 15 14  2  0
 17 16  1  0
 18 17  1  0
 19 18  1  0
 20 19  1  1
 20 22  1  0
 21 20  1  0
 22 24  2  0
 22 23  1  0
M  END
$$$$
