HAM.pdb
     RDKit          3D

 24 24  0  0  1  0  0  0  0  0999 V2000
   22.0276  -20.4792  -14.1052 N   0  0  0  0  0  0  0  0  0  0  0  0
   22.0000  -20.0694  -12.6885 C   0  0  1  0  0  0  0  0  0  0  0  0
   20.7382  -20.6932  -12.1338 C   0  0  0  0  0  0  0  0  0  0  0  0
   19.5189  -20.2858  -12.8414 C   0  0  0  0  0  0  0  0  0  0  0  0
   18.8214  -19.1200  -12.5320 C   0  0  0  0  0  0  0  0  0  0  0  0
   17.7661  -18.9975  -13.3211 N   0  0  0  0  0  0  0  0  0  0  0  0
   17.7592  -20.0637  -14.1435 C   0  0  0  0  0  0  0  0  0  0  0  0
   18.8287  -20.8394  -13.8428 N   0  0  0  0  0  0  0  0  0  0  0  0
   23.1675  -20.7417  -12.0483 C   0  0  0  0  0  0  0  0  0  0  0  0
   23.4399  -20.6424  -10.8235 O   0  0  0  0  0  0  0  0  0  0  0  0
   26.3193  -21.1626  -13.7050 C   0  0  0  0  0  0  0  0  0  0  0  0
   25.5049  -21.6014  -12.5014 C   0  0  2  0  0  0  0  0  0  0  0  0
   24.0801  -21.5650  -12.7976 N   0  0  0  0  0  0  0  0  0  0  0  0
   25.7410  -20.6828  -11.3633 C   0  0  0  0  0  0  0  0  0  0  0  0
   25.4812  -19.4660  -11.5193 O   0  0  0  0  0  0  0  0  0  0  0  0
   27.8521  -18.2904   -4.8672 C   0  0  0  0  0  0  0  0  0  0  0  0
   27.9652  -20.0098   -5.4484 S   0  0  0  0  0  0  0  0  0  0  0  0
   28.3806  -20.0274   -7.2353 C   0  0  0  0  0  0  0  0  0  0  0  0
   27.1996  -20.5540   -8.0236 C   0  0  0  0  0  0  0  0  0  0  0  0
   27.3936  -20.4991   -9.5077 C   0  0  2  0  0  0  0  0  0  0  0  0
   26.2449  -21.1265  -10.1179 N   0  0  0  0  0  0  0  0  0  0  0  0
   28.6298  -21.1440   -9.9800 C   0  0  0  0  0  0  0  0  0  0  0  0
   29.8385  -20.4848  -10.1347 O   0  0  0  0  0  0  0  0  0  0  0  0
   28.6134  -22.3585  -10.2653 O   0  0  0  0  0  0  0  0  0  0  0  0
  2  1  1  6
  3  2  1  0
  4  3  1  0
  4  5  2  0
  6  5  1  0
  7  6  1  0
  8  7  2  0
  8  4  1  0
  9  2  1  0
 10  9  2  0
 12 11  1  6
 12 13  1  0
 12 14  1  0
 13  9  1  0
 14 21  1  0
 15 14  2  0
 17 16  1  0
 18 17  1  0
 19 18  1  0
 20 19  1  1
 20 22  1  0
 21 20  1  0
 22 24  2  0
 22 23  1  0
M  END
$$$$
