HAM.pdb
     RDKit          3D

 24 24  0  0  1  0  0  0  0  0999 V2000
   24.1539  -15.9659  -18.5769 N   0  0  0  0  0  0  0  0  0  0  0  0
   24.4636  -17.1093  -17.6979 C   0  0  1  0  0  0  0  0  0  0  0  0
   25.7032  -16.6859  -16.9411 C   0  0  0  0  0  0  0  0  0  0  0  0
   26.9342  -16.7620  -17.7363 C   0  0  0  0  0  0  0  0  0  0  0  0
   26.9541  -17.2154  -19.0536 C   0  0  0  0  0  0  0  0  0  0  0  0
   28.1886  -17.1797  -19.5291 N   0  0  0  0  0  0  0  0  0  0  0  0
   28.9796  -16.7103  -18.5456 C   0  0  0  0  0  0  0  0  0  0  0  0
   28.2066  -16.4600  -17.4613 N   0  0  0  0  0  0  0  0  0  0  0  0
   23.3349  -17.1919  -16.7262 C   0  0  0  0  0  0  0  0  0  0  0  0
   22.9640  -16.2259  -16.0095 O   0  0  0  0  0  0  0  0  0  0  0  0
   20.1558  -18.7239  -16.3639 C   0  0  0  0  0  0  0  0  0  0  0  0
   21.4516  -18.4678  -15.6159 C   0  0  2  0  0  0  0  0  0  0  0  0
   22.5777  -18.4012  -16.5360 N   0  0  0  0  0  0  0  0  0  0  0  0
   21.7219  -19.5753  -14.6697 C   0  0  0  0  0  0  0  0  0  0  0  0
   22.0267  -20.6968  -15.1406 O   0  0  0  0  0  0  0  0  0  0  0  0
   24.8398  -21.4511   -7.7826 C   0  0  0  0  0  0  0  0  0  0  0  0
   24.4435  -20.2497   -9.0888 S   0  0  0  0  0  0  0  0  0  0  0  0
   23.2474  -20.9937  -10.2644 C   0  0  0  0  0  0  0  0  0  0  0  0
   22.9526  -20.0089  -11.3765 C   0  0  0  0  0  0  0  0  0  0  0  0
   21.9466  -20.5051  -12.3690 C   0  0  2  0  0  0  0  0  0  0  0  0
   21.6488  -19.4133  -13.2661 N   0  0  0  0  0  0  0  0  0  0  0  0
   20.7039  -21.0153  -11.7668 C   0  0  0  0  0  0  0  0  0  0  0  0
   20.5474  -22.3053  -11.2862 O   0  0  0  0  0  0  0  0  0  0  0  0
   19.7166  -20.2585  -11.6723 O   0  0  0  0  0  0  0  0  0  0  0  0
  2  1  1  6
  3  2  1  0
  4  3  1  0
  4  5  2  0
  6  5  1  0
  7  6  1  0
  8  7  2  0
  8  4  1  0
  9  2  1  0
 10  9  2  0
 12 11  1  6
 12 13  1  0
 12 14  1  0
 13  9  1  0
 14 21  1  0
 15 14  2  0
 17 16  1  0
 18 17  1  0
 19 18  1  0
 20 19  1  1
 20 22  1  0
 21 20  1  0
 22 24  2  0
 22 23  1  0
M  END
$$$$
