NFW.pdb
     RDKit          3D

 34 36  0  0  1  0  0  0  0  0999 V2000
    8.1124  -18.4766   16.8787 N   0  0  0  0  0  0  0  0  0  0  0  0
    9.2612  -18.6374   17.6845 C   0  0  0  0  0  0  0  0  0  0  0  0
    9.8998  -19.7114   17.6626 O   0  0  0  0  0  0  0  0  0  0  0  0
    9.6986  -17.5267   18.5503 C   0  0  0  0  0  0  0  0  0  0  0  0
    9.6484  -17.9789   20.0020 C   0  0  2  0  0  0  0  0  0  0  0  0
    8.4440  -18.6427   20.3538 N   0  0  0  0  0  0  0  0  0  0  0  0
    9.9949  -16.8215   20.8449 C   0  0  0  0  0  0  0  0  0  0  0  0
   11.1166  -16.2783   20.6325 O   0  0  0  0  0  0  0  0  0  0  0  0
    9.1677  -16.2824   21.8646 N   0  0  0  0  0  0  0  0  0  0  0  0
    9.5074  -15.0796   22.6133 C   0  0  1  0  0  0  0  0  0  0  0  0
    8.3511  -14.1354   22.5598 C   0  0  0  0  0  0  0  0  0  0  0  0
    7.9482  -13.7550   21.2042 C   0  0  0  0  0  0  0  0  0  0  0  0
    8.5472  -12.7287   20.5096 C   0  0  0  0  0  0  0  0  0  0  0  0
    8.1396  -12.3918   19.2167 C   0  0  0  0  0  0  0  0  0  0  0  0
    7.1229  -13.0791   18.5973 C   0  0  0  0  0  0  0  0  0  0  0  0
    6.5194  -14.1060   19.2853 C   0  0  0  0  0  0  0  0  0  0  0  0
    6.9339  -14.4282   20.5651 C   0  0  0  0  0  0  0  0  0  0  0  0
    9.9492  -15.3935   23.9835 C   0  0  0  0  0  0  0  0  0  0  0  0
   10.6377  -14.5542   24.6157 O   0  0  0  0  0  0  0  0  0  0  0  0
    9.6338  -16.6139   24.6389 N   0  0  0  0  0  0  0  0  0  0  0  0
   10.0326  -16.9236   25.9868 C   0  0  1  0  0  0  0  0  0  0  0  0
    8.8475  -17.0756   26.9151 C   0  0  0  0  0  0  0  0  0  0  0  0
    7.8444  -16.0108   26.6843 C   0  0  0  0  0  0  0  0  0  0  0  0
    6.6450  -16.1847   26.0336 C   0  0  0  0  0  0  0  0  0  0  0  0
    5.9529  -15.0393   25.9803 N   0  0  0  0  0  0  0  0  0  0  0  0
    6.7127  -14.1167   26.6025 C   0  0  0  0  0  0  0  0  0  0  0  0
    6.5103  -12.7580   26.8511 C   0  0  0  0  0  0  0  0  0  0  0  0
    7.4618  -12.0314   27.5191 C   0  0  0  0  0  0  0  0  0  0  0  0
    8.6295  -12.6110   27.9589 C   0  0  0  0  0  0  0  0  0  0  0  0
    8.8466  -13.9501   27.7229 C   0  0  0  0  0  0  0  0  0  0  0  0
    7.8884  -14.6843   27.0495 C   0  0  0  0  0  0  0  0  0  0  0  0
   10.7624  -18.2165   25.9747 C   0  0  0  0  0  0  0  0  0  0  0  0
   10.8528  -18.9461   24.9553 O   0  0  0  0  0  0  0  0  0  0  0  0
   11.3942  -18.6878   27.1218 O   0  0  0  0  0  0  0  0  0  0  0  0
  2  1  1  0
  2  3  2  0
  4  2  1  0
  5  7  1  0
  5  4  1  0
  5  6  1  1
  7  8  2  0
  9 10  1  0
  9  7  1  0
 10 11  1  1
 11 12  1  0
 12 17  2  0
 13 14  2  0
 13 12  1  0
 14 15  1  0
 15 16  2  0
 17 16  1  0
 18 10  1  0
 19 18  2  0
 20 18  1  0
 21 20  1  0
 21 22  1  1
 22 23  1  0
 23 31  1  0
 24 25  1  0
 24 23  2  0
 25 26  1  0
 26 31  2  0
 26 27  1  0
 27 28  2  0
 28 29  1  0
 30 29  2  0
 31 30  1  0
 32 21  1  0
 32 34  1  0
 33 32  2  0
M  END
$$$$
