NFW.pdb
     RDKit          3D

 34 36  0  0  1  0  0  0  0  0999 V2000
    7.7530  -22.2364   23.5724 N   0  0  0  0  0  0  0  0  0  0  0  0
    8.9498  -22.1429   22.8283 C   0  0  0  0  0  0  0  0  0  0  0  0
    9.5467  -23.1787   22.4639 O   0  0  0  0  0  0  0  0  0  0  0  0
    9.4870  -20.8128   22.4864 C   0  0  0  0  0  0  0  0  0  0  0  0
    8.8378  -20.3311   21.1977 C   0  0  2  0  0  0  0  0  0  0  0  0
    9.2363  -21.0616   20.0476 N   0  0  0  0  0  0  0  0  0  0  0  0
    9.0350  -18.8737   21.1132 C   0  0  0  0  0  0  0  0  0  0  0  0
   10.1605  -18.4749   20.6979 O   0  0  0  0  0  0  0  0  0  0  0  0
    8.0622  -17.9006   21.4616 N   0  0  0  0  0  0  0  0  0  0  0  0
    8.3325  -16.4689   21.4637 C   0  0  1  0  0  0  0  0  0  0  0  0
    7.1403  -15.7521   20.9195 C   0  0  0  0  0  0  0  0  0  0  0  0
    7.3016  -14.2992   20.8303 C   0  0  0  0  0  0  0  0  0  0  0  0
    7.9245  -13.6828   19.7688 C   0  0  0  0  0  0  0  0  0  0  0  0
    8.0611  -12.2937   19.7138 C   0  0  0  0  0  0  0  0  0  0  0  0
    7.5748  -11.4979   20.7237 C   0  0  0  0  0  0  0  0  0  0  0  0
    6.9512  -12.1067   21.7878 C   0  0  0  0  0  0  0  0  0  0  0  0
    6.8234  -13.4835   21.8284 C   0  0  0  0  0  0  0  0  0  0  0  0
    8.7507  -15.9922   22.7937 C   0  0  0  0  0  0  0  0  0  0  0  0
    8.4138  -14.8417   23.1692 O   0  0  0  0  0  0  0  0  0  0  0  0
    9.5272  -16.7758   23.6889 N   0  0  0  0  0  0  0  0  0  0  0  0
   10.3832  -16.2184   24.7031 C   0  0  1  0  0  0  0  0  0  0  0  0
    9.6997  -16.1392   26.0506 C   0  0  0  0  0  0  0  0  0  0  0  0
    8.3858  -15.4637   25.9477 C   0  0  0  0  0  0  0  0  0  0  0  0
    7.1851  -16.1017   25.7393 C   0  0  0  0  0  0  0  0  0  0  0  0
    6.1734  -15.2254   25.6921 N   0  0  0  0  0  0  0  0  0  0  0  0
    6.7260  -14.0096   25.8717 C   0  0  0  0  0  0  0  0  0  0  0  0
    6.1680  -12.7309   25.9173 C   0  0  0  0  0  0  0  0  0  0  0  0
    6.9698  -11.6368   26.1167 C   0  0  0  0  0  0  0  0  0  0  0  0
    8.3305  -11.7638   26.2756 C   0  0  0  0  0  0  0  0  0  0  0  0
    8.8988  -13.0174   26.2336 C   0  0  0  0  0  0  0  0  0  0  0  0
    8.0920  -14.1215   26.0326 C   0  0  0  0  0  0  0  0  0  0  0  0
   11.5692  -17.0992   24.8518 C   0  0  0  0  0  0  0  0  0  0  0  0
   11.7002  -18.1866   24.2356 O   0  0  0  0  0  0  0  0  0  0  0  0
   12.6136  -16.7487   25.7023 O   0  0  0  0  0  0  0  0  0  0  0  0
  2  1  1  0
  2  3  2  0
  4  2  1  0
  5  7  1  0
  5  4  1  0
  5  6  1  6
  7  8  2  0
  9 10  1  0
  9  7  1  0
 10 11  1  1
 11 12  1  0
 12 17  2  0
 13 14  2  0
 13 12  1  0
 14 15  1  0
 15 16  2  0
 17 16  1  0
 18 10  1  0
 19 18  2  0
 20 18  1  0
 21 20  1  0
 21 22  1  1
 22 23  1  0
 23 31  1  0
 24 25  1  0
 24 23  2  0
 25 26  1  0
 26 31  2  0
 26 27  1  0
 27 28  2  0
 28 29  1  0
 30 29  2  0
 31 30  1  0
 32 21  1  0
 32 34  1  0
 33 32  2  0
M  END
$$$$
