NFW.pdb
     RDKit          3D

 34 36  0  0  1  0  0  0  0  0999 V2000
   10.2707  -21.7489   18.1423 N   0  0  0  0  0  0  0  0  0  0  0  0
   10.4487  -21.7301   19.5433 C   0  0  0  0  0  0  0  0  0  0  0  0
   10.3835  -22.7913   20.2001 O   0  0  0  0  0  0  0  0  0  0  0  0
   10.7119  -20.4476   20.2219 C   0  0  0  0  0  0  0  0  0  0  0  0
   10.6713  -19.3251   19.1959 C   0  0  2  0  0  0  0  0  0  0  0  0
   11.7681  -19.3329   18.2948 N   0  0  0  0  0  0  0  0  0  0  0  0
   10.4667  -18.0601   19.9225 C   0  0  0  0  0  0  0  0  0  0  0  0
   11.5029  -17.3957   20.2111 O   0  0  0  0  0  0  0  0  0  0  0  0
    9.2043  -17.5438   20.3154 N   0  0  0  0  0  0  0  0  0  0  0  0
    9.0494  -16.3106   21.0756 C   0  0  1  0  0  0  0  0  0  0  0  0
    7.6896  -15.7503   20.8143 C   0  0  0  0  0  0  0  0  0  0  0  0
    7.4841  -14.4002   21.3432 C   0  0  0  0  0  0  0  0  0  0  0  0
    6.7047  -14.1440   22.4485 C   0  0  0  0  0  0  0  0  0  0  0  0
    6.5300  -12.8438   22.9283 C   0  0  0  0  0  0  0  0  0  0  0  0
    7.1346  -11.7768   22.3072 C   0  0  0  0  0  0  0  0  0  0  0  0
    7.9150  -12.0251   21.2020 C   0  0  0  0  0  0  0  0  0  0  0  0
    8.0787  -13.3180   20.7384 C   0  0  0  0  0  0  0  0  0  0  0  0
    9.3405  -16.5086   22.5064 C   0  0  0  0  0  0  0  0  0  0  0  0
    9.0769  -17.6145   23.0408 O   0  0  0  0  0  0  0  0  0  0  0  0
    9.9124  -15.5001   23.3277 N   0  0  0  0  0  0  0  0  0  0  0  0
   10.4635  -15.7500   24.6336 C   0  0  1  0  0  0  0  0  0  0  0  0
    9.4967  -16.4895   25.5324 C   0  0  0  0  0  0  0  0  0  0  0  0
    8.2172  -15.7555   25.6642 C   0  0  0  0  0  0  0  0  0  0  0  0
    6.9781  -16.2695   25.3598 C   0  0  0  0  0  0  0  0  0  0  0  0
    6.0126  -15.3681   25.5814 N   0  0  0  0  0  0  0  0  0  0  0  0
    6.6342  -14.2612   26.0332 C   0  0  0  0  0  0  0  0  0  0  0  0
    6.1458  -13.0132   26.4239 C   0  0  0  0  0  0  0  0  0  0  0  0
    7.0104  -12.0393   26.8526 C   0  0  0  0  0  0  0  0  0  0  0  0
    8.3674  -12.2591   26.9101 C   0  0  0  0  0  0  0  0  0  0  0  0
    8.8674  -13.4842   26.5287 C   0  0  0  0  0  0  0  0  0  0  0  0
    7.9972  -14.4671   26.0962 C   0  0  0  0  0  0  0  0  0  0  0  0
   11.6716  -16.5991   24.4783 C   0  0  0  0  0  0  0  0  0  0  0  0
   12.7446  -16.1830   23.9733 O   0  0  0  0  0  0  0  0  0  0  0  0
   11.6669  -17.9266   24.8962 O   0  0  0  0  0  0  0  0  0  0  0  0
  2  1  1  0
  2  3  2  0
  4  2  1  0
  5  7  1  0
  5  4  1  0
  5  6  1  1
  7  8  2  0
  9 10  1  0
  9  7  1  0
 10 11  1  1
 11 12  1  0
 12 17  2  0
 13 14  2  0
 13 12  1  0
 14 15  1  0
 15 16  2  0
 17 16  1  0
 18 10  1  0
 19 18  2  0
 20 18  1  0
 21 20  1  0
 21 22  1  1
 22 23  1  0
 23 31  1  0
 24 25  1  0
 24 23  2  0
 25 26  1  0
 26 31  2  0
 26 27  1  0
 27 28  2  0
 28 29  1  0
 30 29  2  0
 31 30  1  0
 32 21  1  0
 32 34  1  0
 33 32  2  0
M  END
$$$$
