NFW.pdb
     RDKit          3D

 34 36  0  0  1  0  0  0  0  0999 V2000
   10.0318  -20.5350   17.7317 N   0  0  0  0  0  0  0  0  0  0  0  0
   11.1502  -19.7170   18.0056 C   0  0  0  0  0  0  0  0  0  0  0  0
   12.1102  -19.6755   17.2066 O   0  0  0  0  0  0  0  0  0  0  0  0
   11.1734  -18.9138   19.2421 C   0  0  0  0  0  0  0  0  0  0  0  0
   10.0035  -17.9415   19.2250 C   0  0  2  0  0  0  0  0  0  0  0  0
    9.9813  -17.0919   18.0880 N   0  0  0  0  0  0  0  0  0  0  0  0
    9.9764  -17.2490   20.5249 C   0  0  0  0  0  0  0  0  0  0  0  0
   10.9003  -16.4143   20.7443 O   0  0  0  0  0  0  0  0  0  0  0  0
    8.9985  -17.4519   21.5335 N   0  0  0  0  0  0  0  0  0  0  0  0
    8.9845  -16.7141   22.7897 C   0  0  1  0  0  0  0  0  0  0  0  0
    7.6179  -16.1498   23.0026 C   0  0  0  0  0  0  0  0  0  0  0  0
    7.4235  -14.8148   22.4327 C   0  0  0  0  0  0  0  0  0  0  0  0
    7.6499  -13.6600   23.1468 C   0  0  0  0  0  0  0  0  0  0  0  0
    7.4558  -12.4014   22.5729 C   0  0  0  0  0  0  0  0  0  0  0  0
    7.0309  -12.2789   21.2713 C   0  0  0  0  0  0  0  0  0  0  0  0
    6.8026  -13.4285   20.5513 C   0  0  0  0  0  0  0  0  0  0  0  0
    6.9991  -14.6680   21.1332 C   0  0  0  0  0  0  0  0  0  0  0  0
    9.4642  -17.5370   23.9139 C   0  0  0  0  0  0  0  0  0  0  0  0
    9.1739  -18.7586   23.9503 O   0  0  0  0  0  0  0  0  0  0  0  0
   10.2500  -17.0150   24.9762 N   0  0  0  0  0  0  0  0  0  0  0  0
   11.0751  -17.8255   25.8331 C   0  0  1  0  0  0  0  0  0  0  0  0
   11.9350  -16.9916   26.7575 C   0  0  0  0  0  0  0  0  0  0  0  0
   11.1069  -16.2348   27.7243 C   0  0  0  0  0  0  0  0  0  0  0  0
   10.9588  -16.5526   29.0545 C   0  0  0  0  0  0  0  0  0  0  0  0
   10.1483  -15.6836   29.6722 N   0  0  0  0  0  0  0  0  0  0  0  0
    9.7691  -14.7960   28.7319 C   0  0  0  0  0  0  0  0  0  0  0  0
    8.9359  -13.6775   28.7897 C   0  0  0  0  0  0  0  0  0  0  0  0
    8.7105  -12.9284   27.6637 C   0  0  0  0  0  0  0  0  0  0  0  0
    9.2906  -13.2517   26.4588 C   0  0  0  0  0  0  0  0  0  0  0  0
   10.1156  -14.3515   26.3827 C   0  0  0  0  0  0  0  0  0  0  0  0
   10.3439  -15.1080   27.5168 C   0  0  0  0  0  0  0  0  0  0  0  0
   10.1898  -18.6654   26.6789 C   0  0  0  0  0  0  0  0  0  0  0  0
    8.9523  -18.4724   26.7831 O   0  0  0  0  0  0  0  0  0  0  0  0
   10.7064  -19.7301   27.4115 O   0  0  0  0  0  0  0  0  0  0  0  0
  2  1  1  0
  2  3  2  0
  4  2  1  0
  5  7  1  0
  5  4  1  0
  5  6  1  6
  7  8  2  0
  9 10  1  0
  9  7  1  0
 10 11  1  1
 11 12  1  0
 12 17  2  0
 13 14  2  0
 13 12  1  0
 14 15  1  0
 15 16  2  0
 17 16  1  0
 18 10  1  0
 19 18  2  0
 20 18  1  0
 21 20  1  0
 21 22  1  1
 22 23  1  0
 23 31  1  0
 24 25  1  0
 24 23  2  0
 25 26  1  0
 26 31  2  0
 26 27  1  0
 27 28  2  0
 28 29  1  0
 30 29  2  0
 31 30  1  0
 32 21  1  0
 32 34  1  0
 33 32  2  0
M  END
$$$$
