NFW.pdb
     RDKit          3D

 34 36  0  0  1  0  0  0  0  0999 V2000
    9.0543  -20.3967   20.7823 N   0  0  0  0  0  0  0  0  0  0  0  0
    8.7280  -20.6620   22.1307 C   0  0  0  0  0  0  0  0  0  0  0  0
    9.4426  -21.4281   22.8120 O   0  0  0  0  0  0  0  0  0  0  0  0
    7.5375  -20.0266   22.7253 C   0  0  0  0  0  0  0  0  0  0  0  0
    6.8728  -19.1419   21.6813 C   0  0  2  0  0  0  0  0  0  0  0  0
    6.6068  -19.8045   20.4544 N   0  0  0  0  0  0  0  0  0  0  0  0
    7.6685  -17.9075   21.5667 C   0  0  0  0  0  0  0  0  0  0  0  0
    8.6325  -17.9258   20.7490 O   0  0  0  0  0  0  0  0  0  0  0  0
    7.4308  -16.7164   22.3012 N   0  0  0  0  0  0  0  0  0  0  0  0
    8.0942  -15.4531   22.0070 C   0  0  1  0  0  0  0  0  0  0  0  0
    7.1753  -14.3309   22.3643 C   0  0  0  0  0  0  0  0  0  0  0  0
    7.1723  -13.9866   23.7877 C   0  0  0  0  0  0  0  0  0  0  0  0
    6.6409  -14.8122   24.7525 C   0  0  0  0  0  0  0  0  0  0  0  0
    6.6550  -14.4543   26.1027 C   0  0  0  0  0  0  0  0  0  0  0  0
    7.2028  -13.2608   26.5091 C   0  0  0  0  0  0  0  0  0  0  0  0
    7.7358  -12.4305   25.5507 C   0  0  0  0  0  0  0  0  0  0  0  0
    7.7145  -12.7984   24.2174 C   0  0  0  0  0  0  0  0  0  0  0  0
    9.4142  -15.3634   22.6556 C   0  0  0  0  0  0  0  0  0  0  0  0
   10.1204  -14.3403   22.4752 O   0  0  0  0  0  0  0  0  0  0  0  0
    9.9402  -16.3882   23.4873 N   0  0  0  0  0  0  0  0  0  0  0  0
   11.3297  -16.4896   23.8490 C   0  0  1  0  0  0  0  0  0  0  0  0
   11.6728  -15.6391   25.0524 C   0  0  0  0  0  0  0  0  0  0  0  0
   10.9354  -16.0885   26.2556 C   0  0  0  0  0  0  0  0  0  0  0  0
   10.4569  -17.3623   26.4574 C   0  0  0  0  0  0  0  0  0  0  0  0
    9.8333  -17.4634   27.6384 N   0  0  0  0  0  0  0  0  0  0  0  0
    9.9099  -16.2431   28.2048 C   0  0  0  0  0  0  0  0  0  0  0  0
    9.4416  -15.7519   29.4247 C   0  0  0  0  0  0  0  0  0  0  0  0
    9.6567  -14.4419   29.7674 C   0  0  0  0  0  0  0  0  0  0  0  0
   10.3315  -13.5830   28.9308 C   0  0  0  0  0  0  0  0  0  0  0  0
   10.8008  -14.0497   27.7234 C   0  0  0  0  0  0  0  0  0  0  0  0
   10.5848  -15.3700   27.3762 C   0  0  0  0  0  0  0  0  0  0  0  0
   11.6211  -17.9026   24.1997 C   0  0  0  0  0  0  0  0  0  0  0  0
   10.7266  -18.7722   24.3521 O   0  0  0  0  0  0  0  0  0  0  0  0
   12.9316  -18.3356   24.3791 O   0  0  0  0  0  0  0  0  0  0  0  0
  2  1  1  0
  2  3  2  0
  4  2  1  0
  5  7  1  0
  5  4  1  0
  5  6  1  6
  7  8  2  0
  9 10  1  0
  9  7  1  0
 10 11  1  1
 11 12  1  0
 12 17  2  0
 13 14  2  0
 13 12  1  0
 14 15  1  0
 15 16  2  0
 17 16  1  0
 18 10  1  0
 19 18  2  0
 20 18  1  0
 21 20  1  0
 21 22  1  1
 22 23  1  0
 23 31  1  0
 24 25  1  0
 24 23  2  0
 25 26  1  0
 26 31  2  0
 26 27  1  0
 27 28  2  0
 28 29  1  0
 30 29  2  0
 31 30  1  0
 32 21  1  0
 32 34  1  0
 33 32  2  0
M  END
$$$$
