NFW.pdb
     RDKit          3D

 34 36  0  0  1  0  0  0  0  0999 V2000
   10.4694  -18.7910   16.9668 N   0  0  0  0  0  0  0  0  0  0  0  0
   11.2052  -18.3033   18.0693 C   0  0  0  0  0  0  0  0  0  0  0  0
   12.3126  -18.8053   18.3584 O   0  0  0  0  0  0  0  0  0  0  0  0
   10.6543  -17.1975   18.8745 C   0  0  0  0  0  0  0  0  0  0  0  0
   10.4857  -17.6656   20.3121 C   0  0  2  0  0  0  0  0  0  0  0  0
    9.4677  -18.6403   20.4814 N   0  0  0  0  0  0  0  0  0  0  0  0
   10.3546  -16.4690   21.1613 C   0  0  0  0  0  0  0  0  0  0  0  0
   11.3293  -15.6639   21.1645 O   0  0  0  0  0  0  0  0  0  0  0  0
    9.2254  -16.1628   21.9649 N   0  0  0  0  0  0  0  0  0  0  0  0
    9.0967  -14.9228   22.7188 C   0  0  1  0  0  0  0  0  0  0  0  0
    7.7696  -14.3084   22.4143 C   0  0  0  0  0  0  0  0  0  0  0  0
    7.5774  -13.9613   21.0046 C   0  0  0  0  0  0  0  0  0  0  0  0
    6.9217  -14.7846   20.1175 C   0  0  0  0  0  0  0  0  0  0  0  0
    6.7543  -14.4230   18.7787 C   0  0  0  0  0  0  0  0  0  0  0  0
    7.2423  -13.2281   18.3057 C   0  0  0  0  0  0  0  0  0  0  0  0
    7.8988  -12.4000   19.1863 C   0  0  0  0  0  0  0  0  0  0  0  0
    8.0569  -12.7717   20.5093 C   0  0  0  0  0  0  0  0  0  0  0  0
    9.3342  -15.1295   24.1583 C   0  0  0  0  0  0  0  0  0  0  0  0
    9.1558  -14.1748   24.9549 O   0  0  0  0  0  0  0  0  0  0  0  0
    9.7613  -16.3704   24.7028 N   0  0  0  0  0  0  0  0  0  0  0  0
   10.0685  -16.5690   26.0949 C   0  0  1  0  0  0  0  0  0  0  0  0
    8.8403  -16.9088   26.9106 C   0  0  0  0  0  0  0  0  0  0  0  0
    7.7444  -15.9451   26.6583 C   0  0  0  0  0  0  0  0  0  0  0  0
    6.5388  -16.2570   26.0739 C   0  0  0  0  0  0  0  0  0  0  0  0
    5.7530  -15.1766   25.9797 N   0  0  0  0  0  0  0  0  0  0  0  0
    6.4578  -14.1570   26.5083 C   0  0  0  0  0  0  0  0  0  0  0  0
    6.1539  -12.8054   26.6798 C   0  0  0  0  0  0  0  0  0  0  0  0
    7.0677  -11.9624   27.2578 C   0  0  0  0  0  0  0  0  0  0  0  0
    8.2957  -12.4166   27.6806 C   0  0  0  0  0  0  0  0  0  0  0  0
    8.6131  -13.7468   27.5197 C   0  0  0  0  0  0  0  0  0  0  0  0
    7.6931  -14.5980   26.9371 C   0  0  0  0  0  0  0  0  0  0  0  0
   11.0130  -17.7089   26.2088 C   0  0  0  0  0  0  0  0  0  0  0  0
   11.5851  -18.0237   27.2826 O   0  0  0  0  0  0  0  0  0  0  0  0
   11.3128  -18.4979   25.1022 O   0  0  0  0  0  0  0  0  0  0  0  0
  2  1  1  0
  2  3  2  0
  4  2  1  0
  5  7  1  0
  5  4  1  0
  5  6  1  6
  7  8  2  0
  9 10  1  0
  9  7  1  0
 10 11  1  1
 11 12  1  0
 12 17  2  0
 13 14  2  0
 13 12  1  0
 14 15  1  0
 15 16  2  0
 17 16  1  0
 18 10  1  0
 19 18  2  0
 20 18  1  0
 21 20  1  0
 21 22  1  1
 22 23  1  0
 23 31  1  0
 24 25  1  0
 24 23  2  0
 25 26  1  0
 26 31  2  0
 26 27  1  0
 27 28  2  0
 28 29  1  0
 30 29  2  0
 31 30  1  0
 32 21  1  0
 32 34  1  0
 33 32  2  0
M  END
$$$$
