NFW.pdb
     RDKit          3D

 34 36  0  0  1  0  0  0  0  0999 V2000
    9.4490  -21.4302   20.3153 N   0  0  0  0  0  0  0  0  0  0  0  0
   10.2618  -20.5430   19.5756 C   0  0  0  0  0  0  0  0  0  0  0  0
   10.6293  -20.8421   18.4192 O   0  0  0  0  0  0  0  0  0  0  0  0
   10.6716  -19.2622   20.1809 C   0  0  0  0  0  0  0  0  0  0  0  0
    9.5103  -18.2825   20.1048 C   0  0  2  0  0  0  0  0  0  0  0  0
    9.0443  -18.0480   18.7845 N   0  0  0  0  0  0  0  0  0  0  0  0
    9.8913  -17.0753   20.8580 C   0  0  0  0  0  0  0  0  0  0  0  0
   11.0252  -16.5786   20.6012 O   0  0  0  0  0  0  0  0  0  0  0  0
    9.0845  -16.4409   21.8385 N   0  0  0  0  0  0  0  0  0  0  0  0
    9.4991  -15.2444   22.5591 C   0  0  1  0  0  0  0  0  0  0  0  0
    8.3580  -14.2809   22.5912 C   0  0  0  0  0  0  0  0  0  0  0  0
    7.9175  -13.8270   21.2704 C   0  0  0  0  0  0  0  0  0  0  0  0
    8.4917  -12.7582   20.6204 C   0  0  0  0  0  0  0  0  0  0  0  0
    8.0483  -12.3513   19.3598 C   0  0  0  0  0  0  0  0  0  0  0  0
    7.0201  -13.0100   18.7286 C   0  0  0  0  0  0  0  0  0  0  0  0
    6.4411  -14.0791   19.3720 C   0  0  0  0  0  0  0  0  0  0  0  0
    6.8910  -14.4704   20.6202 C   0  0  0  0  0  0  0  0  0  0  0  0
   10.0365  -15.5666   23.8927 C   0  0  0  0  0  0  0  0  0  0  0  0
   10.9081  -14.8190   24.4021 O   0  0  0  0  0  0  0  0  0  0  0  0
    9.6155  -16.6953   24.6458 N   0  0  0  0  0  0  0  0  0  0  0  0
   10.0178  -16.9445   26.0051 C   0  0  1  0  0  0  0  0  0  0  0  0
    8.8359  -17.0406   26.9448 C   0  0  0  0  0  0  0  0  0  0  0  0
    7.8368  -15.9849   26.6610 C   0  0  0  0  0  0  0  0  0  0  0  0
    6.5939  -16.2020   26.1130 C   0  0  0  0  0  0  0  0  0  0  0  0
    5.9183  -15.0537   25.9760 N   0  0  0  0  0  0  0  0  0  0  0  0
    6.7327  -14.0856   26.4400 C   0  0  0  0  0  0  0  0  0  0  0  0
    6.5692  -12.7034   26.5466 C   0  0  0  0  0  0  0  0  0  0  0  0
    7.5749  -11.9294   27.0656 C   0  0  0  0  0  0  0  0  0  0  0  0
    8.7599  -12.4838   27.4914 C   0  0  0  0  0  0  0  0  0  0  0  0
    8.9392  -13.8456   27.3940 C   0  0  0  0  0  0  0  0  0  0  0  0
    7.9264  -14.6274   26.8710 C   0  0  0  0  0  0  0  0  0  0  0  0
   10.7353  -18.2436   26.0513 C   0  0  0  0  0  0  0  0  0  0  0  0
   10.8052  -19.0262   25.0704 O   0  0  0  0  0  0  0  0  0  0  0  0
   11.3779  -18.6607   27.2132 O   0  0  0  0  0  0  0  0  0  0  0  0
  2  1  1  0
  2  3  2  0
  4  2  1  0
  5  7  1  0
  5  4  1  0
  5  6  1  6
  7  8  2  0
  9 10  1  0
  9  7  1  0
 10 11  1  1
 11 12  1  0
 12 17  2  0
 13 14  2  0
 13 12  1  0
 14 15  1  0
 15 16  2  0
 17 16  1  0
 18 10  1  0
 19 18  2  0
 20 18  1  0
 21 20  1  0
 21 22  1  1
 22 23  1  0
 23 31  1  0
 24 25  1  0
 24 23  2  0
 25 26  1  0
 26 31  2  0
 26 27  1  0
 27 28  2  0
 28 29  1  0
 30 29  2  0
 31 30  1  0
 32 21  1  0
 32 34  1  0
 33 32  2  0
M  END
$$$$
