NFW.pdb
     RDKit          3D

 34 36  0  0  1  0  0  0  0  0999 V2000
   14.3460  -17.2902   17.1496 N   0  0  0  0  0  0  0  0  0  0  0  0
   12.9882  -17.6766   17.1066 C   0  0  0  0  0  0  0  0  0  0  0  0
   12.6157  -18.5806   16.3282 O   0  0  0  0  0  0  0  0  0  0  0  0
   12.0163  -17.0035   17.9879 C   0  0  0  0  0  0  0  0  0  0  0  0
   11.7957  -17.8569   19.2278 C   0  0  2  0  0  0  0  0  0  0  0  0
   10.9539  -18.9787   19.0087 N   0  0  0  0  0  0  0  0  0  0  0  0
   11.3749  -16.9620   20.3197 C   0  0  0  0  0  0  0  0  0  0  0  0
   12.1871  -16.0531   20.6554 O   0  0  0  0  0  0  0  0  0  0  0  0
   10.1383  -17.0493   21.0109 N   0  0  0  0  0  0  0  0  0  0  0  0
    9.7278  -16.0956   22.0330 C   0  0  1  0  0  0  0  0  0  0  0  0
    8.2722  -15.8051   21.8651 C   0  0  0  0  0  0  0  0  0  0  0  0
    7.9844  -14.6517   21.0099 C   0  0  0  0  0  0  0  0  0  0  0  0
    6.7068  -14.3035   20.6342 C   0  0  0  0  0  0  0  0  0  0  0  0
    6.4663  -13.1958   19.8178 C   0  0  0  0  0  0  0  0  0  0  0  0
    7.5042  -12.4173   19.3636 C   0  0  0  0  0  0  0  0  0  0  0  0
    8.7838  -12.7590   19.7348 C   0  0  0  0  0  0  0  0  0  0  0  0
    9.0064  -13.8589   20.5438 C   0  0  0  0  0  0  0  0  0  0  0  0
   10.0849  -16.5555   23.3866 C   0  0  0  0  0  0  0  0  0  0  0  0
   10.5295  -17.7199   23.5437 O   0  0  0  0  0  0  0  0  0  0  0  0
    9.9512  -15.7403   24.5424 N   0  0  0  0  0  0  0  0  0  0  0  0
   10.3496  -16.1533   25.8624 C   0  0  1  0  0  0  0  0  0  0  0  0
    9.8430  -15.2140   26.9349 C   0  0  0  0  0  0  0  0  0  0  0  0
    8.4244  -14.8546   26.7077 C   0  0  0  0  0  0  0  0  0  0  0  0
    7.4089  -15.7548   26.4825 C   0  0  0  0  0  0  0  0  0  0  0  0
    6.2369  -15.1295   26.3122 N   0  0  0  0  0  0  0  0  0  0  0  0
    6.4978  -13.8126   26.4285 C   0  0  0  0  0  0  0  0  0  0  0  0
    5.6734  -12.6893   26.3451 C   0  0  0  0  0  0  0  0  0  0  0  0
    6.2020  -11.4343   26.5044 C   0  0  0  0  0  0  0  0  0  0  0  0
    7.5429  -11.2461   26.7479 C   0  0  0  0  0  0  0  0  0  0  0  0
    8.3717  -12.3425   26.8336 C   0  0  0  0  0  0  0  0  0  0  0  0
    7.8405  -13.6085   26.6732 C   0  0  0  0  0  0  0  0  0  0  0  0
    9.7703  -17.4941   26.1292 C   0  0  0  0  0  0  0  0  0  0  0  0
   10.0955  -18.2001   27.1168 O   0  0  0  0  0  0  0  0  0  0  0  0
    8.8174  -18.0404   25.2744 O   0  0  0  0  0  0  0  0  0  0  0  0
  2  1  1  0
  2  3  2  0
  4  2  1  0
  5  7  1  0
  5  4  1  0
  5  6  1  6
  7  8  2  0
  9 10  1  0
  9  7  1  0
 10 11  1  1
 11 12  1  0
 12 17  2  0
 13 14  2  0
 13 12  1  0
 14 15  1  0
 15 16  2  0
 17 16  1  0
 18 10  1  0
 19 18  2  0
 20 18  1  0
 21 20  1  0
 21 22  1  1
 22 23  1  0
 23 31  1  0
 24 25  1  0
 24 23  2  0
 25 26  1  0
 26 31  2  0
 26 27  1  0
 27 28  2  0
 28 29  1  0
 30 29  2  0
 31 30  1  0
 32 21  1  0
 32 34  1  0
 33 32  2  0
M  END
$$$$
