NFW.pdb
     RDKit          3D

 34 36  0  0  1  0  0  0  0  0999 V2000
   15.0476  -19.4510   18.5527 N   0  0  0  0  0  0  0  0  0  0  0  0
   13.6750  -19.3897   18.8801 C   0  0  0  0  0  0  0  0  0  0  0  0
   12.8564  -20.1368   18.3026 O   0  0  0  0  0  0  0  0  0  0  0  0
   13.2186  -18.4366   19.9087 C   0  0  0  0  0  0  0  0  0  0  0  0
   12.0305  -17.6545   19.3692 C   0  0  2  0  0  0  0  0  0  0  0  0
   12.3200  -16.9101   18.1957 N   0  0  0  0  0  0  0  0  0  0  0  0
   11.4644  -16.8734   20.4826 C   0  0  0  0  0  0  0  0  0  0  0  0
   12.2141  -15.9983   21.0026 O   0  0  0  0  0  0  0  0  0  0  0  0
   10.1541  -17.0340   21.0041 N   0  0  0  0  0  0  0  0  0  0  0  0
    9.6182  -16.2103   22.0797 C   0  0  1  0  0  0  0  0  0  0  0  0
    8.1622  -15.9839   21.8344 C   0  0  0  0  0  0  0  0  0  0  0  0
    7.8651  -14.7889   21.0417 C   0  0  0  0  0  0  0  0  0  0  0  0
    6.6062  -14.5076   20.5615 C   0  0  0  0  0  0  0  0  0  0  0  0
    6.3561  -13.3577   19.8089 C   0  0  0  0  0  0  0  0  0  0  0  0
    7.3654  -12.4689   19.5245 C   0  0  0  0  0  0  0  0  0  0  0  0
    8.6263  -12.7432   20.0010 C   0  0  0  0  0  0  0  0  0  0  0  0
    8.8588  -13.8860   20.7449 C   0  0  0  0  0  0  0  0  0  0  0  0
    9.9106  -16.7825   23.4057 C   0  0  0  0  0  0  0  0  0  0  0  0
   10.2020  -18.0008   23.4997 O   0  0  0  0  0  0  0  0  0  0  0  0
    9.8801  -16.0186   24.6032 N   0  0  0  0  0  0  0  0  0  0  0  0
   10.1395  -16.5674   25.9083 C   0  0  1  0  0  0  0  0  0  0  0  0
    9.8534  -15.5759   27.0148 C   0  0  0  0  0  0  0  0  0  0  0  0
    8.5344  -14.9288   26.8284 C   0  0  0  0  0  0  0  0  0  0  0  0
    7.3394  -15.5973   26.6969 C   0  0  0  0  0  0  0  0  0  0  0  0
    6.3208  -14.7417   26.5420 N   0  0  0  0  0  0  0  0  0  0  0  0
    6.8631  -13.5085   26.5737 C   0  0  0  0  0  0  0  0  0  0  0  0
    6.2947  -12.2384   26.4630 C   0  0  0  0  0  0  0  0  0  0  0  0
    7.0872  -11.1215   26.5296 C   0  0  0  0  0  0  0  0  0  0  0  0
    8.4484  -11.2171   26.7051 C   0  0  0  0  0  0  0  0  0  0  0  0
    9.0269  -12.4617   26.8164 C   0  0  0  0  0  0  0  0  0  0  0  0
    8.2295  -13.5887   26.7494 C   0  0  0  0  0  0  0  0  0  0  0  0
    9.2473  -17.7368   26.1111 C   0  0  0  0  0  0  0  0  0  0  0  0
    8.2225  -17.9492   25.4153 O   0  0  0  0  0  0  0  0  0  0  0  0
    9.5151  -18.6719   27.1065 O   0  0  0  0  0  0  0  0  0  0  0  0
  2  1  1  0
  2  3  2  0
  4  2  1  0
  5  7  1  0
  5  4  1  0
  5  6  1  6
  7  8  2  0
  9 10  1  0
  9  7  1  0
 10 11  1  6
 11 12  1  0
 12 17  2  0
 13 14  2  0
 13 12  1  0
 14 15  1  0
 15 16  2  0
 17 16  1  0
 18 10  1  0
 19 18  2  0
 20 18  1  0
 21 20  1  0
 21 22  1  1
 22 23  1  0
 23 31  1  0
 24 25  1  0
 24 23  2  0
 25 26  1  0
 26 31  2  0
 26 27  1  0
 27 28  2  0
 28 29  1  0
 30 29  2  0
 31 30  1  0
 32 21  1  0
 32 34  1  0
 33 32  2  0
M  END
$$$$
