NFW.pdb
     RDKit          3D

 34 36  0  0  1  0  0  0  0  0999 V2000
   11.5868  -20.7538   18.7818 N   0  0  0  0  0  0  0  0  0  0  0  0
   10.3861  -20.7759   18.0385 C   0  0  0  0  0  0  0  0  0  0  0  0
   10.4150  -20.9507   16.8014 O   0  0  0  0  0  0  0  0  0  0  0  0
    9.1000  -20.5910   18.7360 C   0  0  0  0  0  0  0  0  0  0  0  0
    9.3694  -20.2763   20.1998 C   0  0  2  0  0  0  0  0  0  0  0  0
    8.4354  -20.8633   21.0931 N   0  0  0  0  0  0  0  0  0  0  0  0
    9.5228  -18.8164   20.3242 C   0  0  0  0  0  0  0  0  0  0  0  0
   10.6303  -18.3276   19.9599 O   0  0  0  0  0  0  0  0  0  0  0  0
    8.5269  -17.9340   20.8183 N   0  0  0  0  0  0  0  0  0  0  0  0
    8.7466  -16.5050   20.9980 C   0  0  1  0  0  0  0  0  0  0  0  0
    7.4229  -15.8273   21.1394 C   0  0  0  0  0  0  0  0  0  0  0  0
    7.5022  -14.3683   21.2373 C   0  0  0  0  0  0  0  0  0  0  0  0
    7.7842  -13.5636   20.1567 C   0  0  0  0  0  0  0  0  0  0  0  0
    7.8515  -12.1742   20.2839 C   0  0  0  0  0  0  0  0  0  0  0  0
    7.6368  -11.5670   21.4983 C   0  0  0  0  0  0  0  0  0  0  0  0
    7.3544  -12.3646   22.5828 C   0  0  0  0  0  0  0  0  0  0  0  0
    7.2912  -13.7392   22.4415 C   0  0  0  0  0  0  0  0  0  0  0  0
    9.6723  -16.2286   22.1106 C   0  0  0  0  0  0  0  0  0  0  0  0
   10.6927  -15.5262   21.9022 O   0  0  0  0  0  0  0  0  0  0  0  0
    9.4700  -16.7216   23.4276 N   0  0  0  0  0  0  0  0  0  0  0  0
   10.2823  -16.3465   24.5551 C   0  0  1  0  0  0  0  0  0  0  0  0
    9.8817  -15.0054   25.1299 C   0  0  0  0  0  0  0  0  0  0  0  0
    8.4714  -15.0145   25.5819 C   0  0  0  0  0  0  0  0  0  0  0  0
    7.7020  -16.1433   25.7430 C   0  0  0  0  0  0  0  0  0  0  0  0
    6.4685  -15.8324   26.1621 N   0  0  0  0  0  0  0  0  0  0  0  0
    6.4410  -14.4897   26.2727 C   0  0  0  0  0  0  0  0  0  0  0  0
    5.4313  -13.6082   26.6628 C   0  0  0  0  0  0  0  0  0  0  0  0
    5.6685  -12.2581   26.6887 C   0  0  0  0  0  0  0  0  0  0  0  0
    6.8922  -11.7377   26.3357 C   0  0  0  0  0  0  0  0  0  0  0  0
    7.9003  -12.5919   25.9482 C   0  0  0  0  0  0  0  0  0  0  0  0
    7.6629  -13.9533   25.9215 C   0  0  0  0  0  0  0  0  0  0  0  0
   10.1032  -17.3640   25.6214 C   0  0  0  0  0  0  0  0  0  0  0  0
    9.2248  -18.2616   25.5754 O   0  0  0  0  0  0  0  0  0  0  0  0
   10.9221  -17.3670   26.7468 O   0  0  0  0  0  0  0  0  0  0  0  0
  2  1  1  0
  2  3  2  0
  4  2  1  0
  5  7  1  0
  5  4  1  0
  5  6  1  1
  7  8  2  0
  9 10  1  0
  9  7  1  0
 10 11  1  1
 11 12  1  0
 12 17  2  0
 13 14  2  0
 13 12  1  0
 14 15  1  0
 15 16  2  0
 17 16  1  0
 18 10  1  0
 19 18  2  0
 20 18  1  0
 21 20  1  0
 21 22  1  1
 22 23  1  0
 23 31  1  0
 24 25  1  0
 24 23  2  0
 25 26  1  0
 26 31  2  0
 26 27  1  0
 27 28  2  0
 28 29  1  0
 30 29  2  0
 31 30  1  0
 32 21  1  0
 32 34  1  0
 33 32  2  0
M  END
$$$$
