NFW.pdb
     RDKit          3D

 34 36  0  0  1  0  0  0  0  0999 V2000
    9.0209  -20.6345   20.9281 N   0  0  0  0  0  0  0  0  0  0  0  0
   10.1899  -19.8496   20.8177 C   0  0  0  0  0  0  0  0  0  0  0  0
   11.0585  -20.1309   19.9644 O   0  0  0  0  0  0  0  0  0  0  0  0
   10.3747  -18.6966   21.7183 C   0  0  0  0  0  0  0  0  0  0  0  0
    9.8584  -17.4415   21.0310 C   0  0  2  0  0  0  0  0  0  0  0  0
   10.5842  -17.0880   19.8634 N   0  0  0  0  0  0  0  0  0  0  0  0
    9.7558  -16.3819   22.0493 C   0  0  0  0  0  0  0  0  0  0  0  0
   10.8260  -15.7837   22.3578 O   0  0  0  0  0  0  0  0  0  0  0  0
    8.5553  -15.9926   22.6987 N   0  0  0  0  0  0  0  0  0  0  0  0
    8.5097  -14.9902   23.7550 C   0  0  1  0  0  0  0  0  0  0  0  0
    7.1810  -14.3087   23.7164 C   0  0  0  0  0  0  0  0  0  0  0  0
    6.9518  -13.3759   24.8219 C   0  0  0  0  0  0  0  0  0  0  0  0
    6.0451  -13.6217   25.8280 C   0  0  0  0  0  0  0  0  0  0  0  0
    5.8511  -12.7110   26.8693 C   0  0  0  0  0  0  0  0  0  0  0  0
    6.5639  -11.5367   26.9196 C   0  0  0  0  0  0  0  0  0  0  0  0
    7.4719  -11.2840   25.9177 C   0  0  0  0  0  0  0  0  0  0  0  0
    7.6531  -12.1953   24.8929 C   0  0  0  0  0  0  0  0  0  0  0  0
    8.8393  -15.5654   25.0709 C   0  0  0  0  0  0  0  0  0  0  0  0
    8.1001  -16.4583   25.5549 O   0  0  0  0  0  0  0  0  0  0  0  0
    9.9661  -15.1580   25.8344 N   0  0  0  0  0  0  0  0  0  0  0  0
   10.2235  -15.6024   27.1791 C   0  0  1  0  0  0  0  0  0  0  0  0
   11.6472  -16.0807   27.3625 C   0  0  0  0  0  0  0  0  0  0  0  0
   11.8839  -17.3522   26.6411 C   0  0  0  0  0  0  0  0  0  0  0  0
   12.4550  -17.4570   25.3941 C   0  0  0  0  0  0  0  0  0  0  0  0
   12.5363  -18.7360   25.0051 N   0  0  0  0  0  0  0  0  0  0  0  0
   12.0127  -19.4643   26.0106 C   0  0  0  0  0  0  0  0  0  0  0  0
   11.8321  -20.8395   26.1681 C   0  0  0  0  0  0  0  0  0  0  0  0
   11.2615  -21.3321   27.3133 C   0  0  0  0  0  0  0  0  0  0  0  0
   10.8547  -20.4974   28.3286 C   0  0  0  0  0  0  0  0  0  0  0  0
   11.0248  -19.1380   28.1911 C   0  0  0  0  0  0  0  0  0  0  0  0
   11.5999  -18.6396   27.0371 C   0  0  0  0  0  0  0  0  0  0  0  0
   10.0119  -14.4573   28.1002 C   0  0  0  0  0  0  0  0  0  0  0  0
    9.8718  -13.2728   27.7043 O   0  0  0  0  0  0  0  0  0  0  0  0
    9.9584  -14.6522   29.4772 O   0  0  0  0  0  0  0  0  0  0  0  0
  2  1  1  0
  2  3  2  0
  4  2  1  0
  5  7  1  0
  5  4  1  0
  5  6  1  6
  7  8  2  0
  9 10  1  0
  9  7  1  0
 10 11  1  1
 11 12  1  0
 12 17  2  0
 13 14  2  0
 13 12  1  0
 14 15  1  0
 15 16  2  0
 17 16  1  0
 18 10  1  0
 19 18  2  0
 20 18  1  0
 21 20  1  0
 21 22  1  6
 22 23  1  0
 23 31  1  0
 24 25  1  0
 24 23  2  0
 25 26  1  0
 26 31  2  0
 26 27  1  0
 27 28  2  0
 28 29  1  0
 30 29  2  0
 31 30  1  0
 32 21  1  0
 32 34  1  0
 33 32  2  0
M  END
$$$$
