NFW.pdb
     RDKit          3D

 34 36  0  0  1  0  0  0  0  0999 V2000
   12.0846  -18.8183   16.4474 N   0  0  0  0  0  0  0  0  0  0  0  0
   11.1640  -18.9959   17.5037 C   0  0  0  0  0  0  0  0  0  0  0  0
   10.3097  -19.9063   17.4473 O   0  0  0  0  0  0  0  0  0  0  0  0
   11.2213  -18.0977   18.6718 C   0  0  0  0  0  0  0  0  0  0  0  0
    9.9194  -17.3160   18.7618 C   0  0  2  0  0  0  0  0  0  0  0  0
    9.7021  -16.4373   17.6683 N   0  0  0  0  0  0  0  0  0  0  0  0
    9.8654  -16.6854   20.0921 C   0  0  0  0  0  0  0  0  0  0  0  0
   10.9508  -16.2239   20.5475 O   0  0  0  0  0  0  0  0  0  0  0  0
    8.6955  -16.5627   20.8862 N   0  0  0  0  0  0  0  0  0  0  0  0
    8.6942  -15.9687   22.2166 C   0  0  1  0  0  0  0  0  0  0  0  0
    7.3082  -15.5159   22.5415 C   0  0  0  0  0  0  0  0  0  0  0  0
    7.1730  -14.8935   23.8602 C   0  0  0  0  0  0  0  0  0  0  0  0
    6.6659  -15.5625   24.9510 C   0  0  0  0  0  0  0  0  0  0  0  0
    6.5512  -14.9396   26.1961 C   0  0  0  0  0  0  0  0  0  0  0  0
    6.9435  -13.6336   26.3689 C   0  0  0  0  0  0  0  0  0  0  0  0
    7.4512  -12.9585   25.2833 C   0  0  0  0  0  0  0  0  0  0  0  0
    7.5588  -13.5885   24.0565 C   0  0  0  0  0  0  0  0  0  0  0  0
    9.2684  -16.8784   23.2234 C   0  0  0  0  0  0  0  0  0  0  0  0
    8.9587  -18.0957   23.2010 O   0  0  0  0  0  0  0  0  0  0  0  0
   10.1678  -16.4465   24.2348 N   0  0  0  0  0  0  0  0  0  0  0  0
   11.1334  -17.3069   24.8665 C   0  0  1  0  0  0  0  0  0  0  0  0
   11.8332  -16.6308   26.0251 C   0  0  0  0  0  0  0  0  0  0  0  0
   10.9218  -16.4658   27.1807 C   0  0  0  0  0  0  0  0  0  0  0  0
   10.3510  -17.4979   27.8887 C   0  0  0  0  0  0  0  0  0  0  0  0
    9.5745  -17.0354   28.8771 N   0  0  0  0  0  0  0  0  0  0  0  0
    9.6445  -15.6915   28.8068 C   0  0  0  0  0  0  0  0  0  0  0  0
    9.0496  -14.6870   29.5720 C   0  0  0  0  0  0  0  0  0  0  0  0
    9.2908  -13.3684   29.2842 C   0  0  0  0  0  0  0  0  0  0  0  0
   10.1152  -12.9998   28.2463 C   0  0  0  0  0  0  0  0  0  0  0  0
   10.7110  -13.9769   27.4804 C   0  0  0  0  0  0  0  0  0  0  0  0
   10.4689  -15.3067   27.7692 C   0  0  0  0  0  0  0  0  0  0  0  0
   10.4229  -18.4954   25.4024 C   0  0  0  0  0  0  0  0  0  0  0  0
   11.0170  -19.4963   25.8764 O   0  0  0  0  0  0  0  0  0  0  0  0
    9.0323  -18.5530   25.4025 O   0  0  0  0  0  0  0  0  0  0  0  0
  2  1  1  0
  2  3  2  0
  4  2  1  0
  5  7  1  0
  5  4  1  0
  5  6  1  6
  7  8  2  0
  9 10  1  0
  9  7  1  0
 10 11  1  1
 11 12  1  0
 12 17  2  0
 13 14  2  0
 13 12  1  0
 14 15  1  0
 15 16  2  0
 17 16  1  0
 18 10  1  0
 19 18  2  0
 20 18  1  0
 21 20  1  0
 21 22  1  1
 22 23  1  0
 23 31  1  0
 24 25  1  0
 24 23  2  0
 25 26  1  0
 26 31  2  0
 26 27  1  0
 27 28  2  0
 28 29  1  0
 30 29  2  0
 31 30  1  0
 32 21  1  0
 32 34  1  0
 33 32  2  0
M  END
$$$$
