AFL.pdb
     RDKit          3D

 25 25  0  0  1  0  0  0  0  0999 V2000
    8.0730  -18.2940   20.1078 C   0  0  0  0  0  0  0  0  0  0  0  0
    7.4467  -16.9083   20.0665 C   0  0  2  0  0  0  0  0  0  0  0  0
    7.8353  -16.2959   18.8134 N   0  0  0  0  0  0  0  0  0  0  0  0
    7.9964  -16.1365   21.2159 C   0  0  0  0  0  0  0  0  0  0  0  0
    9.1739  -15.6644   21.0550 O   0  0  0  0  0  0  0  0  0  0  0  0
    7.2782  -15.9329   22.4060 N   0  0  0  0  0  0  0  0  0  0  0  0
    7.8248  -15.1306   23.5245 C   0  0  1  0  0  0  0  0  0  0  0  0
    6.6883  -14.7940   24.4188 C   0  0  0  0  0  0  0  0  0  0  0  0
    6.9335  -13.8843   25.5032 C   0  0  0  0  0  0  0  0  0  0  0  0
    7.6599  -14.2023   26.6258 C   0  0  0  0  0  0  0  0  0  0  0  0
    7.8417  -13.2576   27.6450 C   0  0  0  0  0  0  0  0  0  0  0  0
    7.3091  -12.0015   27.5582 C   0  0  0  0  0  0  0  0  0  0  0  0
    6.5799  -11.6673   26.4412 C   0  0  0  0  0  0  0  0  0  0  0  0
    6.4133  -12.6045   25.4561 C   0  0  0  0  0  0  0  0  0  0  0  0
    8.8180  -15.9684   24.2040 C   0  0  0  0  0  0  0  0  0  0  0  0
    8.4644  -17.1552   24.5313 O   0  0  0  0  0  0  0  0  0  0  0  0
   12.4617  -17.4352   22.5315 C   0  0  0  0  0  0  0  0  0  0  0  0
   12.5390  -16.1051   23.2887 C   0  0  2  0  0  0  0  0  0  0  0  0
   13.8095  -15.4189   22.8625 C   0  0  0  0  0  0  0  0  0  0  0  0
   12.4604  -16.3273   24.7656 C   0  0  0  0  0  0  0  0  0  0  0  0
   11.0311  -16.6544   25.1598 C   0  0  2  0  0  0  0  0  0  0  0  0
   10.1487  -15.6312   24.5457 N   0  0  0  0  0  0  0  0  0  0  0  0
   10.8699  -16.5663   26.6036 C   0  0  0  0  0  0  0  0  0  0  0  0
   10.0115  -15.6167   27.1939 O   0  0  0  0  0  0  0  0  0  0  0  0
   11.5114  -17.3516   27.3732 O   0  0  0  0  0  0  0  0  0  0  0  0
  2  1  1  6
  2  3  1  0
  4  2  1  0
  4  5  2  0
  6  4  1  0
  7  6  1  0
  7  8  1  1
  8  9  1  0
  9 14  2  0
 10  9  1  0
 10 11  2  0
 11 12  1  0
 12 13  2  0
 14 13  1  0
 15  7  1  0
 16 15  2  0
 18 19  1  1
 18 17  1  0
 20 18  1  0
 21 20  1  1
 21 22  1  0
 22 15  1  0
 23 21  1  0
 24 23  1  0
 25 23  2  0
M  END
$$$$
