AFL.pdb
     RDKit          3D

 25 25  0  0  1  0  0  0  0  0999 V2000
   10.3209  -19.8955   21.9922 C   0  0  0  0  0  0  0  0  0  0  0  0
    9.1391  -19.1174   21.4338 C   0  0  2  0  0  0  0  0  0  0  0  0
    9.2846  -19.0859   19.9936 N   0  0  0  0  0  0  0  0  0  0  0  0
    9.2082  -17.7391   21.9946 C   0  0  0  0  0  0  0  0  0  0  0  0
   10.0559  -16.9570   21.4421 O   0  0  0  0  0  0  0  0  0  0  0  0
    8.4000  -17.3126   23.0617 N   0  0  0  0  0  0  0  0  0  0  0  0
    8.5021  -15.9471   23.6260 C   0  0  1  0  0  0  0  0  0  0  0  0
    7.1902  -15.6294   24.2446 C   0  0  0  0  0  0  0  0  0  0  0  0
    6.9948  -14.3031   24.7608 C   0  0  0  0  0  0  0  0  0  0  0  0
    6.3500  -14.0237   25.9420 C   0  0  0  0  0  0  0  0  0  0  0  0
    6.1908  -12.6980   26.3678 C   0  0  0  0  0  0  0  0  0  0  0  0
    6.6665  -11.6491   25.6312 C   0  0  0  0  0  0  0  0  0  0  0  0
    7.3145  -11.9116   24.4469 C   0  0  0  0  0  0  0  0  0  0  0  0
    7.4598  -13.2139   24.0479 C   0  0  0  0  0  0  0  0  0  0  0  0
    9.5770  -15.9776   24.6229 C   0  0  0  0  0  0  0  0  0  0  0  0
   10.7426  -15.6039   24.2458 O   0  0  0  0  0  0  0  0  0  0  0  0
   10.7106  -13.5829   27.5239 C   0  0  0  0  0  0  0  0  0  0  0  0
    9.7503  -14.6334   28.0921 C   0  0  2  0  0  0  0  0  0  0  0  0
    9.2633  -14.1238   29.4224 C   0  0  0  0  0  0  0  0  0  0  0  0
   10.4162  -15.9694   28.1847 C   0  0  0  0  0  0  0  0  0  0  0  0
   10.7273  -16.4853   26.7911 C   0  0  2  0  0  0  0  0  0  0  0  0
    9.4900  -16.3673   25.9801 N   0  0  0  0  0  0  0  0  0  0  0  0
   11.0894  -17.8941   26.8404 C   0  0  0  0  0  0  0  0  0  0  0  0
   12.3479  -18.3165   27.3144 O   0  0  0  0  0  0  0  0  0  0  0  0
   10.2691  -18.7849   26.4478 O   0  0  0  0  0  0  0  0  0  0  0  0
  2  1  1  1
  2  3  1  0
  4  2  1  0
  4  5  2  0
  6  4  1  0
  7  6  1  0
  7  8  1  1
  8  9  1  0
  9 14  2  0
 10  9  1  0
 10 11  2  0
 11 12  1  0
 12 13  2  0
 14 13  1  0
 15  7  1  0
 16 15  2  0
 18 19  1  1
 18 17  1  0
 20 18  1  0
 21 20  1  1
 21 22  1  0
 22 15  1  0
 23 21  1  0
 24 23  1  0
 25 23  2  0
M  END
$$$$
