AFL.pdb
     RDKit          3D

 25 25  0  0  1  0  0  0  0  0999 V2000
    6.4208  -20.4836   22.5620 C   0  0  0  0  0  0  0  0  0  0  0  0
    5.3478  -19.8250   23.4159 C   0  0  2  0  0  0  0  0  0  0  0  0
    4.0783  -20.0361   22.7526 N   0  0  0  0  0  0  0  0  0  0  0  0
    5.6639  -18.3709   23.4852 C   0  0  0  0  0  0  0  0  0  0  0  0
    5.3585  -17.6866   22.4490 O   0  0  0  0  0  0  0  0  0  0  0  0
    6.2593  -17.7767   24.6104 N   0  0  0  0  0  0  0  0  0  0  0  0
    6.5827  -16.3321   24.6556 C   0  0  1  0  0  0  0  0  0  0  0  0
    6.7185  -15.9580   26.0861 C   0  0  0  0  0  0  0  0  0  0  0  0
    7.0220  -14.5885   26.3963 C   0  0  0  0  0  0  0  0  0  0  0  0
    8.2862  -14.1222   26.6669 C   0  0  0  0  0  0  0  0  0  0  0  0
    8.4940  -12.7704   26.9730 C   0  0  0  0  0  0  0  0  0  0  0  0
    7.4579  -11.8793   27.0120 C   0  0  0  0  0  0  0  0  0  0  0  0
    6.1866  -12.3298   26.7432 C   0  0  0  0  0  0  0  0  0  0  0  0
    6.0042  -13.6546   26.4464 C   0  0  0  0  0  0  0  0  0  0  0  0
    7.8435  -16.1549   23.9282 C   0  0  0  0  0  0  0  0  0  0  0  0
    8.6936  -17.1117   23.9788 O   0  0  0  0  0  0  0  0  0  0  0  0
    7.6082  -15.1261   19.8218 C   0  0  0  0  0  0  0  0  0  0  0  0
    7.9490  -13.9096   20.6892 C   0  0  2  0  0  0  0  0  0  0  0  0
    7.7498  -12.6825   19.8401 C   0  0  0  0  0  0  0  0  0  0  0  0
    9.3342  -14.0206   21.2422 C   0  0  0  0  0  0  0  0  0  0  0  0
    9.4019  -15.1728   22.2287 C   0  0  2  0  0  0  0  0  0  0  0  0
    8.2488  -15.0426   23.1538 N   0  0  0  0  0  0  0  0  0  0  0  0
   10.6175  -15.0887   23.0248 C   0  0  0  0  0  0  0  0  0  0  0  0
   10.5756  -14.8423   24.4121 O   0  0  0  0  0  0  0  0  0  0  0  0
   11.7579  -15.2333   22.4778 O   0  0  0  0  0  0  0  0  0  0  0  0
  2  1  1  6
  2  3  1  0
  4  2  1  0
  4  5  2  0
  6  4  1  0
  7  6  1  0
  7  8  1  1
  8  9  1  0
  9 14  2  0
 10  9  1  0
 10 11  2  0
 11 12  1  0
 12 13  2  0
 14 13  1  0
 15  7  1  0
 16 15  2  0
 18 19  1  6
 18 17  1  0
 20 18  1  0
 21 20  1  6
 21 22  1  0
 22 15  1  0
 23 21  1  0
 24 23  1  0
 25 23  2  0
M  END
$$$$
