AFL.pdb
     RDKit          3D

 25 25  0  0  1  0  0  0  0  0999 V2000
   11.2608  -18.8977   21.1115 C   0  0  0  0  0  0  0  0  0  0  0  0
   10.7094  -17.6055   20.5280 C   0  0  2  0  0  0  0  0  0  0  0  0
   11.7134  -17.0741   19.6303 N   0  0  0  0  0  0  0  0  0  0  0  0
   10.4763  -16.6684   21.6622 C   0  0  0  0  0  0  0  0  0  0  0  0
   11.4658  -15.9224   21.9780 O   0  0  0  0  0  0  0  0  0  0  0  0
    9.2530  -16.5984   22.3496 N   0  0  0  0  0  0  0  0  0  0  0  0
    9.0206  -15.6232   23.4397 C   0  0  1  0  0  0  0  0  0  0  0  0
    7.5865  -15.2417   23.3879 C   0  0  0  0  0  0  0  0  0  0  0  0
    7.1013  -14.3176   24.3750 C   0  0  0  0  0  0  0  0  0  0  0  0
    6.2316  -14.6552   25.3843 C   0  0  0  0  0  0  0  0  0  0  0  0
    5.7970  -13.6878   26.3003 C   0  0  0  0  0  0  0  0  0  0  0  0
    6.2190  -12.3897   26.2226 C   0  0  0  0  0  0  0  0  0  0  0  0
    7.0898  -12.0355   25.2188 C   0  0  0  0  0  0  0  0  0  0  0  0
    7.5027  -12.9955   24.3332 C   0  0  0  0  0  0  0  0  0  0  0  0
    9.3548  -16.3012   24.6961 C   0  0  0  0  0  0  0  0  0  0  0  0
    9.1991  -17.5718   24.7408 O   0  0  0  0  0  0  0  0  0  0  0  0
   11.6761  -13.5068   28.7668 C   0  0  0  0  0  0  0  0  0  0  0  0
   10.9089  -14.3074   27.7090 C   0  0  2  0  0  0  0  0  0  0  0  0
    9.6276  -13.5685   27.4283 C   0  0  0  0  0  0  0  0  0  0  0  0
   10.6859  -15.7147   28.1638 C   0  0  0  0  0  0  0  0  0  0  0  0
   10.3703  -16.5962   26.9685 C   0  0  2  0  0  0  0  0  0  0  0  0
    9.8456  -15.7222   25.8899 N   0  0  0  0  0  0  0  0  0  0  0  0
    9.3279  -17.5545   27.3056 C   0  0  0  0  0  0  0  0  0  0  0  0
    8.0133  -17.4178   26.8159 O   0  0  0  0  0  0  0  0  0  0  0  0
    9.5836  -18.5457   28.0623 O   0  0  0  0  0  0  0  0  0  0  0  0
  2  1  1  1
  2  3  1  0
  4  2  1  0
  4  5  2  0
  6  4  1  0
  7  6  1  0
  7  8  1  1
  8  9  1  0
  9 14  2  0
 10  9  1  0
 10 11  2  0
 11 12  1  0
 12 13  2  0
 14 13  1  0
 15  7  1  0
 16 15  2  0
 18 19  1  1
 18 17  1  0
 20 18  1  0
 21 20  1  1
 21 22  1  0
 22 15  1  0
 23 21  1  0
 24 23  1  0
 25 23  2  0
M  END
$$$$
