AFL.pdb
     RDKit          3D

 25 25  0  0  1  0  0  0  0  0999 V2000
    9.7287  -17.6769   19.2082 C   0  0  0  0  0  0  0  0  0  0  0  0
   10.0502  -18.1479   20.6184 C   0  0  2  0  0  0  0  0  0  0  0  0
    9.0328  -19.1064   20.9960 N   0  0  0  0  0  0  0  0  0  0  0  0
    9.9983  -16.9550   21.5092 C   0  0  0  0  0  0  0  0  0  0  0  0
   10.9375  -16.1020   21.3495 O   0  0  0  0  0  0  0  0  0  0  0  0
    8.9881  -16.7668   22.4672 N   0  0  0  0  0  0  0  0  0  0  0  0
    8.9324  -15.5580   23.3211 C   0  0  1  0  0  0  0  0  0  0  0  0
    7.5066  -15.3319   23.6682 C   0  0  0  0  0  0  0  0  0  0  0  0
    7.1954  -14.2461   24.5559 C   0  0  0  0  0  0  0  0  0  0  0  0
    6.3917  -14.3641   25.6646 C   0  0  0  0  0  0  0  0  0  0  0  0
    6.1284  -13.2496   26.4724 C   0  0  0  0  0  0  0  0  0  0  0  0
    6.6563  -12.0208   26.1887 C   0  0  0  0  0  0  0  0  0  0  0  0
    7.4629  -11.8859   25.0830 C   0  0  0  0  0  0  0  0  0  0  0  0
    7.7081  -12.9870   24.3060 C   0  0  0  0  0  0  0  0  0  0  0  0
    9.7407  -15.8399   24.5116 C   0  0  0  0  0  0  0  0  0  0  0  0
   10.9435  -15.4000   24.5263 O   0  0  0  0  0  0  0  0  0  0  0  0
   11.1961  -13.9136   27.9024 C   0  0  0  0  0  0  0  0  0  0  0  0
    9.7249  -14.3170   27.7552 C   0  0  2  0  0  0  0  0  0  0  0  0
    8.9311  -13.4815   28.7239 C   0  0  0  0  0  0  0  0  0  0  0  0
    9.5512  -15.7869   27.9704 C   0  0  0  0  0  0  0  0  0  0  0  0
   10.2475  -16.5536   26.8602 C   0  0  2  0  0  0  0  0  0  0  0  0
    9.3531  -16.5439   25.6759 N   0  0  0  0  0  0  0  0  0  0  0  0
   10.4477  -17.9416   27.2501 C   0  0  0  0  0  0  0  0  0  0  0  0
   11.5306  -18.3306   28.0642 O   0  0  0  0  0  0  0  0  0  0  0  0
    9.6417  -18.8447   26.8560 O   0  0  0  0  0  0  0  0  0  0  0  0
  2  1  1  6
  2  3  1  0
  4  2  1  0
  4  5  2  0
  6  4  1  0
  7  6  1  0
  7  8  1  1
  8  9  1  0
  9 14  2  0
 10  9  1  0
 10 11  2  0
 11 12  1  0
 12 13  2  0
 14 13  1  0
 15  7  1  0
 16 15  2  0
 18 19  1  1
 18 17  1  0
 20 18  1  0
 21 20  1  1
 21 22  1  0
 22 15  1  0
 23 21  1  0
 24 23  1  0
 25 23  2  0
M  END
$$$$
