AFL.pdb
     RDKit          3D

 25 25  0  0  1  0  0  0  0  0999 V2000
   11.4019  -18.7957   20.8318 C   0  0  0  0  0  0  0  0  0  0  0  0
   10.7325  -17.5542   20.2619 C   0  0  2  0  0  0  0  0  0  0  0  0
   11.6475  -16.9722   19.3026 N   0  0  0  0  0  0  0  0  0  0  0  0
   10.4980  -16.6151   21.3942 C   0  0  0  0  0  0  0  0  0  0  0  0
   11.5004  -15.8995   21.7384 O   0  0  0  0  0  0  0  0  0  0  0  0
    9.2602  -16.5121   22.0506 N   0  0  0  0  0  0  0  0  0  0  0  0
    9.0376  -15.5558   23.1594 C   0  0  1  0  0  0  0  0  0  0  0  0
    7.5964  -15.1986   23.1474 C   0  0  0  0  0  0  0  0  0  0  0  0
    7.1056  -14.3516   24.1987 C   0  0  0  0  0  0  0  0  0  0  0  0
    6.2841  -14.7811   25.2135 C   0  0  0  0  0  0  0  0  0  0  0  0
    5.8398  -13.8846   26.1948 C   0  0  0  0  0  0  0  0  0  0  0  0
    6.2044  -12.5671   26.1767 C   0  0  0  0  0  0  0  0  0  0  0  0
    7.0263  -12.1214   25.1682 C   0  0  0  0  0  0  0  0  0  0  0  0
    7.4497  -13.0130   24.2184 C   0  0  0  0  0  0  0  0  0  0  0  0
    9.4137  -16.2447   24.3979 C   0  0  0  0  0  0  0  0  0  0  0  0
    9.4407  -17.5251   24.3764 O   0  0  0  0  0  0  0  0  0  0  0  0
    9.2813  -13.9324   27.4714 C   0  0  0  0  0  0  0  0  0  0  0  0
   10.2165  -14.7494   28.3694 C   0  0  2  0  0  0  0  0  0  0  0  0
   10.8216  -13.8004   29.3692 C   0  0  0  0  0  0  0  0  0  0  0  0
   11.2408  -15.4728   27.5541 C   0  0  0  0  0  0  0  0  0  0  0  0
   10.5540  -16.4532   26.6201 C   0  0  2  0  0  0  0  0  0  0  0  0
    9.7664  -15.6655   25.6395 N   0  0  0  0  0  0  0  0  0  0  0  0
    9.6235  -17.2926   27.3603 C   0  0  0  0  0  0  0  0  0  0  0  0
    8.2354  -17.2456   27.1199 O   0  0  0  0  0  0  0  0  0  0  0  0
   10.0483  -18.0935   28.2541 O   0  0  0  0  0  0  0  0  0  0  0  0
  2  1  1  1
  2  3  1  0
  4  2  1  0
  4  5  2  0
  6  4  1  0
  7  6  1  0
  7  8  1  1
  8  9  1  0
  9 14  2  0
 10  9  1  0
 10 11  2  0
 11 12  1  0
 12 13  2  0
 14 13  1  0
 15  7  1  0
 16 15  2  0
 18 19  1  1
 18 17  1  0
 20 18  1  0
 21 20  1  1
 21 22  1  0
 22 15  1  0
 23 21  1  0
 24 23  1  0
 25 23  2  0
M  END
$$$$
