AFL.pdb
     RDKit          3D

 25 25  0  0  1  0  0  0  0  0999 V2000
   10.8385  -18.9180   20.6678 C   0  0  0  0  0  0  0  0  0  0  0  0
   10.4769  -17.5170   20.1979 C   0  0  2  0  0  0  0  0  0  0  0  0
   11.5683  -17.0431   19.3730 N   0  0  0  0  0  0  0  0  0  0  0  0
   10.3319  -16.6640   21.4105 C   0  0  0  0  0  0  0  0  0  0  0  0
   11.3829  -16.0324   21.7735 O   0  0  0  0  0  0  0  0  0  0  0  0
    9.1241  -16.5517   22.1192 N   0  0  0  0  0  0  0  0  0  0  0  0
    8.9485  -15.5766   23.2200 C   0  0  1  0  0  0  0  0  0  0  0  0
    7.5070  -15.2237   23.2669 C   0  0  0  0  0  0  0  0  0  0  0  0
    7.0789  -14.2785   24.2604 C   0  0  0  0  0  0  0  0  0  0  0  0
    7.3560  -12.9331   24.2133 C   0  0  0  0  0  0  0  0  0  0  0  0
    6.9104  -12.0803   25.2323 C   0  0  0  0  0  0  0  0  0  0  0  0
    6.1926  -12.5521   26.2958 C   0  0  0  0  0  0  0  0  0  0  0  0
    5.9065  -13.8958   26.3578 C   0  0  0  0  0  0  0  0  0  0  0  0
    6.3510  -14.7129   25.3523 C   0  0  0  0  0  0  0  0  0  0  0  0
    9.3827  -16.2424   24.4522 C   0  0  0  0  0  0  0  0  0  0  0  0
    9.2958  -17.5196   24.4951 O   0  0  0  0  0  0  0  0  0  0  0  0
    9.9185  -13.5365   27.4669 C   0  0  0  0  0  0  0  0  0  0  0  0
   10.4373  -14.7033   28.3142 C   0  0  2  0  0  0  0  0  0  0  0  0
   11.0479  -14.1175   29.5593 C   0  0  0  0  0  0  0  0  0  0  0  0
   11.3950  -15.5452   27.5324 C   0  0  0  0  0  0  0  0  0  0  0  0
   10.6261  -16.4795   26.6153 C   0  0  2  0  0  0  0  0  0  0  0  0
    9.9043  -15.6445   25.6233 N   0  0  0  0  0  0  0  0  0  0  0  0
    9.6308  -17.2264   27.3704 C   0  0  0  0  0  0  0  0  0  0  0  0
    8.2499  -17.0278   27.1691 O   0  0  0  0  0  0  0  0  0  0  0  0
    9.9907  -18.0819   28.2416 O   0  0  0  0  0  0  0  0  0  0  0  0
  2  1  1  1
  2  3  1  0
  4  2  1  0
  4  5  2  0
  6  4  1  0
  7  6  1  0
  7  8  1  1
  8  9  1  0
  9 14  2  0
 10  9  1  0
 10 11  2  0
 11 12  1  0
 12 13  2  0
 14 13  1  0
 15  7  1  0
 16 15  2  0
 18 19  1  1
 18 17  1  0
 20 18  1  0
 21 20  1  1
 21 22  1  0
 22 15  1  0
 23 21  1  0
 24 23  1  0
 25 23  2  0
M  END
$$$$
