AFL.pdb
     RDKit          3D

 25 25  0  0  1  0  0  0  0  0999 V2000
   11.4766  -18.8680   21.0592 C   0  0  0  0  0  0  0  0  0  0  0  0
   10.8690  -17.5904   20.5002 C   0  0  2  0  0  0  0  0  0  0  0  0
   11.8387  -17.0115   19.5943 N   0  0  0  0  0  0  0  0  0  0  0  0
   10.6190  -16.6760   21.6494 C   0  0  0  0  0  0  0  0  0  0  0  0
   11.5846  -15.8967   21.9586 O   0  0  0  0  0  0  0  0  0  0  0  0
    9.4053  -16.6606   22.3568 N   0  0  0  0  0  0  0  0  0  0  0  0
    9.1449  -15.6921   23.4466 C   0  0  1  0  0  0  0  0  0  0  0  0
    7.6883  -15.4039   23.4379 C   0  0  0  0  0  0  0  0  0  0  0  0
    7.1880  -14.4442   24.3825 C   0  0  0  0  0  0  0  0  0  0  0  0
    6.4679  -14.7728   25.5061 C   0  0  0  0  0  0  0  0  0  0  0  0
    6.0053  -13.7717   26.3710 C   0  0  0  0  0  0  0  0  0  0  0  0
    6.2521  -12.4489   26.1295 C   0  0  0  0  0  0  0  0  0  0  0  0
    6.9717  -12.1033   25.0097 C   0  0  0  0  0  0  0  0  0  0  0  0
    7.4149  -13.0963   24.1767 C   0  0  0  0  0  0  0  0  0  0  0  0
    9.5615  -16.3354   24.6966 C   0  0  0  0  0  0  0  0  0  0  0  0
    9.7073  -17.6079   24.6856 O   0  0  0  0  0  0  0  0  0  0  0  0
   11.4511  -13.4425   28.9588 C   0  0  0  0  0  0  0  0  0  0  0  0
   10.7687  -14.2332   27.8374 C   0  0  2  0  0  0  0  0  0  0  0  0
    9.5439  -13.4612   27.4246 C   0  0  0  0  0  0  0  0  0  0  0  0
   10.4601  -15.6281   28.2804 C   0  0  0  0  0  0  0  0  0  0  0  0
   10.3425  -16.5366   27.0697 C   0  0  2  0  0  0  0  0  0  0  0  0
    9.8373  -15.7183   25.9393 N   0  0  0  0  0  0  0  0  0  0  0  0
    9.3711  -17.5914   27.3191 C   0  0  0  0  0  0  0  0  0  0  0  0
    8.1026  -17.5869   26.7044 O   0  0  0  0  0  0  0  0  0  0  0  0
    9.6483  -18.5495   28.1102 O   0  0  0  0  0  0  0  0  0  0  0  0
  2  1  1  1
  2  3  1  0
  4  2  1  0
  4  5  2  0
  6  4  1  0
  7  6  1  0
  7  8  1  1
  8  9  1  0
  9 14  2  0
 10  9  1  0
 10 11  2  0
 11 12  1  0
 12 13  2  0
 14 13  1  0
 15  7  1  0
 16 15  2  0
 18 19  1  1
 18 17  1  0
 20 18  1  0
 21 20  1  1
 21 22  1  0
 22 15  1  0
 23 21  1  0
 24 23  1  0
 25 23  2  0
M  END
$$$$
