AFL.pdb
     RDKit          3D

 25 25  0  0  1  0  0  0  0  0999 V2000
    6.1634  -20.5935   22.6021 C   0  0  0  0  0  0  0  0  0  0  0  0
    5.1277  -19.8666   23.4465 C   0  0  2  0  0  0  0  0  0  0  0  0
    3.8468  -20.0259   22.7905 N   0  0  0  0  0  0  0  0  0  0  0  0
    5.5163  -18.4291   23.4883 C   0  0  0  0  0  0  0  0  0  0  0  0
    5.2407  -17.7491   22.4410 O   0  0  0  0  0  0  0  0  0  0  0  0
    6.1457  -17.8453   24.6004 N   0  0  0  0  0  0  0  0  0  0  0  0
    6.4835  -16.4040   24.6434 C   0  0  1  0  0  0  0  0  0  0  0  0
    6.6954  -16.0459   26.0687 C   0  0  0  0  0  0  0  0  0  0  0  0
    6.9334  -14.6652   26.3861 C   0  0  0  0  0  0  0  0  0  0  0  0
    5.9624  -13.6926   26.3689 C   0  0  0  0  0  0  0  0  0  0  0  0
    6.2824  -12.3642   26.6803 C   0  0  0  0  0  0  0  0  0  0  0  0
    7.5570  -11.9945   27.0086 C   0  0  0  0  0  0  0  0  0  0  0  0
    8.5403  -12.9557   27.0309 C   0  0  0  0  0  0  0  0  0  0  0  0
    8.2075  -14.2484   26.7232 C   0  0  0  0  0  0  0  0  0  0  0  0
    7.7069  -16.2295   23.8542 C   0  0  0  0  0  0  0  0  0  0  0  0
    8.5147  -17.2215   23.7904 O   0  0  0  0  0  0  0  0  0  0  0  0
    7.4059  -14.5438   19.9130 C   0  0  0  0  0  0  0  0  0  0  0  0
    7.9352  -13.5108   20.9135 C   0  0  2  0  0  0  0  0  0  0  0  0
    7.8933  -12.1670   20.2361 C   0  0  0  0  0  0  0  0  0  0  0  0
    9.3026  -13.8835   21.3913 C   0  0  0  0  0  0  0  0  0  0  0  0
    9.2377  -15.1886   22.1646 C   0  0  2  0  0  0  0  0  0  0  0  0
    8.1164  -15.0846   23.1311 N   0  0  0  0  0  0  0  0  0  0  0  0
   10.4608  -15.3875   22.9281 C   0  0  0  0  0  0  0  0  0  0  0  0
   11.6845  -15.6881   22.2963 O   0  0  0  0  0  0  0  0  0  0  0  0
   10.4502  -15.2973   24.1978 O   0  0  0  0  0  0  0  0  0  0  0  0
  2  1  1  6
  2  3  1  0
  4  2  1  0
  4  5  2  0
  6  4  1  0
  7  6  1  0
  7  8  1  1
  8  9  1  0
  9 14  2  0
 10  9  1  0
 10 11  2  0
 11 12  1  0
 12 13  2  0
 14 13  1  0
 15  7  1  0
 16 15  2  0
 18 19  1  6
 18 17  1  0
 20 18  1  0
 21 20  1  1
 21 22  1  0
 22 15  1  0
 23 21  1  0
 24 23  1  0
 25 23  2  0
M  END
$$$$
