AFL.pdb
     RDKit          3D

 25 25  0  0  1  0  0  0  0  0999 V2000
   11.2878  -18.8357   21.0880 C   0  0  0  0  0  0  0  0  0  0  0  0
   10.6981  -17.5251   20.5895 C   0  0  2  0  0  0  0  0  0  0  0  0
   11.6677  -16.9276   19.6956 N   0  0  0  0  0  0  0  0  0  0  0  0
   10.4795  -16.6542   21.7781 C   0  0  0  0  0  0  0  0  0  0  0  0
   11.4773  -15.9367   22.1313 O   0  0  0  0  0  0  0  0  0  0  0  0
    9.2606  -16.6141   22.4756 N   0  0  0  0  0  0  0  0  0  0  0  0
    9.0317  -15.6799   23.6018 C   0  0  1  0  0  0  0  0  0  0  0  0
    7.5844  -15.3486   23.6091 C   0  0  0  0  0  0  0  0  0  0  0  0
    7.1148  -14.4116   24.5915 C   0  0  0  0  0  0  0  0  0  0  0  0
    6.2936  -14.7441   25.6423 C   0  0  0  0  0  0  0  0  0  0  0  0
    5.8708  -13.7642   26.5506 C   0  0  0  0  0  0  0  0  0  0  0  0
    6.2568  -12.4588   26.4244 C   0  0  0  0  0  0  0  0  0  0  0  0
    7.0789  -12.1096   25.3787 C   0  0  0  0  0  0  0  0  0  0  0  0
    7.4810  -13.0817   24.5014 C   0  0  0  0  0  0  0  0  0  0  0  0
    9.4321  -16.3817   24.8253 C   0  0  0  0  0  0  0  0  0  0  0  0
    9.5236  -17.6581   24.7707 O   0  0  0  0  0  0  0  0  0  0  0  0
   11.1134  -13.7139   27.2192 C   0  0  0  0  0  0  0  0  0  0  0  0
   10.0754  -14.4164   28.1009 C   0  0  2  0  0  0  0  0  0  0  0  0
    9.9036  -13.5833   29.3431 C   0  0  0  0  0  0  0  0  0  0  0  0
   10.4887  -15.8240   28.3922 C   0  0  0  0  0  0  0  0  0  0  0  0
   10.3622  -16.6663   27.1353 C   0  0  2  0  0  0  0  0  0  0  0  0
    9.7454  -15.8186   26.0848 N   0  0  0  0  0  0  0  0  0  0  0  0
    9.4740  -17.7956   27.3683 C   0  0  0  0  0  0  0  0  0  0  0  0
    8.1731  -17.8353   26.8272 O   0  0  0  0  0  0  0  0  0  0  0  0
    9.8563  -18.7811   28.0777 O   0  0  0  0  0  0  0  0  0  0  0  0
  2  1  1  1
  2  3  1  0
  4  2  1  0
  4  5  2  0
  6  4  1  0
  7  6  1  0
  7  8  1  1
  8  9  1  0
  9 14  2  0
 10  9  1  0
 10 11  2  0
 11 12  1  0
 12 13  2  0
 14 13  1  0
 15  7  1  0
 16 15  2  0
 18 19  1  1
 18 17  1  0
 20 18  1  0
 21 20  1  1
 21 22  1  0
 22 15  1  0
 23 21  1  0
 24 23  1  0
 25 23  2  0
M  END
$$$$
