AFL.pdb
     RDKit          3D

 25 25  0  0  1  0  0  0  0  0999 V2000
    9.5025  -18.7501   21.0934 C   0  0  0  0  0  0  0  0  0  0  0  0
    8.9984  -17.3712   20.6953 C   0  0  2  0  0  0  0  0  0  0  0  0
    9.7521  -16.9554   19.5312 N   0  0  0  0  0  0  0  0  0  0  0  0
    9.2593  -16.4540   21.8398 C   0  0  0  0  0  0  0  0  0  0  0  0
   10.4272  -15.9347   21.8796 O   0  0  0  0  0  0  0  0  0  0  0  0
    8.2933  -16.1690   22.8193 N   0  0  0  0  0  0  0  0  0  0  0  0
    8.5284  -15.1674   23.8846 C   0  0  1  0  0  0  0  0  0  0  0  0
    7.1987  -14.6695   24.3190 C   0  0  0  0  0  0  0  0  0  0  0  0
    7.1551  -13.7326   25.4072 C   0  0  0  0  0  0  0  0  0  0  0  0
    7.0321  -14.0917   26.7281 C   0  0  0  0  0  0  0  0  0  0  0  0
    6.9849  -13.1118   27.7289 C   0  0  0  0  0  0  0  0  0  0  0  0
    7.0591  -11.7800   27.4289 C   0  0  0  0  0  0  0  0  0  0  0  0
    7.1828  -11.4039   26.1118 C   0  0  0  0  0  0  0  0  0  0  0  0
    7.2269  -12.3766   25.1484 C   0  0  0  0  0  0  0  0  0  0  0  0
    9.2289  -15.8583   24.9718 C   0  0  0  0  0  0  0  0  0  0  0  0
    8.7954  -17.0144   25.3124 O   0  0  0  0  0  0  0  0  0  0  0  0
   13.3273  -17.6194   24.6081 C   0  0  0  0  0  0  0  0  0  0  0  0
   12.8267  -16.2330   25.0272 C   0  0  2  0  0  0  0  0  0  0  0  0
   13.8848  -15.2361   24.6357 C   0  0  0  0  0  0  0  0  0  0  0  0
   12.5040  -16.2018   26.4873 C   0  0  0  0  0  0  0  0  0  0  0  0
   11.0025  -16.3132   26.6832 C   0  0  2  0  0  0  0  0  0  0  0  0
   10.3517  -15.4070   25.7045 N   0  0  0  0  0  0  0  0  0  0  0  0
   10.6298  -15.8631   28.0163 C   0  0  0  0  0  0  0  0  0  0  0  0
    9.9048  -14.6711   28.2170 O   0  0  0  0  0  0  0  0  0  0  0  0
   10.9583  -16.5424   29.0416 O   0  0  0  0  0  0  0  0  0  0  0  0
  2  1  1  1
  2  3  1  0
  4  2  1  0
  4  5  2  0
  6  4  1  0
  7  6  1  0
  7  8  1  1
  8  9  1  0
  9 14  2  0
 10  9  1  0
 10 11  2  0
 11 12  1  0
 12 13  2  0
 14 13  1  0
 15  7  1  0
 16 15  2  0
 18 19  1  1
 18 17  1  0
 20 18  1  0
 21 20  1  1
 21 22  1  0
 22 15  1  0
 23 21  1  0
 24 23  1  0
 25 23  2  0
M  END
$$$$
