AFL.pdb
     RDKit          3D

 25 25  0  0  1  0  0  0  0  0999 V2000
   10.4226  -19.9636   21.9294 C   0  0  0  0  0  0  0  0  0  0  0  0
    9.6520  -18.9035   21.1570 C   0  0  2  0  0  0  0  0  0  0  0  0
   10.2952  -18.7551   19.8684 N   0  0  0  0  0  0  0  0  0  0  0  0
    9.7406  -17.6348   21.9326 C   0  0  0  0  0  0  0  0  0  0  0  0
   10.7690  -16.9118   21.6982 O   0  0  0  0  0  0  0  0  0  0  0  0
    8.7642  -17.2455   22.8647 N   0  0  0  0  0  0  0  0  0  0  0  0
    8.8270  -15.9442   23.5691 C   0  0  1  0  0  0  0  0  0  0  0  0
    7.4488  -15.6219   24.0178 C   0  0  0  0  0  0  0  0  0  0  0  0
    7.2272  -14.3485   24.6448 C   0  0  0  0  0  0  0  0  0  0  0  0
    7.6937  -13.1545   24.1491 C   0  0  0  0  0  0  0  0  0  0  0  0
    7.4430  -11.9561   24.8312 C   0  0  0  0  0  0  0  0  0  0  0  0
    6.7334  -11.9340   25.9995 C   0  0  0  0  0  0  0  0  0  0  0  0
    6.2593  -13.1202   26.5088 C   0  0  0  0  0  0  0  0  0  0  0  0
    6.5150  -14.2808   25.8276 C   0  0  0  0  0  0  0  0  0  0  0  0
    9.7386  -16.1181   24.7044 C   0  0  0  0  0  0  0  0  0  0  0  0
   10.9716  -15.8228   24.5220 O   0  0  0  0  0  0  0  0  0  0  0  0
   10.8286  -13.6833   27.3214 C   0  0  0  0  0  0  0  0  0  0  0  0
    9.6137  -14.4699   27.8251 C   0  0  2  0  0  0  0  0  0  0  0  0
    8.9907  -13.6700   28.9380 C   0  0  0  0  0  0  0  0  0  0  0  0
   10.0092  -15.8496   28.2458 C   0  0  0  0  0  0  0  0  0  0  0  0
   10.4891  -16.6361   27.0390 C   0  0  2  0  0  0  0  0  0  0  0  0
    9.4246  -16.5722   26.0069 N   0  0  0  0  0  0  0  0  0  0  0  0
   10.6806  -18.0359   27.3888 C   0  0  0  0  0  0  0  0  0  0  0  0
    9.7969  -19.0370   26.9373 O   0  0  0  0  0  0  0  0  0  0  0  0
   11.6595  -18.3893   28.1219 O   0  0  0  0  0  0  0  0  0  0  0  0
  2  1  1  1
  2  3  1  0
  4  2  1  0
  4  5  2  0
  6  4  1  0
  7  6  1  0
  7  8  1  1
  8  9  1  0
  9 14  2  0
 10  9  1  0
 10 11  2  0
 11 12  1  0
 12 13  2  0
 14 13  1  0
 15  7  1  0
 16 15  2  0
 18 19  1  1
 18 17  1  0
 20 18  1  0
 21 20  1  1
 21 22  1  0
 22 15  1  0
 23 21  1  0
 24 23  1  0
 25 23  2  0
M  END
$$$$
