AFL.pdb
     RDKit          3D

 25 25  0  0  1  0  0  0  0  0999 V2000
   10.8716  -19.8532   21.8915 C   0  0  0  0  0  0  0  0  0  0  0  0
   10.0616  -18.8680   21.0624 C   0  0  2  0  0  0  0  0  0  0  0  0
   10.5543  -18.9401   19.7029 N   0  0  0  0  0  0  0  0  0  0  0  0
   10.2952  -17.5106   21.6299 C   0  0  0  0  0  0  0  0  0  0  0  0
   11.3616  -16.9222   21.2400 O   0  0  0  0  0  0  0  0  0  0  0  0
    9.4092  -16.9041   22.5359 N   0  0  0  0  0  0  0  0  0  0  0  0
    9.7024  -15.5944   23.1621 C   0  0  1  0  0  0  0  0  0  0  0  0
    8.4226  -14.8446   23.2295 C   0  0  0  0  0  0  0  0  0  0  0  0
    7.9023  -14.2932   22.0092 C   0  0  0  0  0  0  0  0  0  0  0  0
    8.2830  -13.0794   21.4887 C   0  0  0  0  0  0  0  0  0  0  0  0
    7.7157  -12.6086   20.2968 C   0  0  0  0  0  0  0  0  0  0  0  0
    6.7751  -13.3326   19.6185 C   0  0  0  0  0  0  0  0  0  0  0  0
    6.3835  -14.5495   20.1257 C   0  0  0  0  0  0  0  0  0  0  0  0
    6.9495  -14.9921   21.2919 C   0  0  0  0  0  0  0  0  0  0  0  0
   10.2377  -15.8718   24.4987 C   0  0  0  0  0  0  0  0  0  0  0  0
   11.4844  -15.6510   24.6929 O   0  0  0  0  0  0  0  0  0  0  0  0
   10.9703  -13.5191   28.1661 C   0  0  0  0  0  0  0  0  0  0  0  0
    9.6669  -13.9913   27.5129 C   0  0  2  0  0  0  0  0  0  0  0  0
    8.5775  -13.0496   27.9524 C   0  0  0  0  0  0  0  0  0  0  0  0
    9.3832  -15.4181   27.8600 C   0  0  0  0  0  0  0  0  0  0  0  0
   10.1931  -16.3355   26.9614 C   0  0  2  0  0  0  0  0  0  0  0  0
    9.5386  -16.3551   25.6296 N   0  0  0  0  0  0  0  0  0  0  0  0
   10.1790  -17.6956   27.4796 C   0  0  0  0  0  0  0  0  0  0  0  0
   11.0526  -18.1026   28.5082 O   0  0  0  0  0  0  0  0  0  0  0  0
    9.3707  -18.5576   27.0062 O   0  0  0  0  0  0  0  0  0  0  0  0
  2  1  1  1
  2  3  1  0
  4  2  1  0
  4  5  2  0
  6  4  1  0
  7  6  1  0
  7  8  1  1
  8  9  1  0
  9 14  2  0
 10  9  1  0
 10 11  2  0
 11 12  1  0
 12 13  2  0
 14 13  1  0
 15  7  1  0
 16 15  2  0
 18 19  1  1
 18 17  1  0
 20 18  1  0
 21 20  1  1
 21 22  1  0
 22 15  1  0
 23 21  1  0
 24 23  1  0
 25 23  2  0
M  END
$$$$
