AFL.pdb
     RDKit          3D

 25 25  0  0  1  0  0  0  0  0999 V2000
   11.6438  -18.8959   21.1394 C   0  0  0  0  0  0  0  0  0  0  0  0
   11.0139  -17.6062   20.6356 C   0  0  2  0  0  0  0  0  0  0  0  0
   11.9787  -16.9648   19.7674 N   0  0  0  0  0  0  0  0  0  0  0  0
   10.7345  -16.7529   21.8243 C   0  0  0  0  0  0  0  0  0  0  0  0
   11.7014  -16.0132   22.2159 O   0  0  0  0  0  0  0  0  0  0  0  0
    9.4933  -16.7511   22.4823 N   0  0  0  0  0  0  0  0  0  0  0  0
    9.1922  -15.8111   23.5864 C   0  0  1  0  0  0  0  0  0  0  0  0
    7.7278  -15.5665   23.5667 C   0  0  0  0  0  0  0  0  0  0  0  0
    7.2003  -14.5751   24.4626 C   0  0  0  0  0  0  0  0  0  0  0  0
    6.4651  -14.8662   25.5867 C   0  0  0  0  0  0  0  0  0  0  0  0
    5.9762  -13.8362   26.4018 C   0  0  0  0  0  0  0  0  0  0  0  0
    6.2118  -12.5215   26.1101 C   0  0  0  0  0  0  0  0  0  0  0  0
    6.9462  -12.2133   24.9890 C   0  0  0  0  0  0  0  0  0  0  0  0
    7.4150  -13.2341   24.2051 C   0  0  0  0  0  0  0  0  0  0  0  0
    9.6148  -16.4644   24.8292 C   0  0  0  0  0  0  0  0  0  0  0  0
    9.7832  -17.7339   24.8010 O   0  0  0  0  0  0  0  0  0  0  0  0
   11.6243  -13.8826   27.2066 C   0  0  0  0  0  0  0  0  0  0  0  0
   10.3993  -14.3487   28.0006 C   0  0  2  0  0  0  0  0  0  0  0  0
   10.2394  -13.4137   29.1697 C   0  0  0  0  0  0  0  0  0  0  0  0
   10.5427  -15.7799   28.4105 C   0  0  0  0  0  0  0  0  0  0  0  0
   10.4260  -16.6769   27.1911 C   0  0  2  0  0  0  0  0  0  0  0  0
    9.8741  -15.8601   26.0817 N   0  0  0  0  0  0  0  0  0  0  0  0
    9.4906  -17.7623   27.4471 C   0  0  0  0  0  0  0  0  0  0  0  0
    8.2362  -17.8218   26.8070 O   0  0  0  0  0  0  0  0  0  0  0  0
    9.7874  -18.6894   28.2674 O   0  0  0  0  0  0  0  0  0  0  0  0
  2  1  1  1
  2  3  1  0
  4  2  1  0
  4  5  2  0
  6  4  1  0
  7  6  1  0
  7  8  1  1
  8  9  1  0
  9 14  2  0
 10  9  1  0
 10 11  2  0
 11 12  1  0
 12 13  2  0
 14 13  1  0
 15  7  1  0
 16 15  2  0
 18 19  1  1
 18 17  1  0
 20 18  1  0
 21 20  1  1
 21 22  1  0
 22 15  1  0
 23 21  1  0
 24 23  1  0
 25 23  2  0
M  END
$$$$
