AFL.pdb
     RDKit          3D

 25 25  0  0  1  0  0  0  0  0999 V2000
   10.9268  -16.5689   19.3292 C   0  0  0  0  0  0  0  0  0  0  0  0
   10.7506  -17.5038   20.5162 C   0  0  2  0  0  0  0  0  0  0  0  0
    9.5809  -18.3164   20.2560 N   0  0  0  0  0  0  0  0  0  0  0  0
   10.5385  -16.6566   21.7229 C   0  0  0  0  0  0  0  0  0  0  0  0
   11.5287  -15.9245   22.0680 O   0  0  0  0  0  0  0  0  0  0  0  0
    9.3333  -16.6524   22.4448 N   0  0  0  0  0  0  0  0  0  0  0  0
    9.0999  -15.7254   23.5760 C   0  0  1  0  0  0  0  0  0  0  0  0
    7.6522  -15.3955   23.5806 C   0  0  0  0  0  0  0  0  0  0  0  0
    7.1816  -14.4512   24.5556 C   0  0  0  0  0  0  0  0  0  0  0  0
    6.3330  -14.7694   25.5889 C   0  0  0  0  0  0  0  0  0  0  0  0
    5.9115  -13.7830   26.4909 C   0  0  0  0  0  0  0  0  0  0  0  0
    6.3257  -12.4853   26.3754 C   0  0  0  0  0  0  0  0  0  0  0  0
    7.1754  -12.1504   25.3471 C   0  0  0  0  0  0  0  0  0  0  0  0
    7.5758  -13.1287   24.4759 C   0  0  0  0  0  0  0  0  0  0  0  0
    9.4969  -16.4343   24.7966 C   0  0  0  0  0  0  0  0  0  0  0  0
    9.7060  -17.6948   24.7056 O   0  0  0  0  0  0  0  0  0  0  0  0
   10.3081  -13.6305   27.2246 C   0  0  0  0  0  0  0  0  0  0  0  0
    9.6739  -14.6072   28.2208 C   0  0  2  0  0  0  0  0  0  0  0  0
    9.4807  -13.8652   29.5164 C   0  0  0  0  0  0  0  0  0  0  0  0
   10.5128  -15.8366   28.3692 C   0  0  0  0  0  0  0  0  0  0  0  0
   10.3855  -16.6978   27.1253 C   0  0  2  0  0  0  0  0  0  0  0  0
    9.6912  -15.8934   26.0892 N   0  0  0  0  0  0  0  0  0  0  0  0
    9.5638  -17.8674   27.3995 C   0  0  0  0  0  0  0  0  0  0  0  0
   10.0155  -18.9067   28.2376 O   0  0  0  0  0  0  0  0  0  0  0  0
    8.4076  -17.9796   26.8785 O   0  0  0  0  0  0  0  0  0  0  0  0
  2  1  1  6
  2  3  1  0
  4  2  1  0
  4  5  2  0
  6  4  1  0
  7  6  1  0
  7  8  1  1
  8  9  1  0
  9 14  2  0
 10  9  1  0
 10 11  2  0
 11 12  1  0
 12 13  2  0
 14 13  1  0
 15  7  1  0
 16 15  2  0
 18 19  1  1
 18 17  1  0
 20 18  1  0
 21 20  1  1
 21 22  1  0
 22 15  1  0
 23 21  1  0
 24 23  1  0
 25 23  2  0
M  END
$$$$
