MFK.pdb
     RDKit          3D

 29 29  0  0  1  0  0  0  0  0999 V2000
    5.6078  -20.1285   19.7782 C   0  0  0  0  0  0  0  0  0  0  0  0
    7.3017  -20.5834   19.3134 S   0  0  0  0  0  0  0  0  0  0  0  0
    8.2357  -19.0741   18.9429 C   0  0  0  0  0  0  0  0  0  0  0  0
    8.4896  -18.2835   20.2088 C   0  0  0  0  0  0  0  0  0  0  0  0
    8.6609  -16.8162   19.9470 C   0  0  2  0  0  0  0  0  0  0  0  0
    9.7530  -16.5810   19.0352 N   0  0  0  0  0  0  0  0  0  0  0  0
    8.9388  -16.0900   21.2237 C   0  0  0  0  0  0  0  0  0  0  0  0
   10.1219  -16.0571   21.6319 O   0  0  0  0  0  0  0  0  0  0  0  0
    7.9231  -15.4515   21.9694 N   0  0  0  0  0  0  0  0  0  0  0  0
    8.1241  -14.8450   23.2518 C   0  0  1  0  0  0  0  0  0  0  0  0
    7.0886  -13.8512   23.6269 C   0  0  0  0  0  0  0  0  0  0  0  0
    7.1579  -13.2560   24.9362 C   0  0  0  0  0  0  0  0  0  0  0  0
    7.9942  -12.2093   25.2554 C   0  0  0  0  0  0  0  0  0  0  0  0
    8.0648  -11.6426   26.4931 C   0  0  0  0  0  0  0  0  0  0  0  0
    7.2779  -12.1094   27.5043 C   0  0  0  0  0  0  0  0  0  0  0  0
    6.4216  -13.1576   27.2371 C   0  0  0  0  0  0  0  0  0  0  0  0
    6.3671  -13.7205   25.9645 C   0  0  0  0  0  0  0  0  0  0  0  0
    8.4831  -15.8583   24.2305 C   0  0  0  0  0  0  0  0  0  0  0  0
    7.6691  -16.8018   24.4190 O   0  0  0  0  0  0  0  0  0  0  0  0
    9.6734  -15.8883   24.9997 N   0  0  0  0  0  0  0  0  0  0  0  0
    9.9300  -17.0313   25.8838 C   0  0  1  0  0  0  0  0  0  0  0  0
   11.2533  -17.6604   25.4939 C   0  0  0  0  0  0  0  0  0  0  0  0
   11.2744  -18.3050   24.1625 C   0  0  0  0  0  0  0  0  0  0  0  0
   12.5858  -18.9068   23.7643 C   0  0  0  0  0  0  0  0  0  0  0  0
   12.5875  -19.4964   22.3843 C   0  0  0  0  0  0  0  0  0  0  0  0
   13.9305  -19.9763   22.1039 N   0  0  0  0  0  0  0  0  0  0  0  0
    9.9960  -16.5671   27.2726 C   0  0  0  0  0  0  0  0  0  0  0  0
    9.8211  -15.2450   27.6643 O   0  0  0  0  0  0  0  0  0  0  0  0
   10.2274  -17.4111   28.1881 O   0  0  0  0  0  0  0  0  0  0  0  0
  2  1  1  0
  3  2  1  0
  4  3  1  0
  5  4  1  0
  5  6  1  6
  7  5  1  0
  7  8  2  0
  9  7  1  0
 10  9  1  0
 10 11  1  1
 12 11  1  0
 12 13  2  0
 14 13  1  0
 15 14  2  0
 16 15  1  0
 16 17  2  0
 17 12  1  0
 18 20  1  0
 18 10  1  0
 19 18  2  0
 21 20  1  0
 21 27  1  0
 21 22  1  6
 23 22  1  0
 24 25  1  0
 24 23  1  0
 25 26  1  0
 27 29  2  0
 27 28  1  0
M  END
$$$$
