MFK.pdb
     RDKit          3D

 29 29  0  0  1  0  0  0  0  0999 V2000
    8.0992  -20.8096   21.1756 C   0  0  0  0  0  0  0  0  0  0  0  0
    7.6872  -20.4625   19.4430 S   0  0  0  0  0  0  0  0  0  0  0  0
    8.1304  -18.7454   19.0653 C   0  0  0  0  0  0  0  0  0  0  0  0
    8.6265  -18.0399   20.3095 C   0  0  0  0  0  0  0  0  0  0  0  0
    8.8958  -16.5824   20.0767 C   0  0  2  0  0  0  0  0  0  0  0  0
   10.0694  -16.4009   19.2587 N   0  0  0  0  0  0  0  0  0  0  0  0
    9.1066  -15.8789   21.3787 C   0  0  0  0  0  0  0  0  0  0  0  0
   10.2580  -15.8912   21.8700 O   0  0  0  0  0  0  0  0  0  0  0  0
    8.0627  -15.2127   22.0583 N   0  0  0  0  0  0  0  0  0  0  0  0
    8.1909  -14.6309   23.3613 C   0  0  1  0  0  0  0  0  0  0  0  0
    7.1420  -13.6352   23.6918 C   0  0  0  0  0  0  0  0  0  0  0  0
    7.0961  -13.1136   25.0332 C   0  0  0  0  0  0  0  0  0  0  0  0
    6.1694  -13.5063   25.9734 C   0  0  0  0  0  0  0  0  0  0  0  0
    6.1205  -13.0154   27.2441 C   0  0  0  0  0  0  0  0  0  0  0  0
    7.0242  -12.0782   27.6498 C   0  0  0  0  0  0  0  0  0  0  0  0
    7.9744  -11.6503   26.7458 C   0  0  0  0  0  0  0  0  0  0  0  0
    8.0045  -12.1665   25.4527 C   0  0  0  0  0  0  0  0  0  0  0  0
    8.4831  -15.6644   24.3410 C   0  0  0  0  0  0  0  0  0  0  0  0
    7.6305  -16.5794   24.4959 O   0  0  0  0  0  0  0  0  0  0  0  0
    9.6473  -15.7435   25.1458 N   0  0  0  0  0  0  0  0  0  0  0  0
    9.8454  -16.9120   26.0114 C   0  0  1  0  0  0  0  0  0  0  0  0
   10.7427  -17.9019   25.2944 C   0  0  0  0  0  0  0  0  0  0  0  0
   12.1204  -17.4288   25.0366 C   0  0  0  0  0  0  0  0  0  0  0  0
   13.0017  -18.3939   24.3069 C   0  0  0  0  0  0  0  0  0  0  0  0
   14.3708  -17.8570   24.0080 C   0  0  0  0  0  0  0  0  0  0  0  0
   15.1339  -18.9112   23.3609 N   0  0  0  0  0  0  0  0  0  0  0  0
   10.4808  -16.4887   27.2627 C   0  0  0  0  0  0  0  0  0  0  0  0
   10.8178  -15.1739   27.5627 O   0  0  0  0  0  0  0  0  0  0  0  0
   10.7482  -17.3637   28.1383 O   0  0  0  0  0  0  0  0  0  0  0  0
  2  1  1  0
  3  2  1  0
  4  3  1  0
  5  4  1  0
  5  6  1  6
  7  5  1  0
  7  8  2  0
  9  7  1  0
 10  9  1  0
 10 11  1  1
 12 11  1  0
 12 13  2  0
 14 13  1  0
 15 14  2  0
 16 15  1  0
 16 17  2  0
 17 12  1  0
 18 20  1  0
 18 10  1  0
 19 18  2  0
 21 20  1  0
 21 27  1  0
 21 22  1  6
 23 22  1  0
 24 25  1  0
 24 23  1  0
 25 26  1  0
 27 29  2  0
 27 28  1  0
M  END
$$$$
