MFK.pdb
     RDKit          3D

 29 29  0  0  1  0  0  0  0  0999 V2000
    7.9436  -22.7836   25.2483 C   0  0  0  0  0  0  0  0  0  0  0  0
    6.2839  -22.7101   25.9779 S   0  0  0  0  0  0  0  0  0  0  0  0
    5.4086  -21.2717   25.3055 C   0  0  0  0  0  0  0  0  0  0  0  0
    6.3931  -20.2035   24.8793 C   0  0  0  0  0  0  0  0  0  0  0  0
    5.7155  -18.9557   24.3947 C   0  0  2  0  0  0  0  0  0  0  0  0
    5.0176  -19.1978   23.1563 N   0  0  0  0  0  0  0  0  0  0  0  0
    6.7205  -17.8715   24.1735 C   0  0  0  0  0  0  0  0  0  0  0  0
    6.9716  -17.5393   22.9929 O   0  0  0  0  0  0  0  0  0  0  0  0
    7.3831  -17.2228   25.2392 N   0  0  0  0  0  0  0  0  0  0  0  0
    8.3707  -16.1986   25.0708 C   0  0  1  0  0  0  0  0  0  0  0  0
    8.4074  -15.1991   26.1663 C   0  0  0  0  0  0  0  0  0  0  0  0
    7.5693  -14.0336   26.0538 C   0  0  0  0  0  0  0  0  0  0  0  0
    7.9193  -12.9078   25.3419 C   0  0  0  0  0  0  0  0  0  0  0  0
    7.1306  -11.8014   25.2327 C   0  0  0  0  0  0  0  0  0  0  0  0
    5.9150  -11.7654   25.8495 C   0  0  0  0  0  0  0  0  0  0  0  0
    5.5163  -12.8682   26.5762 C   0  0  0  0  0  0  0  0  0  0  0  0
    6.3396  -13.9873   26.6734 C   0  0  0  0  0  0  0  0  0  0  0  0
    9.6291  -16.7867   24.6417 C   0  0  0  0  0  0  0  0  0  0  0  0
   10.0697  -17.7668   25.3002 O   0  0  0  0  0  0  0  0  0  0  0  0
   10.4152  -16.3605   23.5419 N   0  0  0  0  0  0  0  0  0  0  0  0
   11.6131  -17.1248   23.1747 C   0  0  1  0  0  0  0  0  0  0  0  0
   12.0357  -16.7239   21.7748 C   0  0  0  0  0  0  0  0  0  0  0  0
   13.2477  -17.4025   21.2659 C   0  0  0  0  0  0  0  0  0  0  0  0
   13.6707  -17.0057   19.8860 C   0  0  0  0  0  0  0  0  0  0  0  0
   14.8428  -17.7842   19.3645 C   0  0  0  0  0  0  0  0  0  0  0  0
   15.2105  -17.2288   18.0726 N   0  0  0  0  0  0  0  0  0  0  0  0
   12.6919  -16.8225   24.1198 C   0  0  0  0  0  0  0  0  0  0  0  0
   13.7542  -17.6763   24.3929 O   0  0  0  0  0  0  0  0  0  0  0  0
   12.6707  -15.7171   24.7375 O   0  0  0  0  0  0  0  0  0  0  0  0
  2  1  1  0
  3  2  1  0
  4  3  1  0
  5  4  1  0
  5  6  1  6
  7  5  1  0
  7  8  2  0
  9  7  1  0
 10  9  1  0
 10 11  1  1
 12 11  1  0
 12 13  2  0
 14 13  1  0
 15 14  2  0
 16 15  1  0
 16 17  2  0
 17 12  1  0
 18 20  1  0
 18 10  1  0
 19 18  2  0
 21 20  1  0
 21 27  1  0
 21 22  1  6
 23 22  1  0
 24 25  1  0
 24 23  1  0
 25 26  1  0
 27 29  2  0
 27 28  1  0
M  END
$$$$
