MFK.pdb
     RDKit          3D

 29 29  0  0  1  0  0  0  0  0999 V2000
    7.8690  -12.0069   18.6168 C   0  0  0  0  0  0  0  0  0  0  0  0
    7.9269  -13.3075   17.3529 S   0  0  0  0  0  0  0  0  0  0  0  0
    8.2079  -14.9045   18.1643 C   0  0  0  0  0  0  0  0  0  0  0  0
    8.9875  -14.7169   19.4483 C   0  0  0  0  0  0  0  0  0  0  0  0
    9.2020  -16.0058   20.1856 C   0  0  2  0  0  0  0  0  0  0  0  0
    8.0697  -16.8841   20.0253 N   0  0  0  0  0  0  0  0  0  0  0  0
    9.4011  -15.7431   21.6437 C   0  0  0  0  0  0  0  0  0  0  0  0
   10.5750  -15.7165   22.0779 O   0  0  0  0  0  0  0  0  0  0  0  0
    8.3221  -15.5280   22.5297 N   0  0  0  0  0  0  0  0  0  0  0  0
    8.4654  -15.0633   23.8773 C   0  0  1  0  0  0  0  0  0  0  0  0
    7.4090  -14.1175   24.3132 C   0  0  0  0  0  0  0  0  0  0  0  0
    7.4654  -13.6054   25.6578 C   0  0  0  0  0  0  0  0  0  0  0  0
    8.5469  -12.9237   26.1701 C   0  0  0  0  0  0  0  0  0  0  0  0
    8.6064  -12.4376   27.4421 C   0  0  0  0  0  0  0  0  0  0  0  0
    7.5540  -12.6148   28.2912 C   0  0  0  0  0  0  0  0  0  0  0  0
    6.4451  -13.2917   27.8272 C   0  0  0  0  0  0  0  0  0  0  0  0
    6.4076  -13.7794   26.5233 C   0  0  0  0  0  0  0  0  0  0  0  0
    8.7893  -16.1758   24.7554 C   0  0  0  0  0  0  0  0  0  0  0  0
    8.0599  -17.2015   24.6910 O   0  0  0  0  0  0  0  0  0  0  0  0
    9.8584  -16.2188   25.6851 N   0  0  0  0  0  0  0  0  0  0  0  0
   10.1804  -17.4854   26.3530 C   0  0  1  0  0  0  0  0  0  0  0  0
   11.2967  -18.1688   25.5876 C   0  0  0  0  0  0  0  0  0  0  0  0
   11.7494  -19.4581   26.1544 C   0  0  0  0  0  0  0  0  0  0  0  0
   12.8323  -20.1491   25.3862 C   0  0  0  0  0  0  0  0  0  0  0  0
   13.2272  -21.4788   25.9588 C   0  0  0  0  0  0  0  0  0  0  0  0
   14.1497  -22.1105   25.0300 N   0  0  0  0  0  0  0  0  0  0  0  0
   10.6189  -17.2143   27.7251 C   0  0  0  0  0  0  0  0  0  0  0  0
   10.5767  -18.1440   28.7576 O   0  0  0  0  0  0  0  0  0  0  0  0
   11.0672  -16.0638   28.0069 O   0  0  0  0  0  0  0  0  0  0  0  0
  2  1  1  0
  3  2  1  0
  4  3  1  0
  5  4  1  0
  5  6  1  1
  7  5  1  0
  7  8  2  0
  9  7  1  0
 10  9  1  0
 10 11  1  1
 12 11  1  0
 12 13  2  0
 14 13  1  0
 15 14  2  0
 16 15  1  0
 16 17  2  0
 17 12  1  0
 18 20  1  0
 18 10  1  0
 19 18  2  0
 21 20  1  0
 21 27  1  0
 21 22  1  6
 23 22  1  0
 24 25  1  0
 24 23  1  0
 25 26  1  0
 27 29  2  0
 27 28  1  0
M  END
$$$$
