MFK.pdb
     RDKit          3D

 29 29  0  0  1  0  0  0  0  0999 V2000
    5.1875  -17.2537   19.8011 C   0  0  0  0  0  0  0  0  0  0  0  0
    5.5423  -15.5376   20.2714 S   0  0  0  0  0  0  0  0  0  0  0  0
    7.2964  -15.1945   19.9665 C   0  0  0  0  0  0  0  0  0  0  0  0
    7.9953  -14.8195   21.2559 C   0  0  0  0  0  0  0  0  0  0  0  0
    8.4369  -16.0187   22.0418 C   0  0  2  0  0  0  0  0  0  0  0  0
    7.3100  -16.8481   22.3904 N   0  0  0  0  0  0  0  0  0  0  0  0
    9.1236  -15.5916   23.2991 C   0  0  0  0  0  0  0  0  0  0  0  0
   10.2538  -15.0629   23.1971 O   0  0  0  0  0  0  0  0  0  0  0  0
    8.5443  -15.7645   24.5758 N   0  0  0  0  0  0  0  0  0  0  0  0
    9.1858  -15.4108   25.8071 C   0  0  1  0  0  0  0  0  0  0  0  0
    8.2717  -14.8546   26.8346 C   0  0  0  0  0  0  0  0  0  0  0  0
    7.6485  -13.5827   26.5754 C   0  0  0  0  0  0  0  0  0  0  0  0
    6.2846  -13.3940   26.5407 C   0  0  0  0  0  0  0  0  0  0  0  0
    5.6891  -12.1929   26.2950 C   0  0  0  0  0  0  0  0  0  0  0  0
    6.4521  -11.0864   26.0644 C   0  0  0  0  0  0  0  0  0  0  0  0
    7.8249  -11.2211   26.0879 C   0  0  0  0  0  0  0  0  0  0  0  0
    8.4105  -12.4590   26.3411 C   0  0  0  0  0  0  0  0  0  0  0  0
   10.1046  -16.4631   26.2095 C   0  0  0  0  0  0  0  0  0  0  0  0
   10.6540  -16.3577   27.3388 O   0  0  0  0  0  0  0  0  0  0  0  0
   10.4440  -17.6087   25.4468 N   0  0  0  0  0  0  0  0  0  0  0  0
   11.2942  -18.6450   26.0447 C   0  0  1  0  0  0  0  0  0  0  0  0
   10.8654  -19.9961   25.5064 C   0  0  0  0  0  0  0  0  0  0  0  0
   11.6598  -21.1462   25.9908 C   0  0  0  0  0  0  0  0  0  0  0  0
   11.3536  -22.4563   25.3347 C   0  0  0  0  0  0  0  0  0  0  0  0
   12.1401  -23.6087   25.8871 C   0  0  0  0  0  0  0  0  0  0  0  0
   11.6727  -24.8223   25.2380 N   0  0  0  0  0  0  0  0  0  0  0  0
   12.6929  -18.3936   25.6860 C   0  0  0  0  0  0  0  0  0  0  0  0
   13.7786  -18.7406   26.4816 O   0  0  0  0  0  0  0  0  0  0  0  0
   12.9479  -17.8236   24.5842 O   0  0  0  0  0  0  0  0  0  0  0  0
  2  1  1  0
  3  2  1  0
  4  3  1  0
  5  4  1  0
  5  6  1  1
  7  5  1  0
  7  8  2  0
  9  7  1  0
 10  9  1  0
 10 11  1  1
 12 11  1  0
 12 13  2  0
 14 13  1  0
 15 14  2  0
 16 15  1  0
 16 17  2  0
 17 12  1  0
 18 20  1  0
 18 10  1  0
 19 18  2  0
 21 20  1  0
 21 27  1  0
 21 22  1  6
 23 22  1  0
 24 25  1  0
 24 23  1  0
 25 26  1  0
 27 29  2  0
 27 28  1  0
M  END
$$$$
