MFK.pdb
     RDKit          3D

 29 29  0  0  1  0  0  0  0  0999 V2000
    8.1076  -12.0333   18.5385 C   0  0  0  0  0  0  0  0  0  0  0  0
    8.1548  -13.3747   17.3176 S   0  0  0  0  0  0  0  0  0  0  0  0
    8.2667  -14.9605   18.1895 C   0  0  0  0  0  0  0  0  0  0  0  0
    9.2512  -14.8671   19.3357 C   0  0  0  0  0  0  0  0  0  0  0  0
    9.2563  -16.0984   20.1928 C   0  0  2  0  0  0  0  0  0  0  0  0
    8.0095  -16.8130   20.0730 N   0  0  0  0  0  0  0  0  0  0  0  0
    9.4616  -15.7317   21.6273 C   0  0  0  0  0  0  0  0  0  0  0  0
   10.6243  -15.4531   21.9987 O   0  0  0  0  0  0  0  0  0  0  0  0
    8.4007  -15.6915   22.5591 N   0  0  0  0  0  0  0  0  0  0  0  0
    8.5057  -15.1411   23.8777 C   0  0  1  0  0  0  0  0  0  0  0  0
    7.4493  -14.1556   24.2144 C   0  0  0  0  0  0  0  0  0  0  0  0
    7.4564  -13.5720   25.5308 C   0  0  0  0  0  0  0  0  0  0  0  0
    8.4667  -12.7629   26.0015 C   0  0  0  0  0  0  0  0  0  0  0  0
    8.4793  -12.2086   27.2467 C   0  0  0  0  0  0  0  0  0  0  0  0
    7.4498  -12.4436   28.1096 C   0  0  0  0  0  0  0  0  0  0  0  0
    6.4118  -13.2482   27.6871 C   0  0  0  0  0  0  0  0  0  0  0  0
    6.4212  -13.8035   26.4100 C   0  0  0  0  0  0  0  0  0  0  0  0
    8.7837  -16.1974   24.8370 C   0  0  0  0  0  0  0  0  0  0  0  0
    7.9659  -17.1538   24.9051 O   0  0  0  0  0  0  0  0  0  0  0  0
    9.8983  -16.2565   25.7108 N   0  0  0  0  0  0  0  0  0  0  0  0
   10.0786  -17.4338   26.5684 C   0  0  1  0  0  0  0  0  0  0  0  0
   11.0616  -18.3757   25.9009 C   0  0  0  0  0  0  0  0  0  0  0  0
   11.4372  -19.5620   26.7010 C   0  0  0  0  0  0  0  0  0  0  0  0
   12.4306  -20.4785   26.0578 C   0  0  0  0  0  0  0  0  0  0  0  0
   12.8080  -21.6557   26.9085 C   0  0  0  0  0  0  0  0  0  0  0  0
   13.8945  -22.3576   26.2455 N   0  0  0  0  0  0  0  0  0  0  0  0
   10.6065  -17.0122   27.8691 C   0  0  0  0  0  0  0  0  0  0  0  0
   11.9496  -17.0677   28.2230 O   0  0  0  0  0  0  0  0  0  0  0  0
    9.8016  -16.5668   28.7395 O   0  0  0  0  0  0  0  0  0  0  0  0
  2  1  1  0
  3  2  1  0
  4  3  1  0
  5  4  1  0
  5  6  1  1
  7  5  1  0
  7  8  2  0
  9  7  1  0
 10  9  1  0
 10 11  1  1
 12 11  1  0
 12 13  2  0
 14 13  1  0
 15 14  2  0
 16 15  1  0
 16 17  2  0
 17 12  1  0
 18 20  1  0
 18 10  1  0
 19 18  2  0
 21 20  1  0
 21 27  1  0
 21 22  1  6
 23 22  1  0
 24 25  1  0
 24 23  1  0
 25 26  1  0
 27 29  2  0
 27 28  1  0
M  END
$$$$
