MFK.pdb
     RDKit          3D

 29 29  0  0  1  0  0  0  0  0999 V2000
    7.6714  -20.9177   20.9377 C   0  0  0  0  0  0  0  0  0  0  0  0
    7.2259  -20.4931   19.2309 S   0  0  0  0  0  0  0  0  0  0  0  0
    7.7516  -18.7915   18.8913 C   0  0  0  0  0  0  0  0  0  0  0  0
    8.1680  -18.0997   20.1719 C   0  0  0  0  0  0  0  0  0  0  0  0
    8.5720  -16.6719   19.9503 C   0  0  2  0  0  0  0  0  0  0  0  0
    9.7407  -16.5931   19.1092 N   0  0  0  0  0  0  0  0  0  0  0  0
    8.8765  -16.0098   21.2555 C   0  0  0  0  0  0  0  0  0  0  0  0
   10.0387  -16.1174   21.7084 O   0  0  0  0  0  0  0  0  0  0  0  0
    7.9080  -15.2796   21.9795 N   0  0  0  0  0  0  0  0  0  0  0  0
    8.1302  -14.7085   23.2745 C   0  0  1  0  0  0  0  0  0  0  0  0
    7.1257  -13.6931   23.6752 C   0  0  0  0  0  0  0  0  0  0  0  0
    7.2033  -13.1455   25.0047 C   0  0  0  0  0  0  0  0  0  0  0  0
    8.2080  -12.3027   25.4256 C   0  0  0  0  0  0  0  0  0  0  0  0
    8.2871  -11.7822   26.6828 C   0  0  0  0  0  0  0  0  0  0  0  0
    7.3354  -12.0885   27.6103 C   0  0  0  0  0  0  0  0  0  0  0  0
    6.3064  -12.9293   27.2395 C   0  0  0  0  0  0  0  0  0  0  0  0
    6.2468  -13.4489   25.9489 C   0  0  0  0  0  0  0  0  0  0  0  0
    8.4613  -15.7539   24.2290 C   0  0  0  0  0  0  0  0  0  0  0  0
    7.6641  -16.7246   24.3311 O   0  0  0  0  0  0  0  0  0  0  0  0
    9.6069  -15.7874   25.0631 N   0  0  0  0  0  0  0  0  0  0  0  0
    9.8553  -16.9693   25.8970 C   0  0  1  0  0  0  0  0  0  0  0  0
   10.8771  -17.8485   25.2026 C   0  0  0  0  0  0  0  0  0  0  0  0
   11.2799  -19.0574   25.9542 C   0  0  0  0  0  0  0  0  0  0  0  0
   12.3257  -19.9011   25.2947 C   0  0  0  0  0  0  0  0  0  0  0  0
   12.6804  -21.1387   26.0658 C   0  0  0  0  0  0  0  0  0  0  0  0
   13.5247  -21.9666   25.2207 N   0  0  0  0  0  0  0  0  0  0  0  0
   10.3757  -16.5450   27.1999 C   0  0  0  0  0  0  0  0  0  0  0  0
   10.2590  -17.2887   28.3684 O   0  0  0  0  0  0  0  0  0  0  0  0
   10.9722  -15.4311   27.2859 O   0  0  0  0  0  0  0  0  0  0  0  0
  2  1  1  0
  3  2  1  0
  4  3  1  0
  5  4  1  0
  5  6  1  6
  7  5  1  0
  7  8  2  0
  9  7  1  0
 10  9  1  0
 10 11  1  1
 12 11  1  0
 12 13  2  0
 14 13  1  0
 15 14  2  0
 16 15  1  0
 16 17  2  0
 17 12  1  0
 18 20  1  0
 18 10  1  0
 19 18  2  0
 21 20  1  0
 21 27  1  0
 21 22  1  6
 23 22  1  0
 24 25  1  0
 24 23  1  0
 25 26  1  0
 27 29  2  0
 27 28  1  0
M  END
$$$$
