MFK.pdb
     RDKit          3D

 29 29  0  0  1  0  0  0  0  0999 V2000
    8.6610  -11.9305   18.8694 C   0  0  0  0  0  0  0  0  0  0  0  0
    7.3674  -13.0912   18.3484 S   0  0  0  0  0  0  0  0  0  0  0  0
    7.4298  -14.5582   19.4120 C   0  0  0  0  0  0  0  0  0  0  0  0
    8.8285  -15.1371   19.4354 C   0  0  0  0  0  0  0  0  0  0  0  0
    8.9407  -16.3367   20.3294 C   0  0  2  0  0  0  0  0  0  0  0  0
    7.7444  -17.1392   20.2651 N   0  0  0  0  0  0  0  0  0  0  0  0
    9.1552  -15.9103   21.7460 C   0  0  0  0  0  0  0  0  0  0  0  0
   10.3150  -15.5884   22.0904 O   0  0  0  0  0  0  0  0  0  0  0  0
    8.1057  -15.8611   22.6903 N   0  0  0  0  0  0  0  0  0  0  0  0
    8.2239  -15.2890   23.9985 C   0  0  1  0  0  0  0  0  0  0  0  0
    7.0569  -14.4743   24.4169 C   0  0  0  0  0  0  0  0  0  0  0  0
    7.1063  -13.8214   25.6993 C   0  0  0  0  0  0  0  0  0  0  0  0
    6.9724  -14.4845   26.8990 C   0  0  0  0  0  0  0  0  0  0  0  0
    7.0173  -13.8718   28.1157 C   0  0  0  0  0  0  0  0  0  0  0  0
    7.2041  -12.5232   28.1951 C   0  0  0  0  0  0  0  0  0  0  0  0
    7.3439  -11.8113   27.0217 C   0  0  0  0  0  0  0  0  0  0  0  0
    7.2945  -12.4596   25.7902 C   0  0  0  0  0  0  0  0  0  0  0  0
    8.7325  -16.2813   24.9313 C   0  0  0  0  0  0  0  0  0  0  0  0
    8.0045  -17.2808   25.1744 O   0  0  0  0  0  0  0  0  0  0  0  0
    9.9819  -16.2329   25.5992 N   0  0  0  0  0  0  0  0  0  0  0  0
   10.3643  -17.3344   26.4905 C   0  0  1  0  0  0  0  0  0  0  0  0
   11.6998  -17.8884   26.0338 C   0  0  0  0  0  0  0  0  0  0  0  0
   11.7029  -18.4842   24.6797 C   0  0  0  0  0  0  0  0  0  0  0  0
   13.0209  -19.0273   24.2233 C   0  0  0  0  0  0  0  0  0  0  0  0
   12.9725  -19.6784   22.8722 C   0  0  0  0  0  0  0  0  0  0  0  0
   14.3111  -20.1454   22.5517 N   0  0  0  0  0  0  0  0  0  0  0  0
   10.4832  -16.8316   27.8622 C   0  0  0  0  0  0  0  0  0  0  0  0
   10.6223  -17.6421   28.9828 O   0  0  0  0  0  0  0  0  0  0  0  0
   10.4588  -15.5806   28.0582 O   0  0  0  0  0  0  0  0  0  0  0  0
  2  1  1  0
  3  2  1  0
  4  3  1  0
  5  4  1  0
  5  6  1  1
  7  5  1  0
  7  8  2  0
  9  7  1  0
 10  9  1  0
 10 11  1  1
 12 11  1  0
 12 13  2  0
 14 13  1  0
 15 14  2  0
 16 15  1  0
 16 17  2  0
 17 12  1  0
 18 20  1  0
 18 10  1  0
 19 18  2  0
 21 20  1  0
 21 27  1  0
 21 22  1  6
 23 22  1  0
 24 25  1  0
 24 23  1  0
 25 26  1  0
 27 29  2  0
 27 28  1  0
M  END
$$$$
