MFK.pdb
     RDKit          3D

 29 29  0  0  1  0  0  0  0  0999 V2000
    8.4865  -11.5171   20.1441 C   0  0  0  0  0  0  0  0  0  0  0  0
    7.1150  -12.6411   19.7595 S   0  0  0  0  0  0  0  0  0  0  0  0
    7.7930  -14.2357   19.2256 C   0  0  0  0  0  0  0  0  0  0  0  0
    8.9975  -14.6072   20.0641 C   0  0  0  0  0  0  0  0  0  0  0  0
    8.8078  -15.8979   20.8050 C   0  0  2  0  0  0  0  0  0  0  0  0
    7.4082  -16.1572   21.0354 N   0  0  0  0  0  0  0  0  0  0  0  0
    9.5084  -15.8469   22.1246 C   0  0  0  0  0  0  0  0  0  0  0  0
   10.7419  -15.6325   22.1236 O   0  0  0  0  0  0  0  0  0  0  0  0
    8.8309  -16.0305   23.3504 N   0  0  0  0  0  0  0  0  0  0  0  0
    9.4446  -15.9003   24.6385 C   0  0  1  0  0  0  0  0  0  0  0  0
    8.5759  -15.2814   25.6695 C   0  0  0  0  0  0  0  0  0  0  0  0
    9.1376  -15.0278   26.9710 C   0  0  0  0  0  0  0  0  0  0  0  0
    9.5120  -13.7773   27.4101 C   0  0  0  0  0  0  0  0  0  0  0  0
   10.0450  -13.5314   28.6403 C   0  0  0  0  0  0  0  0  0  0  0  0
   10.2358  -14.5562   29.5195 C   0  0  0  0  0  0  0  0  0  0  0  0
    9.8771  -15.8297   29.1287 C   0  0  0  0  0  0  0  0  0  0  0  0
    9.3344  -16.0564   27.8663 C   0  0  0  0  0  0  0  0  0  0  0  0
   10.1434  -17.1277   24.9829 C   0  0  0  0  0  0  0  0  0  0  0  0
    9.4449  -18.1464   25.2331 O   0  0  0  0  0  0  0  0  0  0  0  0
   11.5492  -17.2909   25.0636 N   0  0  0  0  0  0  0  0  0  0  0  0
   12.1009  -18.5927   25.4573 C   0  0  1  0  0  0  0  0  0  0  0  0
   13.3685  -18.8437   24.6641 C   0  0  0  0  0  0  0  0  0  0  0  0
   13.4438  -20.1643   24.0014 C   0  0  0  0  0  0  0  0  0  0  0  0
   14.5414  -20.3125   22.9945 C   0  0  0  0  0  0  0  0  0  0  0  0
   14.4531  -21.5720   22.1834 C   0  0  0  0  0  0  0  0  0  0  0  0
   15.5502  -21.5688   21.2301 N   0  0  0  0  0  0  0  0  0  0  0  0
   12.4118  -18.5765   26.8896 C   0  0  0  0  0  0  0  0  0  0  0  0
   12.2500  -17.4678   27.7123 O   0  0  0  0  0  0  0  0  0  0  0  0
   12.8584  -19.6314   27.4295 O   0  0  0  0  0  0  0  0  0  0  0  0
  2  1  1  0
  3  2  1  0
  4  3  1  0
  5  4  1  0
  5  6  1  1
  7  5  1  0
  7  8  2  0
  9  7  1  0
 10  9  1  0
 10 11  1  1
 12 11  1  0
 12 13  2  0
 14 13  1  0
 15 14  2  0
 16 15  1  0
 16 17  2  0
 17 12  1  0
 18 20  1  0
 18 10  1  0
 19 18  2  0
 21 20  1  0
 21 27  1  0
 21 22  1  6
 23 22  1  0
 24 25  1  0
 24 23  1  0
 25 26  1  0
 27 29  2  0
 27 28  1  0
M  END
$$$$
