MFK.pdb
     RDKit          3D

 29 29  0  0  1  0  0  0  0  0999 V2000
    8.1915  -12.1225   18.4790 C   0  0  0  0  0  0  0  0  0  0  0  0
    7.2439  -13.4425   17.6716 S   0  0  0  0  0  0  0  0  0  0  0  0
    7.5199  -14.9960   18.5649 C   0  0  0  0  0  0  0  0  0  0  0  0
    8.7531  -14.8943   19.4370 C   0  0  0  0  0  0  0  0  0  0  0  0
    8.9667  -16.1183   20.2779 C   0  0  2  0  0  0  0  0  0  0  0  0
    7.8342  -17.0065   20.1895 N   0  0  0  0  0  0  0  0  0  0  0  0
    9.1648  -15.7366   21.7096 C   0  0  0  0  0  0  0  0  0  0  0  0
   10.2922  -15.3125   22.0508 O   0  0  0  0  0  0  0  0  0  0  0  0
    8.1351  -15.8392   22.6711 N   0  0  0  0  0  0  0  0  0  0  0  0
    8.2503  -15.3913   24.0272 C   0  0  1  0  0  0  0  0  0  0  0  0
    7.0679  -14.6485   24.5279 C   0  0  0  0  0  0  0  0  0  0  0  0
    7.1845  -13.9456   25.7792 C   0  0  0  0  0  0  0  0  0  0  0  0
    7.1469  -14.5650   27.0088 C   0  0  0  0  0  0  0  0  0  0  0  0
    7.2558  -13.9049   28.1964 C   0  0  0  0  0  0  0  0  0  0  0  0
    7.4123  -12.5503   28.2134 C   0  0  0  0  0  0  0  0  0  0  0  0
    7.4562  -11.8810   27.0078 C   0  0  0  0  0  0  0  0  0  0  0  0
    7.3428  -12.5772   25.8070 C   0  0  0  0  0  0  0  0  0  0  0  0
    8.7895  -16.4552   24.8583 C   0  0  0  0  0  0  0  0  0  0  0  0
    8.1913  -17.5644   24.8473 O   0  0  0  0  0  0  0  0  0  0  0  0
    9.9359  -16.3645   25.6871 N   0  0  0  0  0  0  0  0  0  0  0  0
   10.3928  -17.5537   26.4158 C   0  0  1  0  0  0  0  0  0  0  0  0
   11.7450  -17.9690   25.8700 C   0  0  0  0  0  0  0  0  0  0  0  0
   12.3403  -19.1635   26.5082 C   0  0  0  0  0  0  0  0  0  0  0  0
   13.6674  -19.5866   25.9602 C   0  0  0  0  0  0  0  0  0  0  0  0
   14.1951  -20.8552   26.5636 C   0  0  0  0  0  0  0  0  0  0  0  0
   15.5054  -21.1131   25.9898 N   0  0  0  0  0  0  0  0  0  0  0  0
   10.5144  -17.2342   27.8411 C   0  0  0  0  0  0  0  0  0  0  0  0
   10.5456  -18.1840   28.8555 O   0  0  0  0  0  0  0  0  0  0  0  0
   10.5967  -16.0194   28.1897 O   0  0  0  0  0  0  0  0  0  0  0  0
  2  1  1  0
  3  2  1  0
  4  3  1  0
  5  4  1  0
  5  6  1  1
  7  5  1  0
  7  8  2  0
  9  7  1  0
 10  9  1  0
 10 11  1  1
 12 11  1  0
 12 13  2  0
 14 13  1  0
 15 14  2  0
 16 15  1  0
 16 17  2  0
 17 12  1  0
 18 20  1  0
 18 10  1  0
 19 18  2  0
 21 20  1  0
 21 27  1  0
 21 22  1  6
 23 22  1  0
 24 25  1  0
 24 23  1  0
 25 26  1  0
 27 29  2  0
 27 28  1  0
M  END
$$$$
