MFK.pdb
     RDKit          3D

 29 29  0  0  1  0  0  0  0  0999 V2000
    8.7667  -21.2661   20.9535 C   0  0  0  0  0  0  0  0  0  0  0  0
    9.5057  -20.6695   19.4075 S   0  0  0  0  0  0  0  0  0  0  0  0
    9.0008  -18.9489   19.1394 C   0  0  0  0  0  0  0  0  0  0  0  0
    9.5675  -18.0552   20.2220 C   0  0  0  0  0  0  0  0  0  0  0  0
    9.0035  -16.6657   20.1759 C   0  0  2  0  0  0  0  0  0  0  0  0
    9.6623  -15.8770   19.1644 N   0  0  0  0  0  0  0  0  0  0  0  0
    9.1778  -15.9904   21.4981 C   0  0  0  0  0  0  0  0  0  0  0  0
   10.3019  -16.0574   22.0450 O   0  0  0  0  0  0  0  0  0  0  0  0
    8.1293  -15.2915   22.1367 N   0  0  0  0  0  0  0  0  0  0  0  0
    8.2547  -14.6276   23.4001 C   0  0  1  0  0  0  0  0  0  0  0  0
    7.1802  -13.6448   23.6832 C   0  0  0  0  0  0  0  0  0  0  0  0
    7.1556  -13.0163   24.9785 C   0  0  0  0  0  0  0  0  0  0  0  0
    8.1254  -12.1451   25.4226 C   0  0  0  0  0  0  0  0  0  0  0  0
    8.1080  -11.5480   26.6478 C   0  0  0  0  0  0  0  0  0  0  0  0
    7.0877  -11.8008   27.5166 C   0  0  0  0  0  0  0  0  0  0  0  0
    6.0898  -12.6671   27.1205 C   0  0  0  0  0  0  0  0  0  0  0  0
    6.1293  -13.2653   25.8634 C   0  0  0  0  0  0  0  0  0  0  0  0
    8.5888  -15.5903   24.4369 C   0  0  0  0  0  0  0  0  0  0  0  0
    7.8654  -16.6176   24.5344 O   0  0  0  0  0  0  0  0  0  0  0  0
    9.6619  -15.4843   25.3570 N   0  0  0  0  0  0  0  0  0  0  0  0
    9.9579  -16.6108   26.2499 C   0  0  1  0  0  0  0  0  0  0  0  0
   11.3131  -17.1815   25.8802 C   0  0  0  0  0  0  0  0  0  0  0  0
   11.2773  -18.3414   24.9627 C   0  0  0  0  0  0  0  0  0  0  0  0
   12.6145  -18.8887   24.5717 C   0  0  0  0  0  0  0  0  0  0  0  0
   12.5385  -20.1079   23.7000 C   0  0  0  0  0  0  0  0  0  0  0  0
   13.8967  -20.5300   23.4008 N   0  0  0  0  0  0  0  0  0  0  0  0
    9.9848  -16.1381   27.6371 C   0  0  0  0  0  0  0  0  0  0  0  0
    9.9528  -14.7988   28.0076 O   0  0  0  0  0  0  0  0  0  0  0  0
   10.0417  -16.9909   28.5718 O   0  0  0  0  0  0  0  0  0  0  0  0
  2  1  1  0
  3  2  1  0
  4  3  1  0
  5  4  1  0
  5  6  1  6
  7  5  1  0
  7  8  2  0
  9  7  1  0
 10  9  1  0
 10 11  1  1
 12 11  1  0
 12 13  2  0
 14 13  1  0
 15 14  2  0
 16 15  1  0
 16 17  2  0
 17 12  1  0
 18 20  1  0
 18 10  1  0
 19 18  2  0
 21 20  1  0
 21 27  1  0
 21 22  1  6
 23 22  1  0
 24 25  1  0
 24 23  1  0
 25 26  1  0
 27 29  2  0
 27 28  1  0
M  END
$$$$
