MFK.pdb
     RDKit          3D

 29 29  0  0  1  0  0  0  0  0999 V2000
    7.9109  -22.8010   25.6875 C   0  0  0  0  0  0  0  0  0  0  0  0
    6.9365  -23.5012   24.3265 S   0  0  0  0  0  0  0  0  0  0  0  0
    5.9503  -22.1816   23.5692 C   0  0  0  0  0  0  0  0  0  0  0  0
    6.6764  -20.8566   23.6628 C   0  0  0  0  0  0  0  0  0  0  0  0
    5.8476  -19.7089   23.1660 C   0  0  2  0  0  0  0  0  0  0  0  0
    5.5822  -19.8397   21.7547 N   0  0  0  0  0  0  0  0  0  0  0  0
    6.5582  -18.4150   23.4014 C   0  0  0  0  0  0  0  0  0  0  0  0
    7.3290  -18.0002   22.5063 O   0  0  0  0  0  0  0  0  0  0  0  0
    6.3882  -17.6606   24.5835 N   0  0  0  0  0  0  0  0  0  0  0  0
    7.0560  -16.4219   24.8529 C   0  0  1  0  0  0  0  0  0  0  0  0
    6.2438  -15.4433   25.6167 C   0  0  0  0  0  0  0  0  0  0  0  0
    6.8374  -14.1728   25.9435 C   0  0  0  0  0  0  0  0  0  0  0  0
    6.6744  -13.0361   25.1831 C   0  0  0  0  0  0  0  0  0  0  0  0
    7.2346  -11.8312   25.4869 C   0  0  0  0  0  0  0  0  0  0  0  0
    8.0097  -11.6996   26.6011 C   0  0  0  0  0  0  0  0  0  0  0  0
    8.2049  -12.8088   27.3978 C   0  0  0  0  0  0  0  0  0  0  0  0
    7.6222  -14.0296   27.0668 C   0  0  0  0  0  0  0  0  0  0  0  0
    8.4154  -16.6769   25.3006 C   0  0  0  0  0  0  0  0  0  0  0  0
    8.5952  -17.6274   26.1083 O   0  0  0  0  0  0  0  0  0  0  0  0
    9.5700  -15.9528   24.9107 N   0  0  0  0  0  0  0  0  0  0  0  0
   10.8957  -16.5484   25.1148 C   0  0  1  0  0  0  0  0  0  0  0  0
   11.8387  -16.0108   24.0562 C   0  0  0  0  0  0  0  0  0  0  0  0
   12.4302  -17.0324   23.1645 C   0  0  0  0  0  0  0  0  0  0  0  0
   13.2801  -16.4972   22.0546 C   0  0  0  0  0  0  0  0  0  0  0  0
   13.8633  -17.5611   21.1715 C   0  0  0  0  0  0  0  0  0  0  0  0
   14.6522  -16.9056   20.1416 N   0  0  0  0  0  0  0  0  0  0  0  0
   11.3921  -16.1865   26.4456 C   0  0  0  0  0  0  0  0  0  0  0  0
   12.5543  -16.6969   27.0121 O   0  0  0  0  0  0  0  0  0  0  0  0
   10.7320  -15.3574   27.1390 O   0  0  0  0  0  0  0  0  0  0  0  0
  2  1  1  0
  3  2  1  0
  4  3  1  0
  5  4  1  0
  5  6  1  6
  7  5  1  0
  7  8  2  0
  9  7  1  0
 10  9  1  0
 10 11  1  1
 12 11  1  0
 12 13  2  0
 14 13  1  0
 15 14  2  0
 16 15  1  0
 16 17  2  0
 17 12  1  0
 18 20  1  0
 18 10  1  0
 19 18  2  0
 21 20  1  0
 21 27  1  0
 21 22  1  6
 23 22  1  0
 24 25  1  0
 24 23  1  0
 25 26  1  0
 27 29  2  0
 27 28  1  0
M  END
$$$$
