MFK.pdb
     RDKit          3D

 29 29  0  0  1  0  0  0  0  0999 V2000
    7.5905  -13.2496   16.0555 C   0  0  0  0  0  0  0  0  0  0  0  0
    8.4156  -13.2708   17.6713 S   0  0  0  0  0  0  0  0  0  0  0  0
    9.2888  -14.8479   17.8655 C   0  0  0  0  0  0  0  0  0  0  0  0
    9.9600  -14.9191   19.2205 C   0  0  0  0  0  0  0  0  0  0  0  0
    9.4080  -16.0178   20.0800 C   0  0  2  0  0  0  0  0  0  0  0  0
    8.0341  -16.2947   19.7407 N   0  0  0  0  0  0  0  0  0  0  0  0
    9.4761  -15.6325   21.5228 C   0  0  0  0  0  0  0  0  0  0  0  0
   10.5960  -15.3330   21.9955 O   0  0  0  0  0  0  0  0  0  0  0  0
    8.3338  -15.5974   22.3530 N   0  0  0  0  0  0  0  0  0  0  0  0
    8.3268  -15.0942   23.6945 C   0  0  1  0  0  0  0  0  0  0  0  0
    7.1430  -14.2656   24.0301 C   0  0  0  0  0  0  0  0  0  0  0  0
    7.0473  -13.7209   25.3596 C   0  0  0  0  0  0  0  0  0  0  0  0
    6.4531  -14.3795   26.4132 C   0  0  0  0  0  0  0  0  0  0  0  0
    6.3586  -13.8687   27.6733 C   0  0  0  0  0  0  0  0  0  0  0  0
    6.8699  -12.6352   27.9507 C   0  0  0  0  0  0  0  0  0  0  0  0
    7.4762  -11.9329   26.9296 C   0  0  0  0  0  0  0  0  0  0  0  0
    7.5606  -12.4757   25.6499 C   0  0  0  0  0  0  0  0  0  0  0  0
    8.7081  -16.1463   24.6224 C   0  0  0  0  0  0  0  0  0  0  0  0
    8.0484  -17.2196   24.5907 O   0  0  0  0  0  0  0  0  0  0  0  0
    9.7622  -16.0809   25.5679 N   0  0  0  0  0  0  0  0  0  0  0  0
   10.0825  -17.2666   26.3713 C   0  0  1  0  0  0  0  0  0  0  0  0
   11.3875  -17.8548   25.8713 C   0  0  0  0  0  0  0  0  0  0  0  0
   11.9090  -18.9904   26.6632 C   0  0  0  0  0  0  0  0  0  0  0  0
   13.1999  -19.5704   26.1756 C   0  0  0  0  0  0  0  0  0  0  0  0
   13.6919  -20.7272   26.9951 C   0  0  0  0  0  0  0  0  0  0  0  0
   14.9676  -21.1551   26.4455 N   0  0  0  0  0  0  0  0  0  0  0  0
   10.2248  -16.8778   27.7774 C   0  0  0  0  0  0  0  0  0  0  0  0
   10.1897  -17.7700   28.8427 O   0  0  0  0  0  0  0  0  0  0  0  0
   10.3901  -15.6541   28.0589 O   0  0  0  0  0  0  0  0  0  0  0  0
  2  1  1  0
  3  2  1  0
  4  3  1  0
  5  4  1  0
  5  6  1  6
  7  5  1  0
  7  8  2  0
  9  7  1  0
 10  9  1  0
 10 11  1  1
 12 11  1  0
 12 13  2  0
 14 13  1  0
 15 14  2  0
 16 15  1  0
 16 17  2  0
 17 12  1  0
 18 20  1  0
 18 10  1  0
 19 18  2  0
 21 20  1  0
 21 27  1  0
 21 22  1  6
 23 22  1  0
 24 25  1  0
 24 23  1  0
 25 26  1  0
 27 29  2  0
 27 28  1  0
M  END
$$$$
