MFK.pdb
     RDKit          3D

 29 29  0  0  1  0  0  0  0  0999 V2000
    7.8077  -12.1601   18.1455 C   0  0  0  0  0  0  0  0  0  0  0  0
    8.0748  -13.5325   16.9891 S   0  0  0  0  0  0  0  0  0  0  0  0
    8.2070  -15.0771   17.9293 C   0  0  0  0  0  0  0  0  0  0  0  0
    8.9612  -14.8483   19.2218 C   0  0  0  0  0  0  0  0  0  0  0  0
    9.0134  -16.0753   20.0834 C   0  0  2  0  0  0  0  0  0  0  0  0
    7.7886  -16.8291   19.9789 N   0  0  0  0  0  0  0  0  0  0  0  0
    9.2213  -15.6965   21.5145 C   0  0  0  0  0  0  0  0  0  0  0  0
   10.3861  -15.4234   21.8835 O   0  0  0  0  0  0  0  0  0  0  0  0
    8.1605  -15.6389   22.4455 N   0  0  0  0  0  0  0  0  0  0  0  0
    8.2718  -15.0844   23.7618 C   0  0  1  0  0  0  0  0  0  0  0  0
    7.1891  -14.1352   24.1186 C   0  0  0  0  0  0  0  0  0  0  0  0
    7.1721  -13.5906   25.4515 C   0  0  0  0  0  0  0  0  0  0  0  0
    6.4746  -14.1537   26.4971 C   0  0  0  0  0  0  0  0  0  0  0  0
    6.4540  -13.6423   27.7604 C   0  0  0  0  0  0  0  0  0  0  0  0
    7.1518  -12.5068   28.0493 C   0  0  0  0  0  0  0  0  0  0  0  0
    7.8679  -11.9027   27.0366 C   0  0  0  0  0  0  0  0  0  0  0  0
    7.8737  -12.4439   25.7535 C   0  0  0  0  0  0  0  0  0  0  0  0
    8.6038  -16.1300   24.7157 C   0  0  0  0  0  0  0  0  0  0  0  0
    7.8288  -17.1212   24.7882 O   0  0  0  0  0  0  0  0  0  0  0  0
    9.7276  -16.1428   25.5795 N   0  0  0  0  0  0  0  0  0  0  0  0
    9.9981  -17.3359   26.3904 C   0  0  1  0  0  0  0  0  0  0  0  0
   11.1768  -18.0759   25.7887 C   0  0  0  0  0  0  0  0  0  0  0  0
   11.6551  -19.2370   26.5706 C   0  0  0  0  0  0  0  0  0  0  0  0
   12.7801  -20.0055   25.9507 C   0  0  0  0  0  0  0  0  0  0  0  0
   13.1949  -21.2135   26.7384 C   0  0  0  0  0  0  0  0  0  0  0  0
   14.3053  -21.8425   26.0428 N   0  0  0  0  0  0  0  0  0  0  0  0
   10.3200  -16.9297   27.7615 C   0  0  0  0  0  0  0  0  0  0  0  0
   10.3687  -15.6099   28.1950 O   0  0  0  0  0  0  0  0  0  0  0  0
   10.5738  -17.8255   28.6200 O   0  0  0  0  0  0  0  0  0  0  0  0
  2  1  1  0
  3  2  1  0
  4  3  1  0
  5  4  1  0
  5  6  1  1
  7  5  1  0
  7  8  2  0
  9  7  1  0
 10  9  1  0
 10 11  1  1
 12 11  1  0
 12 13  2  0
 14 13  1  0
 15 14  2  0
 16 15  1  0
 16 17  2  0
 17 12  1  0
 18 20  1  0
 18 10  1  0
 19 18  2  0
 21 20  1  0
 21 27  1  0
 21 22  1  6
 23 22  1  0
 24 25  1  0
 24 23  1  0
 25 26  1  0
 27 29  2  0
 27 28  1  0
M  END
$$$$
