MFK.pdb
     RDKit          3D

 29 29  0  0  1  0  0  0  0  0999 V2000
    7.1249  -20.5434   20.7642 C   0  0  0  0  0  0  0  0  0  0  0  0
    7.6908  -20.4266   19.0442 S   0  0  0  0  0  0  0  0  0  0  0  0
    8.2019  -18.7199   18.7075 C   0  0  0  0  0  0  0  0  0  0  0  0
    8.5323  -18.0009   19.9980 C   0  0  0  0  0  0  0  0  0  0  0  0
    8.8019  -16.5396   19.7908 C   0  0  2  0  0  0  0  0  0  0  0  0
    9.9864  -16.3438   18.9920 N   0  0  0  0  0  0  0  0  0  0  0  0
    8.9932  -15.8552   21.1059 C   0  0  0  0  0  0  0  0  0  0  0  0
   10.1447  -15.8446   21.5973 O   0  0  0  0  0  0  0  0  0  0  0  0
    7.9312  -15.2316   21.7978 N   0  0  0  0  0  0  0  0  0  0  0  0
    8.0451  -14.6652   23.1089 C   0  0  1  0  0  0  0  0  0  0  0  0
    6.9475  -13.7350   23.4702 C   0  0  0  0  0  0  0  0  0  0  0  0
    6.8908  -13.2401   24.8212 C   0  0  0  0  0  0  0  0  0  0  0  0
    6.0834  -13.7791   25.7982 C   0  0  0  0  0  0  0  0  0  0  0  0
    6.0247  -13.3143   27.0782 C   0  0  0  0  0  0  0  0  0  0  0  0
    6.7948  -12.2542   27.4561 C   0  0  0  0  0  0  0  0  0  0  0  0
    7.6219  -11.6770   26.5148 C   0  0  0  0  0  0  0  0  0  0  0  0
    7.6646  -12.1695   25.2128 C   0  0  0  0  0  0  0  0  0  0  0  0
    8.4076  -15.6971   24.0667 C   0  0  0  0  0  0  0  0  0  0  0  0
    7.6556  -16.7048   24.1513 O   0  0  0  0  0  0  0  0  0  0  0  0
    9.5378  -15.6792   24.9220 N   0  0  0  0  0  0  0  0  0  0  0  0
    9.8367  -16.8577   25.7440 C   0  0  1  0  0  0  0  0  0  0  0  0
   11.1118  -17.4979   25.2311 C   0  0  0  0  0  0  0  0  0  0  0  0
   11.5386  -18.7156   25.9547 C   0  0  0  0  0  0  0  0  0  0  0  0
   12.7917  -19.3560   25.4447 C   0  0  0  0  0  0  0  0  0  0  0  0
   13.0830  -20.6927   26.0615 C   0  0  0  0  0  0  0  0  0  0  0  0
   14.2938  -21.2142   25.4495 N   0  0  0  0  0  0  0  0  0  0  0  0
   10.0197  -16.4448   27.1384 C   0  0  0  0  0  0  0  0  0  0  0  0
   10.0340  -15.1225   27.5669 O   0  0  0  0  0  0  0  0  0  0  0  0
   10.1775  -17.3366   28.0237 O   0  0  0  0  0  0  0  0  0  0  0  0
  2  1  1  0
  3  2  1  0
  4  3  1  0
  5  4  1  0
  5  6  1  6
  7  5  1  0
  7  8  2  0
  9  7  1  0
 10  9  1  0
 10 11  1  1
 12 11  1  0
 12 13  2  0
 14 13  1  0
 15 14  2  0
 16 15  1  0
 16 17  2  0
 17 12  1  0
 18 20  1  0
 18 10  1  0
 19 18  2  0
 21 20  1  0
 21 27  1  0
 21 22  1  6
 23 22  1  0
 24 25  1  0
 24 23  1  0
 25 26  1  0
 27 29  2  0
 27 28  1  0
M  END
$$$$
