YCN.pdb
     RDKit          3D

 27 27  0  0  1  0  0  0  0  0999 V2000
   19.7096  -14.3909  -21.3679 O   0  0  0  0  0  0  0  0  0  0  0  0
   19.4152  -13.3729  -20.4565 C   0  0  0  0  0  0  0  0  0  0  0  0
   18.2214  -13.3589  -19.8059 C   0  0  0  0  0  0  0  0  0  0  0  0
   17.9056  -12.3598  -18.8971 C   0  0  0  0  0  0  0  0  0  0  0  0
   18.8149  -11.3594  -18.6445 C   0  0  0  0  0  0  0  0  0  0  0  0
   18.4517  -10.3038  -17.6712 C   0  0  0  0  0  0  0  0  0  0  0  0
   19.1927  -10.4982  -16.3598 C   0  0  2  0  0  0  0  0  0  0  0  0
   18.6169  -11.6402  -15.6930 N   0  0  0  0  0  0  0  0  0  0  0  0
   19.0053   -9.2728  -15.5389 C   0  0  0  0  0  0  0  0  0  0  0  0
   17.9128   -9.1178  -14.9047 O   0  0  0  0  0  0  0  0  0  0  0  0
   20.0226  -11.3745  -19.3034 C   0  0  0  0  0  0  0  0  0  0  0  0
   20.3405  -12.3710  -20.2113 C   0  0  0  0  0  0  0  0  0  0  0  0
   19.9961   -8.2600  -15.4292 N   0  0  0  0  0  0  0  0  0  0  0  0
   19.7917   -7.0754  -14.6235 C   0  0  1  0  0  0  0  0  0  0  0  0
   21.0081   -6.7896  -13.7514 C   0  0  0  0  0  0  0  0  0  0  0  0
   21.1137   -7.9237  -12.3618 S   0  0  0  0  0  0  0  0  0  0  0  0
   19.4852   -5.8869  -15.4744 C   0  0  0  0  0  0  0  0  0  0  0  0
   20.1842   -5.6980  -16.4958 O   0  0  0  0  0  0  0  0  0  0  0  0
   17.1708   -1.8089  -17.6738 N   0  0  0  0  0  0  0  0  0  0  0  0
   16.2049   -2.5658  -16.9333 C   0  0  0  0  0  0  0  0  0  0  0  0
   15.0205   -2.1909  -17.0726 O   0  0  0  0  0  0  0  0  0  0  0  0
   16.5906   -3.6992  -16.0755 C   0  0  0  0  0  0  0  0  0  0  0  0
   18.0754   -3.8686  -16.0654 C   0  0  2  0  0  0  0  0  0  0  0  0
   18.4616   -4.9815  -15.1864 N   0  0  0  0  0  0  0  0  0  0  0  0
   18.6836   -2.6727  -15.4437 C   0  0  0  0  0  0  0  0  0  0  0  0
   18.6018   -1.5239  -15.9169 O   0  0  0  0  0  0  0  0  0  0  0  0
   19.3943   -2.7996  -14.2638 O   0  0  0  0  0  0  0  0  0  0  0  0
  1  2  1  0
  2  3  2  0
  3  4  1  0
  5  6  1  0
  5  4  2  0
  6  7  1  0
  7  8  1  1
  7  9  1  0
  9 13  1  0
  9 10  2  0
 11  5  1  0
 12 11  2  0
 12  2  1  0
 13 14  1  0
 14 15  1  6
 15 16  1  0
 17 14  1  0
 17 18  2  0
 19 20  1  0
 20 21  2  0
 22 20  1  0
 23 22  1  1
 23 24  1  0
 24 17  1  0
 25 23  1  0
 26 25  2  0
 27 25  1  0
M  END
$$$$
