YCN.pdb
     RDKit          3D

 27 27  0  0  1  0  0  0  0  0999 V2000
   27.9163  -13.9804  -17.8038 O   0  0  0  0  0  0  0  0  0  0  0  0
   27.2553  -15.0335  -17.1650 C   0  0  0  0  0  0  0  0  0  0  0  0
   27.2601  -15.1238  -15.8082 C   0  0  0  0  0  0  0  0  0  0  0  0
   26.6118  -16.1589  -15.1510 C   0  0  0  0  0  0  0  0  0  0  0  0
   25.9486  -17.1173  -15.8813 C   0  0  0  0  0  0  0  0  0  0  0  0
   25.2663  -18.2127  -15.1545 C   0  0  0  0  0  0  0  0  0  0  0  0
   26.2657  -19.2552  -14.6841 C   0  0  2  0  0  0  0  0  0  0  0  0
   26.7659  -19.9435  -15.8486 N   0  0  0  0  0  0  0  0  0  0  0  0
   25.5532  -20.2054  -13.7896 C   0  0  0  0  0  0  0  0  0  0  0  0
   24.7191  -21.0215  -14.2976 O   0  0  0  0  0  0  0  0  0  0  0  0
   25.9444  -17.0248  -17.2540 C   0  0  0  0  0  0  0  0  0  0  0  0
   26.5908  -15.9922  -17.9129 C   0  0  0  0  0  0  0  0  0  0  0  0
   25.7618  -20.2445  -12.3845 N   0  0  0  0  0  0  0  0  0  0  0  0
   24.8338  -20.9060  -11.4924 C   0  0  1  0  0  0  0  0  0  0  0  0
   25.2708  -20.7588  -10.0402 C   0  0  0  0  0  0  0  0  0  0  0  0
   24.0689  -21.4657   -8.9071 S   0  0  0  0  0  0  0  0  0  0  0  0
   23.4475  -20.3773  -11.6627 C   0  0  0  0  0  0  0  0  0  0  0  0
   23.3117  -19.1868  -12.0260 O   0  0  0  0  0  0  0  0  0  0  0  0
   18.4429  -20.0738  -12.8040 N   0  0  0  0  0  0  0  0  0  0  0  0
   19.5569  -20.0015  -13.7029 C   0  0  0  0  0  0  0  0  0  0  0  0
   19.2734  -19.6479  -14.8679 O   0  0  0  0  0  0  0  0  0  0  0  0
   20.9291  -20.3222  -13.2747 C   0  0  0  0  0  0  0  0  0  0  0  0
   20.9476  -20.7377  -11.8393 C   0  0  2  0  0  0  0  0  0  0  0  0
   22.3018  -21.1436  -11.4372 N   0  0  0  0  0  0  0  0  0  0  0  0
   20.1309  -21.9615  -11.6906 C   0  0  0  0  0  0  0  0  0  0  0  0
   20.2076  -22.9463  -12.4486 O   0  0  0  0  0  0  0  0  0  0  0  0
   19.2152  -22.0536  -10.6579 O   0  0  0  0  0  0  0  0  0  0  0  0
  1  2  1  0
  2  3  2  0
  3  4  1  0
  5  6  1  0
  5  4  2  0
  6  7  1  0
  7  8  1  6
  7  9  1  0
  9 13  1  0
  9 10  2  0
 11  5  1  0
 12 11  2  0
 12  2  1  0
 13 14  1  0
 14 15  1  1
 15 16  1  0
 17 14  1  0
 17 18  2  0
 19 20  1  0
 20 21  2  0
 22 20  1  0
 23 22  1  6
 23 24  1  0
 24 17  1  0
 25 23  1  0
 26 25  2  0
 27 25  1  0
M  END
$$$$
