YCN.pdb
     RDKit          3D

 27 27  0  0  1  0  0  0  0  0999 V2000
   17.6768  -25.5729   -5.6809 O   0  0  0  0  0  0  0  0  0  0  0  0
   17.6921  -24.8813   -6.8955 C   0  0  0  0  0  0  0  0  0  0  0  0
   18.8370  -24.8008   -7.6246 C   0  0  0  0  0  0  0  0  0  0  0  0
   18.8777  -24.1204   -8.8326 C   0  0  0  0  0  0  0  0  0  0  0  0
   17.7396  -23.5123   -9.3083 C   0  0  0  0  0  0  0  0  0  0  0  0
   17.8112  -22.7909  -10.5998 C   0  0  0  0  0  0  0  0  0  0  0  0
   17.9938  -21.2996  -10.3777 C   0  0  2  0  0  0  0  0  0  0  0  0
   16.7631  -20.7809   -9.8333 N   0  0  0  0  0  0  0  0  0  0  0  0
   18.2817  -20.6699  -11.6935 C   0  0  0  0  0  0  0  0  0  0  0  0
   17.4029  -19.9148  -12.2200 O   0  0  0  0  0  0  0  0  0  0  0  0
   16.5816  -23.5945   -8.5698 C   0  0  0  0  0  0  0  0  0  0  0  0
   16.5381  -24.2733   -7.3632 C   0  0  0  0  0  0  0  0  0  0  0  0
   19.5007  -20.8738  -12.3948 N   0  0  0  0  0  0  0  0  0  0  0  0
   19.9102  -20.0109  -13.4820 C   0  0  1  0  0  0  0  0  0  0  0  0
   20.0977  -18.5769  -13.0022 C   0  0  0  0  0  0  0  0  0  0  0  0
   20.5608  -17.4788  -14.3468 S   0  0  0  0  0  0  0  0  0  0  0  0
   21.1677  -20.5023  -14.1204 C   0  0  0  0  0  0  0  0  0  0  0  0
   21.9745  -21.1470  -13.4125 O   0  0  0  0  0  0  0  0  0  0  0  0
   20.3970  -23.5276  -18.6609 N   0  0  0  0  0  0  0  0  0  0  0  0
   21.0326  -23.4570  -17.3782 C   0  0  0  0  0  0  0  0  0  0  0  0
   21.8607  -24.3648  -17.1485 O   0  0  0  0  0  0  0  0  0  0  0  0
   20.7252  -22.3898  -16.4110 C   0  0  0  0  0  0  0  0  0  0  0  0
   21.7941  -21.3453  -16.4242 C   0  0  2  0  0  0  0  0  0  0  0  0
   21.4845  -20.2782  -15.4620 N   0  0  0  0  0  0  0  0  0  0  0  0
   21.7838  -20.6749  -17.7422 C   0  0  0  0  0  0  0  0  0  0  0  0
   22.7243  -20.7252  -18.5566 O   0  0  0  0  0  0  0  0  0  0  0  0
   20.6787  -19.9377  -18.1280 O   0  0  0  0  0  0  0  0  0  0  0  0
  1  2  1  0
  2  3  2  0
  3  4  1  0
  5  6  1  0
  5  4  2  0
  6  7  1  0
  7  8  1  6
  7  9  1  0
  9 13  1  0
  9 10  2  0
 11  5  1  0
 12 11  2  0
 12  2  1  0
 13 14  1  0
 14 15  1  1
 15 16  1  0
 17 14  1  0
 17 18  2  0
 19 20  1  0
 20 21  2  0
 22 20  1  0
 23 22  1  6
 23 24  1  0
 24 17  1  0
 25 23  1  0
 26 25  2  0
 27 25  1  0
M  END
$$$$
