YCN.pdb
     RDKit          3D

 27 27  0  0  1  0  0  0  0  0999 V2000
   22.7449  -12.8893  -22.8823 O   0  0  0  0  0  0  0  0  0  0  0  0
   22.3474  -11.8259  -22.0669 C   0  0  0  0  0  0  0  0  0  0  0  0
   23.2340  -11.2472  -21.2138 C   0  0  0  0  0  0  0  0  0  0  0  0
   22.8640  -10.1909  -20.3945 C   0  0  0  0  0  0  0  0  0  0  0  0
   21.5747   -9.7144  -20.4413 C   0  0  0  0  0  0  0  0  0  0  0  0
   21.2056   -8.5870  -19.5545 C   0  0  0  0  0  0  0  0  0  0  0  0
   20.9254   -9.0766  -18.1443 C   0  0  2  0  0  0  0  0  0  0  0  0
   19.7042   -9.8431  -18.1781 N   0  0  0  0  0  0  0  0  0  0  0  0
   20.7636   -7.8867  -17.2675 C   0  0  0  0  0  0  0  0  0  0  0  0
   19.6345   -7.3009  -17.2270 O   0  0  0  0  0  0  0  0  0  0  0  0
   20.6784  -10.3007  -21.3050 C   0  0  0  0  0  0  0  0  0  0  0  0
   21.0452  -11.3555  -22.1242 C   0  0  0  0  0  0  0  0  0  0  0  0
   21.8184   -7.3700  -16.4676 N   0  0  0  0  0  0  0  0  0  0  0  0
   21.6349   -6.2161  -15.6137 C   0  0  1  0  0  0  0  0  0  0  0  0
   22.5024   -6.3154  -14.3650 C   0  0  0  0  0  0  0  0  0  0  0  0
   22.3891   -4.8340  -13.3546 S   0  0  0  0  0  0  0  0  0  0  0  0
   21.9363   -4.9483  -16.3431 C   0  0  0  0  0  0  0  0  0  0  0  0
   22.9402   -4.9235  -17.0909 O   0  0  0  0  0  0  0  0  0  0  0  0
   21.8411   -0.1936  -18.3465 N   0  0  0  0  0  0  0  0  0  0  0  0
   20.8636   -1.1235  -18.8304 C   0  0  0  0  0  0  0  0  0  0  0  0
   20.2878   -0.7827  -19.8864 O   0  0  0  0  0  0  0  0  0  0  0  0
   20.5680   -2.3836  -18.1277 C   0  0  0  0  0  0  0  0  0  0  0  0
   21.4460   -2.5340  -16.9277 C   0  0  2  0  0  0  0  0  0  0  0  0
   21.1559   -3.7954  -16.2312 N   0  0  0  0  0  0  0  0  0  0  0  0
   21.0974   -1.4793  -15.9515 C   0  0  0  0  0  0  0  0  0  0  0  0
   21.9216   -0.6875  -15.4578 O   0  0  0  0  0  0  0  0  0  0  0  0
   19.7852   -1.3338  -15.5385 O   0  0  0  0  0  0  0  0  0  0  0  0
  1  2  1  0
  2  3  2  0
  3  4  1  0
  5  6  1  0
  5  4  2  0
  6  7  1  0
  7  8  1  6
  7  9  1  0
  9 13  1  0
  9 10  2  0
 11  5  1  0
 12 11  2  0
 12  2  1  0
 13 14  1  0
 14 15  1  1
 15 16  1  0
 17 14  1  0
 17 18  2  0
 19 20  1  0
 20 21  2  0
 22 20  1  0
 23 22  1  6
 23 24  1  0
 24 17  1  0
 25 23  1  0
 26 25  2  0
 27 25  1  0
M  END
$$$$
