YCN.pdb
     RDKit          3D

 27 27  0  0  1  0  0  0  0  0999 V2000
   38.0870   -6.0584   -9.8566 O   0  0  0  0  0  0  0  0  0  0  0  0
   39.3000   -6.7226   -9.6534 C   0  0  0  0  0  0  0  0  0  0  0  0
   39.4506   -8.0133  -10.0539 C   0  0  0  0  0  0  0  0  0  0  0  0
   40.6439   -8.6941   -9.8635 C   0  0  0  0  0  0  0  0  0  0  0  0
   41.7007   -8.0559   -9.2574 C   0  0  0  0  0  0  0  0  0  0  0  0
   42.9628   -8.8065   -9.0646 C   0  0  0  0  0  0  0  0  0  0  0  0
   42.8297   -9.8075   -7.9301 C   0  0  2  0  0  0  0  0  0  0  0  0
   42.7603   -9.0669   -6.6944 N   0  0  0  0  0  0  0  0  0  0  0  0
   44.0337  -10.6797   -7.9419 C   0  0  0  0  0  0  0  0  0  0  0  0
   45.1267  -10.2266   -7.4729 O   0  0  0  0  0  0  0  0  0  0  0  0
   41.5472   -6.7499   -8.8526 C   0  0  0  0  0  0  0  0  0  0  0  0
   40.3567   -6.0677   -9.0415 C   0  0  0  0  0  0  0  0  0  0  0  0
   44.0205  -12.0043   -8.4563 N   0  0  0  0  0  0  0  0  0  0  0  0
   45.2190  -12.8133   -8.5146 C   0  0  1  0  0  0  0  0  0  0  0  0
   44.8818  -14.2976   -8.4440 C   0  0  0  0  0  0  0  0  0  0  0  0
   43.9927  -14.7086   -6.9377 S   0  0  0  0  0  0  0  0  0  0  0  0
   46.0059  -12.5286   -9.7515 C   0  0  0  0  0  0  0  0  0  0  0  0
   45.3900  -12.1096  -10.7579 O   0  0  0  0  0  0  0  0  0  0  0  0
   49.8459  -11.5906  -13.0999 N   0  0  0  0  0  0  0  0  0  0  0  0
   50.0638  -10.9985  -11.8130 C   0  0  0  0  0  0  0  0  0  0  0  0
   51.0317  -10.2098  -11.7515 O   0  0  0  0  0  0  0  0  0  0  0  0
   49.2048  -11.3039  -10.6563 C   0  0  0  0  0  0  0  0  0  0  0  0
   48.1929  -12.3440  -11.0138 C   0  0  2  0  0  0  0  0  0  0  0  0
   47.3884  -12.7066   -9.8384 N   0  0  0  0  0  0  0  0  0  0  0  0
   48.9030  -13.5887  -11.3792 C   0  0  0  0  0  0  0  0  0  0  0  0
   49.0599  -13.9830  -12.5497 O   0  0  0  0  0  0  0  0  0  0  0  0
   49.4389  -14.3891  -10.3864 O   0  0  0  0  0  0  0  0  0  0  0  0
  1  2  1  0
  2  3  2  0
  3  4  1  0
  5  6  1  0
  5  4  2  0
  6  7  1  0
  7  8  1  1
  7  9  1  0
  9 13  1  0
  9 10  2  0
 11  5  1  0
 12 11  2  0
 12  2  1  0
 13 14  1  0
 14 15  1  6
 15 16  1  0
 17 14  1  0
 17 18  2  0
 19 20  1  0
 20 21  2  0
 22 20  1  0
 23 22  1  1
 23 24  1  0
 24 17  1  0
 25 23  1  0
 26 25  2  0
 27 25  1  0
M  END
$$$$
