YCN.pdb
     RDKit          3D

 27 27  0  0  1  0  0  0  0  0999 V2000
   21.7172  -22.0445   -6.6813 O   0  0  0  0  0  0  0  0  0  0  0  0
   22.5316  -21.5070   -7.6821 C   0  0  0  0  0  0  0  0  0  0  0  0
   23.8310  -21.2041   -7.4199 C   0  0  0  0  0  0  0  0  0  0  0  0
   24.6592  -20.6699   -8.3959 C   0  0  0  0  0  0  0  0  0  0  0  0
   24.1616  -20.4394   -9.6572 C   0  0  0  0  0  0  0  0  0  0  0  0
   25.0669  -19.8665  -10.6799 C   0  0  0  0  0  0  0  0  0  0  0  0
   25.1280  -20.7569  -11.9088 C   0  0  2  0  0  0  0  0  0  0  0  0
   25.5915  -22.0565  -11.4890 N   0  0  0  0  0  0  0  0  0  0  0  0
   26.0888  -20.1517  -12.8686 C   0  0  0  0  0  0  0  0  0  0  0  0
   25.8725  -18.9722  -13.2950 O   0  0  0  0  0  0  0  0  0  0  0  0
   22.8467  -20.7463   -9.9213 C   0  0  0  0  0  0  0  0  0  0  0  0
   22.0175  -21.2799   -8.9487 C   0  0  0  0  0  0  0  0  0  0  0  0
   27.2449  -20.8339  -13.3349 N   0  0  0  0  0  0  0  0  0  0  0  0
   28.1683  -20.2234  -14.2671 C   0  0  1  0  0  0  0  0  0  0  0  0
   29.6120  -20.4518  -13.8368 C   0  0  0  0  0  0  0  0  0  0  0  0
   29.9153  -19.8483  -12.1719 S   0  0  0  0  0  0  0  0  0  0  0  0
   27.9622  -20.7414  -15.6525 C   0  0  0  0  0  0  0  0  0  0  0  0
   27.7741  -21.9705  -15.7997 O   0  0  0  0  0  0  0  0  0  0  0  0
   25.2669  -20.4019  -20.0093 N   0  0  0  0  0  0  0  0  0  0  0  0
   24.7608  -20.2565  -18.6763 C   0  0  0  0  0  0  0  0  0  0  0  0
   23.5165  -20.3200  -18.5739 O   0  0  0  0  0  0  0  0  0  0  0  0
   25.6499  -20.0483  -17.5208 C   0  0  0  0  0  0  0  0  0  0  0  0
   27.0823  -20.1134  -17.9421 C   0  0  2  0  0  0  0  0  0  0  0  0
   27.9692  -19.9246  -16.7853 N   0  0  0  0  0  0  0  0  0  0  0  0
   27.3685  -18.9619  -18.8245 C   0  0  0  0  0  0  0  0  0  0  0  0
   27.2213  -17.7724  -18.4871 O   0  0  0  0  0  0  0  0  0  0  0  0
   27.8294  -19.1810  -20.1103 O   0  0  0  0  0  0  0  0  0  0  0  0
  1  2  1  0
  2  3  2  0
  3  4  1  0
  5  6  1  0
  5  4  2  0
  6  7  1  0
  7  8  1  1
  7  9  1  0
  9 13  1  0
  9 10  2  0
 11  5  1  0
 12 11  2  0
 12  2  1  0
 13 14  1  0
 14 15  1  1
 15 16  1  0
 17 14  1  0
 17 18  2  0
 19 20  1  0
 20 21  2  0
 22 20  1  0
 23 22  1  1
 23 24  1  0
 24 17  1  0
 25 23  1  0
 26 25  2  0
 27 25  1  0
M  END
$$$$
