YCN.pdb
     RDKit          3D

 27 27  0  0  1  0  0  0  0  0999 V2000
   29.1464  -28.0752  -17.1780 O   0  0  0  0  0  0  0  0  0  0  0  0
   28.0619  -27.2049  -17.0357 C   0  0  0  0  0  0  0  0  0  0  0  0
   26.7925  -27.6909  -17.0003 C   0  0  0  0  0  0  0  0  0  0  0  0
   25.7000  -26.8479  -16.8601 C   0  0  0  0  0  0  0  0  0  0  0  0
   25.8982  -25.4911  -16.7543 C   0  0  0  0  0  0  0  0  0  0  0  0
   24.7142  -24.6135  -16.6073 C   0  0  0  0  0  0  0  0  0  0  0  0
   24.6279  -24.0518  -15.1989 C   0  0  2  0  0  0  0  0  0  0  0  0
   24.5130  -25.1634  -14.2871 N   0  0  0  0  0  0  0  0  0  0  0  0
   23.4174  -23.1921  -15.1194 C   0  0  0  0  0  0  0  0  0  0  0  0
   22.9232  -22.7239  -16.1947 O   0  0  0  0  0  0  0  0  0  0  0  0
   27.1831  -25.0004  -16.7902 C   0  0  0  0  0  0  0  0  0  0  0  0
   28.2759  -25.8399  -16.9301 C   0  0  0  0  0  0  0  0  0  0  0  0
   22.7829  -22.8668  -13.8902 N   0  0  0  0  0  0  0  0  0  0  0  0
   21.6590  -21.9571  -13.8278 C   0  0  1  0  0  0  0  0  0  0  0  0
   20.9280  -22.0803  -12.4966 C   0  0  0  0  0  0  0  0  0  0  0  0
   20.2394  -23.7234  -12.2634 S   0  0  0  0  0  0  0  0  0  0  0  0
   22.0925  -20.5441  -14.0414 C   0  0  0  0  0  0  0  0  0  0  0  0
   23.2538  -20.2260  -13.6981 O   0  0  0  0  0  0  0  0  0  0  0  0
   25.4125  -17.8375  -16.2432 N   0  0  0  0  0  0  0  0  0  0  0  0
   24.0301  -17.6939  -15.8932 C   0  0  0  0  0  0  0  0  0  0  0  0
   23.7133  -16.5721  -15.4419 O   0  0  0  0  0  0  0  0  0  0  0  0
   23.0637  -18.7932  -16.0575 C   0  0  0  0  0  0  0  0  0  0  0  0
   21.7588  -18.4451  -15.4176 C   0  0  2  0  0  0  0  0  0  0  0  0
   21.2686  -19.5660  -14.6029 N   0  0  0  0  0  0  0  0  0  0  0  0
   20.7412  -18.2805  -16.4779 C   0  0  0  0  0  0  0  0  0  0  0  0
   20.8348  -17.4627  -17.4120 O   0  0  0  0  0  0  0  0  0  0  0  0
   19.6026  -19.0659  -16.4634 O   0  0  0  0  0  0  0  0  0  0  0  0
  1  2  1  0
  2  3  2  0
  3  4  1  0
  5  6  1  0
  5  4  2  0
  6  7  1  0
  7  8  1  1
  7  9  1  0
  9 13  1  0
  9 10  2  0
 11  5  1  0
 12 11  2  0
 12  2  1  0
 13 14  1  0
 14 15  1  1
 15 16  1  0
 17 14  1  0
 17 18  2  0
 19 20  1  0
 20 21  2  0
 22 20  1  0
 23 22  1  6
 23 24  1  0
 24 17  1  0
 25 23  1  0
 26 25  2  0
 27 25  1  0
M  END
$$$$
