YCN.pdb
     RDKit          3D

 27 27  0  0  1  0  0  0  0  0999 V2000
   29.2816  -21.8144  -18.0392 O   0  0  0  0  0  0  0  0  0  0  0  0
   28.1863  -21.2493  -17.3799 C   0  0  0  0  0  0  0  0  0  0  0  0
   27.8458  -21.6688  -16.1321 C   0  0  0  0  0  0  0  0  0  0  0  0
   26.7635  -21.1239  -15.4572 C   0  0  0  0  0  0  0  0  0  0  0  0
   26.0151  -20.1384  -16.0572 C   0  0  0  0  0  0  0  0  0  0  0  0
   24.8637  -19.5752  -15.3151 C   0  0  0  0  0  0  0  0  0  0  0  0
   23.8760  -20.6659  -14.9390 C   0  0  2  0  0  0  0  0  0  0  0  0
   23.5394  -21.3894  -16.1404 N   0  0  0  0  0  0  0  0  0  0  0  0
   22.6652  -20.0151  -14.3723 C   0  0  0  0  0  0  0  0  0  0  0  0
   22.8026  -18.9569  -13.6787 O   0  0  0  0  0  0  0  0  0  0  0  0
   26.3606  -19.7146  -17.3197 C   0  0  0  0  0  0  0  0  0  0  0  0
   27.4409  -20.2569  -17.9960 C   0  0  0  0  0  0  0  0  0  0  0  0
   21.3531  -20.5236  -14.5705 N   0  0  0  0  0  0  0  0  0  0  0  0
   20.1811  -19.8200  -14.0953 C   0  0  1  0  0  0  0  0  0  0  0  0
   20.1477  -18.3917  -14.6249 C   0  0  0  0  0  0  0  0  0  0  0  0
   18.8080  -17.4415  -13.8965 S   0  0  0  0  0  0  0  0  0  0  0  0
   18.9270  -20.5344  -14.4790 C   0  0  0  0  0  0  0  0  0  0  0  0
   18.8089  -20.9220  -15.6637 O   0  0  0  0  0  0  0  0  0  0  0  0
   16.4161  -24.1717  -13.7298 N   0  0  0  0  0  0  0  0  0  0  0  0
   15.8553  -23.3616  -12.6889 C   0  0  0  0  0  0  0  0  0  0  0  0
   15.3475  -23.9978  -11.7401 O   0  0  0  0  0  0  0  0  0  0  0  0
   15.8812  -21.8901  -12.7436 C   0  0  0  0  0  0  0  0  0  0  0  0
   16.6136  -21.4227  -13.9596 C   0  0  2  0  0  0  0  0  0  0  0  0
   17.8856  -20.7892  -13.5840 N   0  0  0  0  0  0  0  0  0  0  0  0
   15.8312  -20.3416  -14.5965 C   0  0  0  0  0  0  0  0  0  0  0  0
   16.1954  -19.1518  -14.6412 O   0  0  0  0  0  0  0  0  0  0  0  0
   14.6154  -20.6324  -15.1888 O   0  0  0  0  0  0  0  0  0  0  0  0
  1  2  1  0
  2  3  2  0
  3  4  1  0
  5  6  1  0
  5  4  2  0
  6  7  1  0
  7  8  1  6
  7  9  1  0
  9 13  1  0
  9 10  2  0
 11  5  1  0
 12 11  2  0
 12  2  1  0
 13 14  1  0
 14 15  1  6
 15 16  1  0
 17 14  1  0
 17 18  2  0
 19 20  1  0
 20 21  2  0
 22 20  1  0
 23 22  1  1
 23 24  1  0
 24 17  1  0
 25 23  1  0
 26 25  2  0
 27 25  1  0
M  END
$$$$
