YCN.pdb
     RDKit          3D

 27 27  0  0  1  0  0  0  0  0999 V2000
   27.5699  -17.5929  -15.0720 O   0  0  0  0  0  0  0  0  0  0  0  0
   27.0108  -16.3871  -15.5047 C   0  0  0  0  0  0  0  0  0  0  0  0
   25.9992  -15.8095  -14.8035 C   0  0  0  0  0  0  0  0  0  0  0  0
   25.4278  -14.6136  -15.2123 C   0  0  0  0  0  0  0  0  0  0  0  0
   25.8897  -13.9941  -16.3501 C   0  0  0  0  0  0  0  0  0  0  0  0
   25.2607  -12.7192  -16.7652 C   0  0  0  0  0  0  0  0  0  0  0  0
   23.9321  -12.9707  -17.4568 C   0  0  2  0  0  0  0  0  0  0  0  0
   24.2025  -13.6624  -18.6931 N   0  0  0  0  0  0  0  0  0  0  0  0
   23.2987  -11.6537  -17.7303 C   0  0  0  0  0  0  0  0  0  0  0  0
   23.6733  -10.9903  -18.7499 O   0  0  0  0  0  0  0  0  0  0  0  0
   26.9134  -14.5795  -17.0588 C   0  0  0  0  0  0  0  0  0  0  0  0
   27.4858  -15.7736  -16.6528 C   0  0  0  0  0  0  0  0  0  0  0  0
   22.2880  -11.0977  -16.9005 N   0  0  0  0  0  0  0  0  0  0  0  0
   21.6434   -9.8416  -17.2187 C   0  0  1  0  0  0  0  0  0  0  0  0
   20.1755  -10.0525  -17.5685 C   0  0  0  0  0  0  0  0  0  0  0  0
   19.3498   -8.5015  -17.9441 S   0  0  0  0  0  0  0  0  0  0  0  0
   21.7632   -8.8696  -16.0913 C   0  0  0  0  0  0  0  0  0  0  0  0
   21.6703   -9.3090  -14.9225 O   0  0  0  0  0  0  0  0  0  0  0  0
   22.6215   -4.6285  -13.2381 N   0  0  0  0  0  0  0  0  0  0  0  0
   22.7537   -4.2459  -14.6130 C   0  0  0  0  0  0  0  0  0  0  0  0
   23.0467   -3.0453  -14.8012 O   0  0  0  0  0  0  0  0  0  0  0  0
   22.5568   -5.2044  -15.7137 C   0  0  0  0  0  0  0  0  0  0  0  0
   22.1402   -6.5371  -15.1811 C   0  0  2  0  0  0  0  0  0  0  0  0
   21.9729   -7.5014  -16.2778 N   0  0  0  0  0  0  0  0  0  0  0  0
   20.7920   -6.4087  -14.5873 C   0  0  0  0  0  0  0  0  0  0  0  0
   20.5716   -5.9418  -13.4544 O   0  0  0  0  0  0  0  0  0  0  0  0
   19.6842   -6.8222  -15.3053 O   0  0  0  0  0  0  0  0  0  0  0  0
  1  2  1  0
  2  3  2  0
  3  4  1  0
  5  6  1  0
  5  4  2  0
  6  7  1  0
  7  8  1  6
  7  9  1  0
  9 13  1  0
  9 10  2  0
 11  5  1  0
 12 11  2  0
 12  2  1  0
 13 14  1  0
 14 15  1  1
 15 16  1  0
 17 14  1  0
 17 18  2  0
 19 20  1  0
 20 21  2  0
 22 20  1  0
 23 22  1  6
 23 24  1  0
 24 17  1  0
 25 23  1  0
 26 25  2  0
 27 25  1  0
M  END
$$$$
