YCN.pdb
     RDKit          3D

 27 27  0  0  1  0  0  0  0  0999 V2000
   28.8180  -14.0594  -18.0953 O   0  0  0  0  0  0  0  0  0  0  0  0
   28.2328  -15.1502  -17.4461 C   0  0  0  0  0  0  0  0  0  0  0  0
   27.9274  -16.2786  -18.1406 C   0  0  0  0  0  0  0  0  0  0  0  0
   27.3464  -17.3741  -17.5193 C   0  0  0  0  0  0  0  0  0  0  0  0
   27.0708  -17.3241  -16.1728 C   0  0  0  0  0  0  0  0  0  0  0  0
   26.4485  -18.5070  -15.5347 C   0  0  0  0  0  0  0  0  0  0  0  0
   27.4884  -19.3373  -14.8027 C   0  0  2  0  0  0  0  0  0  0  0  0
   28.2391  -20.0739  -15.7896 N   0  0  0  0  0  0  0  0  0  0  0  0
   26.7743  -20.2726  -13.8938 C   0  0  0  0  0  0  0  0  0  0  0  0
   26.5224  -21.4525  -14.2989 O   0  0  0  0  0  0  0  0  0  0  0  0
   27.3803  -16.1819  -15.4710 C   0  0  0  0  0  0  0  0  0  0  0  0
   27.9606  -15.0865  -16.0889 C   0  0  0  0  0  0  0  0  0  0  0  0
   26.3573  -19.9073  -12.5853 N   0  0  0  0  0  0  0  0  0  0  0  0
   25.5323  -20.7780  -11.7755 C   0  0  1  0  0  0  0  0  0  0  0  0
   25.7574  -20.5204  -10.2907 C   0  0  0  0  0  0  0  0  0  0  0  0
   24.6208  -21.4662   -9.2699 S   0  0  0  0  0  0  0  0  0  0  0  0
   24.0851  -20.6159  -12.1064 C   0  0  0  0  0  0  0  0  0  0  0  0
   23.6361  -19.4538  -12.2314 O   0  0  0  0  0  0  0  0  0  0  0  0
   19.1240  -21.4551  -13.3457 N   0  0  0  0  0  0  0  0  0  0  0  0
   19.8099  -22.7094  -13.4491 C   0  0  0  0  0  0  0  0  0  0  0  0
   19.1107  -23.6616  -13.8579 O   0  0  0  0  0  0  0  0  0  0  0  0
   21.2327  -22.8537  -13.0972 C   0  0  0  0  0  0  0  0  0  0  0  0
   21.7884  -21.5536  -12.6131 C   0  0  2  0  0  0  0  0  0  0  0  0
   23.2136  -21.6931  -12.2820 N   0  0  0  0  0  0  0  0  0  0  0  0
   21.1384  -21.2099  -11.3301 C   0  0  0  0  0  0  0  0  0  0  0  0
   21.4064  -21.7582  -10.2448 O   0  0  0  0  0  0  0  0  0  0  0  0
   20.1687  -20.2241  -11.2950 O   0  0  0  0  0  0  0  0  0  0  0  0
  1  2  1  0
  2  3  2  0
  3  4  1  0
  5  6  1  0
  5  4  2  0
  6  7  1  0
  7  8  1  6
  7  9  1  0
  9 13  1  0
  9 10  2  0
 11  5  1  0
 12 11  2  0
 12  2  1  0
 13 14  1  0
 14 15  1  1
 15 16  1  0
 17 14  1  0
 17 18  2  0
 19 20  1  0
 20 21  2  0
 22 20  1  0
 23 22  1  1
 23 24  1  0
 24 17  1  0
 25 23  1  0
 26 25  2  0
 27 25  1  0
M  END
$$$$
