YCN.pdb
     RDKit          3D

 27 27  0  0  1  0  0  0  0  0999 V2000
   30.5802   -9.4493  -18.7704 O   0  0  0  0  0  0  0  0  0  0  0  0
   29.6177   -9.8408  -17.8354 C   0  0  0  0  0  0  0  0  0  0  0  0
   28.6231   -8.9860  -17.4761 C   0  0  0  0  0  0  0  0  0  0  0  0
   27.6565   -9.3507  -16.5507 C   0  0  0  0  0  0  0  0  0  0  0  0
   27.6994  -10.6018  -15.9810 C   0  0  0  0  0  0  0  0  0  0  0  0
   26.6561  -10.9648  -14.9944 C   0  0  0  0  0  0  0  0  0  0  0  0
   25.4872  -11.6580  -15.6725 C   0  0  2  0  0  0  0  0  0  0  0  0
   26.0141  -12.7538  -16.4482 N   0  0  0  0  0  0  0  0  0  0  0  0
   24.8193  -10.6709  -16.5614 C   0  0  0  0  0  0  0  0  0  0  0  0
   25.0165  -10.7407  -17.8168 O   0  0  0  0  0  0  0  0  0  0  0  0
   28.7061  -11.4659  -16.3454 C   0  0  0  0  0  0  0  0  0  0  0  0
   29.6727  -11.1043  -17.2692 C   0  0  0  0  0  0  0  0  0  0  0  0
   23.9656   -9.6463  -16.0708 N   0  0  0  0  0  0  0  0  0  0  0  0
   23.2762   -8.7355  -16.9594 C   0  0  1  0  0  0  0  0  0  0  0  0
   21.8950   -9.2659  -17.3234 C   0  0  0  0  0  0  0  0  0  0  0  0
   20.9476   -8.0666  -18.2680 S   0  0  0  0  0  0  0  0  0  0  0  0
   23.1558   -7.3752  -16.3549 C   0  0  0  0  0  0  0  0  0  0  0  0
   22.9205   -7.2948  -15.1277 O   0  0  0  0  0  0  0  0  0  0  0  0
   23.2605   -2.2612  -15.5285 N   0  0  0  0  0  0  0  0  0  0  0  0
   23.8120   -2.5018  -16.8294 C   0  0  0  0  0  0  0  0  0  0  0  0
   24.2729   -1.4911  -17.4028 O   0  0  0  0  0  0  0  0  0  0  0  0
   23.8291   -3.8440  -17.4353 C   0  0  0  0  0  0  0  0  0  0  0  0
   23.2341   -4.8488  -16.5026 C   0  0  2  0  0  0  0  0  0  0  0  0
   23.2923   -6.1952  -17.0894 N   0  0  0  0  0  0  0  0  0  0  0  0
   21.7897   -4.5650  -16.3607 C   0  0  0  0  0  0  0  0  0  0  0  0
   20.9289   -4.8998  -17.1956 O   0  0  0  0  0  0  0  0  0  0  0  0
   21.3302   -3.8882  -15.2453 O   0  0  0  0  0  0  0  0  0  0  0  0
  1  2  1  0
  2  3  2  0
  3  4  1  0
  5  6  1  0
  5  4  2  0
  6  7  1  0
  7  8  1  6
  7  9  1  0
  9 13  1  0
  9 10  2  0
 11  5  1  0
 12 11  2  0
 12  2  1  0
 13 14  1  0
 14 15  1  1
 15 16  1  0
 17 14  1  0
 17 18  2  0
 19 20  1  0
 20 21  2  0
 22 20  1  0
 23 22  1  6
 23 24  1  0
 24 17  1  0
 25 23  1  0
 26 25  2  0
 27 25  1  0
M  END
$$$$
