YCN.pdb
     RDKit          3D

 27 27  0  0  1  0  0  0  0  0999 V2000
   24.2979  -16.2329  -20.8667 O   0  0  0  0  0  0  0  0  0  0  0  0
   23.8191  -17.0108  -19.8086 C   0  0  0  0  0  0  0  0  0  0  0  0
   23.9704  -18.3619  -19.8275 C   0  0  0  0  0  0  0  0  0  0  0  0
   23.5039  -19.1555  -18.7899 C   0  0  0  0  0  0  0  0  0  0  0  0
   22.8742  -18.5695  -17.7168 C   0  0  0  0  0  0  0  0  0  0  0  0
   22.3841  -19.4401  -16.6235 C   0  0  0  0  0  0  0  0  0  0  0  0
   23.2483  -19.2909  -15.3836 C   0  0  2  0  0  0  0  0  0  0  0  0
   24.5244  -19.9039  -15.6591 N   0  0  0  0  0  0  0  0  0  0  0  0
   22.5700  -19.9931  -14.2623 C   0  0  0  0  0  0  0  0  0  0  0  0
   22.9382  -21.1740  -13.9628 O   0  0  0  0  0  0  0  0  0  0  0  0
   22.7217  -17.2022  -17.6988 C   0  0  0  0  0  0  0  0  0  0  0  0
   23.1865  -16.4074  -18.7335 C   0  0  0  0  0  0  0  0  0  0  0  0
   21.5226  -19.4028  -13.5047 N   0  0  0  0  0  0  0  0  0  0  0  0
   20.9080  -20.0875  -12.3876 C   0  0  1  0  0  0  0  0  0  0  0  0
   20.8563  -19.1907  -11.1569 C   0  0  0  0  0  0  0  0  0  0  0  0
   20.1207  -20.0313   -9.7495 S   0  0  0  0  0  0  0  0  0  0  0  0
   19.5336  -20.5602  -12.7309 C   0  0  0  0  0  0  0  0  0  0  0  0
   18.7847  -19.7826  -13.3651 O   0  0  0  0  0  0  0  0  0  0  0  0
   15.1352  -23.2934  -13.0478 N   0  0  0  0  0  0  0  0  0  0  0  0
   16.1550  -24.1834  -12.5768 C   0  0  0  0  0  0  0  0  0  0  0  0
   15.7843  -25.3637  -12.3973 O   0  0  0  0  0  0  0  0  0  0  0  0
   17.5338  -23.7301  -12.3264 C   0  0  0  0  0  0  0  0  0  0  0  0
   17.6739  -22.2761  -12.6422 C   0  0  2  0  0  0  0  0  0  0  0  0
   19.0468  -21.8214  -12.3801 N   0  0  0  0  0  0  0  0  0  0  0  0
   16.8378  -21.5044  -11.6977 C   0  0  0  0  0  0  0  0  0  0  0  0
   17.2950  -20.7541  -10.8155 O   0  0  0  0  0  0  0  0  0  0  0  0
   15.4594  -21.5968  -11.7688 O   0  0  0  0  0  0  0  0  0  0  0  0
  1  2  1  0
  2  3  2  0
  3  4  1  0
  5  6  1  0
  5  4  2  0
  6  7  1  0
  7  8  1  6
  7  9  1  0
  9 13  1  0
  9 10  2  0
 11  5  1  0
 12 11  2  0
 12  2  1  0
 13 14  1  0
 14 15  1  1
 15 16  1  0
 17 14  1  0
 17 18  2  0
 19 20  1  0
 20 21  2  0
 22 20  1  0
 23 22  1  1
 23 24  1  0
 24 17  1  0
 25 23  1  0
 26 25  2  0
 27 25  1  0
M  END
$$$$
