LVD.pdb
     RDKit          3D

 24 23  0  0  1  0  0  0  0  0999 V2000
    4.4497  -19.3821   23.2506 C   0  0  0  0  0  0  0  0  0  0  0  0
    5.9031  -19.7084   23.1083 C   0  0  2  0  0  0  0  0  0  0  0  0
    6.1258  -21.1308   23.5698 C   0  0  0  0  0  0  0  0  0  0  0  0
    6.8064  -18.7361   23.8137 C   0  0  0  0  0  0  0  0  0  0  0  0
    6.5122  -17.3383   23.2840 C   0  0  2  0  0  0  0  0  0  0  0  0
    6.7005  -17.3263   21.8636 N   0  0  0  0  0  0  0  0  0  0  0  0
    7.3994  -16.3376   23.9657 C   0  0  0  0  0  0  0  0  0  0  0  0
    8.5657  -16.1501   23.5405 O   0  0  0  0  0  0  0  0  0  0  0  0
    6.4096  -12.7127   25.4361 C   0  0  0  0  0  0  0  0  0  0  0  0
    7.0567  -13.6337   26.5078 C   0  0  2  0  0  0  0  0  0  0  0  0
    7.9427  -12.7074   27.2940 C   0  0  0  0  0  0  0  0  0  0  0  0
    7.8547  -14.6906   25.8173 C   0  0  2  0  0  0  0  0  0  0  0  0
    6.9633  -15.5922   25.0801 N   0  0  0  0  0  0  0  0  0  0  0  0
    8.6862  -15.5097   26.7677 C   0  0  0  0  0  0  0  0  0  0  0  0
    8.1081  -16.2529   27.6137 O   0  0  0  0  0  0  0  0  0  0  0  0
   10.0837  -15.4865   26.7506 N   0  0  0  0  0  0  0  0  0  0  0  0
   10.9865  -16.1653   27.6291 C   0  0  1  0  0  0  0  0  0  0  0  0
   12.4088  -16.3095   27.1169 C   0  0  0  0  0  0  0  0  0  0  0  0
   12.4192  -17.0613   25.8316 C   0  0  0  0  0  0  0  0  0  0  0  0
   11.6066  -18.0321   25.6964 O   0  0  0  0  0  0  0  0  0  0  0  0
   10.9476  -15.6569   28.9909 C   0  0  0  0  0  0  0  0  0  0  0  0
   10.4703  -14.5290   29.3100 O   0  0  0  0  0  0  0  0  0  0  0  0
   13.2541  -16.7660   24.7885 O   0  0  0  0  0  0  0  0  0  0  0  0
   11.4534  -16.4231   30.0310 O   0  0  0  0  0  0  0  0  0  0  0  0
  2  1  1  1
  2  3  1  0
  4  5  1  0
  4  2  1  0
  5  7  1  0
  5  6  1  6
  7 13  1  0
  8  7  2  0
 10 11  1  1
 10  9  1  0
 12 10  1  0
 12 13  1  1
 14 12  1  0
 14 16  1  0
 15 14  2  0
 17 16  1  0
 17 21  1  0
 17 18  1  6
 19 18  1  0
 20 19  2  0
 21 22  2  0
 21 24  1  0
 23 19  1  0
M  END
$$$$
