LVD.pdb
     RDKit          3D

 24 23  0  0  1  0  0  0  0  0999 V2000
    6.3314  -20.6676   18.6780 C   0  0  0  0  0  0  0  0  0  0  0  0
    7.8159  -20.8056   18.5507 C   0  0  2  0  0  0  0  0  0  0  0  0
    8.2149  -22.1845   19.0254 C   0  0  0  0  0  0  0  0  0  0  0  0
    8.5803  -19.7207   19.2561 C   0  0  0  0  0  0  0  0  0  0  0  0
    8.0725  -18.3743   18.7557 C   0  0  2  0  0  0  0  0  0  0  0  0
    8.4101  -18.2317   17.3705 N   0  0  0  0  0  0  0  0  0  0  0  0
    8.6607  -17.2683   19.5827 C   0  0  0  0  0  0  0  0  0  0  0  0
    9.8119  -16.8414   19.3206 O   0  0  0  0  0  0  0  0  0  0  0  0
    6.9575  -13.9075   20.7376 C   0  0  0  0  0  0  0  0  0  0  0  0
    7.4878  -14.6984   21.9658 C   0  0  2  0  0  0  0  0  0  0  0  0
    8.0589  -13.6348   22.8625 C   0  0  0  0  0  0  0  0  0  0  0  0
    8.5465  -15.6471   21.5081 C   0  0  2  0  0  0  0  0  0  0  0  0
    7.9570  -16.6852   20.6562 N   0  0  0  0  0  0  0  0  0  0  0  0
    9.2663  -16.3147   22.6491 C   0  0  0  0  0  0  0  0  0  0  0  0
    8.6398  -17.1366   23.3803 O   0  0  0  0  0  0  0  0  0  0  0  0
   10.6118  -16.0655   22.9338 N   0  0  0  0  0  0  0  0  0  0  0  0
   11.4016  -16.6057   23.9978 C   0  0  1  0  0  0  0  0  0  0  0  0
   12.8552  -16.1668   24.0175 C   0  0  0  0  0  0  0  0  0  0  0  0
   13.4908  -16.4321   22.6973 C   0  0  0  0  0  0  0  0  0  0  0  0
   14.3519  -15.5992   22.2664 O   0  0  0  0  0  0  0  0  0  0  0  0
   10.7735  -16.4664   25.3019 C   0  0  0  0  0  0  0  0  0  0  0  0
   10.1502  -15.4312   25.6783 O   0  0  0  0  0  0  0  0  0  0  0  0
   13.2001  -17.5217   21.9224 O   0  0  0  0  0  0  0  0  0  0  0  0
   10.8384  -17.5074   26.2166 O   0  0  0  0  0  0  0  0  0  0  0  0
  2  1  1  1
  2  3  1  0
  4  5  1  0
  4  2  1  0
  5  7  1  0
  5  6  1  6
  7 13  1  0
  8  7  2  0
 10 11  1  1
 10  9  1  0
 12 10  1  0
 12 13  1  6
 14 12  1  0
 14 16  1  0
 15 14  2  0
 17 16  1  0
 17 21  1  0
 17 18  1  1
 19 18  1  0
 20 19  2  0
 21 22  2  0
 21 24  1  0
 23 19  1  0
M  END
$$$$
