LVD.pdb
     RDKit          3D

 24 23  0  0  1  0  0  0  0  0999 V2000
    4.9139  -20.6400   24.4761 C   0  0  0  0  0  0  0  0  0  0  0  0
    5.9778  -21.4353   23.7871 C   0  0  2  0  0  0  0  0  0  0  0  0
    6.6157  -22.3636   24.7956 C   0  0  0  0  0  0  0  0  0  0  0  0
    6.9942  -20.5859   23.0770 C   0  0  0  0  0  0  0  0  0  0  0  0
    6.2527  -19.5602   22.2290 C   0  0  2  0  0  0  0  0  0  0  0  0
    5.7257  -20.2079   21.0647 N   0  0  0  0  0  0  0  0  0  0  0  0
    7.1782  -18.4366   21.8629 C   0  0  0  0  0  0  0  0  0  0  0  0
    7.9301  -18.5514   20.8640 O   0  0  0  0  0  0  0  0  0  0  0  0
    6.2846  -14.6749   21.6689 C   0  0  0  0  0  0  0  0  0  0  0  0
    7.5378  -14.8366   22.5737 C   0  0  2  0  0  0  0  0  0  0  0  0
    8.4344  -13.7037   22.1565 C   0  0  0  0  0  0  0  0  0  0  0  0
    8.1695  -16.1600   22.2907 C   0  0  2  0  0  0  0  0  0  0  0  0
    7.2332  -17.2426   22.6105 N   0  0  0  0  0  0  0  0  0  0  0  0
    9.4399  -16.3795   23.0677 C   0  0  0  0  0  0  0  0  0  0  0  0
    9.4571  -16.1321   24.3090 O   0  0  0  0  0  0  0  0  0  0  0  0
   10.6106  -16.8543   22.4697 N   0  0  0  0  0  0  0  0  0  0  0  0
   11.9432  -16.8164   22.9899 C   0  0  1  0  0  0  0  0  0  0  0  0
   12.8549  -15.7722   22.3699 C   0  0  0  0  0  0  0  0  0  0  0  0
   14.2495  -15.9501   22.8606 C   0  0  0  0  0  0  0  0  0  0  0  0
   14.4868  -16.9101   23.6626 O   0  0  0  0  0  0  0  0  0  0  0  0
   11.9874  -16.7835   24.4431 C   0  0  0  0  0  0  0  0  0  0  0  0
   11.3550  -15.9455   25.1498 O   0  0  0  0  0  0  0  0  0  0  0  0
   15.2894  -15.1385   22.4969 O   0  0  0  0  0  0  0  0  0  0  0  0
   12.7567  -17.7088   25.1336 O   0  0  0  0  0  0  0  0  0  0  0  0
  2  1  1  1
  2  3  1  0
  4  5  1  0
  4  2  1  0
  5  7  1  0
  5  6  1  6
  7 13  1  0
  8  7  2  0
 10 11  1  6
 10  9  1  0
 12 10  1  0
 12 13  1  1
 14 12  1  0
 14 16  1  0
 15 14  2  0
 17 16  1  0
 17 21  1  0
 17 18  1  6
 19 18  1  0
 20 19  2  0
 21 22  2  0
 21 24  1  0
 23 19  1  0
M  END
$$$$
