LVD.pdb
     RDKit          3D

 24 23  0  0  1  0  0  0  0  0999 V2000
    7.2719  -16.4447   16.0779 C   0  0  0  0  0  0  0  0  0  0  0  0
    8.5762  -15.7522   15.8365 C   0  0  2  0  0  0  0  0  0  0  0  0
    9.4631  -16.6645   15.0198 C   0  0  0  0  0  0  0  0  0  0  0  0
    9.2495  -15.2882   17.0976 C   0  0  0  0  0  0  0  0  0  0  0  0
    8.2827  -14.3838   17.8515 C   0  0  2  0  0  0  0  0  0  0  0  0
    8.1556  -13.1428   17.1467 N   0  0  0  0  0  0  0  0  0  0  0  0
    8.7716  -14.1725   19.2550 C   0  0  0  0  0  0  0  0  0  0  0  0
    9.7301  -13.3901   19.4678 O   0  0  0  0  0  0  0  0  0  0  0  0
    7.9062  -14.1052   24.0638 C   0  0  0  0  0  0  0  0  0  0  0  0
    7.4227  -14.3440   22.6062 C   0  0  2  0  0  0  0  0  0  0  0  0
    6.5652  -15.5753   22.7062 C   0  0  0  0  0  0  0  0  0  0  0  0
    8.6130  -14.5818   21.7360 C   0  0  2  0  0  0  0  0  0  0  0  0
    8.1848  -14.8299   20.3555 N   0  0  0  0  0  0  0  0  0  0  0  0
    9.4497  -15.7458   22.1952 C   0  0  0  0  0  0  0  0  0  0  0  0
    9.4751  -16.8028   21.4992 O   0  0  0  0  0  0  0  0  0  0  0  0
   10.2104  -15.7047   23.3670 N   0  0  0  0  0  0  0  0  0  0  0  0
   11.2986  -16.5556   23.7409 C   0  0  1  0  0  0  0  0  0  0  0  0
   12.6847  -15.9829   23.5028 C   0  0  0  0  0  0  0  0  0  0  0  0
   13.5039  -16.9341   22.7019 C   0  0  0  0  0  0  0  0  0  0  0  0
   13.4584  -18.1698   23.0051 O   0  0  0  0  0  0  0  0  0  0  0  0
   11.1592  -17.1045   25.0802 C   0  0  0  0  0  0  0  0  0  0  0  0
   10.3465  -16.6618   25.9436 O   0  0  0  0  0  0  0  0  0  0  0  0
   14.3027  -16.5526   21.6585 O   0  0  0  0  0  0  0  0  0  0  0  0
   11.9453  -18.1776   25.4742 O   0  0  0  0  0  0  0  0  0  0  0  0
  2  1  1  1
  2  3  1  0
  4  5  1  0
  4  2  1  0
  5  7  1  0
  5  6  1  6
  7 13  1  0
  8  7  2  0
 10 11  1  1
 10  9  1  0
 12 10  1  0
 12 13  1  6
 14 12  1  0
 14 16  1  0
 15 14  2  0
 17 16  1  0
 17 21  1  0
 17 18  1  1
 19 18  1  0
 20 19  2  0
 21 22  2  0
 21 24  1  0
 23 19  1  0
M  END
$$$$
