LVD.pdb
     RDKit          3D

 24 23  0  0  1  0  0  0  0  0999 V2000
    4.0052  -16.6261   20.9634 C   0  0  0  0  0  0  0  0  0  0  0  0
    5.2783  -17.4118   20.9940 C   0  0  2  0  0  0  0  0  0  0  0  0
    4.9366  -18.8803   21.1062 C   0  0  0  0  0  0  0  0  0  0  0  0
    6.2294  -16.9679   22.0698 C   0  0  0  0  0  0  0  0  0  0  0  0
    6.4647  -15.4709   21.9131 C   0  0  2  0  0  0  0  0  0  0  0  0
    7.0336  -15.2187   20.6224 N   0  0  0  0  0  0  0  0  0  0  0  0
    7.3571  -14.9771   23.0144 C   0  0  0  0  0  0  0  0  0  0  0  0
    8.6037  -15.0495   22.8836 O   0  0  0  0  0  0  0  0  0  0  0  0
    6.7136  -11.7721   25.5121 C   0  0  0  0  0  0  0  0  0  0  0  0
    6.9571  -13.1211   26.2444 C   0  0  2  0  0  0  0  0  0  0  0  0
    7.7976  -12.7418   27.4323 C   0  0  0  0  0  0  0  0  0  0  0  0
    7.6967  -14.0404   25.3286 C   0  0  2  0  0  0  0  0  0  0  0  0
    6.8380  -14.4282   24.2047 N   0  0  0  0  0  0  0  0  0  0  0  0
    8.1779  -15.2892   26.0176 C   0  0  0  0  0  0  0  0  0  0  0  0
    7.3321  -16.0758   26.5356 O   0  0  0  0  0  0  0  0  0  0  0  0
    9.5328  -15.6211   26.1051 N   0  0  0  0  0  0  0  0  0  0  0  0
   10.1161  -16.8008   26.6673 C   0  0  1  0  0  0  0  0  0  0  0  0
   11.3147  -17.3554   25.9179 C   0  0  0  0  0  0  0  0  0  0  0  0
   11.8588  -18.5464   26.6268 C   0  0  0  0  0  0  0  0  0  0  0  0
   11.0687  -19.5150   26.8688 O   0  0  0  0  0  0  0  0  0  0  0  0
   10.3719  -16.6860   28.0942 C   0  0  0  0  0  0  0  0  0  0  0  0
   10.7852  -15.6291   28.6546 O   0  0  0  0  0  0  0  0  0  0  0  0
   13.1610  -18.6567   27.0324 O   0  0  0  0  0  0  0  0  0  0  0  0
   10.1628  -17.7770   28.9253 O   0  0  0  0  0  0  0  0  0  0  0  0
  2  1  1  1
  2  3  1  0
  4  5  1  0
  4  2  1  0
  5  7  1  0
  5  6  1  6
  7 13  1  0
  8  7  2  0
 10 11  1  1
 10  9  1  0
 12 10  1  0
 12 13  1  6
 14 12  1  0
 14 16  1  0
 15 14  2  0
 17 16  1  0
 17 21  1  0
 17 18  1  6
 19 18  1  0
 20 19  2  0
 21 22  2  0
 21 24  1  0
 23 19  1  0
M  END
$$$$
