LVD.pdb
     RDKit          3D

 24 23  0  0  1  0  0  0  0  0999 V2000
    8.4181  -14.4748   18.7905 C   0  0  0  0  0  0  0  0  0  0  0  0
    7.3519  -13.7208   19.5210 C   0  0  2  0  0  0  0  0  0  0  0  0
    6.9628  -12.5146   18.6967 C   0  0  0  0  0  0  0  0  0  0  0  0
    7.7384  -13.3469   20.9244 C   0  0  0  0  0  0  0  0  0  0  0  0
    8.0478  -14.6256   21.6927 C   0  0  2  0  0  0  0  0  0  0  0  0
    6.8769  -15.4510   21.7194 N   0  0  0  0  0  0  0  0  0  0  0  0
    8.5148  -14.2872   23.0786 C   0  0  0  0  0  0  0  0  0  0  0  0
    9.5777  -13.6375   23.2347 O   0  0  0  0  0  0  0  0  0  0  0  0
    6.7007  -12.4544   25.6517 C   0  0  0  0  0  0  0  0  0  0  0  0
    7.1598  -13.7512   26.3747 C   0  0  2  0  0  0  0  0  0  0  0  0
    7.6572  -13.2657   27.7082 C   0  0  0  0  0  0  0  0  0  0  0  0
    8.2585  -14.3815   25.5833 C   0  0  2  0  0  0  0  0  0  0  0  0
    7.7928  -14.6782   24.2246 N   0  0  0  0  0  0  0  0  0  0  0  0
    8.7699  -15.6541   26.2036 C   0  0  0  0  0  0  0  0  0  0  0  0
    7.9553  -16.5881   26.4617 O   0  0  0  0  0  0  0  0  0  0  0  0
   10.1207  -15.8501   26.5044 N   0  0  0  0  0  0  0  0  0  0  0  0
   10.7248  -16.9746   27.1512 C   0  0  1  0  0  0  0  0  0  0  0  0
   12.1767  -17.2319   26.7887 C   0  0  0  0  0  0  0  0  0  0  0  0
   12.2988  -17.5327   25.3354 C   0  0  0  0  0  0  0  0  0  0  0  0
   13.4199  -17.3223   24.7700 O   0  0  0  0  0  0  0  0  0  0  0  0
   10.5127  -16.9868   28.5898 C   0  0  0  0  0  0  0  0  0  0  0  0
   10.4774  -18.0409   29.2894 O   0  0  0  0  0  0  0  0  0  0  0  0
   11.2722  -18.0224   24.5748 O   0  0  0  0  0  0  0  0  0  0  0  0
   10.3346  -15.7929   29.2737 O   0  0  0  0  0  0  0  0  0  0  0  0
  2  1  1  6
  2  3  1  0
  4  5  1  0
  4  2  1  0
  5  7  1  0
  5  6  1  1
  7 13  1  0
  8  7  2  0
 10 11  1  1
 10  9  1  0
 12 10  1  0
 12 13  1  6
 14 12  1  0
 14 16  1  0
 15 14  2  0
 17 16  1  0
 17 21  1  0
 17 18  1  1
 19 18  1  0
 20 19  2  0
 21 22  2  0
 21 24  1  0
 23 19  1  0
M  END
$$$$
