LVD.pdb
     RDKit          3D

 24 23  0  0  1  0  0  0  0  0999 V2000
    6.2596  -12.6950   26.2570 C   0  0  0  0  0  0  0  0  0  0  0  0
    7.0487  -13.4292   27.2950 C   0  0  2  0  0  0  0  0  0  0  0  0
    8.0279  -12.4663   27.9274 C   0  0  0  0  0  0  0  0  0  0  0  0
    7.7270  -14.6629   26.7691 C   0  0  0  0  0  0  0  0  0  0  0  0
    6.7132  -15.4565   25.9547 C   0  0  2  0  0  0  0  0  0  0  0  0
    6.2094  -16.5332   26.7547 N   0  0  0  0  0  0  0  0  0  0  0  0
    7.3540  -15.9600   24.6941 C   0  0  0  0  0  0  0  0  0  0  0  0
    7.6560  -17.1745   24.5929 O   0  0  0  0  0  0  0  0  0  0  0  0
    6.4863  -14.6532   21.0147 C   0  0  0  0  0  0  0  0  0  0  0  0
    8.0218  -14.6658   21.2539 C   0  0  2  0  0  0  0  0  0  0  0  0
    8.5843  -15.2059   19.9682 C   0  0  0  0  0  0  0  0  0  0  0  0
    8.3238  -15.5733   22.4011 C   0  0  2  0  0  0  0  0  0  0  0  0
    7.6317  -15.1066   23.6069 N   0  0  0  0  0  0  0  0  0  0  0  0
    9.7961  -15.6680   22.6996 C   0  0  0  0  0  0  0  0  0  0  0  0
   10.3686  -14.7129   23.3015 O   0  0  0  0  0  0  0  0  0  0  0  0
   10.5628  -16.7801   22.3401 N   0  0  0  0  0  0  0  0  0  0  0  0
   11.9652  -16.9843   22.5384 C   0  0  1  0  0  0  0  0  0  0  0  0
   12.8071  -15.7213   22.5852 C   0  0  0  0  0  0  0  0  0  0  0  0
   14.2552  -16.0668   22.5573 C   0  0  0  0  0  0  0  0  0  0  0  0
   14.5900  -17.2209   22.1366 O   0  0  0  0  0  0  0  0  0  0  0  0
   12.2604  -17.8764   23.6482 C   0  0  0  0  0  0  0  0  0  0  0  0
   12.8244  -19.0019   23.5185 O   0  0  0  0  0  0  0  0  0  0  0  0
   15.2453  -15.2120   22.9590 O   0  0  0  0  0  0  0  0  0  0  0  0
   11.9197  -17.5086   24.9418 O   0  0  0  0  0  0  0  0  0  0  0  0
  2  1  1  6
  2  3  1  0
  4  5  1  0
  4  2  1  0
  5  7  1  0
  5  6  1  1
  7 13  1  0
  8  7  2  0
 10 11  1  6
 10  9  1  0
 12 10  1  0
 12 13  1  1
 14 12  1  0
 14 16  1  0
 15 14  2  0
 17 16  1  0
 17 21  1  0
 17 18  1  1
 19 18  1  0
 20 19  2  0
 21 22  2  0
 21 24  1  0
 23 19  1  0
M  END
$$$$
