LVD.pdb
     RDKit          3D

 24 23  0  0  1  0  0  0  0  0999 V2000
    6.4109  -18.1172   20.4967 C   0  0  0  0  0  0  0  0  0  0  0  0
    7.5947  -17.3533   19.9925 C   0  0  2  0  0  0  0  0  0  0  0  0
    8.4923  -18.3017   19.2307 C   0  0  0  0  0  0  0  0  0  0  0  0
    8.3358  -16.6169   21.0730 C   0  0  0  0  0  0  0  0  0  0  0  0
    7.3378  -15.7560   21.8370 C   0  0  2  0  0  0  0  0  0  0  0  0
    6.8356  -14.7356   20.9654 N   0  0  0  0  0  0  0  0  0  0  0  0
    7.9961  -15.1683   23.0512 C   0  0  0  0  0  0  0  0  0  0  0  0
    9.2481  -15.0897   23.1024 O   0  0  0  0  0  0  0  0  0  0  0  0
    6.4922  -12.0324   25.1143 C   0  0  0  0  0  0  0  0  0  0  0  0
    6.8933  -13.2162   26.0380 C   0  0  2  0  0  0  0  0  0  0  0  0
    7.5189  -12.5485   27.2313 C   0  0  0  0  0  0  0  0  0  0  0  0
    7.8802  -14.0761   25.3188 C   0  0  2  0  0  0  0  0  0  0  0  0
    7.2486  -14.6957   24.1492 N   0  0  0  0  0  0  0  0  0  0  0  0
    8.4504  -15.1643   26.1886 C   0  0  0  0  0  0  0  0  0  0  0  0
    7.7046  -16.1197   26.5540 O   0  0  0  0  0  0  0  0  0  0  0  0
    9.7833  -15.1652   26.6091 N   0  0  0  0  0  0  0  0  0  0  0  0
   10.4557  -16.1477   27.4032 C   0  0  1  0  0  0  0  0  0  0  0  0
   11.7637  -16.6642   26.8304 C   0  0  0  0  0  0  0  0  0  0  0  0
   12.3503  -17.6929   27.7332 C   0  0  0  0  0  0  0  0  0  0  0  0
   11.7900  -18.8348   27.7877 O   0  0  0  0  0  0  0  0  0  0  0  0
   10.5882  -15.7599   28.7985 C   0  0  0  0  0  0  0  0  0  0  0  0
   10.6467  -14.5595   29.1951 O   0  0  0  0  0  0  0  0  0  0  0  0
   13.4580  -17.4778   28.5071 O   0  0  0  0  0  0  0  0  0  0  0  0
   10.6577  -16.7336   29.7843 O   0  0  0  0  0  0  0  0  0  0  0  0
  2  1  1  1
  2  3  1  0
  4  5  1  0
  4  2  1  0
  5  7  1  0
  5  6  1  6
  7 13  1  0
  8  7  2  0
 10 11  1  1
 10  9  1  0
 12 10  1  0
 12 13  1  6
 14 12  1  0
 14 16  1  0
 15 14  2  0
 17 16  1  0
 17 21  1  0
 17 18  1  6
 19 18  1  0
 20 19  2  0
 21 22  2  0
 21 24  1  0
 23 19  1  0
M  END
$$$$
