LVD.pdb
     RDKit          3D

 24 23  0  0  1  0  0  0  0  0999 V2000
    5.6469  -12.8285   26.1426 C   0  0  0  0  0  0  0  0  0  0  0  0
    6.5277  -13.3523   27.2330 C   0  0  2  0  0  0  0  0  0  0  0  0
    7.2728  -12.1912   27.8513 C   0  0  0  0  0  0  0  0  0  0  0  0
    7.4559  -14.4439   26.7796 C   0  0  0  0  0  0  0  0  0  0  0  0
    6.6480  -15.4581   25.9798 C   0  0  2  0  0  0  0  0  0  0  0  0
    6.2543  -16.5304   26.8448 N   0  0  0  0  0  0  0  0  0  0  0  0
    7.4601  -15.9560   24.8198 C   0  0  0  0  0  0  0  0  0  0  0  0
    7.9391  -17.1162   24.8492 O   0  0  0  0  0  0  0  0  0  0  0  0
    6.8266  -14.7140   21.0091 C   0  0  0  0  0  0  0  0  0  0  0  0
    8.3353  -14.7290   21.3817 C   0  0  2  0  0  0  0  0  0  0  0  0
    9.0050  -15.2908   20.1581 C   0  0  0  0  0  0  0  0  0  0  0  0
    8.5312  -15.6202   22.5641 C   0  0  2  0  0  0  0  0  0  0  0  0
    7.7065  -15.1568   23.6848 N   0  0  0  0  0  0  0  0  0  0  0  0
    9.9652  -15.6828   23.0176 C   0  0  0  0  0  0  0  0  0  0  0  0
   10.4183  -14.7682   23.7663 O   0  0  0  0  0  0  0  0  0  0  0  0
   10.8230  -16.7219   22.6462 N   0  0  0  0  0  0  0  0  0  0  0  0
   12.2153  -16.8639   22.9450 C   0  0  1  0  0  0  0  0  0  0  0  0
   13.0823  -15.6681   22.5926 C   0  0  0  0  0  0  0  0  0  0  0  0
   14.1320  -16.0641   21.6135 C   0  0  0  0  0  0  0  0  0  0  0  0
   13.9277  -17.0973   20.8981 O   0  0  0  0  0  0  0  0  0  0  0  0
   12.4630  -17.3358   24.2980 C   0  0  0  0  0  0  0  0  0  0  0  0
   13.6173  -17.5503   24.7706 O   0  0  0  0  0  0  0  0  0  0  0  0
   15.3035  -15.3787   21.4408 O   0  0  0  0  0  0  0  0  0  0  0  0
   11.3975  -17.5769   25.1533 O   0  0  0  0  0  0  0  0  0  0  0  0
  2  1  1  6
  2  3  1  0
  4  5  1  0
  4  2  1  0
  5  7  1  0
  5  6  1  1
  7 13  1  0
  8  7  2  0
 10 11  1  6
 10  9  1  0
 12 10  1  0
 12 13  1  1
 14 12  1  0
 14 16  1  0
 15 14  2  0
 17 16  1  0
 17 21  1  0
 17 18  1  1
 19 18  1  0
 20 19  2  0
 21 22  2  0
 21 24  1  0
 23 19  1  0
M  END
$$$$
