LVD.pdb
     RDKit          3D

 24 23  0  0  1  0  0  0  0  0999 V2000
    5.6193  -12.3193   26.1145 C   0  0  0  0  0  0  0  0  0  0  0  0
    6.5018  -13.0170   27.1012 C   0  0  2  0  0  0  0  0  0  0  0  0
    7.3086  -11.9779   27.8463 C   0  0  0  0  0  0  0  0  0  0  0  0
    7.3732  -14.0735   26.4820 C   0  0  0  0  0  0  0  0  0  0  0  0
    6.4847  -15.0210   25.6860 C   0  0  2  0  0  0  0  0  0  0  0  0
    5.9010  -15.9773   26.5791 N   0  0  0  0  0  0  0  0  0  0  0  0
    7.2890  -15.6912   24.6103 C   0  0  0  0  0  0  0  0  0  0  0  0
    7.5917  -16.9043   24.7255 O   0  0  0  0  0  0  0  0  0  0  0  0
    6.8393  -14.7730   20.7609 C   0  0  0  0  0  0  0  0  0  0  0  0
    8.3473  -14.8805   21.1211 C   0  0  2  0  0  0  0  0  0  0  0  0
    8.9441  -15.6300   19.9621 C   0  0  0  0  0  0  0  0  0  0  0  0
    8.4855  -15.6506   22.3933 C   0  0  2  0  0  0  0  0  0  0  0  0
    7.7215  -14.9978   23.4616 N   0  0  0  0  0  0  0  0  0  0  0  0
    9.9160  -15.7872   22.8415 C   0  0  0  0  0  0  0  0  0  0  0  0
   10.5580  -14.7524   23.1875 O   0  0  0  0  0  0  0  0  0  0  0  0
   10.5687  -17.0219   22.8962 N   0  0  0  0  0  0  0  0  0  0  0  0
   11.9096  -17.2914   23.3173 C   0  0  1  0  0  0  0  0  0  0  0  0
   12.1636  -18.7019   23.8190 C   0  0  0  0  0  0  0  0  0  0  0  0
   11.7221  -18.8317   25.2352 C   0  0  0  0  0  0  0  0  0  0  0  0
   11.8899  -17.8362   26.0109 O   0  0  0  0  0  0  0  0  0  0  0  0
   12.9075  -16.8711   22.3466 C   0  0  0  0  0  0  0  0  0  0  0  0
   12.9008  -17.2214   21.1305 O   0  0  0  0  0  0  0  0  0  0  0  0
   11.1464  -19.9621   25.7482 O   0  0  0  0  0  0  0  0  0  0  0  0
   13.9447  -16.0365   22.7369 O   0  0  0  0  0  0  0  0  0  0  0  0
  2  1  1  6
  2  3  1  0
  4  5  1  0
  4  2  1  0
  5  7  1  0
  5  6  1  1
  7 13  1  0
  8  7  2  0
 10 11  1  6
 10  9  1  0
 12 10  1  0
 12 13  1  1
 14 12  1  0
 14 16  1  0
 15 14  2  0
 17 16  1  0
 17 21  1  0
 17 18  1  6
 19 18  1  0
 20 19  2  0
 21 22  2  0
 21 24  1  0
 23 19  1  0
M  END
$$$$
