LVD.pdb
     RDKit          3D

 24 23  0  0  1  0  0  0  0  0999 V2000
    5.8887  -12.3295   26.0713 C   0  0  0  0  0  0  0  0  0  0  0  0
    6.7144  -13.0663   27.0785 C   0  0  2  0  0  0  0  0  0  0  0  0
    7.6815  -12.0936   27.7143 C   0  0  0  0  0  0  0  0  0  0  0  0
    7.4126  -14.2713   26.5133 C   0  0  0  0  0  0  0  0  0  0  0  0
    6.4208  -15.0366   25.6463 C   0  0  2  0  0  0  0  0  0  0  0  0
    5.7002  -15.9645   26.4664 N   0  0  0  0  0  0  0  0  0  0  0  0
    7.1484  -15.7342   24.5340 C   0  0  0  0  0  0  0  0  0  0  0  0
    7.4458  -16.9483   24.6516 O   0  0  0  0  0  0  0  0  0  0  0  0
    6.6586  -14.8323   20.6105 C   0  0  0  0  0  0  0  0  0  0  0  0
    8.1562  -14.9352   21.0126 C   0  0  2  0  0  0  0  0  0  0  0  0
    8.7922  -15.6596   19.8585 C   0  0  0  0  0  0  0  0  0  0  0  0
    8.2635  -15.7267   22.2746 C   0  0  2  0  0  0  0  0  0  0  0  0
    7.5137  -15.0656   23.3478 N   0  0  0  0  0  0  0  0  0  0  0  0
    9.6865  -15.9134   22.7284 C   0  0  0  0  0  0  0  0  0  0  0  0
   10.3036  -14.9382   23.2486 O   0  0  0  0  0  0  0  0  0  0  0  0
   10.3587  -17.1323   22.6020 N   0  0  0  0  0  0  0  0  0  0  0  0
   11.6648  -17.4713   23.0785 C   0  0  1  0  0  0  0  0  0  0  0  0
   11.8266  -18.8966   23.5767 C   0  0  0  0  0  0  0  0  0  0  0  0
   13.2214  -19.1222   24.0470 C   0  0  0  0  0  0  0  0  0  0  0  0
   14.0718  -19.5717   23.2128 O   0  0  0  0  0  0  0  0  0  0  0  0
   12.7241  -17.0936   22.1567 C   0  0  0  0  0  0  0  0  0  0  0  0
   12.6757  -17.2894   20.9072 O   0  0  0  0  0  0  0  0  0  0  0  0
   13.6387  -18.8731   25.3260 O   0  0  0  0  0  0  0  0  0  0  0  0
   13.8723  -16.4795   22.6353 O   0  0  0  0  0  0  0  0  0  0  0  0
  2  1  1  6
  2  3  1  0
  4  5  1  0
  4  2  1  0
  5  7  1  0
  5  6  1  1
  7 13  1  0
  8  7  2  0
 10 11  1  6
 10  9  1  0
 12 10  1  0
 12 13  1  1
 14 12  1  0
 14 16  1  0
 15 14  2  0
 17 16  1  0
 17 21  1  0
 17 18  1  6
 19 18  1  0
 20 19  2  0
 21 22  2  0
 21 24  1  0
 23 19  1  0
M  END
$$$$
