LVD.pdb
     RDKit          3D

 24 23  0  0  1  0  0  0  0  0999 V2000
    5.3099  -19.9474   18.1865 C   0  0  0  0  0  0  0  0  0  0  0  0
    6.7185  -20.4463   18.2640 C   0  0  2  0  0  0  0  0  0  0  0  0
    6.7358  -21.7180   19.0815 C   0  0  0  0  0  0  0  0  0  0  0  0
    7.6875  -19.4235   18.7873 C   0  0  0  0  0  0  0  0  0  0  0  0
    7.5376  -18.1540   17.9585 C   0  0  2  0  0  0  0  0  0  0  0  0
    7.9719  -18.4154   16.6184 N   0  0  0  0  0  0  0  0  0  0  0  0
    8.3250  -17.0402   18.5853 C   0  0  0  0  0  0  0  0  0  0  0  0
    9.5771  -17.0362   18.4931 O   0  0  0  0  0  0  0  0  0  0  0  0
    8.4648  -12.4908   20.5281 C   0  0  0  0  0  0  0  0  0  0  0  0
    7.6220  -13.6480   19.9232 C   0  0  2  0  0  0  0  0  0  0  0  0
    6.4735  -13.7991   20.8820 C   0  0  0  0  0  0  0  0  0  0  0  0
    8.4595  -14.8839   19.8817 C   0  0  2  0  0  0  0  0  0  0  0  0
    7.7000  -15.9859   19.2819 N   0  0  0  0  0  0  0  0  0  0  0  0
    8.9344  -15.3143   21.2437 C   0  0  0  0  0  0  0  0  0  0  0  0
    8.1024  -15.8012   22.0642 O   0  0  0  0  0  0  0  0  0  0  0  0
   10.2697  -15.2018   21.6411 N   0  0  0  0  0  0  0  0  0  0  0  0
   11.0147  -16.0848   22.4855 C   0  0  1  0  0  0  0  0  0  0  0  0
   10.8262  -17.5656   22.2069 C   0  0  0  0  0  0  0  0  0  0  0  0
   11.6362  -18.3754   23.1585 C   0  0  0  0  0  0  0  0  0  0  0  0
   11.6513  -18.0270   24.3829 O   0  0  0  0  0  0  0  0  0  0  0  0
   12.4199  -15.7250   22.5884 C   0  0  0  0  0  0  0  0  0  0  0  0
   12.9919  -14.8887   21.8300 O   0  0  0  0  0  0  0  0  0  0  0  0
   12.3649  -19.4730   22.7888 O   0  0  0  0  0  0  0  0  0  0  0  0
   13.2152  -16.3107   23.5627 O   0  0  0  0  0  0  0  0  0  0  0  0
  2  1  1  1
  2  3  1  0
  4  5  1  0
  4  2  1  0
  5  7  1  0
  5  6  1  6
  7 13  1  0
  8  7  2  0
 10 11  1  1
 10  9  1  0
 12 10  1  0
 12 13  1  1
 14 12  1  0
 14 16  1  0
 15 14  2  0
 17 16  1  0
 17 21  1  0
 17 18  1  6
 19 18  1  0
 20 19  2  0
 21 22  2  0
 21 24  1  0
 23 19  1  0
M  END
$$$$
