LVD.pdb
     RDKit          3D

 24 23  0  0  1  0  0  0  0  0999 V2000
    6.7957  -12.8904   18.7701 C   0  0  0  0  0  0  0  0  0  0  0  0
    7.4194  -14.2190   19.0616 C   0  0  2  0  0  0  0  0  0  0  0  0
    6.6375  -15.2892   18.3342 C   0  0  0  0  0  0  0  0  0  0  0  0
    7.5471  -14.5105   20.5304 C   0  0  0  0  0  0  0  0  0  0  0  0
    8.2675  -13.3413   21.1899 C   0  0  2  0  0  0  0  0  0  0  0  0
    9.5315  -13.1455   20.5442 N   0  0  0  0  0  0  0  0  0  0  0  0
    8.4341  -13.6076   22.6577 C   0  0  0  0  0  0  0  0  0  0  0  0
    9.4717  -14.1809   23.0712 O   0  0  0  0  0  0  0  0  0  0  0  0
    6.6685  -11.2207   25.4975 C   0  0  0  0  0  0  0  0  0  0  0  0
    6.5571  -12.7413   25.7987 C   0  0  2  0  0  0  0  0  0  0  0  0
    6.7881  -12.8347   27.2816 C   0  0  0  0  0  0  0  0  0  0  0  0
    7.6208  -13.4628   25.0380 C   0  0  2  0  0  0  0  0  0  0  0  0
    7.4545  -13.2318   23.5993 N   0  0  0  0  0  0  0  0  0  0  0  0
    7.6146  -14.9469   25.2893 C   0  0  0  0  0  0  0  0  0  0  0  0
    6.7851  -15.6762   24.6708 O   0  0  0  0  0  0  0  0  0  0  0  0
    8.4989  -15.5587   26.1823 N   0  0  0  0  0  0  0  0  0  0  0  0
    9.2652  -16.7511   25.9851 C   0  0  1  0  0  0  0  0  0  0  0  0
   10.0735  -16.8008   24.7005 C   0  0  0  0  0  0  0  0  0  0  0  0
   10.8316  -18.0798   24.6187 C   0  0  0  0  0  0  0  0  0  0  0  0
   10.1873  -19.1700   24.7502 O   0  0  0  0  0  0  0  0  0  0  0  0
   10.0638  -17.1141   27.1449 C   0  0  0  0  0  0  0  0  0  0  0  0
   10.6485  -16.2747   27.8901 O   0  0  0  0  0  0  0  0  0  0  0  0
   12.1822  -18.1473   24.4101 O   0  0  0  0  0  0  0  0  0  0  0  0
   10.2185  -18.4492   27.4888 O   0  0  0  0  0  0  0  0  0  0  0  0
  2  1  1  1
  2  3  1  0
  4  5  1  0
  4  2  1  0
  5  7  1  0
  5  6  1  6
  7 13  1  0
  8  7  2  0
 10 11  1  1
 10  9  1  0
 12 10  1  0
 12 13  1  6
 14 12  1  0
 14 16  1  0
 15 14  2  0
 17 16  1  0
 17 21  1  0
 17 18  1  6
 19 18  1  0
 20 19  2  0
 21 22  2  0
 21 24  1  0
 23 19  1  0
M  END
$$$$
