LVD.pdb
     RDKit          3D

 24 23  0  0  1  0  0  0  0  0999 V2000
    7.6087  -13.0026   28.1540 C   0  0  0  0  0  0  0  0  0  0  0  0
    7.4263  -12.6275   26.7170 C   0  0  2  0  0  0  0  0  0  0  0  0
    6.8580  -11.2281   26.6518 C   0  0  0  0  0  0  0  0  0  0  0  0
    6.5964  -13.6124   25.9423 C   0  0  0  0  0  0  0  0  0  0  0  0
    7.5243  -14.6800   25.3764 C   0  0  2  0  0  0  0  0  0  0  0  0
    8.8832  -14.2648   25.5602 N   0  0  0  0  0  0  0  0  0  0  0  0
    7.2104  -14.9120   23.9270 C   0  0  0  0  0  0  0  0  0  0  0  0
    6.0936  -15.3839   23.6010 O   0  0  0  0  0  0  0  0  0  0  0  0
    7.5039  -12.3241   21.2413 C   0  0  0  0  0  0  0  0  0  0  0  0
    8.2707  -13.5719   20.7211 C   0  0  2  0  0  0  0  0  0  0  0  0
    7.8740  -13.6634   19.2735 C   0  0  0  0  0  0  0  0  0  0  0  0
    7.8143  -14.7715   21.4849 C   0  0  2  0  0  0  0  0  0  0  0  0
    8.1370  -14.6146   22.9069 N   0  0  0  0  0  0  0  0  0  0  0  0
    8.4353  -16.0504   20.9904 C   0  0  0  0  0  0  0  0  0  0  0  0
    8.2065  -16.4321   19.8053 O   0  0  0  0  0  0  0  0  0  0  0  0
    9.2657  -16.8383   21.7924 N   0  0  0  0  0  0  0  0  0  0  0  0
   10.3797  -17.6397   21.3865 C   0  0  1  0  0  0  0  0  0  0  0  0
   11.3975  -16.9403   20.5029 C   0  0  0  0  0  0  0  0  0  0  0  0
   12.4354  -17.9068   20.0491 C   0  0  0  0  0  0  0  0  0  0  0  0
   12.0499  -19.0123   19.5489 O   0  0  0  0  0  0  0  0  0  0  0  0
   11.0105  -18.3416   22.4929 C   0  0  0  0  0  0  0  0  0  0  0  0
   12.0453  -19.0605   22.3746 O   0  0  0  0  0  0  0  0  0  0  0  0
   13.7803  -17.6718   20.1404 O   0  0  0  0  0  0  0  0  0  0  0  0
   10.4773  -18.2428   23.7698 O   0  0  0  0  0  0  0  0  0  0  0  0
  2  1  1  1
  2  3  1  0
  4  5  1  0
  4  2  1  0
  5  7  1  0
  5  6  1  6
  7 13  1  0
  8  7  2  0
 10 11  1  6
 10  9  1  0
 12 10  1  0
 12 13  1  1
 14 12  1  0
 14 16  1  0
 15 14  2  0
 17 16  1  0
 17 21  1  0
 17 18  1  1
 19 18  1  0
 20 19  2  0
 21 22  2  0
 21 24  1  0
 23 19  1  0
M  END
$$$$
