GIG.pdb
     RDKit          3D

 17 16  0  0  1  0  0  0  0  0999 V2000
   28.3770  -22.4157  -15.8663 N   0  0  0  0  0  0  0  0  0  0  0  0
   27.7989  -21.2972  -15.1450 C   0  0  0  0  0  0  0  0  0  0  0  0
   26.5289  -21.6875  -14.4786 C   0  0  0  0  0  0  0  0  0  0  0  0
   25.9163  -22.7499  -14.7245 O   0  0  0  0  0  0  0  0  0  0  0  0
   26.5883  -20.4882   -9.5118 C   0  0  0  0  0  0  0  0  0  0  0  0
   26.2212  -21.3205  -10.7320 C   0  0  0  0  0  0  0  0  0  0  0  0
   25.0241  -20.6834  -11.3532 C   0  0  2  0  0  0  0  0  0  0  0  0
   23.8109  -20.9651  -10.4927 C   0  0  0  0  0  0  0  0  0  0  0  0
   24.7732  -21.0701  -12.7739 C   0  0  2  0  0  0  0  0  0  0  0  0
   25.9895  -20.8050  -13.5153 N   0  0  0  0  0  0  0  0  0  0  0  0
   23.6657  -20.3798  -13.4183 C   0  0  0  0  0  0  0  0  0  0  0  0
   23.6559  -19.1396  -13.5207 O   0  0  0  0  0  0  0  0  0  0  0  0
   22.5820  -21.1136  -13.9386 N   0  0  0  0  0  0  0  0  0  0  0  0
   21.4900  -20.4973  -14.6627 C   0  0  0  0  0  0  0  0  0  0  0  0
   20.2435  -20.7378  -13.8958 C   0  0  0  0  0  0  0  0  0  0  0  0
   20.2537  -21.4555  -12.8628 O   0  0  0  0  0  0  0  0  0  0  0  0
   19.0216  -20.1909  -14.2742 O   0  0  0  0  0  0  0  0  0  0  0  0
  1  2  1  0
  2  3  1  0
  3  4  2  0
  6  5  1  0
  7  6  1  0
  7  8  1  1
  9  7  1  0
 10  3  1  0
  9 10  1  6
 11 12  2  0
 11  9  1  0
 13 11  1  0
 14 15  1  0
 14 13  1  0
 15 17  1  0
 16 15  2  0
M  END
$$$$
