GIG.pdb
     RDKit          3D

 17 16  0  0  1  0  0  0  0  0999 V2000
   25.1269  -14.3343  -20.4076 N   0  0  0  0  0  0  0  0  0  0  0  0
   25.1271  -12.8845  -20.3493 C   0  0  0  0  0  0  0  0  0  0  0  0
   24.6750  -12.4011  -19.0184 C   0  0  0  0  0  0  0  0  0  0  0  0
   23.7928  -12.9700  -18.3385 O   0  0  0  0  0  0  0  0  0  0  0  0
   28.0034  -11.8589  -15.7034 C   0  0  0  0  0  0  0  0  0  0  0  0
   26.5029  -11.9571  -15.9383 C   0  0  0  0  0  0  0  0  0  0  0  0
   26.0326  -10.6003  -16.3418 C   0  0  2  0  0  0  0  0  0  0  0  0
   25.7451   -9.7861  -15.0983 C   0  0  0  0  0  0  0  0  0  0  0  0
   24.8618  -10.5915  -17.2691 C   0  0  2  0  0  0  0  0  0  0  0  0
   25.2795  -11.2339  -18.4987 N   0  0  0  0  0  0  0  0  0  0  0  0
   24.3272   -9.2742  -17.5808 C   0  0  0  0  0  0  0  0  0  0  0  0
   25.0196   -8.4244  -18.1699 O   0  0  0  0  0  0  0  0  0  0  0  0
   23.0079   -8.9422  -17.2163 N   0  0  0  0  0  0  0  0  0  0  0  0
   22.4150   -7.6517  -17.4983 C   0  0  0  0  0  0  0  0  0  0  0  0
   22.6856   -6.7647  -16.3407 C   0  0  0  0  0  0  0  0  0  0  0  0
   22.5115   -7.1739  -15.1641 O   0  0  0  0  0  0  0  0  0  0  0  0
   23.1379   -5.4583  -16.4960 O   0  0  0  0  0  0  0  0  0  0  0  0
  1  2  1  0
  2  3  1  0
  3  4  2  0
  6  5  1  0
  7  6  1  0
  7  8  1  1
  9  7  1  0
 10  3  1  0
  9 10  1  6
 11 12  2  0
 11  9  1  0
 13 11  1  0
 14 15  1  0
 14 13  1  0
 15 17  1  0
 16 15  2  0
M  END
$$$$
