GIG.pdb
     RDKit          3D

 17 16  0  0  1  0  0  0  0  0999 V2000
   21.3189  -13.2702  -18.9998 N   0  0  0  0  0  0  0  0  0  0  0  0
   22.0367  -12.0275  -19.2138 C   0  0  0  0  0  0  0  0  0  0  0  0
   22.3361  -11.3521  -17.9241 C   0  0  0  0  0  0  0  0  0  0  0  0
   21.7532  -11.6205  -16.8505 O   0  0  0  0  0  0  0  0  0  0  0  0
   25.4491  -11.6264  -15.2291 C   0  0  0  0  0  0  0  0  0  0  0  0
   25.7387  -11.0234  -16.5962 C   0  0  0  0  0  0  0  0  0  0  0  0
   25.1717   -9.6438  -16.5959 C   0  0  2  0  0  0  0  0  0  0  0  0
   25.6228   -8.9235  -15.3431 C   0  0  0  0  0  0  0  0  0  0  0  0
   23.6873   -9.5749  -16.7469 C   0  0  2  0  0  0  0  0  0  0  0  0
   23.3354  -10.3526  -17.9177 N   0  0  0  0  0  0  0  0  0  0  0  0
   23.1396   -8.2339  -16.8869 C   0  0  0  0  0  0  0  0  0  0  0  0
   23.7039   -7.3818  -17.5969 O   0  0  0  0  0  0  0  0  0  0  0  0
   21.9535   -7.8809  -16.2144 N   0  0  0  0  0  0  0  0  0  0  0  0
   21.3373   -6.5764  -16.3383 C   0  0  0  0  0  0  0  0  0  0  0  0
   21.8263   -5.7349  -15.2192 C   0  0  0  0  0  0  0  0  0  0  0  0
   22.6397   -6.1956  -14.3776 O   0  0  0  0  0  0  0  0  0  0  0  0
   21.4168   -4.4165  -15.0475 O   0  0  0  0  0  0  0  0  0  0  0  0
  1  2  1  0
  2  3  1  0
  3  4  2  0
  6  5  1  0
  7  6  1  0
  7  8  1  1
  9  7  1  0
 10  3  1  0
  9 10  1  6
 11 12  2  0
 11  9  1  0
 13 11  1  0
 14 15  1  0
 14 13  1  0
 15 17  1  0
 16 15  2  0
M  END
$$$$
