GIG.pdb
     RDKit          3D

 17 16  0  0  1  0  0  0  0  0999 V2000
   24.3541  -20.9872   -8.3579 N   0  0  0  0  0  0  0  0  0  0  0  0
   24.6692  -21.4595   -9.6932 C   0  0  0  0  0  0  0  0  0  0  0  0
   25.4499  -20.4461  -10.4502 C   0  0  0  0  0  0  0  0  0  0  0  0
   25.5496  -19.2486  -10.1033 O   0  0  0  0  0  0  0  0  0  0  0  0
   29.6910  -21.6158  -11.1135 C   0  0  0  0  0  0  0  0  0  0  0  0
   28.9638  -20.2930  -11.3080 C   0  0  0  0  0  0  0  0  0  0  0  0
   28.2217  -20.3863  -12.5986 C   0  0  2  0  0  0  0  0  0  0  0  0
   28.9703  -19.6054  -13.6575 C   0  0  0  0  0  0  0  0  0  0  0  0
   26.7913  -19.9616  -12.5324 C   0  0  2  0  0  0  0  0  0  0  0  0
   26.1134  -20.8657  -11.6255 N   0  0  0  0  0  0  0  0  0  0  0  0
   26.0873  -19.9527  -13.8062 C   0  0  0  0  0  0  0  0  0  0  0  0
   25.6980  -21.0118  -14.3309 O   0  0  0  0  0  0  0  0  0  0  0  0
   25.8359  -18.7343  -14.4665 N   0  0  0  0  0  0  0  0  0  0  0  0
   25.0221  -18.6399  -15.6604 C   0  0  0  0  0  0  0  0  0  0  0  0
   25.9298  -18.6733  -16.8328 C   0  0  0  0  0  0  0  0  0  0  0  0
   27.1761  -18.7454  -16.6778 O   0  0  0  0  0  0  0  0  0  0  0  0
   25.4564  -18.6273  -18.1401 O   0  0  0  0  0  0  0  0  0  0  0  0
  1  2  1  0
  2  3  1  0
  3  4  2  0
  6  5  1  0
  7  6  1  0
  7  8  1  6
  9  7  1  0
 10  3  1  0
  9 10  1  1
 11 12  2  0
 11  9  1  0
 13 11  1  0
 14 15  1  0
 14 13  1  0
 15 17  1  0
 16 15  2  0
M  END
$$$$
