GIG.pdb
     RDKit          3D

 17 16  0  0  1  0  0  0  0  0999 V2000
   27.2070  -10.9502  -15.8264 N   0  0  0  0  0  0  0  0  0  0  0  0
   25.9258  -11.0502  -15.1527 C   0  0  0  0  0  0  0  0  0  0  0  0
   24.9743  -10.0245  -15.6547 C   0  0  0  0  0  0  0  0  0  0  0  0
   25.2158   -9.2718  -16.6240 O   0  0  0  0  0  0  0  0  0  0  0  0
   21.1655  -12.0535  -16.4867 C   0  0  0  0  0  0  0  0  0  0  0  0
   21.5431  -10.6406  -16.9080 C   0  0  0  0  0  0  0  0  0  0  0  0
   21.4658   -9.7843  -15.6890 C   0  0  2  0  0  0  0  0  0  0  0  0
   20.2428   -8.8973  -15.7841 C   0  0  0  0  0  0  0  0  0  0  0  0
   22.6911   -8.9772  -15.4099 C   0  0  2  0  0  0  0  0  0  0  0  0
   23.7303   -9.8981  -14.9959 N   0  0  0  0  0  0  0  0  0  0  0  0
   22.5375   -7.9479  -14.3924 C   0  0  0  0  0  0  0  0  0  0  0  0
   22.4585   -8.2453  -13.1866 O   0  0  0  0  0  0  0  0  0  0  0  0
   22.4758   -6.5906  -14.7634 N   0  0  0  0  0  0  0  0  0  0  0  0
   22.1667   -5.5320  -13.8253 C   0  0  0  0  0  0  0  0  0  0  0  0
   22.2051   -4.2458  -14.5629 C   0  0  0  0  0  0  0  0  0  0  0  0
   22.5409   -4.2106  -15.7747 O   0  0  0  0  0  0  0  0  0  0  0  0
   21.8772   -3.0349  -13.9618 O   0  0  0  0  0  0  0  0  0  0  0  0
  1  2  1  0
  2  3  1  0
  3  4  2  0
  6  5  1  0
  7  6  1  0
  7  8  1  6
  9  7  1  0
 10  3  1  0
  9 10  1  1
 11 12  2  0
 11  9  1  0
 13 11  1  0
 14 15  1  0
 14 13  1  0
 15 17  1  0
 16 15  2  0
M  END
$$$$
