GIG.pdb
     RDKit          3D

 17 16  0  0  1  0  0  0  0  0999 V2000
   19.8429  -20.7043  -12.2742 N   0  0  0  0  0  0  0  0  0  0  0  0
   21.0342  -21.4593  -12.6151 C   0  0  0  0  0  0  0  0  0  0  0  0
   22.2542  -20.6185  -12.4967 C   0  0  0  0  0  0  0  0  0  0  0  0
   22.2378  -19.3681  -12.5181 O   0  0  0  0  0  0  0  0  0  0  0  0
   24.0251  -20.3862   -9.2420 C   0  0  0  0  0  0  0  0  0  0  0  0
   25.4628  -20.4656   -9.7351 C   0  0  0  0  0  0  0  0  0  0  0  0
   25.4482  -21.2488  -11.0045 C   0  0  2  0  0  0  0  0  0  0  0  0
   26.8690  -21.6166  -11.3755 C   0  0  0  0  0  0  0  0  0  0  0  0
   24.7533  -20.5816  -12.1459 C   0  0  2  0  0  0  0  0  0  0  0  0
   23.4978  -21.2746  -12.3523 N   0  0  0  0  0  0  0  0  0  0  0  0
   25.4951  -20.5623  -13.3980 C   0  0  0  0  0  0  0  0  0  0  0  0
   26.5200  -19.8681  -13.5253 O   0  0  0  0  0  0  0  0  0  0  0  0
   25.0580  -21.3362  -14.4906 N   0  0  0  0  0  0  0  0  0  0  0  0
   25.8244  -21.4779  -15.7108 C   0  0  0  0  0  0  0  0  0  0  0  0
   25.0420  -20.8662  -16.8124 C   0  0  0  0  0  0  0  0  0  0  0  0
   23.7843  -20.8765  -16.7889 O   0  0  0  0  0  0  0  0  0  0  0  0
   25.6495  -20.2610  -17.9078 O   0  0  0  0  0  0  0  0  0  0  0  0
  1  2  1  0
  2  3  1  0
  3  4  2  0
  6  5  1  0
  7  6  1  0
  7  8  1  6
  9  7  1  0
 10  3  1  0
  9 10  1  6
 11 12  2  0
 11  9  1  0
 13 11  1  0
 14 15  1  0
 14 13  1  0
 15 17  1  0
 16 15  2  0
M  END
$$$$
