GIG.pdb
     RDKit          3D

 17 16  0  0  1  0  0  0  0  0999 V2000
   27.8298  -22.0544  -16.6588 N   0  0  0  0  0  0  0  0  0  0  0  0
   27.4771  -21.0093  -15.7160 C   0  0  0  0  0  0  0  0  0  0  0  0
   26.6366  -21.5438  -14.6127 C   0  0  0  0  0  0  0  0  0  0  0  0
   26.1287  -22.6867  -14.6207 O   0  0  0  0  0  0  0  0  0  0  0  0
   28.7325  -20.6365  -11.4930 C   0  0  0  0  0  0  0  0  0  0  0  0
   27.6098  -21.4994  -10.9352 C   0  0  0  0  0  0  0  0  0  0  0  0
   26.3387  -20.7424  -11.1264 C   0  0  2  0  0  0  0  0  0  0  0  0
   25.4727  -20.9106   -9.8963 C   0  0  0  0  0  0  0  0  0  0  0  0
   25.5809  -21.0907  -12.3654 C   0  0  2  0  0  0  0  0  0  0  0  0
   26.4024  -20.7092  -13.4963 N   0  0  0  0  0  0  0  0  0  0  0  0
   24.2763  -20.4583  -12.4930 C   0  0  0  0  0  0  0  0  0  0  0  0
   24.1742  -19.2515  -12.7787 O   0  0  0  0  0  0  0  0  0  0  0  0
   23.1030  -21.2113  -12.2928 N   0  0  0  0  0  0  0  0  0  0  0  0
   21.7780  -20.6290  -12.3339 C   0  0  0  0  0  0  0  0  0  0  0  0
   21.1914  -20.9279  -13.6629 C   0  0  0  0  0  0  0  0  0  0  0  0
   21.6195  -20.3541  -14.6972 O   0  0  0  0  0  0  0  0  0  0  0  0
   20.1562  -21.8423  -13.8291 O   0  0  0  0  0  0  0  0  0  0  0  0
  1  2  1  0
  2  3  1  0
  3  4  2  0
  6  5  1  0
  7  6  1  0
  7  8  1  1
  9  7  1  0
 10  3  1  0
  9 10  1  6
 11 12  2  0
 11  9  1  0
 13 11  1  0
 14 15  1  0
 14 13  1  0
 15 17  1  0
 16 15  2  0
M  END
$$$$
