GIG.pdb
     RDKit          3D

 17 16  0  0  1  0  0  0  0  0999 V2000
   20.9481  -12.7835  -18.2833 N   0  0  0  0  0  0  0  0  0  0  0  0
   20.9069  -11.3527  -18.0455 C   0  0  0  0  0  0  0  0  0  0  0  0
   21.5766  -11.0021  -16.7656 C   0  0  0  0  0  0  0  0  0  0  0  0
   21.1956  -11.4168  -15.6489 O   0  0  0  0  0  0  0  0  0  0  0  0
   26.7574  -11.5802  -16.4759 C   0  0  0  0  0  0  0  0  0  0  0  0
   25.2933  -11.5081  -16.0669 C   0  0  0  0  0  0  0  0  0  0  0  0
   24.9276  -10.0635  -15.9997 C   0  0  2  0  0  0  0  0  0  0  0  0
   25.8547   -9.3628  -15.0296 C   0  0  0  0  0  0  0  0  0  0  0  0
   23.4978   -9.7927  -15.6630 C   0  0  2  0  0  0  0  0  0  0  0  0
   22.7052  -10.1532  -16.8211 N   0  0  0  0  0  0  0  0  0  0  0  0
   23.1974   -8.4176  -15.2928 C   0  0  0  0  0  0  0  0  0  0  0  0
   23.7098   -7.8987  -14.2845 O   0  0  0  0  0  0  0  0  0  0  0  0
   22.3152   -7.6506  -16.0784 N   0  0  0  0  0  0  0  0  0  0  0  0
   22.0319   -6.2564  -15.8093 C   0  0  0  0  0  0  0  0  0  0  0  0
   21.1141   -5.7670  -16.8666 C   0  0  0  0  0  0  0  0  0  0  0  0
   19.8688   -5.7744  -16.6892 O   0  0  0  0  0  0  0  0  0  0  0  0
   21.5768   -5.2838  -18.0863 O   0  0  0  0  0  0  0  0  0  0  0  0
  1  2  1  0
  2  3  1  0
  3  4  2  0
  6  5  1  0
  7  6  1  0
  7  8  1  1
  9  7  1  0
 10  3  1  0
  9 10  1  6
 11 12  2  0
 11  9  1  0
 13 11  1  0
 14 15  1  0
 14 13  1  0
 15 17  1  0
 16 15  2  0
M  END
$$$$
