GIG.pdb
     RDKit          3D

 17 16  0  0  1  0  0  0  0  0999 V2000
   21.6480  -11.3529  -20.0249 N   0  0  0  0  0  0  0  0  0  0  0  0
   21.7157   -9.9964  -19.5143 C   0  0  0  0  0  0  0  0  0  0  0  0
   22.3149   -9.9644  -18.1544 C   0  0  0  0  0  0  0  0  0  0  0  0
   21.8448  -10.5859  -17.1761 O   0  0  0  0  0  0  0  0  0  0  0  0
   26.4622  -10.9630  -15.1201 C   0  0  0  0  0  0  0  0  0  0  0  0
   26.3669   -9.5243  -15.6074 C   0  0  0  0  0  0  0  0  0  0  0  0
   25.5447   -9.5365  -16.8519 C   0  0  2  0  0  0  0  0  0  0  0  0
   26.2706   -8.7635  -17.9323 C   0  0  0  0  0  0  0  0  0  0  0  0
   24.1465   -9.0382  -16.6857 C   0  0  2  0  0  0  0  0  0  0  0  0
   23.4798   -9.1871  -17.9634 N   0  0  0  0  0  0  0  0  0  0  0  0
   24.0288   -7.6550  -16.2484 C   0  0  0  0  0  0  0  0  0  0  0  0
   24.4624   -6.7223  -16.9488 O   0  0  0  0  0  0  0  0  0  0  0  0
   23.4173   -7.3527  -15.0162 N   0  0  0  0  0  0  0  0  0  0  0  0
   23.2752   -6.0001  -14.5195 C   0  0  0  0  0  0  0  0  0  0  0  0
   21.9672   -5.4798  -14.9866 C   0  0  0  0  0  0  0  0  0  0  0  0
   21.5054   -5.8169  -16.1071 O   0  0  0  0  0  0  0  0  0  0  0  0
   21.1989   -4.6078  -14.2219 O   0  0  0  0  0  0  0  0  0  0  0  0
  1  2  1  0
  2  3  1  0
  3  4  2  0
  6  5  1  0
  7  6  1  0
  7  8  1  6
  9  7  1  0
 10  3  1  0
  9 10  1  6
 11 12  2  0
 11  9  1  0
 13 11  1  0
 14 15  1  0
 14 13  1  0
 15 17  1  0
 16 15  2  0
M  END
$$$$
