GIG.pdb
     RDKit          3D

 17 16  0  0  1  0  0  0  0  0999 V2000
   28.2523  -10.6572  -21.7618 N   0  0  0  0  0  0  0  0  0  0  0  0
   28.1903   -9.6805  -20.6905 C   0  0  0  0  0  0  0  0  0  0  0  0
   27.1067  -10.0088  -19.7274 C   0  0  0  0  0  0  0  0  0  0  0  0
   26.0454  -10.5864  -20.0502 O   0  0  0  0  0  0  0  0  0  0  0  0
   28.7893  -12.1667  -16.6231 C   0  0  0  0  0  0  0  0  0  0  0  0
   27.2733  -12.0455  -16.5665 C   0  0  0  0  0  0  0  0  0  0  0  0
   26.9590  -10.6242  -16.2406 C   0  0  2  0  0  0  0  0  0  0  0  0
   26.1286  -10.5784  -14.9757 C   0  0  0  0  0  0  0  0  0  0  0  0
   26.2998   -9.8587  -17.3408 C   0  0  2  0  0  0  0  0  0  0  0  0
   27.2927   -9.6455  -18.3742 N   0  0  0  0  0  0  0  0  0  0  0  0
   25.7374   -8.5739  -16.9520 C   0  0  0  0  0  0  0  0  0  0  0  0
   26.4735   -7.6175  -16.6486 O   0  0  0  0  0  0  0  0  0  0  0  0
   24.3408   -8.3957  -16.9141 N   0  0  0  0  0  0  0  0  0  0  0  0
   23.7167   -7.1597  -16.4910 C   0  0  0  0  0  0  0  0  0  0  0  0
   22.6590   -7.4982  -15.5078 C   0  0  0  0  0  0  0  0  0  0  0  0
   22.0370   -6.5916  -14.8966 O   0  0  0  0  0  0  0  0  0  0  0  0
   22.3082   -8.8127  -15.2175 O   0  0  0  0  0  0  0  0  0  0  0  0
  1  2  1  0
  2  3  1  0
  3  4  2  0
  6  5  1  0
  7  6  1  0
  7  8  1  1
  9  7  1  0
 10  3  1  0
  9 10  1  6
 11 12  2  0
 11  9  1  0
 13 11  1  0
 14 15  1  0
 14 13  1  0
 15 17  1  0
 16 15  2  0
M  END
$$$$
