GIG.pdb
     RDKit          3D

 17 16  0  0  1  0  0  0  0  0999 V2000
   20.6605  -14.6139  -17.4192 N   0  0  0  0  0  0  0  0  0  0  0  0
   20.0367  -14.1403  -16.1977 C   0  0  0  0  0  0  0  0  0  0  0  0
   19.0963  -13.0229  -16.4742 C   0  0  0  0  0  0  0  0  0  0  0  0
   18.8771  -12.5699  -17.6191 O   0  0  0  0  0  0  0  0  0  0  0  0
   15.9642  -14.3538  -14.6990 C   0  0  0  0  0  0  0  0  0  0  0  0
   15.5220  -13.1188  -15.4705 C   0  0  0  0  0  0  0  0  0  0  0  0
   16.1671  -11.9414  -14.8203 C   0  0  2  0  0  0  0  0  0  0  0  0
   15.1395  -10.8420  -14.6560 C   0  0  0  0  0  0  0  0  0  0  0  0
   17.3885  -11.4324  -15.5131 C   0  0  2  0  0  0  0  0  0  0  0  0
   18.4157  -12.4453  -15.3783 N   0  0  0  0  0  0  0  0  0  0  0  0
   17.9032  -10.1663  -15.0129 C   0  0  0  0  0  0  0  0  0  0  0  0
   18.3581  -10.0705  -13.8586 O   0  0  0  0  0  0  0  0  0  0  0  0
   17.8925   -9.0239  -15.8366 N   0  0  0  0  0  0  0  0  0  0  0  0
   18.3600   -7.7281  -15.3905 C   0  0  0  0  0  0  0  0  0  0  0  0
   17.2075   -7.0102  -14.7936 C   0  0  0  0  0  0  0  0  0  0  0  0
   16.0571   -7.5189  -14.8082 O   0  0  0  0  0  0  0  0  0  0  0  0
   17.3391   -5.7599  -14.1981 O   0  0  0  0  0  0  0  0  0  0  0  0
  1  2  1  0
  2  3  1  0
  3  4  2  0
  6  5  1  0
  7  6  1  0
  7  8  1  6
  9  7  1  0
 10  3  1  0
  9 10  1  1
 11 12  2  0
 11  9  1  0
 13 11  1  0
 14 15  1  0
 14 13  1  0
 15 17  1  0
 16 15  2  0
M  END
$$$$
