GIG.pdb
     RDKit          3D

 17 16  0  0  1  0  0  0  0  0999 V2000
   27.9473  -20.6341  -16.4619 N   0  0  0  0  0  0  0  0  0  0  0  0
   27.2344  -19.9530  -15.3973 C   0  0  0  0  0  0  0  0  0  0  0  0
   26.3810  -20.8994  -14.6322 C   0  0  0  0  0  0  0  0  0  0  0  0
   26.2454  -22.1061  -14.9315 O   0  0  0  0  0  0  0  0  0  0  0  0
   25.2463  -20.2111   -9.1339 C   0  0  0  0  0  0  0  0  0  0  0  0
   25.4515  -19.9418  -10.6177 C   0  0  0  0  0  0  0  0  0  0  0  0
   25.3714  -21.2569  -11.3171 C   0  0  2  0  0  0  0  0  0  0  0  0
   26.7443  -21.8946  -11.3308 C   0  0  0  0  0  0  0  0  0  0  0  0
   24.7937  -21.2019  -12.6934 C   0  0  2  0  0  0  0  0  0  0  0  0
   25.6875  -20.4015  -13.5057 N   0  0  0  0  0  0  0  0  0  0  0  0
   23.4507  -20.6481  -12.7808 C   0  0  0  0  0  0  0  0  0  0  0  0
   23.2691  -19.4229  -12.9003 O   0  0  0  0  0  0  0  0  0  0  0  0
   22.3301  -21.4999  -12.7307 N   0  0  0  0  0  0  0  0  0  0  0  0
   20.9678  -21.0096  -12.7517 C   0  0  0  0  0  0  0  0  0  0  0  0
   20.4769  -21.0921  -14.1488 C   0  0  0  0  0  0  0  0  0  0  0  0
   19.7057  -22.0201  -14.5044 O   0  0  0  0  0  0  0  0  0  0  0  0
   20.8386  -20.1631  -15.1191 O   0  0  0  0  0  0  0  0  0  0  0  0
  1  2  1  0
  2  3  1  0
  3  4  2  0
  6  5  1  0
  7  6  1  0
  7  8  1  6
  9  7  1  0
 10  3  1  0
  9 10  1  6
 11 12  2  0
 11  9  1  0
 13 11  1  0
 14 15  1  0
 14 13  1  0
 15 17  1  0
 16 15  2  0
M  END
$$$$
