GIG.pdb
     RDKit          3D

 17 16  0  0  1  0  0  0  0  0999 V2000
   29.7500  -11.8144  -20.6364 N   0  0  0  0  0  0  0  0  0  0  0  0
   29.0780  -10.5801  -20.2754 C   0  0  0  0  0  0  0  0  0  0  0  0
   27.8531  -10.8497  -19.4778 C   0  0  0  0  0  0  0  0  0  0  0  0
   26.8854  -11.5199  -19.9005 O   0  0  0  0  0  0  0  0  0  0  0  0
   29.0275  -12.8902  -16.1585 C   0  0  0  0  0  0  0  0  0  0  0  0
   27.5371  -12.7369  -16.4258 C   0  0  0  0  0  0  0  0  0  0  0  0
   27.1785  -11.3234  -16.1116 C   0  0  2  0  0  0  0  0  0  0  0  0
   26.1873  -11.3069  -14.9675 C   0  0  0  0  0  0  0  0  0  0  0  0
   26.6692  -10.5322  -17.2715 C   0  0  2  0  0  0  0  0  0  0  0  0
   27.7847  -10.3163  -18.1707 N   0  0  0  0  0  0  0  0  0  0  0  0
   26.0778   -9.2461  -16.9333 C   0  0  0  0  0  0  0  0  0  0  0  0
   26.7740   -8.3199  -16.4795 O   0  0  0  0  0  0  0  0  0  0  0  0
   24.6979   -9.0322  -17.1172 N   0  0  0  0  0  0  0  0  0  0  0  0
   24.0386   -7.7948  -16.7558 C   0  0  0  0  0  0  0  0  0  0  0  0
   23.2503   -8.0429  -15.5243 C   0  0  0  0  0  0  0  0  0  0  0  0
   23.1436   -9.2046  -15.0537 O   0  0  0  0  0  0  0  0  0  0  0  0
   22.6006   -7.0208  -14.8399 O   0  0  0  0  0  0  0  0  0  0  0  0
  1  2  1  0
  2  3  1  0
  3  4  2  0
  6  5  1  0
  7  6  1  0
  7  8  1  1
  9  7  1  0
 10  3  1  0
  9 10  1  6
 11 12  2  0
 11  9  1  0
 13 11  1  0
 14 15  1  0
 14 13  1  0
 15 17  1  0
 16 15  2  0
M  END
$$$$
