GIG.pdb
     RDKit          3D

 17 16  0  0  1  0  0  0  0  0999 V2000
   23.3049  -14.3874  -20.1454 N   0  0  0  0  0  0  0  0  0  0  0  0
   23.8760  -13.0621  -19.9937 C   0  0  0  0  0  0  0  0  0  0  0  0
   23.6843  -12.5505  -18.6114 C   0  0  0  0  0  0  0  0  0  0  0  0
   22.8848  -13.0536  -17.7918 O   0  0  0  0  0  0  0  0  0  0  0  0
   27.8951  -11.7269  -16.2876 C   0  0  0  0  0  0  0  0  0  0  0  0
   26.4050  -11.9838  -16.1144 C   0  0  0  0  0  0  0  0  0  0  0  0
   25.7070  -10.6852  -16.3414 C   0  0  2  0  0  0  0  0  0  0  0  0
   25.6946   -9.8974  -15.0488 C   0  0  0  0  0  0  0  0  0  0  0  0
   24.3305  -10.8030  -16.9089 C   0  0  2  0  0  0  0  0  0  0  0  0
   24.4509  -11.4337  -18.2077 N   0  0  0  0  0  0  0  0  0  0  0  0
   23.6111   -9.5465  -17.0574 C   0  0  0  0  0  0  0  0  0  0  0  0
   24.0556   -8.6347  -17.7782 O   0  0  0  0  0  0  0  0  0  0  0  0
   22.3921   -9.3456  -16.3811 N   0  0  0  0  0  0  0  0  0  0  0  0
   21.5829   -8.1575  -16.5545 C   0  0  0  0  0  0  0  0  0  0  0  0
   21.8637   -7.2467  -15.4182 C   0  0  0  0  0  0  0  0  0  0  0  0
   21.2644   -6.1455  -15.3150 O   0  0  0  0  0  0  0  0  0  0  0  0
   22.7881   -7.5594  -14.4268 O   0  0  0  0  0  0  0  0  0  0  0  0
  1  2  1  0
  2  3  1  0
  3  4  2  0
  6  5  1  0
  7  6  1  0
  7  8  1  1
  9  7  1  0
 10  3  1  0
  9 10  1  6
 11 12  2  0
 11  9  1  0
 13 11  1  0
 14 15  1  0
 14 13  1  0
 15 17  1  0
 16 15  2  0
M  END
$$$$
