GIG.pdb
     RDKit          3D

 17 16  0  0  1  0  0  0  0  0999 V2000
   31.0497  -22.0478  -11.5773 N   0  0  0  0  0  0  0  0  0  0  0  0
   30.2092  -20.9376  -11.1694 C   0  0  0  0  0  0  0  0  0  0  0  0
   28.8468  -21.4035  -10.8003 C   0  0  0  0  0  0  0  0  0  0  0  0
   28.4299  -22.5629  -11.0154 O   0  0  0  0  0  0  0  0  0  0  0  0
   27.2592  -19.2342   -6.4089 C   0  0  0  0  0  0  0  0  0  0  0  0
   27.3628  -20.3694   -7.4173 C   0  0  0  0  0  0  0  0  0  0  0  0
   26.3575  -20.0997   -8.4859 C   0  0  2  0  0  0  0  0  0  0  0  0
   24.9770  -20.4344   -7.9625 C   0  0  0  0  0  0  0  0  0  0  0  0
   26.6195  -20.7915   -9.7834 C   0  0  2  0  0  0  0  0  0  0  0  0
   27.9801  -20.4805  -10.1721 N   0  0  0  0  0  0  0  0  0  0  0  0
   25.7220  -20.4308  -10.8709 C   0  0  0  0  0  0  0  0  0  0  0  0
   25.7086  -19.2761  -11.3346 O   0  0  0  0  0  0  0  0  0  0  0  0
   24.8501  -21.3929  -11.4167 N   0  0  0  0  0  0  0  0  0  0  0  0
   24.0328  -21.1410  -12.5850 C   0  0  0  0  0  0  0  0  0  0  0  0
   22.6376  -20.9323  -12.1270 C   0  0  0  0  0  0  0  0  0  0  0  0
   22.3208  -21.1262  -10.9252 O   0  0  0  0  0  0  0  0  0  0  0  0
   21.6271  -20.5188  -12.9890 O   0  0  0  0  0  0  0  0  0  0  0  0
  1  2  1  0
  2  3  1  0
  3  4  2  0
  6  5  1  0
  7  6  1  0
  7  8  1  1
  9  7  1  0
 10  3  1  0
  9 10  1  6
 11 12  2  0
 11  9  1  0
 13 11  1  0
 14 15  1  0
 14 13  1  0
 15 17  1  0
 16 15  2  0
M  END
$$$$
