GVK.pdb
     RDKit          3D

 21 20  0  0  1  0  0  0  0  0999 V2000
   14.8370  -15.1903  -15.3383 N   0  0  0  0  0  0  0  0  0  0  0  0
   15.3809  -14.2646  -16.2968 C   0  0  0  0  0  0  0  0  0  0  0  0
   16.5123  -13.4808  -15.7288 C   0  0  0  0  0  0  0  0  0  0  0  0
   16.6220  -13.2260  -14.5115 O   0  0  0  0  0  0  0  0  0  0  0  0
   19.9676  -14.0687  -16.1138 C   0  0  0  0  0  0  0  0  0  0  0  0
   19.8162  -12.6725  -16.7492 C   0  0  2  0  0  0  0  0  0  0  0  0
   21.1001  -11.9585  -16.4569 C   0  0  0  0  0  0  0  0  0  0  0  0
   18.5786  -12.0838  -16.1932 C   0  0  2  0  0  0  0  0  0  0  0  0
   17.4964  -13.0098  -16.6056 N   0  0  0  0  0  0  0  0  0  0  0  0
   18.2473  -10.7133  -16.5543 C   0  0  0  0  0  0  0  0  0  0  0  0
   17.9927  -10.3741  -17.7617 O   0  0  0  0  0  0  0  0  0  0  0  0
   18.1808   -9.6683  -15.6078 N   0  0  0  0  0  0  0  0  0  0  0  0
   17.8884   -8.2518  -16.0713 C   0  0  1  0  0  0  0  0  0  0  0  0
   16.5725   -7.9598  -15.4579 C   0  0  0  0  0  0  0  0  0  0  0  0
   15.9415   -6.6573  -15.4317 C   0  0  0  0  0  0  0  0  0  0  0  0
   14.6393   -6.4711  -14.7546 C   0  0  0  0  0  0  0  0  0  0  0  0
   14.2258   -4.9770  -14.8848 C   0  0  0  0  0  0  0  0  0  0  0  0
   12.9921   -4.7363  -14.1613 N   0  0  0  0  0  0  0  0  0  0  0  0
   19.0377   -7.5031  -15.5290 C   0  0  0  0  0  0  0  0  0  0  0  0
   19.8394   -7.9503  -14.6800 O   0  0  0  0  0  0  0  0  0  0  0  0
   19.3133   -6.1923  -15.9503 O   0  0  0  0  0  0  0  0  0  0  0  0
  1  2  1  0
  3  4  2  0
  3  2  1  0
  6  5  1  1
  6  8  1  0
  7  6  1  0
  8  9  1  6
  8 10  1  0
  9  3  1  0
 10 11  2  0
 12 10  1  0
 12 13  1  0
 13 14  1  1
 14 15  1  0
 15 16  1  0
 16 17  1  0
 17 18  1  0
 19 21  1  0
 19 13  1  0
 20 19  2  0
M  END
$$$$
