GVK.pdb
     RDKit          3D

 21 20  0  0  1  0  0  0  0  0999 V2000
   23.9982  -20.5268   -8.2609 N   0  0  0  0  0  0  0  0  0  0  0  0
   24.4959  -21.3514   -9.3305 C   0  0  0  0  0  0  0  0  0  0  0  0
   24.9847  -20.5359  -10.4764 C   0  0  0  0  0  0  0  0  0  0  0  0
   24.9523  -19.2879  -10.4881 O   0  0  0  0  0  0  0  0  0  0  0  0
   28.2368  -20.7300  -12.0214 C   0  0  0  0  0  0  0  0  0  0  0  0
   27.2616  -21.1288  -13.1464 C   0  0  2  0  0  0  0  0  0  0  0  0
   27.9200  -20.6941  -14.4196 C   0  0  0  0  0  0  0  0  0  0  0  0
   25.9585  -20.5106  -12.8191 C   0  0  2  0  0  0  0  0  0  0  0  0
   25.5041  -21.2055  -11.5905 N   0  0  0  0  0  0  0  0  0  0  0  0
   24.9157  -20.5275  -13.8343 C   0  0  0  0  0  0  0  0  0  0  0  0
   24.2286  -21.5785  -14.0816 O   0  0  0  0  0  0  0  0  0  0  0  0
   24.5872  -19.3959  -14.6114 N   0  0  0  0  0  0  0  0  0  0  0  0
   23.3931  -19.4485  -15.5485 C   0  0  1  0  0  0  0  0  0  0  0  0
   22.9975  -18.0268  -15.6729 C   0  0  0  0  0  0  0  0  0  0  0  0
   21.8671  -17.5454  -16.4382 C   0  0  0  0  0  0  0  0  0  0  0  0
   21.6608  -16.0936  -16.6340 C   0  0  0  0  0  0  0  0  0  0  0  0
   20.4071  -15.8912  -17.5327 C   0  0  0  0  0  0  0  0  0  0  0  0
   20.1512  -14.4759  -17.7199 N   0  0  0  0  0  0  0  0  0  0  0  0
   23.9713  -20.0692  -16.7551 C   0  0  0  0  0  0  0  0  0  0  0  0
   25.1629  -19.9485  -17.1139 O   0  0  0  0  0  0  0  0  0  0  0  0
   23.1889  -20.8656  -17.6067 O   0  0  0  0  0  0  0  0  0  0  0  0
  1  2  1  0
  3  4  2  0
  3  2  1  0
  6  5  1  1
  6  8  1  0
  7  6  1  0
  8  9  1  1
  8 10  1  0
  9  3  1  0
 10 11  2  0
 12 10  1  0
 12 13  1  0
 13 14  1  6
 14 15  1  0
 15 16  1  0
 16 17  1  0
 17 18  1  0
 19 21  1  0
 19 13  1  0
 20 19  2  0
M  END
$$$$
