GVK.pdb
     RDKit          3D

 21 20  0  0  1  0  0  0  0  0999 V2000
   14.6195  -12.0747  -17.2963 N   0  0  0  0  0  0  0  0  0  0  0  0
   15.3205  -11.3839  -16.2460 C   0  0  0  0  0  0  0  0  0  0  0  0
   16.3037  -10.4054  -16.7874 C   0  0  0  0  0  0  0  0  0  0  0  0
   16.9045  -10.5702  -17.8693 O   0  0  0  0  0  0  0  0  0  0  0  0
   15.9345   -6.9144  -17.5073 C   0  0  0  0  0  0  0  0  0  0  0  0
   16.9457   -6.9506  -16.3446 C   0  0  2  0  0  0  0  0  0  0  0  0
   17.8086   -5.7400  -16.5269 C   0  0  0  0  0  0  0  0  0  0  0  0
   17.6154   -8.2679  -16.4038 C   0  0  2  0  0  0  0  0  0  0  0  0
   16.5625   -9.2481  -16.0439 N   0  0  0  0  0  0  0  0  0  0  0  0
   18.8055   -8.4707  -15.5907 C   0  0  0  0  0  0  0  0  0  0  0  0
   18.7730   -8.3990  -14.3134 O   0  0  0  0  0  0  0  0  0  0  0  0
   20.0702   -8.7611  -16.1463 N   0  0  0  0  0  0  0  0  0  0  0  0
   21.2690   -8.9433  -15.2316 C   0  0  1  0  0  0  0  0  0  0  0  0
   22.1916   -9.7696  -16.0433 C   0  0  0  0  0  0  0  0  0  0  0  0
   23.5030  -10.2093  -15.6165 C   0  0  0  0  0  0  0  0  0  0  0  0
   24.3688  -10.9802  -16.5357 C   0  0  0  0  0  0  0  0  0  0  0  0
   25.6017  -11.4926  -15.7371 C   0  0  0  0  0  0  0  0  0  0  0  0
   26.3356  -12.4656  -16.5234 N   0  0  0  0  0  0  0  0  0  0  0  0
   21.6891   -7.5506  -14.9877 C   0  0  0  0  0  0  0  0  0  0  0  0
   22.1637   -7.1306  -13.9099 O   0  0  0  0  0  0  0  0  0  0  0  0
   21.5787   -6.5738  -15.9904 O   0  0  0  0  0  0  0  0  0  0  0  0
  1  2  1  0
  3  4  2  0
  3  2  1  0
  6  5  1  6
  6  8  1  0
  7  6  1  0
  8  9  1  1
  8 10  1  0
  9  3  1  0
 10 11  2  0
 12 10  1  0
 12 13  1  0
 13 14  1  6
 14 15  1  0
 15 16  1  0
 16 17  1  0
 17 18  1  0
 19 21  1  0
 19 13  1  0
 20 19  2  0
M  END
$$$$
