GVK.pdb
     RDKit          3D

 21 20  0  0  1  0  0  0  0  0999 V2000
   23.1049  -20.3253  -15.1061 N   0  0  0  0  0  0  0  0  0  0  0  0
   23.3354  -19.3187  -16.1086 C   0  0  0  0  0  0  0  0  0  0  0  0
   23.3625  -17.9501  -15.5226 C   0  0  0  0  0  0  0  0  0  0  0  0
   22.7323  -17.6374  -14.4913 O   0  0  0  0  0  0  0  0  0  0  0  0
   26.3848  -16.2347  -14.7567 C   0  0  0  0  0  0  0  0  0  0  0  0
   25.6867  -15.2651  -15.7304 C   0  0  2  0  0  0  0  0  0  0  0  0
   26.1045  -13.8934  -15.2975 C   0  0  0  0  0  0  0  0  0  0  0  0
   24.2416  -15.5751  -15.6770 C   0  0  2  0  0  0  0  0  0  0  0  0
   24.1326  -16.9720  -16.1626 N   0  0  0  0  0  0  0  0  0  0  0  0
   23.3253  -14.7066  -16.4012 C   0  0  0  0  0  0  0  0  0  0  0  0
   23.2257  -14.7407  -17.6766 O   0  0  0  0  0  0  0  0  0  0  0  0
   22.4856  -13.7736  -15.7557 N   0  0  0  0  0  0  0  0  0  0  0  0
   21.4980  -12.9595  -16.5735 C   0  0  1  0  0  0  0  0  0  0  0  0
   20.1833  -13.4007  -16.0539 C   0  0  0  0  0  0  0  0  0  0  0  0
   18.9036  -12.8896  -16.4970 C   0  0  0  0  0  0  0  0  0  0  0  0
   17.6577  -13.2979  -15.8115 C   0  0  0  0  0  0  0  0  0  0  0  0
   16.4666  -12.5349  -16.4591 C   0  0  0  0  0  0  0  0  0  0  0  0
   15.2227  -12.9167  -15.8185 N   0  0  0  0  0  0  0  0  0  0  0  0
   21.8924  -11.5754  -16.2503 C   0  0  0  0  0  0  0  0  0  0  0  0
   22.5356  -11.2400  -15.2319 O   0  0  0  0  0  0  0  0  0  0  0  0
   21.5578  -10.5088  -17.1001 O   0  0  0  0  0  0  0  0  0  0  0  0
  1  2  1  0
  3  4  2  0
  3  2  1  0
  6  5  1  1
  6  8  1  0
  7  6  1  0
  8  9  1  6
  8 10  1  0
  9  3  1  0
 10 11  2  0
 12 10  1  0
 12 13  1  0
 13 14  1  1
 14 15  1  0
 15 16  1  0
 16 17  1  0
 17 18  1  0
 19 21  1  0
 19 13  1  0
 20 19  2  0
M  END
$$$$
