GVK.pdb
     RDKit          3D

 21 20  0  0  1  0  0  0  0  0999 V2000
   11.6375  -11.4414   -9.6898 N   0  0  0  0  0  0  0  0  0  0  0  0
   12.1929  -10.7112  -10.7988 C   0  0  0  0  0  0  0  0  0  0  0  0
   13.3526   -9.8740  -10.3849 C   0  0  0  0  0  0  0  0  0  0  0  0
   13.6676   -9.6877   -9.1913 O   0  0  0  0  0  0  0  0  0  0  0  0
   16.6290  -10.2994  -11.8703 C   0  0  0  0  0  0  0  0  0  0  0  0
   16.3070   -8.8123  -12.1163 C   0  0  2  0  0  0  0  0  0  0  0  0
   17.6268   -8.1051  -12.0768 C   0  0  0  0  0  0  0  0  0  0  0  0
   15.3044   -8.4204  -11.1022 C   0  0  2  0  0  0  0  0  0  0  0  0
   14.1224   -9.2698  -11.3857 N   0  0  0  0  0  0  0  0  0  0  0  0
   14.9217   -7.0185  -11.0204 C   0  0  0  0  0  0  0  0  0  0  0  0
   14.2257   -6.4524  -11.9330 O   0  0  0  0  0  0  0  0  0  0  0  0
   15.2847   -6.1892   -9.9374 N   0  0  0  0  0  0  0  0  0  0  0  0
   14.9203   -4.7149   -9.9646 C   0  0  1  0  0  0  0  0  0  0  0  0
   14.4356   -4.4606   -8.5886 C   0  0  0  0  0  0  0  0  0  0  0  0
   13.0753   -4.6657   -8.1383 C   0  0  0  0  0  0  0  0  0  0  0  0
   12.6779   -4.2882   -6.7641 C   0  0  0  0  0  0  0  0  0  0  0  0
   11.1506   -4.5392   -6.6068 C   0  0  0  0  0  0  0  0  0  0  0  0
   10.7179   -4.1610   -5.2752 N   0  0  0  0  0  0  0  0  0  0  0  0
   16.2030   -4.0838  -10.3280 C   0  0  0  0  0  0  0  0  0  0  0  0
   17.3271   -4.5914  -10.1230 O   0  0  0  0  0  0  0  0  0  0  0  0
   16.2415   -2.8263  -10.9515 O   0  0  0  0  0  0  0  0  0  0  0  0
  1  2  1  0
  3  4  2  0
  3  2  1  0
  6  5  1  1
  6  8  1  0
  7  6  1  0
  8  9  1  6
  8 10  1  0
  9  3  1  0
 10 11  2  0
 12 10  1  0
 12 13  1  0
 13 14  1  1
 14 15  1  0
 15 16  1  0
 16 17  1  0
 17 18  1  0
 19 21  1  0
 19 13  1  0
 20 19  2  0
M  END
$$$$
