GVK.pdb
     RDKit          3D

 21 20  0  0  1  0  0  0  0  0999 V2000
   12.6437  -13.7633  -10.4104 N   0  0  0  0  0  0  0  0  0  0  0  0
   13.7959  -12.9012  -10.4339 C   0  0  0  0  0  0  0  0  0  0  0  0
   13.4162  -11.4754  -10.6341 C   0  0  0  0  0  0  0  0  0  0  0  0
   12.2521  -11.0516  -10.4793 O   0  0  0  0  0  0  0  0  0  0  0  0
   15.1159   -8.8272   -8.8701 C   0  0  0  0  0  0  0  0  0  0  0  0
   13.8385   -8.6969   -9.7228 C   0  0  2  0  0  0  0  0  0  0  0  0
   12.8019   -9.5173   -9.0186 C   0  0  0  0  0  0  0  0  0  0  0  0
   14.2003   -9.1073  -11.0969 C   0  0  2  0  0  0  0  0  0  0  0  0
   14.4157  -10.5720  -11.0137 N   0  0  0  0  0  0  0  0  0  0  0  0
   15.3368   -8.4562  -11.7315 C   0  0  0  0  0  0  0  0  0  0  0  0
   16.5383   -8.6584  -11.3400 O   0  0  0  0  0  0  0  0  0  0  0  0
   15.1985   -7.5643  -12.8168 N   0  0  0  0  0  0  0  0  0  0  0  0
   16.4383   -7.0146  -13.5007 C   0  0  1  0  0  0  0  0  0  0  0  0
   16.0738   -7.0423  -14.9357 C   0  0  0  0  0  0  0  0  0  0  0  0
   16.3667   -8.1307  -15.8439 C   0  0  0  0  0  0  0  0  0  0  0  0
   15.9578   -8.0503  -17.2635 C   0  0  0  0  0  0  0  0  0  0  0  0
   16.3806   -9.3686  -17.9731 C   0  0  0  0  0  0  0  0  0  0  0  0
   15.8995   -9.3747  -19.3413 N   0  0  0  0  0  0  0  0  0  0  0  0
   16.5648   -5.6785  -12.8888 C   0  0  0  0  0  0  0  0  0  0  0  0
   15.6302   -5.0605  -12.3338 O   0  0  0  0  0  0  0  0  0  0  0  0
   17.7902   -4.9929  -12.8912 O   0  0  0  0  0  0  0  0  0  0  0  0
  1  2  1  0
  3  4  2  0
  3  2  1  0
  6  5  1  1
  6  8  1  0
  7  6  1  0
  8  9  1  1
  8 10  1  0
  9  3  1  0
 10 11  2  0
 12 10  1  0
 12 13  1  0
 13 14  1  6
 14 15  1  0
 15 16  1  0
 16 17  1  0
 17 18  1  0
 19 21  1  0
 19 13  1  0
 20 19  2  0
M  END
$$$$
