GVK.pdb
     RDKit          3D

 21 20  0  0  1  0  0  0  0  0999 V2000
   20.8165  -16.3415  -17.4536 N   0  0  0  0  0  0  0  0  0  0  0  0
   21.1886  -14.9951  -17.8005 C   0  0  0  0  0  0  0  0  0  0  0  0
   21.2097  -14.1024  -16.6090 C   0  0  0  0  0  0  0  0  0  0  0  0
   20.3743  -14.1793  -15.6845 O   0  0  0  0  0  0  0  0  0  0  0  0
   24.6544  -11.9296  -16.0252 C   0  0  0  0  0  0  0  0  0  0  0  0
   23.6932  -12.3281  -14.8881 C   0  0  2  0  0  0  0  0  0  0  0  0
   24.1028  -13.7112  -14.4842 C   0  0  0  0  0  0  0  0  0  0  0  0
   22.3206  -12.1604  -15.4125 C   0  0  2  0  0  0  0  0  0  0  0  0
   22.2161  -13.1330  -16.5270 N   0  0  0  0  0  0  0  0  0  0  0  0
   21.9089  -10.8340  -15.8481 C   0  0  0  0  0  0  0  0  0  0  0  0
   22.2623  -10.3532  -16.9802 O   0  0  0  0  0  0  0  0  0  0  0  0
   21.0953   -9.9898  -15.0621 N   0  0  0  0  0  0  0  0  0  0  0  0
   20.7774   -8.5865  -15.5486 C   0  0  1  0  0  0  0  0  0  0  0  0
   19.2973   -8.5712  -15.5942 C   0  0  0  0  0  0  0  0  0  0  0  0
   18.4885   -7.3986  -15.8512 C   0  0  0  0  0  0  0  0  0  0  0  0
   17.0126   -7.4990  -15.8746 C   0  0  0  0  0  0  0  0  0  0  0  0
   16.4293   -6.0986  -16.2193 C   0  0  0  0  0  0  0  0  0  0  0  0
   14.9847   -6.1150  -16.0911 N   0  0  0  0  0  0  0  0  0  0  0  0
   21.4034   -7.7475  -14.5094 C   0  0  0  0  0  0  0  0  0  0  0  0
   21.7203   -8.1490  -13.3685 O   0  0  0  0  0  0  0  0  0  0  0  0
   21.6941   -6.3945  -14.7477 O   0  0  0  0  0  0  0  0  0  0  0  0
  1  2  1  0
  3  4  2  0
  3  2  1  0
  6  5  1  6
  6  8  1  0
  7  6  1  0
  8  9  1  6
  8 10  1  0
  9  3  1  0
 10 11  2  0
 12 10  1  0
 12 13  1  0
 13 14  1  1
 14 15  1  0
 15 16  1  0
 16 17  1  0
 17 18  1  0
 19 21  1  0
 19 13  1  0
 20 19  2  0
M  END
$$$$
