GVK.pdb
     RDKit          3D

 21 20  0  0  1  0  0  0  0  0999 V2000
   28.6761  -18.8611  -15.2526 N   0  0  0  0  0  0  0  0  0  0  0  0
   27.8237  -18.6803  -14.1071 C   0  0  0  0  0  0  0  0  0  0  0  0
   26.9106  -19.8396  -13.9082 C   0  0  0  0  0  0  0  0  0  0  0  0
   26.8296  -20.7897  -14.7139 O   0  0  0  0  0  0  0  0  0  0  0  0
   25.2079  -20.1898  -10.1339 C   0  0  0  0  0  0  0  0  0  0  0  0
   25.5719  -21.3750  -11.0496 C   0  0  2  0  0  0  0  0  0  0  0  0
   27.0215  -21.6499  -10.7913 C   0  0  0  0  0  0  0  0  0  0  0  0
   25.1976  -20.9809  -12.4250 C   0  0  2  0  0  0  0  0  0  0  0  0
   26.1077  -19.8597  -12.7619 N   0  0  0  0  0  0  0  0  0  0  0  0
   23.8129  -20.6134  -12.6817 C   0  0  0  0  0  0  0  0  0  0  0  0
   23.3367  -19.4794  -12.3279 O   0  0  0  0  0  0  0  0  0  0  0  0
   22.9030  -21.4718  -13.3356 N   0  0  0  0  0  0  0  0  0  0  0  0
   21.5090  -20.9724  -13.6739 C   0  0  1  0  0  0  0  0  0  0  0  0
   21.2686  -21.5292  -15.0249 C   0  0  0  0  0  0  0  0  0  0  0  0
   20.0634  -21.3285  -15.8011 C   0  0  0  0  0  0  0  0  0  0  0  0
   19.8868  -20.0975  -16.6025 C   0  0  0  0  0  0  0  0  0  0  0  0
   18.5024  -20.1643  -17.3091 C   0  0  0  0  0  0  0  0  0  0  0  0
   18.2974  -18.9776  -18.1172 N   0  0  0  0  0  0  0  0  0  0  0  0
   20.6995  -21.5455  -12.5822 C   0  0  0  0  0  0  0  0  0  0  0  0
   20.9786  -22.5989  -11.9691 O   0  0  0  0  0  0  0  0  0  0  0  0
   19.5211  -20.9182  -12.1469 O   0  0  0  0  0  0  0  0  0  0  0  0
  1  2  1  0
  3  4  2  0
  3  2  1  0
  6  5  1  1
  6  8  1  0
  7  6  1  0
  8  9  1  1
  8 10  1  0
  9  3  1  0
 10 11  2  0
 12 10  1  0
 12 13  1  0
 13 14  1  6
 14 15  1  0
 15 16  1  0
 16 17  1  0
 17 18  1  0
 19 21  1  0
 19 13  1  0
 20 19  2  0
M  END
$$$$
