GVK.pdb
     RDKit          3D

 21 20  0  0  1  0  0  0  0  0999 V2000
   18.6346  -12.1940  -17.8204 N   0  0  0  0  0  0  0  0  0  0  0  0
   19.6355  -11.1710  -17.9721 C   0  0  0  0  0  0  0  0  0  0  0  0
   20.0614  -10.6142  -16.6584 C   0  0  0  0  0  0  0  0  0  0  0  0
   19.3193  -10.5914  -15.6547 O   0  0  0  0  0  0  0  0  0  0  0  0
   24.1071   -9.9711  -16.0949 C   0  0  0  0  0  0  0  0  0  0  0  0
   23.0859  -10.2110  -14.9656 C   0  0  2  0  0  0  0  0  0  0  0  0
   22.9453  -11.6987  -14.8626 C   0  0  0  0  0  0  0  0  0  0  0  0
   21.8716   -9.4445  -15.3198 C   0  0  2  0  0  0  0  0  0  0  0  0
   21.3559  -10.0931  -16.5496 N   0  0  0  0  0  0  0  0  0  0  0  0
   21.9979   -8.0073  -15.5115 C   0  0  0  0  0  0  0  0  0  0  0  0
   22.4520   -7.5065  -16.5982 O   0  0  0  0  0  0  0  0  0  0  0  0
   21.6300   -7.0692  -14.5231 N   0  0  0  0  0  0  0  0  0  0  0  0
   21.7340   -5.5835  -14.8210 C   0  0  1  0  0  0  0  0  0  0  0  0
   20.3345   -5.1981  -15.1138 C   0  0  0  0  0  0  0  0  0  0  0  0
   19.9160   -3.8974  -15.5916 C   0  0  0  0  0  0  0  0  0  0  0  0
   19.3742   -3.7423  -16.9595 C   0  0  0  0  0  0  0  0  0  0  0  0
   18.9276   -2.2640  -17.1475 C   0  0  0  0  0  0  0  0  0  0  0  0
   18.3486   -2.0818  -18.4647 N   0  0  0  0  0  0  0  0  0  0  0  0
   22.3045   -5.0539  -13.5681 C   0  0  0  0  0  0  0  0  0  0  0  0
   22.1943   -5.6028  -12.4502 O   0  0  0  0  0  0  0  0  0  0  0  0
   23.0357   -3.8552  -13.5541 O   0  0  0  0  0  0  0  0  0  0  0  0
  1  2  1  0
  3  4  2  0
  3  2  1  0
  6  5  1  6
  6  8  1  0
  7  6  1  0
  8  9  1  6
  8 10  1  0
  9  3  1  0
 10 11  2  0
 12 10  1  0
 12 13  1  0
 13 14  1  1
 14 15  1  0
 15 16  1  0
 16 17  1  0
 17 18  1  0
 19 21  1  0
 19 13  1  0
 20 19  2  0
M  END
$$$$
