GVK.pdb
     RDKit          3D

 21 20  0  0  1  0  0  0  0  0999 V2000
   28.1227  -22.2884  -15.8063 N   0  0  0  0  0  0  0  0  0  0  0  0
   27.6432  -21.1767  -15.0281 C   0  0  0  0  0  0  0  0  0  0  0  0
   26.5261  -21.5729  -14.1268 C   0  0  0  0  0  0  0  0  0  0  0  0
   25.8876  -22.6375  -14.2599 O   0  0  0  0  0  0  0  0  0  0  0  0
   26.8981  -21.3321  -10.5044 C   0  0  0  0  0  0  0  0  0  0  0  0
   25.6282  -20.5131  -10.8084 C   0  0  2  0  0  0  0  0  0  0  0  0
   24.7451  -20.6849   -9.6108 C   0  0  0  0  0  0  0  0  0  0  0  0
   25.1064  -21.0016  -12.1032 C   0  0  2  0  0  0  0  0  0  0  0  0
   26.1799  -20.7071  -13.0829 N   0  0  0  0  0  0  0  0  0  0  0  0
   23.8292  -20.4822  -12.5692 C   0  0  0  0  0  0  0  0  0  0  0  0
   23.6644  -19.2452  -12.8532 O   0  0  0  0  0  0  0  0  0  0  0  0
   22.6901  -21.2975  -12.7428 N   0  0  0  0  0  0  0  0  0  0  0  0
   21.3762  -20.6709  -13.1765 C   0  0  1  0  0  0  0  0  0  0  0  0
   20.8292  -21.6598  -14.1335 C   0  0  0  0  0  0  0  0  0  0  0  0
   20.0082  -21.3358  -15.2808 C   0  0  0  0  0  0  0  0  0  0  0  0
   20.3789  -20.2150  -16.1726 C   0  0  0  0  0  0  0  0  0  0  0  0
   19.2658  -20.0519  -17.2472 C   0  0  0  0  0  0  0  0  0  0  0  0
   19.6015  -18.9697  -18.1525 N   0  0  0  0  0  0  0  0  0  0  0  0
   20.6561  -20.5398  -11.8960 C   0  0  0  0  0  0  0  0  0  0  0  0
   20.8003  -21.3062  -10.9187 O   0  0  0  0  0  0  0  0  0  0  0  0
   19.7297  -19.5053  -11.6876 O   0  0  0  0  0  0  0  0  0  0  0  0
  1  2  1  0
  3  4  2  0
  3  2  1  0
  6  5  1  1
  6  8  1  0
  7  6  1  0
  8  9  1  6
  8 10  1  0
  9  3  1  0
 10 11  2  0
 12 10  1  0
 12 13  1  0
 13 14  1  6
 14 15  1  0
 15 16  1  0
 16 17  1  0
 17 18  1  0
 19 21  1  0
 19 13  1  0
 20 19  2  0
M  END
$$$$
