GVK.pdb
     RDKit          3D

 21 20  0  0  1  0  0  0  0  0999 V2000
   28.3106  -21.4977  -12.2084 N   0  0  0  0  0  0  0  0  0  0  0  0
   27.8620  -21.2557  -13.5544 C   0  0  0  0  0  0  0  0  0  0  0  0
   26.7101  -20.3130  -13.5927 C   0  0  0  0  0  0  0  0  0  0  0  0
   26.1221  -19.9128  -12.5666 O   0  0  0  0  0  0  0  0  0  0  0  0
   26.0948  -18.4071  -17.2036 C   0  0  0  0  0  0  0  0  0  0  0  0
   25.7650  -17.7884  -15.8309 C   0  0  2  0  0  0  0  0  0  0  0  0
   27.0466  -17.1833  -15.3463 C   0  0  0  0  0  0  0  0  0  0  0  0
   25.1782  -18.8677  -15.0074 C   0  0  2  0  0  0  0  0  0  0  0  0
   26.2699  -19.8573  -14.8408 N   0  0  0  0  0  0  0  0  0  0  0  0
   23.9663  -19.5158  -15.4865 C   0  0  0  0  0  0  0  0  0  0  0  0
   23.9932  -20.4099  -16.4018 O   0  0  0  0  0  0  0  0  0  0  0  0
   22.6848  -19.2102  -14.9798 N   0  0  0  0  0  0  0  0  0  0  0  0
   21.4839  -20.0220  -15.4336 C   0  0  1  0  0  0  0  0  0  0  0  0
   21.0016  -20.6433  -14.1788 C   0  0  0  0  0  0  0  0  0  0  0  0
   19.8828  -21.5567  -14.0836 C   0  0  0  0  0  0  0  0  0  0  0  0
   19.4392  -22.0605  -12.7651 C   0  0  0  0  0  0  0  0  0  0  0  0
   18.2808  -23.0743  -12.9896 C   0  0  0  0  0  0  0  0  0  0  0  0
   17.9472  -23.7343  -11.7420 N   0  0  0  0  0  0  0  0  0  0  0  0
   20.6129  -18.9871  -16.0219 C   0  0  0  0  0  0  0  0  0  0  0  0
   20.7221  -17.7605  -15.8058 O   0  0  0  0  0  0  0  0  0  0  0  0
   19.5683  -19.3295  -16.8955 O   0  0  0  0  0  0  0  0  0  0  0  0
  1  2  1  0
  3  4  2  0
  3  2  1  0
  6  5  1  6
  6  8  1  0
  7  6  1  0
  8  9  1  6
  8 10  1  0
  9  3  1  0
 10 11  2  0
 12 10  1  0
 12 13  1  0
 13 14  1  1
 14 15  1  0
 15 16  1  0
 16 17  1  0
 17 18  1  0
 19 21  1  0
 19 13  1  0
 20 19  2  0
M  END
$$$$
