FFM.pdb
     RDKit          3D

 31 32  0  0  1  0  0  0  0  0999 V2000
   26.8615  -21.0651  -16.8515 N   0  0  0  0  0  0  0  0  0  0  0  0
   27.1608  -20.3013  -15.6634 C   0  0  1  0  0  0  0  0  0  0  0  0
   26.8602  -18.8481  -15.8797 C   0  0  0  0  0  0  0  0  0  0  0  0
   27.6654  -18.1998  -16.9210 C   0  0  0  0  0  0  0  0  0  0  0  0
   27.1603  -17.9106  -18.1686 C   0  0  0  0  0  0  0  0  0  0  0  0
   27.9262  -17.3017  -19.1373 C   0  0  0  0  0  0  0  0  0  0  0  0
   29.2339  -16.9705  -18.8561 C   0  0  0  0  0  0  0  0  0  0  0  0
   29.7456  -17.2579  -17.6073 C   0  0  0  0  0  0  0  0  0  0  0  0
   28.9855  -17.8622  -16.6461 C   0  0  0  0  0  0  0  0  0  0  0  0
   26.6199  -20.8836  -14.4407 C   0  0  0  0  0  0  0  0  0  0  0  0
   25.5647  -21.5983  -14.5216 O   0  0  0  0  0  0  0  0  0  0  0  0
   27.1623  -20.7335  -13.1387 N   0  0  0  0  0  0  0  0  0  0  0  0
   26.4675  -21.1155  -11.9364 C   0  0  1  0  0  0  0  0  0  0  0  0
   27.2654  -20.7874  -10.6915 C   0  0  0  0  0  0  0  0  0  0  0  0
   26.4044  -20.5999   -9.4979 C   0  0  0  0  0  0  0  0  0  0  0  0
   26.3472  -19.4563   -8.7372 C   0  0  0  0  0  0  0  0  0  0  0  0
   25.5293  -19.3326   -7.6351 C   0  0  0  0  0  0  0  0  0  0  0  0
   24.7205  -20.3674   -7.2421 C   0  0  0  0  0  0  0  0  0  0  0  0
   24.7670  -21.5223   -7.9960 C   0  0  0  0  0  0  0  0  0  0  0  0
   25.5801  -21.6578   -9.0994 C   0  0  0  0  0  0  0  0  0  0  0  0
   25.1789  -20.4103  -11.8390 C   0  0  0  0  0  0  0  0  0  0  0  0
   25.1733  -19.1561  -11.8912 O   0  0  0  0  0  0  0  0  0  0  0  0
   21.7068  -19.8665  -16.0964 C   0  0  0  0  0  0  0  0  0  0  0  0
   20.8780  -18.6043  -15.0609 S   0  0  0  0  0  0  0  0  0  0  0  0
   21.1854  -19.0581  -13.3322 C   0  0  0  0  0  0  0  0  0  0  0  0
   22.4361  -19.8660  -13.2068 C   0  0  0  0  0  0  0  0  0  0  0  0
   22.7206  -20.3122  -11.7770 C   0  0  2  0  0  0  0  0  0  0  0  0
   23.9291  -21.0719  -11.6908 N   0  0  0  0  0  0  0  0  0  0  0  0
   21.5702  -21.0874  -11.3239 C   0  0  0  0  0  0  0  0  0  0  0  0
   20.4245  -20.6113  -11.1549 O   0  0  0  0  0  0  0  0  0  0  0  0
   21.7426  -22.4577  -11.0557 O   0  0  0  0  0  0  0  0  0  0  0  0
  2  1  1  6
  2 10  1  0
  2  3  1  0
  3  4  1  0
  4  9  2  0
  5  6  2  0
  5  4  1  0
  6  7  1  0
  7  8  2  0
  9  8  1  0
 10 11  2  0
 12 13  1  0
 12 10  1  0
 13 21  1  0
 13 14  1  1
 15 14  1  0
 15 16  2  0
 17 16  1  0
 18 17  2  0
 19 20  2  0
 19 18  1  0
 20 15  1  0
 21 22  2  0
 21 28  1  0
 23 24  1  0
 24 25  1  0
 26 25  1  0
 27 26  1  6
 28 27  1  0
 29 31  1  0
 29 27  1  0
 30 29  2  0
M  END
$$$$
