FFM.pdb
     RDKit          3D

 31 32  0  0  1  0  0  0  0  0999 V2000
   28.5315  -20.3269  -14.3355 N   0  0  0  0  0  0  0  0  0  0  0  0
   27.4385  -19.6208  -13.7097 C   0  0  1  0  0  0  0  0  0  0  0  0
   26.5924  -18.9359  -14.7410 C   0  0  0  0  0  0  0  0  0  0  0  0
   27.2186  -17.7727  -15.3797 C   0  0  0  0  0  0  0  0  0  0  0  0
   27.1950  -16.5193  -14.8110 C   0  0  0  0  0  0  0  0  0  0  0  0
   27.7867  -15.4357  -15.4204 C   0  0  0  0  0  0  0  0  0  0  0  0
   28.4210  -15.6044  -16.6320 C   0  0  0  0  0  0  0  0  0  0  0  0
   28.4480  -16.8584  -17.2068 C   0  0  0  0  0  0  0  0  0  0  0  0
   27.8607  -17.9338  -16.6020 C   0  0  0  0  0  0  0  0  0  0  0  0
   26.7148  -20.4162  -12.7247 C   0  0  0  0  0  0  0  0  0  0  0  0
   26.6621  -21.6821  -12.8840 O   0  0  0  0  0  0  0  0  0  0  0  0
   26.0483  -19.9126  -11.5783 N   0  0  0  0  0  0  0  0  0  0  0  0
   25.0743  -20.6629  -10.8283 C   0  0  1  0  0  0  0  0  0  0  0  0
   24.8573  -20.0868   -9.4444 C   0  0  0  0  0  0  0  0  0  0  0  0
   26.0563  -20.2174   -8.5803 C   0  0  0  0  0  0  0  0  0  0  0  0
   26.7614  -19.1662   -8.0440 C   0  0  0  0  0  0  0  0  0  0  0  0
   27.8712  -19.3410   -7.2461 C   0  0  0  0  0  0  0  0  0  0  0  0
   28.3290  -20.5982   -6.9469 C   0  0  0  0  0  0  0  0  0  0  0  0
   27.6314  -21.6637   -7.4782 C   0  0  0  0  0  0  0  0  0  0  0  0
   26.5210  -21.5016   -8.2768 C   0  0  0  0  0  0  0  0  0  0  0  0
   23.7754  -20.6599  -11.5213 C   0  0  0  0  0  0  0  0  0  0  0  0
   23.4558  -19.6515  -12.1972 O   0  0  0  0  0  0  0  0  0  0  0  0
   21.5244  -25.4535  -14.5729 C   0  0  0  0  0  0  0  0  0  0  0  0
   19.9452  -24.5371  -14.7092 S   0  0  0  0  0  0  0  0  0  0  0  0
   20.1744  -22.9624  -13.8395 C   0  0  0  0  0  0  0  0  0  0  0  0
   21.4073  -22.9930  -12.9959 C   0  0  0  0  0  0  0  0  0  0  0  0
   21.6622  -21.6830  -12.2590 C   0  0  2  0  0  0  0  0  0  0  0  0
   22.8548  -21.7423  -11.4721 N   0  0  0  0  0  0  0  0  0  0  0  0
   20.4908  -21.4118  -11.4318 C   0  0  0  0  0  0  0  0  0  0  0  0
   19.3352  -21.2439  -11.8837 O   0  0  0  0  0  0  0  0  0  0  0  0
   20.6534  -21.3308  -10.0368 O   0  0  0  0  0  0  0  0  0  0  0  0
  2  1  1  6
  2 10  1  0
  2  3  1  0
  3  4  1  0
  4  9  2  0
  5  6  2  0
  5  4  1  0
  6  7  1  0
  7  8  2  0
  9  8  1  0
 10 11  2  0
 12 13  1  0
 12 10  1  0
 13 21  1  0
 13 14  1  1
 15 14  1  0
 15 16  2  0
 17 16  1  0
 18 17  2  0
 19 20  2  0
 19 18  1  0
 20 15  1  0
 21 22  2  0
 21 28  1  0
 23 24  1  0
 24 25  1  0
 26 25  1  0
 27 26  1  1
 28 27  1  0
 29 31  1  0
 29 27  1  0
 30 29  2  0
M  END
$$$$
