FFM.pdb
     RDKit          3D

 31 32  0  0  1  0  0  0  0  0999 V2000
   15.8921  -19.8901    3.6022 N   0  0  0  0  0  0  0  0  0  0  0  0
   15.5770  -18.9558    4.6570 C   0  0  1  0  0  0  0  0  0  0  0  0
   15.1422  -19.6828    5.8944 C   0  0  0  0  0  0  0  0  0  0  0  0
   13.9188  -20.4790    5.7446 C   0  0  0  0  0  0  0  0  0  0  0  0
   12.6749  -19.9016    5.6250 C   0  0  0  0  0  0  0  0  0  0  0  0
   11.5342  -20.6599    5.4847 C   0  0  0  0  0  0  0  0  0  0  0  0
   11.6344  -22.0341    5.4628 C   0  0  0  0  0  0  0  0  0  0  0  0
   12.8787  -22.6185    5.5822 C   0  0  0  0  0  0  0  0  0  0  0  0
   14.0105  -21.8658    5.7214 C   0  0  0  0  0  0  0  0  0  0  0  0
   16.5926  -17.9276    4.8517 C   0  0  0  0  0  0  0  0  0  0  0  0
   17.8161  -18.2349    4.6531 O   0  0  0  0  0  0  0  0  0  0  0  0
   16.3520  -16.5870    5.2477 N   0  0  0  0  0  0  0  0  0  0  0  0
   17.3927  -15.6058    5.4149 C   0  0  1  0  0  0  0  0  0  0  0  0
   16.8512  -14.1919    5.3748 C   0  0  0  0  0  0  0  0  0  0  0  0
   17.9173  -13.1707    5.5235 C   0  0  0  0  0  0  0  0  0  0  0  0
   18.2578  -12.5505    6.7021 C   0  0  0  0  0  0  0  0  0  0  0  0
   19.2577  -11.6061    6.7872 C   0  0  0  0  0  0  0  0  0  0  0  0
   19.9706  -11.2371    5.6759 C   0  0  0  0  0  0  0  0  0  0  0  0
   19.6401  -11.8512    4.4851 C   0  0  0  0  0  0  0  0  0  0  0  0
   18.6430  -12.7963    4.3874 C   0  0  0  0  0  0  0  0  0  0  0  0
   18.0700  -15.7874    6.7094 C   0  0  0  0  0  0  0  0  0  0  0  0
   17.4000  -16.2020    7.6866 O   0  0  0  0  0  0  0  0  0  0  0  0
   24.0940  -18.3840   10.7552 C   0  0  0  0  0  0  0  0  0  0  0  0
   23.4735  -17.9332    9.0927 S   0  0  0  0  0  0  0  0  0  0  0  0
   21.9913  -16.9185    9.3422 C   0  0  0  0  0  0  0  0  0  0  0  0
   21.3641  -16.5591    8.0344 C   0  0  0  0  0  0  0  0  0  0  0  0
   20.0371  -15.8244    8.1878 C   0  0  2  0  0  0  0  0  0  0  0  0
   19.4509  -15.5213    6.9192 N   0  0  0  0  0  0  0  0  0  0  0  0
   20.2950  -14.6126    8.9590 C   0  0  0  0  0  0  0  0  0  0  0  0
   20.7511  -13.5532    8.4715 O   0  0  0  0  0  0  0  0  0  0  0  0
   20.0192  -14.6186   10.3385 O   0  0  0  0  0  0  0  0  0  0  0  0
  2  1  1  6
  2 10  1  0
  2  3  1  0
  3  4  1  0
  4  9  2  0
  5  6  2  0
  5  4  1  0
  6  7  1  0
  7  8  2  0
  9  8  1  0
 10 11  2  0
 12 13  1  0
 12 10  1  0
 13 21  1  0
 13 14  1  1
 15 14  1  0
 15 16  2  0
 17 16  1  0
 18 17  2  0
 19 20  2  0
 19 18  1  0
 20 15  1  0
 21 22  2  0
 21 28  1  0
 23 24  1  0
 24 25  1  0
 26 25  1  0
 27 26  1  6
 28 27  1  0
 29 31  1  0
 29 27  1  0
 30 29  2  0
M  END
$$$$
