FFM.pdb
     RDKit          3D

 31 32  0  0  1  0  0  0  0  0999 V2000
   26.5633  -22.7436  -17.9931 N   0  0  0  0  0  0  0  0  0  0  0  0
   26.2498  -21.5223  -17.2897 C   0  0  1  0  0  0  0  0  0  0  0  0
   25.4304  -20.6104  -18.1533 C   0  0  0  0  0  0  0  0  0  0  0  0
   26.1311  -20.0780  -19.3275 C   0  0  0  0  0  0  0  0  0  0  0  0
   25.9215  -20.5707  -20.5957 C   0  0  0  0  0  0  0  0  0  0  0  0
   26.5852  -20.0623  -21.6896 C   0  0  0  0  0  0  0  0  0  0  0  0
   27.4845  -19.0326  -21.5164 C   0  0  0  0  0  0  0  0  0  0  0  0
   27.6986  -18.5347  -20.2475 C   0  0  0  0  0  0  0  0  0  0  0  0
   27.0399  -19.0393  -19.1620 C   0  0  0  0  0  0  0  0  0  0  0  0
   25.7439  -21.7375  -15.9390 C   0  0  0  0  0  0  0  0  0  0  0  0
   25.0229  -22.7676  -15.7157 O   0  0  0  0  0  0  0  0  0  0  0  0
   25.9793  -20.8977  -14.8203 N   0  0  0  0  0  0  0  0  0  0  0  0
   25.4601  -21.1600  -13.5029 C   0  0  1  0  0  0  0  0  0  0  0  0
   26.2857  -20.4905  -12.4240 C   0  0  0  0  0  0  0  0  0  0  0  0
   25.6984  -20.6596  -11.0721 C   0  0  0  0  0  0  0  0  0  0  0  0
   24.5281  -21.3263  -10.7972 C   0  0  0  0  0  0  0  0  0  0  0  0
   24.0238  -21.4551   -9.5213 C   0  0  0  0  0  0  0  0  0  0  0  0
   24.6824  -20.9118   -8.4486 C   0  0  0  0  0  0  0  0  0  0  0  0
   25.8590  -20.2393   -8.7088 C   0  0  0  0  0  0  0  0  0  0  0  0
   26.3729  -20.1040   -9.9795 C   0  0  0  0  0  0  0  0  0  0  0  0
   24.0804  -20.6604  -13.3832 C   0  0  0  0  0  0  0  0  0  0  0  0
   23.8764  -19.4258  -13.4817 O   0  0  0  0  0  0  0  0  0  0  0  0
   17.7932  -23.9739  -13.8157 C   0  0  0  0  0  0  0  0  0  0  0  0
   18.3832  -22.9696  -12.4031 S   0  0  0  0  0  0  0  0  0  0  0  0
   20.1898  -22.8855  -12.5361 C   0  0  0  0  0  0  0  0  0  0  0  0
   20.6016  -21.9654  -13.6391 C   0  0  0  0  0  0  0  0  0  0  0  0
   21.6416  -20.9382  -13.2061 C   0  0  2  0  0  0  0  0  0  0  0  0
   22.9552  -21.5015  -13.1635 N   0  0  0  0  0  0  0  0  0  0  0  0
   21.2367  -20.4305  -11.8992 C   0  0  0  0  0  0  0  0  0  0  0  0
   21.7351  -20.8068  -10.8139 O   0  0  0  0  0  0  0  0  0  0  0  0
   20.2236  -19.4563  -11.8375 O   0  0  0  0  0  0  0  0  0  0  0  0
  2  1  1  6
  2 10  1  0
  2  3  1  0
  3  4  1  0
  4  9  2  0
  5  6  2  0
  5  4  1  0
  6  7  1  0
  7  8  2  0
  9  8  1  0
 10 11  2  0
 12 13  1  0
 12 10  1  0
 13 21  1  0
 13 14  1  1
 15 14  1  0
 15 16  2  0
 17 16  1  0
 18 17  2  0
 19 20  2  0
 19 18  1  0
 20 15  1  0
 21 22  2  0
 21 28  1  0
 23 24  1  0
 24 25  1  0
 26 25  1  0
 27 26  1  1
 28 27  1  0
 29 31  1  0
 29 27  1  0
 30 29  2  0
M  END
$$$$
