FFM.pdb
     RDKit          3D

 31 32  0  0  1  0  0  0  0  0999 V2000
   24.2985  -14.7356  -19.6014 N   0  0  0  0  0  0  0  0  0  0  0  0
   23.3893  -14.9498  -18.5004 C   0  0  1  0  0  0  0  0  0  0  0  0
   21.9710  -14.7334  -18.9365 C   0  0  0  0  0  0  0  0  0  0  0  0
   21.6777  -13.3852  -19.4359 C   0  0  0  0  0  0  0  0  0  0  0  0
   21.6822  -13.0806  -20.7784 C   0  0  0  0  0  0  0  0  0  0  0  0
   21.4051  -11.8113  -21.2345 C   0  0  0  0  0  0  0  0  0  0  0  0
   21.1148  -10.8154  -20.3275 C   0  0  0  0  0  0  0  0  0  0  0  0
   21.1088  -11.1149  -18.9806 C   0  0  0  0  0  0  0  0  0  0  0  0
   21.3838  -12.3745  -18.5281 C   0  0  0  0  0  0  0  0  0  0  0  0
   23.6430  -16.1816  -17.7623 C   0  0  0  0  0  0  0  0  0  0  0  0
   24.0185  -17.2147  -18.4123 O   0  0  0  0  0  0  0  0  0  0  0  0
   23.5128  -16.3514  -16.3600 N   0  0  0  0  0  0  0  0  0  0  0  0
   23.7753  -17.5930  -15.6793 C   0  0  1  0  0  0  0  0  0  0  0  0
   24.8449  -17.4427  -14.6175 C   0  0  0  0  0  0  0  0  0  0  0  0
   26.1859  -17.1792  -15.1953 C   0  0  0  0  0  0  0  0  0  0  0  0
   26.7094  -15.9317  -15.4389 C   0  0  0  0  0  0  0  0  0  0  0  0
   27.9628  -15.7401  -15.9787 C   0  0  0  0  0  0  0  0  0  0  0  0
   28.7579  -16.8090  -16.3025 C   0  0  0  0  0  0  0  0  0  0  0  0
   28.2459  -18.0680  -16.0636 C   0  0  0  0  0  0  0  0  0  0  0  0
   26.9949  -18.2721  -15.5246 C   0  0  0  0  0  0  0  0  0  0  0  0
   22.5563  -18.0864  -15.0175 C   0  0  0  0  0  0  0  0  0  0  0  0
   21.8450  -17.2715  -14.3806 O   0  0  0  0  0  0  0  0  0  0  0  0
   18.0006  -16.9953  -16.8334 C   0  0  0  0  0  0  0  0  0  0  0  0
   17.1888  -18.5440  -16.2905 S   0  0  0  0  0  0  0  0  0  0  0  0
   18.3559  -19.3921  -15.1918 C   0  0  0  0  0  0  0  0  0  0  0  0
   19.7673  -19.0668  -15.5589 C   0  0  0  0  0  0  0  0  0  0  0  0
   20.7934  -19.7695  -14.6771 C   0  0  2  0  0  0  0  0  0  0  0  0
   22.1318  -19.4428  -15.0600 N   0  0  0  0  0  0  0  0  0  0  0  0
   20.5457  -21.2042  -14.7766 C   0  0  0  0  0  0  0  0  0  0  0  0
   19.6681  -21.8128  -14.1227 O   0  0  0  0  0  0  0  0  0  0  0  0
   21.3340  -21.9660  -15.6582 O   0  0  0  0  0  0  0  0  0  0  0  0
  2  1  1  6
  2 10  1  0
  2  3  1  0
  3  4  1  0
  4  9  2  0
  5  6  2  0
  5  4  1  0
  6  7  1  0
  7  8  2  0
  9  8  1  0
 10 11  2  0
 12 13  1  0
 12 10  1  0
 13 21  1  0
 13 14  1  1
 15 14  1  0
 15 16  2  0
 17 16  1  0
 18 17  2  0
 19 20  2  0
 19 18  1  0
 20 15  1  0
 21 22  2  0
 21 28  1  0
 23 24  1  0
 24 25  1  0
 26 25  1  0
 27 26  1  6
 28 27  1  0
 29 31  1  0
 29 27  1  0
 30 29  2  0
M  END
$$$$
