FFM.pdb
     RDKit          3D

 31 32  0  0  1  0  0  0  0  0999 V2000
   29.8383  -33.6492    3.0622 N   0  0  0  0  0  0  0  0  0  0  0  0
   29.3454  -33.2365    4.3551 C   0  0  1  0  0  0  0  0  0  0  0  0
   28.5517  -34.3369    4.9939 C   0  0  0  0  0  0  0  0  0  0  0  0
   27.1929  -34.5043    4.4660 C   0  0  0  0  0  0  0  0  0  0  0  0
   26.9304  -35.2300    3.3260 C   0  0  0  0  0  0  0  0  0  0  0  0
   25.6506  -35.3799    2.8409 C   0  0  0  0  0  0  0  0  0  0  0  0
   24.6005  -34.7899    3.5102 C   0  0  0  0  0  0  0  0  0  0  0  0
   24.8575  -34.0613    4.6534 C   0  0  0  0  0  0  0  0  0  0  0  0
   26.1276  -33.9126    5.1348 C   0  0  0  0  0  0  0  0  0  0  0  0
   30.3608  -32.6174    5.1989 C   0  0  0  0  0  0  0  0  0  0  0  0
   31.5437  -33.0981    5.1806 O   0  0  0  0  0  0  0  0  0  0  0  0
   30.1621  -31.5063    6.0581 N   0  0  0  0  0  0  0  0  0  0  0  0
   31.1921  -30.9552    6.9002 C   0  0  1  0  0  0  0  0  0  0  0  0
   31.1650  -29.4409    6.9126 C   0  0  0  0  0  0  0  0  0  0  0  0
   32.1757  -28.8619    7.8316 C   0  0  0  0  0  0  0  0  0  0  0  0
   31.9248  -28.4371    9.1147 C   0  0  0  0  0  0  0  0  0  0  0  0
   32.9005  -27.9049    9.9294 C   0  0  0  0  0  0  0  0  0  0  0  0
   34.1908  -27.7738    9.4850 C   0  0  0  0  0  0  0  0  0  0  0  0
   34.4581  -28.1961    8.1987 C   0  0  0  0  0  0  0  0  0  0  0  0
   33.4915  -28.7295    7.3752 C   0  0  0  0  0  0  0  0  0  0  0  0
   31.0248  -31.4155    8.2886 C   0  0  0  0  0  0  0  0  0  0  0  0
   29.8971  -31.3033    8.8284 O   0  0  0  0  0  0  0  0  0  0  0  0
   31.5543  -37.7644    9.3551 C   0  0  0  0  0  0  0  0  0  0  0  0
   32.4462  -36.5084   10.3447 S   0  0  0  0  0  0  0  0  0  0  0  0
   31.7229  -34.8988    9.9263 C   0  0  0  0  0  0  0  0  0  0  0  0
   32.4049  -33.7974   10.6708 C   0  0  0  0  0  0  0  0  0  0  0  0
   31.8028  -32.4243   10.3942 C   0  0  2  0  0  0  0  0  0  0  0  0
   32.0736  -31.9874    9.0598 N   0  0  0  0  0  0  0  0  0  0  0  0
   32.3526  -31.4993   11.3799 C   0  0  0  0  0  0  0  0  0  0  0  0
   33.1271  -30.5553   11.1024 O   0  0  0  0  0  0  0  0  0  0  0  0
   32.0001  -31.6650   12.7317 O   0  0  0  0  0  0  0  0  0  0  0  0
  2  1  1  6
  2 10  1  0
  2  3  1  0
  3  4  1  0
  4  9  2  0
  5  6  2  0
  5  4  1  0
  6  7  1  0
  7  8  2  0
  9  8  1  0
 10 11  2  0
 12 13  1  0
 12 10  1  0
 13 21  1  0
 13 14  1  1
 15 14  1  0
 15 16  2  0
 17 16  1  0
 18 17  2  0
 19 20  2  0
 19 18  1  0
 20 15  1  0
 21 22  2  0
 21 28  1  0
 23 24  1  0
 24 25  1  0
 26 25  1  0
 27 26  1  1
 28 27  1  0
 29 31  1  0
 29 27  1  0
 30 29  2  0
M  END
$$$$
