FFM.pdb
     RDKit          3D

 31 32  0  0  1  0  0  0  0  0999 V2000
   23.2739  -19.1906  -18.8367 N   0  0  0  0  0  0  0  0  0  0  0  0
   22.0829  -18.8696  -18.0864 C   0  0  1  0  0  0  0  0  0  0  0  0
   20.8584  -19.0640  -18.9299 C   0  0  0  0  0  0  0  0  0  0  0  0
   20.7978  -18.2252  -20.1324 C   0  0  0  0  0  0  0  0  0  0  0  0
   20.4743  -16.8881  -20.0815 C   0  0  0  0  0  0  0  0  0  0  0  0
   20.4211  -16.1115  -21.2172 C   0  0  0  0  0  0  0  0  0  0  0  0
   20.6980  -16.6826  -22.4403 C   0  0  0  0  0  0  0  0  0  0  0  0
   21.0228  -18.0224  -22.4975 C   0  0  0  0  0  0  0  0  0  0  0  0
   21.0757  -18.7930  -21.3704 C   0  0  0  0  0  0  0  0  0  0  0  0
   22.0422  -19.4799  -16.7626 C   0  0  0  0  0  0  0  0  0  0  0  0
   22.6428  -20.5929  -16.5865 O   0  0  0  0  0  0  0  0  0  0  0  0
   21.3876  -18.9474  -15.6224 N   0  0  0  0  0  0  0  0  0  0  0  0
   21.3908  -19.5846  -14.3309 C   0  0  1  0  0  0  0  0  0  0  0  0
   21.3092  -18.5785  -13.2017 C   0  0  0  0  0  0  0  0  0  0  0  0
   21.3312  -19.2217  -11.8649 C   0  0  0  0  0  0  0  0  0  0  0  0
   20.2618  -19.2905  -11.0039 C   0  0  0  0  0  0  0  0  0  0  0  0
   20.3342  -19.9001   -9.7702 C   0  0  0  0  0  0  0  0  0  0  0  0
   21.5014  -20.4763   -9.3399 C   0  0  0  0  0  0  0  0  0  0  0  0
   22.5840  -20.4152  -10.1935 C   0  0  0  0  0  0  0  0  0  0  0  0
   22.5239  -19.8089  -11.4287 C   0  0  0  0  0  0  0  0  0  0  0  0
   20.2407  -20.4945  -14.2015 C   0  0  0  0  0  0  0  0  0  0  0  0
   19.0947  -20.0583  -14.4696 O   0  0  0  0  0  0  0  0  0  0  0  0
   22.1532  -24.9115  -14.5341 C   0  0  0  0  0  0  0  0  0  0  0  0
   20.8103  -25.4845  -15.6389 S   0  0  0  0  0  0  0  0  0  0  0  0
   19.2823  -24.6971  -15.0609 C   0  0  0  0  0  0  0  0  0  0  0  0
   19.4609  -24.1260  -13.6918 C   0  0  0  0  0  0  0  0  0  0  0  0
   19.1666  -22.6317  -13.6225 C   0  0  2  0  0  0  0  0  0  0  0  0
   20.3528  -21.8509  -13.7899 N   0  0  0  0  0  0  0  0  0  0  0  0
   18.5338  -22.3702  -12.3337 C   0  0  0  0  0  0  0  0  0  0  0  0
   19.1538  -22.2985  -11.2481 O   0  0  0  0  0  0  0  0  0  0  0  0
   17.1400  -22.1845  -12.2911 O   0  0  0  0  0  0  0  0  0  0  0  0
  2  1  1  6
  2 10  1  0
  2  3  1  0
  3  4  1  0
  4  9  2  0
  5  6  2  0
  5  4  1  0
  6  7  1  0
  7  8  2  0
  9  8  1  0
 10 11  2  0
 12 13  1  0
 12 10  1  0
 13 21  1  0
 13 14  1  1
 15 14  1  0
 15 16  2  0
 17 16  1  0
 18 17  2  0
 19 20  2  0
 19 18  1  0
 20 15  1  0
 21 22  2  0
 21 28  1  0
 23 24  1  0
 24 25  1  0
 26 25  1  0
 27 26  1  1
 28 27  1  0
 29 31  1  0
 29 27  1  0
 30 29  2  0
M  END
$$$$
