FFM.pdb
     RDKit          3D

 31 32  0  0  1  0  0  0  0  0999 V2000
   26.0973  -21.7022  -13.5414 N   0  0  0  0  0  0  0  0  0  0  0  0
   25.4071  -20.8524  -12.6001 C   0  0  1  0  0  0  0  0  0  0  0  0
   23.9389  -20.8120  -12.9024 C   0  0  0  0  0  0  0  0  0  0  0  0
   23.5940  -20.2499  -14.2133 C   0  0  0  0  0  0  0  0  0  0  0  0
   23.6999  -18.9052  -14.4884 C   0  0  0  0  0  0  0  0  0  0  0  0
   23.3734  -18.3900  -15.7228 C   0  0  0  0  0  0  0  0  0  0  0  0
   22.9281  -19.2383  -16.7131 C   0  0  0  0  0  0  0  0  0  0  0  0
   22.8200  -20.5872  -16.4432 C   0  0  0  0  0  0  0  0  0  0  0  0
   23.1441  -21.0983  -15.2182 C   0  0  0  0  0  0  0  0  0  0  0  0
   25.7592  -21.1121  -11.2089 C   0  0  0  0  0  0  0  0  0  0  0  0
   25.8729  -22.3249  -10.8257 O   0  0  0  0  0  0  0  0  0  0  0  0
   25.9953  -20.1285  -10.2145 N   0  0  0  0  0  0  0  0  0  0  0  0
   26.4377  -20.4351   -8.8788 C   0  0  1  0  0  0  0  0  0  0  0  0
   27.3406  -19.3558   -8.3184 C   0  0  0  0  0  0  0  0  0  0  0  0
   27.7244  -19.6117   -6.9082 C   0  0  0  0  0  0  0  0  0  0  0  0
   27.1097  -19.0591   -5.8098 C   0  0  0  0  0  0  0  0  0  0  0  0
   27.5054  -19.3292   -4.5178 C   0  0  0  0  0  0  0  0  0  0  0  0
   28.5518  -20.1790   -4.2678 C   0  0  0  0  0  0  0  0  0  0  0  0
   29.1790  -20.7417   -5.3606 C   0  0  0  0  0  0  0  0  0  0  0  0
   28.7926  -20.4794   -6.6564 C   0  0  0  0  0  0  0  0  0  0  0  0
   25.2859  -20.5684   -7.9716 C   0  0  0  0  0  0  0  0  0  0  0  0
   24.4158  -19.6636   -7.9662 O   0  0  0  0  0  0  0  0  0  0  0  0
   23.5447  -25.9738   -5.0873 C   0  0  0  0  0  0  0  0  0  0  0  0
   22.0867  -25.0114   -4.5396 S   0  0  0  0  0  0  0  0  0  0  0  0
   22.3777  -23.2904   -5.0318 C   0  0  0  0  0  0  0  0  0  0  0  0
   23.6365  -23.1683   -5.8274 C   0  0  0  0  0  0  0  0  0  0  0  0
   23.9050  -21.7474   -6.3104 C   0  0  2  0  0  0  0  0  0  0  0  0
   25.0978  -21.6725   -7.0956 N   0  0  0  0  0  0  0  0  0  0  0  0
   23.9892  -20.8932   -5.1302 C   0  0  0  0  0  0  0  0  0  0  0  0
   25.0518  -20.3855   -4.7046 O   0  0  0  0  0  0  0  0  0  0  0  0
   22.8112  -20.6126   -4.4143 O   0  0  0  0  0  0  0  0  0  0  0  0
  2  1  1  6
  2 10  1  0
  2  3  1  0
  3  4  1  0
  4  9  2  0
  5  6  2  0
  5  4  1  0
  6  7  1  0
  7  8  2  0
  9  8  1  0
 10 11  2  0
 12 13  1  0
 12 10  1  0
 13 21  1  0
 13 14  1  1
 15 14  1  0
 15 16  2  0
 17 16  1  0
 18 17  2  0
 19 20  2  0
 19 18  1  0
 20 15  1  0
 21 22  2  0
 21 28  1  0
 23 24  1  0
 24 25  1  0
 26 25  1  0
 27 26  1  1
 28 27  1  0
 29 31  1  0
 29 27  1  0
 30 29  2  0
M  END
$$$$
