FFM.pdb
     RDKit          3D

 31 32  0  0  1  0  0  0  0  0999 V2000
   26.2598  -21.6288  -13.2165 N   0  0  0  0  0  0  0  0  0  0  0  0
   26.2949  -20.4414  -12.3959 C   0  0  1  0  0  0  0  0  0  0  0  0
   25.2197  -19.4813  -12.8093 C   0  0  0  0  0  0  0  0  0  0  0  0
   25.4482  -18.8161  -14.0971 C   0  0  0  0  0  0  0  0  0  0  0  0
   26.4862  -17.9340  -14.2959 C   0  0  0  0  0  0  0  0  0  0  0  0
   26.6901  -17.3163  -15.5094 C   0  0  0  0  0  0  0  0  0  0  0  0
   25.8354  -17.5844  -16.5565 C   0  0  0  0  0  0  0  0  0  0  0  0
   24.7932  -18.4678  -16.3632 C   0  0  0  0  0  0  0  0  0  0  0  0
   24.5910  -19.0807  -15.1589 C   0  0  0  0  0  0  0  0  0  0  0  0
   26.3793  -20.7191  -10.9668 C   0  0  0  0  0  0  0  0  0  0  0  0
   25.7412  -21.7233  -10.5029 O   0  0  0  0  0  0  0  0  0  0  0  0
   27.1183  -19.9683  -10.0170 N   0  0  0  0  0  0  0  0  0  0  0  0
   27.1661  -20.2848   -8.6129 C   0  0  1  0  0  0  0  0  0  0  0  0
   28.1139  -19.3758   -7.8583 C   0  0  0  0  0  0  0  0  0  0  0  0
   28.1206  -19.6470   -6.3996 C   0  0  0  0  0  0  0  0  0  0  0  0
   27.4974  -18.8731   -5.4497 C   0  0  0  0  0  0  0  0  0  0  0  0
   27.5342  -19.1685   -4.1042 C   0  0  0  0  0  0  0  0  0  0  0  0
   28.2085  -20.2707   -3.6462 C   0  0  0  0  0  0  0  0  0  0  0  0
   28.8393  -21.0575   -4.5882 C   0  0  0  0  0  0  0  0  0  0  0  0
   28.8097  -20.7726   -5.9354 C   0  0  0  0  0  0  0  0  0  0  0  0
   25.8325  -20.1412   -8.0059 C   0  0  0  0  0  0  0  0  0  0  0  0
   25.2549  -19.0291   -8.0777 O   0  0  0  0  0  0  0  0  0  0  0  0
   20.9911  -20.0015  -10.1386 C   0  0  0  0  0  0  0  0  0  0  0  0
   20.1819  -20.8226   -8.7162 S   0  0  0  0  0  0  0  0  0  0  0  0
   21.3929  -20.8503   -7.3666 C   0  0  0  0  0  0  0  0  0  0  0  0
   22.7842  -20.9618   -7.9001 C   0  0  0  0  0  0  0  0  0  0  0  0
   23.8470  -20.9638   -6.8070 C   0  0  2  0  0  0  0  0  0  0  0  0
   25.1531  -21.1979   -7.3399 N   0  0  0  0  0  0  0  0  0  0  0  0
   23.4751  -21.9895   -5.8377 C   0  0  0  0  0  0  0  0  0  0  0  0
   24.1518  -23.0178   -5.6083 O   0  0  0  0  0  0  0  0  0  0  0  0
   22.2841  -21.8276   -5.1067 O   0  0  0  0  0  0  0  0  0  0  0  0
  2  1  1  6
  2 10  1  0
  2  3  1  0
  3  4  1  0
  4  9  2  0
  5  6  2  0
  5  4  1  0
  6  7  1  0
  7  8  2  0
  9  8  1  0
 10 11  2  0
 12 13  1  0
 12 10  1  0
 13 21  1  0
 13 14  1  1
 15 14  1  0
 15 16  2  0
 17 16  1  0
 18 17  2  0
 19 20  2  0
 19 18  1  0
 20 15  1  0
 21 22  2  0
 21 28  1  0
 23 24  1  0
 24 25  1  0
 26 25  1  0
 27 26  1  6
 28 27  1  0
 29 31  1  0
 29 27  1  0
 30 29  2  0
M  END
$$$$
