FFM.pdb
     RDKit          3D

 31 32  0  0  1  0  0  0  0  0999 V2000
   25.5535  -21.7993  -13.2845 N   0  0  0  0  0  0  0  0  0  0  0  0
   25.1980  -20.7580  -12.3496 C   0  0  1  0  0  0  0  0  0  0  0  0
   23.7456  -20.4071  -12.4763 C   0  0  0  0  0  0  0  0  0  0  0  0
   23.3499  -19.8815  -13.7879 C   0  0  0  0  0  0  0  0  0  0  0  0
   22.6037  -20.6169  -14.6809 C   0  0  0  0  0  0  0  0  0  0  0  0
   22.2386  -20.1121  -15.9088 C   0  0  0  0  0  0  0  0  0  0  0  0
   22.6276  -18.8373  -16.2585 C   0  0  0  0  0  0  0  0  0  0  0  0
   23.3757  -18.0955  -15.3675 C   0  0  0  0  0  0  0  0  0  0  0  0
   23.7380  -18.5965  -14.1490 C   0  0  0  0  0  0  0  0  0  0  0  0
   25.6735  -21.0017  -10.9927 C   0  0  0  0  0  0  0  0  0  0  0  0
   25.4642  -22.1482  -10.4708 O   0  0  0  0  0  0  0  0  0  0  0  0
   26.3636  -20.0707  -10.1747 N   0  0  0  0  0  0  0  0  0  0  0  0
   26.7566  -20.3409   -8.8159 C   0  0  1  0  0  0  0  0  0  0  0  0
   27.7496  -19.3206   -8.2989 C   0  0  0  0  0  0  0  0  0  0  0  0
   28.0393  -19.4913   -6.8539 C   0  0  0  0  0  0  0  0  0  0  0  0
   27.6406  -18.6279   -5.8612 C   0  0  0  0  0  0  0  0  0  0  0  0
   27.9364  -18.8317   -4.5309 C   0  0  0  0  0  0  0  0  0  0  0  0
   28.6567  -19.9281   -4.1324 C   0  0  0  0  0  0  0  0  0  0  0  0
   29.0641  -20.8041   -5.1178 C   0  0  0  0  0  0  0  0  0  0  0  0
   28.7745  -20.6111   -6.4505 C   0  0  0  0  0  0  0  0  0  0  0  0
   25.5850  -20.3141   -7.9248 C   0  0  0  0  0  0  0  0  0  0  0  0
   24.7957  -19.3408   -7.9970 O   0  0  0  0  0  0  0  0  0  0  0  0
   20.2708  -22.5964   -8.0745 C   0  0  0  0  0  0  0  0  0  0  0  0
   20.4469  -23.0199   -6.3020 S   0  0  0  0  0  0  0  0  0  0  0  0
   21.8207  -22.0264   -5.6582 C   0  0  0  0  0  0  0  0  0  0  0  0
   22.9926  -22.0726   -6.5840 C   0  0  0  0  0  0  0  0  0  0  0  0
   24.1519  -21.1938   -6.1279 C   0  0  2  0  0  0  0  0  0  0  0  0
   25.2907  -21.3361   -6.9810 N   0  0  0  0  0  0  0  0  0  0  0  0
   24.4669  -21.5651   -4.7521 C   0  0  0  0  0  0  0  0  0  0  0  0
   25.3623  -22.3797   -4.4316 O   0  0  0  0  0  0  0  0  0  0  0  0
   23.7270  -20.9798   -3.7085 O   0  0  0  0  0  0  0  0  0  0  0  0
  2  1  1  6
  2 10  1  0
  2  3  1  0
  3  4  1  0
  4  9  2  0
  5  6  2  0
  5  4  1  0
  6  7  1  0
  7  8  2  0
  9  8  1  0
 10 11  2  0
 12 13  1  0
 12 10  1  0
 13 21  1  0
 13 14  1  1
 15 14  1  0
 15 16  2  0
 17 16  1  0
 18 17  2  0
 19 20  2  0
 19 18  1  0
 20 15  1  0
 21 22  2  0
 21 28  1  0
 23 24  1  0
 24 25  1  0
 26 25  1  0
 27 26  1  6
 28 27  1  0
 29 31  1  0
 29 27  1  0
 30 29  2  0
M  END
$$$$
