FFM.pdb
     RDKit          3D

 31 32  0  0  1  0  0  0  0  0999 V2000
   28.5299  -20.1842  -14.9008 N   0  0  0  0  0  0  0  0  0  0  0  0
   27.4760  -19.4682  -14.2216 C   0  0  1  0  0  0  0  0  0  0  0  0
   26.7649  -18.5496  -15.1698 C   0  0  0  0  0  0  0  0  0  0  0  0
   27.5647  -17.4158  -15.6472 C   0  0  0  0  0  0  0  0  0  0  0  0
   28.1177  -17.3840  -16.9075 C   0  0  0  0  0  0  0  0  0  0  0  0
   28.8662  -16.3138  -17.3437 C   0  0  0  0  0  0  0  0  0  0  0  0
   29.0707  -15.2433  -16.5006 C   0  0  0  0  0  0  0  0  0  0  0  0
   28.5189  -15.2696  -15.2362 C   0  0  0  0  0  0  0  0  0  0  0  0
   27.7761  -16.3316  -14.8033 C   0  0  0  0  0  0  0  0  0  0  0  0
   26.6196  -20.3213  -13.4059 C   0  0  0  0  0  0  0  0  0  0  0  0
   26.4412  -21.5320  -13.7706 O   0  0  0  0  0  0  0  0  0  0  0  0
   25.9495  -19.9322  -12.2178 N   0  0  0  0  0  0  0  0  0  0  0  0
   25.1249  -20.8204  -11.4399 C   0  0  1  0  0  0  0  0  0  0  0  0
   25.0473  -20.3966   -9.9879 C   0  0  0  0  0  0  0  0  0  0  0  0
   26.3133  -20.6446   -9.2552 C   0  0  0  0  0  0  0  0  0  0  0  0
   27.2607  -21.5760   -9.6085 C   0  0  0  0  0  0  0  0  0  0  0  0
   28.4223  -21.7683   -8.8925 C   0  0  0  0  0  0  0  0  0  0  0  0
   28.6880  -21.0226   -7.7732 C   0  0  0  0  0  0  0  0  0  0  0  0
   27.7461  -20.0834   -7.4059 C   0  0  0  0  0  0  0  0  0  0  0  0
   26.5816  -19.8820   -8.1133 C   0  0  0  0  0  0  0  0  0  0  0  0
   23.7519  -20.8471  -11.9706 C   0  0  0  0  0  0  0  0  0  0  0  0
   23.2414  -19.7738  -12.3744 O   0  0  0  0  0  0  0  0  0  0  0  0
   20.9282  -25.6431  -15.3188 C   0  0  0  0  0  0  0  0  0  0  0  0
   19.4546  -24.9473  -14.4841 S   0  0  0  0  0  0  0  0  0  0  0  0
   19.9165  -23.2965  -13.8920 C   0  0  0  0  0  0  0  0  0  0  0  0
   21.2158  -23.3379  -13.1553 C   0  0  0  0  0  0  0  0  0  0  0  0
   21.6762  -21.9663  -12.6745 C   0  0  2  0  0  0  0  0  0  0  0  0
   22.9642  -22.0277  -12.0563 N   0  0  0  0  0  0  0  0  0  0  0  0
   20.6645  -21.4650  -11.7498 C   0  0  0  0  0  0  0  0  0  0  0  0
   19.5083  -21.1253  -12.0900 O   0  0  0  0  0  0  0  0  0  0  0  0
   20.9932  -21.3502  -10.3868 O   0  0  0  0  0  0  0  0  0  0  0  0
  2  1  1  6
  2 10  1  0
  2  3  1  0
  3  4  1  0
  4  9  2  0
  5  6  2  0
  5  4  1  0
  6  7  1  0
  7  8  2  0
  9  8  1  0
 10 11  2  0
 12 13  1  0
 12 10  1  0
 13 21  1  0
 13 14  1  1
 15 14  1  0
 15 16  2  0
 17 16  1  0
 18 17  2  0
 19 20  2  0
 19 18  1  0
 20 15  1  0
 21 22  2  0
 21 28  1  0
 23 24  1  0
 24 25  1  0
 26 25  1  0
 27 26  1  1
 28 27  1  0
 29 31  1  0
 29 27  1  0
 30 29  2  0
M  END
$$$$
