FFM.pdb
     RDKit          3D

 31 32  0  0  1  0  0  0  0  0999 V2000
   34.4249  -20.5783    9.1529 N   0  0  0  0  0  0  0  0  0  0  0  0
   33.0982  -21.0174    9.5156 C   0  0  1  0  0  0  0  0  0  0  0  0
   32.6766  -22.1809    8.6687 C   0  0  0  0  0  0  0  0  0  0  0  0
   32.4098  -21.8562    7.2628 C   0  0  0  0  0  0  0  0  0  0  0  0
   33.2017  -22.3207    6.2370 C   0  0  0  0  0  0  0  0  0  0  0  0
   32.9405  -22.0090    4.9216 C   0  0  0  0  0  0  0  0  0  0  0  0
   31.8590  -21.2111    4.6178 C   0  0  0  0  0  0  0  0  0  0  0  0
   31.0616  -20.7425    5.6418 C   0  0  0  0  0  0  0  0  0  0  0  0
   31.3209  -21.0519    6.9472 C   0  0  0  0  0  0  0  0  0  0  0  0
   32.9069  -21.1790   10.9522 C   0  0  0  0  0  0  0  0  0  0  0  0
   33.9202  -21.4703   11.6726 O   0  0  0  0  0  0  0  0  0  0  0  0
   31.6781  -21.0401   11.6473 N   0  0  0  0  0  0  0  0  0  0  0  0
   31.5402  -21.2273   13.0685 C   0  0  1  0  0  0  0  0  0  0  0  0
   30.5429  -20.2615   13.6738 C   0  0  0  0  0  0  0  0  0  0  0  0
   31.0442  -18.8653   13.6937 C   0  0  0  0  0  0  0  0  0  0  0  0
   30.5244  -17.8290   12.9549 C   0  0  0  0  0  0  0  0  0  0  0  0
   31.0277  -16.5474   13.0088 C   0  0  0  0  0  0  0  0  0  0  0  0
   32.0913  -16.2449   13.8193 C   0  0  0  0  0  0  0  0  0  0  0  0
   32.6240  -17.2750   14.5673 C   0  0  0  0  0  0  0  0  0  0  0  0
   32.1297  -18.5598   14.5218 C   0  0  0  0  0  0  0  0  0  0  0  0
   31.0764  -22.5925   13.3665 C   0  0  0  0  0  0  0  0  0  0  0  0
   30.3738  -23.1891   12.5144 O   0  0  0  0  0  0  0  0  0  0  0  0
   31.3102  -29.1856   17.6814 C   0  0  0  0  0  0  0  0  0  0  0  0
   32.1054  -27.5638   17.3824 S   0  0  0  0  0  0  0  0  0  0  0  0
   31.1228  -26.7229   16.1111 C   0  0  0  0  0  0  0  0  0  0  0  0
   31.6391  -25.3428   15.8634 C   0  0  0  0  0  0  0  0  0  0  0  0
   30.8764  -24.6049   14.7688 C   0  0  2  0  0  0  0  0  0  0  0  0
   31.3824  -23.2820   14.5717 N   0  0  0  0  0  0  0  0  0  0  0  0
   29.4689  -24.5852   15.1541 C   0  0  0  0  0  0  0  0  0  0  0  0
   28.9670  -23.7493   15.9398 O   0  0  0  0  0  0  0  0  0  0  0  0
   28.6083  -25.5602   14.6175 O   0  0  0  0  0  0  0  0  0  0  0  0
  2  1  1  1
  2 10  1  0
  2  3  1  0
  3  4  1  0
  4  9  2  0
  5  6  2  0
  5  4  1  0
  6  7  1  0
  7  8  2  0
  9  8  1  0
 10 11  2  0
 12 13  1  0
 12 10  1  0
 13 21  1  0
 13 14  1  6
 15 14  1  0
 15 16  2  0
 17 16  1  0
 18 17  2  0
 19 20  2  0
 19 18  1  0
 20 15  1  0
 21 22  2  0
 21 28  1  0
 23 24  1  0
 24 25  1  0
 26 25  1  0
 27 26  1  1
 28 27  1  0
 29 31  1  0
 29 27  1  0
 30 29  2  0
M  END
$$$$
