CVG.pdb
     RDKit          3D

 18 17  0  0  1  0  0  0  0  0999 V2000
   16.7678  -11.6575  -15.9074 N   0  0  0  0  0  0  0  0  0  0  0  0
   17.4299  -10.4627  -16.3122 C   0  0  1  0  0  0  0  0  0  0  0  0
   16.4858   -9.3206  -16.6158 C   0  0  0  0  0  0  0  0  0  0  0  0
   15.4321   -9.7095  -18.0492 S   0  0  0  0  0  0  0  0  0  0  0  0
   18.4391   -9.9830  -15.3490 C   0  0  0  0  0  0  0  0  0  0  0  0
   18.1352  -10.0334  -14.1240 O   0  0  0  0  0  0  0  0  0  0  0  0
   22.6243   -9.2806  -16.0697 C   0  0  0  0  0  0  0  0  0  0  0  0
   21.9513   -9.7074  -14.7813 C   0  0  1  0  0  0  0  0  0  0  0  0
   22.8175   -9.1675  -13.6415 C   0  0  0  0  0  0  0  0  0  0  0  0
   20.6275   -8.9886  -14.6978 C   0  0  2  0  0  0  0  0  0  0  0  0
   19.7161   -9.4749  -15.7240 N   0  0  0  0  0  0  0  0  0  0  0  0
   20.7660   -7.5228  -14.7990 C   0  0  0  0  0  0  0  0  0  0  0  0
   20.9102   -7.0075  -15.9443 O   0  0  0  0  0  0  0  0  0  0  0  0
   20.7359   -6.7304  -13.6344 N   0  0  0  0  0  0  0  0  0  0  0  0
   20.7784   -5.2950  -13.6789 C   0  0  0  0  0  0  0  0  0  0  0  0
   22.1404   -4.7716  -13.9565 C   0  0  0  0  0  0  0  0  0  0  0  0
   22.4279   -3.4654  -14.2522 O   0  0  0  0  0  0  0  0  0  0  0  0
   23.0870   -5.5996  -13.9132 O   0  0  0  0  0  0  0  0  0  0  0  0
  2  1  1  1
  3  2  1  0
  4  3  1  0
  5  2  1  0
  6  5  2  0
  8  7  1  6
  8  9  1  0
  8 10  1  0
 10 12  1  0
 10 11  1  6
 11  5  1  0
 12 14  1  0
 13 12  2  0
 14 15  1  0
 16 15  1  0
 16 17  1  0
 18 16  2  0
M  END
$$$$
