CVG.pdb
     RDKit          3D

 18 17  0  0  1  0  0  0  0  0999 V2000
   25.4318  -12.4309  -17.6362 N   0  0  0  0  0  0  0  0  0  0  0  0
   25.2365  -11.6601  -16.4540 C   0  0  1  0  0  0  0  0  0  0  0  0
   26.5201  -11.1156  -15.8676 C   0  0  0  0  0  0  0  0  0  0  0  0
   27.6067  -12.4665  -15.3106 S   0  0  0  0  0  0  0  0  0  0  0  0
   24.2936  -10.5380  -16.6212 C   0  0  0  0  0  0  0  0  0  0  0  0
   24.3744   -9.8729  -17.6921 O   0  0  0  0  0  0  0  0  0  0  0  0
   20.0532   -8.4242  -16.2285 C   0  0  0  0  0  0  0  0  0  0  0  0
   20.9603   -9.5923  -15.9003 C   0  0  1  0  0  0  0  0  0  0  0  0
   20.8110  -10.5918  -17.0491 C   0  0  0  0  0  0  0  0  0  0  0  0
   22.3829   -9.0918  -15.9432 C   0  0  2  0  0  0  0  0  0  0  0  0
   23.3141  -10.1731  -15.6533 N   0  0  0  0  0  0  0  0  0  0  0  0
   22.6189   -7.9619  -15.0236 C   0  0  0  0  0  0  0  0  0  0  0  0
   22.5163   -8.1640  -13.7800 O   0  0  0  0  0  0  0  0  0  0  0  0
   22.9505   -6.6927  -15.5377 N   0  0  0  0  0  0  0  0  0  0  0  0
   23.1451   -5.5470  -14.6930 C   0  0  0  0  0  0  0  0  0  0  0  0
   21.8774   -4.8306  -14.4001 C   0  0  0  0  0  0  0  0  0  0  0  0
   21.7694   -3.7449  -13.5720 O   0  0  0  0  0  0  0  0  0  0  0  0
   20.8373   -5.2641  -14.9603 O   0  0  0  0  0  0  0  0  0  0  0  0
  2  1  1  6
  3  2  1  0
  4  3  1  0
  5  2  1  0
  6  5  2  0
  8  7  1  6
  8  9  1  0
  8 10  1  0
 10 12  1  0
 10 11  1  1
 11  5  1  0
 12 14  1  0
 13 12  2  0
 14 15  1  0
 16 15  1  0
 16 17  1  0
 18 16  2  0
M  END
$$$$
