CVG.pdb
     RDKit          3D

 18 17  0  0  1  0  0  0  0  0999 V2000
   21.8615  -21.2176  -15.7748 N   0  0  0  0  0  0  0  0  0  0  0  0
   22.4714  -20.2414  -14.9354 C   0  0  1  0  0  0  0  0  0  0  0  0
   21.4944  -19.5300  -14.0257 C   0  0  0  0  0  0  0  0  0  0  0  0
   20.3854  -18.4463  -14.9806 S   0  0  0  0  0  0  0  0  0  0  0  0
   23.5721  -20.7693  -14.1071 C   0  0  0  0  0  0  0  0  0  0  0  0
   23.3229  -21.7843  -13.3977 O   0  0  0  0  0  0  0  0  0  0  0  0
   26.8335  -21.7552  -15.2739 C   0  0  0  0  0  0  0  0  0  0  0  0
   27.1793  -21.0027  -14.0054 C   0  0  1  0  0  0  0  0  0  0  0  0
   27.6449  -19.6118  -14.4410 C   0  0  0  0  0  0  0  0  0  0  0  0
   25.9015  -20.8082  -13.2272 C   0  0  2  0  0  0  0  0  0  0  0  0
   24.8784  -20.2022  -14.0676 N   0  0  0  0  0  0  0  0  0  0  0  0
   26.0937  -20.0027  -12.0055 C   0  0  0  0  0  0  0  0  0  0  0  0
   26.5025  -18.8126  -12.1250 O   0  0  0  0  0  0  0  0  0  0  0  0
   25.8225  -20.5640  -10.7419 N   0  0  0  0  0  0  0  0  0  0  0  0
   26.0663  -19.8549   -9.5165 C   0  0  0  0  0  0  0  0  0  0  0  0
   25.7131  -20.6524   -8.3143 C   0  0  0  0  0  0  0  0  0  0  0  0
   25.9683  -20.2710   -7.0237 O   0  0  0  0  0  0  0  0  0  0  0  0
   25.1390  -21.7545   -8.5121 O   0  0  0  0  0  0  0  0  0  0  0  0
  2  1  1  1
  3  2  1  0
  4  3  1  0
  5  2  1  0
  6  5  2  0
  8  7  1  6
  8  9  1  0
  8 10  1  0
 10 12  1  0
 10 11  1  6
 11  5  1  0
 12 14  1  0
 13 12  2  0
 14 15  1  0
 16 15  1  0
 16 17  1  0
 18 16  2  0
M  END
$$$$
