CVG.pdb
     RDKit          3D

 18 17  0  0  1  0  0  0  0  0999 V2000
   25.2125  -11.9463  -17.8219 N   0  0  0  0  0  0  0  0  0  0  0  0
   25.1308  -11.2334  -16.5911 C   0  0  1  0  0  0  0  0  0  0  0  0
   26.4493  -10.6401  -16.1466 C   0  0  0  0  0  0  0  0  0  0  0  0
   27.5882  -11.9398  -15.5724 S   0  0  0  0  0  0  0  0  0  0  0  0
   24.1182  -10.1606  -16.5881 C   0  0  0  0  0  0  0  0  0  0  0  0
   24.0656   -9.4157  -17.6069 O   0  0  0  0  0  0  0  0  0  0  0  0
   19.7824   -8.4363  -15.6605 C   0  0  0  0  0  0  0  0  0  0  0  0
   20.8151   -9.5100  -15.3858 C   0  0  1  0  0  0  0  0  0  0  0  0
   20.5973  -10.5990  -16.4383 C   0  0  0  0  0  0  0  0  0  0  0  0
   22.1752   -8.9144  -15.6532 C   0  0  2  0  0  0  0  0  0  0  0  0
   23.2128   -9.9265  -15.5133 N   0  0  0  0  0  0  0  0  0  0  0  0
   22.4747   -7.7607  -14.7831 C   0  0  0  0  0  0  0  0  0  0  0  0
   22.5596   -7.9505  -13.5362 O   0  0  0  0  0  0  0  0  0  0  0  0
   22.6591   -6.4825  -15.3467 N   0  0  0  0  0  0  0  0  0  0  0  0
   22.9048   -5.3160  -14.5449 C   0  0  0  0  0  0  0  0  0  0  0  0
   21.6532   -4.6915  -14.0453 C   0  0  0  0  0  0  0  0  0  0  0  0
   21.6031   -3.6098  -13.2065 O   0  0  0  0  0  0  0  0  0  0  0  0
   20.5700   -5.2042  -14.4291 O   0  0  0  0  0  0  0  0  0  0  0  0
  2  1  1  6
  3  2  1  0
  4  3  1  0
  5  2  1  0
  6  5  2  0
  8  7  1  6
  8  9  1  0
  8 10  1  0
 10 12  1  0
 10 11  1  1
 11  5  1  0
 12 14  1  0
 13 12  2  0
 14 15  1  0
 16 15  1  0
 16 17  1  0
 18 16  2  0
M  END
$$$$
