CVG.pdb
     RDKit          3D

 18 17  0  0  1  0  0  0  0  0999 V2000
   20.5057  -20.1841  -12.6735 N   0  0  0  0  0  0  0  0  0  0  0  0
   21.5294  -20.9021  -13.3564 C   0  0  1  0  0  0  0  0  0  0  0  0
   21.2683  -21.0671  -14.8371 C   0  0  0  0  0  0  0  0  0  0  0  0
   19.7330  -22.0022  -15.1279 S   0  0  0  0  0  0  0  0  0  0  0  0
   22.8773  -20.3268  -13.1872 C   0  0  0  0  0  0  0  0  0  0  0  0
   22.9671  -19.0670  -13.1669 O   0  0  0  0  0  0  0  0  0  0  0  0
   24.8070  -20.5519  -10.3616 C   0  0  0  0  0  0  0  0  0  0  0  0
   25.8487  -20.9030  -11.4039 C   0  0  1  0  0  0  0  0  0  0  0  0
   25.9146  -22.4309  -11.4518 C   0  0  0  0  0  0  0  0  0  0  0  0
   25.3248  -20.4493  -12.7440 C   0  0  2  0  0  0  0  0  0  0  0  0
   24.0615  -21.1065  -13.0480 N   0  0  0  0  0  0  0  0  0  0  0  0
   26.2876  -20.6744  -13.8397 C   0  0  0  0  0  0  0  0  0  0  0  0
   26.8560  -21.8005  -13.9223 O   0  0  0  0  0  0  0  0  0  0  0  0
   26.5553  -19.6457  -14.7644 N   0  0  0  0  0  0  0  0  0  0  0  0
   27.4891  -19.8056  -15.8445 C   0  0  0  0  0  0  0  0  0  0  0  0
   27.5566  -18.6105  -16.7238 C   0  0  0  0  0  0  0  0  0  0  0  0
   28.6446  -18.2582  -17.4777 O   0  0  0  0  0  0  0  0  0  0  0  0
   26.5333  -17.8795  -16.7685 O   0  0  0  0  0  0  0  0  0  0  0  0
  2  1  1  6
  3  2  1  0
  4  3  1  0
  5  2  1  0
  6  5  2  0
  8  7  1  1
  8  9  1  0
  8 10  1  0
 10 12  1  0
 10 11  1  6
 11  5  1  0
 12 14  1  0
 13 12  2  0
 14 15  1  0
 16 15  1  0
 16 17  1  0
 18 16  2  0
M  END
$$$$
