CVG.pdb
     RDKit          3D

 18 17  0  0  1  0  0  0  0  0999 V2000
   27.7389  -18.2318  -16.0040 N   0  0  0  0  0  0  0  0  0  0  0  0
   26.9522  -18.0078  -14.8375 C   0  0  1  0  0  0  0  0  0  0  0  0
   26.0031  -16.8368  -14.9632 C   0  0  0  0  0  0  0  0  0  0  0  0
   26.9008  -15.2560  -14.8575 S   0  0  0  0  0  0  0  0  0  0  0  0
   26.1765  -19.1856  -14.4047 C   0  0  0  0  0  0  0  0  0  0  0  0
   25.6045  -19.8611  -15.3059 O   0  0  0  0  0  0  0  0  0  0  0  0
   27.3987  -21.5231  -11.7204 C   0  0  0  0  0  0  0  0  0  0  0  0
   25.8965  -21.4928  -11.5275 C   0  0  1  0  0  0  0  0  0  0  0  0
   25.6336  -20.5892  -10.3211 C   0  0  0  0  0  0  0  0  0  0  0  0
   25.2960  -20.8011  -12.7263 C   0  0  2  0  0  0  0  0  0  0  0  0
   26.0423  -19.5923  -13.0459 N   0  0  0  0  0  0  0  0  0  0  0  0
   23.8674  -20.4791  -12.5438 C   0  0  0  0  0  0  0  0  0  0  0  0
   23.5337  -19.7424  -11.5724 O   0  0  0  0  0  0  0  0  0  0  0  0
   22.9098  -20.9902  -13.4422 N   0  0  0  0  0  0  0  0  0  0  0  0
   21.4998  -20.7776  -13.2673 C   0  0  0  0  0  0  0  0  0  0  0  0
   20.7328  -22.0481  -13.2084 C   0  0  0  0  0  0  0  0  0  0  0  0
   19.3822  -22.1339  -12.9965 O   0  0  0  0  0  0  0  0  0  0  0  0
   21.3844  -23.1130  -13.3662 O   0  0  0  0  0  0  0  0  0  0  0  0
  2  1  1  6
  3  2  1  0
  4  3  1  0
  5  2  1  0
  6  5  2  0
  8  7  1  6
  8  9  1  0
  8 10  1  0
 10 12  1  0
 10 11  1  1
 11  5  1  0
 12 14  1  0
 13 12  2  0
 14 15  1  0
 16 15  1  0
 16 17  1  0
 18 16  2  0
M  END
$$$$
