CVG.pdb
     RDKit          3D

 18 17  0  0  1  0  0  0  0  0999 V2000
   17.4651  -11.8706  -16.7433 N   0  0  0  0  0  0  0  0  0  0  0  0
   18.3957  -10.9272  -17.2667 C   0  0  1  0  0  0  0  0  0  0  0  0
   17.7415   -9.7215  -17.9041 C   0  0  0  0  0  0  0  0  0  0  0  0
   16.7390  -10.2091  -19.3441 S   0  0  0  0  0  0  0  0  0  0  0  0
   19.3810  -10.4486  -16.2786 C   0  0  0  0  0  0  0  0  0  0  0  0
   18.9670  -10.2518  -15.1016 O   0  0  0  0  0  0  0  0  0  0  0  0
   23.7182  -10.3065  -14.2982 C   0  0  0  0  0  0  0  0  0  0  0  0
   22.8562  -10.7287  -15.4701 C   0  0  1  0  0  0  0  0  0  0  0  0
   22.3225  -12.1228  -15.1343 C   0  0  0  0  0  0  0  0  0  0  0  0
   21.6628   -9.8068  -15.5148 C   0  0  2  0  0  0  0  0  0  0  0  0
   20.7514  -10.2016  -16.5796 N   0  0  0  0  0  0  0  0  0  0  0  0
   22.0417   -8.3893  -15.6742 C   0  0  0  0  0  0  0  0  0  0  0  0
   22.5037   -8.0093  -16.7877 O   0  0  0  0  0  0  0  0  0  0  0  0
   21.8851   -7.4931  -14.5983 N   0  0  0  0  0  0  0  0  0  0  0  0
   22.2447   -6.1055  -14.6940 C   0  0  0  0  0  0  0  0  0  0  0  0
   21.9712   -5.3561  -13.4411 C   0  0  0  0  0  0  0  0  0  0  0  0
   22.3390   -4.0563  -13.2146 O   0  0  0  0  0  0  0  0  0  0  0  0
   21.3569   -5.9732  -12.5326 O   0  0  0  0  0  0  0  0  0  0  0  0
  2  1  1  1
  3  2  1  0
  4  3  1  0
  5  2  1  0
  6  5  2  0
  8  7  1  1
  8  9  1  0
  8 10  1  0
 10 12  1  0
 10 11  1  6
 11  5  1  0
 12 14  1  0
 13 12  2  0
 14 15  1  0
 16 15  1  0
 16 17  1  0
 18 16  2  0
M  END
$$$$
