CVG.pdb
     RDKit          3D

 18 17  0  0  1  0  0  0  0  0999 V2000
   26.5657  -22.0612  -15.8135 N   0  0  0  0  0  0  0  0  0  0  0  0
   25.8186  -20.9654  -15.2931 C   0  0  1  0  0  0  0  0  0  0  0  0
   24.8876  -20.3333  -16.3038 C   0  0  0  0  0  0  0  0  0  0  0  0
   25.8182  -19.6704  -17.7218 S   0  0  0  0  0  0  0  0  0  0  0  0
   25.0349  -21.2954  -14.0877 C   0  0  0  0  0  0  0  0  0  0  0  0
   24.4235  -22.4007  -14.0833 O   0  0  0  0  0  0  0  0  0  0  0  0
   23.8596  -20.8996   -9.3920 C   0  0  0  0  0  0  0  0  0  0  0  0
   24.7039  -20.3521  -10.5245 C   0  0  1  0  0  0  0  0  0  0  0  0
   26.0808  -21.0062  -10.3925 C   0  0  0  0  0  0  0  0  0  0  0  0
   24.1097  -20.8498  -11.8188 C   0  0  2  0  0  0  0  0  0  0  0  0
   24.9346  -20.4456  -12.9487 N   0  0  0  0  0  0  0  0  0  0  0  0
   22.7198  -20.3967  -12.0208 C   0  0  0  0  0  0  0  0  0  0  0  0
   22.5191  -19.1942  -12.3549 O   0  0  0  0  0  0  0  0  0  0  0  0
   21.6519  -21.2981  -11.8410 N   0  0  0  0  0  0  0  0  0  0  0  0
   20.2820  -20.9205  -12.0528 C   0  0  0  0  0  0  0  0  0  0  0  0
   19.3342  -22.0316  -11.7825 C   0  0  0  0  0  0  0  0  0  0  0  0
   18.3158  -21.9819  -10.8678 O   0  0  0  0  0  0  0  0  0  0  0  0
   19.4911  -23.0872  -12.4493 O   0  0  0  0  0  0  0  0  0  0  0  0
  2  1  1  6
  3  2  1  0
  4  3  1  0
  5  2  1  0
  6  5  2  0
  8  7  1  1
  8  9  1  0
  8 10  1  0
 10 12  1  0
 10 11  1  6
 11  5  1  0
 12 14  1  0
 13 12  2  0
 14 15  1  0
 16 15  1  0
 16 17  1  0
 18 16  2  0
M  END
$$$$
