CVG.pdb
     RDKit          3D

 18 17  0  0  1  0  0  0  0  0999 V2000
   18.5673  -12.8330  -15.4953 N   0  0  0  0  0  0  0  0  0  0  0  0
   18.9821  -11.7411  -16.3110 C   0  0  1  0  0  0  0  0  0  0  0  0
   17.8706  -11.1617  -17.1578 C   0  0  0  0  0  0  0  0  0  0  0  0
   17.0365  -12.4646  -18.1186 S   0  0  0  0  0  0  0  0  0  0  0  0
   19.6113  -10.6388  -15.5592 C   0  0  0  0  0  0  0  0  0  0  0  0
   18.9780  -10.1851  -14.5649 O   0  0  0  0  0  0  0  0  0  0  0  0
   22.6365  -10.7167  -13.7803 C   0  0  0  0  0  0  0  0  0  0  0  0
   22.7959   -9.4174  -14.5427 C   0  0  1  0  0  0  0  0  0  0  0  0
   23.6507   -9.7385  -15.7705 C   0  0  0  0  0  0  0  0  0  0  0  0
   21.4340   -9.0185  -15.0549 C   0  0  2  0  0  0  0  0  0  0  0  0
   20.8745  -10.0703  -15.8921 N   0  0  0  0  0  0  0  0  0  0  0  0
   21.4534   -7.7413  -15.7942 C   0  0  0  0  0  0  0  0  0  0  0  0
   21.8654   -7.7415  -16.9892 O   0  0  0  0  0  0  0  0  0  0  0  0
   21.0184   -6.5573  -15.1663 N   0  0  0  0  0  0  0  0  0  0  0  0
   20.9229   -5.3059  -15.8654 C   0  0  0  0  0  0  0  0  0  0  0  0
   20.3859   -4.2143  -15.0132 C   0  0  0  0  0  0  0  0  0  0  0  0
   20.2846   -2.9036  -15.3978 O   0  0  0  0  0  0  0  0  0  0  0  0
   20.0007   -4.5325  -13.8582 O   0  0  0  0  0  0  0  0  0  0  0  0
  2  1  1  1
  3  2  1  0
  4  3  1  0
  5  2  1  0
  6  5  2  0
  8  7  1  1
  8  9  1  0
  8 10  1  0
 10 12  1  0
 10 11  1  6
 11  5  1  0
 12 14  1  0
 13 12  2  0
 14 15  1  0
 16 15  1  0
 16 17  1  0
 18 16  2  0
M  END
$$$$
