CVG.pdb
     RDKit          3D

 18 17  0  0  1  0  0  0  0  0999 V2000
   28.7360  -19.1669   -6.0888 N   0  0  0  0  0  0  0  0  0  0  0  0
   27.6744  -20.0352   -6.4746 C   0  0  1  0  0  0  0  0  0  0  0  0
   26.5502  -20.1026   -5.4649 C   0  0  0  0  0  0  0  0  0  0  0  0
   25.4057  -21.4646   -5.8536 S   0  0  0  0  0  0  0  0  0  0  0  0
   27.0921  -19.7182   -7.7924 C   0  0  0  0  0  0  0  0  0  0  0  0
   26.8036  -18.5093   -8.0185 O   0  0  0  0  0  0  0  0  0  0  0  0
   28.4209  -20.6463  -11.0575 C   0  0  0  0  0  0  0  0  0  0  0  0
   26.9387  -20.9078  -11.2300 C   0  0  1  0  0  0  0  0  0  0  0  0
   26.7487  -22.4206  -11.1021 C   0  0  0  0  0  0  0  0  0  0  0  0
   26.2249  -20.2805  -10.0582 C   0  0  2  0  0  0  0  0  0  0  0  0
   26.8432  -20.6891   -8.8048 N   0  0  0  0  0  0  0  0  0  0  0  0
   24.7825  -20.5917  -10.0348 C   0  0  0  0  0  0  0  0  0  0  0  0
   24.3662  -21.4646   -9.2207 O   0  0  0  0  0  0  0  0  0  0  0  0
   23.9029  -19.9211  -10.9076 N   0  0  0  0  0  0  0  0  0  0  0  0
   22.4847  -20.1506  -10.8971 C   0  0  0  0  0  0  0  0  0  0  0  0
   22.0289  -20.9663  -12.0516 C   0  0  0  0  0  0  0  0  0  0  0  0
   20.7366  -21.0261  -12.5015 O   0  0  0  0  0  0  0  0  0  0  0  0
   22.9043  -21.6453  -12.6485 O   0  0  0  0  0  0  0  0  0  0  0  0
  2  1  1  1
  3  2  1  0
  4  3  1  0
  5  2  1  0
  6  5  2  0
  8  7  1  1
  8  9  1  0
  8 10  1  0
 10 12  1  0
 10 11  1  1
 11  5  1  0
 12 14  1  0
 13 12  2  0
 14 15  1  0
 16 15  1  0
 16 17  1  0
 18 16  2  0
M  END
$$$$
