CVG.pdb
     RDKit          3D

 18 17  0  0  1  0  0  0  0  0999 V2000
   28.3724  -21.7542  -16.4474 N   0  0  0  0  0  0  0  0  0  0  0  0
   27.8443  -20.6852  -15.6676 C   0  0  1  0  0  0  0  0  0  0  0  0
   27.3364  -19.5256  -16.4955 C   0  0  0  0  0  0  0  0  0  0  0  0
   28.7192  -18.5717  -17.1985 S   0  0  0  0  0  0  0  0  0  0  0  0
   26.7720  -21.0946  -14.7409 C   0  0  0  0  0  0  0  0  0  0  0  0
   25.8688  -21.8475  -15.2022 O   0  0  0  0  0  0  0  0  0  0  0  0
   26.1846  -19.5843  -10.7524 C   0  0  0  0  0  0  0  0  0  0  0  0
   25.9376  -21.0403  -11.0899 C   0  0  1  0  0  0  0  0  0  0  0  0
   24.6889  -21.4589  -10.3111 C   0  0  0  0  0  0  0  0  0  0  0  0
   25.5809  -21.1155  -12.5539 C   0  0  2  0  0  0  0  0  0  0  0  0
   26.7050  -20.6908  -13.3763 N   0  0  0  0  0  0  0  0  0  0  0  0
   24.3814  -20.3246  -12.8910 C   0  0  0  0  0  0  0  0  0  0  0  0
   24.5064  -19.0773  -13.0532 O   0  0  0  0  0  0  0  0  0  0  0  0
   23.1321  -20.9623  -13.0253 N   0  0  0  0  0  0  0  0  0  0  0  0
   21.9214  -20.2352  -13.2891 C   0  0  0  0  0  0  0  0  0  0  0  0
   20.7225  -21.1115  -13.3158 C   0  0  0  0  0  0  0  0  0  0  0  0
   19.4380  -20.6694  -13.4913 O   0  0  0  0  0  0  0  0  0  0  0  0
   20.9172  -22.3456  -13.1650 O   0  0  0  0  0  0  0  0  0  0  0  0
  2  1  1  6
  3  2  1  0
  4  3  1  0
  5  2  1  0
  6  5  2  0
  8  7  1  1
  8  9  1  0
  8 10  1  0
 10 12  1  0
 10 11  1  6
 11  5  1  0
 12 14  1  0
 13 12  2  0
 14 15  1  0
 16 15  1  0
 16 17  1  0
 18 16  2  0
M  END
$$$$
