CVG.pdb
     RDKit          3D

 18 17  0  0  1  0  0  0  0  0999 V2000
   19.2766  -12.3794  -16.7165 N   0  0  0  0  0  0  0  0  0  0  0  0
   19.6496  -11.1537  -16.0933 C   0  0  1  0  0  0  0  0  0  0  0  0
   21.0074  -10.6446  -16.5234 C   0  0  0  0  0  0  0  0  0  0  0  0
   22.3302  -11.7647  -15.9651 S   0  0  0  0  0  0  0  0  0  0  0  0
   18.6697  -10.0667  -16.2786 C   0  0  0  0  0  0  0  0  0  0  0  0
   18.2156   -9.8937  -17.4446 O   0  0  0  0  0  0  0  0  0  0  0  0
   15.0062   -7.2975  -15.0782 C   0  0  0  0  0  0  0  0  0  0  0  0
   15.9735   -8.4096  -14.7284 C   0  0  1  0  0  0  0  0  0  0  0  0
   15.3568   -9.7035  -15.2638 C   0  0  0  0  0  0  0  0  0  0  0  0
   17.2407   -8.1762  -15.5132 C   0  0  2  0  0  0  0  0  0  0  0  0
   18.2177   -9.2175  -15.2279 N   0  0  0  0  0  0  0  0  0  0  0  0
   17.8313   -6.8472  -15.2623 C   0  0  0  0  0  0  0  0  0  0  0  0
   18.2891   -6.5974  -14.1108 O   0  0  0  0  0  0  0  0  0  0  0  0
   17.8758   -5.8899  -16.2952 N   0  0  0  0  0  0  0  0  0  0  0  0
   18.4339   -4.5795  -16.1064 C   0  0  0  0  0  0  0  0  0  0  0  0
   17.6276   -3.7424  -15.1816 C   0  0  0  0  0  0  0  0  0  0  0  0
   18.0099   -2.5155  -14.7074 O   0  0  0  0  0  0  0  0  0  0  0  0
   16.5167   -4.2074  -14.8167 O   0  0  0  0  0  0  0  0  0  0  0  0
  2  1  1  6
  3  2  1  0
  4  3  1  0
  5  2  1  0
  6  5  2  0
  8  7  1  6
  8  9  1  0
  8 10  1  0
 10 12  1  0
 10 11  1  1
 11  5  1  0
 12 14  1  0
 13 12  2  0
 14 15  1  0
 16 15  1  0
 16 17  1  0
 18 16  2  0
M  END
$$$$
