CVG.pdb
     RDKit          3D

 18 17  0  0  1  0  0  0  0  0999 V2000
   21.2330  -14.4232  -15.9909 N   0  0  0  0  0  0  0  0  0  0  0  0
   21.2400  -13.1968  -16.7158 C   0  0  1  0  0  0  0  0  0  0  0  0
   19.8919  -12.8279  -17.2943 C   0  0  0  0  0  0  0  0  0  0  0  0
   20.0802  -11.9617  -18.8850 S   0  0  0  0  0  0  0  0  0  0  0  0
   21.7387  -12.0462  -15.9388 C   0  0  0  0  0  0  0  0  0  0  0  0
   21.2092  -11.8406  -14.8105 O   0  0  0  0  0  0  0  0  0  0  0  0
   24.9147  -11.3863  -14.6030 C   0  0  0  0  0  0  0  0  0  0  0  0
   24.6167  -10.0538  -15.2591 C   0  0  1  0  0  0  0  0  0  0  0  0
   25.3557  -10.0566  -16.5989 C   0  0  0  0  0  0  0  0  0  0  0  0
   23.1423  -10.0211  -15.5772 C   0  0  2  0  0  0  0  0  0  0  0  0
   22.7688  -11.1710  -16.3887 N   0  0  0  0  0  0  0  0  0  0  0  0
   22.7306   -8.7735  -16.2495 C   0  0  0  0  0  0  0  0  0  0  0  0
   23.1561   -8.5486  -17.4183 O   0  0  0  0  0  0  0  0  0  0  0  0
   21.8813   -7.8642  -15.5882 N   0  0  0  0  0  0  0  0  0  0  0  0
   21.5254   -6.5926  -16.1541 C   0  0  0  0  0  0  0  0  0  0  0  0
   21.3229   -5.5439  -15.1220 C   0  0  0  0  0  0  0  0  0  0  0  0
   21.0328   -4.2324  -15.3901 O   0  0  0  0  0  0  0  0  0  0  0  0
   21.4288   -5.9016  -13.9202 O   0  0  0  0  0  0  0  0  0  0  0  0
  2  1  1  1
  3  2  1  0
  4  3  1  0
  5  2  1  0
  6  5  2  0
  8  7  1  6
  8  9  1  0
  8 10  1  0
 10 12  1  0
 10 11  1  6
 11  5  1  0
 12 14  1  0
 13 12  2  0
 14 15  1  0
 16 15  1  0
 16 17  1  0
 18 16  2  0
M  END
$$$$
