CVG.pdb
     RDKit          3D

 18 17  0  0  1  0  0  0  0  0999 V2000
   12.8359  -22.6174    0.0346 N   0  0  0  0  0  0  0  0  0  0  0  0
   14.2147  -22.5631    0.3894 C   0  0  1  0  0  0  0  0  0  0  0  0
   15.0659  -21.8045   -0.6045 C   0  0  0  0  0  0  0  0  0  0  0  0
   15.2024  -22.7159   -2.1751 S   0  0  0  0  0  0  0  0  0  0  0  0
   14.4647  -22.0045    1.7317 C   0  0  0  0  0  0  0  0  0  0  0  0
   13.4918  -21.4476    2.3138 O   0  0  0  0  0  0  0  0  0  0  0  0
   18.1600  -22.3688    3.9364 C   0  0  0  0  0  0  0  0  0  0  0  0
   16.7824  -22.6096    4.5187 C   0  0  1  0  0  0  0  0  0  0  0  0
   16.8378  -22.1330    5.9716 C   0  0  0  0  0  0  0  0  0  0  0  0
   15.8175  -21.6992    3.8002 C   0  0  2  0  0  0  0  0  0  0  0  0
   15.7255  -22.0605    2.3926 N   0  0  0  0  0  0  0  0  0  0  0  0
   16.1712  -20.2726    3.9333 C   0  0  0  0  0  0  0  0  0  0  0  0
   17.0714  -19.8010    3.1815 O   0  0  0  0  0  0  0  0  0  0  0  0
   15.5099  -19.4685    4.8827 N   0  0  0  0  0  0  0  0  0  0  0  0
   15.7876  -18.0668    5.0311 C   0  0  0  0  0  0  0  0  0  0  0  0
   16.6744  -17.7787    6.1873 C   0  0  0  0  0  0  0  0  0  0  0  0
   17.1254  -16.5321    6.5317 O   0  0  0  0  0  0  0  0  0  0  0  0
   17.0277  -18.7605    6.8907 O   0  0  0  0  0  0  0  0  0  0  0  0
  2  1  1  6
  3  2  1  0
  4  3  1  0
  5  2  1  0
  6  5  2  0
  8  7  1  6
  8  9  1  0
  8 10  1  0
 10 12  1  0
 10 11  1  6
 11  5  1  0
 12 14  1  0
 13 12  2  0
 14 15  1  0
 16 15  1  0
 16 17  1  0
 18 16  2  0
M  END
$$$$
