FVV.pdb
     RDKit          3D

 26 26  0  0  1  0  0  0  0  0999 V2000
   25.9639  -20.4887  -12.3302 N   0  0  0  0  0  0  0  0  0  0  0  0
   25.4026  -20.5206  -10.9984 C   0  0  1  0  0  0  0  0  0  0  0  0
   24.6887  -21.8274  -10.7827 C   0  0  0  0  0  0  0  0  0  0  0  0
   23.2889  -21.7034  -11.2474 C   0  0  0  0  0  0  0  0  0  0  0  0
   22.3696  -21.1643  -10.3806 C   0  0  0  0  0  0  0  0  0  0  0  0
   21.0545  -21.0184  -10.7410 C   0  0  0  0  0  0  0  0  0  0  0  0
   20.6793  -21.4312  -12.0070 C   0  0  0  0  0  0  0  0  0  0  0  0
   21.5939  -21.9683  -12.8716 C   0  0  0  0  0  0  0  0  0  0  0  0
   22.9092  -22.1161  -12.5156 C   0  0  0  0  0  0  0  0  0  0  0  0
   26.4757  -20.3302   -9.9905 C   0  0  0  0  0  0  0  0  0  0  0  0
   27.6408  -20.7362  -10.2288 O   0  0  0  0  0  0  0  0  0  0  0  0
   28.1724  -17.2731   -6.6191 C   0  0  0  0  0  0  0  0  0  0  0  0
   27.0951  -17.7168   -7.5545 C   0  0  1  0  0  0  0  0  0  0  0  0
   26.9984  -16.8163   -8.7594 C   0  0  0  0  0  0  0  0  0  0  0  0
   27.3033  -19.1709   -7.9400 C   0  0  2  0  0  0  0  0  0  0  0  0
   26.2457  -19.6966   -8.7394 N   0  0  0  0  0  0  0  0  0  0  0  0
   27.6310  -20.0140   -6.7644 C   0  0  0  0  0  0  0  0  0  0  0  0
   26.7796  -20.6296   -6.0836 O   0  0  0  0  0  0  0  0  0  0  0  0
   31.3942  -21.7005   -3.9919 C   0  0  0  0  0  0  0  0  0  0  0  0
   30.8769  -21.0930   -5.2632 C   0  0  1  0  0  0  0  0  0  0  0  0
   31.1781  -21.8919   -6.4908 C   0  0  0  0  0  0  0  0  0  0  0  0
   29.3562  -20.9224   -5.1841 C   0  0  2  0  0  0  0  0  0  0  0  0
   28.9858  -20.1562   -6.3552 N   0  0  0  0  0  0  0  0  0  0  0  0
   28.9218  -20.2958   -3.9401 C   0  0  0  0  0  0  0  0  0  0  0  0
   28.9853  -19.0503   -3.8125 O   0  0  0  0  0  0  0  0  0  0  0  0
   28.4387  -21.0513   -2.8936 O   0  0  0  0  0  0  0  0  0  0  0  0
  2 10  1  0
  2  1  1  6
  3  2  1  0
  4  3  1  0
  5  4  2  0
  6  5  1  0
  7  8  1  0
  7  6  2  0
  8  9  2  0
  9  4  1  0
 10 11  2  0
 13 12  1  1
 13 14  1  0
 15 13  1  0
 15 16  1  1
 16 10  1  0
 17 18  2  0
 17 15  1  0
 20 19  1  1
 20 21  1  0
 20 22  1  0
 22 23  1  6
 23 17  1  0
 24 26  1  0
 24 22  1  0
 25 24  2  0
M  END
$$$$
