FVV.pdb
     RDKit          3D

 26 26  0  0  1  0  0  0  0  0999 V2000
   22.6304  -21.7756  -14.6693 N   0  0  0  0  0  0  0  0  0  0  0  0
   23.3038  -20.5855  -14.2006 C   0  0  1  0  0  0  0  0  0  0  0  0
   22.3092  -19.6694  -13.5409 C   0  0  0  0  0  0  0  0  0  0  0  0
   21.4712  -19.0275  -14.5785 C   0  0  0  0  0  0  0  0  0  0  0  0
   20.1758  -19.4628  -14.7181 C   0  0  0  0  0  0  0  0  0  0  0  0
   19.3404  -18.9156  -15.6579 C   0  0  0  0  0  0  0  0  0  0  0  0
   19.8417  -17.9093  -16.4640 C   0  0  0  0  0  0  0  0  0  0  0  0
   21.1319  -17.4744  -16.3261 C   0  0  0  0  0  0  0  0  0  0  0  0
   21.9703  -18.0185  -15.3881 C   0  0  0  0  0  0  0  0  0  0  0  0
   24.3904  -20.9545  -13.2589 C   0  0  0  0  0  0  0  0  0  0  0  0
   24.1820  -21.8116  -12.3638 O   0  0  0  0  0  0  0  0  0  0  0  0
   29.1426  -20.9683  -11.9823 C   0  0  0  0  0  0  0  0  0  0  0  0
   28.1109  -20.6302  -13.0088 C   0  0  1  0  0  0  0  0  0  0  0  0
   28.2444  -21.4932  -14.2374 C   0  0  0  0  0  0  0  0  0  0  0  0
   26.7219  -20.7094  -12.4000 C   0  0  2  0  0  0  0  0  0  0  0  0
   25.6857  -20.3731  -13.3204 N   0  0  0  0  0  0  0  0  0  0  0  0
   26.6364  -19.9692  -11.1173 C   0  0  0  0  0  0  0  0  0  0  0  0
   26.5269  -18.7251  -11.0314 O   0  0  0  0  0  0  0  0  0  0  0  0
   25.6474  -22.0859   -7.6577 C   0  0  0  0  0  0  0  0  0  0  0  0
   25.4338  -20.6147   -7.8645 C   0  0  1  0  0  0  0  0  0  0  0  0
   25.2486  -19.8388   -6.5998 C   0  0  0  0  0  0  0  0  0  0  0  0
   26.6289  -20.0089   -8.6079 C   0  0  2  0  0  0  0  0  0  0  0  0
   26.6778  -20.6834   -9.8879 N   0  0  0  0  0  0  0  0  0  0  0  0
   27.8771  -20.1258   -7.8613 C   0  0  0  0  0  0  0  0  0  0  0  0
   28.1151  -19.3389   -6.9150 O   0  0  0  0  0  0  0  0  0  0  0  0
   28.8076  -21.0920   -8.1776 O   0  0  0  0  0  0  0  0  0  0  0  0
  2 10  1  0
  2  1  1  1
  3  2  1  0
  4  3  1  0
  5  4  2  0
  6  5  1  0
  7  8  1  0
  7  6  2  0
  8  9  2  0
  9  4  1  0
 10 11  2  0
 13 12  1  1
 13 14  1  0
 15 13  1  0
 15 16  1  6
 16 10  1  0
 17 18  2  0
 17 15  1  0
 20 19  1  1
 20 21  1  0
 20 22  1  0
 22 23  1  6
 23 17  1  0
 24 26  1  0
 24 22  1  0
 25 24  2  0
M  END
$$$$
