FVV.pdb
     RDKit          3D

 26 26  0  0  1  0  0  0  0  0999 V2000
   24.0769  -20.2635  -17.9580 N   0  0  0  0  0  0  0  0  0  0  0  0
   24.3670  -19.2972  -16.9228 C   0  0  1  0  0  0  0  0  0  0  0  0
   23.0816  -18.7125  -16.4035 C   0  0  0  0  0  0  0  0  0  0  0  0
   22.5461  -17.7506  -17.3928 C   0  0  0  0  0  0  0  0  0  0  0  0
   22.8961  -16.4291  -17.2586 C   0  0  0  0  0  0  0  0  0  0  0  0
   22.4382  -15.4806  -18.1370 C   0  0  0  0  0  0  0  0  0  0  0  0
   21.6109  -15.8948  -19.1655 C   0  0  0  0  0  0  0  0  0  0  0  0
   21.2614  -17.2110  -19.3006 C   0  0  0  0  0  0  0  0  0  0  0  0
   21.7167  -18.1622  -18.4249 C   0  0  0  0  0  0  0  0  0  0  0  0
   25.1367  -19.9409  -15.8288 C   0  0  0  0  0  0  0  0  0  0  0  0
   24.7834  -21.0634  -15.3879 O   0  0  0  0  0  0  0  0  0  0  0  0
   29.1506  -20.3779  -13.0561 C   0  0  0  0  0  0  0  0  0  0  0  0
   28.4892  -19.7899  -14.2600 C   0  0  1  0  0  0  0  0  0  0  0  0
   29.0195  -20.3918  -15.5361 C   0  0  0  0  0  0  0  0  0  0  0  0
   26.9808  -19.9237  -14.1457 C   0  0  2  0  0  0  0  0  0  0  0  0
   26.2807  -19.3366  -15.2407 N   0  0  0  0  0  0  0  0  0  0  0  0
   26.4842  -19.4799  -12.8202 C   0  0  0  0  0  0  0  0  0  0  0  0
   26.4413  -18.2842  -12.4518 O   0  0  0  0  0  0  0  0  0  0  0  0
   23.3078  -19.8486  -11.4213 C   0  0  0  0  0  0  0  0  0  0  0  0
   24.1659  -20.5356  -10.3993 C   0  0  1  0  0  0  0  0  0  0  0  0
   24.1518  -22.0280  -10.4910 C   0  0  0  0  0  0  0  0  0  0  0  0
   25.6212  -20.0774  -10.5406 C   0  0  2  0  0  0  0  0  0  0  0  0
   26.0195  -20.4438  -11.8833 N   0  0  0  0  0  0  0  0  0  0  0  0
   26.4944  -20.6457   -9.5190 C   0  0  0  0  0  0  0  0  0  0  0  0
   27.1750  -21.6665   -9.7762 O   0  0  0  0  0  0  0  0  0  0  0  0
   26.5872  -20.0783   -8.2664 O   0  0  0  0  0  0  0  0  0  0  0  0
  2 10  1  0
  2  1  1  6
  3  2  1  0
  4  3  1  0
  5  4  2  0
  6  5  1  0
  7  8  1  0
  7  6  2  0
  8  9  2  0
  9  4  1  0
 10 11  2  0
 13 12  1  1
 13 14  1  0
 15 13  1  0
 15 16  1  6
 16 10  1  0
 17 18  2  0
 17 15  1  0
 20 19  1  6
 20 21  1  0
 20 22  1  0
 22 23  1  6
 23 17  1  0
 24 26  1  0
 24 22  1  0
 25 24  2  0
M  END
$$$$
