FVV.pdb
     RDKit          3D

 26 26  0  0  1  0  0  0  0  0999 V2000
   19.9708  -14.6330  -17.8900 N   0  0  0  0  0  0  0  0  0  0  0  0
   20.5750  -13.3851  -18.2994 C   0  0  1  0  0  0  0  0  0  0  0  0
   19.7555  -12.7639  -19.3977 C   0  0  0  0  0  0  0  0  0  0  0  0
   19.8804  -13.5824  -20.6247 C   0  0  0  0  0  0  0  0  0  0  0  0
   18.7912  -14.3217  -21.0174 C   0  0  0  0  0  0  0  0  0  0  0  0
   18.8327  -15.1039  -22.1431 C   0  0  0  0  0  0  0  0  0  0  0  0
   20.0070  -15.1268  -22.8740 C   0  0  0  0  0  0  0  0  0  0  0  0
   21.0928  -14.3909  -22.4842 C   0  0  0  0  0  0  0  0  0  0  0  0
   21.0558  -13.6078  -21.3598 C   0  0  0  0  0  0  0  0  0  0  0  0
   20.6846  -12.4687  -17.1368 C   0  0  0  0  0  0  0  0  0  0  0  0
   19.8428  -12.5311  -16.2058 O   0  0  0  0  0  0  0  0  0  0  0  0
   23.0285   -9.6265  -14.0432 C   0  0  0  0  0  0  0  0  0  0  0  0
   23.0465  -10.6434  -15.1377 C   0  0  1  0  0  0  0  0  0  0  0  0
   23.2868  -12.0322  -14.6032 C   0  0  0  0  0  0  0  0  0  0  0  0
   21.7690  -10.5558  -15.9542 C   0  0  2  0  0  0  0  0  0  0  0  0
   21.7188  -11.5008  -17.0210 N   0  0  0  0  0  0  0  0  0  0  0  0
   21.4795   -9.1652  -16.3820 C   0  0  0  0  0  0  0  0  0  0  0  0
   22.1503   -8.5396  -17.2339 O   0  0  0  0  0  0  0  0  0  0  0  0
   17.9505   -5.8446  -16.8123 C   0  0  0  0  0  0  0  0  0  0  0  0
   18.4862   -7.2144  -16.5133 C   0  0  1  0  0  0  0  0  0  0  0  0
   18.2579   -8.2128  -17.6027 C   0  0  0  0  0  0  0  0  0  0  0  0
   19.9956   -7.1450  -16.2586 C   0  0  2  0  0  0  0  0  0  0  0  0
   20.3794   -8.4673  -15.8114 N   0  0  0  0  0  0  0  0  0  0  0  0
   20.3608   -6.1004  -15.3075 C   0  0  0  0  0  0  0  0  0  0  0  0
   20.5390   -4.9258  -15.7075 O   0  0  0  0  0  0  0  0  0  0  0  0
   20.5149   -6.3809  -13.9670 O   0  0  0  0  0  0  0  0  0  0  0  0
  2 10  1  0
  2  1  1  1
  3  2  1  0
  4  3  1  0
  5  4  2  0
  6  5  1  0
  7  8  1  0
  7  6  2  0
  8  9  2  0
  9  4  1  0
 10 11  2  0
 13 12  1  1
 13 14  1  0
 15 13  1  0
 15 16  1  6
 16 10  1  0
 17 18  2  0
 17 15  1  0
 20 19  1  6
 20 21  1  0
 20 22  1  0
 22 23  1  1
 23 17  1  0
 24 26  1  0
 24 22  1  0
 25 24  2  0
M  END
$$$$
