FVV.pdb
     RDKit          3D

 26 26  0  0  1  0  0  0  0  0999 V2000
   24.5800  -22.3556  -12.7015 N   0  0  0  0  0  0  0  0  0  0  0  0
   24.8880  -21.1307  -11.9982 C   0  0  1  0  0  0  0  0  0  0  0  0
   23.6146  -20.4946  -11.5109 C   0  0  0  0  0  0  0  0  0  0  0  0
   22.9822  -19.7501  -12.6230 C   0  0  0  0  0  0  0  0  0  0  0  0
   21.6126  -19.6432  -12.6277 C   0  0  0  0  0  0  0  0  0  0  0  0
   20.9566  -18.9689  -13.6256 C   0  0  0  0  0  0  0  0  0  0  0  0
   21.7167  -18.3975  -14.6304 C   0  0  0  0  0  0  0  0  0  0  0  0
   23.0810  -18.5030  -14.6270 C   0  0  0  0  0  0  0  0  0  0  0  0
   23.7407  -19.1761  -13.6318 C   0  0  0  0  0  0  0  0  0  0  0  0
   25.8067  -21.4121  -10.8667 C   0  0  0  0  0  0  0  0  0  0  0  0
   25.5445  -22.3393  -10.0600 O   0  0  0  0  0  0  0  0  0  0  0  0
   30.2730  -21.1730   -8.8823 C   0  0  0  0  0  0  0  0  0  0  0  0
   29.3694  -20.8253  -10.0203 C   0  0  1  0  0  0  0  0  0  0  0  0
   29.6991  -21.6223  -11.2565 C   0  0  0  0  0  0  0  0  0  0  0  0
   27.9179  -20.9863   -9.6038 C   0  0  2  0  0  0  0  0  0  0  0  0
   26.9966  -20.6675  -10.6446 N   0  0  0  0  0  0  0  0  0  0  0  0
   27.6285  -20.2925   -8.3249 C   0  0  0  0  0  0  0  0  0  0  0  0
   27.0600  -19.1801   -8.2436 O   0  0  0  0  0  0  0  0  0  0  0  0
   29.7697  -21.4191   -4.8751 C   0  0  0  0  0  0  0  0  0  0  0  0
   28.2855  -21.2294   -4.7579 C   0  0  1  0  0  0  0  0  0  0  0  0
   27.8364  -20.7188   -3.4262 C   0  0  0  0  0  0  0  0  0  0  0  0
   27.7958  -20.2408   -5.8213 C   0  0  2  0  0  0  0  0  0  0  0  0
   28.0050  -20.8980   -7.0942 N   0  0  0  0  0  0  0  0  0  0  0  0
   28.4635  -18.9460   -5.7393 C   0  0  0  0  0  0  0  0  0  0  0  0
   27.9192  -18.0004   -5.1219 O   0  0  0  0  0  0  0  0  0  0  0  0
   29.6907  -18.7394   -6.3314 O   0  0  0  0  0  0  0  0  0  0  0  0
  2 10  1  0
  2  1  1  1
  3  2  1  0
  4  3  1  0
  5  4  2  0
  6  5  1  0
  7  8  1  0
  7  6  2  0
  8  9  2  0
  9  4  1  0
 10 11  2  0
 13 12  1  1
 13 14  1  0
 15 13  1  0
 15 16  1  6
 16 10  1  0
 17 18  2  0
 17 15  1  0
 20 19  1  1
 20 21  1  0
 20 22  1  0
 22 23  1  6
 23 17  1  0
 24 26  1  0
 24 22  1  0
 25 24  2  0
M  END
$$$$
