FVV.pdb
     RDKit          3D

 26 26  0  0  1  0  0  0  0  0999 V2000
   27.8759  -21.5775  -14.1913 N   0  0  0  0  0  0  0  0  0  0  0  0
   26.8720  -21.5034  -13.1538 C   0  0  1  0  0  0  0  0  0  0  0  0
   27.1886  -20.3624  -12.2256 C   0  0  0  0  0  0  0  0  0  0  0  0
   28.2970  -20.7553  -11.3268 C   0  0  0  0  0  0  0  0  0  0  0  0
   29.5742  -20.7287  -11.8321 C   0  0  0  0  0  0  0  0  0  0  0  0
   30.6510  -21.0797  -11.0589 C   0  0  0  0  0  0  0  0  0  0  0  0
   30.4130  -21.4626   -9.7510 C   0  0  0  0  0  0  0  0  0  0  0  0
   29.1414  -21.4895   -9.2461 C   0  0  0  0  0  0  0  0  0  0  0  0
   28.0623  -21.1396  -10.0153 C   0  0  0  0  0  0  0  0  0  0  0  0
   25.5271  -21.3363  -13.7597 C   0  0  0  0  0  0  0  0  0  0  0  0
   25.2645  -20.3081  -14.4327 O   0  0  0  0  0  0  0  0  0  0  0  0
   21.6596  -22.8629  -16.0074 C   0  0  0  0  0  0  0  0  0  0  0  0
   23.0094  -23.0870  -15.4073 C   0  0  1  0  0  0  0  0  0  0  0  0
   24.1046  -22.9521  -16.4342 C   0  0  0  0  0  0  0  0  0  0  0  0
   23.2159  -22.1593  -14.2228 C   0  0  2  0  0  0  0  0  0  0  0  0
   24.4969  -22.3041  -13.6130 N   0  0  0  0  0  0  0  0  0  0  0  0
   22.0906  -22.2327  -13.2591 C   0  0  0  0  0  0  0  0  0  0  0  0
   21.7848  -23.2617  -12.6150 O   0  0  0  0  0  0  0  0  0  0  0  0
   21.5938  -20.0294  -10.4421 C   0  0  0  0  0  0  0  0  0  0  0  0
   20.3055  -19.9151  -11.2036 C   0  0  1  0  0  0  0  0  0  0  0  0
   20.1915  -18.6755  -12.0321 C   0  0  0  0  0  0  0  0  0  0  0  0
   20.1407  -21.1152  -12.1420 C   0  0  2  0  0  0  0  0  0  0  0  0
   21.2868  -21.0826  -13.0258 N   0  0  0  0  0  0  0  0  0  0  0  0
   18.8724  -21.0987  -12.8632 C   0  0  0  0  0  0  0  0  0  0  0  0
   18.8356  -20.7075  -14.0536 O   0  0  0  0  0  0  0  0  0  0  0  0
   17.7041  -21.5082  -12.2576 O   0  0  0  0  0  0  0  0  0  0  0  0
  2 10  1  0
  2  1  1  6
  3  2  1  0
  4  3  1  0
  5  4  2  0
  6  5  1  0
  7  8  1  0
  7  6  2  0
  8  9  2  0
  9  4  1  0
 10 11  2  0
 13 12  1  6
 13 14  1  0
 15 13  1  0
 15 16  1  1
 16 10  1  0
 17 18  2  0
 17 15  1  0
 20 19  1  6
 20 21  1  0
 20 22  1  0
 22 23  1  6
 23 17  1  0
 24 26  1  0
 24 22  1  0
 25 24  2  0
M  END
$$$$
