FVV.pdb
     RDKit          3D

 26 26  0  0  1  0  0  0  0  0999 V2000
   38.5239  -10.1906   -9.8361 N   0  0  0  0  0  0  0  0  0  0  0  0
   38.9372  -10.1262   -8.4523 C   0  0  1  0  0  0  0  0  0  0  0  0
   39.1941  -11.5163   -7.9370 C   0  0  0  0  0  0  0  0  0  0  0  0
   37.9071  -12.2352   -7.8045 C   0  0  0  0  0  0  0  0  0  0  0  0
   37.3345  -12.3031   -6.5577 C   0  0  0  0  0  0  0  0  0  0  0  0
   36.1433  -12.9526   -6.3580 C   0  0  0  0  0  0  0  0  0  0  0  0
   35.5331  -13.5393   -7.4522 C   0  0  0  0  0  0  0  0  0  0  0  0
   36.1022  -13.4725   -8.6949 C   0  0  0  0  0  0  0  0  0  0  0  0
   37.2926  -12.8245   -8.8990 C   0  0  0  0  0  0  0  0  0  0  0  0
   40.1504   -9.2805   -8.3236 C   0  0  0  0  0  0  0  0  0  0  0  0
   40.9803   -9.2247   -9.2656 O   0  0  0  0  0  0  0  0  0  0  0  0
   42.4911   -5.4213   -6.6314 C   0  0  0  0  0  0  0  0  0  0  0  0
   41.2391   -6.2255   -6.7663 C   0  0  1  0  0  0  0  0  0  0  0  0
   40.3140   -5.6451   -7.8053 C   0  0  0  0  0  0  0  0  0  0  0  0
   41.5786   -7.6787   -7.0477 C   0  0  2  0  0  0  0  0  0  0  0  0
   40.4271   -8.5125   -7.1604 N   0  0  0  0  0  0  0  0  0  0  0  0
   42.5974   -8.2019   -6.1050 C   0  0  0  0  0  0  0  0  0  0  0  0
   42.4170   -8.3197   -4.8718 O   0  0  0  0  0  0  0  0  0  0  0  0
   46.7653  -10.7337   -5.6481 C   0  0  0  0  0  0  0  0  0  0  0  0
   45.6400  -10.1862   -6.4767 C   0  0  1  0  0  0  0  0  0  0  0  0
   44.6139  -11.2025   -6.8642 C   0  0  0  0  0  0  0  0  0  0  0  0
   44.9196   -9.0696   -5.7136 C   0  0  2  0  0  0  0  0  0  0  0  0
   43.8700   -8.6052   -6.5959 N   0  0  0  0  0  0  0  0  0  0  0  0
   45.8191   -7.9994   -5.2957 C   0  0  0  0  0  0  0  0  0  0  0  0
   46.3170   -7.2316   -6.1524 O   0  0  0  0  0  0  0  0  0  0  0  0
   46.1350   -7.8136   -3.9671 O   0  0  0  0  0  0  0  0  0  0  0  0
  2 10  1  0
  2  1  1  6
  3  2  1  0
  4  3  1  0
  5  4  2  0
  6  5  1  0
  7  8  1  0
  7  6  2  0
  8  9  2  0
  9  4  1  0
 10 11  2  0
 13 12  1  6
 13 14  1  0
 15 13  1  0
 15 16  1  1
 16 10  1  0
 17 18  2  0
 17 15  1  0
 20 19  1  1
 20 21  1  0
 20 22  1  0
 22 23  1  6
 23 17  1  0
 24 26  1  0
 24 22  1  0
 25 24  2  0
M  END
$$$$
