FVV.pdb
     RDKit          3D

 26 26  0  0  1  0  0  0  0  0999 V2000
   27.2353  -17.9333   -7.9684 N   0  0  0  0  0  0  0  0  0  0  0  0
   27.3192  -19.3616   -8.1750 C   0  0  1  0  0  0  0  0  0  0  0  0
   26.7170  -20.0783   -6.9971 C   0  0  0  0  0  0  0  0  0  0  0  0
   27.5722  -19.8696   -5.8072 C   0  0  0  0  0  0  0  0  0  0  0  0
   27.0896  -20.2819   -4.5889 C   0  0  0  0  0  0  0  0  0  0  0  0
   27.8251  -20.1211   -3.4427 C   0  0  0  0  0  0  0  0  0  0  0  0
   29.0712  -19.5298   -3.5493 C   0  0  0  0  0  0  0  0  0  0  0  0
   29.5534  -19.1186   -4.7622 C   0  0  0  0  0  0  0  0  0  0  0  0
   28.8216  -19.2773   -5.9103 C   0  0  0  0  0  0  0  0  0  0  0  0
   26.6256  -19.7341   -9.4334 C   0  0  0  0  0  0  0  0  0  0  0  0
   25.5584  -19.1553   -9.7578 O   0  0  0  0  0  0  0  0  0  0  0  0
   27.1358  -21.5264  -13.9802 C   0  0  0  0  0  0  0  0  0  0  0  0
   27.6762  -21.4782  -12.5880 C   0  0  1  0  0  0  0  0  0  0  0  0
   28.9868  -20.7363  -12.5250 C   0  0  0  0  0  0  0  0  0  0  0  0
   26.6397  -20.8935  -11.6446 C   0  0  2  0  0  0  0  0  0  0  0  0
   27.1198  -20.7369  -10.3108 N   0  0  0  0  0  0  0  0  0  0  0  0
   25.3465  -21.6155  -11.7265 C   0  0  0  0  0  0  0  0  0  0  0  0
   24.8284  -22.2369  -10.7712 O   0  0  0  0  0  0  0  0  0  0  0  0
   22.8065  -19.3796  -12.8016 C   0  0  0  0  0  0  0  0  0  0  0  0
   22.5845  -20.7074  -12.1378 C   0  0  1  0  0  0  0  0  0  0  0  0
   21.1462  -21.0426  -11.9042 C   0  0  0  0  0  0  0  0  0  0  0  0
   23.1883  -21.8289  -12.9896 C   0  0  2  0  0  0  0  0  0  0  0  0
   24.6209  -21.6241  -12.9499 N   0  0  0  0  0  0  0  0  0  0  0  0
   22.6600  -21.8526  -14.3495 C   0  0  0  0  0  0  0  0  0  0  0  0
   23.1632  -21.1135  -15.2282 O   0  0  0  0  0  0  0  0  0  0  0  0
   21.6105  -22.6779  -14.6910 O   0  0  0  0  0  0  0  0  0  0  0  0
  2 10  1  0
  2  1  1  1
  3  2  1  0
  4  3  1  0
  5  4  2  0
  6  5  1  0
  7  8  1  0
  7  6  2  0
  8  9  2  0
  9  4  1  0
 10 11  2  0
 13 12  1  6
 13 14  1  0
 15 13  1  0
 15 16  1  1
 16 10  1  0
 17 18  2  0
 17 15  1  0
 20 19  1  6
 20 21  1  0
 20 22  1  0
 22 23  1  6
 23 17  1  0
 24 26  1  0
 24 22  1  0
 25 24  2  0
M  END
$$$$
