FVV.pdb
     RDKit          3D

 26 26  0  0  1  0  0  0  0  0999 V2000
   23.5305  -19.4068  -17.6177 N   0  0  0  0  0  0  0  0  0  0  0  0
   24.0503  -18.5764  -16.5547 C   0  0  1  0  0  0  0  0  0  0  0  0
   22.9127  -17.8925  -15.8462 C   0  0  0  0  0  0  0  0  0  0  0  0
   22.3803  -16.8108  -16.7049 C   0  0  0  0  0  0  0  0  0  0  0  0
   21.0696  -16.8962  -17.1072 C   0  0  0  0  0  0  0  0  0  0  0  0
   20.5072  -15.9319  -17.9037 C   0  0  0  0  0  0  0  0  0  0  0  0
   21.3008  -14.8672  -18.2916 C   0  0  0  0  0  0  0  0  0  0  0  0
   22.6066  -14.7806  -17.8916 C   0  0  0  0  0  0  0  0  0  0  0  0
   23.1727  -15.7422  -17.0956 C   0  0  0  0  0  0  0  0  0  0  0  0
   24.8449  -19.4001  -15.6094 C   0  0  0  0  0  0  0  0  0  0  0  0
   24.4061  -20.5124  -15.2229 O   0  0  0  0  0  0  0  0  0  0  0  0
   29.0479  -20.4851  -13.3199 C   0  0  0  0  0  0  0  0  0  0  0  0
   28.3438  -19.6991  -14.3777 C   0  0  1  0  0  0  0  0  0  0  0  0
   28.7271  -20.1592  -15.7610 C   0  0  0  0  0  0  0  0  0  0  0  0
   26.8427  -19.7464  -14.1524 C   0  0  2  0  0  0  0  0  0  0  0  0
   26.1075  -18.9838  -15.1073 N   0  0  0  0  0  0  0  0  0  0  0  0
   26.4836  -19.4379  -12.7466 C   0  0  0  0  0  0  0  0  0  0  0  0
   26.5680  -18.2984  -12.2351 O   0  0  0  0  0  0  0  0  0  0  0  0
   23.9085  -20.8489   -8.8545 C   0  0  0  0  0  0  0  0  0  0  0  0
   24.3484  -21.0015  -10.2814 C   0  0  1  0  0  0  0  0  0  0  0  0
   23.3514  -20.5167  -11.2849 C   0  0  0  0  0  0  0  0  0  0  0  0
   25.6521  -20.2310  -10.5154 C   0  0  2  0  0  0  0  0  0  0  0  0
   26.0099  -20.4754  -11.8967 N   0  0  0  0  0  0  0  0  0  0  0  0
   26.7085  -20.6117   -9.5838 C   0  0  0  0  0  0  0  0  0  0  0  0
   27.4097  -21.6249   -9.8145 O   0  0  0  0  0  0  0  0  0  0  0  0
   26.9538  -19.8739   -8.4459 O   0  0  0  0  0  0  0  0  0  0  0  0
  2 10  1  0
  2  1  1  6
  3  2  1  0
  4  3  1  0
  5  4  2  0
  6  5  1  0
  7  8  1  0
  7  6  2  0
  8  9  2  0
  9  4  1  0
 10 11  2  0
 13 12  1  1
 13 14  1  0
 15 13  1  0
 15 16  1  6
 16 10  1  0
 17 18  2  0
 17 15  1  0
 20 19  1  1
 20 21  1  0
 20 22  1  0
 22 23  1  6
 23 17  1  0
 24 26  1  0
 24 22  1  0
 25 24  2  0
M  END
$$$$
