FVV.pdb
     RDKit          3D

 26 26  0  0  1  0  0  0  0  0999 V2000
   23.6572  -18.6452  -18.9297 N   0  0  0  0  0  0  0  0  0  0  0  0
   23.8063  -17.9852  -17.6522 C   0  0  1  0  0  0  0  0  0  0  0  0
   22.4495  -17.6409  -17.1005 C   0  0  0  0  0  0  0  0  0  0  0  0
   21.8573  -16.5475  -17.9033 C   0  0  0  0  0  0  0  0  0  0  0  0
   22.2928  -15.2667  -17.6645 C   0  0  0  0  0  0  0  0  0  0  0  0
   21.7896  -14.2029  -18.3688 C   0  0  0  0  0  0  0  0  0  0  0  0
   20.8276  -14.4580  -19.3297 C   0  0  0  0  0  0  0  0  0  0  0  0
   20.3929  -15.7333  -19.5688 C   0  0  0  0  0  0  0  0  0  0  0  0
   20.8930  -16.7994  -18.8672 C   0  0  0  0  0  0  0  0  0  0  0  0
   24.5542  -18.8588  -16.7136 C   0  0  0  0  0  0  0  0  0  0  0  0
   24.3389  -20.0968  -16.7004 O   0  0  0  0  0  0  0  0  0  0  0  0
   28.3053  -19.7874  -13.7317 C   0  0  0  0  0  0  0  0  0  0  0  0
   27.6739  -18.8763  -14.7335 C   0  0  1  0  0  0  0  0  0  0  0  0
   28.3799  -18.9370  -16.0640 C   0  0  0  0  0  0  0  0  0  0  0  0
   26.1912  -19.1809  -14.8562 C   0  0  2  0  0  0  0  0  0  0  0  0
   25.5248  -18.3530  -15.8071 N   0  0  0  0  0  0  0  0  0  0  0  0
   25.5221  -19.2177  -13.5327 C   0  0  0  0  0  0  0  0  0  0  0  0
   24.5800  -18.4626  -13.2020 O   0  0  0  0  0  0  0  0  0  0  0  0
   23.0169  -21.1175  -10.4840 C   0  0  0  0  0  0  0  0  0  0  0  0
   23.8307  -20.8239  -11.7104 C   0  0  1  0  0  0  0  0  0  0  0  0
   23.2380  -19.7817  -12.6039 C   0  0  0  0  0  0  0  0  0  0  0  0
   25.2315  -20.3482  -11.3109 C   0  0  2  0  0  0  0  0  0  0  0  0
   25.9498  -20.1561  -12.5531 N   0  0  0  0  0  0  0  0  0  0  0  0
   25.9063  -21.2738  -10.4071 C   0  0  0  0  0  0  0  0  0  0  0  0
   25.8531  -21.0879   -9.1686 O   0  0  0  0  0  0  0  0  0  0  0  0
   26.6066  -22.3576  -10.8912 O   0  0  0  0  0  0  0  0  0  0  0  0
  2 10  1  0
  2  1  1  6
  3  2  1  0
  4  3  1  0
  5  4  2  0
  6  5  1  0
  7  8  1  0
  7  6  2  0
  8  9  2  0
  9  4  1  0
 10 11  2  0
 13 12  1  1
 13 14  1  0
 15 13  1  0
 15 16  1  6
 16 10  1  0
 17 18  2  0
 17 15  1  0
 20 19  1  1
 20 21  1  0
 20 22  1  0
 22 23  1  6
 23 17  1  0
 24 26  1  0
 24 22  1  0
 25 24  2  0
M  END
$$$$
