FVV.pdb
     RDKit          3D

 26 26  0  0  1  0  0  0  0  0999 V2000
   28.2783  -20.9356   -9.2132 N   0  0  0  0  0  0  0  0  0  0  0  0
   26.8993  -20.6244   -8.9113 C   0  0  1  0  0  0  0  0  0  0  0  0
   26.8365  -19.3893   -8.0543 C   0  0  0  0  0  0  0  0  0  0  0  0
   27.5293  -19.6472   -6.7719 C   0  0  0  0  0  0  0  0  0  0  0  0
   26.7827  -20.1276   -5.7236 C   0  0  0  0  0  0  0  0  0  0  0  0
   27.3555  -20.3897   -4.5055 C   0  0  0  0  0  0  0  0  0  0  0  0
   28.7114  -20.1555   -4.3626 C   0  0  0  0  0  0  0  0  0  0  0  0
   29.4566  -19.6770   -5.4059 C   0  0  0  0  0  0  0  0  0  0  0  0
   28.8882  -19.4136   -6.6250 C   0  0  0  0  0  0  0  0  0  0  0  0
   26.1341  -20.4360  -10.1693 C   0  0  0  0  0  0  0  0  0  0  0  0
   26.5005  -19.5713  -11.0042 O   0  0  0  0  0  0  0  0  0  0  0  0
   23.9120  -22.1595  -13.9539 C   0  0  0  0  0  0  0  0  0  0  0  0
   24.6701  -22.2813  -12.6721 C   0  0  1  0  0  0  0  0  0  0  0  0
   26.1535  -22.3999  -12.9118 C   0  0  0  0  0  0  0  0  0  0  0  0
   24.3284  -21.1238  -11.7504 C   0  0  2  0  0  0  0  0  0  0  0  0
   24.9801  -21.2032  -10.4843 N   0  0  0  0  0  0  0  0  0  0  0  0
   22.8639  -20.9102  -11.6491 C   0  0  0  0  0  0  0  0  0  0  0  0
   22.1218  -21.5113  -10.8397 O   0  0  0  0  0  0  0  0  0  0  0  0
   19.0660  -18.2414  -13.4119 C   0  0  0  0  0  0  0  0  0  0  0  0
   20.5407  -18.4961  -13.2968 C   0  0  1  0  0  0  0  0  0  0  0  0
   21.2999  -17.4024  -12.6162 C   0  0  0  0  0  0  0  0  0  0  0  0
   20.7918  -19.7895  -12.5145 C   0  0  2  0  0  0  0  0  0  0  0  0
   22.2279  -19.9718  -12.5082 N   0  0  0  0  0  0  0  0  0  0  0  0
   20.0809  -20.9348  -13.0730 C   0  0  0  0  0  0  0  0  0  0  0  0
   19.0446  -21.3614  -12.5113 O   0  0  0  0  0  0  0  0  0  0  0  0
   20.5289  -21.5624  -14.2153 O   0  0  0  0  0  0  0  0  0  0  0  0
  2 10  1  0
  2  1  1  6
  3  2  1  0
  4  3  1  0
  5  4  2  0
  6  5  1  0
  7  8  1  0
  7  6  2  0
  8  9  2  0
  9  4  1  0
 10 11  2  0
 13 12  1  6
 13 14  1  0
 15 13  1  0
 15 16  1  1
 16 10  1  0
 17 18  2  0
 17 15  1  0
 20 19  1  1
 20 21  1  0
 20 22  1  0
 22 23  1  6
 23 17  1  0
 24 26  1  0
 24 22  1  0
 25 24  2  0
M  END
$$$$
