FVV.pdb
     RDKit          3D

 26 26  0  0  1  0  0  0  0  0999 V2000
   28.5450  -21.1678  -17.4478 N   0  0  0  0  0  0  0  0  0  0  0  0
   28.7365  -21.2960  -16.0208 C   0  0  1  0  0  0  0  0  0  0  0  0
   29.9384  -20.4952  -15.5988 C   0  0  0  0  0  0  0  0  0  0  0  0
   30.1643  -20.6787  -14.1475 C   0  0  0  0  0  0  0  0  0  0  0  0
   29.7622  -19.6731  -13.3025 C   0  0  0  0  0  0  0  0  0  0  0  0
   29.9392  -19.7723  -11.9462 C   0  0  0  0  0  0  0  0  0  0  0  0
   30.5362  -20.9183  -11.4522 C   0  0  0  0  0  0  0  0  0  0  0  0
   30.9372  -21.9210  -12.2926 C   0  0  0  0  0  0  0  0  0  0  0  0
   30.7625  -21.8260  -13.6488 C   0  0  0  0  0  0  0  0  0  0  0  0
   27.5190  -20.8432  -15.3023 C   0  0  0  0  0  0  0  0  0  0  0  0
   26.7425  -20.0154  -15.8417 O   0  0  0  0  0  0  0  0  0  0  0  0
   24.8087  -20.6728  -15.5443 C   0  0  0  0  0  0  0  0  0  0  0  0
   24.7301  -21.3483  -14.2139 C   0  0  1  0  0  0  0  0  0  0  0  0
   24.5574  -22.8390  -14.3559 C   0  0  0  0  0  0  0  0  0  0  0  0
   25.9419  -20.9885  -13.3723 C   0  0  2  0  0  0  0  0  0  0  0  0
   27.1795  -21.3102  -14.0038 N   0  0  0  0  0  0  0  0  0  0  0  0
   25.8305  -21.5121  -11.9888 C   0  0  0  0  0  0  0  0  0  0  0  0
   26.6572  -22.2933  -11.4659 O   0  0  0  0  0  0  0  0  0  0  0  0
   26.0221  -20.2651   -7.7999 C   0  0  0  0  0  0  0  0  0  0  0  0
   25.9433  -20.3194   -9.2977 C   0  0  1  0  0  0  0  0  0  0  0  0
   27.1796  -20.8409   -9.9577 C   0  0  0  0  0  0  0  0  0  0  0  0
   24.7760  -21.2124   -9.7312 C   0  0  2  0  0  0  0  0  0  0  0  0
   24.7299  -21.1244  -11.1755 N   0  0  0  0  0  0  0  0  0  0  0  0
   23.5136  -20.8367   -9.1032 C   0  0  0  0  0  0  0  0  0  0  0  0
   23.1362  -21.4214   -8.0606 O   0  0  0  0  0  0  0  0  0  0  0  0
   22.7211  -19.8437   -9.6371 O   0  0  0  0  0  0  0  0  0  0  0  0
  2 10  1  0
  2  1  1  6
  3  2  1  0
  4  3  1  0
  5  4  2  0
  6  5  1  0
  7  8  1  0
  7  6  2  0
  8  9  2  0
  9  4  1  0
 10 11  2  0
 13 12  1  6
 13 14  1  0
 15 13  1  0
 15 16  1  6
 16 10  1  0
 17 18  2  0
 17 15  1  0
 20 19  1  1
 20 21  1  0
 20 22  1  0
 22 23  1  6
 23 17  1  0
 24 26  1  0
 24 22  1  0
 25 24  2  0
M  END
$$$$
