FVV.pdb
     RDKit          3D

 26 26  0  0  1  0  0  0  0  0999 V2000
   24.9569  -17.6901  -15.9276 N   0  0  0  0  0  0  0  0  0  0  0  0
   26.0560  -18.0502  -15.0606 C   0  0  1  0  0  0  0  0  0  0  0  0
   26.8466  -16.8191  -14.7098 C   0  0  0  0  0  0  0  0  0  0  0  0
   27.5911  -16.3584  -15.9033 C   0  0  0  0  0  0  0  0  0  0  0  0
   28.6191  -17.1454  -16.3626 C   0  0  0  0  0  0  0  0  0  0  0  0
   29.3536  -16.7832  -17.4625 C   0  0  0  0  0  0  0  0  0  0  0  0
   29.0282  -15.5983  -18.0982 C   0  0  0  0  0  0  0  0  0  0  0  0
   28.0044  -14.8133  -17.6419 C   0  0  0  0  0  0  0  0  0  0  0  0
   27.2677  -15.1715  -16.5430 C   0  0  0  0  0  0  0  0  0  0  0  0
   25.5411  -18.7157  -13.8377 C   0  0  0  0  0  0  0  0  0  0  0  0
   24.6437  -18.1640  -13.1525 O   0  0  0  0  0  0  0  0  0  0  0  0
   24.4298  -22.6583  -11.3056 C   0  0  0  0  0  0  0  0  0  0  0  0
   24.8850  -21.9909  -12.5625 C   0  0  1  0  0  0  0  0  0  0  0  0
   23.7719  -21.8900  -13.5738 C   0  0  0  0  0  0  0  0  0  0  0  0
   25.4958  -20.6374  -12.2443 C   0  0  2  0  0  0  0  0  0  0  0  0
   26.0237  -19.9760  -13.3922 N   0  0  0  0  0  0  0  0  0  0  0  0
   26.4530  -20.7137  -11.1136 C   0  0  0  0  0  0  0  0  0  0  0  0
   27.5669  -21.2817  -11.1748 O   0  0  0  0  0  0  0  0  0  0  0  0
   26.1022  -18.0818   -7.8935 C   0  0  0  0  0  0  0  0  0  0  0  0
   27.3336  -18.8595   -8.2562 C   0  0  1  0  0  0  0  0  0  0  0  0
   28.3294  -18.9821   -7.1475 C   0  0  0  0  0  0  0  0  0  0  0  0
   26.9507  -20.2776   -8.6927 C   0  0  2  0  0  0  0  0  0  0  0  0
   26.1194  -20.1158   -9.8668 N   0  0  0  0  0  0  0  0  0  0  0  0
   26.2905  -21.0356   -7.6350 C   0  0  0  0  0  0  0  0  0  0  0  0
   25.0406  -21.1293   -7.6206 O   0  0  0  0  0  0  0  0  0  0  0  0
   27.0191  -21.6561   -6.6433 O   0  0  0  0  0  0  0  0  0  0  0  0
  2 10  1  0
  2  1  1  6
  3  2  1  0
  4  3  1  0
  5  4  2  0
  6  5  1  0
  7  8  1  0
  7  6  2  0
  8  9  2  0
  9  4  1  0
 10 11  2  0
 13 12  1  1
 13 14  1  0
 15 13  1  0
 15 16  1  6
 16 10  1  0
 17 18  2  0
 17 15  1  0
 20 19  1  1
 20 21  1  0
 20 22  1  0
 22 23  1  6
 23 17  1  0
 24 26  1  0
 24 22  1  0
 25 24  2  0
M  END
$$$$
