FVV.pdb
     RDKit          3D

 26 26  0  0  1  0  0  0  0  0999 V2000
   23.9191  -22.1667  -12.5765 N   0  0  0  0  0  0  0  0  0  0  0  0
   24.5113  -20.9359  -12.1030 C   0  0  1  0  0  0  0  0  0  0  0  0
   23.4268  -19.9914  -11.6606 C   0  0  0  0  0  0  0  0  0  0  0  0
   22.7572  -19.4221  -12.8516 C   0  0  0  0  0  0  0  0  0  0  0  0
   23.5026  -18.6295  -13.6902 C   0  0  0  0  0  0  0  0  0  0  0  0
   22.9503  -18.0672  -14.8125 C   0  0  0  0  0  0  0  0  0  0  0  0
   21.6165  -18.3222  -15.0763 C   0  0  0  0  0  0  0  0  0  0  0  0
   20.8727  -19.1117  -14.2420 C   0  0  0  0  0  0  0  0  0  0  0  0
   21.4205  -19.6756  -13.1192 C   0  0  0  0  0  0  0  0  0  0  0  0
   25.4526  -21.2203  -10.9909 C   0  0  0  0  0  0  0  0  0  0  0  0
   25.1007  -21.9703  -10.0461 O   0  0  0  0  0  0  0  0  0  0  0  0
   29.9852  -21.3509   -9.1408 C   0  0  0  0  0  0  0  0  0  0  0  0
   29.1186  -20.9356  -10.2849 C   0  0  1  0  0  0  0  0  0  0  0  0
   29.3551  -21.7927  -11.5021 C   0  0  0  0  0  0  0  0  0  0  0  0
   27.6602  -20.9302   -9.8613 C   0  0  2  0  0  0  0  0  0  0  0  0
   26.7633  -20.6735  -10.9400 N   0  0  0  0  0  0  0  0  0  0  0  0
   27.4295  -20.0616   -8.6812 C   0  0  0  0  0  0  0  0  0  0  0  0
   26.9809  -18.8947   -8.7462 O   0  0  0  0  0  0  0  0  0  0  0  0
   25.7801  -21.4279   -5.6607 C   0  0  0  0  0  0  0  0  0  0  0  0
   26.9760  -20.6942   -5.1275 C   0  0  1  0  0  0  0  0  0  0  0  0
   28.0971  -21.5835   -4.6937 C   0  0  0  0  0  0  0  0  0  0  0  0
   27.5274  -19.7419   -6.1938 C   0  0  2  0  0  0  0  0  0  0  0  0
   27.7241  -20.5505   -7.3784 N   0  0  0  0  0  0  0  0  0  0  0  0
   28.7455  -19.0609   -5.7678 C   0  0  0  0  0  0  0  0  0  0  0  0
   28.6731  -18.0738   -4.9985 O   0  0  0  0  0  0  0  0  0  0  0  0
   29.9848  -19.4843   -6.1973 O   0  0  0  0  0  0  0  0  0  0  0  0
  2 10  1  0
  2  1  1  1
  3  2  1  0
  4  3  1  0
  5  4  2  0
  6  5  1  0
  7  8  1  0
  7  6  2  0
  8  9  2  0
  9  4  1  0
 10 11  2  0
 13 12  1  1
 13 14  1  0
 15 13  1  0
 15 16  1  6
 16 10  1  0
 17 18  2  0
 17 15  1  0
 20 19  1  6
 20 21  1  0
 20 22  1  0
 22 23  1  6
 23 17  1  0
 24 26  1  0
 24 22  1  0
 25 24  2  0
M  END
$$$$
