WAI.pdb
     RDKit          3D

 28 29  0  0  1  0  0  0  0  0999 V2000
    6.2128  -18.1098   23.9412 N   0  0  0  0  0  0  0  0  0  0  0  0
    7.1633  -17.0395   24.0411 C   0  0  1  0  0  0  0  0  0  0  0  0
    7.2752  -16.4871   25.4398 C   0  0  0  0  0  0  0  0  0  0  0  0
    6.5239  -15.2497   25.6538 C   0  0  0  0  0  0  0  0  0  0  0  0
    5.2145  -15.1458   26.0574 C   0  0  0  0  0  0  0  0  0  0  0  0
    4.9209  -13.8452   26.1284 N   0  0  0  0  0  0  0  0  0  0  0  0
    5.9936  -13.1133   25.7851 C   0  0  0  0  0  0  0  0  0  0  0  0
    6.1715  -11.7324   25.7089 C   0  0  0  0  0  0  0  0  0  0  0  0
    7.4072  -11.2627   25.3193 C   0  0  0  0  0  0  0  0  0  0  0  0
    8.4323  -12.1238   25.0154 C   0  0  0  0  0  0  0  0  0  0  0  0
    8.2709  -13.4889   25.0862 C   0  0  0  0  0  0  0  0  0  0  0  0
    7.0170  -13.9759   25.4816 C   0  0  0  0  0  0  0  0  0  0  0  0
    8.5214  -17.4235   23.5968 C   0  0  0  0  0  0  0  0  0  0  0  0
    8.8624  -18.6245   23.8195 O   0  0  0  0  0  0  0  0  0  0  0  0
   11.4400  -15.8236   21.9314 C   0  0  0  0  0  0  0  0  0  0  0  0
   10.7907  -16.8757   22.8422 C   0  0  2  0  0  0  0  0  0  0  0  0
    9.4141  -16.5294   22.9578 N   0  0  0  0  0  0  0  0  0  0  0  0
   11.5266  -16.8010   24.1269 C   0  0  0  0  0  0  0  0  0  0  0  0
   12.7327  -17.1482   24.1368 O   0  0  0  0  0  0  0  0  0  0  0  0
    9.7194  -13.6174   28.5539 C   0  0  0  0  0  0  0  0  0  0  0  0
    9.8916  -14.9202   27.7795 C   0  0  0  0  0  0  0  0  0  0  0  0
   11.3324  -14.9777   27.3317 C   0  0  2  0  0  0  0  0  0  0  0  0
   11.5908  -13.7635   26.4696 C   0  0  0  0  0  0  0  0  0  0  0  0
   11.6586  -16.2341   26.5850 C   0  0  2  0  0  0  0  0  0  0  0  0
   10.9493  -16.3612   25.3429 N   0  0  0  0  0  0  0  0  0  0  0  0
   11.3131  -17.3937   27.4430 C   0  0  0  0  0  0  0  0  0  0  0  0
   10.4156  -18.2243   27.1310 O   0  0  0  0  0  0  0  0  0  0  0  0
   11.9795  -17.6036   28.6373 O   0  0  0  0  0  0  0  0  0  0  0  0
  2  1  1  1
  2  3  1  0
  2 13  1  0
  4  3  1  0
  4  5  2  0
  6  5  1  0
  7  6  1  0
  8  7  2  0
  9  8  1  0
 10  9  2  0
 10 11  1  0
 11 12  2  0
 12  7  1  0
 12  4  1  0
 13 14  2  0
 13 17  1  0
 16 15  1  6
 17 16  1  0
 18 19  2  0
 18 16  1  0
 20 21  1  0
 21 22  1  0
 22 23  1  6
 24 22  1  0
 24 25  1  6
 25 18  1  0
 26 24  1  0
 27 26  2  0
 28 26  1  0
M  END
$$$$
