WAI.pdb
     RDKit          3D

 28 29  0  0  1  0  0  0  0  0999 V2000
    6.2969  -18.1823   23.0454 N   0  0  0  0  0  0  0  0  0  0  0  0
    7.2367  -17.1828   23.4662 C   0  0  1  0  0  0  0  0  0  0  0  0
    7.2370  -16.9742   24.9597 C   0  0  0  0  0  0  0  0  0  0  0  0
    6.5289  -15.7691   25.3932 C   0  0  0  0  0  0  0  0  0  0  0  0
    5.2271  -15.6953   25.8271 C   0  0  0  0  0  0  0  0  0  0  0  0
    4.9773  -14.4178   26.1240 N   0  0  0  0  0  0  0  0  0  0  0  0
    6.0707  -13.6715   25.8962 C   0  0  0  0  0  0  0  0  0  0  0  0
    6.2936  -12.3043   26.0553 C   0  0  0  0  0  0  0  0  0  0  0  0
    7.5407  -11.8134   25.7347 C   0  0  0  0  0  0  0  0  0  0  0  0
    8.5341  -12.6410   25.2732 C   0  0  0  0  0  0  0  0  0  0  0  0
    8.3284  -13.9922   25.1113 C   0  0  0  0  0  0  0  0  0  0  0  0
    7.0624  -14.5006   25.4350 C   0  0  0  0  0  0  0  0  0  0  0  0
    8.6258  -17.4782   23.0509 C   0  0  0  0  0  0  0  0  0  0  0  0
    9.0259  -18.6657   23.2464 O   0  0  0  0  0  0  0  0  0  0  0  0
   11.5228  -15.6397   21.6087 C   0  0  0  0  0  0  0  0  0  0  0  0
   10.8935  -16.7302   22.4879 C   0  0  2  0  0  0  0  0  0  0  0  0
    9.4855  -16.5168   22.4668 N   0  0  0  0  0  0  0  0  0  0  0  0
   11.4953  -16.5567   23.8316 C   0  0  0  0  0  0  0  0  0  0  0  0
   12.7255  -16.7706   23.9591 O   0  0  0  0  0  0  0  0  0  0  0  0
   10.7335  -13.0447   28.7452 C   0  0  0  0  0  0  0  0  0  0  0  0
   11.3597  -14.3459   28.2538 C   0  0  0  0  0  0  0  0  0  0  0  0
   10.7636  -14.6351   26.8970 C   0  0  2  0  0  0  0  0  0  0  0  0
    9.2715  -14.7933   27.0787 C   0  0  0  0  0  0  0  0  0  0  0  0
   11.3490  -15.8540   26.2535 C   0  0  2  0  0  0  0  0  0  0  0  0
   10.7643  -16.1642   24.9792 N   0  0  0  0  0  0  0  0  0  0  0  0
   11.1396  -17.0098   27.1593 C   0  0  0  0  0  0  0  0  0  0  0  0
   10.3350  -17.9443   26.8910 O   0  0  0  0  0  0  0  0  0  0  0  0
   11.8360  -17.0995   28.3517 O   0  0  0  0  0  0  0  0  0  0  0  0
  2  1  1  1
  2  3  1  0
  2 13  1  0
  4  3  1  0
  4  5  2  0
  6  5  1  0
  7  6  1  0
  8  7  2  0
  9  8  1  0
 10  9  2  0
 10 11  1  0
 11 12  2  0
 12  7  1  0
 12  4  1  0
 13 14  2  0
 13 17  1  0
 16 15  1  6
 17 16  1  0
 18 19  2  0
 18 16  1  0
 20 21  1  0
 21 22  1  0
 22 23  1  1
 24 22  1  0
 24 25  1  6
 25 18  1  0
 26 24  1  0
 27 26  2  0
 28 26  1  0
M  END
$$$$
