WAI.pdb
     RDKit          3D

 28 29  0  0  1  0  0  0  0  0999 V2000
    6.1780  -18.7580   23.9399 N   0  0  0  0  0  0  0  0  0  0  0  0
    6.9748  -17.5660   23.8825 C   0  0  1  0  0  0  0  0  0  0  0  0
    6.5551  -16.5342   24.8991 C   0  0  0  0  0  0  0  0  0  0  0  0
    7.1104  -15.2016   24.6598 C   0  0  0  0  0  0  0  0  0  0  0  0
    7.9050  -14.8226   23.6046 C   0  0  0  0  0  0  0  0  0  0  0  0
    8.1912  -13.5284   23.7654 N   0  0  0  0  0  0  0  0  0  0  0  0
    7.6095  -13.0654   24.8841 C   0  0  0  0  0  0  0  0  0  0  0  0
    7.6196  -11.7962   25.4614 C   0  0  0  0  0  0  0  0  0  0  0  0
    6.9178  -11.6163   26.6338 C   0  0  0  0  0  0  0  0  0  0  0  0
    6.2298  -12.6511   27.2172 C   0  0  0  0  0  0  0  0  0  0  0  0
    6.2111  -13.9089   26.6586 C   0  0  0  0  0  0  0  0  0  0  0  0
    6.9223  -14.1013   25.4657 C   0  0  0  0  0  0  0  0  0  0  0  0
    8.4201  -17.8221   24.0687 C   0  0  0  0  0  0  0  0  0  0  0  0
    8.7242  -18.7017   24.9303 O   0  0  0  0  0  0  0  0  0  0  0  0
   11.6001  -16.7799   22.4407 C   0  0  0  0  0  0  0  0  0  0  0  0
   10.7900  -17.5415   23.5000 C   0  0  2  0  0  0  0  0  0  0  0  0
    9.4311  -17.1444   23.3455 N   0  0  0  0  0  0  0  0  0  0  0  0
   11.3728  -17.1506   24.8058 C   0  0  0  0  0  0  0  0  0  0  0  0
   12.5535  -17.4977   25.0524 O   0  0  0  0  0  0  0  0  0  0  0  0
    9.0959  -13.1074   28.2768 C   0  0  0  0  0  0  0  0  0  0  0  0
    9.3496  -14.5387   27.8146 C   0  0  0  0  0  0  0  0  0  0  0  0
   10.8191  -14.6390   27.4828 C   0  0  2  0  0  0  0  0  0  0  0  0
   11.1092  -13.6371   26.3891 C   0  0  0  0  0  0  0  0  0  0  0  0
   11.2257  -16.0163   27.0581 C   0  0  2  0  0  0  0  0  0  0  0  0
   10.6762  -16.4092   25.7909 N   0  0  0  0  0  0  0  0  0  0  0  0
   10.7662  -16.9802   28.0876 C   0  0  0  0  0  0  0  0  0  0  0  0
    9.8898  -17.8573   27.8520 O   0  0  0  0  0  0  0  0  0  0  0  0
   11.2967  -16.9455   29.3651 O   0  0  0  0  0  0  0  0  0  0  0  0
  2  1  1  1
  2  3  1  0
  2 13  1  0
  4  3  1  0
  4  5  2  0
  6  5  1  0
  7  6  1  0
  8  7  2  0
  9  8  1  0
 10  9  2  0
 10 11  1  0
 11 12  2  0
 12  7  1  0
 12  4  1  0
 13 14  2  0
 13 17  1  0
 16 15  1  6
 17 16  1  0
 18 19  2  0
 18 16  1  0
 20 21  1  0
 21 22  1  0
 22 23  1  6
 24 22  1  0
 24 25  1  6
 25 18  1  0
 26 24  1  0
 27 26  2  0
 28 26  1  0
M  END
$$$$
