WAI.pdb
     RDKit          3D

 28 29  0  0  1  0  0  0  0  0999 V2000
    6.3153  -18.5805   23.8100 N   0  0  0  0  0  0  0  0  0  0  0  0
    7.1672  -17.4342   23.9495 C   0  0  1  0  0  0  0  0  0  0  0  0
    7.2797  -16.9611   25.3770 C   0  0  0  0  0  0  0  0  0  0  0  0
    6.6305  -15.6746   25.6313 C   0  0  0  0  0  0  0  0  0  0  0  0
    5.3727  -15.4800   26.1496 C   0  0  0  0  0  0  0  0  0  0  0  0
    5.1692  -14.1622   26.2187 N   0  0  0  0  0  0  0  0  0  0  0  0
    6.2497  -13.5066   25.7639 C   0  0  0  0  0  0  0  0  0  0  0  0
    6.5063  -12.1414   25.6421 C   0  0  0  0  0  0  0  0  0  0  0  0
    7.7281  -11.7587   25.1321 C   0  0  0  0  0  0  0  0  0  0  0  0
    8.6648  -12.6889   24.7552 C   0  0  0  0  0  0  0  0  0  0  0  0
    8.4252  -14.0394   24.8698 C   0  0  0  0  0  0  0  0  0  0  0  0
    7.1848  -14.4381   25.3877 C   0  0  0  0  0  0  0  0  0  0  0  0
    8.5374  -17.6615   23.4394 C   0  0  0  0  0  0  0  0  0  0  0  0
    8.9949  -18.8367   23.5738 O   0  0  0  0  0  0  0  0  0  0  0  0
   11.2542  -15.7017   21.8237 C   0  0  0  0  0  0  0  0  0  0  0  0
   10.7326  -16.8128   22.7465 C   0  0  2  0  0  0  0  0  0  0  0  0
    9.3202  -16.6503   22.8316 N   0  0  0  0  0  0  0  0  0  0  0  0
   11.4270  -16.6158   24.0412 C   0  0  0  0  0  0  0  0  0  0  0  0
   12.6754  -16.7435   24.0665 O   0  0  0  0  0  0  0  0  0  0  0  0
    9.0234  -13.8017   28.4251 C   0  0  0  0  0  0  0  0  0  0  0  0
    9.4301  -15.0479   27.6451 C   0  0  0  0  0  0  0  0  0  0  0  0
   10.8724  -14.8609   27.2398 C   0  0  2  0  0  0  0  0  0  0  0  0
   10.9489  -13.6150   26.3876 C   0  0  0  0  0  0  0  0  0  0  0  0
   11.4254  -16.0403   26.5009 C   0  0  2  0  0  0  0  0  0  0  0  0
   10.7653  -16.2922   25.2507 N   0  0  0  0  0  0  0  0  0  0  0  0
   11.2803  -17.2419   27.3583 C   0  0  0  0  0  0  0  0  0  0  0  0
   11.8647  -17.3554   28.4711 O   0  0  0  0  0  0  0  0  0  0  0  0
   10.4820  -18.2975   26.9542 O   0  0  0  0  0  0  0  0  0  0  0  0
  2  1  1  1
  2  3  1  0
  2 13  1  0
  4  3  1  0
  4  5  2  0
  6  5  1  0
  7  6  1  0
  8  7  2  0
  9  8  1  0
 10  9  2  0
 10 11  1  0
 11 12  2  0
 12  7  1  0
 12  4  1  0
 13 14  2  0
 13 17  1  0
 16 15  1  6
 17 16  1  0
 18 19  2  0
 18 16  1  0
 20 21  1  0
 21 22  1  0
 22 23  1  6
 24 22  1  0
 24 25  1  6
 25 18  1  0
 26 24  1  0
 27 26  2  0
 28 26  1  0
M  END
$$$$
