WAI.pdb
     RDKit          3D

 28 29  0  0  1  0  0  0  0  0999 V2000
    7.4620  -17.8971   20.6865 N   0  0  0  0  0  0  0  0  0  0  0  0
    7.8468  -16.8571   21.5973 C   0  0  1  0  0  0  0  0  0  0  0  0
    6.6891  -15.9810   22.0052 C   0  0  0  0  0  0  0  0  0  0  0  0
    7.0777  -14.6282   22.4055 C   0  0  0  0  0  0  0  0  0  0  0  0
    7.8686  -13.7586   21.6937 C   0  0  0  0  0  0  0  0  0  0  0  0
    7.9754  -12.6378   22.4114 N   0  0  0  0  0  0  0  0  0  0  0  0
    7.2825  -12.7580   23.5558 C   0  0  0  0  0  0  0  0  0  0  0  0
    7.0981  -11.8649   24.6107 C   0  0  0  0  0  0  0  0  0  0  0  0
    6.3205  -12.2740   25.6724 C   0  0  0  0  0  0  0  0  0  0  0  0
    5.7442  -13.5199   25.6940 C   0  0  0  0  0  0  0  0  0  0  0  0
    5.9177  -14.4115   24.6599 C   0  0  0  0  0  0  0  0  0  0  0  0
    6.7074  -14.0040   23.5754 C   0  0  0  0  0  0  0  0  0  0  0  0
    8.4825  -17.3695   22.8313 C   0  0  0  0  0  0  0  0  0  0  0  0
    7.7023  -17.8852   23.6879 O   0  0  0  0  0  0  0  0  0  0  0  0
   11.6832  -18.6655   23.8076 C   0  0  0  0  0  0  0  0  0  0  0  0
   10.4131  -17.9194   24.2417 C   0  0  2  0  0  0  0  0  0  0  0  0
    9.8757  -17.3046   23.0748 N   0  0  0  0  0  0  0  0  0  0  0  0
   10.8529  -16.9467   25.2702 C   0  0  0  0  0  0  0  0  0  0  0  0
   11.6915  -16.0743   24.9368 O   0  0  0  0  0  0  0  0  0  0  0  0
    9.2027  -12.8555   27.7105 C   0  0  0  0  0  0  0  0  0  0  0  0
   10.1381  -13.9206   27.1472 C   0  0  0  0  0  0  0  0  0  0  0  0
   10.1727  -15.0491   28.1496 C   0  0  2  0  0  0  0  0  0  0  0  0
   10.7249  -14.4941   29.4424 C   0  0  0  0  0  0  0  0  0  0  0  0
   10.9899  -16.2144   27.6840 C   0  0  2  0  0  0  0  0  0  0  0  0
   10.3830  -16.9438   26.6061 N   0  0  0  0  0  0  0  0  0  0  0  0
   11.1820  -17.1401   28.8269 C   0  0  0  0  0  0  0  0  0  0  0  0
   10.4488  -18.1506   29.0115 O   0  0  0  0  0  0  0  0  0  0  0  0
   12.1933  -16.9181   29.7449 O   0  0  0  0  0  0  0  0  0  0  0  0
  2  1  1  6
  2  3  1  0
  2 13  1  0
  4  3  1  0
  4  5  2  0
  6  5  1  0
  7  6  1  0
  8  7  2  0
  9  8  1  0
 10  9  2  0
 10 11  1  0
 11 12  2  0
 12  7  1  0
 12  4  1  0
 13 14  2  0
 13 17  1  0
 16 15  1  6
 17 16  1  0
 18 19  2  0
 18 16  1  0
 20 21  1  0
 21 22  1  0
 22 23  1  1
 24 22  1  0
 24 25  1  6
 25 18  1  0
 26 24  1  0
 27 26  2  0
 28 26  1  0
M  END
$$$$
