WAI.pdb
     RDKit          3D

 28 29  0  0  1  0  0  0  0  0999 V2000
    6.5776  -18.4320   23.4051 N   0  0  0  0  0  0  0  0  0  0  0  0
    7.3270  -17.2659   23.7761 C   0  0  1  0  0  0  0  0  0  0  0  0
    7.1953  -16.9290   25.2401 C   0  0  0  0  0  0  0  0  0  0  0  0
    6.3704  -15.7505   25.5085 C   0  0  0  0  0  0  0  0  0  0  0  0
    5.1783  -15.7232   26.1915 C   0  0  0  0  0  0  0  0  0  0  0  0
    4.7582  -14.4560   26.2104 N   0  0  0  0  0  0  0  0  0  0  0  0
    5.6371  -13.6716   25.5650 C   0  0  0  0  0  0  0  0  0  0  0  0
    5.6322  -12.2979   25.3256 C   0  0  0  0  0  0  0  0  0  0  0  0
    6.6892  -11.7630   24.6216 C   0  0  0  0  0  0  0  0  0  0  0  0
    7.7158  -12.5542   24.1690 C   0  0  0  0  0  0  0  0  0  0  0  0
    7.7338  -13.9113   24.3979 C   0  0  0  0  0  0  0  0  0  0  0  0
    6.6623  -14.4644   25.1134 C   0  0  0  0  0  0  0  0  0  0  0  0
    8.7695  -17.3777   23.4661 C   0  0  0  0  0  0  0  0  0  0  0  0
    9.3125  -18.4923   23.7328 O   0  0  0  0  0  0  0  0  0  0  0  0
   11.4675  -15.1857   22.1259 C   0  0  0  0  0  0  0  0  0  0  0  0
   10.9506  -16.4190   22.8809 C   0  0  2  0  0  0  0  0  0  0  0  0
    9.5298  -16.3235   22.9047 N   0  0  0  0  0  0  0  0  0  0  0  0
   11.5679  -16.3511   24.2270 C   0  0  0  0  0  0  0  0  0  0  0  0
   12.8208  -16.3480   24.3019 O   0  0  0  0  0  0  0  0  0  0  0  0
    9.5840  -13.3897   28.5289 C   0  0  0  0  0  0  0  0  0  0  0  0
   10.6385  -13.9826   27.5999 C   0  0  0  0  0  0  0  0  0  0  0  0
   10.5462  -15.4838   27.7322 C   0  0  2  0  0  0  0  0  0  0  0  0
   10.9417  -15.8422   29.1463 C   0  0  0  0  0  0  0  0  0  0  0  0
   11.4074  -16.2078   26.7439 C   0  0  2  0  0  0  0  0  0  0  0  0
   10.8277  -16.2898   25.4327 N   0  0  0  0  0  0  0  0  0  0  0  0
   11.6372  -17.5860   27.2419 C   0  0  0  0  0  0  0  0  0  0  0  0
   12.3518  -17.8311   28.2529 O   0  0  0  0  0  0  0  0  0  0  0  0
   11.0621  -18.6675   26.5984 O   0  0  0  0  0  0  0  0  0  0  0  0
  2  1  1  1
  2  3  1  0
  2 13  1  0
  4  3  1  0
  4  5  2  0
  6  5  1  0
  7  6  1  0
  8  7  2  0
  9  8  1  0
 10  9  2  0
 10 11  1  0
 11 12  2  0
 12  7  1  0
 12  4  1  0
 13 14  2  0
 13 17  1  0
 16 15  1  6
 17 16  1  0
 18 19  2  0
 18 16  1  0
 20 21  1  0
 21 22  1  0
 22 23  1  1
 24 22  1  0
 24 25  1  6
 25 18  1  0
 26 24  1  0
 27 26  2  0
 28 26  1  0
M  END
$$$$
