WAI.pdb
     RDKit          3D

 28 29  0  0  1  0  0  0  0  0999 V2000
    6.4112  -18.2443   23.9529 N   0  0  0  0  0  0  0  0  0  0  0  0
    7.2886  -17.1246   24.1416 C   0  0  1  0  0  0  0  0  0  0  0  0
    7.2713  -16.6017   25.5560 C   0  0  0  0  0  0  0  0  0  0  0  0
    6.4317  -15.4180   25.7435 C   0  0  0  0  0  0  0  0  0  0  0  0
    5.2563  -15.3513   26.4523 C   0  0  0  0  0  0  0  0  0  0  0  0
    4.8134  -14.0942   26.3731 N   0  0  0  0  0  0  0  0  0  0  0  0
    5.6616  -13.3543   25.6401 C   0  0  0  0  0  0  0  0  0  0  0  0
    5.6254  -12.0067   25.2837 C   0  0  0  0  0  0  0  0  0  0  0  0
    6.6548  -11.5175   24.5090 C   0  0  0  0  0  0  0  0  0  0  0  0
    7.6845  -12.3280   24.0996 C   0  0  0  0  0  0  0  0  0  0  0  0
    7.7332  -13.6597   24.4438 C   0  0  0  0  0  0  0  0  0  0  0  0
    6.6899  -14.1663   25.2318 C   0  0  0  0  0  0  0  0  0  0  0  0
    8.6942  -17.4199   23.7861 C   0  0  0  0  0  0  0  0  0  0  0  0
    9.0954  -18.5982   24.0294 O   0  0  0  0  0  0  0  0  0  0  0  0
   11.5960  -15.6227   22.2970 C   0  0  0  0  0  0  0  0  0  0  0  0
   10.9569  -16.7645   23.1009 C   0  0  2  0  0  0  0  0  0  0  0  0
    9.5679  -16.4681   23.2072 N   0  0  0  0  0  0  0  0  0  0  0  0
   11.6584  -16.7751   24.4068 C   0  0  0  0  0  0  0  0  0  0  0  0
   12.8536  -17.1575   24.4313 O   0  0  0  0  0  0  0  0  0  0  0  0
   10.3357  -13.5174   28.8740 C   0  0  0  0  0  0  0  0  0  0  0  0
   10.2264  -14.7726   28.0141 C   0  0  0  0  0  0  0  0  0  0  0  0
   11.6358  -15.2221   27.7122 C   0  0  2  0  0  0  0  0  0  0  0  0
   12.3227  -14.1004   26.9677 C   0  0  0  0  0  0  0  0  0  0  0  0
   11.6830  -16.4899   26.9166 C   0  0  2  0  0  0  0  0  0  0  0  0
   11.0597  -16.3794   25.6277 N   0  0  0  0  0  0  0  0  0  0  0  0
   10.9879  -17.5521   27.6840 C   0  0  0  0  0  0  0  0  0  0  0  0
   11.3840  -17.9387   28.8182 O   0  0  0  0  0  0  0  0  0  0  0  0
    9.8595  -18.1641   27.1673 O   0  0  0  0  0  0  0  0  0  0  0  0
  2  1  1  1
  2  3  1  0
  2 13  1  0
  4  3  1  0
  4  5  2  0
  6  5  1  0
  7  6  1  0
  8  7  2  0
  9  8  1  0
 10  9  2  0
 10 11  1  0
 11 12  2  0
 12  7  1  0
 12  4  1  0
 13 14  2  0
 13 17  1  0
 16 15  1  6
 17 16  1  0
 18 19  2  0
 18 16  1  0
 20 21  1  0
 21 22  1  0
 22 23  1  6
 24 22  1  0
 24 25  1  6
 25 18  1  0
 26 24  1  0
 27 26  2  0
 28 26  1  0
M  END
$$$$
