WAI.pdb
     RDKit          3D

 28 29  0  0  1  0  0  0  0  0999 V2000
    6.2132  -18.0473   24.0389 N   0  0  0  0  0  0  0  0  0  0  0  0
    7.1844  -16.9968   24.1501 C   0  0  1  0  0  0  0  0  0  0  0  0
    7.3173  -16.4716   25.5574 C   0  0  0  0  0  0  0  0  0  0  0  0
    6.5247  -15.2703   25.8225 C   0  0  0  0  0  0  0  0  0  0  0  0
    5.2637  -15.2245   26.3667 C   0  0  0  0  0  0  0  0  0  0  0  0
    4.9061  -13.9400   26.4371 N   0  0  0  0  0  0  0  0  0  0  0  0
    5.8911  -13.1625   25.9581 C   0  0  0  0  0  0  0  0  0  0  0  0
    5.9805  -11.7771   25.8278 C   0  0  0  0  0  0  0  0  0  0  0  0
    7.1371  -11.2540   25.2912 C   0  0  0  0  0  0  0  0  0  0  0  0
    8.1701  -12.0678   24.8968 C   0  0  0  0  0  0  0  0  0  0  0  0
    8.0956  -13.4366   25.0195 C   0  0  0  0  0  0  0  0  0  0  0  0
    6.9225  -13.9778   25.5644 C   0  0  0  0  0  0  0  0  0  0  0  0
    8.5317  -17.3982   23.6884 C   0  0  0  0  0  0  0  0  0  0  0  0
    8.8270  -18.6237   23.8279 O   0  0  0  0  0  0  0  0  0  0  0  0
   11.4964  -15.8481   22.0721 C   0  0  0  0  0  0  0  0  0  0  0  0
   10.8254  -16.8835   22.9863 C   0  0  2  0  0  0  0  0  0  0  0  0
    9.4618  -16.4947   23.1200 N   0  0  0  0  0  0  0  0  0  0  0  0
   11.5785  -16.8375   24.2623 C   0  0  0  0  0  0  0  0  0  0  0  0
   12.8082  -17.0873   24.2308 O   0  0  0  0  0  0  0  0  0  0  0  0
    9.6190  -14.0454   28.8171 C   0  0  0  0  0  0  0  0  0  0  0  0
    9.8598  -15.2912   27.9706 C   0  0  0  0  0  0  0  0  0  0  0  0
   11.3263  -15.3013   27.6114 C   0  0  2  0  0  0  0  0  0  0  0  0
   11.6306  -14.0029   26.9002 C   0  0  0  0  0  0  0  0  0  0  0  0
   11.7070  -16.4718   26.7585 C   0  0  2  0  0  0  0  0  0  0  0  0
   10.9927  -16.5287   25.5141 N   0  0  0  0  0  0  0  0  0  0  0  0
   11.4280  -17.7159   27.5165 C   0  0  0  0  0  0  0  0  0  0  0  0
   10.5719  -18.5626   27.1384 O   0  0  0  0  0  0  0  0  0  0  0  0
   12.1135  -17.9910   28.6866 O   0  0  0  0  0  0  0  0  0  0  0  0
  2  1  1  1
  2  3  1  0
  2 13  1  0
  4  3  1  0
  4  5  2  0
  6  5  1  0
  7  6  1  0
  8  7  2  0
  9  8  1  0
 10  9  2  0
 10 11  1  0
 11 12  2  0
 12  7  1  0
 12  4  1  0
 13 14  2  0
 13 17  1  0
 16 15  1  6
 17 16  1  0
 18 19  2  0
 18 16  1  0
 20 21  1  0
 21 22  1  0
 22 23  1  6
 24 22  1  0
 24 25  1  6
 25 18  1  0
 26 24  1  0
 27 26  2  0
 28 26  1  0
M  END
$$$$
