WAI.pdb
     RDKit          3D

 28 29  0  0  1  0  0  0  0  0999 V2000
    6.5144  -18.9978   24.4471 N   0  0  0  0  0  0  0  0  0  0  0  0
    6.8857  -17.6145   24.3585 C   0  0  1  0  0  0  0  0  0  0  0  0
    6.8274  -16.9083   25.6897 C   0  0  0  0  0  0  0  0  0  0  0  0
    6.0943  -15.6422   25.6610 C   0  0  0  0  0  0  0  0  0  0  0  0
    4.7297  -15.4866   25.6151 C   0  0  0  0  0  0  0  0  0  0  0  0
    4.4779  -14.1754   25.6019 N   0  0  0  0  0  0  0  0  0  0  0  0
    5.6305  -13.4865   25.6376 C   0  0  0  0  0  0  0  0  0  0  0  0
    5.8750  -12.1137   25.6407 C   0  0  0  0  0  0  0  0  0  0  0  0
    7.1868  -11.6933   25.6828 C   0  0  0  0  0  0  0  0  0  0  0  0
    8.2219  -12.5942   25.7206 C   0  0  0  0  0  0  0  0  0  0  0  0
    7.9954  -13.9518   25.7180 C   0  0  0  0  0  0  0  0  0  0  0  0
    6.6639  -14.3889   25.6753 C   0  0  0  0  0  0  0  0  0  0  0  0
    8.2393  -17.4097   23.7971 C   0  0  0  0  0  0  0  0  0  0  0  0
    9.0693  -18.3500   23.9853 O   0  0  0  0  0  0  0  0  0  0  0  0
   10.0638  -14.7397   21.9449 C   0  0  0  0  0  0  0  0  0  0  0  0
    9.9673  -16.1019   22.6472 C   0  0  2  0  0  0  0  0  0  0  0  0
    8.6203  -16.2459   23.0865 N   0  0  0  0  0  0  0  0  0  0  0  0
   10.9467  -16.0486   23.7587 C   0  0  0  0  0  0  0  0  0  0  0  0
   12.1531  -15.8527   23.4731 O   0  0  0  0  0  0  0  0  0  0  0  0
   10.2901  -13.2949   28.3799 C   0  0  0  0  0  0  0  0  0  0  0  0
   10.9431  -13.9148   27.1486 C   0  0  0  0  0  0  0  0  0  0  0  0
   11.0319  -15.4009   27.3999 C   0  0  2  0  0  0  0  0  0  0  0  0
   11.9398  -15.6088   28.5902 C   0  0  0  0  0  0  0  0  0  0  0  0
   11.5361  -16.1614   26.2125 C   0  0  2  0  0  0  0  0  0  0  0  0
   10.6016  -16.2057   25.1231 N   0  0  0  0  0  0  0  0  0  0  0  0
   11.8293  -17.5526   26.6355 C   0  0  0  0  0  0  0  0  0  0  0  0
   11.0945  -18.5275   26.3156 O   0  0  0  0  0  0  0  0  0  0  0  0
   12.9419  -17.8285   27.4106 O   0  0  0  0  0  0  0  0  0  0  0  0
  2  1  1  1
  2  3  1  0
  2 13  1  0
  4  3  1  0
  4  5  2  0
  6  5  1  0
  7  6  1  0
  8  7  2  0
  9  8  1  0
 10  9  2  0
 10 11  1  0
 11 12  2  0
 12  7  1  0
 12  4  1  0
 13 14  2  0
 13 17  1  0
 16 15  1  1
 17 16  1  0
 18 19  2  0
 18 16  1  0
 20 21  1  0
 21 22  1  0
 22 23  1  1
 24 22  1  0
 24 25  1  6
 25 18  1  0
 26 24  1  0
 27 26  2  0
 28 26  1  0
M  END
$$$$
