WAI.pdb
     RDKit          3D

 28 29  0  0  1  0  0  0  0  0999 V2000
   11.1110  -17.5596   27.3232 N   0  0  0  0  0  0  0  0  0  0  0  0
    9.6761  -17.5595   27.3408 C   0  0  1  0  0  0  0  0  0  0  0  0
    9.0969  -16.2093   27.6807 C   0  0  0  0  0  0  0  0  0  0  0  0
    9.5826  -15.6534   28.9442 C   0  0  0  0  0  0  0  0  0  0  0  0
   10.0616  -14.3819   29.1495 C   0  0  0  0  0  0  0  0  0  0  0  0
   10.3980  -14.2854   30.4380 N   0  0  0  0  0  0  0  0  0  0  0  0
   10.1523  -15.4478   31.0646 C   0  0  0  0  0  0  0  0  0  0  0  0
   10.3374  -15.8266   32.3937 C   0  0  0  0  0  0  0  0  0  0  0  0
    9.9872  -17.1104   32.7523 C   0  0  0  0  0  0  0  0  0  0  0  0
    9.4723  -17.9906   31.8332 C   0  0  0  0  0  0  0  0  0  0  0  0
    9.2842  -17.6304   30.5182 C   0  0  0  0  0  0  0  0  0  0  0  0
    9.6377  -16.3262   30.1441 C   0  0  0  0  0  0  0  0  0  0  0  0
    9.0781  -17.9985   26.0605 C   0  0  0  0  0  0  0  0  0  0  0  0
    9.8861  -18.1762   25.0993 O   0  0  0  0  0  0  0  0  0  0  0  0
    5.7067  -18.8343   24.7258 C   0  0  0  0  0  0  0  0  0  0  0  0
    7.1719  -18.4019   24.5697 C   0  0  2  0  0  0  0  0  0  0  0  0
    7.6906  -18.2171   25.8831 N   0  0  0  0  0  0  0  0  0  0  0  0
    7.1373  -17.1545   23.7694 C   0  0  0  0  0  0  0  0  0  0  0  0
    6.7013  -17.2196   22.5942 O   0  0  0  0  0  0  0  0  0  0  0  0
    7.6180  -12.0336   26.2861 C   0  0  0  0  0  0  0  0  0  0  0  0
    8.1300  -13.2068   25.4564 C   0  0  0  0  0  0  0  0  0  0  0  0
    7.0807  -13.4956   24.4099 C   0  0  2  0  0  0  0  0  0  0  0  0
    5.7768  -13.7521   25.1300 C   0  0  0  0  0  0  0  0  0  0  0  0
    7.4376  -14.6573   23.5350 C   0  0  2  0  0  0  0  0  0  0  0  0
    7.5670  -15.8946   24.2524 N   0  0  0  0  0  0  0  0  0  0  0  0
    8.7301  -14.3641   22.8690 C   0  0  0  0  0  0  0  0  0  0  0  0
    9.7765  -15.0323   23.0957 O   0  0  0  0  0  0  0  0  0  0  0  0
    8.8289  -13.3263   21.9591 O   0  0  0  0  0  0  0  0  0  0  0  0
  2  1  1  6
  2  3  1  0
  2 13  1  0
  4  3  1  0
  4  5  2  0
  6  5  1  0
  7  6  1  0
  8  7  2  0
  9  8  1  0
 10  9  2  0
 10 11  1  0
 11 12  2  0
 12  7  1  0
 12  4  1  0
 13 14  2  0
 13 17  1  0
 16 15  1  1
 17 16  1  0
 18 19  2  0
 18 16  1  0
 20 21  1  0
 21 22  1  0
 22 23  1  1
 24 22  1  0
 24 25  1  1
 25 18  1  0
 26 24  1  0
 27 26  2  0
 28 26  1  0
M  END
$$$$
