WAI.pdb
     RDKit          3D

 28 29  0  0  1  0  0  0  0  0999 V2000
    7.8880  -16.1809   26.0358 N   0  0  0  0  0  0  0  0  0  0  0  0
    7.3924  -17.0253   24.9868 C   0  0  1  0  0  0  0  0  0  0  0  0
    6.3151  -16.3634   24.1648 C   0  0  0  0  0  0  0  0  0  0  0  0
    6.6276  -14.9900   23.7680 C   0  0  0  0  0  0  0  0  0  0  0  0
    7.2798  -14.5960   22.6243 C   0  0  0  0  0  0  0  0  0  0  0  0
    7.3594  -13.2635   22.6494 N   0  0  0  0  0  0  0  0  0  0  0  0
    6.7826  -12.7903   23.7663 C   0  0  0  0  0  0  0  0  0  0  0  0
    6.6212  -11.4849   24.2292 C   0  0  0  0  0  0  0  0  0  0  0  0
    5.9762  -11.3036   25.4334 C   0  0  0  0  0  0  0  0  0  0  0  0
    5.5063  -12.3716   26.1568 C   0  0  0  0  0  0  0  0  0  0  0  0
    5.6585  -13.6653   25.7123 C   0  0  0  0  0  0  0  0  0  0  0  0
    6.3136  -13.8594   24.4880 C   0  0  0  0  0  0  0  0  0  0  0  0
    8.4504  -17.4842   24.0598 C   0  0  0  0  0  0  0  0  0  0  0  0
    8.3364  -18.6708   23.6267 O   0  0  0  0  0  0  0  0  0  0  0  0
   11.7601  -16.2623   22.9121 C   0  0  0  0  0  0  0  0  0  0  0  0
   10.8661  -17.1841   23.7543 C   0  0  2  0  0  0  0  0  0  0  0  0
    9.5398  -16.6740   23.6584 N   0  0  0  0  0  0  0  0  0  0  0  0
   11.4195  -17.1311   25.1285 C   0  0  0  0  0  0  0  0  0  0  0  0
   12.6456  -17.3532   25.2796 O   0  0  0  0  0  0  0  0  0  0  0  0
    9.3771  -13.6194   28.8149 C   0  0  0  0  0  0  0  0  0  0  0  0
   10.4024  -14.3879   27.9872 C   0  0  0  0  0  0  0  0  0  0  0  0
   10.3950  -15.8114   28.4904 C   0  0  2  0  0  0  0  0  0  0  0  0
   10.9616  -15.8028   29.8916 C   0  0  0  0  0  0  0  0  0  0  0  0
   11.1733  -16.7417   27.6122 C   0  0  2  0  0  0  0  0  0  0  0  0
   10.6468  -16.8447   26.2801 N   0  0  0  0  0  0  0  0  0  0  0  0
   11.1586  -18.0912   28.2277 C   0  0  0  0  0  0  0  0  0  0  0  0
   10.3079  -18.9696   27.9153 O   0  0  0  0  0  0  0  0  0  0  0  0
   12.0981  -18.4345   29.1839 O   0  0  0  0  0  0  0  0  0  0  0  0
  2  1  1  1
  2  3  1  0
  2 13  1  0
  4  3  1  0
  4  5  2  0
  6  5  1  0
  7  6  1  0
  8  7  2  0
  9  8  1  0
 10  9  2  0
 10 11  1  0
 11 12  2  0
 12  7  1  0
 12  4  1  0
 13 14  2  0
 13 17  1  0
 16 15  1  6
 17 16  1  0
 18 19  2  0
 18 16  1  0
 20 21  1  0
 21 22  1  0
 22 23  1  1
 24 22  1  0
 24 25  1  6
 25 18  1  0
 26 24  1  0
 27 26  2  0
 28 26  1  0
M  END
$$$$
