WAI.pdb
     RDKit          3D

 28 29  0  0  1  0  0  0  0  0999 V2000
    6.4935  -18.6826   23.4132 N   0  0  0  0  0  0  0  0  0  0  0  0
    7.1165  -17.4465   23.7912 C   0  0  1  0  0  0  0  0  0  0  0  0
    6.6896  -16.9718   25.1574 C   0  0  0  0  0  0  0  0  0  0  0  0
    6.4553  -15.5297   25.2410 C   0  0  0  0  0  0  0  0  0  0  0  0
    5.7168  -14.8737   26.1963 C   0  0  0  0  0  0  0  0  0  0  0  0
    5.7564  -13.5711   25.9063 N   0  0  0  0  0  0  0  0  0  0  0  0
    6.4927  -13.3692   24.8012 C   0  0  0  0  0  0  0  0  0  0  0  0
    6.8172  -12.1961   24.1207 C   0  0  0  0  0  0  0  0  0  0  0  0
    7.6054  -12.3014   22.9952 C   0  0  0  0  0  0  0  0  0  0  0  0
    8.0584  -13.5204   22.5552 C   0  0  0  0  0  0  0  0  0  0  0  0
    7.7460  -14.6863   23.2167 C   0  0  0  0  0  0  0  0  0  0  0  0
    6.9444  -14.5888   24.3629 C   0  0  0  0  0  0  0  0  0  0  0  0
    8.5947  -17.5111   23.7767 C   0  0  0  0  0  0  0  0  0  0  0  0
    9.1135  -18.5362   24.3139 O   0  0  0  0  0  0  0  0  0  0  0  0
   11.4233  -15.4135   22.5578 C   0  0  0  0  0  0  0  0  0  0  0  0
   10.8289  -16.6049   23.3231 C   0  0  2  0  0  0  0  0  0  0  0  0
    9.4130  -16.5066   23.2059 N   0  0  0  0  0  0  0  0  0  0  0  0
   11.3154  -16.4675   24.7166 C   0  0  0  0  0  0  0  0  0  0  0  0
   12.5555  -16.4570   24.9102 O   0  0  0  0  0  0  0  0  0  0  0  0
   10.4492  -13.2377   27.8250 C   0  0  0  0  0  0  0  0  0  0  0  0
    9.3608  -14.2801   27.5898 C   0  0  0  0  0  0  0  0  0  0  0  0
    9.8934  -15.5953   28.1057 C   0  0  2  0  0  0  0  0  0  0  0  0
   10.4803  -15.3439   29.4756 C   0  0  0  0  0  0  0  0  0  0  0  0
   10.9164  -16.2039   27.1970 C   0  0  2  0  0  0  0  0  0  0  0  0
   10.4639  -16.3474   25.8417 N   0  0  0  0  0  0  0  0  0  0  0  0
   11.2682  -17.5472   27.7186 C   0  0  0  0  0  0  0  0  0  0  0  0
   11.9993  -17.7099   28.7344 O   0  0  0  0  0  0  0  0  0  0  0  0
   10.7946  -18.6868   27.0928 O   0  0  0  0  0  0  0  0  0  0  0  0
  2  1  1  1
  2  3  1  0
  2 13  1  0
  4  3  1  0
  4  5  2  0
  6  5  1  0
  7  6  1  0
  8  7  2  0
  9  8  1  0
 10  9  2  0
 10 11  1  0
 11 12  2  0
 12  7  1  0
 12  4  1  0
 13 14  2  0
 13 17  1  0
 16 15  1  6
 17 16  1  0
 18 19  2  0
 18 16  1  0
 20 21  1  0
 21 22  1  0
 22 23  1  1
 24 22  1  0
 24 25  1  6
 25 18  1  0
 26 24  1  0
 27 26  2  0
 28 26  1  0
M  END
$$$$
