WAI.pdb
     RDKit          3D

 28 29  0  0  1  0  0  0  0  0999 V2000
    6.0683  -18.2245   23.8815 N   0  0  0  0  0  0  0  0  0  0  0  0
    7.0245  -17.1736   24.0822 C   0  0  1  0  0  0  0  0  0  0  0  0
    7.1178  -16.7369   25.5226 C   0  0  0  0  0  0  0  0  0  0  0  0
    6.4931  -15.4418   25.7943 C   0  0  0  0  0  0  0  0  0  0  0  0
    5.2921  -15.2282   26.4271 C   0  0  0  0  0  0  0  0  0  0  0  0
    5.0926  -13.9087   26.4694 N   0  0  0  0  0  0  0  0  0  0  0  0
    6.1210  -13.2702   25.8872 C   0  0  0  0  0  0  0  0  0  0  0  0
    6.3603  -11.9104   25.6924 C   0  0  0  0  0  0  0  0  0  0  0  0
    7.5246  -11.5467   25.0510 C   0  0  0  0  0  0  0  0  0  0  0  0
    8.4222  -12.4902   24.6165 C   0  0  0  0  0  0  0  0  0  0  0  0
    8.1990  -13.8357   24.8019 C   0  0  0  0  0  0  0  0  0  0  0  0
    7.0170  -14.2151   25.4536 C   0  0  0  0  0  0  0  0  0  0  0  0
    8.3870  -17.5318   23.6295 C   0  0  0  0  0  0  0  0  0  0  0  0
    8.7450  -18.7313   23.8329 O   0  0  0  0  0  0  0  0  0  0  0  0
   11.2680  -15.8979   21.9388 C   0  0  0  0  0  0  0  0  0  0  0  0
   10.6468  -16.9409   22.8793 C   0  0  2  0  0  0  0  0  0  0  0  0
    9.2658  -16.6156   23.0028 N   0  0  0  0  0  0  0  0  0  0  0  0
   11.3952  -16.8257   24.1538 C   0  0  0  0  0  0  0  0  0  0  0  0
   12.5951  -17.1936   24.1686 O   0  0  0  0  0  0  0  0  0  0  0  0
    9.2820  -13.9823   28.7401 C   0  0  0  0  0  0  0  0  0  0  0  0
    9.6648  -15.2147   27.9268 C   0  0  0  0  0  0  0  0  0  0  0  0
   11.0543  -14.9715   27.3887 C   0  0  2  0  0  0  0  0  0  0  0  0
   11.0089  -13.7063   26.5632 C   0  0  0  0  0  0  0  0  0  0  0  0
   11.5692  -16.1162   26.5719 C   0  0  2  0  0  0  0  0  0  0  0  0
   10.8363  -16.3251   25.3549 N   0  0  0  0  0  0  0  0  0  0  0  0
   11.4841  -17.3516   27.3884 C   0  0  0  0  0  0  0  0  0  0  0  0
   10.7118  -18.3059   27.0956 O   0  0  0  0  0  0  0  0  0  0  0  0
   12.2665  -17.4975   28.5204 O   0  0  0  0  0  0  0  0  0  0  0  0
  2  1  1  1
  2  3  1  0
  2 13  1  0
  4  3  1  0
  4  5  2  0
  6  5  1  0
  7  6  1  0
  8  7  2  0
  9  8  1  0
 10  9  2  0
 10 11  1  0
 11 12  2  0
 12  7  1  0
 12  4  1  0
 13 14  2  0
 13 17  1  0
 16 15  1  6
 17 16  1  0
 18 19  2  0
 18 16  1  0
 20 21  1  0
 21 22  1  0
 22 23  1  6
 24 22  1  0
 24 25  1  6
 25 18  1  0
 26 24  1  0
 27 26  2  0
 28 26  1  0
M  END
$$$$
