WAI.pdb
     RDKit          3D

 28 29  0  0  1  0  0  0  0  0999 V2000
    6.2935  -18.3129   23.8228 N   0  0  0  0  0  0  0  0  0  0  0  0
    7.1354  -17.1581   23.9525 C   0  0  1  0  0  0  0  0  0  0  0  0
    7.1968  -16.6366   25.3661 C   0  0  0  0  0  0  0  0  0  0  0  0
    6.3364  -15.4786   25.6120 C   0  0  0  0  0  0  0  0  0  0  0  0
    5.1320  -15.4787   26.2735 C   0  0  0  0  0  0  0  0  0  0  0  0
    4.6783  -14.2230   26.2764 N   0  0  0  0  0  0  0  0  0  0  0  0
    5.5475  -13.4196   25.6413 C   0  0  0  0  0  0  0  0  0  0  0  0
    5.5106  -12.0481   25.3926 C   0  0  0  0  0  0  0  0  0  0  0  0
    6.5656  -11.4898   24.7037 C   0  0  0  0  0  0  0  0  0  0  0  0
    7.6206  -12.2563   24.2747 C   0  0  0  0  0  0  0  0  0  0  0  0
    7.6703  -13.6110   24.5131 C   0  0  0  0  0  0  0  0  0  0  0  0
    6.6013  -14.1878   25.2133 C   0  0  0  0  0  0  0  0  0  0  0  0
    8.5234  -17.3953   23.4977 C   0  0  0  0  0  0  0  0  0  0  0  0
    8.9973  -18.5483   23.7307 O   0  0  0  0  0  0  0  0  0  0  0  0
   11.2597  -15.4002   21.9418 C   0  0  0  0  0  0  0  0  0  0  0  0
   10.7134  -16.5998   22.7297 C   0  0  2  0  0  0  0  0  0  0  0  0
    9.3053  -16.4163   22.8384 N   0  0  0  0  0  0  0  0  0  0  0  0
   11.4134  -16.5721   24.0362 C   0  0  0  0  0  0  0  0  0  0  0  0
   12.6433  -16.8222   24.0519 O   0  0  0  0  0  0  0  0  0  0  0  0
    9.7119  -13.3416   28.2670 C   0  0  0  0  0  0  0  0  0  0  0  0
   10.6522  -13.9861   27.2535 C   0  0  0  0  0  0  0  0  0  0  0  0
   10.7033  -15.4600   27.5773 C   0  0  2  0  0  0  0  0  0  0  0  0
   11.3638  -15.6074   28.9288 C   0  0  0  0  0  0  0  0  0  0  0  0
   11.4358  -16.2567   26.5424 C   0  0  2  0  0  0  0  0  0  0  0  0
   10.7766  -16.2802   25.2669 N   0  0  0  0  0  0  0  0  0  0  0  0
   11.5658  -17.6520   27.0288 C   0  0  0  0  0  0  0  0  0  0  0  0
   10.5970  -18.4608   27.0348 O   0  0  0  0  0  0  0  0  0  0  0  0
   12.7801  -18.1183   27.5007 O   0  0  0  0  0  0  0  0  0  0  0  0
  2  1  1  1
  2  3  1  0
  2 13  1  0
  4  3  1  0
  4  5  2  0
  6  5  1  0
  7  6  1  0
  8  7  2  0
  9  8  1  0
 10  9  2  0
 10 11  1  0
 11 12  2  0
 12  7  1  0
 12  4  1  0
 13 14  2  0
 13 17  1  0
 16 15  1  6
 17 16  1  0
 18 19  2  0
 18 16  1  0
 20 21  1  0
 21 22  1  0
 22 23  1  1
 24 22  1  0
 24 25  1  6
 25 18  1  0
 26 24  1  0
 27 26  2  0
 28 26  1  0
M  END
$$$$
