NWD.pdb
     RDKit          3D

 31 32  0  0  1  0  0  0  0  0999 V2000
    8.3856  -16.6874   18.1769 N   0  0  0  0  0  0  0  0  0  0  0  0
    8.4776  -15.3602   18.7187 C   0  0  0  0  0  0  0  0  0  0  0  0
    8.2469  -14.4326   17.9445 O   0  0  0  0  0  0  0  0  0  0  0  0
    8.8281  -15.2154   20.1089 C   0  0  0  0  0  0  0  0  0  0  0  0
    9.0125  -16.4902   20.9033 C   0  0  2  0  0  0  0  0  0  0  0  0
    7.6544  -17.0902   20.9881 N   0  0  0  0  0  0  0  0  0  0  0  0
    9.4531  -16.2767   22.2903 C   0  0  0  0  0  0  0  0  0  0  0  0
   10.4753  -15.5420   22.4834 O   0  0  0  0  0  0  0  0  0  0  0  0
    8.8422  -16.8099   23.4350 N   0  0  0  0  0  0  0  0  0  0  0  0
    9.4213  -16.6172   24.7762 C   0  0  1  0  0  0  0  0  0  0  0  0
    8.3359  -16.5736   25.8240 C   0  0  0  0  0  0  0  0  0  0  0  0
    7.3756  -15.4720   25.6527 C   0  0  0  0  0  0  0  0  0  0  0  0
    6.0649  -15.6112   25.2766 C   0  0  0  0  0  0  0  0  0  0  0  0
    5.5075  -14.4066   25.2297 N   0  0  0  0  0  0  0  0  0  0  0  0
    6.3927  -13.4493   25.5607 C   0  0  0  0  0  0  0  0  0  0  0  0
    6.2681  -12.0825   25.6485 C   0  0  0  0  0  0  0  0  0  0  0  0
    7.3750  -11.3316   26.0227 C   0  0  0  0  0  0  0  0  0  0  0  0
    8.5642  -11.9861   26.2941 C   0  0  0  0  0  0  0  0  0  0  0  0
    8.6779  -13.3562   26.2031 C   0  0  0  0  0  0  0  0  0  0  0  0
    7.5815  -14.1216   25.8304 C   0  0  0  0  0  0  0  0  0  0  0  0
   10.2492  -17.8206   25.0498 C   0  0  0  0  0  0  0  0  0  0  0  0
   10.0904  -18.9030   24.4346 O   0  0  0  0  0  0  0  0  0  0  0  0
   11.2732  -17.8051   26.0329 N   0  0  0  0  0  0  0  0  0  0  0  0
   12.4072  -18.7619   25.9736 C   0  0  1  0  0  0  0  0  0  0  0  0
   13.4621  -18.2023   25.0533 C   0  0  0  0  0  0  0  0  0  0  0  0
   14.6523  -19.0523   25.0475 C   0  0  0  0  0  0  0  0  0  0  0  0
   14.7783  -20.0732   25.7538 O   0  0  0  0  0  0  0  0  0  0  0  0
   12.8986  -18.9556   27.3597 C   0  0  0  0  0  0  0  0  0  0  0  0
   13.3515  -20.0881   27.7431 O   0  0  0  0  0  0  0  0  0  0  0  0
   15.7636  -18.7686   24.2244 O   0  0  0  0  0  0  0  0  0  0  0  0
   12.8966  -17.9593   28.2845 O   0  0  0  0  0  0  0  0  0  0  0  0
  1  2  1  0
  2  3  2  0
  4  2  1  0
  4  5  1  0
  5  7  1  0
  5  6  1  1
  7  8  2  0
  9 10  1  0
  9  7  1  0
 10 11  1  1
 11 12  1  0
 12 13  2  0
 14 13  1  0
 15 14  1  0
 16 15  2  0
 17 16  1  0
 18 19  1  0
 18 17  2  0
 19 20  2  0
 20 15  1  0
 20 12  1  0
 21 22  2  0
 21 10  1  0
 23 21  1  0
 24 28  1  0
 24 23  1  0
 24 25  1  6
 26 25  1  0
 26 27  2  0
 28 31  1  0
 29 28  2  0
 30 26  1  0
M  END
$$$$
