NWD.pdb
     RDKit          3D

 31 32  0  0  1  0  0  0  0  0999 V2000
    7.9701  -16.0958   18.1009 N   0  0  0  0  0  0  0  0  0  0  0  0
    7.8376  -14.8053   18.7178 C   0  0  0  0  0  0  0  0  0  0  0  0
    7.3489  -13.9127   18.0268 O   0  0  0  0  0  0  0  0  0  0  0  0
    8.2803  -14.6538   20.0807 C   0  0  0  0  0  0  0  0  0  0  0  0
    8.8172  -15.8916   20.7662 C   0  0  2  0  0  0  0  0  0  0  0  0
    7.6355  -16.7773   20.9411 N   0  0  0  0  0  0  0  0  0  0  0  0
    9.3503  -15.6490   22.1154 C   0  0  0  0  0  0  0  0  0  0  0  0
   10.2227  -14.7315   22.2544 O   0  0  0  0  0  0  0  0  0  0  0  0
    8.9798  -16.3396   23.2788 N   0  0  0  0  0  0  0  0  0  0  0  0
    9.6436  -16.0839   24.5693 C   0  0  1  0  0  0  0  0  0  0  0  0
    8.6591  -16.2009   25.7073 C   0  0  0  0  0  0  0  0  0  0  0  0
    7.5739  -15.2080   25.6711 C   0  0  0  0  0  0  0  0  0  0  0  0
    6.2701  -15.4670   25.3365 C   0  0  0  0  0  0  0  0  0  0  0  0
    5.5793  -14.3356   25.4172 N   0  0  0  0  0  0  0  0  0  0  0  0
    6.3667  -13.3124   25.7951 C   0  0  0  0  0  0  0  0  0  0  0  0
    6.0939  -11.9813   26.0067 C   0  0  0  0  0  0  0  0  0  0  0  0
    7.1265  -11.1402   26.4009 C   0  0  0  0  0  0  0  0  0  0  0  0
    8.3936  -11.6722   26.5668 C   0  0  0  0  0  0  0  0  0  0  0  0
    8.6559  -13.0078   26.3520 C   0  0  0  0  0  0  0  0  0  0  0  0
    7.6353  -13.8620   25.9577 C   0  0  0  0  0  0  0  0  0  0  0  0
   10.6480  -17.1651   24.7432 C   0  0  0  0  0  0  0  0  0  0  0  0
   10.4103  -18.3612   24.4458 O   0  0  0  0  0  0  0  0  0  0  0  0
   11.9421  -16.8955   25.2608 N   0  0  0  0  0  0  0  0  0  0  0  0
   12.9158  -17.9908   25.4995 C   0  0  1  0  0  0  0  0  0  0  0  0
   14.3075  -17.4115   25.4776 C   0  0  0  0  0  0  0  0  0  0  0  0
   14.5684  -16.7303   24.2099 C   0  0  0  0  0  0  0  0  0  0  0  0
   15.2275  -15.6754   24.1129 O   0  0  0  0  0  0  0  0  0  0  0  0
   12.5737  -18.6140   26.8013 C   0  0  0  0  0  0  0  0  0  0  0  0
   11.6609  -18.1182   27.5466 O   0  0  0  0  0  0  0  0  0  0  0  0
   14.0809  -17.2315   22.9835 O   0  0  0  0  0  0  0  0  0  0  0  0
   13.1985  -19.7275   27.2681 O   0  0  0  0  0  0  0  0  0  0  0  0
  1  2  1  0
  2  3  2  0
  4  2  1  0
  4  5  1  0
  5  7  1  0
  5  6  1  1
  7  8  2  0
  9 10  1  0
  9  7  1  0
 10 11  1  1
 11 12  1  0
 12 13  2  0
 14 13  1  0
 15 14  1  0
 16 15  2  0
 17 16  1  0
 18 19  1  0
 18 17  2  0
 19 20  2  0
 20 15  1  0
 20 12  1  0
 21 22  2  0
 21 10  1  0
 23 21  1  0
 24 28  1  0
 24 23  1  0
 24 25  1  1
 26 25  1  0
 26 27  2  0
 28 31  1  0
 29 28  2  0
 30 26  1  0
M  END
$$$$
