NWD.pdb
     RDKit          3D

 31 32  0  0  1  0  0  0  0  0999 V2000
    6.6164  -13.4190   18.5830 N   0  0  0  0  0  0  0  0  0  0  0  0
    7.9606  -13.8493   18.8504 C   0  0  0  0  0  0  0  0  0  0  0  0
    8.6504  -14.1384   17.8738 O   0  0  0  0  0  0  0  0  0  0  0  0
    8.3957  -13.9093   20.2228 C   0  0  0  0  0  0  0  0  0  0  0  0
    8.9527  -15.2311   20.7057 C   0  0  2  0  0  0  0  0  0  0  0  0
    7.8320  -16.1974   20.5583 N   0  0  0  0  0  0  0  0  0  0  0  0
    9.3206  -15.2449   22.1297 C   0  0  0  0  0  0  0  0  0  0  0  0
   10.0713  -14.3100   22.5594 O   0  0  0  0  0  0  0  0  0  0  0  0
    8.9133  -16.2013   23.0716 N   0  0  0  0  0  0  0  0  0  0  0  0
    9.3632  -16.1403   24.4734 C   0  0  1  0  0  0  0  0  0  0  0  0
    8.2261  -16.4613   25.4125 C   0  0  0  0  0  0  0  0  0  0  0  0
    7.2504  -15.3718   25.5735 C   0  0  0  0  0  0  0  0  0  0  0  0
    5.8878  -15.5200   25.5845 C   0  0  0  0  0  0  0  0  0  0  0  0
    5.3331  -14.3251   25.7531 N   0  0  0  0  0  0  0  0  0  0  0  0
    6.2703  -13.3656   25.8574 C   0  0  0  0  0  0  0  0  0  0  0  0
    6.1678  -12.0061   26.0375 C   0  0  0  0  0  0  0  0  0  0  0  0
    7.3310  -11.2505   26.1104 C   0  0  0  0  0  0  0  0  0  0  0  0
    8.5519  -11.8931   25.9991 C   0  0  0  0  0  0  0  0  0  0  0  0
    8.6430  -13.2561   25.8188 C   0  0  0  0  0  0  0  0  0  0  0  0
    7.4905  -14.0260   25.7438 C   0  0  0  0  0  0  0  0  0  0  0  0
   10.3808  -17.2117   24.6318 C   0  0  0  0  0  0  0  0  0  0  0  0
   10.1186  -18.4246   24.4431 O   0  0  0  0  0  0  0  0  0  0  0  0
   11.7162  -16.9126   25.0092 N   0  0  0  0  0  0  0  0  0  0  0  0
   12.6620  -17.9890   25.3988 C   0  0  1  0  0  0  0  0  0  0  0  0
   14.0695  -17.5002   25.1685 C   0  0  0  0  0  0  0  0  0  0  0  0
   14.2123  -16.9373   23.8261 C   0  0  0  0  0  0  0  0  0  0  0  0
   14.0387  -17.5918   22.7781 O   0  0  0  0  0  0  0  0  0  0  0  0
   12.3954  -18.3227   26.8193 C   0  0  0  0  0  0  0  0  0  0  0  0
   13.1397  -17.8638   27.7521 O   0  0  0  0  0  0  0  0  0  0  0  0
   14.5643  -15.5856   23.6212 O   0  0  0  0  0  0  0  0  0  0  0  0
   11.3639  -19.1199   27.2043 O   0  0  0  0  0  0  0  0  0  0  0  0
  1  2  1  0
  2  3  2  0
  4  2  1  0
  4  5  1  0
  5  7  1  0
  5  6  1  1
  7  8  2  0
  9 10  1  0
  9  7  1  0
 10 11  1  1
 11 12  1  0
 12 13  2  0
 14 13  1  0
 15 14  1  0
 16 15  2  0
 17 16  1  0
 18 19  1  0
 18 17  2  0
 19 20  2  0
 20 15  1  0
 20 12  1  0
 21 22  2  0
 21 10  1  0
 23 21  1  0
 24 28  1  0
 24 23  1  0
 24 25  1  1
 26 25  1  0
 26 27  2  0
 28 31  1  0
 29 28  2  0
 30 26  1  0
M  END
$$$$
