NWD.pdb
     RDKit          3D

 31 32  0  0  1  0  0  0  0  0999 V2000
    7.9307  -16.6887   18.0104 N   0  0  0  0  0  0  0  0  0  0  0  0
    7.8006  -15.3465   18.5055 C   0  0  0  0  0  0  0  0  0  0  0  0
    7.3251  -14.5178   17.7308 O   0  0  0  0  0  0  0  0  0  0  0  0
    8.2302  -15.0738   19.8537 C   0  0  0  0  0  0  0  0  0  0  0  0
    8.7847  -16.2400   20.6430 C   0  0  2  0  0  0  0  0  0  0  0  0
    7.5987  -17.0659   20.9932 N   0  0  0  0  0  0  0  0  0  0  0  0
    9.4102  -15.8599   21.9189 C   0  0  0  0  0  0  0  0  0  0  0  0
   10.3695  -15.0228   21.8853 O   0  0  0  0  0  0  0  0  0  0  0  0
    9.0412  -16.3362   23.1857 N   0  0  0  0  0  0  0  0  0  0  0  0
    9.7813  -15.9472   24.3991 C   0  0  1  0  0  0  0  0  0  0  0  0
    8.9195  -16.1171   25.6263 C   0  0  0  0  0  0  0  0  0  0  0  0
    7.6996  -15.2943   25.6259 C   0  0  0  0  0  0  0  0  0  0  0  0
    6.4308  -15.7538   25.3857 C   0  0  0  0  0  0  0  0  0  0  0  0
    5.5869  -14.7319   25.4713 N   0  0  0  0  0  0  0  0  0  0  0  0
    6.2359  -13.5898   25.7615 C   0  0  0  0  0  0  0  0  0  0  0  0
    5.7831  -12.3042   25.9437 C   0  0  0  0  0  0  0  0  0  0  0  0
    6.7021  -11.3060   26.2406 C   0  0  0  0  0  0  0  0  0  0  0  0
    8.0412  -11.6411   26.3425 C   0  0  0  0  0  0  0  0  0  0  0  0
    8.4841  -12.9327   26.1580 C   0  0  0  0  0  0  0  0  0  0  0  0
    7.5790  -13.9423   25.8607 C   0  0  0  0  0  0  0  0  0  0  0  0
   10.9137  -16.9017   24.5209 C   0  0  0  0  0  0  0  0  0  0  0  0
   10.7850  -18.1320   24.3083 O   0  0  0  0  0  0  0  0  0  0  0  0
   12.2132  -16.4638   24.8883 N   0  0  0  0  0  0  0  0  0  0  0  0
   13.3268  -17.4302   25.0632 C   0  0  1  0  0  0  0  0  0  0  0  0
   14.6331  -16.6898   24.9268 C   0  0  0  0  0  0  0  0  0  0  0  0
   14.8516  -16.2694   23.5431 C   0  0  0  0  0  0  0  0  0  0  0  0
   14.2138  -16.7240   22.5718 O   0  0  0  0  0  0  0  0  0  0  0  0
   13.1618  -18.0629   26.3946 C   0  0  0  0  0  0  0  0  0  0  0  0
   12.3410  -17.5856   27.2507 O   0  0  0  0  0  0  0  0  0  0  0  0
   15.8205  -15.2997   23.2057 O   0  0  0  0  0  0  0  0  0  0  0  0
   13.8598  -19.1659   26.7741 O   0  0  0  0  0  0  0  0  0  0  0  0
  1  2  1  0
  2  3  2  0
  4  2  1  0
  4  5  1  0
  5  7  1  0
  5  6  1  1
  7  8  2  0
  9 10  1  0
  9  7  1  0
 10 11  1  1
 11 12  1  0
 12 13  2  0
 14 13  1  0
 15 14  1  0
 16 15  2  0
 17 16  1  0
 18 19  1  0
 18 17  2  0
 19 20  2  0
 20 15  1  0
 20 12  1  0
 21 22  2  0
 21 10  1  0
 23 21  1  0
 24 28  1  0
 24 23  1  0
 24 25  1  1
 26 25  1  0
 26 27  2  0
 28 31  1  0
 29 28  2  0
 30 26  1  0
M  END
$$$$
