NWD.pdb
     RDKit          3D

 31 32  0  0  1  0  0  0  0  0999 V2000
   11.0356  -18.1480   18.2546 N   0  0  0  0  0  0  0  0  0  0  0  0
   11.2712  -16.7803   18.6257 C   0  0  0  0  0  0  0  0  0  0  0  0
   11.5303  -15.9990   17.7117 O   0  0  0  0  0  0  0  0  0  0  0  0
   11.1878  -16.4297   20.0209 C   0  0  0  0  0  0  0  0  0  0  0  0
   10.1914  -17.1996   20.8604 C   0  0  2  0  0  0  0  0  0  0  0  0
    8.8585  -16.8131   20.3260 N   0  0  0  0  0  0  0  0  0  0  0  0
   10.1864  -16.8253   22.2828 C   0  0  0  0  0  0  0  0  0  0  0  0
   10.9789  -15.9015   22.6577 O   0  0  0  0  0  0  0  0  0  0  0  0
    9.3770  -17.3949   23.2768 N   0  0  0  0  0  0  0  0  0  0  0  0
    9.4427  -16.9396   24.6767 C   0  0  1  0  0  0  0  0  0  0  0  0
    8.0560  -16.7332   25.2356 C   0  0  0  0  0  0  0  0  0  0  0  0
    7.4537  -15.4355   24.8921 C   0  0  0  0  0  0  0  0  0  0  0  0
    6.7117  -15.1756   23.7694 C   0  0  0  0  0  0  0  0  0  0  0  0
    6.3323  -13.9032   23.7975 N   0  0  0  0  0  0  0  0  0  0  0  0
    6.7900  -13.2848   24.9011 C   0  0  0  0  0  0  0  0  0  0  0  0
    6.6497  -11.9914   25.3465 C   0  0  0  0  0  0  0  0  0  0  0  0
    7.2444  -11.6284   26.5481 C   0  0  0  0  0  0  0  0  0  0  0  0
    7.9571  -12.5820   27.2544 C   0  0  0  0  0  0  0  0  0  0  0  0
    8.0913  -13.8754   26.7987 C   0  0  0  0  0  0  0  0  0  0  0  0
    7.5034  -14.2547   25.5999 C   0  0  0  0  0  0  0  0  0  0  0  0
   10.0674  -18.0465   25.4465 C   0  0  0  0  0  0  0  0  0  0  0  0
    9.7490  -19.2490   25.2784 O   0  0  0  0  0  0  0  0  0  0  0  0
   11.0676  -17.7957   26.4222 N   0  0  0  0  0  0  0  0  0  0  0  0
   11.6984  -18.9081   27.1768 C   0  0  1  0  0  0  0  0  0  0  0  0
   13.1492  -18.5705   27.4097 C   0  0  0  0  0  0  0  0  0  0  0  0
   13.7965  -19.5927   28.2314 C   0  0  0  0  0  0  0  0  0  0  0  0
   14.0113  -20.7593   27.8443 O   0  0  0  0  0  0  0  0  0  0  0  0
   10.9383  -19.0763   28.4394 C   0  0  0  0  0  0  0  0  0  0  0  0
   10.2573  -18.1114   28.9290 O   0  0  0  0  0  0  0  0  0  0  0  0
   14.2313  -19.3225   29.5470 O   0  0  0  0  0  0  0  0  0  0  0  0
   10.9215  -20.2439   29.1354 O   0  0  0  0  0  0  0  0  0  0  0  0
  1  2  1  0
  2  3  2  0
  4  2  1  0
  4  5  1  0
  5  7  1  0
  5  6  1  6
  7  8  2  0
  9 10  1  0
  9  7  1  0
 10 11  1  1
 11 12  1  0
 12 13  2  0
 14 13  1  0
 15 14  1  0
 16 15  2  0
 17 16  1  0
 18 19  1  0
 18 17  2  0
 19 20  2  0
 20 15  1  0
 20 12  1  0
 21 22  2  0
 21 10  1  0
 23 21  1  0
 24 28  1  0
 24 23  1  0
 24 25  1  1
 26 25  1  0
 26 27  2  0
 28 31  1  0
 29 28  2  0
 30 26  1  0
M  END
$$$$
