NWD.pdb
     RDKit          3D

 31 32  0  0  1  0  0  0  0  0999 V2000
   10.7972  -17.1775   18.9535 N   0  0  0  0  0  0  0  0  0  0  0  0
   10.9952  -15.8629   19.4977 C   0  0  0  0  0  0  0  0  0  0  0  0
   11.3022  -14.9778   18.7005 O   0  0  0  0  0  0  0  0  0  0  0  0
   10.8221  -15.6805   20.9165 C   0  0  0  0  0  0  0  0  0  0  0  0
   10.5743  -16.9258   21.7402 C   0  0  2  0  0  0  0  0  0  0  0  0
    9.2324  -17.4065   21.3162 N   0  0  0  0  0  0  0  0  0  0  0  0
   10.4832  -16.6816   23.1878 C   0  0  0  0  0  0  0  0  0  0  0  0
   11.4799  -16.1359   23.7630 O   0  0  0  0  0  0  0  0  0  0  0  0
    9.3855  -16.9938   24.0035 N   0  0  0  0  0  0  0  0  0  0  0  0
    9.4404  -16.8214   25.4659 C   0  0  1  0  0  0  0  0  0  0  0  0
    8.0513  -16.6758   26.0378 C   0  0  0  0  0  0  0  0  0  0  0  0
    7.3152  -15.5016   25.5437 C   0  0  0  0  0  0  0  0  0  0  0  0
    6.2910  -15.5305   24.6332 C   0  0  0  0  0  0  0  0  0  0  0  0
    5.8689  -14.2877   24.4309 N   0  0  0  0  0  0  0  0  0  0  0  0
    6.5699  -13.4106   25.1719 C   0  0  0  0  0  0  0  0  0  0  0  0
    6.4872  -12.0427   25.2872 C   0  0  0  0  0  0  0  0  0  0  0  0
    7.3588  -11.3892   26.1487 C   0  0  0  0  0  0  0  0  0  0  0  0
    8.2798  -12.1383   26.8606 C   0  0  0  0  0  0  0  0  0  0  0  0
    8.3539  -13.5086   26.7374 C   0  0  0  0  0  0  0  0  0  0  0  0
    7.4903  -14.1774   25.8809 C   0  0  0  0  0  0  0  0  0  0  0  0
   10.0122  -18.0792   26.0129 C   0  0  0  0  0  0  0  0  0  0  0  0
   10.1098  -19.1286   25.3312 O   0  0  0  0  0  0  0  0  0  0  0  0
   10.4819  -18.1572   27.3503 N   0  0  0  0  0  0  0  0  0  0  0  0
   11.4192  -19.2287   27.7723 C   0  0  1  0  0  0  0  0  0  0  0  0
   12.6627  -19.1426   26.9243 C   0  0  0  0  0  0  0  0  0  0  0  0
   13.6414  -20.1506   27.3310 C   0  0  0  0  0  0  0  0  0  0  0  0
   13.3542  -21.3436   27.5573 O   0  0  0  0  0  0  0  0  0  0  0  0
   11.6949  -19.0350   29.2169 C   0  0  0  0  0  0  0  0  0  0  0  0
   12.3091  -17.9942   29.6340 O   0  0  0  0  0  0  0  0  0  0  0  0
   15.0070  -19.8346   27.4988 O   0  0  0  0  0  0  0  0  0  0  0  0
   11.3172  -19.9354   30.1628 O   0  0  0  0  0  0  0  0  0  0  0  0
  1  2  1  0
  2  3  2  0
  4  2  1  0
  4  5  1  0
  5  7  1  0
  5  6  1  6
  7  8  2  0
  9 10  1  0
  9  7  1  0
 10 11  1  1
 11 12  1  0
 12 13  2  0
 14 13  1  0
 15 14  1  0
 16 15  2  0
 17 16  1  0
 18 19  1  0
 18 17  2  0
 19 20  2  0
 20 15  1  0
 20 12  1  0
 21 22  2  0
 21 10  1  0
 23 21  1  0
 24 28  1  0
 24 23  1  0
 24 25  1  6
 26 25  1  0
 26 27  2  0
 28 31  1  0
 29 28  2  0
 30 26  1  0
M  END
$$$$
