NWD.pdb
     RDKit          3D

 31 32  0  0  1  0  0  0  0  0999 V2000
    9.0884  -17.2385   19.0328 N   0  0  0  0  0  0  0  0  0  0  0  0
   10.1721  -17.9290   19.6749 C   0  0  0  0  0  0  0  0  0  0  0  0
   10.7672  -18.7676   18.9998 O   0  0  0  0  0  0  0  0  0  0  0  0
   10.4779  -17.5932   21.0425 C   0  0  0  0  0  0  0  0  0  0  0  0
    9.5349  -16.6353   21.7379 C   0  0  2  0  0  0  0  0  0  0  0  0
    9.5802  -15.3919   20.9234 N   0  0  0  0  0  0  0  0  0  0  0  0
    9.9579  -16.2524   23.0936 C   0  0  0  0  0  0  0  0  0  0  0  0
   10.9566  -15.4701   23.2067 O   0  0  0  0  0  0  0  0  0  0  0  0
    9.3537  -16.6702   24.2887 N   0  0  0  0  0  0  0  0  0  0  0  0
    9.8804  -16.2581   25.6018 C   0  0  1  0  0  0  0  0  0  0  0  0
    8.7669  -16.1616   26.6160 C   0  0  0  0  0  0  0  0  0  0  0  0
    7.6669  -15.2676   26.2216 C   0  0  0  0  0  0  0  0  0  0  0  0
    6.4691  -15.6680   25.6888 C   0  0  0  0  0  0  0  0  0  0  0  0
    5.7257  -14.5913   25.4614 N   0  0  0  0  0  0  0  0  0  0  0  0
    6.3747  -13.4689   25.8203 C   0  0  0  0  0  0  0  0  0  0  0  0
    6.0052  -12.1453   25.7687 C   0  0  0  0  0  0  0  0  0  0  0  0
    6.8994  -11.1822   26.2180 C   0  0  0  0  0  0  0  0  0  0  0  0
    8.1308  -11.5892   26.7019 C   0  0  0  0  0  0  0  0  0  0  0  0
    8.4907  -12.9184   26.7491 C   0  0  0  0  0  0  0  0  0  0  0  0
    7.6090  -13.8937   26.3040 C   0  0  0  0  0  0  0  0  0  0  0  0
   10.7885  -17.3467   26.0472 C   0  0  0  0  0  0  0  0  0  0  0  0
   11.2738  -17.3896   27.2040 O   0  0  0  0  0  0  0  0  0  0  0  0
   11.1568  -18.4050   25.1756 N   0  0  0  0  0  0  0  0  0  0  0  0
   12.1427  -19.4339   25.5930 C   0  0  1  0  0  0  0  0  0  0  0  0
   12.0336  -20.6126   24.6592 C   0  0  0  0  0  0  0  0  0  0  0  0
   13.0691  -21.6041   24.9488 C   0  0  0  0  0  0  0  0  0  0  0  0
   12.9805  -22.4532   25.8587 O   0  0  0  0  0  0  0  0  0  0  0  0
   13.4842  -18.8016   25.5651 C   0  0  0  0  0  0  0  0  0  0  0  0
   13.7805  -17.9297   24.6782 O   0  0  0  0  0  0  0  0  0  0  0  0
   14.2653  -21.6684   24.2018 O   0  0  0  0  0  0  0  0  0  0  0  0
   14.4575  -19.1063   26.4639 O   0  0  0  0  0  0  0  0  0  0  0  0
  1  2  1  0
  2  3  2  0
  4  2  1  0
  4  5  1  0
  5  7  1  0
  5  6  1  6
  7  8  2  0
  9 10  1  0
  9  7  1  0
 10 11  1  1
 11 12  1  0
 12 13  2  0
 14 13  1  0
 15 14  1  0
 16 15  2  0
 17 16  1  0
 18 19  1  0
 18 17  2  0
 19 20  2  0
 20 15  1  0
 20 12  1  0
 21 22  2  0
 21 10  1  0
 23 21  1  0
 24 28  1  0
 24 23  1  0
 24 25  1  6
 26 25  1  0
 26 27  2  0
 28 31  1  0
 29 28  2  0
 30 26  1  0
M  END
$$$$
