NWD.pdb
     RDKit          3D

 31 32  0  0  1  0  0  0  0  0999 V2000
    8.4111  -17.8325   19.1508 N   0  0  0  0  0  0  0  0  0  0  0  0
    8.0157  -16.4889   19.4700 C   0  0  0  0  0  0  0  0  0  0  0  0
    7.3615  -15.8905   18.6173 O   0  0  0  0  0  0  0  0  0  0  0  0
    8.4085  -15.9490   20.7469 C   0  0  0  0  0  0  0  0  0  0  0  0
    9.3525  -16.7872   21.5818 C   0  0  2  0  0  0  0  0  0  0  0  0
    8.5707  -17.9985   21.9465 N   0  0  0  0  0  0  0  0  0  0  0  0
    9.7518  -16.1600   22.8509 C   0  0  0  0  0  0  0  0  0  0  0  0
   10.3555  -15.0399   22.7970 O   0  0  0  0  0  0  0  0  0  0  0  0
    9.5230  -16.6850   24.1315 N   0  0  0  0  0  0  0  0  0  0  0  0
   10.0240  -16.0084   25.3408 C   0  0  1  0  0  0  0  0  0  0  0  0
    8.9570  -15.9639   26.4072 C   0  0  0  0  0  0  0  0  0  0  0  0
    7.7588  -15.1975   26.0306 C   0  0  0  0  0  0  0  0  0  0  0  0
    6.5812  -15.7340   25.5788 C   0  0  0  0  0  0  0  0  0  0  0  0
    5.7279  -14.7442   25.3423 N   0  0  0  0  0  0  0  0  0  0  0  0
    6.2824  -13.5497   25.6168 C   0  0  0  0  0  0  0  0  0  0  0  0
    5.7855  -12.2707   25.5254 C   0  0  0  0  0  0  0  0  0  0  0  0
    6.6033  -11.2071   25.8847 C   0  0  0  0  0  0  0  0  0  0  0  0
    7.8895  -11.4727   26.3220 C   0  0  0  0  0  0  0  0  0  0  0  0
    8.3772  -12.7583   26.4098 C   0  0  0  0  0  0  0  0  0  0  0  0
    7.5732  -13.8327   26.0547 C   0  0  0  0  0  0  0  0  0  0  0  0
   11.1319  -16.8510   25.8615 C   0  0  0  0  0  0  0  0  0  0  0  0
   11.7230  -16.5978   26.9394 O   0  0  0  0  0  0  0  0  0  0  0  0
   11.5821  -17.9980   25.1566 N   0  0  0  0  0  0  0  0  0  0  0  0
   12.6194  -18.8922   25.7305 C   0  0  1  0  0  0  0  0  0  0  0  0
   12.0660  -20.2932   25.7945 C   0  0  0  0  0  0  0  0  0  0  0  0
   11.1242  -20.4310   26.9050 C   0  0  0  0  0  0  0  0  0  0  0  0
   10.2248  -21.2947   26.9478 O   0  0  0  0  0  0  0  0  0  0  0  0
   13.8221  -18.7889   24.8685 C   0  0  0  0  0  0  0  0  0  0  0  0
   13.7482  -18.2827   23.6968 O   0  0  0  0  0  0  0  0  0  0  0  0
   11.1702  -19.5769   28.0281 O   0  0  0  0  0  0  0  0  0  0  0  0
   15.0490  -19.2176   25.2669 O   0  0  0  0  0  0  0  0  0  0  0  0
  1  2  1  0
  2  3  2  0
  4  2  1  0
  4  5  1  0
  5  7  1  0
  5  6  1  1
  7  8  2  0
  9 10  1  0
  9  7  1  0
 10 11  1  1
 11 12  1  0
 12 13  2  0
 14 13  1  0
 15 14  1  0
 16 15  2  0
 17 16  1  0
 18 19  1  0
 18 17  2  0
 19 20  2  0
 20 15  1  0
 20 12  1  0
 21 22  2  0
 21 10  1  0
 23 21  1  0
 24 28  1  0
 24 23  1  0
 24 25  1  6
 26 25  1  0
 26 27  2  0
 28 31  1  0
 29 28  2  0
 30 26  1  0
M  END
$$$$
