NWD.pdb
     RDKit          3D

 31 32  0  0  1  0  0  0  0  0999 V2000
    8.9712  -15.3791   17.6457 N   0  0  0  0  0  0  0  0  0  0  0  0
    9.9488  -16.0178   18.4825 C   0  0  0  0  0  0  0  0  0  0  0  0
   10.7238  -16.7956   17.9282 O   0  0  0  0  0  0  0  0  0  0  0  0
    9.9494  -15.7046   19.8890 C   0  0  0  0  0  0  0  0  0  0  0  0
   10.2543  -16.8404   20.8417 C   0  0  2  0  0  0  0  0  0  0  0  0
    9.1835  -17.8434   20.5992 N   0  0  0  0  0  0  0  0  0  0  0  0
   10.1591  -16.4754   22.2634 C   0  0  0  0  0  0  0  0  0  0  0  0
   11.0487  -15.6978   22.7389 O   0  0  0  0  0  0  0  0  0  0  0  0
    9.1650  -16.9057   23.1546 N   0  0  0  0  0  0  0  0  0  0  0  0
    9.2482  -16.6174   24.5972 C   0  0  1  0  0  0  0  0  0  0  0  0
    7.8717  -16.4047   25.1785 C   0  0  0  0  0  0  0  0  0  0  0  0
    7.2659  -15.1082   24.8367 C   0  0  0  0  0  0  0  0  0  0  0  0
    6.6455  -14.8082   23.6518 C   0  0  0  0  0  0  0  0  0  0  0  0
    6.2203  -13.5511   23.7028 N   0  0  0  0  0  0  0  0  0  0  0  0
    6.5292  -12.9819   24.8819 C   0  0  0  0  0  0  0  0  0  0  0  0
    6.2939  -11.7199   25.3752 C   0  0  0  0  0  0  0  0  0  0  0  0
    6.7370  -11.4071   26.6538 C   0  0  0  0  0  0  0  0  0  0  0  0
    7.3996  -12.3771   27.3861 C   0  0  0  0  0  0  0  0  0  0  0  0
    7.6300  -13.6386   26.8820 C   0  0  0  0  0  0  0  0  0  0  0  0
    7.1939  -13.9677   25.6060 C   0  0  0  0  0  0  0  0  0  0  0  0
    9.8117  -17.8360   25.2343 C   0  0  0  0  0  0  0  0  0  0  0  0
    9.1670  -18.9090   25.3259 O   0  0  0  0  0  0  0  0  0  0  0  0
   11.1232  -17.8467   25.7777 N   0  0  0  0  0  0  0  0  0  0  0  0
   11.6764  -19.0654   26.4207 C   0  0  1  0  0  0  0  0  0  0  0  0
   13.0276  -19.3567   25.8186 C   0  0  0  0  0  0  0  0  0  0  0  0
   13.8675  -18.1594   25.8199 C   0  0  0  0  0  0  0  0  0  0  0  0
   14.0805  -17.4634   26.8333 O   0  0  0  0  0  0  0  0  0  0  0  0
   11.7418  -18.8077   27.8800 C   0  0  0  0  0  0  0  0  0  0  0  0
   11.4667  -17.6532   28.3555 O   0  0  0  0  0  0  0  0  0  0  0  0
   14.5079  -17.7001   24.6485 O   0  0  0  0  0  0  0  0  0  0  0  0
   12.0904  -19.7658   28.7791 O   0  0  0  0  0  0  0  0  0  0  0  0
  1  2  1  0
  2  3  2  0
  4  2  1  0
  4  5  1  0
  5  7  1  0
  5  6  1  1
  7  8  2  0
  9 10  1  0
  9  7  1  0
 10 11  1  1
 11 12  1  0
 12 13  2  0
 14 13  1  0
 15 14  1  0
 16 15  2  0
 17 16  1  0
 18 19  1  0
 18 17  2  0
 19 20  2  0
 20 15  1  0
 20 12  1  0
 21 22  2  0
 21 10  1  0
 23 21  1  0
 24 28  1  0
 24 23  1  0
 24 25  1  6
 26 25  1  0
 26 27  2  0
 28 31  1  0
 29 28  2  0
 30 26  1  0
M  END
$$$$
