NWD.pdb
     RDKit          3D

 31 32  0  0  1  0  0  0  0  0999 V2000
    6.8691  -13.2269   18.3037 N   0  0  0  0  0  0  0  0  0  0  0  0
    8.0625  -13.9473   18.6509 C   0  0  0  0  0  0  0  0  0  0  0  0
    8.6613  -14.4974   17.7279 O   0  0  0  0  0  0  0  0  0  0  0  0
    8.4643  -13.9719   20.0345 C   0  0  0  0  0  0  0  0  0  0  0  0
    8.8497  -15.3174   20.6101 C   0  0  2  0  0  0  0  0  0  0  0  0
    7.6069  -16.1318   20.5495 N   0  0  0  0  0  0  0  0  0  0  0  0
    9.2431  -15.2755   22.0268 C   0  0  0  0  0  0  0  0  0  0  0  0
   10.1821  -14.4824   22.3604 O   0  0  0  0  0  0  0  0  0  0  0  0
    8.6705  -16.0341   23.0585 N   0  0  0  0  0  0  0  0  0  0  0  0
    9.1896  -15.9743   24.4363 C   0  0  1  0  0  0  0  0  0  0  0  0
    8.0963  -16.2782   25.4313 C   0  0  0  0  0  0  0  0  0  0  0  0
    7.1109  -15.1978   25.5941 C   0  0  0  0  0  0  0  0  0  0  0  0
    5.7493  -15.3533   25.5693 C   0  0  0  0  0  0  0  0  0  0  0  0
    5.1839  -14.1655   25.7521 N   0  0  0  0  0  0  0  0  0  0  0  0
    6.1128  -13.2038   25.9006 C   0  0  0  0  0  0  0  0  0  0  0  0
    5.9983  -11.8494   26.1093 C   0  0  0  0  0  0  0  0  0  0  0  0
    7.1551  -11.0897   26.2271 C   0  0  0  0  0  0  0  0  0  0  0  0
    8.3820  -11.7232   26.1301 C   0  0  0  0  0  0  0  0  0  0  0  0
    8.4851  -13.0812   25.9208 C   0  0  0  0  0  0  0  0  0  0  0  0
    7.3391  -13.8551   25.8009 C   0  0  0  0  0  0  0  0  0  0  0  0
   10.2006  -17.0577   24.5484 C   0  0  0  0  0  0  0  0  0  0  0  0
   10.0380  -18.1887   24.0291 O   0  0  0  0  0  0  0  0  0  0  0  0
   11.4152  -16.8645   25.2575 N   0  0  0  0  0  0  0  0  0  0  0  0
   12.3258  -18.0023   25.5421 C   0  0  1  0  0  0  0  0  0  0  0  0
   13.7380  -17.4804   25.6237 C   0  0  0  0  0  0  0  0  0  0  0  0
   14.1372  -16.8586   24.3615 C   0  0  0  0  0  0  0  0  0  0  0  0
   13.7220  -17.2290   23.2447 O   0  0  0  0  0  0  0  0  0  0  0  0
   11.8717  -18.6297   26.8071 C   0  0  0  0  0  0  0  0  0  0  0  0
   10.9034  -18.1309   27.4765 O   0  0  0  0  0  0  0  0  0  0  0  0
   15.0394  -15.7736   24.3208 O   0  0  0  0  0  0  0  0  0  0  0  0
   12.4473  -19.7504   27.3179 O   0  0  0  0  0  0  0  0  0  0  0  0
  1  2  1  0
  2  3  2  0
  4  2  1  0
  4  5  1  0
  5  7  1  0
  5  6  1  1
  7  8  2  0
  9 10  1  0
  9  7  1  0
 10 11  1  1
 11 12  1  0
 12 13  2  0
 14 13  1  0
 15 14  1  0
 16 15  2  0
 17 16  1  0
 18 19  1  0
 18 17  2  0
 19 20  2  0
 20 15  1  0
 20 12  1  0
 21 22  2  0
 21 10  1  0
 23 21  1  0
 24 28  1  0
 24 23  1  0
 24 25  1  1
 26 25  1  0
 26 27  2  0
 28 31  1  0
 29 28  2  0
 30 26  1  0
M  END
$$$$
