NWD.pdb
     RDKit          3D

 31 32  0  0  1  0  0  0  0  0999 V2000
    7.2505  -15.4284   17.3018 N   0  0  0  0  0  0  0  0  0  0  0  0
    8.6725  -15.3584   17.4936 C   0  0  0  0  0  0  0  0  0  0  0  0
    9.3728  -15.7955   16.5818 O   0  0  0  0  0  0  0  0  0  0  0  0
    9.1663  -14.7893   18.7219 C   0  0  0  0  0  0  0  0  0  0  0  0
    8.1342  -14.4007   19.7583 C   0  0  2  0  0  0  0  0  0  0  0  0
    7.8140  -12.9779   19.4673 N   0  0  0  0  0  0  0  0  0  0  0  0
    8.6294  -14.4340   21.1428 C   0  0  0  0  0  0  0  0  0  0  0  0
    8.8661  -13.3221   21.7171 O   0  0  0  0  0  0  0  0  0  0  0  0
    8.8644  -15.5907   21.9010 N   0  0  0  0  0  0  0  0  0  0  0  0
    9.2485  -15.5143   23.3215 C   0  0  1  0  0  0  0  0  0  0  0  0
    8.0623  -15.7986   24.2102 C   0  0  0  0  0  0  0  0  0  0  0  0
    7.1708  -14.6459   24.4142 C   0  0  0  0  0  0  0  0  0  0  0  0
    6.0584  -14.3591   23.6665 C   0  0  0  0  0  0  0  0  0  0  0  0
    5.5040  -13.2493   24.1406 N   0  0  0  0  0  0  0  0  0  0  0  0
    6.1999  -12.7679   25.1865 C   0  0  0  0  0  0  0  0  0  0  0  0
    6.0053  -11.6620   25.9803 C   0  0  0  0  0  0  0  0  0  0  0  0
    6.9040  -11.4091   27.0087 C   0  0  0  0  0  0  0  0  0  0  0  0
    7.9635  -12.2795   27.1977 C   0  0  0  0  0  0  0  0  0  0  0  0
    8.1490  -13.3849   26.3962 C   0  0  0  0  0  0  0  0  0  0  0  0
    7.2602  -13.6523   25.3641 C   0  0  0  0  0  0  0  0  0  0  0  0
   10.2368  -16.6012   23.5453 C   0  0  0  0  0  0  0  0  0  0  0  0
   10.0482  -17.7770   23.1485 O   0  0  0  0  0  0  0  0  0  0  0  0
   11.4582  -16.3605   24.2276 N   0  0  0  0  0  0  0  0  0  0  0  0
   12.4307  -17.4565   24.4683 C   0  0  1  0  0  0  0  0  0  0  0  0
   13.7821  -16.8490   24.7466 C   0  0  0  0  0  0  0  0  0  0  0  0
   14.3249  -16.2137   23.5462 C   0  0  0  0  0  0  0  0  0  0  0  0
   15.2361  -15.3616   23.5648 O   0  0  0  0  0  0  0  0  0  0  0  0
   11.9194  -18.2636   25.6030 C   0  0  0  0  0  0  0  0  0  0  0  0
   10.9540  -17.8407   26.3267 O   0  0  0  0  0  0  0  0  0  0  0  0
   13.8434  -16.5287   22.2570 O   0  0  0  0  0  0  0  0  0  0  0  0
   12.4373  -19.4765   25.9324 O   0  0  0  0  0  0  0  0  0  0  0  0
  1  2  1  0
  2  3  2  0
  4  2  1  0
  4  5  1  0
  5  7  1  0
  5  6  1  6
  7  8  2  0
  9 10  1  0
  9  7  1  0
 10 11  1  1
 11 12  1  0
 12 13  2  0
 14 13  1  0
 15 14  1  0
 16 15  2  0
 17 16  1  0
 18 19  1  0
 18 17  2  0
 19 20  2  0
 20 15  1  0
 20 12  1  0
 21 22  2  0
 21 10  1  0
 23 21  1  0
 24 28  1  0
 24 23  1  0
 24 25  1  1
 26 25  1  0
 26 27  2  0
 28 31  1  0
 29 28  2  0
 30 26  1  0
M  END
$$$$
