NWD.pdb
     RDKit          3D

 31 32  0  0  1  0  0  0  0  0999 V2000
    8.2200  -12.5311   17.9530 N   0  0  0  0  0  0  0  0  0  0  0  0
    8.1769  -13.9669   17.9656 C   0  0  0  0  0  0  0  0  0  0  0  0
    7.0745  -14.4858   17.7964 O   0  0  0  0  0  0  0  0  0  0  0  0
    9.4101  -14.6830   18.1725 C   0  0  0  0  0  0  0  0  0  0  0  0
    9.3668  -15.8565   19.1272 C   0  0  2  0  0  0  0  0  0  0  0  0
    8.0058  -16.4336   18.9655 N   0  0  0  0  0  0  0  0  0  0  0  0
    9.4877  -15.4837   20.5449 C   0  0  0  0  0  0  0  0  0  0  0  0
   10.6393  -15.1536   20.9772 O   0  0  0  0  0  0  0  0  0  0  0  0
    8.4390  -15.4533   21.4760 N   0  0  0  0  0  0  0  0  0  0  0  0
    8.6831  -15.1642   22.9001 C   0  0  1  0  0  0  0  0  0  0  0  0
    7.4783  -14.5028   23.5237 C   0  0  0  0  0  0  0  0  0  0  0  0
    7.6392  -14.1766   24.9494 C   0  0  0  0  0  0  0  0  0  0  0  0
    8.3551  -14.9124   25.8576 C   0  0  0  0  0  0  0  0  0  0  0  0
    8.2799  -14.3143   27.0409 N   0  0  0  0  0  0  0  0  0  0  0  0
    7.5368  -13.1949   26.9723 C   0  0  0  0  0  0  0  0  0  0  0  0
    7.1903  -12.2699   27.9290 C   0  0  0  0  0  0  0  0  0  0  0  0
    6.3954  -11.1918   27.5617 C   0  0  0  0  0  0  0  0  0  0  0  0
    5.9803  -11.0871   26.2453 C   0  0  0  0  0  0  0  0  0  0  0  0
    6.3335  -12.0198   25.2946 C   0  0  0  0  0  0  0  0  0  0  0  0
    7.1274  -13.1032   25.6449 C   0  0  0  0  0  0  0  0  0  0  0  0
    8.8585  -16.4797   23.5687 C   0  0  0  0  0  0  0  0  0  0  0  0
    8.0646  -17.4363   23.3945 O   0  0  0  0  0  0  0  0  0  0  0  0
    9.9459  -16.7225   24.4484 N   0  0  0  0  0  0  0  0  0  0  0  0
   10.1970  -18.0777   25.0009 C   0  0  1  0  0  0  0  0  0  0  0  0
   10.8611  -18.9159   23.9382 C   0  0  0  0  0  0  0  0  0  0  0  0
   11.2181  -20.2340   24.4619 C   0  0  0  0  0  0  0  0  0  0  0  0
   10.4661  -20.9198   25.1838 O   0  0  0  0  0  0  0  0  0  0  0  0
   11.0372  -17.9154   26.2125 C   0  0  0  0  0  0  0  0  0  0  0  0
   11.1310  -18.8530   27.0766 O   0  0  0  0  0  0  0  0  0  0  0  0
   12.4653  -20.8323   24.1800 O   0  0  0  0  0  0  0  0  0  0  0  0
   11.7432  -16.7824   26.4690 O   0  0  0  0  0  0  0  0  0  0  0  0
  1  2  1  0
  2  3  2  0
  4  2  1  0
  4  5  1  0
  5  7  1  0
  5  6  1  1
  7  8  2  0
  9 10  1  0
  9  7  1  0
 10 11  1  1
 11 12  1  0
 12 13  2  0
 14 13  1  0
 15 14  1  0
 16 15  2  0
 17 16  1  0
 18 19  1  0
 18 17  2  0
 19 20  2  0
 20 15  1  0
 20 12  1  0
 21 22  2  0
 21 10  1  0
 23 21  1  0
 24 28  1  0
 24 23  1  0
 24 25  1  6
 26 25  1  0
 26 27  2  0
 28 31  1  0
 29 28  2  0
 30 26  1  0
M  END
$$$$
