EVM.pdb
     RDKit          3D

 25 24  0  0  1  0  0  0  0  0999 V2000
   12.2080  -16.1772   18.3739 N   0  0  0  0  0  0  0  0  0  0  0  0
   11.4029  -16.9734   19.2855 C   0  0  1  0  0  0  0  0  0  0  0  0
   12.2947  -17.9699   19.9390 C   0  0  0  0  0  0  0  0  0  0  0  0
   12.5159  -19.1815   19.0998 C   0  0  0  0  0  0  0  0  0  0  0  0
   13.3452  -20.1931   19.7638 C   0  0  0  0  0  0  0  0  0  0  0  0
   12.9389  -20.7859   20.7809 O   0  0  0  0  0  0  0  0  0  0  0  0
   10.8097  -16.0216   20.2891 C   0  0  0  0  0  0  0  0  0  0  0  0
   11.4368  -14.9700   20.5862 O   0  0  0  0  0  0  0  0  0  0  0  0
   14.6175  -20.5449   19.3016 O   0  0  0  0  0  0  0  0  0  0  0  0
    6.7335  -14.7974   22.6844 C   0  0  0  0  0  0  0  0  0  0  0  0
    7.5085  -15.3372   21.5068 C   0  0  1  0  0  0  0  0  0  0  0  0
    7.1596  -14.7157   20.2062 C   0  0  0  0  0  0  0  0  0  0  0  0
    8.9576  -15.3572   21.8647 C   0  0  2  0  0  0  0  0  0  0  0  0
    9.5823  -16.2826   20.8939 N   0  0  0  0  0  0  0  0  0  0  0  0
    9.1275  -15.9054   23.2321 C   0  0  0  0  0  0  0  0  0  0  0  0
    9.0819  -17.1561   23.4607 O   0  0  0  0  0  0  0  0  0  0  0  0
   10.6878  -14.1218   30.8345 C   0  0  0  0  0  0  0  0  0  0  0  0
   10.3707  -13.5681   29.1538 S   0  0  0  0  0  0  0  0  0  0  0  0
   10.1803  -14.9594   27.9943 C   0  0  0  0  0  0  0  0  0  0  0  0
    9.8688  -14.5032   26.6177 C   0  0  0  0  0  0  0  0  0  0  0  0
    9.7302  -15.6563   25.6617 C   0  0  2  0  0  0  0  0  0  0  0  0
    9.3478  -15.0817   24.3429 N   0  0  0  0  0  0  0  0  0  0  0  0
    8.6467  -16.5517   26.1227 C   0  0  0  0  0  0  0  0  0  0  0  0
    7.3304  -16.2790   25.6837 O   0  0  0  0  0  0  0  0  0  0  0  0
    8.8311  -17.5319   26.8755 O   0  0  0  0  0  0  0  0  0  0  0  0
  2  1  1  6
  2  3  1  0
  3  4  1  0
  4  5  1  0
  5  9  1  0
  6  5  2  0
  7  8  2  0
  7  2  1  0
 11 10  1  1
 12 11  1  0
 13 14  1  6
 13 11  1  0
 14  7  1  0
 15 13  1  0
 16 15  2  0
 18 19  1  0
 18 17  1  0
 20 19  1  0
 21 20  1  1
 21 22  1  0
 22 15  1  0
 23 21  1  0
 23 24  1  0
 25 23  2  0
M  END
$$$$
