EVM.pdb
     RDKit          3D

 25 24  0  0  1  0  0  0  0  0999 V2000
   11.8570  -17.1667   18.3810 N   0  0  0  0  0  0  0  0  0  0  0  0
   10.9481  -17.7800   19.3355 C   0  0  1  0  0  0  0  0  0  0  0  0
   11.6337  -18.9571   19.9353 C   0  0  0  0  0  0  0  0  0  0  0  0
   13.1125  -18.9145   19.7558 C   0  0  0  0  0  0  0  0  0  0  0  0
   13.6026  -19.9212   18.8080 C   0  0  0  0  0  0  0  0  0  0  0  0
   14.0210  -19.5899   17.6827 O   0  0  0  0  0  0  0  0  0  0  0  0
   10.6347  -16.7357   20.3730 C   0  0  0  0  0  0  0  0  0  0  0  0
   11.5762  -16.0703   20.8812 O   0  0  0  0  0  0  0  0  0  0  0  0
   13.6283  -21.2872   19.1071 O   0  0  0  0  0  0  0  0  0  0  0  0
    6.9868  -14.4010   22.7080 C   0  0  0  0  0  0  0  0  0  0  0  0
    7.5305  -15.1465   21.5133 C   0  0  1  0  0  0  0  0  0  0  0  0
    7.1908  -14.5379   20.2042 C   0  0  0  0  0  0  0  0  0  0  0  0
    8.9747  -15.4364   21.7552 C   0  0  2  0  0  0  0  0  0  0  0  0
    9.3249  -16.4929   20.7804 N   0  0  0  0  0  0  0  0  0  0  0  0
    9.1552  -15.9674   23.1280 C   0  0  0  0  0  0  0  0  0  0  0  0
    9.0204  -17.2053   23.3883 O   0  0  0  0  0  0  0  0  0  0  0  0
   10.7478  -14.1219   30.7087 C   0  0  0  0  0  0  0  0  0  0  0  0
   10.4417  -13.5854   29.0204 S   0  0  0  0  0  0  0  0  0  0  0  0
   10.1547  -14.9867   27.8934 C   0  0  0  0  0  0  0  0  0  0  0  0
    9.9113  -14.5438   26.4988 C   0  0  0  0  0  0  0  0  0  0  0  0
    9.7277  -15.7077   25.5637 C   0  0  2  0  0  0  0  0  0  0  0  0
    9.4835  -15.1405   24.2094 N   0  0  0  0  0  0  0  0  0  0  0  0
    8.5395  -16.4874   25.9742 C   0  0  0  0  0  0  0  0  0  0  0  0
    8.7479  -17.6607   26.7356 O   0  0  0  0  0  0  0  0  0  0  0  0
    7.3666  -16.1664   25.6861 O   0  0  0  0  0  0  0  0  0  0  0  0
  2  1  1  6
  2  3  1  0
  3  4  1  0
  4  5  1  0
  5  9  1  0
  6  5  2  0
  7  8  2  0
  7  2  1  0
 11 10  1  1
 12 11  1  0
 13 14  1  6
 13 11  1  0
 14  7  1  0
 15 13  1  0
 16 15  2  0
 18 19  1  0
 18 17  1  0
 20 19  1  0
 21 20  1  1
 21 22  1  0
 22 15  1  0
 23 21  1  0
 23 24  1  0
 25 23  2  0
M  END
$$$$
