EVM.pdb
     RDKit          3D

 25 24  0  0  1  0  0  0  0  0999 V2000
   10.9025  -16.8576   18.9373 N   0  0  0  0  0  0  0  0  0  0  0  0
   10.7553  -17.7372   20.0853 C   0  0  1  0  0  0  0  0  0  0  0  0
   11.9728  -18.5889   20.1735 C   0  0  0  0  0  0  0  0  0  0  0  0
   12.7020  -18.6859   18.8775 C   0  0  0  0  0  0  0  0  0  0  0  0
   14.1325  -18.3853   19.0026 C   0  0  0  0  0  0  0  0  0  0  0  0
   14.6823  -18.3458   20.1193 O   0  0  0  0  0  0  0  0  0  0  0  0
   10.6100  -16.8547   21.2958 C   0  0  0  0  0  0  0  0  0  0  0  0
   11.5524  -16.0797   21.6098 O   0  0  0  0  0  0  0  0  0  0  0  0
   14.9477  -18.1303   17.8952 O   0  0  0  0  0  0  0  0  0  0  0  0
    7.8482  -14.4838   21.9226 C   0  0  0  0  0  0  0  0  0  0  0  0
    7.8640  -15.4551   23.0781 C   0  0  1  0  0  0  0  0  0  0  0  0
    6.7757  -16.4621   23.0475 C   0  0  0  0  0  0  0  0  0  0  0  0
    9.2518  -15.9827   23.2321 C   0  0  2  0  0  0  0  0  0  0  0  0
    9.4545  -16.8800   22.0733 N   0  0  0  0  0  0  0  0  0  0  0  0
    9.3493  -16.7771   24.4805 C   0  0  0  0  0  0  0  0  0  0  0  0
    9.2972  -18.0482   24.4691 O   0  0  0  0  0  0  0  0  0  0  0  0
    9.0359  -13.0676   28.8316 C   0  0  0  0  0  0  0  0  0  0  0  0
   10.6156  -13.4282   28.0530 S   0  0  0  0  0  0  0  0  0  0  0  0
   10.9870  -15.2109   28.0412 C   0  0  0  0  0  0  0  0  0  0  0  0
    9.7595  -16.0398   28.1226 C   0  0  0  0  0  0  0  0  0  0  0  0
    9.6512  -16.9980   26.9681 C   0  0  2  0  0  0  0  0  0  0  0  0
    9.5045  -16.1762   25.7357 N   0  0  0  0  0  0  0  0  0  0  0  0
    8.4401  -17.8316   27.1310 C   0  0  0  0  0  0  0  0  0  0  0  0
    8.5093  -18.9352   28.0125 O   0  0  0  0  0  0  0  0  0  0  0  0
    7.3637  -17.6139   26.5346 O   0  0  0  0  0  0  0  0  0  0  0  0
  2  1  1  6
  2  3  1  0
  3  4  1  0
  4  5  1  0
  5  9  1  0
  6  5  2  0
  7  8  2  0
  7  2  1  0
 11 10  1  6
 12 11  1  0
 13 14  1  6
 13 11  1  0
 14  7  1  0
 15 13  1  0
 16 15  2  0
 18 19  1  0
 18 17  1  0
 20 19  1  0
 21 20  1  1
 21 22  1  0
 22 15  1  0
 23 21  1  0
 23 24  1  0
 25 23  2  0
M  END
$$$$
