EVM.pdb
     RDKit          3D

 25 24  0  0  1  0  0  0  0  0999 V2000
    7.1893  -16.6279   18.9142 N   0  0  0  0  0  0  0  0  0  0  0  0
    8.2357  -16.3282   19.8778 C   0  0  1  0  0  0  0  0  0  0  0  0
    8.8342  -15.0144   19.5158 C   0  0  0  0  0  0  0  0  0  0  0  0
    9.7807  -15.1101   18.3687 C   0  0  0  0  0  0  0  0  0  0  0  0
   10.9226  -15.9898   18.6415 C   0  0  0  0  0  0  0  0  0  0  0  0
   11.5943  -15.8613   19.6823 O   0  0  0  0  0  0  0  0  0  0  0  0
    7.5816  -16.2825   21.2325 C   0  0  0  0  0  0  0  0  0  0  0  0
    6.5731  -15.5472   21.4051 O   0  0  0  0  0  0  0  0  0  0  0  0
   11.3164  -17.0058   17.7649 O   0  0  0  0  0  0  0  0  0  0  0  0
    8.5099  -19.2186   23.7337 C   0  0  0  0  0  0  0  0  0  0  0  0
    7.2189  -18.4715   23.9656 C   0  0  1  0  0  0  0  0  0  0  0  0
    6.5714  -18.7559   25.2692 C   0  0  0  0  0  0  0  0  0  0  0  0
    7.4405  -17.0327   23.6349 C   0  0  2  0  0  0  0  0  0  0  0  0
    8.0709  -17.0369   22.2964 N   0  0  0  0  0  0  0  0  0  0  0  0
    8.3835  -16.4347   24.6107 C   0  0  0  0  0  0  0  0  0  0  0  0
    9.6434  -16.5572   24.4832 O   0  0  0  0  0  0  0  0  0  0  0  0
    6.4352  -10.5062   25.7413 C   0  0  0  0  0  0  0  0  0  0  0  0
    6.4591  -12.0910   26.5897 S   0  0  0  0  0  0  0  0  0  0  0  0
    8.1456  -12.7567   26.7587 C   0  0  0  0  0  0  0  0  0  0  0  0
    8.1650  -14.0620   27.4631 C   0  0  0  0  0  0  0  0  0  0  0  0
    8.9107  -15.1101   26.6832 C   0  0  2  0  0  0  0  0  0  0  0  0
    7.9428  -15.7042   25.7211 N   0  0  0  0  0  0  0  0  0  0  0  0
    9.3782  -16.1700   27.6033 C   0  0  0  0  0  0  0  0  0  0  0  0
   10.5081  -15.8969   28.4085 O   0  0  0  0  0  0  0  0  0  0  0  0
    8.8305  -17.2884   27.7072 O   0  0  0  0  0  0  0  0  0  0  0  0
  2  1  1  6
  2  3  1  0
  3  4  1  0
  4  5  1  0
  5  9  1  0
  6  5  2  0
  7  8  2  0
  7  2  1  0
 11 10  1  1
 12 11  1  0
 13 14  1  6
 13 11  1  0
 14  7  1  0
 15 13  1  0
 16 15  2  0
 18 19  1  0
 18 17  1  0
 20 19  1  0
 21 20  1  1
 21 22  1  0
 22 15  1  0
 23 21  1  0
 23 24  1  0
 25 23  2  0
M  END
$$$$
