EVM.pdb
     RDKit          3D

 25 24  0  0  1  0  0  0  0  0999 V2000
    7.6046  -15.0208   20.8329 N   0  0  0  0  0  0  0  0  0  0  0  0
    7.9192  -15.8086   22.0135 C   0  0  1  0  0  0  0  0  0  0  0  0
    8.7692  -16.9549   21.5906 C   0  0  0  0  0  0  0  0  0  0  0  0
    9.0055  -16.9839   20.1194 C   0  0  0  0  0  0  0  0  0  0  0  0
    9.7332  -18.1797   19.6808 C   0  0  0  0  0  0  0  0  0  0  0  0
    9.9881  -18.3673   18.4763 O   0  0  0  0  0  0  0  0  0  0  0  0
    8.6515  -14.8989   22.9629 C   0  0  0  0  0  0  0  0  0  0  0  0
    9.9111  -14.8757   22.9456 O   0  0  0  0  0  0  0  0  0  0  0  0
   10.1755  -19.1613   20.5734 O   0  0  0  0  0  0  0  0  0  0  0  0
    6.2630  -13.6403   25.9562 C   0  0  0  0  0  0  0  0  0  0  0  0
    7.4937  -12.7856   25.7725 C   0  0  1  0  0  0  0  0  0  0  0  0
    7.8947  -12.0208   26.9782 C   0  0  0  0  0  0  0  0  0  0  0  0
    8.5545  -13.6175   25.1315 C   0  0  2  0  0  0  0  0  0  0  0  0
    7.9625  -14.0844   23.8585 N   0  0  0  0  0  0  0  0  0  0  0  0
    8.8523  -14.7931   25.9851 C   0  0  0  0  0  0  0  0  0  0  0  0
    8.0440  -15.7708   26.0807 O   0  0  0  0  0  0  0  0  0  0  0  0
   13.8631  -19.0760   26.1007 C   0  0  0  0  0  0  0  0  0  0  0  0
   13.7607  -18.2995   27.7188 S   0  0  0  0  0  0  0  0  0  0  0  0
   12.0768  -17.7200   28.0997 C   0  0  0  0  0  0  0  0  0  0  0  0
   11.6700  -16.5783   27.2445 C   0  0  0  0  0  0  0  0  0  0  0  0
   10.2979  -16.0730   27.5976 C   0  0  2  0  0  0  0  0  0  0  0  0
   10.0343  -14.8932   26.7291 N   0  0  0  0  0  0  0  0  0  0  0  0
   10.2817  -15.6364   29.0109 C   0  0  0  0  0  0  0  0  0  0  0  0
   10.2451  -16.6345   30.0119 O   0  0  0  0  0  0  0  0  0  0  0  0
   10.2989  -14.4385   29.3663 O   0  0  0  0  0  0  0  0  0  0  0  0
  2  1  1  6
  2  3  1  0
  3  4  1  0
  4  5  1  0
  5  9  1  0
  6  5  2  0
  7  8  2  0
  7  2  1  0
 11 10  1  1
 12 11  1  0
 13 14  1  6
 13 11  1  0
 14  7  1  0
 15 13  1  0
 16 15  2  0
 18 19  1  0
 18 17  1  0
 20 19  1  0
 21 20  1  6
 21 22  1  0
 22 15  1  0
 23 21  1  0
 23 24  1  0
 25 23  2  0
M  END
$$$$
