EVM.pdb
     RDKit          3D

 25 24  0  0  1  0  0  0  0  0999 V2000
   11.3404  -17.2430   18.1952 N   0  0  0  0  0  0  0  0  0  0  0  0
   10.6509  -17.9286   19.2758 C   0  0  1  0  0  0  0  0  0  0  0  0
   11.4924  -19.0794   19.7036 C   0  0  0  0  0  0  0  0  0  0  0  0
   12.5137  -19.4551   18.6854 C   0  0  0  0  0  0  0  0  0  0  0  0
   13.3151  -20.6182   19.0817 C   0  0  0  0  0  0  0  0  0  0  0  0
   13.4757  -21.5787   18.3054 O   0  0  0  0  0  0  0  0  0  0  0  0
   10.4774  -16.9284   20.3870 C   0  0  0  0  0  0  0  0  0  0  0  0
   11.4800  -16.2876   20.8011 O   0  0  0  0  0  0  0  0  0  0  0  0
   13.9346  -20.7147   20.3319 O   0  0  0  0  0  0  0  0  0  0  0  0
    7.1925  -14.7002   23.2966 C   0  0  0  0  0  0  0  0  0  0  0  0
    7.5637  -15.3961   22.0095 C   0  0  1  0  0  0  0  0  0  0  0  0
    7.0702  -14.7226   20.7838 C   0  0  0  0  0  0  0  0  0  0  0  0
    9.0212  -15.7160   22.0495 C   0  0  2  0  0  0  0  0  0  0  0  0
    9.2305  -16.6997   20.9643 N   0  0  0  0  0  0  0  0  0  0  0  0
    9.3589  -16.3497   23.3470 C   0  0  0  0  0  0  0  0  0  0  0  0
    9.0665  -17.5629   23.5939 O   0  0  0  0  0  0  0  0  0  0  0  0
   10.2637  -13.9280   30.1514 C   0  0  0  0  0  0  0  0  0  0  0  0
   10.1431  -13.3108   28.4673 S   0  0  0  0  0  0  0  0  0  0  0  0
    9.6281  -14.6050   27.2943 C   0  0  0  0  0  0  0  0  0  0  0  0
   10.7841  -15.2310   26.6071 C   0  0  0  0  0  0  0  0  0  0  0  0
   10.3533  -16.3151   25.6574 C   0  0  2  0  0  0  0  0  0  0  0  0
   10.0163  -15.6523   24.3679 N   0  0  0  0  0  0  0  0  0  0  0  0
    9.1397  -16.9777   26.1831 C   0  0  0  0  0  0  0  0  0  0  0  0
    9.3088  -18.0181   27.1258 O   0  0  0  0  0  0  0  0  0  0  0  0
    7.9782  -16.6687   25.8410 O   0  0  0  0  0  0  0  0  0  0  0  0
  2  1  1  6
  2  3  1  0
  3  4  1  0
  4  5  1  0
  5  9  1  0
  6  5  2  0
  7  8  2  0
  7  2  1  0
 11 10  1  1
 12 11  1  0
 13 14  1  6
 13 11  1  0
 14  7  1  0
 15 13  1  0
 16 15  2  0
 18 19  1  0
 18 17  1  0
 20 19  1  0
 21 20  1  1
 21 22  1  0
 22 15  1  0
 23 21  1  0
 23 24  1  0
 25 23  2  0
M  END
$$$$
