EVM.pdb
     RDKit          3D

 25 24  0  0  1  0  0  0  0  0999 V2000
    9.9320  -17.8976   18.0457 N   0  0  0  0  0  0  0  0  0  0  0  0
   10.2115  -18.1303   19.4532 C   0  0  1  0  0  0  0  0  0  0  0  0
   11.5544  -18.7633   19.5587 C   0  0  0  0  0  0  0  0  0  0  0  0
   11.7608  -19.8454   18.5550 C   0  0  0  0  0  0  0  0  0  0  0  0
   13.0766  -20.4846   18.6658 C   0  0  0  0  0  0  0  0  0  0  0  0
   13.9368  -20.3354   17.7777 O   0  0  0  0  0  0  0  0  0  0  0  0
   10.1790  -16.7877   20.1325 C   0  0  0  0  0  0  0  0  0  0  0  0
   11.2638  -16.2354   20.4574 O   0  0  0  0  0  0  0  0  0  0  0  0
   13.4355  -21.2842   19.7556 O   0  0  0  0  0  0  0  0  0  0  0  0
    7.4810  -12.8547   21.1878 C   0  0  0  0  0  0  0  0  0  0  0  0
    7.7768  -14.1125   20.4073 C   0  0  1  0  0  0  0  0  0  0  0  0
    7.8992  -13.9111   18.9431 C   0  0  0  0  0  0  0  0  0  0  0  0
    8.9040  -14.8280   21.0749 C   0  0  2  0  0  0  0  0  0  0  0  0
    8.9733  -16.1468   20.4079 N   0  0  0  0  0  0  0  0  0  0  0  0
    8.5889  -15.0289   22.5100 C   0  0  0  0  0  0  0  0  0  0  0  0
    7.6592  -15.8115   22.8864 O   0  0  0  0  0  0  0  0  0  0  0  0
    5.5563  -11.4364   27.9048 C   0  0  0  0  0  0  0  0  0  0  0  0
    6.9287  -11.9263   26.8520 S   0  0  0  0  0  0  0  0  0  0  0  0
    6.5967  -13.4828   25.9670 C   0  0  0  0  0  0  0  0  0  0  0  0
    7.3486  -13.5738   24.6916 C   0  0  0  0  0  0  0  0  0  0  0  0
    8.7037  -14.1985   24.8818 C   0  0  2  0  0  0  0  0  0  0  0  0
    9.2940  -14.3730   23.5265 N   0  0  0  0  0  0  0  0  0  0  0  0
    8.5497  -15.5296   25.5085 C   0  0  0  0  0  0  0  0  0  0  0  0
    7.6634  -16.4490   24.9011 O   0  0  0  0  0  0  0  0  0  0  0  0
    9.1581  -15.8840   26.5409 O   0  0  0  0  0  0  0  0  0  0  0  0
  2  1  1  6
  2  3  1  0
  3  4  1  0
  4  5  1  0
  5  9  1  0
  6  5  2  0
  7  8  2  0
  7  2  1  0
 11 10  1  1
 12 11  1  0
 13 14  1  6
 13 11  1  0
 14  7  1  0
 15 13  1  0
 16 15  2  0
 18 19  1  0
 18 17  1  0
 20 19  1  0
 21 20  1  6
 21 22  1  0
 22 15  1  0
 23 21  1  0
 23 24  1  0
 25 23  2  0
M  END
$$$$
