EVM.pdb
     RDKit          3D

 25 24  0  0  1  0  0  0  0  0999 V2000
   12.0913  -16.9773   19.0801 N   0  0  0  0  0  0  0  0  0  0  0  0
   10.8916  -17.4028   19.7823 C   0  0  1  0  0  0  0  0  0  0  0  0
   11.2038  -18.6647   20.5070 C   0  0  0  0  0  0  0  0  0  0  0  0
   12.6579  -18.8178   20.7954 C   0  0  0  0  0  0  0  0  0  0  0  0
   12.9645  -20.0325   21.5587 C   0  0  0  0  0  0  0  0  0  0  0  0
   13.2925  -19.9682   22.7584 O   0  0  0  0  0  0  0  0  0  0  0  0
   10.5267  -16.2953   20.7338 C   0  0  0  0  0  0  0  0  0  0  0  0
   11.4426  -15.6089   21.2604 O   0  0  0  0  0  0  0  0  0  0  0  0
   12.9073  -21.3107   20.9940 O   0  0  0  0  0  0  0  0  0  0  0  0
    7.6027  -13.7907   20.0988 C   0  0  0  0  0  0  0  0  0  0  0  0
    7.4457  -14.4834   21.4308 C   0  0  1  0  0  0  0  0  0  0  0  0
    6.3946  -15.5294   21.4579 C   0  0  0  0  0  0  0  0  0  0  0  0
    8.7984  -14.8898   21.9137 C   0  0  2  0  0  0  0  0  0  0  0  0
    9.1971  -16.0168   21.0419 N   0  0  0  0  0  0  0  0  0  0  0  0
    8.7062  -15.3714   23.3132 C   0  0  0  0  0  0  0  0  0  0  0  0
    8.7842  -16.6083   23.6004 O   0  0  0  0  0  0  0  0  0  0  0  0
    7.9352  -10.5505   27.2532 C   0  0  0  0  0  0  0  0  0  0  0  0
    6.5126  -11.6497   27.2542 S   0  0  0  0  0  0  0  0  0  0  0  0
    6.8110  -13.1638   26.2876 C   0  0  0  0  0  0  0  0  0  0  0  0
    8.0877  -13.8225   26.6573 C   0  0  0  0  0  0  0  0  0  0  0  0
    8.3816  -15.0095   25.7814 C   0  0  2  0  0  0  0  0  0  0  0  0
    8.5302  -14.4962   24.3921 N   0  0  0  0  0  0  0  0  0  0  0  0
    7.2385  -15.9476   25.8222 C   0  0  0  0  0  0  0  0  0  0  0  0
    7.1847  -16.8801   26.8839 O   0  0  0  0  0  0  0  0  0  0  0  0
    6.3217  -15.9601   24.9731 O   0  0  0  0  0  0  0  0  0  0  0  0
  2  1  1  1
  2  3  1  0
  3  4  1  0
  4  5  1  0
  5  9  1  0
  6  5  2  0
  7  8  2  0
  7  2  1  0
 11 10  1  6
 12 11  1  0
 13 14  1  6
 13 11  1  0
 14  7  1  0
 15 13  1  0
 16 15  2  0
 18 19  1  0
 18 17  1  0
 20 19  1  0
 21 20  1  1
 21 22  1  0
 22 15  1  0
 23 21  1  0
 23 24  1  0
 25 23  2  0
M  END
$$$$
