EVM.pdb
     RDKit          3D

 25 24  0  0  1  0  0  0  0  0999 V2000
   10.5681  -16.6306   17.7391 N   0  0  0  0  0  0  0  0  0  0  0  0
   11.0450  -17.1905   18.9930 C   0  0  1  0  0  0  0  0  0  0  0  0
   12.5185  -17.3717   18.8869 C   0  0  0  0  0  0  0  0  0  0  0  0
   12.8947  -18.5550   18.0626 C   0  0  0  0  0  0  0  0  0  0  0  0
   14.3407  -18.8016   18.0430 C   0  0  0  0  0  0  0  0  0  0  0  0
   14.8866  -19.4756   18.9366 O   0  0  0  0  0  0  0  0  0  0  0  0
   10.6860  -16.2075   20.0746 C   0  0  0  0  0  0  0  0  0  0  0  0
   11.5364  -15.3505   20.4351 O   0  0  0  0  0  0  0  0  0  0  0  0
   15.1756  -18.3033   17.0377 O   0  0  0  0  0  0  0  0  0  0  0  0
    7.1979  -14.3116   20.3938 C   0  0  0  0  0  0  0  0  0  0  0  0
    7.5395  -15.1569   21.5969 C   0  0  1  0  0  0  0  0  0  0  0  0
    6.7985  -16.4392   21.6758 C   0  0  0  0  0  0  0  0  0  0  0  0
    9.0257  -15.2419   21.7072 C   0  0  2  0  0  0  0  0  0  0  0  0
    9.4331  -16.2288   20.6829 N   0  0  0  0  0  0  0  0  0  0  0  0
    9.3993  -15.7552   23.0474 C   0  0  0  0  0  0  0  0  0  0  0  0
    9.8613  -16.9297   23.2078 O   0  0  0  0  0  0  0  0  0  0  0  0
   11.4920  -13.0514   29.8285 C   0  0  0  0  0  0  0  0  0  0  0  0
    9.9034  -13.3855   29.0563 S   0  0  0  0  0  0  0  0  0  0  0  0
    9.9881  -14.7706   27.8771 C   0  0  0  0  0  0  0  0  0  0  0  0
    9.5587  -14.3735   26.5140 C   0  0  0  0  0  0  0  0  0  0  0  0
    9.6675  -15.5119   25.5368 C   0  0  2  0  0  0  0  0  0  0  0  0
    9.2664  -14.9797   24.2058 N   0  0  0  0  0  0  0  0  0  0  0  0
    8.7258  -16.5853   25.9233 C   0  0  0  0  0  0  0  0  0  0  0  0
    9.2177  -17.6404   26.7261 O   0  0  0  0  0  0  0  0  0  0  0  0
    7.5244  -16.6097   25.5805 O   0  0  0  0  0  0  0  0  0  0  0  0
  2  1  1  6
  2  3  1  0
  3  4  1  0
  4  5  1  0
  5  9  1  0
  6  5  2  0
  7  8  2  0
  7  2  1  0
 11 10  1  6
 12 11  1  0
 13 14  1  6
 13 11  1  0
 14  7  1  0
 15 13  1  0
 16 15  2  0
 18 19  1  0
 18 17  1  0
 20 19  1  0
 21 20  1  1
 21 22  1  0
 22 15  1  0
 23 21  1  0
 23 24  1  0
 25 23  2  0
M  END
$$$$
