EVM.pdb
     RDKit          3D

 25 24  0  0  1  0  0  0  0  0999 V2000
    8.8404  -18.2391   19.8840 N   0  0  0  0  0  0  0  0  0  0  0  0
   10.2336  -17.8864   20.1027 C   0  0  1  0  0  0  0  0  0  0  0  0
   10.9567  -18.0386   18.8107 C   0  0  0  0  0  0  0  0  0  0  0  0
   10.5205  -19.2407   18.0455 C   0  0  0  0  0  0  0  0  0  0  0  0
   11.2639  -19.4224   16.7939 C   0  0  0  0  0  0  0  0  0  0  0  0
   11.0345  -20.3939   16.0492 O   0  0  0  0  0  0  0  0  0  0  0  0
   10.2528  -16.4597   20.5815 C   0  0  0  0  0  0  0  0  0  0  0  0
   11.3558  -15.8598   20.6860 O   0  0  0  0  0  0  0  0  0  0  0  0
   12.2555  -18.5314   16.3713 O   0  0  0  0  0  0  0  0  0  0  0  0
    7.8006  -13.7972   19.2572 C   0  0  0  0  0  0  0  0  0  0  0  0
    7.7349  -13.8554   20.7642 C   0  0  1  0  0  0  0  0  0  0  0  0
    6.5205  -14.5171   21.3000 C   0  0  0  0  0  0  0  0  0  0  0  0
    9.0443  -14.3588   21.2745 C   0  0  2  0  0  0  0  0  0  0  0  0
    9.0751  -15.7926   20.9106 N   0  0  0  0  0  0  0  0  0  0  0  0
    9.0866  -14.2348   22.7516 C   0  0  0  0  0  0  0  0  0  0  0  0
    9.2796  -13.1144   23.3225 O   0  0  0  0  0  0  0  0  0  0  0  0
    7.1664  -11.3413   27.8024 C   0  0  0  0  0  0  0  0  0  0  0  0
    6.2423  -12.5894   26.8968 S   0  0  0  0  0  0  0  0  0  0  0  0
    7.1861  -14.1335   26.6939 C   0  0  0  0  0  0  0  0  0  0  0  0
    7.4255  -14.4609   25.2671 C   0  0  0  0  0  0  0  0  0  0  0  0
    8.7411  -15.1615   25.0646 C   0  0  2  0  0  0  0  0  0  0  0  0
    8.9162  -15.3380   23.5971 N   0  0  0  0  0  0  0  0  0  0  0  0
    8.6925  -16.4957   25.7017 C   0  0  0  0  0  0  0  0  0  0  0  0
    8.7504  -16.5580   27.1133 O   0  0  0  0  0  0  0  0  0  0  0  0
    8.6031  -17.5659   25.0627 O   0  0  0  0  0  0  0  0  0  0  0  0
  2  1  1  6
  2  3  1  0
  3  4  1  0
  4  5  1  0
  5  9  1  0
  6  5  2  0
  7  8  2  0
  7  2  1  0
 11 10  1  6
 12 11  1  0
 13 14  1  1
 13 11  1  0
 14  7  1  0
 15 13  1  0
 16 15  2  0
 18 19  1  0
 18 17  1  0
 20 19  1  0
 21 20  1  6
 21 22  1  0
 22 15  1  0
 23 21  1  0
 23 24  1  0
 25 23  2  0
M  END
$$$$
