EVM.pdb
     RDKit          3D

 25 24  0  0  1  0  0  0  0  0999 V2000
    7.6981  -20.0318   21.3971 N   0  0  0  0  0  0  0  0  0  0  0  0
    6.9658  -18.9268   21.9940 C   0  0  1  0  0  0  0  0  0  0  0  0
    6.7096  -19.2604   23.4217 C   0  0  0  0  0  0  0  0  0  0  0  0
    7.9170  -19.7941   24.1134 C   0  0  0  0  0  0  0  0  0  0  0  0
    7.6865  -20.0680   25.5360 C   0  0  0  0  0  0  0  0  0  0  0  0
    8.5473  -19.7832   26.3897 O   0  0  0  0  0  0  0  0  0  0  0  0
    7.8338  -17.7047   21.8596 C   0  0  0  0  0  0  0  0  0  0  0  0
    9.0864  -17.8382   21.8368 O   0  0  0  0  0  0  0  0  0  0  0  0
    6.5079  -20.6544   26.0083 O   0  0  0  0  0  0  0  0  0  0  0  0
    7.7778  -12.8458   21.0802 C   0  0  0  0  0  0  0  0  0  0  0  0
    7.1391  -14.2097   20.9765 C   0  0  1  0  0  0  0  0  0  0  0  0
    6.5475  -14.5106   19.6503 C   0  0  0  0  0  0  0  0  0  0  0  0
    8.0930  -15.2201   21.5220 C   0  0  2  0  0  0  0  0  0  0  0  0
    7.2776  -16.4314   21.7607 N   0  0  0  0  0  0  0  0  0  0  0  0
    8.6403  -14.7442   22.8154 C   0  0  0  0  0  0  0  0  0  0  0  0
    8.9827  -13.5314   22.9900 O   0  0  0  0  0  0  0  0  0  0  0  0
    6.8990  -10.2501   26.7847 C   0  0  0  0  0  0  0  0  0  0  0  0
    6.5684  -11.9795   26.4217 S   0  0  0  0  0  0  0  0  0  0  0  0
    8.0728  -12.8802   25.9300 C   0  0  0  0  0  0  0  0  0  0  0  0
    7.8100  -14.3196   25.6866 C   0  0  0  0  0  0  0  0  0  0  0  0
    9.0557  -15.0566   25.2767 C   0  0  2  0  0  0  0  0  0  0  0  0
    8.8092  -15.5981   23.9123 N   0  0  0  0  0  0  0  0  0  0  0  0
    9.2871  -16.1870   26.2024 C   0  0  0  0  0  0  0  0  0  0  0  0
    9.0435  -17.4953   25.7241 O   0  0  0  0  0  0  0  0  0  0  0  0
    9.6850  -16.0488   27.3790 O   0  0  0  0  0  0  0  0  0  0  0  0
  2  1  1  1
  2  3  1  0
  3  4  1  0
  4  5  1  0
  5  9  1  0
  6  5  2  0
  7  8  2  0
  7  2  1  0
 11 10  1  6
 12 11  1  0
 13 14  1  1
 13 11  1  0
 14  7  1  0
 15 13  1  0
 16 15  2  0
 18 19  1  0
 18 17  1  0
 20 19  1  0
 21 20  1  1
 21 22  1  0
 22 15  1  0
 23 21  1  0
 23 24  1  0
 25 23  2  0
M  END
$$$$
