EVM.pdb
     RDKit          3D

 25 24  0  0  1  0  0  0  0  0999 V2000
   11.9704  -17.7212   18.8512 N   0  0  0  0  0  0  0  0  0  0  0  0
   11.0893  -18.0702   19.9535 C   0  0  1  0  0  0  0  0  0  0  0  0
   11.8589  -18.9098   20.9117 C   0  0  0  0  0  0  0  0  0  0  0  0
   12.1566  -20.2682   20.3759 C   0  0  0  0  0  0  0  0  0  0  0  0
   12.9427  -21.0890   21.3035 C   0  0  0  0  0  0  0  0  0  0  0  0
   13.7730  -21.9150   20.8803 O   0  0  0  0  0  0  0  0  0  0  0  0
   10.6461  -16.7777   20.5843 C   0  0  0  0  0  0  0  0  0  0  0  0
   11.4389  -15.7987   20.6049 O   0  0  0  0  0  0  0  0  0  0  0  0
   12.8082  -20.9934   22.6923 O   0  0  0  0  0  0  0  0  0  0  0  0
    6.8578  -14.1482   22.1600 C   0  0  0  0  0  0  0  0  0  0  0  0
    7.5190  -15.1994   21.3019 C   0  0  1  0  0  0  0  0  0  0  0  0
    7.3536  -14.9929   19.8427 C   0  0  0  0  0  0  0  0  0  0  0  0
    8.9160  -15.3964   21.7897 C   0  0  2  0  0  0  0  0  0  0  0  0
    9.3777  -16.6453   21.1446 N   0  0  0  0  0  0  0  0  0  0  0  0
    8.9101  -15.5865   23.2604 C   0  0  0  0  0  0  0  0  0  0  0  0
    8.6544  -16.7161   23.7868 O   0  0  0  0  0  0  0  0  0  0  0  0
    6.2427  -11.0070   26.5941 C   0  0  0  0  0  0  0  0  0  0  0  0
    6.9604  -11.9107   27.9726 S   0  0  0  0  0  0  0  0  0  0  0  0
    7.7606  -13.4575   27.4406 C   0  0  0  0  0  0  0  0  0  0  0  0
    8.1739  -13.4139   26.0167 C   0  0  0  0  0  0  0  0  0  0  0  0
    8.8942  -14.6678   25.6022 C   0  0  2  0  0  0  0  0  0  0  0  0
    9.1855  -14.5391   24.1481 N   0  0  0  0  0  0  0  0  0  0  0  0
    8.0101  -15.8357   25.8087 C   0  0  0  0  0  0  0  0  0  0  0  0
    8.3891  -16.7893   26.7817 O   0  0  0  0  0  0  0  0  0  0  0  0
    6.9509  -16.0239   25.1730 O   0  0  0  0  0  0  0  0  0  0  0  0
  2  1  1  6
  2  3  1  0
  3  4  1  0
  4  5  1  0
  5  9  1  0
  6  5  2  0
  7  8  2  0
  7  2  1  0
 11 10  1  1
 12 11  1  0
 13 14  1  6
 13 11  1  0
 14  7  1  0
 15 13  1  0
 16 15  2  0
 18 19  1  0
 18 17  1  0
 20 19  1  0
 21 20  1  6
 21 22  1  0
 22 15  1  0
 23 21  1  0
 23 24  1  0
 25 23  2  0
M  END
$$$$
