EVM.pdb
     RDKit          3D

 25 24  0  0  1  0  0  0  0  0999 V2000
   11.9310  -15.8666   18.4972 N   0  0  0  0  0  0  0  0  0  0  0  0
   11.6915  -16.7067   19.6591 C   0  0  1  0  0  0  0  0  0  0  0  0
   13.0109  -17.1256   20.2059 C   0  0  0  0  0  0  0  0  0  0  0  0
   13.2616  -18.5861   20.0482 C   0  0  0  0  0  0  0  0  0  0  0  0
   14.6832  -18.9074   19.8809 C   0  0  0  0  0  0  0  0  0  0  0  0
   15.3358  -19.4224   20.8081 O   0  0  0  0  0  0  0  0  0  0  0  0
   10.9227  -15.8738   20.6492 C   0  0  0  0  0  0  0  0  0  0  0  0
   11.3133  -14.7033   20.9041 O   0  0  0  0  0  0  0  0  0  0  0  0
   15.3762  -18.6588   18.6918 O   0  0  0  0  0  0  0  0  0  0  0  0
    6.6160  -15.3745   22.8536 C   0  0  0  0  0  0  0  0  0  0  0  0
    7.5479  -15.7928   21.7421 C   0  0  1  0  0  0  0  0  0  0  0  0
    7.1810  -15.2684   20.4042 C   0  0  0  0  0  0  0  0  0  0  0  0
    8.9520  -15.5503   22.1873 C   0  0  2  0  0  0  0  0  0  0  0  0
    9.7899  -16.3733   21.2874 N   0  0  0  0  0  0  0  0  0  0  0  0
    9.1249  -16.0294   23.5800 C   0  0  0  0  0  0  0  0  0  0  0  0
    9.5222  -17.2107   23.8355 O   0  0  0  0  0  0  0  0  0  0  0  0
    6.7942  -10.8149   26.1745 C   0  0  0  0  0  0  0  0  0  0  0  0
    7.1531  -12.3410   27.0543 S   0  0  0  0  0  0  0  0  0  0  0  0
    8.5028  -13.2839   26.2761 C   0  0  0  0  0  0  0  0  0  0  0  0
    8.7913  -14.5481   26.9964 C   0  0  0  0  0  0  0  0  0  0  0  0
    9.2442  -15.6363   26.0618 C   0  0  2  0  0  0  0  0  0  0  0  0
    8.8632  -15.2125   24.6868 N   0  0  0  0  0  0  0  0  0  0  0  0
    8.5338  -16.8926   26.3864 C   0  0  0  0  0  0  0  0  0  0  0  0
    8.9412  -17.6053   27.5378 O   0  0  0  0  0  0  0  0  0  0  0  0
    7.5969  -17.3557   25.7013 O   0  0  0  0  0  0  0  0  0  0  0  0
  2  1  1  6
  2  3  1  0
  3  4  1  0
  4  5  1  0
  5  9  1  0
  6  5  2  0
  7  8  2  0
  7  2  1  0
 11 10  1  1
 12 11  1  0
 13 14  1  6
 13 11  1  0
 14  7  1  0
 15 13  1  0
 16 15  2  0
 18 19  1  0
 18 17  1  0
 20 19  1  0
 21 20  1  1
 21 22  1  0
 22 15  1  0
 23 21  1  0
 23 24  1  0
 25 23  2  0
M  END
$$$$
