EVM.pdb
     RDKit          3D

 25 24  0  0  1  0  0  0  0  0999 V2000
   12.3568  -17.2818   19.6449 N   0  0  0  0  0  0  0  0  0  0  0  0
   11.4767  -17.7770   20.6906 C   0  0  1  0  0  0  0  0  0  0  0  0
   12.2504  -18.7301   21.5322 C   0  0  0  0  0  0  0  0  0  0  0  0
   13.1847  -19.5741   20.7349 C   0  0  0  0  0  0  0  0  0  0  0  0
   14.3147  -20.0775   21.5236 C   0  0  0  0  0  0  0  0  0  0  0  0
   15.1559  -20.8442   21.0182 O   0  0  0  0  0  0  0  0  0  0  0  0
   11.0251  -16.5806   21.4841 C   0  0  0  0  0  0  0  0  0  0  0  0
   11.7759  -15.5716   21.5583 O   0  0  0  0  0  0  0  0  0  0  0  0
   14.5099  -19.7320   22.8646 O   0  0  0  0  0  0  0  0  0  0  0  0
    7.1006  -14.2274   23.0621 C   0  0  0  0  0  0  0  0  0  0  0  0
    7.8648  -15.2128   22.2115 C   0  0  1  0  0  0  0  0  0  0  0  0
    7.7732  -14.9637   20.7524 C   0  0  0  0  0  0  0  0  0  0  0  0
    9.2398  -15.3555   22.7749 C   0  0  2  0  0  0  0  0  0  0  0  0
    9.7944  -16.5696   22.1366 N   0  0  0  0  0  0  0  0  0  0  0  0
    9.1601  -15.5739   24.2395 C   0  0  0  0  0  0  0  0  0  0  0  0
    8.5226  -16.5573   24.7344 O   0  0  0  0  0  0  0  0  0  0  0  0
    5.6817  -12.4457   26.6032 C   0  0  0  0  0  0  0  0  0  0  0  0
    7.1076  -11.9279   27.5678 S   0  0  0  0  0  0  0  0  0  0  0  0
    8.6300  -12.7915   27.0653 C   0  0  0  0  0  0  0  0  0  0  0  0
    8.4859  -14.2663   27.1319 C   0  0  0  0  0  0  0  0  0  0  0  0
    9.7105  -14.9741   26.6197 C   0  0  2  0  0  0  0  0  0  0  0  0
    9.7797  -14.7150   25.1556 N   0  0  0  0  0  0  0  0  0  0  0  0
    9.5665  -16.4299   26.8389 C   0  0  0  0  0  0  0  0  0  0  0  0
   10.2716  -17.0100   27.9187 O   0  0  0  0  0  0  0  0  0  0  0  0
    8.8583  -17.1715   26.1247 O   0  0  0  0  0  0  0  0  0  0  0  0
  2  1  1  6
  2  3  1  0
  3  4  1  0
  4  5  1  0
  5  9  1  0
  6  5  2  0
  7  8  2  0
  7  2  1  0
 11 10  1  1
 12 11  1  0
 13 14  1  6
 13 11  1  0
 14  7  1  0
 15 13  1  0
 16 15  2  0
 18 19  1  0
 18 17  1  0
 20 19  1  0
 21 20  1  6
 21 22  1  0
 22 15  1  0
 23 21  1  0
 23 24  1  0
 25 23  2  0
M  END
$$$$
