EVM.pdb
     RDKit          3D

 25 24  0  0  1  0  0  0  0  0999 V2000
   13.6525  -14.1522   18.8062 N   0  0  0  0  0  0  0  0  0  0  0  0
   12.4766  -15.0059   18.8494 C   0  0  1  0  0  0  0  0  0  0  0  0
   12.9348  -16.4173   18.9649 C   0  0  0  0  0  0  0  0  0  0  0  0
   13.8318  -16.6370   20.1346 C   0  0  0  0  0  0  0  0  0  0  0  0
   14.2567  -18.0342   20.2746 C   0  0  0  0  0  0  0  0  0  0  0  0
   13.7164  -18.7865   21.1069 O   0  0  0  0  0  0  0  0  0  0  0  0
   11.6756  -14.5852   20.0520 C   0  0  0  0  0  0  0  0  0  0  0  0
   12.2668  -14.3838   21.1462 O   0  0  0  0  0  0  0  0  0  0  0  0
   15.2750  -18.5928   19.4955 O   0  0  0  0  0  0  0  0  0  0  0  0
    7.1828  -13.4396   21.7326 C   0  0  0  0  0  0  0  0  0  0  0  0
    8.1085  -13.7699   20.5869 C   0  0  1  0  0  0  0  0  0  0  0  0
    8.0090  -12.8450   19.4318 C   0  0  0  0  0  0  0  0  0  0  0  0
    9.4771  -13.9990   21.1371 C   0  0  2  0  0  0  0  0  0  0  0  0
   10.2951  -14.4154   19.9766 N   0  0  0  0  0  0  0  0  0  0  0  0
    9.4408  -15.1055   22.1238 C   0  0  0  0  0  0  0  0  0  0  0  0
   10.4858  -15.7647   22.4268 O   0  0  0  0  0  0  0  0  0  0  0  0
    5.6347  -12.0455   27.1792 C   0  0  0  0  0  0  0  0  0  0  0  0
    7.2319  -12.6925   26.6673 S   0  0  0  0  0  0  0  0  0  0  0  0
    7.0765  -13.9752   25.3841 C   0  0  0  0  0  0  0  0  0  0  0  0
    8.3938  -14.5199   24.9735 C   0  0  0  0  0  0  0  0  0  0  0  0
    8.2566  -15.8179   24.2258 C   0  0  2  0  0  0  0  0  0  0  0  0
    8.2605  -15.4843   22.7752 N   0  0  0  0  0  0  0  0  0  0  0  0
    6.9621  -16.4483   24.5654 C   0  0  0  0  0  0  0  0  0  0  0  0
    5.9154  -16.3632   23.6185 O   0  0  0  0  0  0  0  0  0  0  0  0
    6.7449  -17.0497   25.6391 O   0  0  0  0  0  0  0  0  0  0  0  0
  2  1  1  1
  2  3  1  0
  3  4  1  0
  4  5  1  0
  5  9  1  0
  6  5  2  0
  7  8  2  0
  7  2  1  0
 11 10  1  1
 12 11  1  0
 13 14  1  6
 13 11  1  0
 14  7  1  0
 15 13  1  0
 16 15  2  0
 18 19  1  0
 18 17  1  0
 20 19  1  0
 21 20  1  1
 21 22  1  0
 22 15  1  0
 23 21  1  0
 23 24  1  0
 25 23  2  0
M  END
$$$$
