EVM.pdb
     RDKit          3D

 25 24  0  0  1  0  0  0  0  0999 V2000
   12.2837  -17.3870   18.9104 N   0  0  0  0  0  0  0  0  0  0  0  0
   11.1263  -17.8834   19.6365 C   0  0  1  0  0  0  0  0  0  0  0  0
   11.5521  -19.0689   20.4292 C   0  0  0  0  0  0  0  0  0  0  0  0
   12.8412  -18.8500   21.1442 C   0  0  0  0  0  0  0  0  0  0  0  0
   13.3110  -20.0446   21.8545 C   0  0  0  0  0  0  0  0  0  0  0  0
   14.3882  -20.0347   22.4793 O   0  0  0  0  0  0  0  0  0  0  0  0
   10.6560  -16.7642   20.5261 C   0  0  0  0  0  0  0  0  0  0  0  0
   11.5074  -16.0233   21.0861 O   0  0  0  0  0  0  0  0  0  0  0  0
   12.5897  -21.2426   21.8713 O   0  0  0  0  0  0  0  0  0  0  0  0
    6.6303  -16.4750   21.2224 C   0  0  0  0  0  0  0  0  0  0  0  0
    7.4056  -15.1825   21.1384 C   0  0  1  0  0  0  0  0  0  0  0  0
    6.7164  -14.0139   21.7374 C   0  0  0  0  0  0  0  0  0  0  0  0
    8.8013  -15.4386   21.6018 C   0  0  2  0  0  0  0  0  0  0  0  0
    9.2991  -16.5341   20.7409 N   0  0  0  0  0  0  0  0  0  0  0  0
    8.7837  -15.9017   23.0105 C   0  0  0  0  0  0  0  0  0  0  0  0
    8.9363  -17.1282   23.3122 O   0  0  0  0  0  0  0  0  0  0  0  0
    5.5433  -11.2390   26.9465 C   0  0  0  0  0  0  0  0  0  0  0  0
    7.0620  -12.1458   27.2675 S   0  0  0  0  0  0  0  0  0  0  0  0
    7.2263  -13.6137   26.2024 C   0  0  0  0  0  0  0  0  0  0  0  0
    8.5386  -14.2844   26.3707 C   0  0  0  0  0  0  0  0  0  0  0  0
    8.6664  -15.4976   25.4906 C   0  0  2  0  0  0  0  0  0  0  0  0
    8.6001  -15.0197   24.0824 N   0  0  0  0  0  0  0  0  0  0  0  0
    7.5275  -16.4086   25.7379 C   0  0  0  0  0  0  0  0  0  0  0  0
    7.6350  -17.3280   26.8069 O   0  0  0  0  0  0  0  0  0  0  0  0
    6.4800  -16.4092   25.0565 O   0  0  0  0  0  0  0  0  0  0  0  0
  2  1  1  1
  2  3  1  0
  3  4  1  0
  4  5  1  0
  5  9  1  0
  6  5  2  0
  7  8  2  0
  7  2  1  0
 11 10  1  1
 12 11  1  0
 13 14  1  6
 13 11  1  0
 14  7  1  0
 15 13  1  0
 16 15  2  0
 18 19  1  0
 18 17  1  0
 20 19  1  0
 21 20  1  1
 21 22  1  0
 22 15  1  0
 23 21  1  0
 23 24  1  0
 25 23  2  0
M  END
$$$$
