EVM.pdb
     RDKit          3D

 25 24  0  0  1  0  0  0  0  0999 V2000
    6.5150  -15.6487   22.0062 N   0  0  0  0  0  0  0  0  0  0  0  0
    7.9296  -15.9650   22.1168 C   0  0  1  0  0  0  0  0  0  0  0  0
    8.5699  -15.6823   20.8032 C   0  0  0  0  0  0  0  0  0  0  0  0
    8.4496  -16.8198   19.8479 C   0  0  0  0  0  0  0  0  0  0  0  0
    9.7490  -17.3735   19.4518 C   0  0  0  0  0  0  0  0  0  0  0  0
   10.1410  -17.3034   18.2718 O   0  0  0  0  0  0  0  0  0  0  0  0
    8.4894  -15.0879   23.2041 C   0  0  0  0  0  0  0  0  0  0  0  0
    9.7297  -14.8699   23.2422 O   0  0  0  0  0  0  0  0  0  0  0  0
   10.6082  -18.0009   20.3596 O   0  0  0  0  0  0  0  0  0  0  0  0
    7.4552  -12.3833   27.1867 C   0  0  0  0  0  0  0  0  0  0  0  0
    7.0504  -12.9982   25.8689 C   0  0  1  0  0  0  0  0  0  0  0  0
    6.4444  -12.0450   24.9078 C   0  0  0  0  0  0  0  0  0  0  0  0
    8.1898  -13.8180   25.3609 C   0  0  2  0  0  0  0  0  0  0  0  0
    7.6621  -14.5147   24.1671 N   0  0  0  0  0  0  0  0  0  0  0  0
    8.5730  -14.8266   26.3783 C   0  0  0  0  0  0  0  0  0  0  0  0
    7.7381  -15.6775   26.8226 O   0  0  0  0  0  0  0  0  0  0  0  0
   13.0716  -18.2917   23.9159 C   0  0  0  0  0  0  0  0  0  0  0  0
   13.0798  -17.7721   25.6369 S   0  0  0  0  0  0  0  0  0  0  0  0
   11.4983  -17.0206   26.1373 C   0  0  0  0  0  0  0  0  0  0  0  0
   11.5335  -16.5168   27.5320 C   0  0  0  0  0  0  0  0  0  0  0  0
   10.2214  -15.9062   27.9420 C   0  0  2  0  0  0  0  0  0  0  0  0
    9.8689  -14.8998   26.9036 N   0  0  0  0  0  0  0  0  0  0  0  0
   10.3833  -15.2143   29.2395 C   0  0  0  0  0  0  0  0  0  0  0  0
   10.3888  -13.8002   29.2398 O   0  0  0  0  0  0  0  0  0  0  0  0
   10.5146  -15.8094   30.3305 O   0  0  0  0  0  0  0  0  0  0  0  0
  2  1  1  6
  2  3  1  0
  3  4  1  0
  4  5  1  0
  5  9  1  0
  6  5  2  0
  7  8  2  0
  7  2  1  0
 11 10  1  1
 12 11  1  0
 13 14  1  6
 13 11  1  0
 14  7  1  0
 15 13  1  0
 16 15  2  0
 18 19  1  0
 18 17  1  0
 20 19  1  0
 21 20  1  6
 21 22  1  0
 22 15  1  0
 23 21  1  0
 23 24  1  0
 25 23  2  0
M  END
$$$$
