EFY.pdb
     RDKit          3D

 33 34  0  0  1  0  0  0  0  0999 V2000
   10.7340  -16.6785   19.9244 N   0  0  0  0  0  0  0  0  0  0  0  0
   10.0786  -17.2706   21.0611 C   0  0  1  0  0  0  0  0  0  0  0  0
   10.8541  -18.4506   21.6132 C   0  0  0  0  0  0  0  0  0  0  0  0
   10.6748  -19.6824   20.7714 C   0  0  0  0  0  0  0  0  0  0  0  0
   11.4368  -20.7943   21.3853 C   0  0  0  0  0  0  0  0  0  0  0  0
   12.5496  -20.5762   21.9144 O   0  0  0  0  0  0  0  0  0  0  0  0
   10.0690  -16.2293   22.1546 C   0  0  0  0  0  0  0  0  0  0  0  0
   11.0603  -15.4977   22.3628 O   0  0  0  0  0  0  0  0  0  0  0  0
   10.9333  -22.0775   21.3819 O   0  0  0  0  0  0  0  0  0  0  0  0
    8.8932  -16.1384   22.9091 N   0  0  0  0  0  0  0  0  0  0  0  0
    8.8288  -15.1270   24.0160 C   0  0  1  0  0  0  0  0  0  0  0  0
    7.5361  -14.4219   23.9440 C   0  0  0  0  0  0  0  0  0  0  0  0
    7.2986  -13.4900   25.0318 C   0  0  0  0  0  0  0  0  0  0  0  0
    7.9045  -12.2277   25.0707 C   0  0  0  0  0  0  0  0  0  0  0  0
    7.6209  -11.3385   26.0802 C   0  0  0  0  0  0  0  0  0  0  0  0
    6.7402  -11.6262   27.0978 C   0  0  0  0  0  0  0  0  0  0  0  0
    6.1412  -12.8655   27.0655 C   0  0  0  0  0  0  0  0  0  0  0  0
    6.4177  -13.7675   26.0573 C   0  0  0  0  0  0  0  0  0  0  0  0
    9.2376  -15.7968   25.2408 C   0  0  0  0  0  0  0  0  0  0  0  0
    8.8805  -17.0204   25.4504 O   0  0  0  0  0  0  0  0  0  0  0  0
   14.6886  -18.0054   23.0472 O   0  0  0  0  0  0  0  0  0  0  0  0
   14.0308  -17.5000   24.1568 C   0  0  0  0  0  0  0  0  0  0  0  0
   13.7526  -18.3085   25.2353 C   0  0  0  0  0  0  0  0  0  0  0  0
   13.0922  -17.7979   26.3472 C   0  0  0  0  0  0  0  0  0  0  0  0
   12.6927  -16.4866   26.4218 C   0  0  0  0  0  0  0  0  0  0  0  0
   11.9862  -15.8559   27.5447 C   0  0  0  0  0  0  0  0  0  0  0  0
   10.5092  -16.0098   27.3922 C   0  0  2  0  0  0  0  0  0  0  0  0
   10.0152  -15.2358   26.2507 N   0  0  0  0  0  0  0  0  0  0  0  0
    9.8258  -15.5871   28.5967 C   0  0  0  0  0  0  0  0  0  0  0  0
    9.0216  -14.6394   28.5939 O   0  0  0  0  0  0  0  0  0  0  0  0
   12.9931  -15.6980   25.3080 C   0  0  0  0  0  0  0  0  0  0  0  0
   13.6408  -16.1799   24.2065 C   0  0  0  0  0  0  0  0  0  0  0  0
   10.0359  -16.2237   29.8051 O   0  0  0  0  0  0  0  0  0  0  0  0
  2  1  1  6
  2  3  1  0
  3  4  1  0
  4  5  1  0
  5  6  2  0
  5  9  1  0
  7  2  1  0
  7  8  2  0
 10  7  1  0
 11 10  1  0
 11 12  1  1
 12 13  1  0
 13 18  1  0
 13 14  2  0
 14 15  1  0
 15 16  2  0
 17 16  1  0
 18 17  2  0
 19 11  1  0
 20 19  2  0
 22 32  2  0
 22 21  1  0
 23 22  1  0
 24 25  1  0
 24 23  2  0
 25 31  2  0
 26 25  1  0
 27 26  1  1
 27 28  1  0
 28 19  1  0
 29 33  1  0
 29 27  1  0
 30 29  2  0
 31 32  1  0
M  END
$$$$
