EFY.pdb
     RDKit          3D

 33 34  0  0  1  0  0  0  0  0999 V2000
    9.7526  -16.2907   19.7013 N   0  0  0  0  0  0  0  0  0  0  0  0
   10.0313  -17.0110   20.9160 C   0  0  1  0  0  0  0  0  0  0  0  0
   11.4499  -17.5451   20.9473 C   0  0  0  0  0  0  0  0  0  0  0  0
   11.5255  -18.9639   20.4580 C   0  0  0  0  0  0  0  0  0  0  0  0
   12.9167  -19.4479   20.6122 C   0  0  0  0  0  0  0  0  0  0  0  0
   13.1486  -20.5013   21.2466 O   0  0  0  0  0  0  0  0  0  0  0  0
    9.9349  -16.0166   22.0485 C   0  0  0  0  0  0  0  0  0  0  0  0
   10.8024  -15.1323   22.2113 O   0  0  0  0  0  0  0  0  0  0  0  0
   13.9693  -18.7483   20.0620 O   0  0  0  0  0  0  0  0  0  0  0  0
    8.8253  -16.1486   22.8921 N   0  0  0  0  0  0  0  0  0  0  0  0
    8.6616  -15.1705   24.0185 C   0  0  1  0  0  0  0  0  0  0  0  0
    7.2818  -14.6516   24.0035 C   0  0  0  0  0  0  0  0  0  0  0  0
    6.9528  -13.7870   25.1226 C   0  0  0  0  0  0  0  0  0  0  0  0
    7.3589  -12.4473   25.1675 C   0  0  0  0  0  0  0  0  0  0  0  0
    6.9875  -11.6306   26.2093 C   0  0  0  0  0  0  0  0  0  0  0  0
    6.2076  -12.0690   27.2550 C   0  0  0  0  0  0  0  0  0  0  0  0
    5.8050  -13.3851   27.2171 C   0  0  0  0  0  0  0  0  0  0  0  0
    6.1714  -14.2155   26.1765 C   0  0  0  0  0  0  0  0  0  0  0  0
    9.2037  -15.7927   25.2163 C   0  0  0  0  0  0  0  0  0  0  0  0
    9.0230  -17.0556   25.4187 O   0  0  0  0  0  0  0  0  0  0  0  0
   14.8007  -18.2016   23.3851 O   0  0  0  0  0  0  0  0  0  0  0  0
   14.0995  -17.5466   24.3844 C   0  0  0  0  0  0  0  0  0  0  0  0
   13.7775  -16.2145   24.2571 C   0  0  0  0  0  0  0  0  0  0  0  0
   13.0738  -15.5603   25.2620 C   0  0  0  0  0  0  0  0  0  0  0  0
   12.6735  -16.1994   26.4092 C   0  0  0  0  0  0  0  0  0  0  0  0
   11.9351  -15.5971   27.5271 C   0  0  0  0  0  0  0  0  0  0  0  0
   10.4690  -15.8371   27.3815 C   0  0  2  0  0  0  0  0  0  0  0  0
    9.9369  -15.1432   26.2062 N   0  0  0  0  0  0  0  0  0  0  0  0
    9.7607  -15.3981   28.5656 C   0  0  0  0  0  0  0  0  0  0  0  0
    8.9500  -14.4565   28.5312 O   0  0  0  0  0  0  0  0  0  0  0  0
   13.0188  -17.5504   26.5014 C   0  0  0  0  0  0  0  0  0  0  0  0
   13.7093  -18.2113   25.5259 C   0  0  0  0  0  0  0  0  0  0  0  0
    9.9532  -16.0115   29.7888 O   0  0  0  0  0  0  0  0  0  0  0  0
  2  1  1  6
  2  3  1  0
  3  4  1  0
  4  5  1  0
  5  6  2  0
  5  9  1  0
  7  2  1  0
  7  8  2  0
 10  7  1  0
 11 10  1  0
 11 12  1  1
 12 13  1  0
 13 18  1  0
 13 14  2  0
 14 15  1  0
 15 16  2  0
 17 16  1  0
 18 17  2  0
 19 11  1  0
 20 19  2  0
 22 32  2  0
 22 21  1  0
 23 22  1  0
 24 25  1  0
 24 23  2  0
 25 31  2  0
 26 25  1  0
 27 26  1  1
 27 28  1  0
 28 19  1  0
 29 33  1  0
 29 27  1  0
 30 29  2  0
 31 32  1  0
M  END
$$$$
