EFY.pdb
     RDKit          3D

 33 34  0  0  1  0  0  0  0  0999 V2000
    8.5129  -17.5113   19.7554 N   0  0  0  0  0  0  0  0  0  0  0  0
    9.8442  -17.4500   20.2994 C   0  0  1  0  0  0  0  0  0  0  0  0
   10.8576  -16.9864   19.2714 C   0  0  0  0  0  0  0  0  0  0  0  0
   10.6302  -17.6276   17.9316 C   0  0  0  0  0  0  0  0  0  0  0  0
   11.5588  -18.7723   17.7871 C   0  0  0  0  0  0  0  0  0  0  0  0
   12.7949  -18.5789   17.7604 O   0  0  0  0  0  0  0  0  0  0  0  0
    9.8301  -16.3928   21.3776 C   0  0  0  0  0  0  0  0  0  0  0  0
   10.8145  -15.6473   21.5685 O   0  0  0  0  0  0  0  0  0  0  0  0
   11.0767  -20.0593   17.6809 O   0  0  0  0  0  0  0  0  0  0  0  0
    8.6583  -16.3037   22.1385 N   0  0  0  0  0  0  0  0  0  0  0  0
    8.6154  -15.3254   23.2758 C   0  0  1  0  0  0  0  0  0  0  0  0
    7.2847  -14.6919   23.3108 C   0  0  0  0  0  0  0  0  0  0  0  0
    7.1165  -13.7049   24.3623 C   0  0  0  0  0  0  0  0  0  0  0  0
    7.6313  -12.4072   24.2488 C   0  0  0  0  0  0  0  0  0  0  0  0
    7.4110  -11.4710   25.2313 C   0  0  0  0  0  0  0  0  0  0  0  0
    6.6842  -11.7439   26.3677 C   0  0  0  0  0  0  0  0  0  0  0  0
    6.1755  -13.0178   26.4856 C   0  0  0  0  0  0  0  0  0  0  0  0
    6.3898  -13.9671   25.5060 C   0  0  0  0  0  0  0  0  0  0  0  0
    9.1424  -16.0019   24.4507 C   0  0  0  0  0  0  0  0  0  0  0  0
    8.3359  -16.3828   25.3850 O   0  0  0  0  0  0  0  0  0  0  0  0
   10.4598  -17.1515   31.5323 O   0  0  0  0  0  0  0  0  0  0  0  0
   10.4803  -16.5530   30.2830 C   0  0  0  0  0  0  0  0  0  0  0  0
    9.8812  -17.1621   29.2039 C   0  0  0  0  0  0  0  0  0  0  0  0
    9.9038  -16.5586   27.9516 C   0  0  0  0  0  0  0  0  0  0  0  0
   10.5138  -15.3480   27.7345 C   0  0  0  0  0  0  0  0  0  0  0  0
   10.5974  -14.6345   26.4532 C   0  0  0  0  0  0  0  0  0  0  0  0
   11.3691  -15.4317   25.4545 C   0  0  2  0  0  0  0  0  0  0  0  0
   10.4827  -16.3032   24.6795 N   0  0  0  0  0  0  0  0  0  0  0  0
   12.3808  -16.2314   26.1130 C   0  0  0  0  0  0  0  0  0  0  0  0
   13.2831  -15.7139   26.7933 O   0  0  0  0  0  0  0  0  0  0  0  0
   11.1103  -14.7614   28.8538 C   0  0  0  0  0  0  0  0  0  0  0  0
   11.0992  -15.3374   30.0920 C   0  0  0  0  0  0  0  0  0  0  0  0
   12.3848  -17.6099   26.0162 O   0  0  0  0  0  0  0  0  0  0  0  0
  2  1  1  6
  2  3  1  0
  3  4  1  0
  4  5  1  0
  5  6  2  0
  5  9  1  0
  7  2  1  0
  7  8  2  0
 10  7  1  0
 11 10  1  0
 11 12  1  1
 12 13  1  0
 13 18  1  0
 13 14  2  0
 14 15  1  0
 15 16  2  0
 17 16  1  0
 18 17  2  0
 19 11  1  0
 20 19  2  0
 22 32  2  0
 22 21  1  0
 23 22  1  0
 24 25  1  0
 24 23  2  0
 25 31  2  0
 26 25  1  0
 27 26  1  1
 27 28  1  0
 28 19  1  0
 29 33  1  0
 29 27  1  0
 30 29  2  0
 31 32  1  0
M  END
$$$$
