EFY.pdb
     RDKit          3D

 33 34  0  0  1  0  0  0  0  0999 V2000
    8.5073  -18.6663   20.2284 N   0  0  0  0  0  0  0  0  0  0  0  0
    9.6193  -17.8480   19.8212 C   0  0  1  0  0  0  0  0  0  0  0  0
    9.4877  -17.3847   18.3836 C   0  0  0  0  0  0  0  0  0  0  0  0
   10.7469  -17.6250   17.5997 C   0  0  0  0  0  0  0  0  0  0  0  0
   10.3813  -18.0636   16.2331 C   0  0  0  0  0  0  0  0  0  0  0  0
    9.9392  -17.2360   15.4051 O   0  0  0  0  0  0  0  0  0  0  0  0
    9.5785  -16.5981   20.6677 C   0  0  0  0  0  0  0  0  0  0  0  0
   10.4013  -15.6731   20.4992 O   0  0  0  0  0  0  0  0  0  0  0  0
   10.5224  -19.3821   15.8568 O   0  0  0  0  0  0  0  0  0  0  0  0
    8.5725  -16.5445   21.6399 N   0  0  0  0  0  0  0  0  0  0  0  0
    8.5701  -15.3956   22.6055 C   0  0  1  0  0  0  0  0  0  0  0  0
    7.2586  -15.3384   23.2763 C   0  0  0  0  0  0  0  0  0  0  0  0
    7.1416  -14.2949   24.2791 C   0  0  0  0  0  0  0  0  0  0  0  0
    7.4104  -12.9521   23.9849 C   0  0  0  0  0  0  0  0  0  0  0  0
    7.2377  -11.9724   24.9339 C   0  0  0  0  0  0  0  0  0  0  0  0
    6.7979  -12.2433   26.2095 C   0  0  0  0  0  0  0  0  0  0  0  0
    6.5319  -13.5614   26.5053 C   0  0  0  0  0  0  0  0  0  0  0  0
    6.7015  -14.5546   25.5611 C   0  0  0  0  0  0  0  0  0  0  0  0
    9.7953  -15.4807   23.3849 C   0  0  0  0  0  0  0  0  0  0  0  0
   10.8606  -14.8798   22.9694 O   0  0  0  0  0  0  0  0  0  0  0  0
   10.0289  -15.7757   31.4509 O   0  0  0  0  0  0  0  0  0  0  0  0
   10.3886  -15.5635   30.1299 C   0  0  0  0  0  0  0  0  0  0  0  0
   10.2235  -14.3271   29.5483 C   0  0  0  0  0  0  0  0  0  0  0  0
   10.5855  -14.1177   28.2224 C   0  0  0  0  0  0  0  0  0  0  0  0
   11.1154  -15.1160   27.4430 C   0  0  0  0  0  0  0  0  0  0  0  0
   11.5214  -14.9974   26.0363 C   0  0  0  0  0  0  0  0  0  0  0  0
   11.2252  -16.2578   25.2933 C   0  0  2  0  0  0  0  0  0  0  0  0
    9.9441  -16.1642   24.5890 N   0  0  0  0  0  0  0  0  0  0  0  0
   11.1997  -17.3883   26.1977 C   0  0  0  0  0  0  0  0  0  0  0  0
   10.1454  -17.9919   26.4604 O   0  0  0  0  0  0  0  0  0  0  0  0
   11.2677  -16.3562   28.0688 C   0  0  0  0  0  0  0  0  0  0  0  0
   10.9186  -16.5824   29.3696 C   0  0  0  0  0  0  0  0  0  0  0  0
   12.3512  -17.8491   26.8071 O   0  0  0  0  0  0  0  0  0  0  0  0
  2  1  1  1
  2  3  1  0
  3  4  1  0
  4  5  1  0
  5  6  2  0
  5  9  1  0
  7  2  1  0
  7  8  2  0
 10  7  1  0
 11 10  1  0
 11 12  1  1
 12 13  1  0
 13 18  1  0
 13 14  2  0
 14 15  1  0
 15 16  2  0
 17 16  1  0
 18 17  2  0
 19 11  1  0
 20 19  2  0
 22 32  2  0
 22 21  1  0
 23 22  1  0
 24 25  1  0
 24 23  2  0
 25 31  2  0
 26 25  1  0
 27 26  1  1
 27 28  1  0
 28 19  1  0
 29 33  1  0
 29 27  1  0
 30 29  2  0
 31 32  1  0
M  END
$$$$
