EFY.pdb
     RDKit          3D

 33 34  0  0  1  0  0  0  0  0999 V2000
    7.2413  -13.9414   17.6365 N   0  0  0  0  0  0  0  0  0  0  0  0
    7.9311  -15.0633   18.2175 C   0  0  1  0  0  0  0  0  0  0  0  0
    9.1596  -15.4510   17.4181 C   0  0  0  0  0  0  0  0  0  0  0  0
    9.0745  -16.8622   16.9088 C   0  0  0  0  0  0  0  0  0  0  0  0
   10.3301  -17.1874   16.1935 C   0  0  0  0  0  0  0  0  0  0  0  0
   11.1736  -17.9475   16.7194 O   0  0  0  0  0  0  0  0  0  0  0  0
    8.4364  -14.6168   19.5687 C   0  0  0  0  0  0  0  0  0  0  0  0
    9.2534  -13.6779   19.6782 O   0  0  0  0  0  0  0  0  0  0  0  0
   10.5849  -16.6601   14.9458 O   0  0  0  0  0  0  0  0  0  0  0  0
    7.9363  -15.3139   20.6751 N   0  0  0  0  0  0  0  0  0  0  0  0
    8.2025  -14.7662   22.0468 C   0  0  1  0  0  0  0  0  0  0  0  0
    6.9473  -14.2212   22.5952 C   0  0  0  0  0  0  0  0  0  0  0  0
    7.0650  -13.6722   23.9342 C   0  0  0  0  0  0  0  0  0  0  0  0
    7.5122  -12.3644   24.1614 C   0  0  0  0  0  0  0  0  0  0  0  0
    7.5612  -11.8452   25.4335 C   0  0  0  0  0  0  0  0  0  0  0  0
    7.1812  -12.5637   26.5440 C   0  0  0  0  0  0  0  0  0  0  0  0
    6.7407  -13.8501   26.3277 C   0  0  0  0  0  0  0  0  0  0  0  0
    6.6869  -14.3831   25.0551 C   0  0  0  0  0  0  0  0  0  0  0  0
    8.9520  -15.7749   22.7793 C   0  0  0  0  0  0  0  0  0  0  0  0
    8.4119  -16.9232   23.0207 O   0  0  0  0  0  0  0  0  0  0  0  0
   10.7181  -16.1881   30.9883 O   0  0  0  0  0  0  0  0  0  0  0  0
   10.4635  -15.8828   29.6612 C   0  0  0  0  0  0  0  0  0  0  0  0
   10.6420  -14.6021   29.1898 C   0  0  0  0  0  0  0  0  0  0  0  0
   10.3855  -14.2992   27.8574 C   0  0  0  0  0  0  0  0  0  0  0  0
    9.9493  -15.2455   26.9635 C   0  0  0  0  0  0  0  0  0  0  0  0
    9.6453  -15.0248   25.5434 C   0  0  0  0  0  0  0  0  0  0  0  0
   10.5927  -15.7856   24.6763 C   0  0  2  0  0  0  0  0  0  0  0  0
   10.2507  -15.6294   23.2605 N   0  0  0  0  0  0  0  0  0  0  0  0
   10.5856  -17.1911   25.0245 C   0  0  0  0  0  0  0  0  0  0  0  0
   11.1357  -17.6120   26.0565 O   0  0  0  0  0  0  0  0  0  0  0  0
    9.7803  -16.5331   27.4795 C   0  0  0  0  0  0  0  0  0  0  0  0
   10.0267  -16.8512   28.7846 C   0  0  0  0  0  0  0  0  0  0  0  0
    9.9613  -18.1282   24.2235 O   0  0  0  0  0  0  0  0  0  0  0  0
  2  1  1  6
  2  3  1  0
  3  4  1  0
  4  5  1  0
  5  6  2  0
  5  9  1  0
  7  2  1  0
  7  8  2  0
 10  7  1  0
 11 10  1  0
 11 12  1  1
 12 13  1  0
 13 18  1  0
 13 14  2  0
 14 15  1  0
 15 16  2  0
 17 16  1  0
 18 17  2  0
 19 11  1  0
 20 19  2  0
 22 32  2  0
 22 21  1  0
 23 22  1  0
 24 25  1  0
 24 23  2  0
 25 31  2  0
 26 25  1  0
 27 26  1  1
 27 28  1  0
 28 19  1  0
 29 33  1  0
 29 27  1  0
 30 29  2  0
 31 32  1  0
M  END
$$$$
