EFY.pdb
     RDKit          3D

 33 34  0  0  1  0  0  0  0  0999 V2000
    9.0324  -17.9596   21.0481 N   0  0  0  0  0  0  0  0  0  0  0  0
   10.2131  -17.1446   20.9310 C   0  0  1  0  0  0  0  0  0  0  0  0
   10.2991  -16.4592   19.5814 C   0  0  0  0  0  0  0  0  0  0  0  0
   10.8917  -17.3580   18.5330 C   0  0  0  0  0  0  0  0  0  0  0  0
    9.7960  -18.0948   17.8621 C   0  0  0  0  0  0  0  0  0  0  0  0
    8.6032  -17.8287   18.1314 O   0  0  0  0  0  0  0  0  0  0  0  0
   10.0876  -16.0397   21.9528 C   0  0  0  0  0  0  0  0  0  0  0  0
   10.8564  -15.0549   21.9414 O   0  0  0  0  0  0  0  0  0  0  0  0
   10.0737  -19.0782   16.9370 O   0  0  0  0  0  0  0  0  0  0  0  0
    9.0676  -16.1890   22.9002 N   0  0  0  0  0  0  0  0  0  0  0  0
    8.9410  -15.1593   23.9846 C   0  0  1  0  0  0  0  0  0  0  0  0
    7.6580  -14.4514   23.8235 C   0  0  0  0  0  0  0  0  0  0  0  0
    7.3422  -13.5278   24.8984 C   0  0  0  0  0  0  0  0  0  0  0  0
    6.4663  -13.8712   25.9360 C   0  0  0  0  0  0  0  0  0  0  0  0
    6.2259  -13.0029   26.9745 C   0  0  0  0  0  0  0  0  0  0  0  0
    6.8193  -11.7641   27.0593 C   0  0  0  0  0  0  0  0  0  0  0  0
    7.6813  -11.4202   26.0424 C   0  0  0  0  0  0  0  0  0  0  0  0
    7.9310  -12.2833   24.9939 C   0  0  0  0  0  0  0  0  0  0  0  0
    9.2726  -15.8103   25.2425 C   0  0  0  0  0  0  0  0  0  0  0  0
    8.7764  -16.9722   25.5115 O   0  0  0  0  0  0  0  0  0  0  0  0
   14.2673  -17.6776   22.4814 O   0  0  0  0  0  0  0  0  0  0  0  0
   13.7202  -17.3227   23.7037 C   0  0  0  0  0  0  0  0  0  0  0  0
   13.2389  -18.2848   24.5622 C   0  0  0  0  0  0  0  0  0  0  0  0
   12.6904  -17.9251   25.7880 C   0  0  0  0  0  0  0  0  0  0  0  0
   12.6038  -16.6166   26.1943 C   0  0  0  0  0  0  0  0  0  0  0  0
   12.0380  -16.1358   27.4618 C   0  0  0  0  0  0  0  0  0  0  0  0
   10.5484  -16.0753   27.3856 C   0  0  2  0  0  0  0  0  0  0  0  0
   10.1127  -15.2938   26.2257 N   0  0  0  0  0  0  0  0  0  0  0  0
    9.9994  -15.4966   28.5940 C   0  0  0  0  0  0  0  0  0  0  0  0
   10.1714  -16.0219   29.7073 O   0  0  0  0  0  0  0  0  0  0  0  0
   13.1029  -15.6696   25.2960 C   0  0  0  0  0  0  0  0  0  0  0  0
   13.6454  -16.0020   24.0876 C   0  0  0  0  0  0  0  0  0  0  0  0
    9.2609  -14.3291   28.5622 O   0  0  0  0  0  0  0  0  0  0  0  0
  2  1  1  6
  2  3  1  0
  3  4  1  0
  4  5  1  0
  5  6  2  0
  5  9  1  0
  7  2  1  0
  7  8  2  0
 10  7  1  0
 11 10  1  0
 11 12  1  1
 12 13  1  0
 13 18  1  0
 13 14  2  0
 14 15  1  0
 15 16  2  0
 17 16  1  0
 18 17  2  0
 19 11  1  0
 20 19  2  0
 22 32  2  0
 22 21  1  0
 23 22  1  0
 24 25  1  0
 24 23  2  0
 25 31  2  0
 26 25  1  0
 27 26  1  1
 27 28  1  0
 28 19  1  0
 29 33  1  0
 29 27  1  0
 30 29  2  0
 31 32  1  0
M  END
$$$$
