EFY.pdb
     RDKit          3D

 33 34  0  0  1  0  0  0  0  0999 V2000
    9.5415  -16.7537   18.3365 N   0  0  0  0  0  0  0  0  0  0  0  0
    9.6716  -17.4783   19.5735 C   0  0  1  0  0  0  0  0  0  0  0  0
   10.9894  -18.2229   19.6602 C   0  0  0  0  0  0  0  0  0  0  0  0
   11.6575  -18.3379   18.3191 C   0  0  0  0  0  0  0  0  0  0  0  0
   12.5765  -19.4992   18.3423 C   0  0  0  0  0  0  0  0  0  0  0  0
   12.6956  -20.2261   17.3307 O   0  0  0  0  0  0  0  0  0  0  0  0
    9.6978  -16.4535   20.6824 C   0  0  0  0  0  0  0  0  0  0  0  0
   10.6550  -15.6609   20.8110 O   0  0  0  0  0  0  0  0  0  0  0  0
   13.3089  -19.7934   19.4724 O   0  0  0  0  0  0  0  0  0  0  0  0
    8.5947  -16.4497   21.5446 N   0  0  0  0  0  0  0  0  0  0  0  0
    8.5385  -15.4158   22.6310 C   0  0  1  0  0  0  0  0  0  0  0  0
    7.1618  -14.8969   22.7254 C   0  0  0  0  0  0  0  0  0  0  0  0
    6.9396  -13.9803   23.8294 C   0  0  0  0  0  0  0  0  0  0  0  0
    7.3312  -12.6370   23.7665 C   0  0  0  0  0  0  0  0  0  0  0  0
    7.0594  -11.7724   24.8003 C   0  0  0  0  0  0  0  0  0  0  0  0
    6.3976  -12.1642   25.9416 C   0  0  0  0  0  0  0  0  0  0  0  0
    6.0100  -13.4835   26.0099 C   0  0  0  0  0  0  0  0  0  0  0  0
    6.2772  -14.3618   24.9785 C   0  0  0  0  0  0  0  0  0  0  0  0
    9.1979  -15.9774   23.7996 C   0  0  0  0  0  0  0  0  0  0  0  0
    9.0221  -17.2222   24.0966 O   0  0  0  0  0  0  0  0  0  0  0  0
   11.8597  -16.8732   32.0179 O   0  0  0  0  0  0  0  0  0  0  0  0
   11.5633  -16.3147   30.7852 C   0  0  0  0  0  0  0  0  0  0  0  0
   10.8429  -15.1451   30.7005 C   0  0  0  0  0  0  0  0  0  0  0  0
   10.5472  -14.5874   29.4618 C   0  0  0  0  0  0  0  0  0  0  0  0
   10.9520  -15.1659   28.2843 C   0  0  0  0  0  0  0  0  0  0  0  0
   10.6853  -14.6605   26.9311 C   0  0  0  0  0  0  0  0  0  0  0  0
   10.3963  -15.7865   25.9946 C   0  0  2  0  0  0  0  0  0  0  0  0
   10.0429  -15.2860   24.6640 N   0  0  0  0  0  0  0  0  0  0  0  0
    9.3198  -16.6098   26.5045 C   0  0  0  0  0  0  0  0  0  0  0  0
    8.1338  -16.2418   26.4518 O   0  0  0  0  0  0  0  0  0  0  0  0
   11.6808  -16.3514   28.4116 C   0  0  0  0  0  0  0  0  0  0  0  0
   11.9817  -16.9153   29.6184 C   0  0  0  0  0  0  0  0  0  0  0  0
    9.5650  -17.8464   27.0705 O   0  0  0  0  0  0  0  0  0  0  0  0
  2  1  1  6
  2  3  1  0
  3  4  1  0
  4  5  1  0
  5  6  2  0
  5  9  1  0
  7  2  1  0
  7  8  2  0
 10  7  1  0
 11 10  1  0
 11 12  1  1
 12 13  1  0
 13 18  1  0
 13 14  2  0
 14 15  1  0
 15 16  2  0
 17 16  1  0
 18 17  2  0
 19 11  1  0
 20 19  2  0
 22 32  2  0
 22 21  1  0
 23 22  1  0
 24 25  1  0
 24 23  2  0
 25 31  2  0
 26 25  1  0
 27 26  1  1
 27 28  1  0
 28 19  1  0
 29 33  1  0
 29 27  1  0
 30 29  2  0
 31 32  1  0
M  END
$$$$
