EFY.pdb
     RDKit          3D

 33 34  0  0  1  0  0  0  0  0999 V2000
    8.3609  -17.5240   19.0660 N   0  0  0  0  0  0  0  0  0  0  0  0
    9.7617  -17.2895   19.3001 C   0  0  1  0  0  0  0  0  0  0  0  0
   10.4189  -16.5685   18.1396 C   0  0  0  0  0  0  0  0  0  0  0  0
   10.3810  -17.3848   16.8786 C   0  0  0  0  0  0  0  0  0  0  0  0
   11.6230  -18.1871   16.7925 C   0  0  0  0  0  0  0  0  0  0  0  0
   12.5147  -18.0592   17.6610 O   0  0  0  0  0  0  0  0  0  0  0  0
    9.8593  -16.3542   20.4816 C   0  0  0  0  0  0  0  0  0  0  0  0
   10.8788  -15.6584   20.6759 O   0  0  0  0  0  0  0  0  0  0  0  0
   11.8123  -19.0807   15.7601 O   0  0  0  0  0  0  0  0  0  0  0  0
    8.7484  -16.3181   21.3329 N   0  0  0  0  0  0  0  0  0  0  0  0
    8.8084  -15.4449   22.5521 C   0  0  1  0  0  0  0  0  0  0  0  0
    7.5145  -14.7563   22.7101 C   0  0  0  0  0  0  0  0  0  0  0  0
    7.4058  -13.9504   23.9131 C   0  0  0  0  0  0  0  0  0  0  0  0
    7.8106  -12.6099   23.9451 C   0  0  0  0  0  0  0  0  0  0  0  0
    7.6455  -11.8487   25.0781 C   0  0  0  0  0  0  0  0  0  0  0  0
    7.0825  -12.3457   26.2313 C   0  0  0  0  0  0  0  0  0  0  0  0
    6.6825  -13.6629   26.2065 C   0  0  0  0  0  0  0  0  0  0  0  0
    6.8429  -14.4380   25.0751 C   0  0  0  0  0  0  0  0  0  0  0  0
    9.3549  -16.2478   23.6349 C   0  0  0  0  0  0  0  0  0  0  0  0
    8.5903  -17.0755   24.2663 O   0  0  0  0  0  0  0  0  0  0  0  0
   11.0335  -15.4803   31.8629 O   0  0  0  0  0  0  0  0  0  0  0  0
   10.9445  -15.4003   30.4826 C   0  0  0  0  0  0  0  0  0  0  0  0
   11.4480  -16.4053   29.6883 C   0  0  0  0  0  0  0  0  0  0  0  0
   11.3570  -16.3217   28.3035 C   0  0  0  0  0  0  0  0  0  0  0  0
   10.7714  -15.2522   27.6727 C   0  0  0  0  0  0  0  0  0  0  0  0
   10.6329  -15.0682   26.2219 C   0  0  0  0  0  0  0  0  0  0  0  0
   11.0400  -16.3050   25.4918 C   0  0  2  0  0  0  0  0  0  0  0  0
   10.6758  -16.2231   24.0752 N   0  0  0  0  0  0  0  0  0  0  0  0
   10.4224  -17.4730   26.0843 C   0  0  0  0  0  0  0  0  0  0  0  0
   11.0851  -18.3137   26.7159 O   0  0  0  0  0  0  0  0  0  0  0  0
   10.2724  -14.2530   28.5126 C   0  0  0  0  0  0  0  0  0  0  0  0
   10.3517  -14.3160   29.8745 C   0  0  0  0  0  0  0  0  0  0  0  0
    9.0641  -17.7026   25.9759 O   0  0  0  0  0  0  0  0  0  0  0  0
  2  1  1  6
  2  3  1  0
  3  4  1  0
  4  5  1  0
  5  6  2  0
  5  9  1  0
  7  2  1  0
  7  8  2  0
 10  7  1  0
 11 10  1  0
 11 12  1  1
 12 13  1  0
 13 18  1  0
 13 14  2  0
 14 15  1  0
 15 16  2  0
 17 16  1  0
 18 17  2  0
 19 11  1  0
 20 19  2  0
 22 32  2  0
 22 21  1  0
 23 22  1  0
 24 25  1  0
 24 23  2  0
 25 31  2  0
 26 25  1  0
 27 26  1  1
 27 28  1  0
 28 19  1  0
 29 33  1  0
 29 27  1  0
 30 29  2  0
 31 32  1  0
M  END
$$$$
