EFY.pdb
     RDKit          3D

 33 34  0  0  1  0  0  0  0  0999 V2000
    8.6939  -16.7288   18.0052 N   0  0  0  0  0  0  0  0  0  0  0  0
    8.7349  -17.4314   19.2608 C   0  0  1  0  0  0  0  0  0  0  0  0
    9.8746  -18.4298   19.3166 C   0  0  0  0  0  0  0  0  0  0  0  0
   10.4603  -18.6883   17.9572 C   0  0  0  0  0  0  0  0  0  0  0  0
   11.5266  -19.7084   18.0836 C   0  0  0  0  0  0  0  0  0  0  0  0
   12.6845  -19.4602   17.6791 O   0  0  0  0  0  0  0  0  0  0  0  0
    9.0267  -16.4051   20.3295 C   0  0  0  0  0  0  0  0  0  0  0  0
    9.9243  -15.5491   20.1792 O   0  0  0  0  0  0  0  0  0  0  0  0
   11.2594  -20.9384   18.6455 O   0  0  0  0  0  0  0  0  0  0  0  0
    8.2366  -16.4745   21.4832 N   0  0  0  0  0  0  0  0  0  0  0  0
    8.3987  -15.4089   22.5275 C   0  0  1  0  0  0  0  0  0  0  0  0
    7.0817  -14.8065   22.8034 C   0  0  0  0  0  0  0  0  0  0  0  0
    7.0445  -13.9563   23.9797 C   0  0  0  0  0  0  0  0  0  0  0  0
    7.5039  -12.6334   23.9518 C   0  0  0  0  0  0  0  0  0  0  0  0
    7.4063  -11.8277   25.0615 C   0  0  0  0  0  0  0  0  0  0  0  0
    6.8612  -12.2613   26.2485 C   0  0  0  0  0  0  0  0  0  0  0  0
    6.4078  -13.5608   26.2828 C   0  0  0  0  0  0  0  0  0  0  0  0
    6.5002  -14.3801   25.1751 C   0  0  0  0  0  0  0  0  0  0  0  0
    9.1924  -15.9756   23.6067 C   0  0  0  0  0  0  0  0  0  0  0  0
    8.7695  -17.0261   24.2281 O   0  0  0  0  0  0  0  0  0  0  0  0
   11.4712  -16.2427   31.6909 O   0  0  0  0  0  0  0  0  0  0  0  0
   11.1124  -15.8949   30.3987 C   0  0  0  0  0  0  0  0  0  0  0  0
   11.0030  -14.5725   30.0335 C   0  0  0  0  0  0  0  0  0  0  0  0
   10.6425  -14.2271   28.7359 C   0  0  0  0  0  0  0  0  0  0  0  0
   10.3828  -15.1711   27.7735 C   0  0  0  0  0  0  0  0  0  0  0  0
    9.9901  -14.9089   26.3826 C   0  0  0  0  0  0  0  0  0  0  0  0
   10.8770  -15.6471   25.4356 C   0  0  2  0  0  0  0  0  0  0  0  0
   10.4181  -15.4885   24.0535 N   0  0  0  0  0  0  0  0  0  0  0  0
   10.9230  -17.0545   25.7726 C   0  0  0  0  0  0  0  0  0  0  0  0
   11.8412  -17.5326   26.4606 O   0  0  0  0  0  0  0  0  0  0  0  0
   10.5045  -16.5018   28.1826 C   0  0  0  0  0  0  0  0  0  0  0  0
   10.8573  -16.8620   29.4517 C   0  0  0  0  0  0  0  0  0  0  0  0
    9.9426  -17.9297   25.3455 O   0  0  0  0  0  0  0  0  0  0  0  0
  2  1  1  6
  2  3  1  0
  3  4  1  0
  4  5  1  0
  5  6  2  0
  5  9  1  0
  7  2  1  0
  7  8  2  0
 10  7  1  0
 11 10  1  0
 11 12  1  1
 12 13  1  0
 13 18  1  0
 13 14  2  0
 14 15  1  0
 15 16  2  0
 17 16  1  0
 18 17  2  0
 19 11  1  0
 20 19  2  0
 22 32  2  0
 22 21  1  0
 23 22  1  0
 24 25  1  0
 24 23  2  0
 25 31  2  0
 26 25  1  0
 27 26  1  1
 27 28  1  0
 28 19  1  0
 29 33  1  0
 29 27  1  0
 30 29  2  0
 31 32  1  0
M  END
$$$$
