EFY.pdb
     RDKit          3D

 33 34  0  0  1  0  0  0  0  0999 V2000
    8.4602  -17.1984   19.0657 N   0  0  0  0  0  0  0  0  0  0  0  0
    9.5056  -17.5464   19.9920 C   0  0  1  0  0  0  0  0  0  0  0  0
   10.8591  -17.6343   19.3147 C   0  0  0  0  0  0  0  0  0  0  0  0
   10.8728  -18.6647   18.2211 C   0  0  0  0  0  0  0  0  0  0  0  0
   12.2024  -18.6497   17.5685 C   0  0  0  0  0  0  0  0  0  0  0  0
   12.2893  -18.5991   16.3212 O   0  0  0  0  0  0  0  0  0  0  0  0
    9.6086  -16.4131   20.9846 C   0  0  0  0  0  0  0  0  0  0  0  0
   10.4079  -15.4687   20.8106 O   0  0  0  0  0  0  0  0  0  0  0  0
   13.3557  -18.6911   18.3223 O   0  0  0  0  0  0  0  0  0  0  0  0
    8.7616  -16.4886   22.0968 N   0  0  0  0  0  0  0  0  0  0  0  0
    8.6648  -15.2982   23.0056 C   0  0  1  0  0  0  0  0  0  0  0  0
    7.2447  -15.0422   23.3075 C   0  0  0  0  0  0  0  0  0  0  0  0
    7.0179  -13.9923   24.2844 C   0  0  0  0  0  0  0  0  0  0  0  0
    6.5467  -14.2702   25.5739 C   0  0  0  0  0  0  0  0  0  0  0  0
    6.3937  -13.2673   26.5018 C   0  0  0  0  0  0  0  0  0  0  0  0
    6.6882  -11.9511   26.2283 C   0  0  0  0  0  0  0  0  0  0  0  0
    7.1517  -11.6711   24.9625 C   0  0  0  0  0  0  0  0  0  0  0  0
    7.3096  -12.6692   24.0215 C   0  0  0  0  0  0  0  0  0  0  0  0
    9.6250  -15.4934   24.0807 C   0  0  0  0  0  0  0  0  0  0  0  0
    9.5958  -14.7173   25.1129 O   0  0  0  0  0  0  0  0  0  0  0  0
   10.2471  -15.8726   31.4586 O   0  0  0  0  0  0  0  0  0  0  0  0
   10.5960  -15.7598   30.1226 C   0  0  0  0  0  0  0  0  0  0  0  0
   11.1181  -16.8356   29.4412 C   0  0  0  0  0  0  0  0  0  0  0  0
   11.4672  -16.7188   28.1006 C   0  0  0  0  0  0  0  0  0  0  0  0
   11.3111  -15.5460   27.4041 C   0  0  0  0  0  0  0  0  0  0  0  0
   11.6545  -15.3206   25.9937 C   0  0  0  0  0  0  0  0  0  0  0  0
   11.5696  -16.5942   25.2197 C   0  0  2  0  0  0  0  0  0  0  0  0
   10.6092  -16.4778   24.1197 N   0  0  0  0  0  0  0  0  0  0  0  0
   11.1864  -17.6910   26.0838 C   0  0  0  0  0  0  0  0  0  0  0  0
   11.8678  -18.0141   27.0718 O   0  0  0  0  0  0  0  0  0  0  0  0
   10.7782  -14.4773   28.1298 C   0  0  0  0  0  0  0  0  0  0  0  0
   10.4289  -14.5714   29.4467 C   0  0  0  0  0  0  0  0  0  0  0  0
   10.0402  -18.4263   25.8488 O   0  0  0  0  0  0  0  0  0  0  0  0
  2  1  1  6
  2  3  1  0
  3  4  1  0
  4  5  1  0
  5  6  2  0
  5  9  1  0
  7  2  1  0
  7  8  2  0
 10  7  1  0
 11 10  1  0
 11 12  1  1
 12 13  1  0
 13 18  1  0
 13 14  2  0
 14 15  1  0
 15 16  2  0
 17 16  1  0
 18 17  2  0
 19 11  1  0
 20 19  2  0
 22 32  2  0
 22 21  1  0
 23 22  1  0
 24 25  1  0
 24 23  2  0
 25 31  2  0
 26 25  1  0
 27 26  1  1
 27 28  1  0
 28 19  1  0
 29 33  1  0
 29 27  1  0
 30 29  2  0
 31 32  1  0
M  END
$$$$
