EFY.pdb
     RDKit          3D

 33 34  0  0  1  0  0  0  0  0999 V2000
    9.2559  -16.1395   18.4571 N   0  0  0  0  0  0  0  0  0  0  0  0
    9.5844  -16.9452   19.6038 C   0  0  1  0  0  0  0  0  0  0  0  0
   10.9473  -17.5955   19.4700 C   0  0  0  0  0  0  0  0  0  0  0  0
   10.9802  -18.6042   18.3567 C   0  0  0  0  0  0  0  0  0  0  0  0
   12.3263  -19.2204   18.3112 C   0  0  0  0  0  0  0  0  0  0  0  0
   12.9748  -19.2344   17.2411 O   0  0  0  0  0  0  0  0  0  0  0  0
    9.6828  -16.0092   20.7848 C   0  0  0  0  0  0  0  0  0  0  0  0
   10.6317  -15.2042   20.8975 O   0  0  0  0  0  0  0  0  0  0  0  0
   12.8799  -19.7836   19.4409 O   0  0  0  0  0  0  0  0  0  0  0  0
    8.6557  -16.1013   21.7318 N   0  0  0  0  0  0  0  0  0  0  0  0
    8.6324  -15.1134   22.8614 C   0  0  1  0  0  0  0  0  0  0  0  0
    7.2630  -14.5873   23.0073 C   0  0  0  0  0  0  0  0  0  0  0  0
    7.0863  -13.6723   24.1207 C   0  0  0  0  0  0  0  0  0  0  0  0
    7.5153  -12.3403   24.0595 C   0  0  0  0  0  0  0  0  0  0  0  0
    7.2864  -11.4754   25.1033 C   0  0  0  0  0  0  0  0  0  0  0  0
    6.6334  -11.8557   26.2535 C   0  0  0  0  0  0  0  0  0  0  0  0
    6.2091  -13.1638   26.3202 C   0  0  0  0  0  0  0  0  0  0  0  0
    6.4330  -14.0424   25.2787 C   0  0  0  0  0  0  0  0  0  0  0  0
    9.3114  -15.7290   23.9909 C   0  0  0  0  0  0  0  0  0  0  0  0
    9.2380  -17.0072   24.1620 O   0  0  0  0  0  0  0  0  0  0  0  0
   12.4242  -17.2420   32.0047 O   0  0  0  0  0  0  0  0  0  0  0  0
   12.0595  -16.5968   30.8342 C   0  0  0  0  0  0  0  0  0  0  0  0
   11.0734  -15.6366   30.8410 C   0  0  0  0  0  0  0  0  0  0  0  0
   10.7098  -14.9912   29.6645 C   0  0  0  0  0  0  0  0  0  0  0  0
   11.3058  -15.2752   28.4608 C   0  0  0  0  0  0  0  0  0  0  0  0
   10.9892  -14.6562   27.1668 C   0  0  0  0  0  0  0  0  0  0  0  0
   10.5079  -15.6817   26.1948 C   0  0  2  0  0  0  0  0  0  0  0  0
   10.0730  -15.0565   24.9433 N   0  0  0  0  0  0  0  0  0  0  0  0
    9.4158  -16.4463   26.7597 C   0  0  0  0  0  0  0  0  0  0  0  0
    8.2833  -15.9565   26.9096 O   0  0  0  0  0  0  0  0  0  0  0  0
   12.3018  -16.2548   28.4947 C   0  0  0  0  0  0  0  0  0  0  0  0
   12.6736  -16.9003   29.6393 C   0  0  0  0  0  0  0  0  0  0  0  0
    9.5849  -17.7596   27.1549 O   0  0  0  0  0  0  0  0  0  0  0  0
  2  1  1  6
  2  3  1  0
  3  4  1  0
  4  5  1  0
  5  6  2  0
  5  9  1  0
  7  2  1  0
  7  8  2  0
 10  7  1  0
 11 10  1  0
 11 12  1  1
 12 13  1  0
 13 18  1  0
 13 14  2  0
 14 15  1  0
 15 16  2  0
 17 16  1  0
 18 17  2  0
 19 11  1  0
 20 19  2  0
 22 32  2  0
 22 21  1  0
 23 22  1  0
 24 25  1  0
 24 23  2  0
 25 31  2  0
 26 25  1  0
 27 26  1  1
 27 28  1  0
 28 19  1  0
 29 33  1  0
 29 27  1  0
 30 29  2  0
 31 32  1  0
M  END
$$$$
