EFY.pdb
     RDKit          3D

 33 34  0  0  1  0  0  0  0  0999 V2000
    9.2013  -18.2030   21.3118 N   0  0  0  0  0  0  0  0  0  0  0  0
   10.4932  -17.9009   21.8701 C   0  0  1  0  0  0  0  0  0  0  0  0
   11.5037  -17.5365   20.8002 C   0  0  0  0  0  0  0  0  0  0  0  0
   11.1080  -18.0675   19.4513 C   0  0  0  0  0  0  0  0  0  0  0  0
   12.1684  -17.7269   18.4750 C   0  0  0  0  0  0  0  0  0  0  0  0
   11.9809  -16.8177   17.6358 O   0  0  0  0  0  0  0  0  0  0  0  0
   10.3254  -16.6663   22.7233 C   0  0  0  0  0  0  0  0  0  0  0  0
   11.3088  -15.9764   23.0669 O   0  0  0  0  0  0  0  0  0  0  0  0
   13.3696  -18.4030   18.4776 O   0  0  0  0  0  0  0  0  0  0  0  0
    9.0143  -16.3498   23.0988 N   0  0  0  0  0  0  0  0  0  0  0  0
    8.7973  -15.2105   24.0513 C   0  0  1  0  0  0  0  0  0  0  0  0
    7.3984  -14.7580   23.9435 C   0  0  0  0  0  0  0  0  0  0  0  0
    7.0033  -13.7834   24.9447 C   0  0  0  0  0  0  0  0  0  0  0  0
    6.1968  -14.1290   26.0364 C   0  0  0  0  0  0  0  0  0  0  0  0
    5.8821  -13.2039   27.0036 C   0  0  0  0  0  0  0  0  0  0  0  0
    6.3310  -11.9036   26.9617 C   0  0  0  0  0  0  0  0  0  0  0  0
    7.1242  -11.5572   25.8909 C   0  0  0  0  0  0  0  0  0  0  0  0
    7.4473  -12.4770   24.9130 C   0  0  0  0  0  0  0  0  0  0  0  0
    9.3477  -15.6089   25.3374 C   0  0  0  0  0  0  0  0  0  0  0  0
    9.6578  -14.7060   26.2077 O   0  0  0  0  0  0  0  0  0  0  0  0
    5.5908  -21.3615   24.1937 O   0  0  0  0  0  0  0  0  0  0  0  0
    6.2249  -20.4598   25.0328 C   0  0  0  0  0  0  0  0  0  0  0  0
    7.1385  -20.8939   25.9662 C   0  0  0  0  0  0  0  0  0  0  0  0
    7.7729  -19.9862   26.8068 C   0  0  0  0  0  0  0  0  0  0  0  0
    7.5234  -18.6374   26.7478 C   0  0  0  0  0  0  0  0  0  0  0  0
    8.1343  -17.6028   27.5929 C   0  0  0  0  0  0  0  0  0  0  0  0
    9.5347  -17.3246   27.1573 C   0  0  2  0  0  0  0  0  0  0  0  0
    9.5769  -16.9189   25.7503 N   0  0  0  0  0  0  0  0  0  0  0  0
   10.3697  -18.4917   27.3505 C   0  0  0  0  0  0  0  0  0  0  0  0
   10.5458  -18.9909   28.4751 O   0  0  0  0  0  0  0  0  0  0  0  0
    6.5905  -18.2359   25.7879 C   0  0  0  0  0  0  0  0  0  0  0  0
    5.9566  -19.1112   24.9529 C   0  0  0  0  0  0  0  0  0  0  0  0
   11.0064  -19.1054   26.2887 O   0  0  0  0  0  0  0  0  0  0  0  0
  2  1  1  6
  2  3  1  0
  3  4  1  0
  4  5  1  0
  5  6  2  0
  5  9  1  0
  7  2  1  0
  7  8  2  0
 10  7  1  0
 11 10  1  0
 11 12  1  1
 12 13  1  0
 13 18  1  0
 13 14  2  0
 14 15  1  0
 15 16  2  0
 17 16  1  0
 18 17  2  0
 19 11  1  0
 20 19  2  0
 22 32  2  0
 22 21  1  0
 23 22  1  0
 24 25  1  0
 24 23  2  0
 25 31  2  0
 26 25  1  0
 27 26  1  6
 27 28  1  0
 28 19  1  0
 29 33  1  0
 29 27  1  0
 30 29  2  0
 31 32  1  0
M  END
$$$$
