EFY.pdb
     RDKit          3D

 33 34  0  0  1  0  0  0  0  0999 V2000
    8.5228  -16.8956   18.3801 N   0  0  0  0  0  0  0  0  0  0  0  0
    9.4808  -17.4935   19.2728 C   0  0  1  0  0  0  0  0  0  0  0  0
   10.8635  -17.5682   18.6554 C   0  0  0  0  0  0  0  0  0  0  0  0
   11.1402  -18.9208   18.0622 C   0  0  0  0  0  0  0  0  0  0  0  0
   12.5162  -18.9287   17.5144 C   0  0  0  0  0  0  0  0  0  0  0  0
   13.4144  -19.5897   18.0821 O   0  0  0  0  0  0  0  0  0  0  0  0
    9.6050  -16.5739   20.4641 C   0  0  0  0  0  0  0  0  0  0  0  0
   10.5089  -15.7136   20.5284 O   0  0  0  0  0  0  0  0  0  0  0  0
   12.8244  -18.2120   16.3780 O   0  0  0  0  0  0  0  0  0  0  0  0
    8.6544  -16.7458   21.4775 N   0  0  0  0  0  0  0  0  0  0  0  0
    8.6745  -15.8039   22.6457 C   0  0  1  0  0  0  0  0  0  0  0  0
    7.2863  -15.4962   23.0349 C   0  0  0  0  0  0  0  0  0  0  0  0
    7.1652  -14.6170   24.1841 C   0  0  0  0  0  0  0  0  0  0  0  0
    6.7668  -15.0913   25.4403 C   0  0  0  0  0  0  0  0  0  0  0  0
    6.7144  -14.2526   26.5284 C   0  0  0  0  0  0  0  0  0  0  0  0
    7.0438  -12.9184   26.4543 C   0  0  0  0  0  0  0  0  0  0  0  0
    7.4361  -12.4456   25.2222 C   0  0  0  0  0  0  0  0  0  0  0  0
    7.4928  -13.2778   24.1217 C   0  0  0  0  0  0  0  0  0  0  0  0
    9.6132  -16.3394   23.6193 C   0  0  0  0  0  0  0  0  0  0  0  0
    9.7507  -17.6182   23.7388 O   0  0  0  0  0  0  0  0  0  0  0  0
    9.1413  -14.9643   31.1512 O   0  0  0  0  0  0  0  0  0  0  0  0
    9.8457  -15.0388   29.9606 C   0  0  0  0  0  0  0  0  0  0  0  0
   10.4100  -16.2262   29.5531 C   0  0  0  0  0  0  0  0  0  0  0  0
   11.1162  -16.2974   28.3576 C   0  0  0  0  0  0  0  0  0  0  0  0
   11.2822  -15.2067   27.5406 C   0  0  0  0  0  0  0  0  0  0  0  0
   12.0136  -15.1782   26.2670 C   0  0  0  0  0  0  0  0  0  0  0  0
   11.4548  -16.1829   25.3149 C   0  0  2  0  0  0  0  0  0  0  0  0
   10.4209  -15.5850   24.4665 N   0  0  0  0  0  0  0  0  0  0  0  0
   10.9001  -17.3115   26.0325 C   0  0  0  0  0  0  0  0  0  0  0  0
   11.6249  -18.1895   26.5314 O   0  0  0  0  0  0  0  0  0  0  0  0
   10.6949  -14.0202   27.9881 C   0  0  0  0  0  0  0  0  0  0  0  0
    9.9974  -13.9293   29.1587 C   0  0  0  0  0  0  0  0  0  0  0  0
    9.5362  -17.4602   26.1976 O   0  0  0  0  0  0  0  0  0  0  0  0
  2  1  1  6
  2  3  1  0
  3  4  1  0
  4  5  1  0
  5  6  2  0
  5  9  1  0
  7  2  1  0
  7  8  2  0
 10  7  1  0
 11 10  1  0
 11 12  1  1
 12 13  1  0
 13 18  1  0
 13 14  2  0
 14 15  1  0
 15 16  2  0
 17 16  1  0
 18 17  2  0
 19 11  1  0
 20 19  2  0
 22 32  2  0
 22 21  1  0
 23 22  1  0
 24 25  1  0
 24 23  2  0
 25 31  2  0
 26 25  1  0
 27 26  1  1
 27 28  1  0
 28 19  1  0
 29 33  1  0
 29 27  1  0
 30 29  2  0
 31 32  1  0
M  END
$$$$
