EFY.pdb
     RDKit          3D

 33 34  0  0  1  0  0  0  0  0999 V2000
    8.0727  -17.9402   19.0672 N   0  0  0  0  0  0  0  0  0  0  0  0
    9.3877  -17.3559   19.0292 C   0  0  1  0  0  0  0  0  0  0  0  0
    9.6058  -16.5276   17.7782 C   0  0  0  0  0  0  0  0  0  0  0  0
    9.0921  -17.2228   16.5491 C   0  0  0  0  0  0  0  0  0  0  0  0
   10.0693  -17.0357   15.4520 C   0  0  0  0  0  0  0  0  0  0  0  0
   10.7392  -18.0070   15.0352 O   0  0  0  0  0  0  0  0  0  0  0  0
    9.4737  -16.3916   20.1882 C   0  0  0  0  0  0  0  0  0  0  0  0
   10.4386  -15.6071   20.3095 O   0  0  0  0  0  0  0  0  0  0  0  0
   10.2531  -15.7959   14.8784 O   0  0  0  0  0  0  0  0  0  0  0  0
    8.4164  -16.4336   21.1050 N   0  0  0  0  0  0  0  0  0  0  0  0
    8.5360  -15.6398   22.3731 C   0  0  1  0  0  0  0  0  0  0  0  0
    7.2236  -15.0486   22.6918 C   0  0  0  0  0  0  0  0  0  0  0  0
    7.1823  -14.3184   23.9461 C   0  0  0  0  0  0  0  0  0  0  0  0
    7.6203  -12.9916   24.0451 C   0  0  0  0  0  0  0  0  0  0  0  0
    7.5187  -12.3003   25.2291 C   0  0  0  0  0  0  0  0  0  0  0  0
    6.9901  -12.8571   26.3713 C   0  0  0  0  0  0  0  0  0  0  0  0
    6.5578  -14.1611   26.2808 C   0  0  0  0  0  0  0  0  0  0  0  0
    6.6544  -14.8663   25.0976 C   0  0  0  0  0  0  0  0  0  0  0  0
    9.2257  -16.4744   23.3445 C   0  0  0  0  0  0  0  0  0  0  0  0
    8.5768  -17.4032   23.9648 O   0  0  0  0  0  0  0  0  0  0  0  0
   11.5279  -14.9732   31.3015 O   0  0  0  0  0  0  0  0  0  0  0  0
   11.1565  -15.0987   29.9728 C   0  0  0  0  0  0  0  0  0  0  0  0
   10.7640  -16.3169   29.4667 C   0  0  0  0  0  0  0  0  0  0  0  0
   10.3920  -16.4392   28.1327 C   0  0  0  0  0  0  0  0  0  0  0  0
   10.3982  -15.3704   27.2711 C   0  0  0  0  0  0  0  0  0  0  0  0
   10.0308  -15.3982   25.8491 C   0  0  0  0  0  0  0  0  0  0  0  0
   11.0303  -16.1782   25.0610 C   0  0  2  0  0  0  0  0  0  0  0  0
   10.5729  -16.3787   23.6838 N   0  0  0  0  0  0  0  0  0  0  0  0
   11.2781  -17.4628   25.6814 C   0  0  0  0  0  0  0  0  0  0  0  0
   11.8245  -17.5572   26.7938 O   0  0  0  0  0  0  0  0  0  0  0  0
   10.8023  -14.1513   27.8219 C   0  0  0  0  0  0  0  0  0  0  0  0
   11.1714  -14.0100   29.1292 C   0  0  0  0  0  0  0  0  0  0  0  0
   10.9133  -18.6435   25.0630 O   0  0  0  0  0  0  0  0  0  0  0  0
  2  1  1  6
  2  3  1  0
  3  4  1  0
  4  5  1  0
  5  6  2  0
  5  9  1  0
  7  2  1  0
  7  8  2  0
 10  7  1  0
 11 10  1  0
 11 12  1  1
 12 13  1  0
 13 18  1  0
 13 14  2  0
 14 15  1  0
 15 16  2  0
 17 16  1  0
 18 17  2  0
 19 11  1  0
 20 19  2  0
 22 32  2  0
 22 21  1  0
 23 22  1  0
 24 25  1  0
 24 23  2  0
 25 31  2  0
 26 25  1  0
 27 26  1  1
 27 28  1  0
 28 19  1  0
 29 33  1  0
 29 27  1  0
 30 29  2  0
 31 32  1  0
M  END
$$$$
