EFY.pdb
     RDKit          3D

 33 34  0  0  1  0  0  0  0  0999 V2000
    8.9633  -18.0153   21.1757 N   0  0  0  0  0  0  0  0  0  0  0  0
   10.2436  -17.3602   21.2372 C   0  0  1  0  0  0  0  0  0  0  0  0
   10.6241  -16.7307   19.9115 C   0  0  0  0  0  0  0  0  0  0  0  0
   11.6415  -17.5530   19.1720 C   0  0  0  0  0  0  0  0  0  0  0  0
   11.0467  -18.0124   17.8957 C   0  0  0  0  0  0  0  0  0  0  0  0
    9.9210  -17.5961   17.5417 O   0  0  0  0  0  0  0  0  0  0  0  0
   10.1068  -16.2192   22.2168 C   0  0  0  0  0  0  0  0  0  0  0  0
   10.9852  -15.3355   22.3105 O   0  0  0  0  0  0  0  0  0  0  0  0
   11.7215  -18.8999   17.0851 O   0  0  0  0  0  0  0  0  0  0  0  0
    8.9478  -16.2163   23.0021 N   0  0  0  0  0  0  0  0  0  0  0  0
    8.8003  -15.1595   24.0575 C   0  0  1  0  0  0  0  0  0  0  0  0
    7.4438  -14.5882   23.9748 C   0  0  0  0  0  0  0  0  0  0  0  0
    7.1179  -13.6571   25.0402 C   0  0  0  0  0  0  0  0  0  0  0  0
    6.3829  -14.0487   26.1664 C   0  0  0  0  0  0  0  0  0  0  0  0
    6.1349  -13.1657   27.1906 C   0  0  0  0  0  0  0  0  0  0  0  0
    6.5845  -11.8651   27.1751 C   0  0  0  0  0  0  0  0  0  0  0  0
    7.3075  -11.4736   26.0708 C   0  0  0  0  0  0  0  0  0  0  0  0
    7.5632  -12.3508   25.0356 C   0  0  0  0  0  0  0  0  0  0  0  0
    9.2901  -15.7216   25.3064 C   0  0  0  0  0  0  0  0  0  0  0  0
    8.9107  -16.9019   25.6688 O   0  0  0  0  0  0  0  0  0  0  0  0
   14.5807  -18.5834   23.2864 O   0  0  0  0  0  0  0  0  0  0  0  0
   13.9908  -17.8845   24.3270 C   0  0  0  0  0  0  0  0  0  0  0  0
   13.7526  -18.4967   25.5364 C   0  0  0  0  0  0  0  0  0  0  0  0
   13.1604  -17.7922   26.5785 C   0  0  0  0  0  0  0  0  0  0  0  0
   12.7910  -16.4758   26.4540 C   0  0  0  0  0  0  0  0  0  0  0  0
   12.1556  -15.6498   27.4893 C   0  0  0  0  0  0  0  0  0  0  0  0
   10.6685  -15.7455   27.4017 C   0  0  2  0  0  0  0  0  0  0  0  0
   10.1707  -15.0970   26.1861 N   0  0  0  0  0  0  0  0  0  0  0  0
   10.0497  -15.1399   28.5623 C   0  0  0  0  0  0  0  0  0  0  0  0
    9.3296  -14.1312   28.4679 O   0  0  0  0  0  0  0  0  0  0  0  0
   13.0492  -15.8896   25.2120 C   0  0  0  0  0  0  0  0  0  0  0  0
   13.6299  -16.5639   24.1760 C   0  0  0  0  0  0  0  0  0  0  0  0
   10.2306  -15.6612   29.8292 O   0  0  0  0  0  0  0  0  0  0  0  0
  2  1  1  6
  2  3  1  0
  3  4  1  0
  4  5  1  0
  5  6  2  0
  5  9  1  0
  7  2  1  0
  7  8  2  0
 10  7  1  0
 11 10  1  0
 11 12  1  1
 12 13  1  0
 13 18  1  0
 13 14  2  0
 14 15  1  0
 15 16  2  0
 17 16  1  0
 18 17  2  0
 19 11  1  0
 20 19  2  0
 22 32  2  0
 22 21  1  0
 23 22  1  0
 24 25  1  0
 24 23  2  0
 25 31  2  0
 26 25  1  0
 27 26  1  1
 27 28  1  0
 28 19  1  0
 29 33  1  0
 29 27  1  0
 30 29  2  0
 31 32  1  0
M  END
$$$$
