EFY.pdb
     RDKit          3D

 33 34  0  0  1  0  0  0  0  0999 V2000
    9.4418  -16.3389   18.6399 N   0  0  0  0  0  0  0  0  0  0  0  0
    9.6194  -17.1774   19.7963 C   0  0  1  0  0  0  0  0  0  0  0  0
   10.9497  -17.9043   19.7724 C   0  0  0  0  0  0  0  0  0  0  0  0
   11.5364  -17.9542   18.3899 C   0  0  0  0  0  0  0  0  0  0  0  0
   12.4101  -19.1455   18.2854 C   0  0  0  0  0  0  0  0  0  0  0  0
   13.6541  -19.0181   18.3324 O   0  0  0  0  0  0  0  0  0  0  0  0
    9.6644  -16.2645   20.9984 C   0  0  0  0  0  0  0  0  0  0  0  0
   10.7431  -15.7882   21.4115 O   0  0  0  0  0  0  0  0  0  0  0  0
   11.8678  -20.4039   18.1359 O   0  0  0  0  0  0  0  0  0  0  0  0
    8.4356  -15.9906   21.6109 N   0  0  0  0  0  0  0  0  0  0  0  0
    8.3998  -14.9897   22.7286 C   0  0  1  0  0  0  0  0  0  0  0  0
    7.0567  -14.3846   22.7848 C   0  0  0  0  0  0  0  0  0  0  0  0
    6.8813  -13.4084   23.8452 C   0  0  0  0  0  0  0  0  0  0  0  0
    6.2308  -13.7265   25.0442 C   0  0  0  0  0  0  0  0  0  0  0  0
    6.1265  -12.8038   26.0581 C   0  0  0  0  0  0  0  0  0  0  0  0
    6.6448  -11.5325   25.9616 C   0  0  0  0  0  0  0  0  0  0  0  0
    7.2854  -11.2133   24.7855 C   0  0  0  0  0  0  0  0  0  0  0  0
    7.3967  -12.1309   23.7597 C   0  0  0  0  0  0  0  0  0  0  0  0
    8.9714  -15.6296   23.9032 C   0  0  0  0  0  0  0  0  0  0  0  0
    8.8222  -16.9011   24.0751 O   0  0  0  0  0  0  0  0  0  0  0  0
   12.0639  -17.0332   32.0873 O   0  0  0  0  0  0  0  0  0  0  0  0
   11.7226  -16.4768   30.8654 C   0  0  0  0  0  0  0  0  0  0  0  0
   11.9889  -17.1450   29.6920 C   0  0  0  0  0  0  0  0  0  0  0  0
   11.6451  -16.5835   28.4674 C   0  0  0  0  0  0  0  0  0  0  0  0
   11.0346  -15.3576   28.3710 C   0  0  0  0  0  0  0  0  0  0  0  0
   10.6395  -14.6788   27.1296 C   0  0  0  0  0  0  0  0  0  0  0  0
   10.1167  -15.6609   26.1344 C   0  0  2  0  0  0  0  0  0  0  0  0
    9.7022  -14.9888   24.9005 N   0  0  0  0  0  0  0  0  0  0  0  0
    8.9981  -16.3974   26.6845 C   0  0  0  0  0  0  0  0  0  0  0  0
    7.8526  -15.9161   26.7208 O   0  0  0  0  0  0  0  0  0  0  0  0
   10.7808  -14.7108   29.5834 C   0  0  0  0  0  0  0  0  0  0  0  0
   11.1104  -15.2449   30.7963 C   0  0  0  0  0  0  0  0  0  0  0  0
    9.1552  -17.6732   27.1916 O   0  0  0  0  0  0  0  0  0  0  0  0
  2  1  1  6
  2  3  1  0
  3  4  1  0
  4  5  1  0
  5  6  2  0
  5  9  1  0
  7  2  1  0
  7  8  2  0
 10  7  1  0
 11 10  1  0
 11 12  1  1
 12 13  1  0
 13 18  1  0
 13 14  2  0
 14 15  1  0
 15 16  2  0
 17 16  1  0
 18 17  2  0
 19 11  1  0
 20 19  2  0
 22 32  2  0
 22 21  1  0
 23 22  1  0
 24 25  1  0
 24 23  2  0
 25 31  2  0
 26 25  1  0
 27 26  1  1
 27 28  1  0
 28 19  1  0
 29 33  1  0
 29 27  1  0
 30 29  2  0
 31 32  1  0
M  END
$$$$
