EFY.pdb
     RDKit          3D

 33 34  0  0  1  0  0  0  0  0999 V2000
    9.8721  -15.9862   18.5997 N   0  0  0  0  0  0  0  0  0  0  0  0
   10.1731  -16.8302   19.7263 C   0  0  1  0  0  0  0  0  0  0  0  0
   11.5645  -17.4253   19.6350 C   0  0  0  0  0  0  0  0  0  0  0  0
   11.6455  -18.5039   18.5919 C   0  0  0  0  0  0  0  0  0  0  0  0
   10.9816  -19.7213   19.1125 C   0  0  0  0  0  0  0  0  0  0  0  0
    9.7579  -19.8998   18.9212 O   0  0  0  0  0  0  0  0  0  0  0  0
   10.1774  -15.9450   20.9498 C   0  0  0  0  0  0  0  0  0  0  0  0
   11.1422  -15.1927   21.2030 O   0  0  0  0  0  0  0  0  0  0  0  0
   11.6988  -20.6688   19.8109 O   0  0  0  0  0  0  0  0  0  0  0  0
    9.0454  -16.0215   21.7700 N   0  0  0  0  0  0  0  0  0  0  0  0
    8.9353  -15.0742   22.9288 C   0  0  1  0  0  0  0  0  0  0  0  0
    7.5317  -14.6431   23.0614 C   0  0  0  0  0  0  0  0  0  0  0  0
    7.2766  -13.7658   24.1899 C   0  0  0  0  0  0  0  0  0  0  0  0
    7.6995  -12.4305   24.1999 C   0  0  0  0  0  0  0  0  0  0  0  0
    7.3971  -11.6013   25.2541 C   0  0  0  0  0  0  0  0  0  0  0  0
    6.6733  -12.0223   26.3463 C   0  0  0  0  0  0  0  0  0  0  0  0
    6.2548  -13.3339   26.3428 C   0  0  0  0  0  0  0  0  0  0  0  0
    6.5520  -14.1768   25.2903 C   0  0  0  0  0  0  0  0  0  0  0  0
    9.6310  -15.6805   24.0531 C   0  0  0  0  0  0  0  0  0  0  0  0
    9.6478  -16.9662   24.1768 O   0  0  0  0  0  0  0  0  0  0  0  0
   11.9500  -17.1835   32.3536 O   0  0  0  0  0  0  0  0  0  0  0  0
   11.7293  -16.5736   31.1294 C   0  0  0  0  0  0  0  0  0  0  0  0
   12.6905  -16.6095   30.1450 C   0  0  0  0  0  0  0  0  0  0  0  0
   12.4657  -15.9964   28.9176 C   0  0  0  0  0  0  0  0  0  0  0  0
   11.2955  -15.3372   28.6332 C   0  0  0  0  0  0  0  0  0  0  0  0
   10.9662  -14.6549   27.3747 C   0  0  0  0  0  0  0  0  0  0  0  0
   10.8153  -15.6404   26.2638 C   0  0  2  0  0  0  0  0  0  0  0  0
   10.3185  -14.9906   25.0484 N   0  0  0  0  0  0  0  0  0  0  0  0
    9.9131  -16.7061   26.6470 C   0  0  0  0  0  0  0  0  0  0  0  0
   10.3159  -17.8657   26.8418 O   0  0  0  0  0  0  0  0  0  0  0  0
   10.3447  -15.3228   29.6572 C   0  0  0  0  0  0  0  0  0  0  0  0
   10.5458  -15.9188   30.8694 C   0  0  0  0  0  0  0  0  0  0  0  0
    8.5607  -16.4785   26.8170 O   0  0  0  0  0  0  0  0  0  0  0  0
  2  1  1  6
  2  3  1  0
  3  4  1  0
  4  5  1  0
  5  6  2  0
  5  9  1  0
  7  2  1  0
  7  8  2  0
 10  7  1  0
 11 10  1  0
 11 12  1  1
 12 13  1  0
 13 18  1  0
 13 14  2  0
 14 15  1  0
 15 16  2  0
 17 16  1  0
 18 17  2  0
 19 11  1  0
 20 19  2  0
 22 32  2  0
 22 21  1  0
 23 22  1  0
 24 25  1  0
 24 23  2  0
 25 31  2  0
 26 25  1  0
 27 26  1  1
 27 28  1  0
 28 19  1  0
 29 33  1  0
 29 27  1  0
 30 29  2  0
 31 32  1  0
M  END
$$$$
