EFY.pdb
     RDKit          3D

 33 34  0  0  1  0  0  0  0  0999 V2000
    8.1623  -17.8113   19.8749 N   0  0  0  0  0  0  0  0  0  0  0  0
    9.4556  -17.2179   20.0927 C   0  0  1  0  0  0  0  0  0  0  0  0
   10.0249  -16.6142   18.8239 C   0  0  0  0  0  0  0  0  0  0  0  0
    9.6578  -17.4166   17.6076 C   0  0  0  0  0  0  0  0  0  0  0  0
   10.1706  -16.7208   16.4048 C   0  0  0  0  0  0  0  0  0  0  0  0
   11.4029  -16.6445   16.2010 O   0  0  0  0  0  0  0  0  0  0  0  0
    9.2553  -16.0666   21.0492 C   0  0  0  0  0  0  0  0  0  0  0  0
    9.8886  -14.9974   20.9192 O   0  0  0  0  0  0  0  0  0  0  0  0
    9.3021  -16.1511   15.4987 O   0  0  0  0  0  0  0  0  0  0  0  0
    8.3268  -16.2729   22.0765 N   0  0  0  0  0  0  0  0  0  0  0  0
    8.3472  -15.3464   23.2571 C   0  0  1  0  0  0  0  0  0  0  0  0
    6.9776  -14.8620   23.5076 C   0  0  0  0  0  0  0  0  0  0  0  0
    6.8413  -14.0300   24.6897 C   0  0  0  0  0  0  0  0  0  0  0  0
    6.3126  -14.5270   25.8878 C   0  0  0  0  0  0  0  0  0  0  0  0
    6.2459  -13.7381   27.0118 C   0  0  0  0  0  0  0  0  0  0  0  0
    6.6860  -12.4344   27.0314 C   0  0  0  0  0  0  0  0  0  0  0  0
    7.2068  -11.9396   25.8568 C   0  0  0  0  0  0  0  0  0  0  0  0
    7.2792  -12.7216   24.7211 C   0  0  0  0  0  0  0  0  0  0  0  0
    9.1028  -16.0038   24.3120 C   0  0  0  0  0  0  0  0  0  0  0  0
    8.4866  -16.4559   25.3534 O   0  0  0  0  0  0  0  0  0  0  0  0
    7.3008  -19.6186   29.6774 O   0  0  0  0  0  0  0  0  0  0  0  0
    8.1662  -19.3204   28.6374 C   0  0  0  0  0  0  0  0  0  0  0  0
    9.5078  -19.1261   28.8756 C   0  0  0  0  0  0  0  0  0  0  0  0
   10.3733  -18.8269   27.8296 C   0  0  0  0  0  0  0  0  0  0  0  0
    9.9398  -18.7128   26.5320 C   0  0  0  0  0  0  0  0  0  0  0  0
   10.7705  -18.3948   25.3629 C   0  0  0  0  0  0  0  0  0  0  0  0
   11.1667  -16.9556   25.3727 C   0  0  2  0  0  0  0  0  0  0  0  0
   10.4794  -16.2140   24.3126 N   0  0  0  0  0  0  0  0  0  0  0  0
   12.5989  -16.8202   25.2087 C   0  0  0  0  0  0  0  0  0  0  0  0
   13.4001  -17.3293   26.0112 O   0  0  0  0  0  0  0  0  0  0  0  0
    8.5721  -18.9170   26.3305 C   0  0  0  0  0  0  0  0  0  0  0  0
    7.7054  -19.2117   27.3440 C   0  0  0  0  0  0  0  0  0  0  0  0
   13.1392  -16.1199   24.1470 O   0  0  0  0  0  0  0  0  0  0  0  0
  2  1  1  6
  2  3  1  0
  3  4  1  0
  4  5  1  0
  5  6  2  0
  5  9  1  0
  7  2  1  0
  7  8  2  0
 10  7  1  0
 11 10  1  0
 11 12  1  1
 12 13  1  0
 13 18  1  0
 13 14  2  0
 14 15  1  0
 15 16  2  0
 17 16  1  0
 18 17  2  0
 19 11  1  0
 20 19  2  0
 22 32  2  0
 22 21  1  0
 23 22  1  0
 24 25  1  0
 24 23  2  0
 25 31  2  0
 26 25  1  0
 27 26  1  6
 27 28  1  0
 28 19  1  0
 29 33  1  0
 29 27  1  0
 30 29  2  0
 31 32  1  0
M  END
$$$$
