FLQ.pdb
     RDKit          3D

 29 29  0  0  1  0  0  0  0  0999 V2000
   24.3569  -16.3329  -18.1631 N   0  0  0  0  0  0  0  0  0  0  0  0
   24.3062  -16.3665  -16.7341 C   0  0  1  0  0  0  0  0  0  0  0  0
   23.0042  -15.7338  -16.2700 C   0  0  0  0  0  0  0  0  0  0  0  0
   23.1489  -14.2666  -16.4048 C   0  0  0  0  0  0  0  0  0  0  0  0
   22.5212  -13.5702  -17.4072 C   0  0  0  0  0  0  0  0  0  0  0  0
   22.6540  -12.1965  -17.5370 C   0  0  0  0  0  0  0  0  0  0  0  0
   23.4387  -11.5065  -16.6347 C   0  0  0  0  0  0  0  0  0  0  0  0
   24.0779  -12.1804  -15.6219 C   0  0  0  0  0  0  0  0  0  0  0  0
   23.9341  -13.5443  -15.5091 C   0  0  0  0  0  0  0  0  0  0  0  0
   24.2942  -17.7689  -16.2461 C   0  0  0  0  0  0  0  0  0  0  0  0
   23.5891  -18.6244  -16.8503 O   0  0  0  0  0  0  0  0  0  0  0  0
   28.5042  -20.2913  -13.3185 C   0  0  0  0  0  0  0  0  0  0  0  0
   27.5273  -19.9198  -14.4530 C   0  0  1  0  0  0  0  0  0  0  0  0
   27.7901  -20.9472  -15.5321 C   0  0  0  0  0  0  0  0  0  0  0  0
   26.1779  -19.9867  -13.8428 C   0  0  0  0  0  0  0  0  0  0  0  0
   25.0241  -19.5157  -14.6417 C   0  0  2  0  0  0  0  0  0  0  0  0
   25.0523  -18.1803  -15.1186 N   0  0  0  0  0  0  0  0  0  0  0  0
   23.7678  -19.8104  -13.8601 C   0  0  0  0  0  0  0  0  0  0  0  0
   23.5885  -19.2610  -12.7441 O   0  0  0  0  0  0  0  0  0  0  0  0
   19.1667  -18.2513  -11.6331 N   0  0  0  0  0  0  0  0  0  0  0  0
   18.5107  -18.8525  -12.7479 C   0  0  0  0  0  0  0  0  0  0  0  0
   17.2738  -18.7991  -12.8538 O   0  0  0  0  0  0  0  0  0  0  0  0
   19.3452  -19.5324  -13.7573 C   0  0  0  0  0  0  0  0  0  0  0  0
   20.8084  -19.5340  -13.4788 C   0  0  0  0  0  0  0  0  0  0  0  0
   21.4881  -20.8625  -13.6469 C   0  0  2  0  0  0  0  0  0  0  0  0
   22.7769  -20.6915  -14.3451 N   0  0  0  0  0  0  0  0  0  0  0  0
   20.6889  -21.8189  -14.4376 C   0  0  0  0  0  0  0  0  0  0  0  0
   19.7521  -22.4895  -13.9407 O   0  0  0  0  0  0  0  0  0  0  0  0
   20.9660  -21.9980  -15.7779 O   0  0  0  0  0  0  0  0  0  0  0  0
  2  1  1  6
  3  4  1  0
  3  2  1  0
  4  5  2  0
  5  6  1  0
  7  6  2  0
  8  7  1  0
  9  4  1  0
  9  8  2  0
 10  2  1  0
 10 17  1  0
 11 10  2  0
 13 12  1  1
 14 13  1  0
 15 13  1  0
 16 15  1  1
 16 17  1  0
 18 16  1  0
 19 18  2  0
 20 21  1  0
 21 22  2  0
 21 23  1  0
 23 24  1  0
 25 24  1  6
 25 26  1  0
 25 27  1  0
 26 18  1  0
 27 29  1  0
 28 27  2  0
M  END
$$$$
