FLQ.pdb
     RDKit          3D

 29 29  0  0  1  0  0  0  0  0999 V2000
   27.7041  -21.2827  -14.3988 N   0  0  0  0  0  0  0  0  0  0  0  0
   27.1634  -20.2578  -13.5605 C   0  0  1  0  0  0  0  0  0  0  0  0
   26.2071  -19.4037  -14.3773 C   0  0  0  0  0  0  0  0  0  0  0  0
   27.0160  -18.6375  -15.3523 C   0  0  0  0  0  0  0  0  0  0  0  0
   27.0053  -18.9389  -16.6913 C   0  0  0  0  0  0  0  0  0  0  0  0
   27.7610  -18.2240  -17.6076 C   0  0  0  0  0  0  0  0  0  0  0  0
   28.5474  -17.1793  -17.1644 C   0  0  0  0  0  0  0  0  0  0  0  0
   28.5756  -16.8574  -15.8288 C   0  0  0  0  0  0  0  0  0  0  0  0
   27.8185  -17.5785  -14.9340 C   0  0  0  0  0  0  0  0  0  0  0  0
   26.3654  -20.8529  -12.4587 C   0  0  0  0  0  0  0  0  0  0  0  0
   25.7111  -21.9109  -12.6751 O   0  0  0  0  0  0  0  0  0  0  0  0
   26.7096  -19.5540   -6.8799 C   0  0  0  0  0  0  0  0  0  0  0  0
   26.8242  -20.2052   -8.2737 C   0  0  1  0  0  0  0  0  0  0  0  0
   27.3512  -21.5968   -8.0005 C   0  0  0  0  0  0  0  0  0  0  0  0
   25.4553  -20.1561   -8.8404 C   0  0  0  0  0  0  0  0  0  0  0  0
   25.2675  -20.5570  -10.2530 C   0  0  2  0  0  0  0  0  0  0  0  0
   26.3142  -20.2691  -11.1657 N   0  0  0  0  0  0  0  0  0  0  0  0
   23.9430  -20.0055  -10.7193 C   0  0  0  0  0  0  0  0  0  0  0  0
   23.8759  -18.8209  -11.1337 O   0  0  0  0  0  0  0  0  0  0  0  0
   22.9731  -19.8917  -15.0062 N   0  0  0  0  0  0  0  0  0  0  0  0
   22.5661  -21.2056  -14.6286 C   0  0  0  0  0  0  0  0  0  0  0  0
   22.9105  -22.1896  -15.3046 O   0  0  0  0  0  0  0  0  0  0  0  0
   21.7306  -21.3505  -13.4209 C   0  0  0  0  0  0  0  0  0  0  0  0
   21.4795  -20.0923  -12.6645 C   0  0  0  0  0  0  0  0  0  0  0  0
   21.4746  -20.2370  -11.1698 C   0  0  2  0  0  0  0  0  0  0  0  0
   22.7647  -20.7832  -10.7058 N   0  0  0  0  0  0  0  0  0  0  0  0
   20.4181  -21.1470  -10.6858 C   0  0  0  0  0  0  0  0  0  0  0  0
   20.6726  -22.2200  -10.0873 O   0  0  0  0  0  0  0  0  0  0  0  0
   19.0914  -20.8244  -10.8890 O   0  0  0  0  0  0  0  0  0  0  0  0
  2  1  1  6
  3  4  1  0
  3  2  1  0
  4  5  2  0
  5  6  1  0
  7  6  2  0
  8  7  1  0
  9  4  1  0
  9  8  2  0
 10  2  1  0
 10 17  1  0
 11 10  2  0
 13 12  1  1
 14 13  1  0
 15 13  1  0
 16 15  1  1
 16 17  1  0
 18 16  1  0
 19 18  2  0
 20 21  1  0
 21 22  2  0
 21 23  1  0
 23 24  1  0
 25 24  1  6
 25 26  1  0
 25 27  1  0
 26 18  1  0
 27 29  1  0
 28 27  2  0
M  END
$$$$
