FLQ.pdb
     RDKit          3D

 29 29  0  0  1  0  0  0  0  0999 V2000
   27.8871  -20.5830  -14.4067 N   0  0  0  0  0  0  0  0  0  0  0  0
   27.1245  -19.7254  -13.5531 C   0  0  1  0  0  0  0  0  0  0  0  0
   26.0390  -19.0480  -14.3742 C   0  0  0  0  0  0  0  0  0  0  0  0
   26.6878  -17.9949  -15.1879 C   0  0  0  0  0  0  0  0  0  0  0  0
   26.8217  -18.1165  -16.5484 C   0  0  0  0  0  0  0  0  0  0  0  0
   27.4283  -17.1329  -17.3140 C   0  0  0  0  0  0  0  0  0  0  0  0
   27.9124  -15.9982  -16.6940 C   0  0  0  0  0  0  0  0  0  0  0  0
   27.7907  -15.8524  -15.3330 C   0  0  0  0  0  0  0  0  0  0  0  0
   27.1854  -16.8395  -14.5895 C   0  0  0  0  0  0  0  0  0  0  0  0
   26.4320  -20.5163  -12.5043 C   0  0  0  0  0  0  0  0  0  0  0  0
   25.9641  -21.6515  -12.7985 O   0  0  0  0  0  0  0  0  0  0  0  0
   26.7934  -19.8489   -6.8059 C   0  0  0  0  0  0  0  0  0  0  0  0
   26.9460  -20.3291   -8.2639 C   0  0  1  0  0  0  0  0  0  0  0  0
   27.5931  -21.6918   -8.1491 C   0  0  0  0  0  0  0  0  0  0  0  0
   25.5709  -20.3357   -8.8178 C   0  0  0  0  0  0  0  0  0  0  0  0
   25.3960  -20.6517  -10.2534 C   0  0  2  0  0  0  0  0  0  0  0  0
   26.2783  -20.0358  -11.1774 N   0  0  0  0  0  0  0  0  0  0  0  0
   23.9492  -20.4126  -10.6078 C   0  0  0  0  0  0  0  0  0  0  0  0
   23.5094  -19.2364  -10.6585 O   0  0  0  0  0  0  0  0  0  0  0  0
   21.5767  -23.8065  -15.0763 N   0  0  0  0  0  0  0  0  0  0  0  0
   20.4265  -23.0169  -14.7793 C   0  0  0  0  0  0  0  0  0  0  0  0
   19.4243  -23.0646  -15.5123 O   0  0  0  0  0  0  0  0  0  0  0  0
   20.4714  -22.1516  -13.5849 C   0  0  0  0  0  0  0  0  0  0  0  0
   21.7366  -22.2112  -12.8013 C   0  0  0  0  0  0  0  0  0  0  0  0
   21.8133  -21.2615  -11.6406 C   0  0  2  0  0  0  0  0  0  0  0  0
   23.0640  -21.4764  -10.8872 N   0  0  0  0  0  0  0  0  0  0  0  0
   20.6980  -21.4295  -10.6884 C   0  0  0  0  0  0  0  0  0  0  0  0
   20.8579  -21.9024   -9.5373 O   0  0  0  0  0  0  0  0  0  0  0  0
   19.4209  -21.0583  -11.0583 O   0  0  0  0  0  0  0  0  0  0  0  0
  2  1  1  6
  3  4  1  0
  3  2  1  0
  4  5  2  0
  5  6  1  0
  7  6  2  0
  8  7  1  0
  9  4  1  0
  9  8  2  0
 10  2  1  0
 10 17  1  0
 11 10  2  0
 13 12  1  1
 14 13  1  0
 15 13  1  0
 16 15  1  1
 16 17  1  0
 18 16  1  0
 19 18  2  0
 20 21  1  0
 21 22  2  0
 21 23  1  0
 23 24  1  0
 25 24  1  6
 25 26  1  0
 25 27  1  0
 26 18  1  0
 27 29  1  0
 28 27  2  0
M  END
$$$$
