FLQ.pdb
     RDKit          3D

 29 29  0  0  1  0  0  0  0  0999 V2000
   25.7314  -20.2847  -18.1773 N   0  0  0  0  0  0  0  0  0  0  0  0
   25.0333  -19.4653  -17.2355 C   0  0  1  0  0  0  0  0  0  0  0  0
   23.7426  -18.9722  -17.8697 C   0  0  0  0  0  0  0  0  0  0  0  0
   24.1087  -18.0170  -18.9400 C   0  0  0  0  0  0  0  0  0  0  0  0
   24.7415  -16.8314  -18.6614 C   0  0  0  0  0  0  0  0  0  0  0  0
   25.0861  -15.9343  -19.6605 C   0  0  0  0  0  0  0  0  0  0  0  0
   24.7859  -16.2387  -20.9733 C   0  0  0  0  0  0  0  0  0  0  0  0
   24.1527  -17.4195  -21.2787 C   0  0  0  0  0  0  0  0  0  0  0  0
   23.8184  -18.2976  -20.2733 C   0  0  0  0  0  0  0  0  0  0  0  0
   24.6438  -20.2590  -16.0425 C   0  0  0  0  0  0  0  0  0  0  0  0
   24.3576  -21.4806  -16.1831 O   0  0  0  0  0  0  0  0  0  0  0  0
   25.1072  -22.2965  -11.2568 C   0  0  0  0  0  0  0  0  0  0  0  0
   24.4164  -20.9233  -11.1282 C   0  0  1  0  0  0  0  0  0  0  0  0
   24.9084  -20.3728   -9.8076 C   0  0  0  0  0  0  0  0  0  0  0  0
   24.8460  -20.1576  -12.3226 C   0  0  0  0  0  0  0  0  0  0  0  0
   24.1748  -20.4369  -13.6121 C   0  0  2  0  0  0  0  0  0  0  0  0
   24.5824  -19.6868  -14.7447 N   0  0  0  0  0  0  0  0  0  0  0  0
   22.6853  -20.3559  -13.3866 C   0  0  0  0  0  0  0  0  0  0  0  0
   22.1545  -19.2429  -13.1439 O   0  0  0  0  0  0  0  0  0  0  0  0
   17.5323  -23.3029  -16.0309 N   0  0  0  0  0  0  0  0  0  0  0  0
   18.9272  -23.1622  -16.2935 C   0  0  0  0  0  0  0  0  0  0  0  0
   19.4726  -23.8429  -17.1784 O   0  0  0  0  0  0  0  0  0  0  0  0
   19.6887  -22.1910  -15.4845 C   0  0  0  0  0  0  0  0  0  0  0  0
   19.6794  -22.4382  -14.0158 C   0  0  0  0  0  0  0  0  0  0  0  0
   20.4071  -21.4148  -13.1922 C   0  0  2  0  0  0  0  0  0  0  0  0
   21.8595  -21.4998  -13.4396 N   0  0  0  0  0  0  0  0  0  0  0  0
   20.2019  -21.5956  -11.7417 C   0  0  0  0  0  0  0  0  0  0  0  0
   20.7518  -22.5170  -11.0914 O   0  0  0  0  0  0  0  0  0  0  0  0
   19.3768  -20.7285  -11.0542 O   0  0  0  0  0  0  0  0  0  0  0  0
  2  1  1  6
  3  4  1  0
  3  2  1  0
  4  5  2  0
  5  6  1  0
  7  6  2  0
  8  7  1  0
  9  4  1  0
  9  8  2  0
 10  2  1  0
 10 17  1  0
 11 10  2  0
 13 12  1  6
 14 13  1  0
 15 13  1  0
 16 15  1  1
 16 17  1  0
 18 16  1  0
 19 18  2  0
 20 21  1  0
 21 22  2  0
 21 23  1  0
 23 24  1  0
 25 24  1  6
 25 26  1  0
 25 27  1  0
 26 18  1  0
 27 29  1  0
 28 27  2  0
M  END
$$$$
