FLQ.pdb
     RDKit          3D

 29 29  0  0  1  0  0  0  0  0999 V2000
   20.8195  -11.7597  -19.2127 N   0  0  0  0  0  0  0  0  0  0  0  0
   21.5903  -10.5621  -19.3440 C   0  0  1  0  0  0  0  0  0  0  0  0
   20.7250   -9.4834  -19.9756 C   0  0  0  0  0  0  0  0  0  0  0  0
   20.5113   -9.8565  -21.3923 C   0  0  0  0  0  0  0  0  0  0  0  0
   19.2972  -10.3125  -21.8414 C   0  0  0  0  0  0  0  0  0  0  0  0
   19.0927  -10.6628  -23.1670 C   0  0  0  0  0  0  0  0  0  0  0  0
   20.1372  -10.5511  -24.0630 C   0  0  0  0  0  0  0  0  0  0  0  0
   21.3628  -10.0971  -23.6384 C   0  0  0  0  0  0  0  0  0  0  0  0
   21.5467   -9.7541  -22.3185 C   0  0  0  0  0  0  0  0  0  0  0  0
   21.9948  -10.0539  -18.0087 C   0  0  0  0  0  0  0  0  0  0  0  0
   21.1344   -9.9948  -17.0865 O   0  0  0  0  0  0  0  0  0  0  0  0
   27.0461  -10.6754  -15.5700 C   0  0  0  0  0  0  0  0  0  0  0  0
   25.5585  -10.7663  -15.9677 C   0  0  1  0  0  0  0  0  0  0  0  0
   24.9307  -11.6295  -14.8953 C   0  0  0  0  0  0  0  0  0  0  0  0
   25.0777   -9.3644  -16.0013 C   0  0  0  0  0  0  0  0  0  0  0  0
   23.6971   -9.1087  -16.4702 C   0  0  2  0  0  0  0  0  0  0  0  0
   23.3219   -9.6308  -17.7343 N   0  0  0  0  0  0  0  0  0  0  0  0
   23.4418   -7.6250  -16.3730 C   0  0  0  0  0  0  0  0  0  0  0  0
   24.0279   -6.8419  -17.1621 O   0  0  0  0  0  0  0  0  0  0  0  0
   18.8936   -4.5723  -17.7747 N   0  0  0  0  0  0  0  0  0  0  0  0
   19.3404   -3.6021  -16.8292 C   0  0  0  0  0  0  0  0  0  0  0  0
   18.7583   -2.5092  -16.7264 O   0  0  0  0  0  0  0  0  0  0  0  0
   20.5056   -3.9405  -15.9893 C   0  0  0  0  0  0  0  0  0  0  0  0
   21.0323   -5.3235  -16.1567 C   0  0  0  0  0  0  0  0  0  0  0  0
   22.2701   -5.6346  -15.3654 C   0  0  2  0  0  0  0  0  0  0  0  0
   22.5578   -7.0813  -15.4159 N   0  0  0  0  0  0  0  0  0  0  0  0
   22.1477   -5.2652  -13.9416 C   0  0  0  0  0  0  0  0  0  0  0  0
   22.1125   -4.0725  -13.5538 O   0  0  0  0  0  0  0  0  0  0  0  0
   22.0673   -6.2547  -12.9826 O   0  0  0  0  0  0  0  0  0  0  0  0
  2  1  1  1
  3  4  1  0
  3  2  1  0
  4  5  2  0
  5  6  1  0
  7  6  2  0
  8  7  1  0
  9  4  1  0
  9  8  2  0
 10  2  1  0
 10 17  1  0
 11 10  2  0
 13 12  1  1
 14 13  1  0
 15 13  1  0
 16 15  1  6
 16 17  1  0
 18 16  1  0
 19 18  2  0
 20 21  1  0
 21 22  2  0
 21 23  1  0
 23 24  1  0
 25 24  1  6
 25 26  1  0
 25 27  1  0
 26 18  1  0
 27 29  1  0
 28 27  2  0
M  END
$$$$
