FLQ.pdb
     RDKit          3D

 29 29  0  0  1  0  0  0  0  0999 V2000
   18.0937  -11.6871  -18.6995 N   0  0  0  0  0  0  0  0  0  0  0  0
   19.3680  -11.1103  -18.9978 C   0  0  1  0  0  0  0  0  0  0  0  0
   19.2078  -10.1202  -20.1402 C   0  0  0  0  0  0  0  0  0  0  0  0
   19.0526  -10.9013  -21.3884 C   0  0  0  0  0  0  0  0  0  0  0  0
   20.1363  -11.2763  -22.1424 C   0  0  0  0  0  0  0  0  0  0  0  0
   19.9955  -12.0078  -23.3116 C   0  0  0  0  0  0  0  0  0  0  0  0
   18.7316  -12.3707  -23.7320 C   0  0  0  0  0  0  0  0  0  0  0  0
   17.6301  -12.0075  -22.9949 C   0  0  0  0  0  0  0  0  0  0  0  0
   17.7897  -11.2814  -21.8369 C   0  0  0  0  0  0  0  0  0  0  0  0
   19.8756  -10.3385  -17.8353 C   0  0  0  0  0  0  0  0  0  0  0  0
   19.0514   -9.7567  -17.0761 O   0  0  0  0  0  0  0  0  0  0  0  0
   24.5220  -11.6982  -14.8964 C   0  0  0  0  0  0  0  0  0  0  0  0
   23.0635  -11.4780  -15.3479 C   0  0  1  0  0  0  0  0  0  0  0  0
   22.2342  -11.8032  -14.1249 C   0  0  0  0  0  0  0  0  0  0  0  0
   23.0007  -10.0634  -15.7865 C   0  0  0  0  0  0  0  0  0  0  0  0
   21.7408   -9.5723  -16.3887 C   0  0  2  0  0  0  0  0  0  0  0  0
   21.2620  -10.2331  -17.5488 N   0  0  0  0  0  0  0  0  0  0  0  0
   21.8772   -8.0849  -16.6011 C   0  0  0  0  0  0  0  0  0  0  0  0
   22.4741   -7.6562  -17.6206 O   0  0  0  0  0  0  0  0  0  0  0  0
   17.7343   -4.1673  -17.4804 N   0  0  0  0  0  0  0  0  0  0  0  0
   18.7109   -3.2102  -17.0744 C   0  0  0  0  0  0  0  0  0  0  0  0
   18.4641   -1.9941  -17.1373 O   0  0  0  0  0  0  0  0  0  0  0  0
   20.0091   -3.7122  -16.5842 C   0  0  0  0  0  0  0  0  0  0  0  0
   20.1186   -5.1933  -16.4710 C   0  0  0  0  0  0  0  0  0  0  0  0
   21.4277   -5.6968  -15.9346 C   0  0  2  0  0  0  0  0  0  0  0  0
   21.3516   -7.1491  -15.6838 N   0  0  0  0  0  0  0  0  0  0  0  0
   21.8097   -5.0553  -14.6613 C   0  0  0  0  0  0  0  0  0  0  0  0
   21.7182   -5.6412  -13.5555 O   0  0  0  0  0  0  0  0  0  0  0  0
   22.2888   -3.7608  -14.6642 O   0  0  0  0  0  0  0  0  0  0  0  0
  2  1  1  1
  3  4  1  0
  3  2  1  0
  4  5  2  0
  5  6  1  0
  7  6  2  0
  8  7  1  0
  9  4  1  0
  9  8  2  0
 10  2  1  0
 10 17  1  0
 11 10  2  0
 13 12  1  1
 14 13  1  0
 15 13  1  0
 16 15  1  6
 16 17  1  0
 18 16  1  0
 19 18  2  0
 20 21  1  0
 21 22  2  0
 21 23  1  0
 23 24  1  0
 25 24  1  1
 25 26  1  0
 25 27  1  0
 26 18  1  0
 27 29  1  0
 28 27  2  0
M  END
$$$$
