FLQ.pdb
     RDKit          3D

 29 29  0  0  1  0  0  0  0  0999 V2000
   28.1946  -20.8698  -14.5979 N   0  0  0  0  0  0  0  0  0  0  0  0
   27.3830  -20.0817  -13.7228 C   0  0  1  0  0  0  0  0  0  0  0  0
   26.2793  -19.4207  -14.5329 C   0  0  0  0  0  0  0  0  0  0  0  0
   26.8878  -18.2979  -15.2818 C   0  0  0  0  0  0  0  0  0  0  0  0
   27.2689  -18.4301  -16.5937 C   0  0  0  0  0  0  0  0  0  0  0  0
   27.8389  -17.3813  -17.2987 C   0  0  0  0  0  0  0  0  0  0  0  0
   28.0300  -16.1689  -16.6667 C   0  0  0  0  0  0  0  0  0  0  0  0
   27.6571  -16.0107  -15.3535 C   0  0  0  0  0  0  0  0  0  0  0  0
   27.0927  -17.0633  -14.6700 C   0  0  0  0  0  0  0  0  0  0  0  0
   26.7128  -20.9437  -12.7166 C   0  0  0  0  0  0  0  0  0  0  0  0
   26.1816  -22.0265  -13.0903 O   0  0  0  0  0  0  0  0  0  0  0  0
   26.8758  -20.0494   -7.0783 C   0  0  0  0  0  0  0  0  0  0  0  0
   27.1686  -20.4104   -8.5492 C   0  0  1  0  0  0  0  0  0  0  0  0
   28.4273  -21.2479   -8.4914 C   0  0  0  0  0  0  0  0  0  0  0  0
   25.9614  -21.1297   -9.0215 C   0  0  0  0  0  0  0  0  0  0  0  0
   25.6692  -21.1294  -10.4727 C   0  0  2  0  0  0  0  0  0  0  0  0
   26.6496  -20.5888  -11.3435 N   0  0  0  0  0  0  0  0  0  0  0  0
   24.3189  -20.4873  -10.6736 C   0  0  0  0  0  0  0  0  0  0  0  0
   24.2015  -19.2413  -10.5593 O   0  0  0  0  0  0  0  0  0  0  0  0
   21.3217  -17.8923  -14.7789 N   0  0  0  0  0  0  0  0  0  0  0  0
   22.2517  -18.9309  -15.0804 C   0  0  0  0  0  0  0  0  0  0  0  0
   23.2175  -18.7121  -15.8309 O   0  0  0  0  0  0  0  0  0  0  0  0
   22.0261  -20.2581  -14.4762 C   0  0  0  0  0  0  0  0  0  0  0  0
   22.9139  -20.5958  -13.3290 C   0  0  0  0  0  0  0  0  0  0  0  0
   22.2112  -20.8027  -12.0181 C   0  0  2  0  0  0  0  0  0  0  0  0
   23.1713  -21.2468  -10.9890 N   0  0  0  0  0  0  0  0  0  0  0  0
   21.1496  -21.8256  -12.0924 C   0  0  0  0  0  0  0  0  0  0  0  0
   21.3955  -23.0559  -12.0879 O   0  0  0  0  0  0  0  0  0  0  0  0
   19.8279  -21.4353  -12.1706 O   0  0  0  0  0  0  0  0  0  0  0  0
  2  1  1  6
  3  4  1  0
  3  2  1  0
  4  5  2  0
  5  6  1  0
  7  6  2  0
  8  7  1  0
  9  4  1  0
  9  8  2  0
 10  2  1  0
 10 17  1  0
 11 10  2  0
 13 12  1  1
 14 13  1  0
 15 13  1  0
 16 15  1  1
 16 17  1  0
 18 16  1  0
 19 18  2  0
 20 21  1  0
 21 22  2  0
 21 23  1  0
 23 24  1  0
 25 24  1  6
 25 26  1  0
 25 27  1  0
 26 18  1  0
 27 29  1  0
 28 27  2  0
M  END
$$$$
