FLQ.pdb
     RDKit          3D

 29 29  0  0  1  0  0  0  0  0999 V2000
   28.9134  -25.4469  -17.7536 N   0  0  0  0  0  0  0  0  0  0  0  0
   27.5321  -25.0825  -17.8235 C   0  0  1  0  0  0  0  0  0  0  0  0
   26.8378  -25.5268  -16.5461 C   0  0  0  0  0  0  0  0  0  0  0  0
   26.6322  -26.9902  -16.6366 C   0  0  0  0  0  0  0  0  0  0  0  0
   27.5450  -27.8785  -16.1252 C   0  0  0  0  0  0  0  0  0  0  0  0
   27.3564  -29.2494  -16.2077 C   0  0  0  0  0  0  0  0  0  0  0  0
   26.2200  -29.7381  -16.8207 C   0  0  0  0  0  0  0  0  0  0  0  0
   25.2907  -28.8697  -17.3408 C   0  0  0  0  0  0  0  0  0  0  0  0
   25.4952  -27.5119  -17.2494 C   0  0  0  0  0  0  0  0  0  0  0  0
   27.3855  -23.6066  -17.8948 C   0  0  0  0  0  0  0  0  0  0  0  0
   28.2164  -22.8759  -17.2866 O   0  0  0  0  0  0  0  0  0  0  0  0
   25.0731  -19.1744  -21.1632 C   0  0  0  0  0  0  0  0  0  0  0  0
   26.3041  -19.5612  -20.3179 C   0  0  1  0  0  0  0  0  0  0  0  0
   26.1554  -18.7614  -19.0422 C   0  0  0  0  0  0  0  0  0  0  0  0
   26.2133  -21.0310  -20.1472 C   0  0  0  0  0  0  0  0  0  0  0  0
   26.2538  -21.5802  -18.7731 C   0  0  2  0  0  0  0  0  0  0  0  0
   26.3382  -22.9884  -18.6271 N   0  0  0  0  0  0  0  0  0  0  0  0
   25.0896  -21.0013  -18.0079 C   0  0  0  0  0  0  0  0  0  0  0  0
   24.9981  -19.7558  -17.8668 O   0  0  0  0  0  0  0  0  0  0  0  0
   19.5417  -20.9752  -19.3588 N   0  0  0  0  0  0  0  0  0  0  0  0
   19.7712  -22.2328  -18.7262 C   0  0  0  0  0  0  0  0  0  0  0  0
   19.0288  -23.2007  -18.9626 O   0  0  0  0  0  0  0  0  0  0  0  0
   20.9080  -22.3395  -17.7915 C   0  0  0  0  0  0  0  0  0  0  0  0
   21.7613  -21.1235  -17.6837 C   0  0  0  0  0  0  0  0  0  0  0  0
   22.9246  -21.2421  -16.7414 C   0  0  2  0  0  0  0  0  0  0  0  0
   24.0896  -21.8198  -17.4393 N   0  0  0  0  0  0  0  0  0  0  0  0
   22.6372  -22.1107  -15.5831 C   0  0  0  0  0  0  0  0  0  0  0  0
   23.1711  -23.2363  -15.4338 O   0  0  0  0  0  0  0  0  0  0  0  0
   21.7494  -21.6877  -14.6145 O   0  0  0  0  0  0  0  0  0  0  0  0
  2  1  1  1
  3  4  1  0
  3  2  1  0
  4  5  2  0
  5  6  1  0
  7  6  2  0
  8  7  1  0
  9  4  1  0
  9  8  2  0
 10  2  1  0
 10 17  1  0
 11 10  2  0
 13 12  1  6
 14 13  1  0
 15 13  1  0
 16 15  1  6
 16 17  1  0
 18 16  1  0
 19 18  2  0
 20 21  1  0
 21 22  2  0
 21 23  1  0
 23 24  1  0
 25 24  1  6
 25 26  1  0
 25 27  1  0
 26 18  1  0
 27 29  1  0
 28 27  2  0
M  END
$$$$
