FLQ.pdb
     RDKit          3D

 29 29  0  0  1  0  0  0  0  0999 V2000
   27.7829  -20.7462  -14.7507 N   0  0  0  0  0  0  0  0  0  0  0  0
   26.9453  -19.9072  -13.9507 C   0  0  1  0  0  0  0  0  0  0  0  0
   25.8995  -19.2573  -14.8424 C   0  0  0  0  0  0  0  0  0  0  0  0
   26.5395  -18.1011  -15.5099 C   0  0  0  0  0  0  0  0  0  0  0  0
   27.0062  -18.1813  -16.7982 C   0  0  0  0  0  0  0  0  0  0  0  0
   27.6060  -17.1011  -17.4269 C   0  0  0  0  0  0  0  0  0  0  0  0
   27.7392  -15.9103  -16.7412 C   0  0  0  0  0  0  0  0  0  0  0  0
   27.2802  -15.8042  -15.4503 C   0  0  0  0  0  0  0  0  0  0  0  0
   26.6875  -16.8873  -14.8427 C   0  0  0  0  0  0  0  0  0  0  0  0
   26.2054  -20.7141  -12.9475 C   0  0  0  0  0  0  0  0  0  0  0  0
   25.9990  -21.9388  -13.1746 O   0  0  0  0  0  0  0  0  0  0  0  0
   26.3123  -19.8678   -7.4031 C   0  0  0  0  0  0  0  0  0  0  0  0
   26.5009  -20.2953   -8.8732 C   0  0  1  0  0  0  0  0  0  0  0  0
   27.4359  -21.4829   -8.8064 C   0  0  0  0  0  0  0  0  0  0  0  0
   25.1374  -20.6014   -9.3681 C   0  0  0  0  0  0  0  0  0  0  0  0
   24.9672  -20.9098  -10.8058 C   0  0  2  0  0  0  0  0  0  0  0  0
   25.7210  -20.1514  -11.7376 N   0  0  0  0  0  0  0  0  0  0  0  0
   23.4909  -20.8793  -11.1150 C   0  0  0  0  0  0  0  0  0  0  0  0
   22.6813  -21.4334  -10.3295 O   0  0  0  0  0  0  0  0  0  0  0  0
   20.6479  -17.7319  -15.9333 N   0  0  0  0  0  0  0  0  0  0  0  0
   19.5624  -18.4654  -15.3692 C   0  0  0  0  0  0  0  0  0  0  0  0
   18.4246  -18.3838  -15.8617 O   0  0  0  0  0  0  0  0  0  0  0  0
   19.8377  -19.3130  -14.1930 C   0  0  0  0  0  0  0  0  0  0  0  0
   21.2643  -19.3718  -13.7691 C   0  0  0  0  0  0  0  0  0  0  0  0
   21.5403  -20.2437  -12.5780 C   0  0  2  0  0  0  0  0  0  0  0  0
   22.9832  -20.2428  -12.2685 N   0  0  0  0  0  0  0  0  0  0  0  0
   21.1425  -21.6489  -12.7923 C   0  0  0  0  0  0  0  0  0  0  0  0
   21.8872  -22.4823  -13.3626 O   0  0  0  0  0  0  0  0  0  0  0  0
   19.9074  -22.0844  -12.3562 O   0  0  0  0  0  0  0  0  0  0  0  0
  2  1  1  6
  3  4  1  0
  3  2  1  0
  4  5  2  0
  5  6  1  0
  7  6  2  0
  8  7  1  0
  9  4  1  0
  9  8  2  0
 10  2  1  0
 10 17  1  0
 11 10  2  0
 13 12  1  1
 14 13  1  0
 15 13  1  0
 16 15  1  1
 16 17  1  0
 18 16  1  0
 19 18  2  0
 20 21  1  0
 21 22  2  0
 21 23  1  0
 23 24  1  0
 25 24  1  6
 25 26  1  0
 25 27  1  0
 26 18  1  0
 27 29  1  0
 28 27  2  0
M  END
$$$$
