FLQ.pdb
     RDKit          3D

 29 29  0  0  1  0  0  0  0  0999 V2000
   21.8180  -14.8280  -17.3737 N   0  0  0  0  0  0  0  0  0  0  0  0
   22.0645  -13.5842  -18.0353 C   0  0  1  0  0  0  0  0  0  0  0  0
   20.8135  -13.1707  -18.7937 C   0  0  0  0  0  0  0  0  0  0  0  0
   20.7649  -13.9672  -20.0408 C   0  0  0  0  0  0  0  0  0  0  0  0
   21.3799  -13.5414  -21.1915 C   0  0  0  0  0  0  0  0  0  0  0  0
   21.3370  -14.2841  -22.3613 C   0  0  0  0  0  0  0  0  0  0  0  0
   20.6576  -15.4859  -22.3726 C   0  0  0  0  0  0  0  0  0  0  0  0
   20.0334  -15.9346  -21.2335 C   0  0  0  0  0  0  0  0  0  0  0  0
   20.0870  -15.1835  -20.0817 C   0  0  0  0  0  0  0  0  0  0  0  0
   22.3341  -12.5115  -17.0446 C   0  0  0  0  0  0  0  0  0  0  0  0
   21.7870  -12.5721  -15.9082 O   0  0  0  0  0  0  0  0  0  0  0  0
   27.2085   -9.7396  -16.3653 C   0  0  0  0  0  0  0  0  0  0  0  0
   25.9855  -10.6781  -16.3094 C   0  0  1  0  0  0  0  0  0  0  0  0
   26.1341  -11.4177  -14.9978 C   0  0  0  0  0  0  0  0  0  0  0  0
   24.8050   -9.7853  -16.3923 C   0  0  0  0  0  0  0  0  0  0  0  0
   23.4591  -10.4013  -16.3812 C   0  0  2  0  0  0  0  0  0  0  0  0
   23.1897  -11.4164  -17.3344 N   0  0  0  0  0  0  0  0  0  0  0  0
   22.4401   -9.2902  -16.4355 C   0  0  0  0  0  0  0  0  0  0  0  0
   22.1472   -8.7708  -17.5418 O   0  0  0  0  0  0  0  0  0  0  0  0
   17.6132   -8.4147  -12.5079 N   0  0  0  0  0  0  0  0  0  0  0  0
   17.6685   -9.3027  -13.6228 C   0  0  0  0  0  0  0  0  0  0  0  0
   16.8345  -10.2160  -13.7416 O   0  0  0  0  0  0  0  0  0  0  0  0
   18.7402   -9.0992  -14.6165 C   0  0  0  0  0  0  0  0  0  0  0  0
   19.7057   -8.0104  -14.2993 C   0  0  0  0  0  0  0  0  0  0  0  0
   20.7568   -7.7658  -15.3435 C   0  0  2  0  0  0  0  0  0  0  0  0
   21.7980   -8.8094  -15.2736 N   0  0  0  0  0  0  0  0  0  0  0  0
   21.4341   -6.4645  -15.1807 C   0  0  0  0  0  0  0  0  0  0  0  0
   22.6458   -6.3678  -14.8697 O   0  0  0  0  0  0  0  0  0  0  0  0
   20.7256   -5.2957  -15.3736 O   0  0  0  0  0  0  0  0  0  0  0  0
  2  1  1  1
  3  4  1  0
  3  2  1  0
  4  5  2  0
  5  6  1  0
  7  6  2  0
  8  7  1  0
  9  4  1  0
  9  8  2  0
 10  2  1  0
 10 17  1  0
 11 10  2  0
 13 12  1  1
 14 13  1  0
 15 13  1  0
 16 15  1  6
 16 17  1  0
 18 16  1  0
 19 18  2  0
 20 21  1  0
 21 22  2  0
 21 23  1  0
 23 24  1  0
 25 24  1  1
 25 26  1  0
 25 27  1  0
 26 18  1  0
 27 29  1  0
 28 27  2  0
M  END
$$$$
