FLQ.pdb
     RDKit          3D

 29 29  0  0  1  0  0  0  0  0999 V2000
   25.6128  -20.4437  -17.2167 N   0  0  0  0  0  0  0  0  0  0  0  0
   24.7575  -19.6897  -16.3532 C   0  0  1  0  0  0  0  0  0  0  0  0
   23.5417  -19.2282  -17.1406 C   0  0  0  0  0  0  0  0  0  0  0  0
   23.9970  -18.1948  -18.0981 C   0  0  0  0  0  0  0  0  0  0  0  0
   24.2843  -16.9152  -17.6936 C   0  0  0  0  0  0  0  0  0  0  0  0
   24.7110  -15.9446  -18.5868 C   0  0  0  0  0  0  0  0  0  0  0  0
   24.8518  -16.2708  -19.9209 C   0  0  0  0  0  0  0  0  0  0  0  0
   24.5704  -17.5451  -20.3514 C   0  0  0  0  0  0  0  0  0  0  0  0
   24.1481  -18.4952  -19.4499 C   0  0  0  0  0  0  0  0  0  0  0  0
   24.2494  -20.5424  -15.2489 C   0  0  0  0  0  0  0  0  0  0  0  0
   23.9212  -21.7365  -15.4950 O   0  0  0  0  0  0  0  0  0  0  0  0
   25.8328  -20.4234   -9.8596 C   0  0  0  0  0  0  0  0  0  0  0  0
   25.5862  -20.7366  -11.3498 C   0  0  1  0  0  0  0  0  0  0  0  0
   26.2043  -22.1018  -11.5583 C   0  0  0  0  0  0  0  0  0  0  0  0
   24.1145  -20.6851  -11.5204 C   0  0  0  0  0  0  0  0  0  0  0  0
   23.5617  -20.8471  -12.8840 C   0  0  2  0  0  0  0  0  0  0  0  0
   24.1201  -20.0571  -13.9211 N   0  0  0  0  0  0  0  0  0  0  0  0
   22.0636  -20.6909  -12.7986 C   0  0  0  0  0  0  0  0  0  0  0  0
   21.5680  -19.5488  -12.6268 O   0  0  0  0  0  0  0  0  0  0  0  0
   18.7547  -19.4595  -16.6154 N   0  0  0  0  0  0  0  0  0  0  0  0
   19.3873  -20.7273  -16.7801 C   0  0  0  0  0  0  0  0  0  0  0  0
   19.6508  -21.1560  -17.9162 O   0  0  0  0  0  0  0  0  0  0  0  0
   19.7119  -21.5011  -15.5663 C   0  0  0  0  0  0  0  0  0  0  0  0
   19.4228  -20.8150  -14.2763 C   0  0  0  0  0  0  0  0  0  0  0  0
   19.7327  -21.6161  -13.0445 C   0  0  2  0  0  0  0  0  0  0  0  0
   21.1910  -21.7956  -12.9062 N   0  0  0  0  0  0  0  0  0  0  0  0
   19.1295  -22.9630  -13.0703 C   0  0  0  0  0  0  0  0  0  0  0  0
   19.8174  -24.0100  -13.1397 O   0  0  0  0  0  0  0  0  0  0  0  0
   17.7570  -23.0990  -13.0170 O   0  0  0  0  0  0  0  0  0  0  0  0
  2  1  1  6
  3  4  1  0
  3  2  1  0
  4  5  2  0
  5  6  1  0
  7  6  2  0
  8  7  1  0
  9  4  1  0
  9  8  2  0
 10  2  1  0
 10 17  1  0
 11 10  2  0
 13 12  1  1
 14 13  1  0
 15 13  1  0
 16 15  1  1
 16 17  1  0
 18 16  1  0
 19 18  2  0
 20 21  1  0
 21 22  2  0
 21 23  1  0
 23 24  1  0
 25 24  1  6
 25 26  1  0
 25 27  1  0
 26 18  1  0
 27 29  1  0
 28 27  2  0
M  END
$$$$
