FLQ.pdb
     RDKit          3D

 29 29  0  0  1  0  0  0  0  0999 V2000
   22.4602  -30.3165  -13.6975 N   0  0  0  0  0  0  0  0  0  0  0  0
   22.0520  -29.6509  -14.8958 C   0  0  1  0  0  0  0  0  0  0  0  0
   20.5648  -29.8836  -15.1091 C   0  0  0  0  0  0  0  0  0  0  0  0
   20.3954  -31.2750  -15.5857 C   0  0  0  0  0  0  0  0  0  0  0  0
   20.9859  -31.7164  -16.7434 C   0  0  0  0  0  0  0  0  0  0  0  0
   20.8300  -33.0184  -17.1932 C   0  0  0  0  0  0  0  0  0  0  0  0
   20.0601  -33.8981  -16.4587 C   0  0  0  0  0  0  0  0  0  0  0  0
   19.4582  -33.4809  -15.2959 C   0  0  0  0  0  0  0  0  0  0  0  0
   19.6244  -32.1845  -14.8653 C   0  0  0  0  0  0  0  0  0  0  0  0
   22.2376  -28.1834  -14.7658 C   0  0  0  0  0  0  0  0  0  0  0  0
   22.0615  -27.6385  -13.6405 O   0  0  0  0  0  0  0  0  0  0  0  0
   25.8165  -24.9246  -17.7641 C   0  0  0  0  0  0  0  0  0  0  0  0
   25.1246  -25.7453  -16.6564 C   0  0  1  0  0  0  0  0  0  0  0  0
   25.8949  -25.4103  -15.3980 C   0  0  0  0  0  0  0  0  0  0  0  0
   23.7123  -25.2948  -16.6623 C   0  0  0  0  0  0  0  0  0  0  0  0
   22.7596  -25.9656  -15.7491 C   0  0  2  0  0  0  0  0  0  0  0  0
   22.6077  -27.3706  -15.8692 N   0  0  0  0  0  0  0  0  0  0  0  0
   21.4383  -25.2438  -15.8457 C   0  0  0  0  0  0  0  0  0  0  0  0
   20.6145  -25.5748  -16.7353 O   0  0  0  0  0  0  0  0  0  0  0  0
   17.6753  -23.6124  -11.3413 N   0  0  0  0  0  0  0  0  0  0  0  0
   17.0742  -22.8757  -12.4045 C   0  0  0  0  0  0  0  0  0  0  0  0
   16.0035  -22.2714  -12.2245 O   0  0  0  0  0  0  0  0  0  0  0  0
   17.7622  -22.8592  -13.7099 C   0  0  0  0  0  0  0  0  0  0  0  0
   19.0498  -23.6059  -13.7616 C   0  0  0  0  0  0  0  0  0  0  0  0
   19.7957  -23.5017  -15.0607 C   0  0  2  0  0  0  0  0  0  0  0  0
   21.0928  -24.1987  -14.9617 N   0  0  0  0  0  0  0  0  0  0  0  0
   20.0807  -22.1059  -15.4472 C   0  0  0  0  0  0  0  0  0  0  0  0
   21.2215  -21.5947  -15.3397 O   0  0  0  0  0  0  0  0  0  0  0  0
   19.0672  -21.3145  -15.9490 O   0  0  0  0  0  0  0  0  0  0  0  0
  2  1  1  1
  3  4  1  0
  3  2  1  0
  4  5  2  0
  5  6  1  0
  7  6  2  0
  8  7  1  0
  9  4  1  0
  9  8  2  0
 10  2  1  0
 10 17  1  0
 11 10  2  0
 13 12  1  6
 14 13  1  0
 15 13  1  0
 16 15  1  6
 16 17  1  0
 18 16  1  0
 19 18  2  0
 20 21  1  0
 21 22  2  0
 21 23  1  0
 23 24  1  0
 25 24  1  1
 25 26  1  0
 25 27  1  0
 26 18  1  0
 27 29  1  0
 28 27  2  0
M  END
$$$$
