FLQ.pdb
     RDKit          3D

 29 29  0  0  1  0  0  0  0  0999 V2000
   27.2610  -20.7945  -16.2438 N   0  0  0  0  0  0  0  0  0  0  0  0
   26.6487  -19.8605  -15.3502 C   0  0  1  0  0  0  0  0  0  0  0  0
   25.8351  -18.8627  -16.1586 C   0  0  0  0  0  0  0  0  0  0  0  0
   26.7709  -17.8367  -16.6719 C   0  0  0  0  0  0  0  0  0  0  0  0
   27.1971  -16.7941  -15.8876 C   0  0  0  0  0  0  0  0  0  0  0  0
   28.0733  -15.8314  -16.3643 C   0  0  0  0  0  0  0  0  0  0  0  0
   28.5320  -15.9208  -17.6634 C   0  0  0  0  0  0  0  0  0  0  0  0
   28.1203  -16.9551  -18.4691 C   0  0  0  0  0  0  0  0  0  0  0  0
   27.2501  -17.9014  -17.9784 C   0  0  0  0  0  0  0  0  0  0  0  0
   25.6952  -20.5525  -14.4464 C   0  0  0  0  0  0  0  0  0  0  0  0
   25.0612  -21.5572  -14.8740 O   0  0  0  0  0  0  0  0  0  0  0  0
   25.7586  -20.5005   -8.7210 C   0  0  0  0  0  0  0  0  0  0  0  0
   25.9427  -20.7684  -10.2289 C   0  0  1  0  0  0  0  0  0  0  0  0
   26.4528  -22.1909  -10.3025 C   0  0  0  0  0  0  0  0  0  0  0  0
   24.6043  -20.5533  -10.8291 C   0  0  0  0  0  0  0  0  0  0  0  0
   24.4643  -20.6925  -12.2962 C   0  0  2  0  0  0  0  0  0  0  0  0
   25.4724  -20.1196  -13.1129 N   0  0  0  0  0  0  0  0  0  0  0  0
   23.0863  -20.2116  -12.6781 C   0  0  0  0  0  0  0  0  0  0  0  0
   22.9543  -19.1037  -13.2565 O   0  0  0  0  0  0  0  0  0  0  0  0
   20.6342  -23.3604  -16.3375 N   0  0  0  0  0  0  0  0  0  0  0  0
   19.6784  -22.3067  -16.4411 C   0  0  0  0  0  0  0  0  0  0  0  0
   18.7125  -22.4074  -17.2161 O   0  0  0  0  0  0  0  0  0  0  0  0
   19.8779  -21.1074  -15.6047 C   0  0  0  0  0  0  0  0  0  0  0  0
   21.0358  -21.1673  -14.6698 C   0  0  0  0  0  0  0  0  0  0  0  0
   20.7149  -20.8553  -13.2364 C   0  0  2  0  0  0  0  0  0  0  0  0
   21.9285  -20.9720  -12.4048 N   0  0  0  0  0  0  0  0  0  0  0  0
   19.7061  -21.7678  -12.6635 C   0  0  0  0  0  0  0  0  0  0  0  0
   20.0105  -22.8613  -12.1288 O   0  0  0  0  0  0  0  0  0  0  0  0
   18.3699  -21.4245  -12.7070 O   0  0  0  0  0  0  0  0  0  0  0  0
  2  1  1  6
  3  4  1  0
  3  2  1  0
  4  5  2  0
  5  6  1  0
  7  6  2  0
  8  7  1  0
  9  4  1  0
  9  8  2  0
 10  2  1  0
 10 17  1  0
 11 10  2  0
 13 12  1  1
 14 13  1  0
 15 13  1  0
 16 15  1  1
 16 17  1  0
 18 16  1  0
 19 18  2  0
 20 21  1  0
 21 22  2  0
 21 23  1  0
 23 24  1  0
 25 24  1  6
 25 26  1  0
 25 27  1  0
 26 18  1  0
 27 29  1  0
 28 27  2  0
M  END
$$$$
