FLQ.pdb
     RDKit          3D

 29 29  0  0  1  0  0  0  0  0999 V2000
   28.1581   -6.6990  -20.8618 N   0  0  0  0  0  0  0  0  0  0  0  0
   27.4101   -5.4884  -21.0047 C   0  0  1  0  0  0  0  0  0  0  0  0
   25.9323   -5.8293  -21.1099 C   0  0  0  0  0  0  0  0  0  0  0  0
   25.6806   -6.2984  -22.4914 C   0  0  0  0  0  0  0  0  0  0  0  0
   25.6092   -7.6348  -22.7961 C   0  0  0  0  0  0  0  0  0  0  0  0
   25.3736   -8.0783  -24.0882 C   0  0  0  0  0  0  0  0  0  0  0  0
   25.2056   -7.1530  -25.0989 C   0  0  0  0  0  0  0  0  0  0  0  0
   25.2725   -5.8091  -24.8200 C   0  0  0  0  0  0  0  0  0  0  0  0
   25.5072   -5.3877  -23.5312 C   0  0  0  0  0  0  0  0  0  0  0  0
   27.5640   -4.6353  -19.7991 C   0  0  0  0  0  0  0  0  0  0  0  0
   27.8090   -5.1807  -18.6870 O   0  0  0  0  0  0  0  0  0  0  0  0
   30.8387   -0.4360  -19.1051 C   0  0  0  0  0  0  0  0  0  0  0  0
   30.0452   -1.7560  -19.0197 C   0  0  1  0  0  0  0  0  0  0  0  0
   30.7108   -2.5277  -17.9014 C   0  0  0  0  0  0  0  0  0  0  0  0
   28.6443   -1.3519  -18.7516 C   0  0  0  0  0  0  0  0  0  0  0  0
   27.6074   -2.4074  -18.7069 C   0  0  2  0  0  0  0  0  0  0  0  0
   27.4444   -3.2219  -19.8565 N   0  0  0  0  0  0  0  0  0  0  0  0
   26.3105   -1.7656  -18.2803 C   0  0  0  0  0  0  0  0  0  0  0  0
   26.2742   -1.0817  -17.2265 O   0  0  0  0  0  0  0  0  0  0  0  0
   23.1943    2.1725  -20.3784 N   0  0  0  0  0  0  0  0  0  0  0  0
   22.3707    1.9970  -19.2271 C   0  0  0  0  0  0  0  0  0  0  0  0
   21.3584    2.6989  -19.0648 O   0  0  0  0  0  0  0  0  0  0  0  0
   22.7616    0.9645  -18.2480 C   0  0  0  0  0  0  0  0  0  0  0  0
   24.0055    0.2135  -18.5755 C   0  0  0  0  0  0  0  0  0  0  0  0
   23.8592   -1.2807  -18.6050 C   0  0  2  0  0  0  0  0  0  0  0  0
   25.1244   -1.9089  -19.0325 N   0  0  0  0  0  0  0  0  0  0  0  0
   22.8108   -1.7353  -19.5394 C   0  0  0  0  0  0  0  0  0  0  0  0
   23.0639   -2.4328  -20.5512 O   0  0  0  0  0  0  0  0  0  0  0  0
   21.4939   -1.3909  -19.3100 O   0  0  0  0  0  0  0  0  0  0  0  0
  2  1  1  1
  3  4  1  0
  3  2  1  0
  4  5  2  0
  5  6  1  0
  7  6  2  0
  8  7  1  0
  9  4  1  0
  9  8  2  0
 10  2  1  0
 10 17  1  0
 11 10  2  0
 13 12  1  1
 14 13  1  0
 15 13  1  0
 16 15  1  6
 16 17  1  0
 18 16  1  0
 19 18  2  0
 20 21  1  0
 21 22  2  0
 21 23  1  0
 23 24  1  0
 25 24  1  6
 25 26  1  0
 25 27  1  0
 26 18  1  0
 27 29  1  0
 28 27  2  0
M  END
$$$$
