FLQ.pdb
     RDKit          3D

 29 29  0  0  1  0  0  0  0  0999 V2000
   21.7443  -19.1998  -13.4659 N   0  0  0  0  0  0  0  0  0  0  0  0
   22.5513  -20.2138  -12.8609 C   0  0  1  0  0  0  0  0  0  0  0  0
   21.9049  -21.5689  -13.1001 C   0  0  0  0  0  0  0  0  0  0  0  0
   20.6716  -21.6246  -12.2829 C   0  0  0  0  0  0  0  0  0  0  0  0
   20.2913  -20.5776  -11.4811 C   0  0  0  0  0  0  0  0  0  0  0  0
   19.1373  -20.6255  -10.7145 C   0  0  0  0  0  0  0  0  0  0  0  0
   18.3463  -21.7563  -10.7562 C   0  0  0  0  0  0  0  0  0  0  0  0
   18.7050  -22.8184  -11.5510 C   0  0  0  0  0  0  0  0  0  0  0  0
   19.8543  -22.7524  -12.3051 C   0  0  0  0  0  0  0  0  0  0  0  0
   23.8908  -20.2639  -13.4998 C   0  0  0  0  0  0  0  0  0  0  0  0
   24.0886  -19.6159  -14.5653 O   0  0  0  0  0  0  0  0  0  0  0  0
   28.9704  -21.0575  -10.8846 C   0  0  0  0  0  0  0  0  0  0  0  0
   27.8145  -20.3845  -11.6531 C   0  0  1  0  0  0  0  0  0  0  0  0
   28.4156  -19.1097  -12.2032 C   0  0  0  0  0  0  0  0  0  0  0  0
   27.4007  -21.3725  -12.6779 C   0  0  0  0  0  0  0  0  0  0  0  0
   26.2471  -21.0411  -13.5444 C   0  0  2  0  0  0  0  0  0  0  0  0
   24.9596  -21.0192  -12.9499 N   0  0  0  0  0  0  0  0  0  0  0  0
   26.2976  -21.9465  -14.7501 C   0  0  0  0  0  0  0  0  0  0  0  0
   26.6616  -23.1416  -14.6133 O   0  0  0  0  0  0  0  0  0  0  0  0
   21.4365  -23.6569  -15.6070 N   0  0  0  0  0  0  0  0  0  0  0  0
   21.8861  -24.1841  -16.8538 C   0  0  0  0  0  0  0  0  0  0  0  0
   21.2237  -25.0534  -17.4449 O   0  0  0  0  0  0  0  0  0  0  0  0
   23.1519  -23.6658  -17.4077 C   0  0  0  0  0  0  0  0  0  0  0  0
   24.0236  -22.9440  -16.4394 C   0  0  0  0  0  0  0  0  0  0  0  0
   25.2891  -22.3798  -17.0183 C   0  0  2  0  0  0  0  0  0  0  0  0
   25.9463  -21.4918  -16.0397 N   0  0  0  0  0  0  0  0  0  0  0  0
   25.0555  -21.5838  -18.2391 C   0  0  0  0  0  0  0  0  0  0  0  0
   25.1293  -20.3314  -18.2535 O   0  0  0  0  0  0  0  0  0  0  0  0
   24.7423  -22.2220  -19.4223 O   0  0  0  0  0  0  0  0  0  0  0  0
  2  1  1  6
  3  4  1  0
  3  2  1  0
  4  5  2  0
  5  6  1  0
  7  6  2  0
  8  7  1  0
  9  4  1  0
  9  8  2  0
 10  2  1  0
 10 17  1  0
 11 10  2  0
 13 12  1  1
 14 13  1  0
 15 13  1  0
 16 15  1  1
 16 17  1  0
 18 16  1  0
 19 18  2  0
 20 21  1  0
 21 22  2  0
 21 23  1  0
 23 24  1  0
 25 24  1  1
 25 26  1  0
 25 27  1  0
 26 18  1  0
 27 29  1  0
 28 27  2  0
M  END
$$$$
