GMR.pdb
     RDKit          3D

 24 23  0  0  1  0  0  0  0  0999 V2000
   21.9740  -19.1993  -15.0988 N   0  0  0  0  0  0  0  0  0  0  0  0
   22.3659  -18.5253  -16.3170 C   0  0  0  0  0  0  0  0  0  0  0  0
   22.5052  -17.0638  -16.1242 C   0  0  0  0  0  0  0  0  0  0  0  0
   21.8924  -16.5520  -15.1527 O   0  0  0  0  0  0  0  0  0  0  0  0
   27.9119  -13.7850  -13.8960 C   0  0  0  0  0  0  0  0  0  0  0  0
   27.1602  -13.8988  -15.5252 S   0  0  0  0  0  0  0  0  0  0  0  0
   25.3912  -14.3344  -15.3377 C   0  0  0  0  0  0  0  0  0  0  0  0
   24.8093  -14.4098  -16.7100 C   0  0  0  0  0  0  0  0  0  0  0  0
   23.3643  -14.7857  -16.7735 C   0  0  2  0  0  0  0  0  0  0  0  0
   23.2724  -16.2221  -16.9525 N   0  0  0  0  0  0  0  0  0  0  0  0
   22.5878  -14.0935  -17.8125 C   0  0  0  0  0  0  0  0  0  0  0  0
   22.4876  -14.5062  -18.9957 O   0  0  0  0  0  0  0  0  0  0  0  0
   16.9421   -7.0363  -17.3829 N   0  0  0  0  0  0  0  0  0  0  0  0
   16.8410   -7.5960  -18.6662 C   0  0  0  0  0  0  0  0  0  0  0  0
   16.0514   -7.1008  -19.5876 N   0  0  0  0  0  0  0  0  0  0  0  0
   17.6027   -8.7302  -19.0115 N   0  0  0  0  0  0  0  0  0  0  0  0
   18.4767   -9.3833  -18.0396 C   0  0  0  0  0  0  0  0  0  0  0  0
   19.3409  -10.4244  -18.7151 C   0  0  0  0  0  0  0  0  0  0  0  0
   20.1772  -11.1737  -17.7059 C   0  0  0  0  0  0  0  0  0  0  0  0
   21.1078  -12.1641  -18.4118 C   0  0  2  0  0  0  0  0  0  0  0  0
   21.9058  -12.8908  -17.4834 N   0  0  0  0  0  0  0  0  0  0  0  0
   21.8905  -11.4587  -19.4547 C   0  0  0  0  0  0  0  0  0  0  0  0
   21.4387  -11.4795  -20.6296 O   0  0  0  0  0  0  0  0  0  0  0  0
   23.0684  -10.7859  -19.2352 O   0  0  0  0  0  0  0  0  0  0  0  0
  2  1  1  0
  3  2  1  0
  3  4  2  0
  6  5  1  0
  7  8  1  0
  7  6  1  0
  9  8  1  6
  9 10  1  0
 10  3  1  0
 11  9  1  0
 12 11  2  0
 14 13  1  0
 14 15  2  0
 16 14  1  0
 17 16  1  0
 18 17  1  0
 19 18  1  0
 20 21  1  0
 20 19  1  1
 21 11  1  0
 22 20  1  0
 23 22  2  0
 24 22  1  0
M  END
$$$$
