GMR.pdb
     RDKit          3D

 24 23  0  0  1  0  0  0  0  0999 V2000
   21.3964  -21.4938   -7.8357 N   0  0  0  0  0  0  0  0  0  0  0  0
   22.7076  -21.7667   -7.2895 C   0  0  0  0  0  0  0  0  0  0  0  0
   23.7686  -20.9977   -7.9789 C   0  0  0  0  0  0  0  0  0  0  0  0
   23.4286  -20.3266   -8.9865 O   0  0  0  0  0  0  0  0  0  0  0  0
   28.4508  -20.3600   -4.0520 C   0  0  0  0  0  0  0  0  0  0  0  0
   28.6742  -19.1108   -5.3256 S   0  0  0  0  0  0  0  0  0  0  0  0
   27.1777  -19.0587   -6.3802 C   0  0  0  0  0  0  0  0  0  0  0  0
   27.3411  -20.1097   -7.4271 C   0  0  0  0  0  0  0  0  0  0  0  0
   26.1655  -20.3036   -8.3293 C   0  0  2  0  0  0  0  0  0  0  0  0
   25.1190  -20.9726   -7.5801 N   0  0  0  0  0  0  0  0  0  0  0  0
   26.4502  -21.0378   -9.5708 C   0  0  0  0  0  0  0  0  0  0  0  0
   26.7821  -22.2500   -9.6007 O   0  0  0  0  0  0  0  0  0  0  0  0
   22.8400  -24.3376  -15.3345 N   0  0  0  0  0  0  0  0  0  0  0  0
   24.1407  -24.8144  -15.5611 C   0  0  0  0  0  0  0  0  0  0  0  0
   24.4238  -25.6459  -16.5339 N   0  0  0  0  0  0  0  0  0  0  0  0
   25.2050  -24.4039  -14.7337 N   0  0  0  0  0  0  0  0  0  0  0  0
   24.9882  -23.4906  -13.6139 C   0  0  0  0  0  0  0  0  0  0  0  0
   25.3528  -22.0752  -14.0023 C   0  0  0  0  0  0  0  0  0  0  0  0
   25.2003  -21.1345  -12.8314 C   0  0  0  0  0  0  0  0  0  0  0  0
   26.5248  -21.0037  -12.0739 C   0  0  2  0  0  0  0  0  0  0  0  0
   26.3511  -20.3599  -10.8161 N   0  0  0  0  0  0  0  0  0  0  0  0
   27.5373  -20.3598  -12.9445 C   0  0  0  0  0  0  0  0  0  0  0  0
   27.7650  -19.1357  -12.7587 O   0  0  0  0  0  0  0  0  0  0  0  0
   28.2437  -20.9975  -13.9359 O   0  0  0  0  0  0  0  0  0  0  0  0
  2  1  1  0
  3  2  1  0
  3  4  2  0
  6  5  1  0
  7  8  1  0
  7  6  1  0
  9  8  1  1
  9 10  1  0
 10  3  1  0
 11  9  1  0
 12 11  2  0
 14 13  1  0
 14 15  2  0
 16 14  1  0
 17 16  1  0
 18 17  1  0
 19 18  1  0
 20 21  1  0
 20 19  1  6
 21 11  1  0
 22 20  1  0
 23 22  2  0
 24 22  1  0
M  END
$$$$
