GMR.pdb
     RDKit          3D

 24 23  0  0  1  0  0  0  0  0999 V2000
   15.7594  -19.9341  -15.8312 N   0  0  0  0  0  0  0  0  0  0  0  0
   14.6763  -19.6461  -14.9170 C   0  0  0  0  0  0  0  0  0  0  0  0
   14.0764  -18.3156  -15.1665 C   0  0  0  0  0  0  0  0  0  0  0  0
   14.5737  -17.6264  -16.0934 O   0  0  0  0  0  0  0  0  0  0  0  0
    7.1285  -14.7703  -14.6915 C   0  0  0  0  0  0  0  0  0  0  0  0
    8.3449  -15.8812  -13.9714 S   0  0  0  0  0  0  0  0  0  0  0  0
    9.9747  -15.5645  -14.7447 C   0  0  0  0  0  0  0  0  0  0  0  0
   10.8685  -16.6980  -14.3658 C   0  0  0  0  0  0  0  0  0  0  0  0
   12.2866  -16.5757  -14.8216 C   0  0  2  0  0  0  0  0  0  0  0  0
   12.9963  -17.7811  -14.4379 N   0  0  0  0  0  0  0  0  0  0  0  0
   12.9976  -15.3881  -14.3262 C   0  0  0  0  0  0  0  0  0  0  0  0
   13.3817  -15.2540  -13.1367 O   0  0  0  0  0  0  0  0  0  0  0  0
   19.5123  -10.7048  -16.3684 N   0  0  0  0  0  0  0  0  0  0  0  0
   18.7930   -9.8445  -15.5240 C   0  0  0  0  0  0  0  0  0  0  0  0
   19.3532   -8.8270  -14.9170 N   0  0  0  0  0  0  0  0  0  0  0  0
   17.4173  -10.0513  -15.2997 N   0  0  0  0  0  0  0  0  0  0  0  0
   16.7231  -11.2117  -15.8535 C   0  0  0  0  0  0  0  0  0  0  0  0
   15.2390  -11.1277  -15.5752 C   0  0  0  0  0  0  0  0  0  0  0  0
   14.5298  -12.3810  -16.0287 C   0  0  0  0  0  0  0  0  0  0  0  0
   13.9233  -13.1162  -14.8299 C   0  0  2  0  0  0  0  0  0  0  0  0
   13.2761  -14.3216  -15.2235 N   0  0  0  0  0  0  0  0  0  0  0  0
   13.0561  -12.1908  -14.0623 C   0  0  0  0  0  0  0  0  0  0  0  0
   11.8683  -12.0516  -14.4556 O   0  0  0  0  0  0  0  0  0  0  0  0
   13.4507  -11.4761  -12.9569 O   0  0  0  0  0  0  0  0  0  0  0  0
  2  1  1  0
  3  2  1  0
  3  4  2  0
  6  5  1  0
  7  8  1  0
  7  6  1  0
  9  8  1  1
  9 10  1  0
 10  3  1  0
 11  9  1  0
 12 11  2  0
 14 13  1  0
 14 15  2  0
 16 14  1  0
 17 16  1  0
 18 17  1  0
 19 18  1  0
 20 21  1  0
 20 19  1  6
 21 11  1  0
 22 20  1  0
 23 22  2  0
 24 22  1  0
M  END
$$$$
