GMR.pdb
     RDKit          3D

 24 23  0  0  1  0  0  0  0  0999 V2000
   31.1463  -20.7195  -10.0120 N   0  0  0  0  0  0  0  0  0  0  0  0
   30.1246  -21.6726  -10.3861 C   0  0  0  0  0  0  0  0  0  0  0  0
   28.9232  -21.5662   -9.5273 C   0  0  0  0  0  0  0  0  0  0  0  0
   28.0716  -22.4872   -9.6149 O   0  0  0  0  0  0  0  0  0  0  0  0
   27.8037  -19.7957   -3.1119 C   0  0  0  0  0  0  0  0  0  0  0  0
   28.9613  -19.0380   -4.2600 S   0  0  0  0  0  0  0  0  0  0  0  0
   28.9785  -20.0043   -5.8158 C   0  0  0  0  0  0  0  0  0  0  0  0
   27.7999  -19.5649   -6.6191 C   0  0  0  0  0  0  0  0  0  0  0  0
   27.4856  -20.4102   -7.8107 C   0  0  2  0  0  0  0  0  0  0  0  0
   28.6788  -20.5091   -8.6294 N   0  0  0  0  0  0  0  0  0  0  0  0
   26.3508  -19.9438   -8.6208 C   0  0  0  0  0  0  0  0  0  0  0  0
   26.1911  -18.7464   -8.9686 O   0  0  0  0  0  0  0  0  0  0  0  0
   24.6646  -21.9515  -16.5847 N   0  0  0  0  0  0  0  0  0  0  0  0
   23.5833  -21.1340  -16.2201 C   0  0  0  0  0  0  0  0  0  0  0  0
   22.7565  -20.6291  -17.1029 N   0  0  0  0  0  0  0  0  0  0  0  0
   23.3472  -20.8257  -14.8655 N   0  0  0  0  0  0  0  0  0  0  0  0
   24.1764  -21.3890  -13.8024 C   0  0  0  0  0  0  0  0  0  0  0  0
   23.8047  -20.7917  -12.4636 C   0  0  0  0  0  0  0  0  0  0  0  0
   24.7487  -21.2564  -11.3809 C   0  0  0  0  0  0  0  0  0  0  0  0
   24.3966  -20.5967  -10.0445 C   0  0  2  0  0  0  0  0  0  0  0  0
   25.3692  -20.8804   -9.0443 N   0  0  0  0  0  0  0  0  0  0  0  0
   23.0123  -20.9592   -9.6572 C   0  0  0  0  0  0  0  0  0  0  0  0
   22.8692  -21.7014   -8.6505 O   0  0  0  0  0  0  0  0  0  0  0  0
   21.8773  -20.5468  -10.3131 O   0  0  0  0  0  0  0  0  0  0  0  0
  2  1  1  0
  3  2  1  0
  3  4  2  0
  6  5  1  0
  7  8  1  0
  7  6  1  0
  9  8  1  1
  9 10  1  0
 10  3  1  0
 11  9  1  0
 12 11  2  0
 14 13  1  0
 14 15  2  0
 16 14  1  0
 17 16  1  0
 18 17  1  0
 19 18  1  0
 20 21  1  0
 20 19  1  6
 21 11  1  0
 22 20  1  0
 23 22  2  0
 24 22  1  0
M  END
$$$$
