GMR.pdb
     RDKit          3D

 24 23  0  0  1  0  0  0  0  0999 V2000
   32.0930  -22.4122  -10.9629 N   0  0  0  0  0  0  0  0  0  0  0  0
   31.2330  -21.2587  -10.8153 C   0  0  0  0  0  0  0  0  0  0  0  0
   29.8556  -21.6378  -10.4262 C   0  0  0  0  0  0  0  0  0  0  0  0
   29.7310  -22.4502   -9.4744 O   0  0  0  0  0  0  0  0  0  0  0  0
   28.2637  -19.1558   -6.7119 C   0  0  0  0  0  0  0  0  0  0  0  0
   26.4991  -19.4823   -6.8223 S   0  0  0  0  0  0  0  0  0  0  0  0
   26.1473  -20.3347   -8.4048 C   0  0  0  0  0  0  0  0  0  0  0  0
   27.4478  -20.4857   -9.1212 C   0  0  0  0  0  0  0  0  0  0  0  0
   27.3761  -21.1890  -10.4379 C   0  0  2  0  0  0  0  0  0  0  0  0
   28.6907  -21.1505  -11.0496 N   0  0  0  0  0  0  0  0  0  0  0  0
   26.3670  -20.6627  -11.3686 C   0  0  0  0  0  0  0  0  0  0  0  0
   26.2452  -19.4421  -11.6439 O   0  0  0  0  0  0  0  0  0  0  0  0
   22.2964  -27.0598  -14.7282 N   0  0  0  0  0  0  0  0  0  0  0  0
   22.5386  -25.9451  -15.5462 C   0  0  0  0  0  0  0  0  0  0  0  0
   22.5047  -26.0141  -16.8545 N   0  0  0  0  0  0  0  0  0  0  0  0
   22.8301  -24.6907  -14.9742 N   0  0  0  0  0  0  0  0  0  0  0  0
   22.7893  -24.4871  -13.5278 C   0  0  0  0  0  0  0  0  0  0  0  0
   22.8987  -23.0164  -13.1932 C   0  0  0  0  0  0  0  0  0  0  0  0
   24.1061  -22.3974  -13.8552 C   0  0  0  0  0  0  0  0  0  0  0  0
   24.5915  -21.1844  -13.0561 C   0  0  2  0  0  0  0  0  0  0  0  0
   25.4701  -21.5648  -12.0024 N   0  0  0  0  0  0  0  0  0  0  0  0
   23.4279  -20.3821  -12.6088 C   0  0  0  0  0  0  0  0  0  0  0  0
   22.7422  -19.8128  -13.4980 O   0  0  0  0  0  0  0  0  0  0  0  0
   23.0432  -20.2141  -11.3003 O   0  0  0  0  0  0  0  0  0  0  0  0
  2  1  1  0
  3  2  1  0
  3  4  2  0
  6  5  1  0
  7  8  1  0
  7  6  1  0
  9  8  1  1
  9 10  1  0
 10  3  1  0
 11  9  1  0
 12 11  2  0
 14 13  1  0
 14 15  2  0
 16 14  1  0
 17 16  1  0
 18 17  1  0
 19 18  1  0
 20 21  1  0
 20 19  1  1
 21 11  1  0
 22 20  1  0
 23 22  2  0
 24 22  1  0
M  END
$$$$
