GMR.pdb
     RDKit          3D

 24 23  0  0  1  0  0  0  0  0999 V2000
   26.9067  -17.6308  -15.5030 N   0  0  0  0  0  0  0  0  0  0  0  0
   26.2033  -17.7953  -14.2499 C   0  0  0  0  0  0  0  0  0  0  0  0
   26.4211  -19.1364  -13.6615 C   0  0  0  0  0  0  0  0  0  0  0  0
   27.0715  -19.9656  -14.3475 O   0  0  0  0  0  0  0  0  0  0  0  0
   25.2627  -21.0434   -7.6081 C   0  0  0  0  0  0  0  0  0  0  0  0
   26.5524  -19.8288   -7.9141 S   0  0  0  0  0  0  0  0  0  0  0  0
   26.8942  -19.7605   -9.7122 C   0  0  0  0  0  0  0  0  0  0  0  0
   26.0289  -20.7875  -10.3632 C   0  0  0  0  0  0  0  0  0  0  0  0
   26.1376  -20.8666  -11.8516 C   0  0  2  0  0  0  0  0  0  0  0  0
   25.9497  -19.5353  -12.3958 N   0  0  0  0  0  0  0  0  0  0  0  0
   25.2123  -21.8126  -12.4923 C   0  0  0  0  0  0  0  0  0  0  0  0
   23.9682  -21.7974  -12.3123 O   0  0  0  0  0  0  0  0  0  0  0  0
   20.9926  -25.7930  -15.6014 N   0  0  0  0  0  0  0  0  0  0  0  0
   20.1199  -24.6956  -15.5348 C   0  0  0  0  0  0  0  0  0  0  0  0
   18.8902  -24.8027  -15.0941 N   0  0  0  0  0  0  0  0  0  0  0  0
   20.5482  -23.4178  -15.9466 N   0  0  0  0  0  0  0  0  0  0  0  0
   21.9007  -23.1965  -16.4535 C   0  0  0  0  0  0  0  0  0  0  0  0
   22.9151  -23.9258  -15.6014 C   0  0  0  0  0  0  0  0  0  0  0  0
   23.7825  -22.9537  -14.8385 C   0  0  0  0  0  0  0  0  0  0  0  0
   24.9095  -23.6963  -14.1147 C   0  0  2  0  0  0  0  0  0  0  0  0
   25.7308  -22.8065  -13.3660 N   0  0  0  0  0  0  0  0  0  0  0  0
   25.6572  -24.5353  -15.0815 C   0  0  0  0  0  0  0  0  0  0  0  0
   26.7306  -24.0674  -15.5439 O   0  0  0  0  0  0  0  0  0  0  0  0
   25.2673  -25.7817  -15.5090 O   0  0  0  0  0  0  0  0  0  0  0  0
  2  1  1  0
  3  2  1  0
  3  4  2  0
  6  5  1  0
  7  8  1  0
  7  6  1  0
  9  8  1  1
  9 10  1  0
 10  3  1  0
 11  9  1  0
 12 11  2  0
 14 13  1  0
 14 15  2  0
 16 14  1  0
 17 16  1  0
 18 17  1  0
 19 18  1  0
 20 21  1  0
 20 19  1  6
 21 11  1  0
 22 20  1  0
 23 22  2  0
 24 22  1  0
M  END
$$$$
