GMR.pdb
     RDKit          3D

 24 23  0  0  1  0  0  0  0  0999 V2000
   25.8566   -7.1339  -22.4539 N   0  0  0  0  0  0  0  0  0  0  0  0
   25.3130   -6.5651  -21.2403 C   0  0  0  0  0  0  0  0  0  0  0  0
   24.9005   -7.6077  -20.2732 C   0  0  0  0  0  0  0  0  0  0  0  0
   24.0632   -8.4584  -20.6686 O   0  0  0  0  0  0  0  0  0  0  0  0
   27.7349  -12.2005  -15.4341 C   0  0  0  0  0  0  0  0  0  0  0  0
   27.3868  -10.4492  -15.2243 S   0  0  0  0  0  0  0  0  0  0  0  0
   25.7996  -10.0528  -16.0478 C   0  0  0  0  0  0  0  0  0  0  0  0
   26.1005   -9.0746  -17.1341 C   0  0  0  0  0  0  0  0  0  0  0  0
   24.9442   -8.7133  -18.0093 C   0  0  2  0  0  0  0  0  0  0  0  0
   25.3827   -7.7034  -18.9535 N   0  0  0  0  0  0  0  0  0  0  0  0
   23.7445   -8.2537  -17.2945 C   0  0  0  0  0  0  0  0  0  0  0  0
   23.6451   -7.1195  -16.7614 O   0  0  0  0  0  0  0  0  0  0  0  0
   15.5663  -12.0207  -16.5223 N   0  0  0  0  0  0  0  0  0  0  0  0
   15.4947  -10.7227  -15.9925 C   0  0  0  0  0  0  0  0  0  0  0  0
   14.3626  -10.1797  -15.6168 N   0  0  0  0  0  0  0  0  0  0  0  0
   16.6622   -9.9479  -15.8435 N   0  0  0  0  0  0  0  0  0  0  0  0
   17.9705  -10.4599  -16.2454 C   0  0  0  0  0  0  0  0  0  0  0  0
   19.0221   -9.3785  -16.1376 C   0  0  0  0  0  0  0  0  0  0  0  0
   20.3550   -9.8639  -16.6544 C   0  0  0  0  0  0  0  0  0  0  0  0
   21.4042   -8.7527  -16.5553 C   0  0  2  0  0  0  0  0  0  0  0  0
   22.6248   -9.1226  -17.1880 N   0  0  0  0  0  0  0  0  0  0  0  0
   21.5616   -8.3383  -15.1407 C   0  0  0  0  0  0  0  0  0  0  0  0
   20.8753   -7.3598  -14.7451 O   0  0  0  0  0  0  0  0  0  0  0  0
   22.3980   -8.9408  -14.2318 O   0  0  0  0  0  0  0  0  0  0  0  0
  2  1  1  0
  3  2  1  0
  3  4  2  0
  6  5  1  0
  7  8  1  0
  7  6  1  0
  9  8  1  1
  9 10  1  0
 10  3  1  0
 11  9  1  0
 12 11  2  0
 14 13  1  0
 14 15  2  0
 16 14  1  0
 17 16  1  0
 18 17  1  0
 19 18  1  0
 20 21  1  0
 20 19  1  1
 21 11  1  0
 22 20  1  0
 23 22  2  0
 24 22  1  0
M  END
$$$$
