GMR.pdb
     RDKit          3D

 24 23  0  0  1  0  0  0  0  0999 V2000
   29.2389  -20.2178  -17.1719 N   0  0  0  0  0  0  0  0  0  0  0  0
   29.3114  -19.5228  -15.9055 C   0  0  0  0  0  0  0  0  0  0  0  0
   28.8626  -20.3717  -14.7784 C   0  0  0  0  0  0  0  0  0  0  0  0
   28.0412  -21.2870  -15.0408 O   0  0  0  0  0  0  0  0  0  0  0  0
   33.2999  -22.9670  -10.2682 C   0  0  0  0  0  0  0  0  0  0  0  0
   31.8739  -21.9093   -9.9847 S   0  0  0  0  0  0  0  0  0  0  0  0
   30.8178  -21.9167  -11.4811 C   0  0  0  0  0  0  0  0  0  0  0  0
   29.6777  -20.9900  -11.2189 C   0  0  0  0  0  0  0  0  0  0  0  0
   28.6714  -20.8849  -12.3188 C   0  0  2  0  0  0  0  0  0  0  0  0
   29.2940  -20.2184  -13.4466 N   0  0  0  0  0  0  0  0  0  0  0  0
   27.4209  -20.2038  -11.9532 C   0  0  0  0  0  0  0  0  0  0  0  0
   27.3125  -18.9551  -11.8561 O   0  0  0  0  0  0  0  0  0  0  0  0
   19.0053  -21.8448  -14.0907 N   0  0  0  0  0  0  0  0  0  0  0  0
   19.0336  -20.6494  -13.3553 C   0  0  0  0  0  0  0  0  0  0  0  0
   17.9776  -19.8856  -13.2168 N   0  0  0  0  0  0  0  0  0  0  0  0
   20.2224  -20.2257  -12.7286 N   0  0  0  0  0  0  0  0  0  0  0  0
   21.4658  -20.9805  -12.8682 C   0  0  0  0  0  0  0  0  0  0  0  0
   22.5615  -20.3626  -12.0288 C   0  0  0  0  0  0  0  0  0  0  0  0
   23.8826  -21.0537  -12.2665 C   0  0  0  0  0  0  0  0  0  0  0  0
   24.9832  -20.4107  -11.4175 C   0  0  2  0  0  0  0  0  0  0  0  0
   26.2594  -20.9797  -11.6907 N   0  0  0  0  0  0  0  0  0  0  0  0
   24.5997  -20.4530   -9.9862 C   0  0  0  0  0  0  0  0  0  0  0  0
   25.0102  -21.4298   -9.3063 O   0  0  0  0  0  0  0  0  0  0  0  0
   23.8320  -19.5085   -9.3482 O   0  0  0  0  0  0  0  0  0  0  0  0
  2  1  1  0
  3  2  1  0
  3  4  2  0
  6  5  1  0
  7  8  1  0
  7  6  1  0
  9  8  1  1
  9 10  1  0
 10  3  1  0
 11  9  1  0
 12 11  2  0
 14 13  1  0
 14 15  2  0
 16 14  1  0
 17 16  1  0
 18 17  1  0
 19 18  1  0
 20 21  1  0
 20 19  1  6
 21 11  1  0
 22 20  1  0
 23 22  2  0
 24 22  1  0
M  END
$$$$
