GMR.pdb
     RDKit          3D

 24 23  0  0  1  0  0  0  0  0999 V2000
   15.5498  -17.9200    2.9003 N   0  0  0  0  0  0  0  0  0  0  0  0
   16.8585  -18.5249    2.7835 C   0  0  0  0  0  0  0  0  0  0  0  0
   17.4458  -18.8399    4.1057 C   0  0  0  0  0  0  0  0  0  0  0  0
   16.8663  -18.3700    5.1180 O   0  0  0  0  0  0  0  0  0  0  0  0
   20.8411  -23.8735    3.4772 C   0  0  0  0  0  0  0  0  0  0  0  0
   19.7950  -23.9676    4.9363 S   0  0  0  0  0  0  0  0  0  0  0  0
   18.8038  -22.4325    5.0607 C   0  0  0  0  0  0  0  0  0  0  0  0
   19.7273  -21.3479    5.5058 C   0  0  0  0  0  0  0  0  0  0  0  0
   19.1179  -19.9867    5.6019 C   0  0  2  0  0  0  0  0  0  0  0  0
   18.6000  -19.6239    4.2965 N   0  0  0  0  0  0  0  0  0  0  0  0
   20.0184  -18.9372    6.1009 C   0  0  0  0  0  0  0  0  0  0  0  0
   20.9417  -18.4298    5.4149 O   0  0  0  0  0  0  0  0  0  0  0  0
   20.2405  -12.3779    5.9807 N   0  0  0  0  0  0  0  0  0  0  0  0
   18.9375  -12.7363    5.6008 C   0  0  0  0  0  0  0  0  0  0  0  0
   18.3973  -12.3302    4.4778 N   0  0  0  0  0  0  0  0  0  0  0  0
   18.1543  -13.5624    6.4312 N   0  0  0  0  0  0  0  0  0  0  0  0
   18.7237  -14.2160    7.6075 C   0  0  0  0  0  0  0  0  0  0  0  0
   19.4330  -15.4932    7.2166 C   0  0  0  0  0  0  0  0  0  0  0  0
   19.9404  -16.2271    8.4345 C   0  0  0  0  0  0  0  0  0  0  0  0
   20.7106  -17.4840    8.0196 C   0  0  2  0  0  0  0  0  0  0  0  0
   19.8543  -18.4554    7.4279 N   0  0  0  0  0  0  0  0  0  0  0  0
   21.4934  -17.9937    9.1707 C   0  0  0  0  0  0  0  0  0  0  0  0
   21.0984  -19.0594    9.7120 O   0  0  0  0  0  0  0  0  0  0  0  0
   22.6145  -17.3915    9.6893 O   0  0  0  0  0  0  0  0  0  0  0  0
  2  1  1  0
  3  2  1  0
  3  4  2  0
  6  5  1  0
  7  8  1  0
  7  6  1  0
  9  8  1  6
  9 10  1  0
 10  3  1  0
 11  9  1  0
 12 11  2  0
 14 13  1  0
 14 15  2  0
 16 14  1  0
 17 16  1  0
 18 17  1  0
 19 18  1  0
 20 21  1  0
 20 19  1  1
 21 11  1  0
 22 20  1  0
 23 22  2  0
 24 22  1  0
M  END
$$$$
