GMR.pdb
     RDKit          3D

 24 23  0  0  1  0  0  0  0  0999 V2000
   24.9421  -25.7151  -15.5927 N   0  0  0  0  0  0  0  0  0  0  0  0
   23.5070  -25.8938  -15.6158 C   0  0  0  0  0  0  0  0  0  0  0  0
   22.8284  -25.0811  -14.5807 C   0  0  0  0  0  0  0  0  0  0  0  0
   23.4191  -24.0431  -14.1872 O   0  0  0  0  0  0  0  0  0  0  0  0
   20.1791  -21.5383  -16.5482 C   0  0  0  0  0  0  0  0  0  0  0  0
   19.0836  -21.1695  -15.1711 S   0  0  0  0  0  0  0  0  0  0  0  0
   19.4910  -22.2771  -13.7705 C   0  0  0  0  0  0  0  0  0  0  0  0
   20.3993  -23.3372  -14.2984 C   0  0  0  0  0  0  0  0  0  0  0  0
   20.7367  -24.4295  -13.3359 C   0  0  2  0  0  0  0  0  0  0  0  0
   21.5771  -25.3960  -14.0165 N   0  0  0  0  0  0  0  0  0  0  0  0
   19.5786  -25.1016  -12.7287 C   0  0  0  0  0  0  0  0  0  0  0  0
   18.6668  -25.6531  -13.3958 O   0  0  0  0  0  0  0  0  0  0  0  0
   18.5181  -26.0552   -4.2164 N   0  0  0  0  0  0  0  0  0  0  0  0
   17.3138  -25.5167   -4.6963 C   0  0  0  0  0  0  0  0  0  0  0  0
   16.4189  -24.9815   -3.9023 N   0  0  0  0  0  0  0  0  0  0  0  0
   17.0245  -25.5337   -6.0753 N   0  0  0  0  0  0  0  0  0  0  0  0
   17.6925  -26.4661   -6.9805 C   0  0  0  0  0  0  0  0  0  0  0  0
   17.3042  -26.1867   -8.4152 C   0  0  0  0  0  0  0  0  0  0  0  0
   18.3896  -25.4202   -9.1320 C   0  0  0  0  0  0  0  0  0  0  0  0
   18.3530  -25.7186  -10.6336 C   0  0  2  0  0  0  0  0  0  0  0  0
   19.4634  -25.1416  -11.3127 N   0  0  0  0  0  0  0  0  0  0  0  0
   17.0367  -25.3243  -11.1899 C   0  0  0  0  0  0  0  0  0  0  0  0
   16.9012  -24.1296  -11.5630 O   0  0  0  0  0  0  0  0  0  0  0  0
   15.9569  -26.1629  -11.3283 O   0  0  0  0  0  0  0  0  0  0  0  0
  2  1  1  0
  3  2  1  0
  3  4  2  0
  6  5  1  0
  7  8  1  0
  7  6  1  0
  9  8  1  6
  9 10  1  0
 10  3  1  0
 11  9  1  0
 12 11  2  0
 14 13  1  0
 14 15  2  0
 16 14  1  0
 17 16  1  0
 18 17  1  0
 19 18  1  0
 20 21  1  0
 20 19  1  1
 21 11  1  0
 22 20  1  0
 23 22  2  0
 24 22  1  0
M  END
$$$$
