GMR.pdb
     RDKit          3D

 24 23  0  0  1  0  0  0  0  0999 V2000
   31.4291  -31.5301  -16.8386 N   0  0  0  0  0  0  0  0  0  0  0  0
   30.4581  -31.6198  -15.7704 C   0  0  0  0  0  0  0  0  0  0  0  0
   29.0940  -31.8890  -16.2794 C   0  0  0  0  0  0  0  0  0  0  0  0
   28.8444  -31.5439  -17.4626 O   0  0  0  0  0  0  0  0  0  0  0  0
   29.0701  -36.5544  -15.4051 C   0  0  0  0  0  0  0  0  0  0  0  0
   27.3238  -36.4425  -14.9926 S   0  0  0  0  0  0  0  0  0  0  0  0
   26.5078  -35.2880  -16.1569 C   0  0  0  0  0  0  0  0  0  0  0  0
   26.2376  -34.0260  -15.4074 C   0  0  0  0  0  0  0  0  0  0  0  0
   26.7469  -32.7770  -16.0510 C   0  0  2  0  0  0  0  0  0  0  0  0
   28.0714  -32.5002  -15.5285 N   0  0  0  0  0  0  0  0  0  0  0  0
   25.8816  -31.5992  -15.8918 C   0  0  0  0  0  0  0  0  0  0  0  0
   25.7249  -30.9945  -14.8008 O   0  0  0  0  0  0  0  0  0  0  0  0
   23.8754  -25.0894  -21.6059 N   0  0  0  0  0  0  0  0  0  0  0  0
   23.2033  -24.8013  -20.4076 C   0  0  0  0  0  0  0  0  0  0  0  0
   22.4886  -23.7145  -20.2477 N   0  0  0  0  0  0  0  0  0  0  0  0
   23.2762  -25.6912  -19.3174 N   0  0  0  0  0  0  0  0  0  0  0  0
   24.0974  -26.8984  -19.3755 C   0  0  0  0  0  0  0  0  0  0  0  0
   23.9080  -27.7323  -18.1282 C   0  0  0  0  0  0  0  0  0  0  0  0
   24.7055  -29.0120  -18.2044 C   0  0  0  0  0  0  0  0  0  0  0  0
   24.4067  -29.9016  -16.9941 C   0  0  2  0  0  0  0  0  0  0  0  0
   25.1742  -31.1004  -17.0191 N   0  0  0  0  0  0  0  0  0  0  0  0
   22.9452  -30.1252  -16.8864 C   0  0  0  0  0  0  0  0  0  0  0  0
   22.2451  -29.1732  -16.4524 O   0  0  0  0  0  0  0  0  0  0  0  0
   22.2997  -31.2904  -17.2241 O   0  0  0  0  0  0  0  0  0  0  0  0
  2  1  1  0
  3  2  1  0
  3  4  2  0
  6  5  1  0
  7  8  1  0
  7  6  1  0
  9  8  1  1
  9 10  1  0
 10  3  1  0
 11  9  1  0
 12 11  2  0
 14 13  1  0
 14 15  2  0
 16 14  1  0
 17 16  1  0
 18 17  1  0
 19 18  1  0
 20 21  1  0
 20 19  1  6
 21 11  1  0
 22 20  1  0
 23 22  2  0
 24 22  1  0
M  END
$$$$
