GMR.pdb
     RDKit          3D

 24 23  0  0  1  0  0  0  0  0999 V2000
   25.3283  -16.0115  -19.0287 N   0  0  0  0  0  0  0  0  0  0  0  0
   24.5733  -14.8037  -19.2801 C   0  0  0  0  0  0  0  0  0  0  0  0
   24.7125  -13.8216  -18.1808 C   0  0  0  0  0  0  0  0  0  0  0  0
   23.8874  -13.8979  -17.2349 O   0  0  0  0  0  0  0  0  0  0  0  0
   30.3443  -12.6993  -16.9433 C   0  0  0  0  0  0  0  0  0  0  0  0
   29.4418  -13.0146  -15.4206 S   0  0  0  0  0  0  0  0  0  0  0  0
   27.6567  -13.1606  -15.8037 C   0  0  0  0  0  0  0  0  0  0  0  0
   27.2679  -11.9344  -16.5604 C   0  0  0  0  0  0  0  0  0  0  0  0
   25.8481  -11.8917  -17.0252 C   0  0  2  0  0  0  0  0  0  0  0  0
   25.7003  -12.8191  -18.1306 N   0  0  0  0  0  0  0  0  0  0  0  0
   25.3612  -10.5592  -17.4113 C   0  0  0  0  0  0  0  0  0  0  0  0
   25.8077   -9.9140  -18.3935 O   0  0  0  0  0  0  0  0  0  0  0  0
   17.2927   -8.1085  -16.3786 N   0  0  0  0  0  0  0  0  0  0  0  0
   17.8496   -8.9554  -17.3498 C   0  0  0  0  0  0  0  0  0  0  0  0
   17.1430   -9.8634  -17.9774 N   0  0  0  0  0  0  0  0  0  0  0  0
   19.2136   -8.8523  -17.6883 N   0  0  0  0  0  0  0  0  0  0  0  0
   20.0797   -7.8581  -17.0586 C   0  0  0  0  0  0  0  0  0  0  0  0
   21.5075   -8.0199  -17.5303 C   0  0  0  0  0  0  0  0  0  0  0  0
   22.4066   -8.4575  -16.3992 C   0  0  0  0  0  0  0  0  0  0  0  0
   23.8444   -8.6341  -16.8962 C   0  0  2  0  0  0  0  0  0  0  0  0
   24.3304   -9.9487  -16.6465 N   0  0  0  0  0  0  0  0  0  0  0  0
   24.7014   -7.5602  -16.3396 C   0  0  0  0  0  0  0  0  0  0  0  0
   25.6325   -7.9061  -15.5661 O   0  0  0  0  0  0  0  0  0  0  0  0
   24.5558   -6.2196  -16.6042 O   0  0  0  0  0  0  0  0  0  0  0  0
  2  1  1  0
  3  2  1  0
  3  4  2  0
  6  5  1  0
  7  8  1  0
  7  6  1  0
  9  8  1  6
  9 10  1  0
 10  3  1  0
 11  9  1  0
 12 11  2  0
 14 13  1  0
 14 15  2  0
 16 14  1  0
 17 16  1  0
 18 17  1  0
 19 18  1  0
 20 21  1  0
 20 19  1  1
 21 11  1  0
 22 20  1  0
 23 22  2  0
 24 22  1  0
M  END
$$$$
