PCS.pdb
     RDKit          3D

 20 20  0  0  1  0  0  0  0  0999 V2000
    8.9312  -13.6992   20.3595 N   0  0  0  0  0  0  0  0  0  0  0  0
    8.1890  -13.7297   19.1146 C   0  0  0  0  0  0  0  0  0  0  0  0
    7.1203  -14.7506   19.3850 C   0  0  0  0  0  0  0  0  0  0  0  0
    6.9155  -14.6885   20.8813 C   0  0  0  0  0  0  0  0  0  0  0  0
    7.8934  -13.6310   21.3469 C   0  0  1  0  0  0  0  0  0  0  0  0
    8.4335  -13.9704   22.7060 C   0  0  0  0  0  0  0  0  0  0  0  0
    9.5866  -14.4865   22.8534 O   0  0  0  0  0  0  0  0  0  0  0  0
    7.6951  -13.7368   23.8894 N   0  0  0  0  0  0  0  0  0  0  0  0
    8.1658  -14.0510   25.2232 C   0  0  1  0  0  0  0  0  0  0  0  0
    7.3971  -13.2968   26.2549 C   0  0  0  0  0  0  0  0  0  0  0  0
    5.6190  -13.5930   25.9833 S   0  0  0  0  0  0  0  0  0  0  0  0
    8.2535  -15.4985   25.4616 C   0  0  0  0  0  0  0  0  0  0  0  0
    7.2884  -16.2069   25.0839 O   0  0  0  0  0  0  0  0  0  0  0  0
   11.6679  -17.4803   25.4560 O   0  0  0  0  0  0  0  0  0  0  0  0
   10.4686  -18.1471   25.3034 C   0  0  0  0  0  0  0  0  0  0  0  0
    9.4562  -17.5345   26.2471 C   0  0  2  0  0  0  0  0  0  0  0  0
    9.3736  -16.0991   26.0918 N   0  0  0  0  0  0  0  0  0  0  0  0
    9.7265  -17.9266   27.6446 C   0  0  0  0  0  0  0  0  0  0  0  0
    9.8808  -17.0882   28.5666 O   0  0  0  0  0  0  0  0  0  0  0  0
    9.8126  -19.2770   27.9488 O   0  0  0  0  0  0  0  0  0  0  0  0
  2  1  1  0
  3  2  1  0
  4  3  1  0
  4  5  1  0
  5  1  1  0
  5  6  1  1
  7  6  2  0
  8  6  1  0
  9  8  1  0
  9 12  1  0
  9 10  1  1
 11 10  1  0
 12 17  1  0
 13 12  2  0
 15 14  1  0
 16 15  1  6
 16 18  1  0
 17 16  1  0
 18 19  2  0
 18 20  1  0
M  END
$$$$
