PCS.pdb
     RDKit          3D

 20 20  0  0  1  0  0  0  0  0999 V2000
    8.4749  -14.7629   20.3459 N   0  0  0  0  0  0  0  0  0  0  0  0
    7.6864  -15.1382   19.1890 C   0  0  0  0  0  0  0  0  0  0  0  0
    6.6784  -16.0927   19.7639 C   0  0  0  0  0  0  0  0  0  0  0  0
    6.5303  -15.6557   21.2034 C   0  0  0  0  0  0  0  0  0  0  0  0
    7.4749  -14.4802   21.3343 C   0  0  1  0  0  0  0  0  0  0  0  0
    8.0837  -14.4400   22.7061 C   0  0  0  0  0  0  0  0  0  0  0  0
    9.2279  -14.9437   22.9408 O   0  0  0  0  0  0  0  0  0  0  0  0
    7.4234  -13.8441   23.8057 N   0  0  0  0  0  0  0  0  0  0  0  0
    7.9352  -13.8356   25.1611 C   0  0  1  0  0  0  0  0  0  0  0  0
    7.1269  -12.9364   26.0341 C   0  0  0  0  0  0  0  0  0  0  0  0
    7.8424  -12.9611   27.7107 S   0  0  0  0  0  0  0  0  0  0  0  0
    8.1345  -15.1902   25.6949 C   0  0  0  0  0  0  0  0  0  0  0  0
    7.1583  -15.9785   25.6528 O   0  0  0  0  0  0  0  0  0  0  0  0
   10.5379  -19.0620   26.3222 O   0  0  0  0  0  0  0  0  0  0  0  0
   10.4480  -17.7800   25.8175 C   0  0  0  0  0  0  0  0  0  0  0  0
    9.5424  -16.9715   26.7214 C   0  0  2  0  0  0  0  0  0  0  0  0
    9.3714  -15.6177   26.2423 N   0  0  0  0  0  0  0  0  0  0  0  0
   10.0152  -17.0095   28.1196 C   0  0  0  0  0  0  0  0  0  0  0  0
   10.2934  -15.9721   28.7700 O   0  0  0  0  0  0  0  0  0  0  0  0
   10.1564  -18.2431   28.7376 O   0  0  0  0  0  0  0  0  0  0  0  0
  2  1  1  0
  3  2  1  0
  4  3  1  0
  4  5  1  0
  5  1  1  0
  5  6  1  1
  7  6  2  0
  8  6  1  0
  9  8  1  0
  9 12  1  0
  9 10  1  1
 11 10  1  0
 12 17  1  0
 13 12  2  0
 15 14  1  0
 16 15  1  6
 16 18  1  0
 17 16  1  0
 18 19  2  0
 18 20  1  0
M  END
$$$$
