PCS.pdb
     RDKit          3D

 20 20  0  0  1  0  0  0  0  0999 V2000
    8.4678  -16.3434   18.4819 N   0  0  0  0  0  0  0  0  0  0  0  0
    7.7568  -17.0842   17.4587 C   0  0  0  0  0  0  0  0  0  0  0  0
    7.1207  -18.2031   18.2341 C   0  0  0  0  0  0  0  0  0  0  0  0
    6.9397  -17.6373   19.6240 C   0  0  0  0  0  0  0  0  0  0  0  0
    7.4939  -16.2320   19.5287 C   0  0  1  0  0  0  0  0  0  0  0  0
    8.1481  -15.8317   20.8193 C   0  0  0  0  0  0  0  0  0  0  0  0
    9.3905  -16.0160   21.0202 O   0  0  0  0  0  0  0  0  0  0  0  0
    7.4244  -15.2317   21.8759 N   0  0  0  0  0  0  0  0  0  0  0  0
    8.0024  -14.8414   23.1458 C   0  0  1  0  0  0  0  0  0  0  0  0
    7.1038  -13.9038   23.8788 C   0  0  0  0  0  0  0  0  0  0  0  0
    7.8390  -13.5535   25.5098 S   0  0  0  0  0  0  0  0  0  0  0  0
    8.4579  -15.9951   23.9340 C   0  0  0  0  0  0  0  0  0  0  0  0
    7.6310  -16.9163   24.1428 O   0  0  0  0  0  0  0  0  0  0  0  0
   12.4768  -16.6343   24.8647 O   0  0  0  0  0  0  0  0  0  0  0  0
   11.6234  -17.6933   24.6268 C   0  0  0  0  0  0  0  0  0  0  0  0
   10.2359  -17.3038   25.0893 C   0  0  2  0  0  0  0  0  0  0  0  0
    9.7754  -16.0905   24.4513 N   0  0  0  0  0  0  0  0  0  0  0  0
   10.1714  -17.2151   26.5617 C   0  0  0  0  0  0  0  0  0  0  0  0
    9.8194  -16.1708   27.1636 O   0  0  0  0  0  0  0  0  0  0  0  0
   10.5139  -18.3328   27.3081 O   0  0  0  0  0  0  0  0  0  0  0  0
  2  1  1  0
  3  2  1  0
  4  3  1  0
  4  5  1  0
  5  1  1  0
  5  6  1  1
  7  6  2  0
  8  6  1  0
  9  8  1  0
  9 12  1  0
  9 10  1  1
 11 10  1  0
 12 17  1  0
 13 12  2  0
 15 14  1  0
 16 15  1  1
 16 18  1  0
 17 16  1  0
 18 19  2  0
 18 20  1  0
M  END
$$$$
