PCS.pdb
     RDKit          3D

 20 20  0  0  1  0  0  0  0  0999 V2000
    6.9706  -14.7469   20.5825 N   0  0  0  0  0  0  0  0  0  0  0  0
    6.7020  -14.2817   19.2361 C   0  0  0  0  0  0  0  0  0  0  0  0
    7.1581  -12.8506   19.2773 C   0  0  0  0  0  0  0  0  0  0  0  0
    8.2311  -12.8319   20.3417 C   0  0  0  0  0  0  0  0  0  0  0  0
    8.2987  -14.2642   20.8269 C   0  0  1  0  0  0  0  0  0  0  0  0
    8.6176  -14.3124   22.2932 C   0  0  0  0  0  0  0  0  0  0  0  0
    9.8060  -14.4913   22.7097 O   0  0  0  0  0  0  0  0  0  0  0  0
    7.6212  -14.1628   23.2856 N   0  0  0  0  0  0  0  0  0  0  0  0
    7.8914  -14.0228   24.7021 C   0  0  1  0  0  0  0  0  0  0  0  0
    6.8509  -13.1863   25.3667 C   0  0  0  0  0  0  0  0  0  0  0  0
    7.2653  -13.0449   27.1363 S   0  0  0  0  0  0  0  0  0  0  0  0
    8.1484  -15.3139   25.3554 C   0  0  0  0  0  0  0  0  0  0  0  0
    7.1958  -16.1290   25.4214 O   0  0  0  0  0  0  0  0  0  0  0  0
   11.8298  -16.9822   25.6253 O   0  0  0  0  0  0  0  0  0  0  0  0
   10.6825  -17.7443   25.7211 C   0  0  0  0  0  0  0  0  0  0  0  0
    9.6445  -16.9534   26.4879 C   0  0  2  0  0  0  0  0  0  0  0  0
    9.4141  -15.6528   25.8991 N   0  0  0  0  0  0  0  0  0  0  0  0
    9.9971  -16.8599   27.9186 C   0  0  0  0  0  0  0  0  0  0  0  0
   10.2872  -17.8652   28.6128 O   0  0  0  0  0  0  0  0  0  0  0  0
   10.0078  -15.6090   28.5177 O   0  0  0  0  0  0  0  0  0  0  0  0
  2  1  1  0
  3  2  1  0
  4  3  1  0
  4  5  1  0
  5  1  1  0
  5  6  1  1
  7  6  2  0
  8  6  1  0
  9  8  1  0
  9 12  1  0
  9 10  1  1
 11 10  1  0
 12 17  1  0
 13 12  2  0
 15 14  1  0
 16 15  1  6
 16 18  1  0
 17 16  1  0
 18 19  2  0
 18 20  1  0
M  END
$$$$
