PCS.pdb
     RDKit          3D

 20 20  0  0  1  0  0  0  0  0999 V2000
    8.2788  -14.8256   20.1390 N   0  0  0  0  0  0  0  0  0  0  0  0
    7.5410  -15.3713   19.0169 C   0  0  0  0  0  0  0  0  0  0  0  0
    6.7489  -16.4835   19.6439 C   0  0  0  0  0  0  0  0  0  0  0  0
    6.5642  -16.0463   21.0790 C   0  0  0  0  0  0  0  0  0  0  0  0
    7.2736  -14.7113   21.1554 C   0  0  1  0  0  0  0  0  0  0  0  0
    7.9046  -14.5231   22.5046 C   0  0  0  0  0  0  0  0  0  0  0  0
    9.0880  -14.9216   22.7466 O   0  0  0  0  0  0  0  0  0  0  0  0
    7.2231  -13.8965   23.5737 N   0  0  0  0  0  0  0  0  0  0  0  0
    7.7499  -13.7688   24.9173 C   0  0  1  0  0  0  0  0  0  0  0  0
    6.9080  -12.8519   25.7387 C   0  0  0  0  0  0  0  0  0  0  0  0
    7.6042  -12.7793   27.4220 S   0  0  0  0  0  0  0  0  0  0  0  0
    8.0231  -15.0716   25.5400 C   0  0  0  0  0  0  0  0  0  0  0  0
    7.0642  -15.8750   25.6461 O   0  0  0  0  0  0  0  0  0  0  0  0
   11.6826  -16.8272   25.6182 O   0  0  0  0  0  0  0  0  0  0  0  0
   10.5195  -17.5549   25.7735 C   0  0  0  0  0  0  0  0  0  0  0  0
    9.5479  -16.7357   26.5956 C   0  0  2  0  0  0  0  0  0  0  0  0
    9.3109  -15.4341   26.0116 N   0  0  0  0  0  0  0  0  0  0  0  0
    9.9889  -16.6410   28.0015 C   0  0  0  0  0  0  0  0  0  0  0  0
   10.2867  -17.6490   28.6884 O   0  0  0  0  0  0  0  0  0  0  0  0
   10.0773  -15.3857   28.5846 O   0  0  0  0  0  0  0  0  0  0  0  0
  2  1  1  0
  3  2  1  0
  4  3  1  0
  4  5  1  0
  5  1  1  0
  5  6  1  1
  7  6  2  0
  8  6  1  0
  9  8  1  0
  9 12  1  0
  9 10  1  1
 11 10  1  0
 12 17  1  0
 13 12  2  0
 15 14  1  0
 16 15  1  6
 16 18  1  0
 17 16  1  0
 18 19  2  0
 18 20  1  0
M  END
$$$$
