PCS.pdb
     RDKit          3D

 20 20  0  0  1  0  0  0  0  0999 V2000
    7.0088  -14.7322   20.8532 N   0  0  0  0  0  0  0  0  0  0  0  0
    6.7023  -14.3389   19.4920 C   0  0  0  0  0  0  0  0  0  0  0  0
    7.3139  -12.9702   19.3915 C   0  0  0  0  0  0  0  0  0  0  0  0
    8.4521  -12.9966   20.3858 C   0  0  0  0  0  0  0  0  0  0  0  0
    8.3953  -14.3879   20.9793 C   0  0  1  0  0  0  0  0  0  0  0  0
    8.8053  -14.3651   22.4233 C   0  0  0  0  0  0  0  0  0  0  0  0
   10.0153  -14.1784   22.7681 O   0  0  0  0  0  0  0  0  0  0  0  0
    7.8755  -14.5486   23.4730 N   0  0  0  0  0  0  0  0  0  0  0  0
    8.2314  -14.6458   24.8741 C   0  0  1  0  0  0  0  0  0  0  0  0
    7.4129  -13.7133   25.7015 C   0  0  0  0  0  0  0  0  0  0  0  0
    5.6777  -14.2704   25.6560 S   0  0  0  0  0  0  0  0  0  0  0  0
    8.2500  -16.0347   25.3541 C   0  0  0  0  0  0  0  0  0  0  0  0
    7.2205  -16.7271   25.1626 O   0  0  0  0  0  0  0  0  0  0  0  0
   11.5240  -18.2458   25.6345 O   0  0  0  0  0  0  0  0  0  0  0  0
   10.2843  -18.8515   25.6869 C   0  0  0  0  0  0  0  0  0  0  0  0
    9.3509  -17.9644   26.4823 C   0  0  2  0  0  0  0  0  0  0  0  0
    9.3742  -16.5973   26.0114 N   0  0  0  0  0  0  0  0  0  0  0  0
    9.6322  -18.0578   27.9287 C   0  0  0  0  0  0  0  0  0  0  0  0
    9.8552  -17.0493   28.6428 O   0  0  0  0  0  0  0  0  0  0  0  0
    9.6498  -19.3120   28.5203 O   0  0  0  0  0  0  0  0  0  0  0  0
  2  1  1  0
  3  2  1  0
  4  3  1  0
  4  5  1  0
  5  1  1  0
  5  6  1  1
  7  6  2  0
  8  6  1  0
  9  8  1  0
  9 12  1  0
  9 10  1  1
 11 10  1  0
 12 17  1  0
 13 12  2  0
 15 14  1  0
 16 15  1  6
 16 18  1  0
 17 16  1  0
 18 19  2  0
 18 20  1  0
M  END
$$$$
