PCS.pdb
     RDKit          3D

 20 20  0  0  1  0  0  0  0  0999 V2000
    6.8538  -14.5050   20.8058 N   0  0  0  0  0  0  0  0  0  0  0  0
    6.5062  -14.0706   19.4673 C   0  0  0  0  0  0  0  0  0  0  0  0
    7.2772  -12.7895   19.3184 C   0  0  0  0  0  0  0  0  0  0  0  0
    8.4688  -12.9634   20.2320 C   0  0  0  0  0  0  0  0  0  0  0  0
    8.2780  -14.3389   20.8344 C   0  0  1  0  0  0  0  0  0  0  0  0
    8.7863  -14.3740   22.2467 C   0  0  0  0  0  0  0  0  0  0  0  0
   10.0311  -14.4141   22.5045 O   0  0  0  0  0  0  0  0  0  0  0  0
    7.9152  -14.3644   23.3608 N   0  0  0  0  0  0  0  0  0  0  0  0
    8.3526  -14.3817   24.7419 C   0  0  1  0  0  0  0  0  0  0  0  0
    7.4847  -13.5154   25.5905 C   0  0  0  0  0  0  0  0  0  0  0  0
    5.8175  -14.2503   25.6528 S   0  0  0  0  0  0  0  0  0  0  0  0
    8.5434  -15.7461   25.2537 C   0  0  0  0  0  0  0  0  0  0  0  0
    7.6169  -16.5712   25.0619 O   0  0  0  0  0  0  0  0  0  0  0  0
   11.3654  -19.3855   25.8887 O   0  0  0  0  0  0  0  0  0  0  0  0
   11.1619  -18.0763   25.4999 C   0  0  0  0  0  0  0  0  0  0  0  0
    9.9640  -17.5345   26.2498 C   0  0  2  0  0  0  0  0  0  0  0  0
    9.7188  -16.1430   25.9416 N   0  0  0  0  0  0  0  0  0  0  0  0
   10.0963  -17.7660   27.7020 C   0  0  0  0  0  0  0  0  0  0  0  0
   10.0748  -16.8332   28.5423 O   0  0  0  0  0  0  0  0  0  0  0  0
   10.2501  -19.0682   28.1538 O   0  0  0  0  0  0  0  0  0  0  0  0
  2  1  1  0
  3  2  1  0
  4  3  1  0
  4  5  1  0
  5  1  1  0
  5  6  1  1
  7  6  2  0
  8  6  1  0
  9  8  1  0
  9 12  1  0
  9 10  1  1
 11 10  1  0
 12 17  1  0
 13 12  2  0
 15 14  1  0
 16 15  1  6
 16 18  1  0
 17 16  1  0
 18 19  2  0
 18 20  1  0
M  END
$$$$
