PCS.pdb
     RDKit          3D

 20 20  0  0  1  0  0  0  0  0999 V2000
   -3.4358  -24.9661   24.0300 N   0  0  0  0  0  0  0  0  0  0  0  0
   -2.6244  -25.8012   23.1666 C   0  0  0  0  0  0  0  0  0  0  0  0
   -1.3024  -25.8383   23.8799 C   0  0  0  0  0  0  0  0  0  0  0  0
   -1.6584  -25.6381   25.3352 C   0  0  0  0  0  0  0  0  0  0  0  0
   -3.1658  -25.4994   25.3337 C   0  0  1  0  0  0  0  0  0  0  0  0
   -3.6107  -24.5405   26.3998 C   0  0  0  0  0  0  0  0  0  0  0  0
   -3.4136  -24.7797   27.6334 O   0  0  0  0  0  0  0  0  0  0  0  0
   -4.2688  -23.3267   26.0938 N   0  0  0  0  0  0  0  0  0  0  0  0
   -4.8044  -22.4140   27.0833 C   0  0  1  0  0  0  0  0  0  0  0  0
   -4.8781  -21.0243   26.5471 C   0  0  0  0  0  0  0  0  0  0  0  0
   -5.8879  -21.0423   25.0295 S   0  0  0  0  0  0  0  0  0  0  0  0
   -6.0523  -22.9056   27.6840 C   0  0  0  0  0  0  0  0  0  0  0  0
   -6.8729  -23.4788   26.9263 O   0  0  0  0  0  0  0  0  0  0  0  0
   -6.5191  -25.0947   30.7158 O   0  0  0  0  0  0  0  0  0  0  0  0
   -7.3108  -23.9878   30.9489 C   0  0  0  0  0  0  0  0  0  0  0  0
   -7.5616  -23.2913   29.6287 C   0  0  2  0  0  0  0  0  0  0  0  0
   -6.3446  -22.7521   29.0636 N   0  0  0  0  0  0  0  0  0  0  0  0
   -8.6144  -22.2646   29.7605 C   0  0  0  0  0  0  0  0  0  0  0  0
   -8.3590  -21.0564   29.9877 O   0  0  0  0  0  0  0  0  0  0  0  0
   -9.9390  -22.6535   29.6271 O   0  0  0  0  0  0  0  0  0  0  0  0
  2  1  1  0
  3  2  1  0
  4  3  1  0
  4  5  1  0
  5  1  1  0
  5  6  1  1
  7  6  2  0
  8  6  1  0
  9  8  1  0
  9 12  1  0
  9 10  1  6
 11 10  1  0
 12 17  1  0
 13 12  2  0
 15 14  1  0
 16 15  1  1
 16 18  1  0
 17 16  1  0
 18 19  2  0
 18 20  1  0
M  END
$$$$
