PCS.pdb
     RDKit          3D

 20 20  0  0  1  0  0  0  0  0999 V2000
    8.6267  -15.1205   20.1744 N   0  0  0  0  0  0  0  0  0  0  0  0
    7.9449  -15.6744   19.0214 C   0  0  0  0  0  0  0  0  0  0  0  0
    6.9940  -16.6626   19.6353 C   0  0  0  0  0  0  0  0  0  0  0  0
    6.7222  -16.1099   21.0158 C   0  0  0  0  0  0  0  0  0  0  0  0
    7.5486  -14.8433   21.0787 C   0  0  1  0  0  0  0  0  0  0  0  0
    8.0689  -14.6186   22.4689 C   0  0  0  0  0  0  0  0  0  0  0  0
    9.2025  -15.0644   22.8348 O   0  0  0  0  0  0  0  0  0  0  0  0
    7.3325  -13.9037   23.4420 N   0  0  0  0  0  0  0  0  0  0  0  0
    7.7352  -13.7529   24.8255 C   0  0  1  0  0  0  0  0  0  0  0  0
    6.8525  -12.7854   25.5388 C   0  0  0  0  0  0  0  0  0  0  0  0
    7.4027  -12.6697   27.2730 S   0  0  0  0  0  0  0  0  0  0  0  0
    7.9034  -15.0447   25.5057 C   0  0  0  0  0  0  0  0  0  0  0  0
    6.9071  -15.8070   25.5552 O   0  0  0  0  0  0  0  0  0  0  0  0
   11.2608  -17.2788   25.5034 O   0  0  0  0  0  0  0  0  0  0  0  0
    9.9683  -17.7158   25.7151 C   0  0  0  0  0  0  0  0  0  0  0  0
    9.2888  -16.7577   26.6698 C   0  0  2  0  0  0  0  0  0  0  0  0
    9.1327  -15.4410   26.0924 N   0  0  0  0  0  0  0  0  0  0  0  0
    9.9899  -16.7144   27.9685 C   0  0  0  0  0  0  0  0  0  0  0  0
   10.2728  -17.7489   28.6215 O   0  0  0  0  0  0  0  0  0  0  0  0
   10.3499  -15.4789   28.4858 O   0  0  0  0  0  0  0  0  0  0  0  0
  2  1  1  0
  3  2  1  0
  4  3  1  0
  4  5  1  0
  5  1  1  0
  5  6  1  1
  7  6  2  0
  8  6  1  0
  9  8  1  0
  9 12  1  0
  9 10  1  1
 11 10  1  0
 12 17  1  0
 13 12  2  0
 15 14  1  0
 16 15  1  6
 16 18  1  0
 17 16  1  0
 18 19  2  0
 18 20  1  0
M  END
$$$$
