PCS.pdb
     RDKit          3D

 20 20  0  0  1  0  0  0  0  0999 V2000
    7.8654  -14.9874   19.0606 N   0  0  0  0  0  0  0  0  0  0  0  0
    7.8610  -14.1413   17.8836 C   0  0  0  0  0  0  0  0  0  0  0  0
    7.4099  -12.8142   18.4249 C   0  0  0  0  0  0  0  0  0  0  0  0
    7.8589  -12.8282   19.8681 C   0  0  0  0  0  0  0  0  0  0  0  0
    8.5325  -14.1735   20.0350 C   0  0  1  0  0  0  0  0  0  0  0  0
    8.3058  -14.7116   21.4181 C   0  0  0  0  0  0  0  0  0  0  0  0
    8.8264  -14.1607   22.4395 O   0  0  0  0  0  0  0  0  0  0  0  0
    7.5064  -15.8529   21.6603 N   0  0  0  0  0  0  0  0  0  0  0  0
    7.1407  -16.3313   22.9781 C   0  0  1  0  0  0  0  0  0  0  0  0
    5.9084  -17.1693   22.9217 C   0  0  0  0  0  0  0  0  0  0  0  0
    6.2756  -18.6748   21.9614 S   0  0  0  0  0  0  0  0  0  0  0  0
    8.2707  -16.9508   23.6846 C   0  0  0  0  0  0  0  0  0  0  0  0
    9.1750  -17.4708   22.9862 O   0  0  0  0  0  0  0  0  0  0  0  0
   11.0526  -15.9988   25.2284 O   0  0  0  0  0  0  0  0  0  0  0  0
   10.4793  -16.6594   26.2968 C   0  0  0  0  0  0  0  0  0  0  0  0
    9.4608  -17.6427   25.7615 C   0  0  2  0  0  0  0  0  0  0  0  0
    8.3619  -16.9746   25.1000 N   0  0  0  0  0  0  0  0  0  0  0  0
    8.9956  -18.5574   26.8230 C   0  0  0  0  0  0  0  0  0  0  0  0
    7.7932  -18.6291   27.1778 O   0  0  0  0  0  0  0  0  0  0  0  0
    9.9270  -19.3700   27.4521 O   0  0  0  0  0  0  0  0  0  0  0  0
  2  1  1  0
  3  2  1  0
  4  3  1  0
  4  5  1  0
  5  1  1  0
  5  6  1  1
  7  6  2  0
  8  6  1  0
  9  8  1  0
  9 12  1  0
  9 10  1  6
 11 10  1  0
 12 17  1  0
 13 12  2  0
 15 14  1  0
 16 15  1  1
 16 18  1  0
 17 16  1  0
 18 19  2  0
 18 20  1  0
M  END
$$$$
