PCS.pdb
     RDKit          3D

 20 20  0  0  1  0  0  0  0  0999 V2000
    6.8855  -14.9267   20.8603 N   0  0  0  0  0  0  0  0  0  0  0  0
    6.5183  -14.6273   19.4904 C   0  0  0  0  0  0  0  0  0  0  0  0
    7.1046  -13.2606   19.2758 C   0  0  0  0  0  0  0  0  0  0  0  0
    8.2824  -13.2077   20.2218 C   0  0  0  0  0  0  0  0  0  0  0  0
    8.2706  -14.5578   20.9063 C   0  0  1  0  0  0  0  0  0  0  0  0
    8.7383  -14.4353   22.3277 C   0  0  0  0  0  0  0  0  0  0  0  0
    9.9736  -14.3392   22.6152 O   0  0  0  0  0  0  0  0  0  0  0  0
    7.8377  -14.4201   23.4180 N   0  0  0  0  0  0  0  0  0  0  0  0
    8.2309  -14.2491   24.8019 C   0  0  1  0  0  0  0  0  0  0  0  0
    7.2679  -13.3725   25.5288 C   0  0  0  0  0  0  0  0  0  0  0  0
    7.8844  -13.1172   27.2253 S   0  0  0  0  0  0  0  0  0  0  0  0
    8.5170  -15.5280   25.4669 C   0  0  0  0  0  0  0  0  0  0  0  0
    7.5824  -16.3628   25.5428 O   0  0  0  0  0  0  0  0  0  0  0  0
   11.1882  -17.6548   24.5977 O   0  0  0  0  0  0  0  0  0  0  0  0
   11.2723  -17.7883   25.9694 C   0  0  0  0  0  0  0  0  0  0  0  0
   10.0577  -17.1322   26.5900 C   0  0  2  0  0  0  0  0  0  0  0  0
    9.7907  -15.8342   26.0111 N   0  0  0  0  0  0  0  0  0  0  0  0
   10.1800  -17.0693   28.0601 C   0  0  0  0  0  0  0  0  0  0  0  0
   10.0803  -15.9958   28.7037 O   0  0  0  0  0  0  0  0  0  0  0  0
   10.4142  -18.2459   28.7561 O   0  0  0  0  0  0  0  0  0  0  0  0
  2  1  1  0
  3  2  1  0
  4  3  1  0
  4  5  1  0
  5  1  1  0
  5  6  1  1
  7  6  2  0
  8  6  1  0
  9  8  1  0
  9 12  1  0
  9 10  1  1
 11 10  1  0
 12 17  1  0
 13 12  2  0
 15 14  1  0
 16 15  1  6
 16 18  1  0
 17 16  1  0
 18 19  2  0
 18 20  1  0
M  END
$$$$
