ATF.pdb
     RDKit          3D

 24 24  0  0  1  0  0  0  0  0999 V2000
   23.9920  -14.5579  -15.2431 C   0  0  0  0  0  0  0  0  0  0  0  0
   25.0636  -15.2512  -16.0504 C   0  0  2  0  0  0  0  0  0  0  0  0
   24.8728  -15.0130  -17.4620 N   0  0  0  0  0  0  0  0  0  0  0  0
   25.1766  -16.6935  -15.7295 C   0  0  0  0  0  0  0  0  0  0  0  0
   24.1326  -17.3788  -15.8011 O   0  0  0  0  0  0  0  0  0  0  0  0
   27.3167  -19.0876  -17.4880 C   0  0  0  0  0  0  0  0  0  0  0  0
   27.6196  -19.3197  -16.0231 C   0  0  1  0  0  0  0  0  0  0  0  0
   28.8704  -18.7199  -15.7865 O   0  0  0  0  0  0  0  0  0  0  0  0
   26.6032  -18.7062  -15.1316 C   0  0  2  0  0  0  0  0  0  0  0  0
   26.4153  -17.2939  -15.3526 N   0  0  0  0  0  0  0  0  0  0  0  0
   26.8290  -18.9564  -13.6853 C   0  0  0  0  0  0  0  0  0  0  0  0
   27.1853  -17.9995  -12.9650 O   0  0  0  0  0  0  0  0  0  0  0  0
   26.6622  -20.2169  -13.0831 N   0  0  0  0  0  0  0  0  0  0  0  0
   26.8220  -20.5572  -11.6976 C   0  0  1  0  0  0  0  0  0  0  0  0
   26.1350  -19.6249  -10.7752 C   0  0  0  0  0  0  0  0  0  0  0  0
   24.6868  -19.8681  -10.6804 C   0  0  0  0  0  0  0  0  0  0  0  0
   24.1271  -20.2918   -9.4736 C   0  0  0  0  0  0  0  0  0  0  0  0
   22.7700  -20.5071   -9.3322 C   0  0  0  0  0  0  0  0  0  0  0  0
   21.9132  -20.3085  -10.3900 C   0  0  0  0  0  0  0  0  0  0  0  0
   22.4464  -19.8914  -11.5859 C   0  0  0  0  0  0  0  0  0  0  0  0
   23.7979  -19.6820  -11.7095 C   0  0  0  0  0  0  0  0  0  0  0  0
   26.5844  -21.9887  -11.3921 C   0  0  0  0  0  0  0  0  0  0  0  0
   26.1622  -22.7257  -12.3434 O   0  0  0  0  0  0  0  0  0  0  0  0
   26.7888  -22.5788  -10.1577 O   0  0  0  0  0  0  0  0  0  0  0  0
  2  4  1  0
  2  3  1  0
  2  1  1  1
  4  5  2  0
  7  6  1  6
  7  9  1  0
  8  7  1  0
  9 11  1  0
  9 10  1  1
 10  4  1  0
 11 12  2  0
 11 13  1  0
 13 14  1  0
 14 22  1  0
 14 15  1  1
 16 15  1  0
 16 21  2  0
 17 16  1  0
 18 17  2  0
 18 19  1  0
 19 20  2  0
 20 21  1  0
 22 23  2  0
 22 24  1  0
M  END
$$$$
