ATF.pdb
     RDKit          3D

 24 24  0  0  1  0  0  0  0  0999 V2000
   28.7609  -22.9500  -16.7150 C   0  0  0  0  0  0  0  0  0  0  0  0
   28.1311  -22.2453  -17.8930 C   0  0  2  0  0  0  0  0  0  0  0  0
   29.1429  -21.6275  -18.7179 N   0  0  0  0  0  0  0  0  0  0  0  0
   27.0710  -21.2925  -17.4879 C   0  0  0  0  0  0  0  0  0  0  0  0
   27.4319  -20.1396  -17.1631 O   0  0  0  0  0  0  0  0  0  0  0  0
   24.1835  -20.0210  -19.4652 C   0  0  0  0  0  0  0  0  0  0  0  0
   23.6012  -20.6085  -18.1974 C   0  0  1  0  0  0  0  0  0  0  0  0
   23.1077  -21.8783  -18.5500 O   0  0  0  0  0  0  0  0  0  0  0  0
   24.6167  -20.7558  -17.1243 C   0  0  2  0  0  0  0  0  0  0  0  0
   25.6911  -21.6558  -17.4627 N   0  0  0  0  0  0  0  0  0  0  0  0
   24.0563  -21.1278  -15.8004 C   0  0  0  0  0  0  0  0  0  0  0  0
   24.1797  -22.3094  -15.4133 O   0  0  0  0  0  0  0  0  0  0  0  0
   23.3925  -20.2172  -14.9579 N   0  0  0  0  0  0  0  0  0  0  0  0
   22.8159  -20.4726  -13.6683 C   0  0  1  0  0  0  0  0  0  0  0  0
   23.4927  -19.7556  -12.5639 C   0  0  0  0  0  0  0  0  0  0  0  0
   24.8841  -20.1891  -12.3603 C   0  0  0  0  0  0  0  0  0  0  0  0
   25.9227  -19.5435  -13.0339 C   0  0  0  0  0  0  0  0  0  0  0  0
   27.2450  -19.8999  -12.8532 C   0  0  0  0  0  0  0  0  0  0  0  0
   27.5871  -20.9166  -11.9920 C   0  0  0  0  0  0  0  0  0  0  0  0
   26.5778  -21.5636  -11.3202 C   0  0  0  0  0  0  0  0  0  0  0  0
   25.2684  -21.1967  -11.5113 C   0  0  0  0  0  0  0  0  0  0  0  0
   21.3369  -20.3714  -13.6331 C   0  0  0  0  0  0  0  0  0  0  0  0
   20.7757  -19.7051  -14.5646 O   0  0  0  0  0  0  0  0  0  0  0  0
   20.5272  -20.9461  -12.6699 O   0  0  0  0  0  0  0  0  0  0  0  0
  2  4  1  0
  2  3  1  0
  2  1  1  1
  4  5  2  0
  7  6  1  6
  7  9  1  0
  8  7  1  0
  9 11  1  0
  9 10  1  6
 10  4  1  0
 11 12  2  0
 11 13  1  0
 13 14  1  0
 14 22  1  0
 14 15  1  1
 16 15  1  0
 16 21  2  0
 17 16  1  0
 18 17  2  0
 18 19  1  0
 19 20  2  0
 20 21  1  0
 22 23  2  0
 22 24  1  0
M  END
$$$$
