ATF.pdb
     RDKit          3D

 24 24  0  0  1  0  0  0  0  0999 V2000
   21.1245    1.2489  -17.9961 C   0  0  0  0  0  0  0  0  0  0  0  0
   20.8917    1.4816  -16.5221 C   0  0  2  0  0  0  0  0  0  0  0  0
   19.8763    2.4885  -16.3191 N   0  0  0  0  0  0  0  0  0  0  0  0
   22.1428    1.7825  -15.7872 C   0  0  0  0  0  0  0  0  0  0  0  0
   23.0443    0.9156  -15.8139 O   0  0  0  0  0  0  0  0  0  0  0  0
   24.1524    4.9526  -16.3476 C   0  0  0  0  0  0  0  0  0  0  0  0
   23.9943    4.7889  -14.8510 C   0  0  1  0  0  0  0  0  0  0  0  0
   22.9969    5.7033  -14.4646 O   0  0  0  0  0  0  0  0  0  0  0  0
   23.5755    3.4153  -14.4738 C   0  0  2  0  0  0  0  0  0  0  0  0
   22.3304    3.0039  -15.0733 N   0  0  0  0  0  0  0  0  0  0  0  0
   23.5252    3.1729  -13.0096 C   0  0  0  0  0  0  0  0  0  0  0  0
   22.4197    3.2491  -12.4320 O   0  0  0  0  0  0  0  0  0  0  0  0
   24.6595    2.8612  -12.2378 N   0  0  0  0  0  0  0  0  0  0  0  0
   24.7262    2.6482  -10.8197 C   0  0  1  0  0  0  0  0  0  0  0  0
   24.4315    1.2548  -10.4150 C   0  0  0  0  0  0  0  0  0  0  0  0
   24.4807    1.0534   -8.9582 C   0  0  0  0  0  0  0  0  0  0  0  0
   23.3728    1.3724   -8.1710 C   0  0  0  0  0  0  0  0  0  0  0  0
   23.3655    1.1754   -6.8038 C   0  0  0  0  0  0  0  0  0  0  0  0
   24.4646    0.6512   -6.1637 C   0  0  0  0  0  0  0  0  0  0  0  0
   25.5647    0.3311   -6.9227 C   0  0  0  0  0  0  0  0  0  0  0  0
   25.5552    0.5334   -8.2809 C   0  0  0  0  0  0  0  0  0  0  0  0
   25.9342    3.2182  -10.1758 C   0  0  0  0  0  0  0  0  0  0  0  0
   27.0585    2.9739  -10.7260 O   0  0  0  0  0  0  0  0  0  0  0  0
   25.9291    3.9928   -9.0296 O   0  0  0  0  0  0  0  0  0  0  0  0
  2  4  1  0
  2  3  1  0
  2  1  1  6
  4  5  2  0
  7  6  1  6
  7  9  1  0
  8  7  1  0
  9 11  1  0
  9 10  1  1
 10  4  1  0
 11 12  2  0
 11 13  1  0
 13 14  1  0
 14 22  1  0
 14 15  1  6
 16 15  1  0
 16 21  2  0
 17 16  1  0
 18 17  2  0
 18 19  1  0
 19 20  2  0
 20 21  1  0
 22 23  2  0
 22 24  1  0
M  END
$$$$
