ATF.pdb
     RDKit          3D

 24 24  0  0  1  0  0  0  0  0999 V2000
   28.6588  -22.3673  -16.9529 C   0  0  0  0  0  0  0  0  0  0  0  0
   27.3957  -22.2556  -16.1324 C   0  0  2  0  0  0  0  0  0  0  0  0
   26.2902  -21.8229  -16.9549 N   0  0  0  0  0  0  0  0  0  0  0  0
   27.5705  -21.4104  -14.9278 C   0  0  0  0  0  0  0  0  0  0  0  0
   28.6652  -20.8191  -14.7980 O   0  0  0  0  0  0  0  0  0  0  0  0
   26.1050  -18.3400  -14.2432 C   0  0  0  0  0  0  0  0  0  0  0  0
   25.7322  -19.1473  -13.0181 C   0  0  1  0  0  0  0  0  0  0  0  0
   24.4028  -19.5630  -13.2182 O   0  0  0  0  0  0  0  0  0  0  0  0
   26.5993  -20.3394  -12.8413 C   0  0  2  0  0  0  0  0  0  0  0  0
   26.5452  -21.2644  -13.9459 N   0  0  0  0  0  0  0  0  0  0  0  0
   26.3775  -21.0724  -11.5690 C   0  0  0  0  0  0  0  0  0  0  0  0
   25.7873  -22.1729  -11.6120 O   0  0  0  0  0  0  0  0  0  0  0  0
   26.7981  -20.5911  -10.3156 N   0  0  0  0  0  0  0  0  0  0  0  0
   26.5589  -21.1730   -9.0253 C   0  0  1  0  0  0  0  0  0  0  0  0
   27.7973  -21.4712   -8.2707 C   0  0  0  0  0  0  0  0  0  0  0  0
   28.0081  -20.5700   -7.1267 C   0  0  0  0  0  0  0  0  0  0  0  0
   28.6645  -21.0325   -5.9847 C   0  0  0  0  0  0  0  0  0  0  0  0
   28.9069  -20.2145   -4.8983 C   0  0  0  0  0  0  0  0  0  0  0  0
   28.5043  -18.8991   -4.9056 C   0  0  0  0  0  0  0  0  0  0  0  0
   27.8565  -18.4262   -6.0216 C   0  0  0  0  0  0  0  0  0  0  0  0
   27.6235  -19.2529   -7.0931 C   0  0  0  0  0  0  0  0  0  0  0  0
   25.5220  -20.4756   -8.2269 C   0  0  0  0  0  0  0  0  0  0  0  0
   25.1640  -19.3167   -8.6211 O   0  0  0  0  0  0  0  0  0  0  0  0
   24.9174  -20.9894   -7.0937 O   0  0  0  0  0  0  0  0  0  0  0  0
  2  4  1  0
  2  3  1  0
  2  1  1  6
  4  5  2  0
  7  6  1  6
  7  9  1  0
  8  7  1  0
  9 11  1  0
  9 10  1  6
 10  4  1  0
 11 12  2  0
 11 13  1  0
 13 14  1  0
 14 22  1  0
 14 15  1  1
 16 15  1  0
 16 21  2  0
 17 16  1  0
 18 17  2  0
 18 19  1  0
 19 20  2  0
 20 21  1  0
 22 23  2  0
 22 24  1  0
M  END
$$$$
