ATF.pdb
     RDKit          3D

 24 24  0  0  1  0  0  0  0  0999 V2000
   17.2862  -13.1862  -15.5716 C   0  0  0  0  0  0  0  0  0  0  0  0
   16.7830  -11.8427  -15.0995 C   0  0  2  0  0  0  0  0  0  0  0  0
   15.3995  -11.6575  -15.4705 N   0  0  0  0  0  0  0  0  0  0  0  0
   17.6440  -10.7221  -15.5452 C   0  0  0  0  0  0  0  0  0  0  0  0
   18.7605  -11.0153  -16.0272 O   0  0  0  0  0  0  0  0  0  0  0  0
   16.6540   -8.0204  -18.0635 C   0  0  0  0  0  0  0  0  0  0  0  0
   17.1660   -7.3339  -16.8152 C   0  0  1  0  0  0  0  0  0  0  0  0
   16.0239   -6.9228  -16.1033 O   0  0  0  0  0  0  0  0  0  0  0  0
   17.9767   -8.2405  -15.9636 C   0  0  2  0  0  0  0  0  0  0  0  0
   17.2346   -9.3591  -15.4375 N   0  0  0  0  0  0  0  0  0  0  0  0
   18.6963   -7.5584  -14.8581 C   0  0  0  0  0  0  0  0  0  0  0  0
   18.1534   -7.5142  -13.7334 O   0  0  0  0  0  0  0  0  0  0  0  0
   19.9596   -6.9585  -15.0115 N   0  0  0  0  0  0  0  0  0  0  0  0
   20.7320   -6.2695  -14.0168 C   0  0  1  0  0  0  0  0  0  0  0  0
   21.4843   -7.1747  -13.1185 C   0  0  0  0  0  0  0  0  0  0  0  0
   22.3078   -8.1552  -13.8437 C   0  0  0  0  0  0  0  0  0  0  0  0
   23.2502   -7.7213  -14.7778 C   0  0  0  0  0  0  0  0  0  0  0  0
   24.0623   -8.6046  -15.4622 C   0  0  0  0  0  0  0  0  0  0  0  0
   23.9684   -9.9594  -15.2431 C   0  0  0  0  0  0  0  0  0  0  0  0
   23.0461  -10.4049  -14.3268 C   0  0  0  0  0  0  0  0  0  0  0  0
   22.2464   -9.5133  -13.6551 C   0  0  0  0  0  0  0  0  0  0  0  0
   21.5375   -5.1425  -14.5459 C   0  0  0  0  0  0  0  0  0  0  0  0
   22.1150   -4.3884  -13.6948 O   0  0  0  0  0  0  0  0  0  0  0  0
   21.7081   -4.8534  -15.8879 O   0  0  0  0  0  0  0  0  0  0  0  0
  2  4  1  0
  2  3  1  0
  2  1  1  6
  4  5  2  0
  7  6  1  6
  7  9  1  0
  8  7  1  0
  9 11  1  0
  9 10  1  1
 10  4  1  0
 11 12  2  0
 11 13  1  0
 13 14  1  0
 14 22  1  0
 14 15  1  6
 16 15  1  0
 16 21  2  0
 17 16  1  0
 18 17  2  0
 18 19  1  0
 19 20  2  0
 20 21  1  0
 22 23  2  0
 22 24  1  0
M  END
$$$$
