ATF.pdb
     RDKit          3D

 24 24  0  0  1  0  0  0  0  0999 V2000
   20.7991  -11.9669  -16.4238 C   0  0  0  0  0  0  0  0  0  0  0  0
   19.6207  -11.1295  -16.8609 C   0  0  2  0  0  0  0  0  0  0  0  0
   18.9708  -11.7225  -18.0062 N   0  0  0  0  0  0  0  0  0  0  0  0
   19.9815   -9.7100  -17.0862 C   0  0  0  0  0  0  0  0  0  0  0  0
   21.0632   -9.4808  -17.6711 O   0  0  0  0  0  0  0  0  0  0  0  0
   18.2089   -7.2423  -19.1775 C   0  0  0  0  0  0  0  0  0  0  0  0
   18.2986   -6.6341  -17.7942 C   0  0  1  0  0  0  0  0  0  0  0  0
   17.0536   -6.8746  -17.1840 O   0  0  0  0  0  0  0  0  0  0  0  0
   19.3745   -7.2477  -16.9755 C   0  0  2  0  0  0  0  0  0  0  0  0
   19.1436   -8.6357  -16.6612 N   0  0  0  0  0  0  0  0  0  0  0  0
   19.6942   -6.5036  -15.7308 C   0  0  0  0  0  0  0  0  0  0  0  0
   19.0545   -6.7782  -14.6931 O   0  0  0  0  0  0  0  0  0  0  0  0
   20.6816   -5.5039  -15.6591 N   0  0  0  0  0  0  0  0  0  0  0  0
   21.0712   -4.7340  -14.5119 C   0  0  1  0  0  0  0  0  0  0  0  0
   22.4069   -5.0925  -13.9832 C   0  0  0  0  0  0  0  0  0  0  0  0
   22.6048   -6.5444  -13.8491 C   0  0  0  0  0  0  0  0  0  0  0  0
   22.1343   -7.2121  -12.7169 C   0  0  0  0  0  0  0  0  0  0  0  0
   22.2749   -8.5774  -12.5614 C   0  0  0  0  0  0  0  0  0  0  0  0
   22.8916   -9.3350  -13.5301 C   0  0  0  0  0  0  0  0  0  0  0  0
   23.3611   -8.6947  -14.6518 C   0  0  0  0  0  0  0  0  0  0  0  0
   23.2131   -7.3365  -14.7905 C   0  0  0  0  0  0  0  0  0  0  0  0
   20.8547   -3.2743  -14.6576 C   0  0  0  0  0  0  0  0  0  0  0  0
   20.5413   -2.8441  -15.8166 O   0  0  0  0  0  0  0  0  0  0  0  0
   20.9653   -2.3517  -13.6327 O   0  0  0  0  0  0  0  0  0  0  0  0
  2  4  1  0
  2  3  1  0
  2  1  1  6
  4  5  2  0
  7  6  1  6
  7  9  1  0
  8  7  1  0
  9 11  1  0
  9 10  1  1
 10  4  1  0
 11 12  2  0
 11 13  1  0
 13 14  1  0
 14 22  1  0
 14 15  1  6
 16 15  1  0
 16 21  2  0
 17 16  1  0
 18 17  2  0
 18 19  1  0
 19 20  2  0
 20 21  1  0
 22 23  2  0
 22 24  1  0
M  END
$$$$
