ATF.pdb
     RDKit          3D

 24 24  0  0  1  0  0  0  0  0999 V2000
   19.5284  -12.8005  -21.3315 C   0  0  0  0  0  0  0  0  0  0  0  0
   21.0341  -12.8853  -21.2505 C   0  0  2  0  0  0  0  0  0  0  0  0
   21.4625  -14.2609  -21.1498 N   0  0  0  0  0  0  0  0  0  0  0  0
   21.5964  -12.0366  -20.1737 C   0  0  0  0  0  0  0  0  0  0  0  0
   21.5636  -12.4933  -19.0096 O   0  0  0  0  0  0  0  0  0  0  0  0
   25.0814  -10.6292  -19.9685 C   0  0  0  0  0  0  0  0  0  0  0  0
   24.1348   -9.4641  -19.7733 C   0  0  1  0  0  0  0  0  0  0  0  0
   24.1133   -8.7731  -20.9990 O   0  0  0  0  0  0  0  0  0  0  0  0
   22.7586   -9.9049  -19.4327 C   0  0  2  0  0  0  0  0  0  0  0  0
   22.1562  -10.7498  -20.4337 N   0  0  0  0  0  0  0  0  0  0  0  0
   21.8292   -8.7975  -19.0935 C   0  0  0  0  0  0  0  0  0  0  0  0
   21.1572   -8.2827  -20.0126 O   0  0  0  0  0  0  0  0  0  0  0  0
   21.6659   -8.2970  -17.7887 N   0  0  0  0  0  0  0  0  0  0  0  0
   20.8341   -7.2071  -17.3631 C   0  0  1  0  0  0  0  0  0  0  0  0
   19.5712   -7.6401  -16.7232 C   0  0  0  0  0  0  0  0  0  0  0  0
   19.7560   -8.1147  -15.3426 C   0  0  0  0  0  0  0  0  0  0  0  0
   19.3208   -7.3330  -14.2709 C   0  0  0  0  0  0  0  0  0  0  0  0
   19.4503   -7.7505  -12.9606 C   0  0  0  0  0  0  0  0  0  0  0  0
   20.0201   -8.9670  -12.6640 C   0  0  0  0  0  0  0  0  0  0  0  0
   20.4543   -9.7503  -13.7064 C   0  0  0  0  0  0  0  0  0  0  0  0
   20.3180   -9.3200  -15.0033 C   0  0  0  0  0  0  0  0  0  0  0  0
   21.5548   -6.1489  -16.6150 C   0  0  0  0  0  0  0  0  0  0  0  0
   22.6949   -6.4510  -16.1300 O   0  0  0  0  0  0  0  0  0  0  0  0
   21.0832   -4.8648  -16.4087 O   0  0  0  0  0  0  0  0  0  0  0  0
  2  4  1  0
  2  3  1  0
  2  1  1  1
  4  5  2  0
  7  6  1  6
  7  9  1  0
  8  7  1  0
  9 11  1  0
  9 10  1  6
 10  4  1  0
 11 12  2  0
 11 13  1  0
 13 14  1  0
 14 22  1  0
 14 15  1  1
 16 15  1  0
 16 21  2  0
 17 16  1  0
 18 17  2  0
 18 19  1  0
 19 20  2  0
 20 21  1  0
 22 23  2  0
 22 24  1  0
M  END
$$$$
