ATF.pdb
     RDKit          3D

 24 24  0  0  1  0  0  0  0  0999 V2000
   24.3717  -15.4421  -19.9010 C   0  0  0  0  0  0  0  0  0  0  0  0
   23.7356  -14.4183  -20.8110 C   0  0  2  0  0  0  0  0  0  0  0  0
   24.1117  -14.6541  -22.1853 N   0  0  0  0  0  0  0  0  0  0  0  0
   24.0054  -13.0262  -20.3806 C   0  0  0  0  0  0  0  0  0  0  0  0
   25.2007  -12.7058  -20.1973 O   0  0  0  0  0  0  0  0  0  0  0  0
   23.3866   -9.9835  -22.2599 C   0  0  0  0  0  0  0  0  0  0  0  0
   22.6836   -9.7630  -20.9375 C   0  0  1  0  0  0  0  0  0  0  0  0
   21.3193  -10.0102  -21.1782 O   0  0  0  0  0  0  0  0  0  0  0  0
   23.1707  -10.6821  -19.8781 C   0  0  2  0  0  0  0  0  0  0  0  0
   22.9596  -12.0764  -20.1785 N   0  0  0  0  0  0  0  0  0  0  0  0
   22.6471  -10.3820  -18.5213 C   0  0  0  0  0  0  0  0  0  0  0  0
   21.7645  -11.1281  -18.0462 O   0  0  0  0  0  0  0  0  0  0  0  0
   23.0941   -9.2995  -17.7417 N   0  0  0  0  0  0  0  0  0  0  0  0
   22.5688   -8.8450  -16.4854 C   0  0  1  0  0  0  0  0  0  0  0  0
   23.6099   -8.5970  -15.4624 C   0  0  0  0  0  0  0  0  0  0  0  0
   23.0607   -8.1251  -14.1814 C   0  0  0  0  0  0  0  0  0  0  0  0
   22.7845   -9.0373  -13.1613 C   0  0  0  0  0  0  0  0  0  0  0  0
   22.2930   -8.6361  -11.9343 C   0  0  0  0  0  0  0  0  0  0  0  0
   22.0560   -7.3064  -11.6731 C   0  0  0  0  0  0  0  0  0  0  0  0
   22.3221   -6.3939  -12.6657 C   0  0  0  0  0  0  0  0  0  0  0  0
   22.8105   -6.8097  -13.8799 C   0  0  0  0  0  0  0  0  0  0  0  0
   21.5702   -7.7552  -16.6029 C   0  0  0  0  0  0  0  0  0  0  0  0
   21.8130   -6.8301  -17.4466 O   0  0  0  0  0  0  0  0  0  0  0  0
   20.4003   -7.6714  -15.8693 O   0  0  0  0  0  0  0  0  0  0  0  0
  2  4  1  0
  2  3  1  0
  2  1  1  1
  4  5  2  0
  7  6  1  6
  7  9  1  0
  8  7  1  0
  9 11  1  0
  9 10  1  6
 10  4  1  0
 11 12  2  0
 11 13  1  0
 13 14  1  0
 14 22  1  0
 14 15  1  1
 16 15  1  0
 16 21  2  0
 17 16  1  0
 18 17  2  0
 18 19  1  0
 19 20  2  0
 20 21  1  0
 22 23  2  0
 22 24  1  0
M  END
$$$$
