ATF.pdb
     RDKit          3D

 24 24  0  0  1  0  0  0  0  0999 V2000
   16.6479  -13.7430  -14.7504 C   0  0  0  0  0  0  0  0  0  0  0  0
   17.1082  -13.4830  -16.1652 C   0  0  2  0  0  0  0  0  0  0  0  0
   17.5073  -14.7143  -16.8058 N   0  0  0  0  0  0  0  0  0  0  0  0
   18.1570  -12.4389  -16.2413 C   0  0  0  0  0  0  0  0  0  0  0  0
   19.3399  -12.8021  -16.0578 O   0  0  0  0  0  0  0  0  0  0  0  0
   18.7255  -10.0006  -19.1541 C   0  0  0  0  0  0  0  0  0  0  0  0
   18.6364   -9.1941  -17.8761 C   0  0  1  0  0  0  0  0  0  0  0  0
   17.3415   -8.6437  -17.8551 O   0  0  0  0  0  0  0  0  0  0  0  0
   18.8356  -10.0298  -16.6653 C   0  0  2  0  0  0  0  0  0  0  0  0
   17.8506  -11.0715  -16.5116 N   0  0  0  0  0  0  0  0  0  0  0  0
   18.9426   -9.2577  -15.4014 C   0  0  0  0  0  0  0  0  0  0  0  0
   17.9572   -9.2352  -14.6332 O   0  0  0  0  0  0  0  0  0  0  0  0
   20.0977   -8.5489  -15.0233 N   0  0  0  0  0  0  0  0  0  0  0  0
   20.3116   -7.7939  -13.8213 C   0  0  1  0  0  0  0  0  0  0  0  0
   21.6711   -7.9510  -13.2566 C   0  0  0  0  0  0  0  0  0  0  0  0
   22.7245   -7.4007  -14.1243 C   0  0  0  0  0  0  0  0  0  0  0  0
   23.4628   -8.2495  -14.9510 C   0  0  0  0  0  0  0  0  0  0  0  0
   24.4427   -7.7734  -15.8004 C   0  0  0  0  0  0  0  0  0  0  0  0
   24.7274   -6.4288  -15.8607 C   0  0  0  0  0  0  0  0  0  0  0  0
   24.0105   -5.5781  -15.0539 C   0  0  0  0  0  0  0  0  0  0  0  0
   23.0398   -6.0680  -14.2152 C   0  0  0  0  0  0  0  0  0  0  0  0
   19.8518   -6.3862  -13.8980 C   0  0  0  0  0  0  0  0  0  0  0  0
   19.6470   -5.9021  -15.0600 O   0  0  0  0  0  0  0  0  0  0  0  0
   19.6283   -5.5662  -12.8065 O   0  0  0  0  0  0  0  0  0  0  0  0
  2  4  1  0
  2  3  1  0
  2  1  1  1
  4  5  2  0
  7  6  1  6
  7  9  1  0
  8  7  1  0
  9 11  1  0
  9 10  1  1
 10  4  1  0
 11 12  2  0
 11 13  1  0
 13 14  1  0
 14 22  1  0
 14 15  1  6
 16 15  1  0
 16 21  2  0
 17 16  1  0
 18 17  2  0
 18 19  1  0
 19 20  2  0
 20 21  1  0
 22 23  2  0
 22 24  1  0
M  END
$$$$
