ATF.pdb
     RDKit          3D

 24 24  0  0  1  0  0  0  0  0999 V2000
   21.1962  -16.9462  -15.3385 C   0  0  0  0  0  0  0  0  0  0  0  0
   19.9442  -16.6622  -16.1339 C   0  0  2  0  0  0  0  0  0  0  0  0
   19.6737  -17.7370  -17.0599 N   0  0  0  0  0  0  0  0  0  0  0  0
   19.9779  -15.3377  -16.7976 C   0  0  0  0  0  0  0  0  0  0  0  0
   20.8163  -15.1773  -17.7120 O   0  0  0  0  0  0  0  0  0  0  0  0
   16.5464  -12.8575  -17.0618 C   0  0  0  0  0  0  0  0  0  0  0  0
   17.8055  -12.8115  -17.9010 C   0  0  1  0  0  0  0  0  0  0  0  0
   17.8293  -11.5356  -18.4940 O   0  0  0  0  0  0  0  0  0  0  0  0
   19.0337  -12.9993  -17.0881 C   0  0  2  0  0  0  0  0  0  0  0  0
   19.0991  -14.2771  -16.4236 N   0  0  0  0  0  0  0  0  0  0  0  0
   19.2870  -11.9153  -16.1053 C   0  0  0  0  0  0  0  0  0  0  0  0
   18.8481  -12.0518  -14.9433 O   0  0  0  0  0  0  0  0  0  0  0  0
   19.9967  -10.7407  -16.4151 N   0  0  0  0  0  0  0  0  0  0  0  0
   20.2105   -9.5958  -15.5759 C   0  0  1  0  0  0  0  0  0  0  0  0
   21.6380   -9.3336  -15.2832 C   0  0  0  0  0  0  0  0  0  0  0  0
   21.8451   -8.1567  -14.4245 C   0  0  0  0  0  0  0  0  0  0  0  0
   21.8815   -8.3023  -13.0365 C   0  0  0  0  0  0  0  0  0  0  0  0
   22.0993   -7.2297  -12.1938 C   0  0  0  0  0  0  0  0  0  0  0  0
   22.2903   -5.9653  -12.7009 C   0  0  0  0  0  0  0  0  0  0  0  0
   22.2578   -5.8029  -14.0652 C   0  0  0  0  0  0  0  0  0  0  0  0
   22.0401   -6.8799  -14.8888 C   0  0  0  0  0  0  0  0  0  0  0  0
   19.4502   -8.3908  -15.9867 C   0  0  0  0  0  0  0  0  0  0  0  0
   19.3861   -8.1393  -17.2354 O   0  0  0  0  0  0  0  0  0  0  0  0
   18.8077   -7.5264  -15.1184 O   0  0  0  0  0  0  0  0  0  0  0  0
  2  4  1  0
  2  3  1  0
  2  1  1  6
  4  5  2  0
  7  6  1  1
  7  9  1  0
  8  7  1  0
  9 11  1  0
  9 10  1  1
 10  4  1  0
 11 12  2  0
 11 13  1  0
 13 14  1  0
 14 22  1  0
 14 15  1  6
 16 15  1  0
 16 21  2  0
 17 16  1  0
 18 17  2  0
 18 19  1  0
 19 20  2  0
 20 21  1  0
 22 23  2  0
 22 24  1  0
M  END
$$$$
