ATF.pdb
     RDKit          3D

 24 24  0  0  1  0  0  0  0  0999 V2000
   29.2304  -22.2034  -15.5951 C   0  0  0  0  0  0  0  0  0  0  0  0
   27.7378  -21.9814  -15.6543 C   0  0  2  0  0  0  0  0  0  0  0  0
   27.3428  -21.5176  -16.9638 N   0  0  0  0  0  0  0  0  0  0  0  0
   27.2487  -21.0984  -14.5693 C   0  0  0  0  0  0  0  0  0  0  0  0
   27.5807  -19.8934  -14.6191 O   0  0  0  0  0  0  0  0  0  0  0  0
   23.9017  -20.1113  -13.8923 C   0  0  0  0  0  0  0  0  0  0  0  0
   24.3713  -20.6541  -12.5594 C   0  0  1  0  0  0  0  0  0  0  0  0
   23.8110  -21.9399  -12.4458 O   0  0  0  0  0  0  0  0  0  0  0  0
   25.8505  -20.7530  -12.4789 C   0  0  2  0  0  0  0  0  0  0  0  0
   26.4325  -21.5835  -13.5038 N   0  0  0  0  0  0  0  0  0  0  0  0
   26.3628  -21.1728  -11.1498 C   0  0  0  0  0  0  0  0  0  0  0  0
   27.4363  -21.8105  -11.1008 O   0  0  0  0  0  0  0  0  0  0  0  0
   25.7012  -20.8892   -9.9410 N   0  0  0  0  0  0  0  0  0  0  0  0
   26.2513  -20.8972   -8.6150 C   0  0  1  0  0  0  0  0  0  0  0  0
   27.5131  -20.1324   -8.4922 C   0  0  0  0  0  0  0  0  0  0  0  0
   28.0136  -20.0612   -7.1103 C   0  0  0  0  0  0  0  0  0  0  0  0
   28.8886  -21.0387   -6.6329 C   0  0  0  0  0  0  0  0  0  0  0  0
   29.4034  -20.9971   -5.3517 C   0  0  0  0  0  0  0  0  0  0  0  0
   29.0664  -19.9775   -4.4919 C   0  0  0  0  0  0  0  0  0  0  0  0
   28.2061  -19.0062   -4.9447 C   0  0  0  0  0  0  0  0  0  0  0  0
   27.7034  -19.0626   -6.2214 C   0  0  0  0  0  0  0  0  0  0  0  0
   25.2655  -20.6054   -7.5464 C   0  0  0  0  0  0  0  0  0  0  0  0
   24.3622  -19.7433   -7.8058 O   0  0  0  0  0  0  0  0  0  0  0  0
   25.2540  -21.1992   -6.2970 O   0  0  0  0  0  0  0  0  0  0  0  0
  2  4  1  0
  2  3  1  0
  2  1  1  6
  4  5  2  0
  7  6  1  6
  7  9  1  0
  8  7  1  0
  9 11  1  0
  9 10  1  6
 10  4  1  0
 11 12  2  0
 11 13  1  0
 13 14  1  0
 14 22  1  0
 14 15  1  6
 16 15  1  0
 16 21  2  0
 17 16  1  0
 18 17  2  0
 18 19  1  0
 19 20  2  0
 20 21  1  0
 22 23  2  0
 22 24  1  0
M  END
$$$$
