ATF.pdb
     RDKit          3D

 24 24  0  0  1  0  0  0  0  0999 V2000
   23.3489  -12.3757  -21.8351 C   0  0  0  0  0  0  0  0  0  0  0  0
   22.5999  -11.2157  -22.4469 C   0  0  2  0  0  0  0  0  0  0  0  0
   23.0155  -11.0045  -23.8139 N   0  0  0  0  0  0  0  0  0  0  0  0
   22.6914   -9.9827  -21.6301 C   0  0  0  0  0  0  0  0  0  0  0  0
   23.8370   -9.5748  -21.3367 O   0  0  0  0  0  0  0  0  0  0  0  0
   21.0542   -6.6426  -22.4464 C   0  0  0  0  0  0  0  0  0  0  0  0
   20.6929   -6.9808  -21.0157 C   0  0  1  0  0  0  0  0  0  0  0  0
   19.3637   -7.4415  -21.0506 O   0  0  0  0  0  0  0  0  0  0  0  0
   21.5656   -8.0390  -20.4475 C   0  0  2  0  0  0  0  0  0  0  0  0
   21.5332   -9.2762  -21.1871 N   0  0  0  0  0  0  0  0  0  0  0  0
   21.3312   -8.3156  -19.0074 C   0  0  0  0  0  0  0  0  0  0  0  0
   20.7632   -9.3828  -18.6918 O   0  0  0  0  0  0  0  0  0  0  0  0
   21.7163   -7.4368  -17.9784 N   0  0  0  0  0  0  0  0  0  0  0  0
   21.5346   -7.6057  -16.5644 C   0  0  1  0  0  0  0  0  0  0  0  0
   22.8010   -7.5872  -15.7976 C   0  0  0  0  0  0  0  0  0  0  0  0
   22.6180   -7.9023  -14.3719 C   0  0  0  0  0  0  0  0  0  0  0  0
   22.1389   -6.9261  -13.4965 C   0  0  0  0  0  0  0  0  0  0  0  0
   21.9274   -7.1854  -12.1563 C   0  0  0  0  0  0  0  0  0  0  0  0
   22.1853   -8.4310  -11.6325 C   0  0  0  0  0  0  0  0  0  0  0  0
   22.6575   -9.4047  -12.4796 C   0  0  0  0  0  0  0  0  0  0  0  0
   22.8622   -9.1302  -13.8094 C   0  0  0  0  0  0  0  0  0  0  0  0
   20.4676   -6.7557  -15.9830 C   0  0  0  0  0  0  0  0  0  0  0  0
   20.3939   -5.5504  -16.3931 O   0  0  0  0  0  0  0  0  0  0  0  0
   19.5509   -7.1744  -15.0353 O   0  0  0  0  0  0  0  0  0  0  0  0
  2  4  1  0
  2  3  1  0
  2  1  1  1
  4  5  2  0
  7  6  1  6
  7  9  1  0
  8  7  1  0
  9 11  1  0
  9 10  1  6
 10  4  1  0
 11 12  2  0
 11 13  1  0
 13 14  1  0
 14 22  1  0
 14 15  1  1
 16 15  1  0
 16 21  2  0
 17 16  1  0
 18 17  2  0
 18 19  1  0
 19 20  2  0
 20 21  1  0
 22 23  2  0
 22 24  1  0
M  END
$$$$
