ATF.pdb
     RDKit          3D

 24 24  0  0  1  0  0  0  0  0999 V2000
   15.2146  -13.4818  -14.1099 C   0  0  0  0  0  0  0  0  0  0  0  0
   15.9189  -14.1056  -15.2913 C   0  0  2  0  0  0  0  0  0  0  0  0
   15.8638  -15.5468  -15.2148 N   0  0  0  0  0  0  0  0  0  0  0  0
   17.3011  -13.5999  -15.4638 C   0  0  0  0  0  0  0  0  0  0  0  0
   18.2103  -14.1989  -14.8479 O   0  0  0  0  0  0  0  0  0  0  0  0
   19.3135  -13.4358  -18.5247 C   0  0  0  0  0  0  0  0  0  0  0  0
   19.3337  -12.0282  -17.9679 C   0  0  1  0  0  0  0  0  0  0  0  0
   18.4111  -11.2945  -18.7364 O   0  0  0  0  0  0  0  0  0  0  0  0
   18.9328  -11.9797  -16.5392 C   0  0  2  0  0  0  0  0  0  0  0  0
   17.6025  -12.4783  -16.2933 N   0  0  0  0  0  0  0  0  0  0  0  0
   19.0872  -10.6450  -15.9068 C   0  0  0  0  0  0  0  0  0  0  0  0
   18.0630   -9.9545  -15.7179 O   0  0  0  0  0  0  0  0  0  0  0  0
   20.3290  -10.1169  -15.5085 N   0  0  0  0  0  0  0  0  0  0  0  0
   20.6075   -8.7933  -15.0275 C   0  0  1  0  0  0  0  0  0  0  0  0
   21.9963   -8.6179  -14.5452 C   0  0  0  0  0  0  0  0  0  0  0  0
   22.4216   -7.2097  -14.5078 C   0  0  0  0  0  0  0  0  0  0  0  0
   22.0775   -6.4046  -13.4204 C   0  0  0  0  0  0  0  0  0  0  0  0
   22.4772   -5.0854  -13.3313 C   0  0  0  0  0  0  0  0  0  0  0  0
   23.2378   -4.5131  -14.3244 C   0  0  0  0  0  0  0  0  0  0  0  0
   23.5861   -5.2906  -15.4028 C   0  0  0  0  0  0  0  0  0  0  0  0
   23.1805   -6.6005  -15.4757 C   0  0  0  0  0  0  0  0  0  0  0  0
   20.1423   -7.7096  -15.9265 C   0  0  0  0  0  0  0  0  0  0  0  0
   20.3936   -7.8357  -17.1704 O   0  0  0  0  0  0  0  0  0  0  0  0
   19.4577   -6.5799  -15.5156 O   0  0  0  0  0  0  0  0  0  0  0  0
  2  4  1  0
  2  3  1  0
  2  1  1  1
  4  5  2  0
  7  6  1  6
  7  9  1  0
  8  7  1  0
  9 11  1  0
  9 10  1  6
 10  4  1  0
 11 12  2  0
 11 13  1  0
 13 14  1  0
 14 22  1  0
 14 15  1  6
 16 15  1  0
 16 21  2  0
 17 16  1  0
 18 17  2  0
 18 19  1  0
 19 20  2  0
 20 21  1  0
 22 23  2  0
 22 24  1  0
M  END
$$$$
