ATF.pdb
     RDKit          3D

 24 24  0  0  1  0  0  0  0  0999 V2000
   27.9859  -16.3861  -15.6471 C   0  0  0  0  0  0  0  0  0  0  0  0
   27.8333  -17.8887  -15.6389 C   0  0  2  0  0  0  0  0  0  0  0  0
   27.6549  -18.3903  -16.9814 N   0  0  0  0  0  0  0  0  0  0  0  0
   26.7692  -18.3492  -14.7160 C   0  0  0  0  0  0  0  0  0  0  0  0
   25.6821  -17.7307  -14.7426 O   0  0  0  0  0  0  0  0  0  0  0  0
   26.2151  -22.3883  -13.9675 C   0  0  0  0  0  0  0  0  0  0  0  0
   25.2665  -21.2226  -13.7861 C   0  0  1  0  0  0  0  0  0  0  0  0
   24.1946  -21.7118  -13.0168 O   0  0  0  0  0  0  0  0  0  0  0  0
   25.9009  -20.0826  -13.0774 C   0  0  2  0  0  0  0  0  0  0  0  0
   26.9574  -19.4496  -13.8271 N   0  0  0  0  0  0  0  0  0  0  0  0
   26.3866  -20.4066  -11.7121 C   0  0  0  0  0  0  0  0  0  0  0  0
   27.3726  -21.1655  -11.5963 O   0  0  0  0  0  0  0  0  0  0  0  0
   25.7934  -19.9026  -10.5401 N   0  0  0  0  0  0  0  0  0  0  0  0
   26.0563  -20.2930   -9.1839 C   0  0  1  0  0  0  0  0  0  0  0  0
   26.3852  -19.1571   -8.2932 C   0  0  0  0  0  0  0  0  0  0  0  0
   27.3660  -19.5039   -7.2524 C   0  0  0  0  0  0  0  0  0  0  0  0
   27.5900  -18.6322   -6.1853 C   0  0  0  0  0  0  0  0  0  0  0  0
   28.4817  -18.9290   -5.1729 C   0  0  0  0  0  0  0  0  0  0  0  0
   29.1881  -20.1094   -5.1826 C   0  0  0  0  0  0  0  0  0  0  0  0
   28.9804  -20.9800   -6.2255 C   0  0  0  0  0  0  0  0  0  0  0  0
   28.0903  -20.6694   -7.2239 C   0  0  0  0  0  0  0  0  0  0  0  0
   25.0576  -21.2313   -8.6172 C   0  0  0  0  0  0  0  0  0  0  0  0
   23.9268  -21.3028   -9.2026 O   0  0  0  0  0  0  0  0  0  0  0  0
   25.2639  -22.0312   -7.5076 O   0  0  0  0  0  0  0  0  0  0  0  0
  2  4  1  0
  2  3  1  0
  2  1  1  6
  4  5  2  0
  7  6  1  1
  7  9  1  0
  8  7  1  0
  9 11  1  0
  9 10  1  6
 10  4  1  0
 11 12  2  0
 11 13  1  0
 13 14  1  0
 14 22  1  0
 14 15  1  1
 16 15  1  0
 16 21  2  0
 17 16  1  0
 18 17  2  0
 18 19  1  0
 19 20  2  0
 20 21  1  0
 22 23  2  0
 22 24  1  0
M  END
$$$$
