ATF.pdb
     RDKit          3D

 24 24  0  0  1  0  0  0  0  0999 V2000
   26.9758  -23.6005  -17.6904 C   0  0  0  0  0  0  0  0  0  0  0  0
   27.3013  -22.1338  -17.5367 C   0  0  2  0  0  0  0  0  0  0  0  0
   28.3013  -21.7301  -18.4974 N   0  0  0  0  0  0  0  0  0  0  0  0
   27.6721  -21.7739  -16.1479 C   0  0  0  0  0  0  0  0  0  0  0  0
   28.7707  -22.1943  -15.7221 O   0  0  0  0  0  0  0  0  0  0  0  0
   28.6579  -18.7096  -14.8958 C   0  0  0  0  0  0  0  0  0  0  0  0
   27.5219  -19.0635  -13.9600 C   0  0  1  0  0  0  0  0  0  0  0  0
   26.4138  -18.3130  -14.3950 O   0  0  0  0  0  0  0  0  0  0  0  0
   27.1844  -20.5087  -14.0019 C   0  0  2  0  0  0  0  0  0  0  0  0
   26.8253  -20.9822  -15.3155 N   0  0  0  0  0  0  0  0  0  0  0  0
   26.1456  -20.9217  -13.0244 C   0  0  0  0  0  0  0  0  0  0  0  0
   24.9776  -21.0920  -13.4345 O   0  0  0  0  0  0  0  0  0  0  0  0
   26.4087  -21.1314  -11.6583 N   0  0  0  0  0  0  0  0  0  0  0  0
   25.4718  -21.4697  -10.6246 C   0  0  1  0  0  0  0  0  0  0  0  0
   26.1065  -22.0252   -9.4079 C   0  0  0  0  0  0  0  0  0  0  0  0
   26.8733  -21.0252   -8.6481 C   0  0  0  0  0  0  0  0  0  0  0  0
   26.2250  -19.9177   -8.0983 C   0  0  0  0  0  0  0  0  0  0  0  0
   26.9003  -18.9684   -7.3562 C   0  0  0  0  0  0  0  0  0  0  0  0
   28.2525  -19.0841   -7.1310 C   0  0  0  0  0  0  0  0  0  0  0  0
   28.9075  -20.1681   -7.6646 C   0  0  0  0  0  0  0  0  0  0  0  0
   28.2210  -21.1027   -8.4000 C   0  0  0  0  0  0  0  0  0  0  0  0
   24.4641  -20.4171  -10.3495 C   0  0  0  0  0  0  0  0  0  0  0  0
   24.7810  -19.2164  -10.6398 O   0  0  0  0  0  0  0  0  0  0  0  0
   23.2122  -20.6430   -9.8061 O   0  0  0  0  0  0  0  0  0  0  0  0
  2  4  1  0
  2  3  1  0
  2  1  1  1
  4  5  2  0
  7  6  1  6
  7  9  1  0
  8  7  1  0
  9 11  1  0
  9 10  1  6
 10  4  1  0
 11 12  2  0
 11 13  1  0
 13 14  1  0
 14 22  1  0
 14 15  1  1
 16 15  1  0
 16 21  2  0
 17 16  1  0
 18 17  2  0
 18 19  1  0
 19 20  2  0
 20 21  1  0
 22 23  2  0
 22 24  1  0
M  END
$$$$
