ATF.pdb
     RDKit          3D

 24 24  0  0  1  0  0  0  0  0999 V2000
   27.8671  -16.7704  -14.8257 C   0  0  0  0  0  0  0  0  0  0  0  0
   27.5697  -18.2509  -14.7979 C   0  0  2  0  0  0  0  0  0  0  0  0
   27.0795  -18.6965  -16.0813 N   0  0  0  0  0  0  0  0  0  0  0  0
   26.6691  -18.6313  -13.6843 C   0  0  0  0  0  0  0  0  0  0  0  0
   25.7341  -17.8463  -13.4112 O   0  0  0  0  0  0  0  0  0  0  0  0
   24.3763  -21.2621  -13.7235 C   0  0  0  0  0  0  0  0  0  0  0  0
   25.1484  -21.5366  -12.4507 C   0  0  1  0  0  0  0  0  0  0  0  0
   26.0536  -22.5682  -12.7617 O   0  0  0  0  0  0  0  0  0  0  0  0
   25.9012  -20.3472  -11.9785 C   0  0  2  0  0  0  0  0  0  0  0  0
   26.8444  -19.8379  -12.9427 N   0  0  0  0  0  0  0  0  0  0  0  0
   26.5800  -20.5338  -10.6710 C   0  0  0  0  0  0  0  0  0  0  0  0
   27.8293  -20.5335  -10.6444 O   0  0  0  0  0  0  0  0  0  0  0  0
   25.8883  -20.7111   -9.4587 N   0  0  0  0  0  0  0  0  0  0  0  0
   26.4394  -20.7859   -8.1352 C   0  0  1  0  0  0  0  0  0  0  0  0
   27.4543  -19.7448   -7.8560 C   0  0  0  0  0  0  0  0  0  0  0  0
   27.9831  -19.8064   -6.4842 C   0  0  0  0  0  0  0  0  0  0  0  0
   28.8649  -20.8257   -6.1204 C   0  0  0  0  0  0  0  0  0  0  0  0
   29.4059  -20.9073   -4.8520 C   0  0  0  0  0  0  0  0  0  0  0  0
   29.0895  -19.9741   -3.8921 C   0  0  0  0  0  0  0  0  0  0  0  0
   28.2229  -18.9632   -4.2322 C   0  0  0  0  0  0  0  0  0  0  0  0
   27.6940  -18.8969   -5.4977 C   0  0  0  0  0  0  0  0  0  0  0  0
   25.4265  -20.9405   -7.0632 C   0  0  0  0  0  0  0  0  0  0  0  0
   24.2534  -20.5006   -7.3014 O   0  0  0  0  0  0  0  0  0  0  0  0
   25.6608  -21.5259   -5.8319 O   0  0  0  0  0  0  0  0  0  0  0  0
  2  4  1  0
  2  3  1  0
  2  1  1  6
  4  5  2  0
  7  6  1  6
  7  9  1  0
  8  7  1  0
  9 11  1  0
  9 10  1  6
 10  4  1  0
 11 12  2  0
 11 13  1  0
 13 14  1  0
 14 22  1  0
 14 15  1  1
 16 15  1  0
 16 21  2  0
 17 16  1  0
 18 17  2  0
 18 19  1  0
 19 20  2  0
 20 21  1  0
 22 23  2  0
 22 24  1  0
M  END
$$$$
