ATF.pdb
     RDKit          3D

 24 24  0  0  1  0  0  0  0  0999 V2000
   14.5299  -12.0486  -15.0212 C   0  0  0  0  0  0  0  0  0  0  0  0
   15.5177  -12.9527  -15.7196 C   0  0  2  0  0  0  0  0  0  0  0  0
   15.1944  -14.3403  -15.4829 N   0  0  0  0  0  0  0  0  0  0  0  0
   16.9239  -12.6326  -15.3791 C   0  0  0  0  0  0  0  0  0  0  0  0
   17.3582  -13.0563  -14.2851 O   0  0  0  0  0  0  0  0  0  0  0  0
   20.0142  -13.6826  -16.8959 C   0  0  0  0  0  0  0  0  0  0  0  0
   20.1058  -12.1716  -16.9042 C   0  0  1  0  0  0  0  0  0  0  0  0
   19.8105  -11.7730  -18.2211 O   0  0  0  0  0  0  0  0  0  0  0  0
   19.1383  -11.5415  -15.9707 C   0  0  2  0  0  0  0  0  0  0  0  0
   17.7634  -11.8743  -16.2493 N   0  0  0  0  0  0  0  0  0  0  0  0
   19.2775  -10.0680  -15.8500 C   0  0  0  0  0  0  0  0  0  0  0  0
   18.4079   -9.3434  -16.3793 O   0  0  0  0  0  0  0  0  0  0  0  0
   20.3394   -9.4446  -15.1695 N   0  0  0  0  0  0  0  0  0  0  0  0
   20.6512   -8.0441  -15.1220 C   0  0  1  0  0  0  0  0  0  0  0  0
   21.7772   -7.7178  -14.2177 C   0  0  0  0  0  0  0  0  0  0  0  0
   22.1735   -6.3019  -14.2758 C   0  0  0  0  0  0  0  0  0  0  0  0
   21.5374   -5.3643  -13.4602 C   0  0  0  0  0  0  0  0  0  0  0  0
   21.8948   -4.0299  -13.4630 C   0  0  0  0  0  0  0  0  0  0  0  0
   22.9029   -3.5744  -14.2807 C   0  0  0  0  0  0  0  0  0  0  0  0
   23.5405   -4.4833  -15.0906 C   0  0  0  0  0  0  0  0  0  0  0  0
   23.1729   -5.8063  -15.0755 C   0  0  0  0  0  0  0  0  0  0  0  0
   20.7424   -7.3964  -16.4528 C   0  0  0  0  0  0  0  0  0  0  0  0
   21.4143   -8.0024  -17.3516 O   0  0  0  0  0  0  0  0  0  0  0  0
   20.1528   -6.1906  -16.7880 O   0  0  0  0  0  0  0  0  0  0  0  0
  2  4  1  0
  2  3  1  0
  2  1  1  1
  4  5  2  0
  7  6  1  6
  7  9  1  0
  8  7  1  0
  9 11  1  0
  9 10  1  6
 10  4  1  0
 11 12  2  0
 11 13  1  0
 13 14  1  0
 14 22  1  0
 14 15  1  6
 16 15  1  0
 16 21  2  0
 17 16  1  0
 18 17  2  0
 18 19  1  0
 19 20  2  0
 20 21  1  0
 22 23  2  0
 22 24  1  0
M  END
$$$$
