SHQ.pdb
     RDKit          3D

 26 26  0  0  1  0  0  0  0  0999 V2000
   27.6546  -12.6038  -17.2990 O   0  0  0  0  0  0  0  0  0  0  0  0
   27.3057  -11.3745  -17.8479 C   0  0  0  0  0  0  0  0  0  0  0  0
   26.9272  -10.4084  -16.7401 C   0  0  2  0  0  0  0  0  0  0  0  0
   27.0770  -10.9810  -15.4416 N   0  0  0  0  0  0  0  0  0  0  0  0
   25.5268   -9.9776  -16.9760 C   0  0  0  0  0  0  0  0  0  0  0  0
   25.2554   -9.3862  -18.0267 O   0  0  0  0  0  0  0  0  0  0  0  0
   24.4863  -10.2211  -16.0367 N   0  0  0  0  0  0  0  0  0  0  0  0
   23.1204   -9.8137  -16.2507 C   0  0  1  0  0  0  0  0  0  0  0  0
   22.1493  -10.9559  -16.1750 C   0  0  0  0  0  0  0  0  0  0  0  0
   20.7487  -10.5756  -16.4615 C   0  0  0  0  0  0  0  0  0  0  0  0
   20.1452  -10.1573  -17.6316 C   0  0  0  0  0  0  0  0  0  0  0  0
   18.8621   -9.9317  -17.3259 N   0  0  0  0  0  0  0  0  0  0  0  0
   18.6468  -10.1899  -16.0298 C   0  0  0  0  0  0  0  0  0  0  0  0
   19.8028  -10.5902  -15.4756 N   0  0  0  0  0  0  0  0  0  0  0  0
   22.7244   -8.6831  -15.3800 C   0  0  0  0  0  0  0  0  0  0  0  0
   23.0402   -8.6297  -14.1641 O   0  0  0  0  0  0  0  0  0  0  0  0
   23.3277   -2.9910  -16.8307 N   0  0  0  0  0  0  0  0  0  0  0  0
   22.3804   -2.8171  -15.7769 C   0  0  0  0  0  0  0  0  0  0  0  0
   22.0651   -1.6706  -15.3306 O   0  0  0  0  0  0  0  0  0  0  0  0
   21.7040   -3.9702  -15.1465 C   0  0  0  0  0  0  0  0  0  0  0  0
   22.0070   -5.2889  -15.7540 C   0  0  0  0  0  0  0  0  0  0  0  0
   21.4531   -6.5040  -15.1177 C   0  0  2  0  0  0  0  0  0  0  0  0
   21.9734   -7.6386  -15.9289 N   0  0  0  0  0  0  0  0  0  0  0  0
   20.0208   -6.6309  -14.9730 C   0  0  0  0  0  0  0  0  0  0  0  0
   19.2729   -6.3024  -13.8526 O   0  0  0  0  0  0  0  0  0  0  0  0
   19.3344   -7.0933  -15.9474 O   0  0  0  0  0  0  0  0  0  0  0  0
  2  1  1  0
  2  3  1  0
  3  4  1  1
  5  3  1  0
  5  6  2  0
  7  5  1  0
  8  7  1  0
  8  9  1  1
 10  9  1  0
 10 11  2  0
 12 11  1  0
 13 12  1  0
 14 13  2  0
 14 10  1  0
 15  8  1  0
 16 15  2  0
 17 18  1  0
 18 19  2  0
 18 20  1  0
 20 21  1  0
 22 21  1  6
 22 24  1  0
 22 23  1  0
 23 15  1  0
 24 25  1  0
 26 24  2  0
M  END
$$$$
