SHQ.pdb
     RDKit          3D

 26 26  0  0  1  0  0  0  0  0999 V2000
   12.8448  -10.5391  -12.5222 O   0  0  0  0  0  0  0  0  0  0  0  0
   13.8807  -11.3031  -13.0490 C   0  0  0  0  0  0  0  0  0  0  0  0
   14.7733  -11.7987  -11.9259 C   0  0  2  0  0  0  0  0  0  0  0  0
   14.0281  -12.3048  -10.8191 N   0  0  0  0  0  0  0  0  0  0  0  0
   15.6459  -10.6719  -11.5121 C   0  0  0  0  0  0  0  0  0  0  0  0
   15.4376  -10.1274  -10.4223 O   0  0  0  0  0  0  0  0  0  0  0  0
   16.7129  -10.1965  -12.3244 N   0  0  0  0  0  0  0  0  0  0  0  0
   17.5246   -9.0587  -11.9723 C   0  0  1  0  0  0  0  0  0  0  0  0
   18.7714   -8.9490  -12.8011 C   0  0  0  0  0  0  0  0  0  0  0  0
   19.6805   -7.8604  -12.3805 C   0  0  0  0  0  0  0  0  0  0  0  0
   20.4628   -7.7198  -11.2506 C   0  0  0  0  0  0  0  0  0  0  0  0
   21.0755   -6.5361  -11.3700 N   0  0  0  0  0  0  0  0  0  0  0  0
   20.7102   -5.9434  -12.5138 C   0  0  0  0  0  0  0  0  0  0  0  0
   19.8461   -6.7471  -13.1551 N   0  0  0  0  0  0  0  0  0  0  0  0
   16.7511   -7.7960  -11.9543 C   0  0  0  0  0  0  0  0  0  0  0  0
   15.9211   -7.5044  -12.8527 O   0  0  0  0  0  0  0  0  0  0  0  0
   15.1546   -5.3277   -6.5647 N   0  0  0  0  0  0  0  0  0  0  0  0
   14.2676   -4.7656   -7.5319 C   0  0  0  0  0  0  0  0  0  0  0  0
   13.2144   -4.1372   -7.2021 O   0  0  0  0  0  0  0  0  0  0  0  0
   14.5313   -4.8794   -8.9819 C   0  0  0  0  0  0  0  0  0  0  0  0
   15.8012   -5.5562   -9.3411 C   0  0  0  0  0  0  0  0  0  0  0  0
   16.1852   -5.6268  -10.7679 C   0  0  2  0  0  0  0  0  0  0  0  0
   16.9503   -6.8967  -10.9017 N   0  0  0  0  0  0  0  0  0  0  0  0
   16.9456   -4.5419  -11.3454 C   0  0  0  0  0  0  0  0  0  0  0  0
   18.2850   -4.5725  -11.7027 O   0  0  0  0  0  0  0  0  0  0  0  0
   16.3686   -3.4215  -11.5603 O   0  0  0  0  0  0  0  0  0  0  0  0
  2  1  1  0
  2  3  1  0
  3  4  1  1
  5  3  1  0
  5  6  2  0
  7  5  1  0
  8  7  1  0
  8  9  1  6
 10  9  1  0
 10 11  2  0
 12 11  1  0
 13 12  1  0
 14 13  2  0
 14 10  1  0
 15  8  1  0
 16 15  2  0
 17 18  1  0
 18 19  2  0
 18 20  1  0
 20 21  1  0
 22 21  1  1
 22 24  1  0
 22 23  1  0
 23 15  1  0
 24 25  1  0
 26 24  2  0
M  END
$$$$
