SHQ.pdb
     RDKit          3D

 26 26  0  0  1  0  0  0  0  0999 V2000
   28.4170  -10.8863  -17.2533 O   0  0  0  0  0  0  0  0  0  0  0  0
   27.0275  -10.8282  -17.2502 C   0  0  0  0  0  0  0  0  0  0  0  0
   26.4870  -11.5695  -16.0410 C   0  0  2  0  0  0  0  0  0  0  0  0
   26.8853  -12.9397  -16.0177 N   0  0  0  0  0  0  0  0  0  0  0  0
   25.0085  -11.4430  -16.0578 C   0  0  0  0  0  0  0  0  0  0  0  0
   24.3302  -12.4319  -16.3570 O   0  0  0  0  0  0  0  0  0  0  0  0
   24.3444  -10.2250  -15.7418 N   0  0  0  0  0  0  0  0  0  0  0  0
   22.9098  -10.0862  -15.7441 C   0  0  1  0  0  0  0  0  0  0  0  0
   22.2196  -11.1175  -14.8993 C   0  0  0  0  0  0  0  0  0  0  0  0
   20.7429  -11.0564  -14.9608 C   0  0  0  0  0  0  0  0  0  0  0  0
   19.8996  -10.1954  -15.6360 C   0  0  0  0  0  0  0  0  0  0  0  0
   18.6551  -10.5812  -15.3304 N   0  0  0  0  0  0  0  0  0  0  0  0
   18.6909  -11.6337  -14.5033 C   0  0  0  0  0  0  0  0  0  0  0  0
   19.9750  -11.9442  -14.2615 N   0  0  0  0  0  0  0  0  0  0  0  0
   22.4742   -8.7097  -15.4148 C   0  0  0  0  0  0  0  0  0  0  0  0
   22.8572   -8.1151  -14.3751 O   0  0  0  0  0  0  0  0  0  0  0  0
   20.2503   -5.2512  -20.1062 N   0  0  0  0  0  0  0  0  0  0  0  0
   20.0530   -4.3585  -19.0097 C   0  0  0  0  0  0  0  0  0  0  0  0
   19.6003   -3.1821  -19.1657 O   0  0  0  0  0  0  0  0  0  0  0  0
   20.3610   -4.7591  -17.6206 C   0  0  0  0  0  0  0  0  0  0  0  0
   20.7656   -6.1755  -17.4474 C   0  0  0  0  0  0  0  0  0  0  0  0
   21.2053   -6.6260  -16.1088 C   0  0  2  0  0  0  0  0  0  0  0  0
   21.6071   -8.0478  -16.2903 N   0  0  0  0  0  0  0  0  0  0  0  0
   20.2890   -6.5216  -14.9961 C   0  0  0  0  0  0  0  0  0  0  0  0
   19.5430   -7.5512  -14.4429 O   0  0  0  0  0  0  0  0  0  0  0  0
   20.1120   -5.3847  -14.4389 O   0  0  0  0  0  0  0  0  0  0  0  0
  2  1  1  0
  2  3  1  0
  3  4  1  6
  5  3  1  0
  5  6  2  0
  7  5  1  0
  8  7  1  0
  8  9  1  1
 10  9  1  0
 10 11  2  0
 12 11  1  0
 13 12  1  0
 14 13  2  0
 14 10  1  0
 15  8  1  0
 16 15  2  0
 17 18  1  0
 18 19  2  0
 18 20  1  0
 20 21  1  0
 22 21  1  6
 22 24  1  0
 22 23  1  0
 23 15  1  0
 24 25  1  0
 26 24  2  0
M  END
$$$$
