SHQ.pdb
     RDKit          3D

 26 26  0  0  1  0  0  0  0  0999 V2000
   19.6255  -11.7167    4.1954 O   0  0  0  0  0  0  0  0  0  0  0  0
   19.4032  -12.8678    4.9435 C   0  0  0  0  0  0  0  0  0  0  0  0
   18.0611  -13.4700    4.5693 C   0  0  2  0  0  0  0  0  0  0  0  0
   16.9680  -12.6126    4.8958 N   0  0  0  0  0  0  0  0  0  0  0  0
   17.9425  -14.7755    5.2648 C   0  0  0  0  0  0  0  0  0  0  0  0
   17.4752  -14.7998    6.4087 O   0  0  0  0  0  0  0  0  0  0  0  0
   18.3469  -15.9993    4.6623 N   0  0  0  0  0  0  0  0  0  0  0  0
   18.2957  -17.2680    5.3443 C   0  0  1  0  0  0  0  0  0  0  0  0
   17.7503  -18.3729    4.4868 C   0  0  0  0  0  0  0  0  0  0  0  0
   16.3089  -18.2425    4.1809 C   0  0  0  0  0  0  0  0  0  0  0  0
   15.1943  -18.6900    4.8635 C   0  0  0  0  0  0  0  0  0  0  0  0
   14.1377  -18.3107    4.1351 N   0  0  0  0  0  0  0  0  0  0  0  0
   14.5456  -17.6540    3.0418 C   0  0  0  0  0  0  0  0  0  0  0  0
   15.8875  -17.6006    3.0507 N   0  0  0  0  0  0  0  0  0  0  0  0
   19.5905  -17.6286    5.9660 C   0  0  0  0  0  0  0  0  0  0  0  0
   20.6448  -17.7591    5.2934 O   0  0  0  0  0  0  0  0  0  0  0  0
   21.9944  -14.6890   10.3297 N   0  0  0  0  0  0  0  0  0  0  0  0
   22.7980  -15.8627   10.4514 C   0  0  0  0  0  0  0  0  0  0  0  0
   23.8236  -15.9081   11.1992 O   0  0  0  0  0  0  0  0  0  0  0  0
   22.4749  -17.1017    9.7129 C   0  0  0  0  0  0  0  0  0  0  0  0
   21.2794  -17.0216    8.8387 C   0  0  0  0  0  0  0  0  0  0  0  0
   20.8901  -18.2192    8.0626 C   0  0  2  0  0  0  0  0  0  0  0  0
   19.6427  -17.8308    7.3491 N   0  0  0  0  0  0  0  0  0  0  0  0
   20.6798  -19.4689    8.7572 C   0  0  0  0  0  0  0  0  0  0  0  0
   19.4715  -19.9542    9.2337 O   0  0  0  0  0  0  0  0  0  0  0  0
   21.6798  -20.2327    8.9827 O   0  0  0  0  0  0  0  0  0  0  0  0
  2  1  1  0
  2  3  1  0
  3  4  1  1
  5  3  1  0
  5  6  2  0
  7  5  1  0
  8  7  1  0
  8  9  1  6
 10  9  1  0
 10 11  2  0
 12 11  1  0
 13 12  1  0
 14 13  2  0
 14 10  1  0
 15  8  1  0
 16 15  2  0
 17 18  1  0
 18 19  2  0
 18 20  1  0
 20 21  1  0
 22 21  1  1
 22 24  1  0
 22 23  1  0
 23 15  1  0
 24 25  1  0
 26 24  2  0
M  END
$$$$
