SHQ.pdb
     RDKit          3D

 26 26  0  0  1  0  0  0  0  0999 V2000
   22.8589  -32.2184   -7.7614 O   0  0  0  0  0  0  0  0  0  0  0  0
   23.6822  -31.5326   -8.6480 C   0  0  0  0  0  0  0  0  0  0  0  0
   24.4480  -32.5233   -9.5058 C   0  0  2  0  0  0  0  0  0  0  0  0
   23.5944  -33.4891  -10.1184 N   0  0  0  0  0  0  0  0  0  0  0  0
   25.4627  -33.1776   -8.6430 C   0  0  0  0  0  0  0  0  0  0  0  0
   25.2575  -34.3329   -8.2547 O   0  0  0  0  0  0  0  0  0  0  0  0
   26.6624  -32.5232   -8.2472 N   0  0  0  0  0  0  0  0  0  0  0  0
   27.6184  -33.1102   -7.3422 C   0  0  1  0  0  0  0  0  0  0  0  0
   28.9859  -32.5020   -7.4586 C   0  0  0  0  0  0  0  0  0  0  0  0
   30.0339  -33.2278   -6.7081 C   0  0  0  0  0  0  0  0  0  0  0  0
   29.9529  -34.3214   -5.8679 C   0  0  0  0  0  0  0  0  0  0  0  0
   31.2009  -34.5573   -5.4465 N   0  0  0  0  0  0  0  0  0  0  0  0
   32.0431  -33.6660   -5.9843 C   0  0  0  0  0  0  0  0  0  0  0  0
   31.3405  -32.8330   -6.7693 N   0  0  0  0  0  0  0  0  0  0  0  0
   27.1328  -33.1331   -5.9434 C   0  0  0  0  0  0  0  0  0  0  0  0
   26.5844  -32.1369   -5.4068 O   0  0  0  0  0  0  0  0  0  0  0  0
   23.8183  -34.6916   -5.8544 N   0  0  0  0  0  0  0  0  0  0  0  0
   23.4333  -34.5807   -4.4841 C   0  0  0  0  0  0  0  0  0  0  0  0
   22.2755  -34.1934   -4.1341 O   0  0  0  0  0  0  0  0  0  0  0  0
   24.3659  -34.9192   -3.3885 C   0  0  0  0  0  0  0  0  0  0  0  0
   25.7064  -35.3832   -3.8217 C   0  0  0  0  0  0  0  0  0  0  0  0
   26.8328  -34.4252   -3.7815 C   0  0  2  0  0  0  0  0  0  0  0  0
   27.2892  -34.3031   -5.1931 N   0  0  0  0  0  0  0  0  0  0  0  0
   27.9660  -34.7082   -2.9304 C   0  0  0  0  0  0  0  0  0  0  0  0
   28.0964  -34.3715   -1.5917 O   0  0  0  0  0  0  0  0  0  0  0  0
   28.9746  -35.3231   -3.4194 O   0  0  0  0  0  0  0  0  0  0  0  0
  2  1  1  0
  2  3  1  0
  3  4  1  1
  5  3  1  0
  5  6  2  0
  7  5  1  0
  8  7  1  0
  8  9  1  1
 10  9  1  0
 10 11  2  0
 12 11  1  0
 13 12  1  0
 14 13  2  0
 14 10  1  0
 15  8  1  0
 16 15  2  0
 17 18  1  0
 18 19  2  0
 18 20  1  0
 20 21  1  0
 22 21  1  6
 22 24  1  0
 22 23  1  0
 23 15  1  0
 24 25  1  0
 26 24  2  0
M  END
$$$$
