SHQ.pdb
     RDKit          3D

 26 26  0  0  1  0  0  0  0  0999 V2000
   25.8635  -15.8338  -15.3215 O   0  0  0  0  0  0  0  0  0  0  0  0
   26.9956  -16.4568  -14.8072 C   0  0  0  0  0  0  0  0  0  0  0  0
   27.4101  -17.5980  -15.7182 C   0  0  2  0  0  0  0  0  0  0  0  0
   27.5273  -17.1931  -17.0816 N   0  0  0  0  0  0  0  0  0  0  0  0
   26.4087  -18.6827  -15.5670 C   0  0  0  0  0  0  0  0  0  0  0  0
   25.5686  -18.8452  -16.4589 O   0  0  0  0  0  0  0  0  0  0  0  0
   26.3813  -19.5418  -14.4332 N   0  0  0  0  0  0  0  0  0  0  0  0
   25.3952  -20.5775  -14.2531 C   0  0  1  0  0  0  0  0  0  0  0  0
   25.8134  -21.6179  -13.2550 C   0  0  0  0  0  0  0  0  0  0  0  0
   25.8064  -21.1452  -11.8533 C   0  0  0  0  0  0  0  0  0  0  0  0
   25.4078  -19.9411  -11.3058 C   0  0  0  0  0  0  0  0  0  0  0  0
   25.6287  -20.0421   -9.9898 N   0  0  0  0  0  0  0  0  0  0  0  0
   26.1416  -21.2450   -9.7014 C   0  0  0  0  0  0  0  0  0  0  0  0
   26.2599  -21.9442  -10.8419 N   0  0  0  0  0  0  0  0  0  0  0  0
   24.0490  -20.0325  -13.9634 C   0  0  0  0  0  0  0  0  0  0  0  0
   23.8820  -18.9348  -13.3733 O   0  0  0  0  0  0  0  0  0  0  0  0
   20.9065  -18.8118  -18.4096 N   0  0  0  0  0  0  0  0  0  0  0  0
   19.8946  -18.5662  -17.4329 C   0  0  0  0  0  0  0  0  0  0  0  0
   18.8132  -17.9622  -17.7137 O   0  0  0  0  0  0  0  0  0  0  0  0
   20.0478  -19.0102  -16.0314 C   0  0  0  0  0  0  0  0  0  0  0  0
   21.3444  -19.6559  -15.7123 C   0  0  0  0  0  0  0  0  0  0  0  0
   21.5478  -20.1975  -14.3509 C   0  0  2  0  0  0  0  0  0  0  0  0
   22.9245  -20.7637  -14.3600 N   0  0  0  0  0  0  0  0  0  0  0  0
   20.6232  -21.1848  -13.8420 C   0  0  0  0  0  0  0  0  0  0  0  0
   19.4042  -20.9349  -13.2303 O   0  0  0  0  0  0  0  0  0  0  0  0
   20.9199  -22.4246  -13.9380 O   0  0  0  0  0  0  0  0  0  0  0  0
  2  1  1  0
  2  3  1  0
  3  4  1  6
  5  3  1  0
  5  6  2  0
  7  5  1  0
  8  7  1  0
  8  9  1  1
 10  9  1  0
 10 11  2  0
 12 11  1  0
 13 12  1  0
 14 13  2  0
 14 10  1  0
 15  8  1  0
 16 15  2  0
 17 18  1  0
 18 19  2  0
 18 20  1  0
 20 21  1  0
 22 21  1  6
 22 24  1  0
 22 23  1  0
 23 15  1  0
 24 25  1  0
 26 24  2  0
M  END
$$$$
