SHQ.pdb
     RDKit          3D

 26 26  0  0  1  0  0  0  0  0999 V2000
   24.7699   -5.7328  -20.5001 O   0  0  0  0  0  0  0  0  0  0  0  0
   24.5498   -5.7717  -19.1274 C   0  0  0  0  0  0  0  0  0  0  0  0
   24.2184   -7.1907  -18.7024 C   0  0  2  0  0  0  0  0  0  0  0  0
   24.2547   -8.1100  -19.7934 N   0  0  0  0  0  0  0  0  0  0  0  0
   22.8782   -7.1698  -18.0656 C   0  0  0  0  0  0  0  0  0  0  0  0
   21.9133   -7.6164  -18.6956 O   0  0  0  0  0  0  0  0  0  0  0  0
   22.6646   -6.6547  -16.7566 N   0  0  0  0  0  0  0  0  0  0  0  0
   21.3901   -6.7112  -16.0860 C   0  0  1  0  0  0  0  0  0  0  0  0
   21.5133   -6.9815  -14.6145 C   0  0  0  0  0  0  0  0  0  0  0  0
   21.9148   -8.3674  -14.2883 C   0  0  0  0  0  0  0  0  0  0  0  0
   22.1720   -9.4516  -15.1048 C   0  0  0  0  0  0  0  0  0  0  0  0
   22.4811  -10.4651  -14.2874 N   0  0  0  0  0  0  0  0  0  0  0  0
   22.4272  -10.0594  -13.0125 C   0  0  0  0  0  0  0  0  0  0  0  0
   22.0781   -8.7627  -12.9906 N   0  0  0  0  0  0  0  0  0  0  0  0
   20.5490   -5.5256  -16.3690 C   0  0  0  0  0  0  0  0  0  0  0  0
   21.0168   -4.3585  -16.3825 O   0  0  0  0  0  0  0  0  0  0  0  0
   14.1069   -4.3606  -19.8945 N   0  0  0  0  0  0  0  0  0  0  0  0
   15.2727   -5.0090  -19.3859 C   0  0  0  0  0  0  0  0  0  0  0  0
   15.6557   -6.1443  -19.8072 O   0  0  0  0  0  0  0  0  0  0  0  0
   16.1086   -4.3874  -18.3373 C   0  0  0  0  0  0  0  0  0  0  0  0
   17.2121   -5.2355  -17.8247 C   0  0  0  0  0  0  0  0  0  0  0  0
   18.2827   -4.5969  -17.0283 C   0  0  2  0  0  0  0  0  0  0  0  0
   19.1875   -5.7101  -16.6309 N   0  0  0  0  0  0  0  0  0  0  0  0
   17.9244   -3.8254  -15.8600 C   0  0  0  0  0  0  0  0  0  0  0  0
   17.5382   -2.4939  -15.8377 O   0  0  0  0  0  0  0  0  0  0  0  0
   17.9583   -4.3833  -14.7102 O   0  0  0  0  0  0  0  0  0  0  0  0
  2  1  1  0
  2  3  1  0
  3  4  1  6
  5  3  1  0
  5  6  2  0
  7  5  1  0
  8  7  1  0
  8  9  1  1
 10  9  1  0
 10 11  2  0
 12 11  1  0
 13 12  1  0
 14 13  2  0
 14 10  1  0
 15  8  1  0
 16 15  2  0
 17 18  1  0
 18 19  2  0
 18 20  1  0
 20 21  1  0
 22 21  1  1
 22 24  1  0
 22 23  1  0
 23 15  1  0
 24 25  1  0
 26 24  2  0
M  END
$$$$
