SHQ.pdb
     RDKit          3D

 26 26  0  0  1  0  0  0  0  0999 V2000
   27.4481   -0.8585    0.2549 O   0  0  0  0  0  0  0  0  0  0  0  0
   26.6504   -0.3835   -0.7806 C   0  0  0  0  0  0  0  0  0  0  0  0
   25.3198    0.0907   -0.2252 C   0  0  2  0  0  0  0  0  0  0  0  0
   24.5950   -0.9541    0.4227 N   0  0  0  0  0  0  0  0  0  0  0  0
   24.5399    0.6643   -1.3499 C   0  0  0  0  0  0  0  0  0  0  0  0
   23.9107   -0.1011   -2.0887 O   0  0  0  0  0  0  0  0  0  0  0  0
   24.4903    2.0626   -1.6077 N   0  0  0  0  0  0  0  0  0  0  0  0
   23.7533    2.6357   -2.7058 C   0  0  1  0  0  0  0  0  0  0  0  0
   22.7772    3.6896   -2.2702 C   0  0  0  0  0  0  0  0  0  0  0  0
   21.7468    3.2033   -1.3268 C   0  0  0  0  0  0  0  0  0  0  0  0
   21.6606    3.2996    0.0486 C   0  0  0  0  0  0  0  0  0  0  0  0
   20.5282    2.6751    0.3929 N   0  0  0  0  0  0  0  0  0  0  0  0
   19.9152    2.2010   -0.6992 C   0  0  0  0  0  0  0  0  0  0  0  0
   20.6536    2.5173   -1.7755 N   0  0  0  0  0  0  0  0  0  0  0  0
   24.6380    3.1078   -3.7956 C   0  0  0  0  0  0  0  0  0  0  0  0
   25.6199    3.8641   -3.5830 O   0  0  0  0  0  0  0  0  0  0  0  0
   24.9301   -0.1225   -9.1089 N   0  0  0  0  0  0  0  0  0  0  0  0
   25.6634    1.0472   -9.4726 C   0  0  0  0  0  0  0  0  0  0  0  0
   26.2369    1.1651  -10.5997 O   0  0  0  0  0  0  0  0  0  0  0  0
   25.7916    2.1973   -8.5530 C   0  0  0  0  0  0  0  0  0  0  0  0
   25.0993    2.0437   -7.2503 C   0  0  0  0  0  0  0  0  0  0  0  0
   25.1780    3.1517   -6.2734 C   0  0  2  0  0  0  0  0  0  0  0  0
   24.3728    2.6983   -5.1064 N   0  0  0  0  0  0  0  0  0  0  0  0
   24.7480    4.4724   -6.6728 C   0  0  0  0  0  0  0  0  0  0  0  0
   23.4550    4.9701   -6.6188 O   0  0  0  0  0  0  0  0  0  0  0  0
   25.6105    5.2960   -7.1336 O   0  0  0  0  0  0  0  0  0  0  0  0
  2  1  1  0
  2  3  1  0
  3  4  1  6
  5  3  1  0
  5  6  2  0
  7  5  1  0
  8  7  1  0
  8  9  1  1
 10  9  1  0
 10 11  2  0
 12 11  1  0
 13 12  1  0
 14 13  2  0
 14 10  1  0
 15  8  1  0
 16 15  2  0
 17 18  1  0
 18 19  2  0
 18 20  1  0
 20 21  1  0
 22 21  1  6
 22 24  1  0
 22 23  1  0
 23 15  1  0
 24 25  1  0
 26 24  2  0
M  END
$$$$
