SHQ.pdb
     RDKit          3D

 26 26  0  0  1  0  0  0  0  0999 V2000
   31.8497  -29.2313  -20.5783 O   0  0  0  0  0  0  0  0  0  0  0  0
   32.5448  -28.1489  -20.0498 C   0  0  0  0  0  0  0  0  0  0  0  0
   32.6219  -28.2784  -18.5394 C   0  0  2  0  0  0  0  0  0  0  0  0
   33.1820  -29.5242  -18.1262 N   0  0  0  0  0  0  0  0  0  0  0  0
   31.2501  -28.1044  -18.0009 C   0  0  0  0  0  0  0  0  0  0  0  0
   30.7512  -29.0196  -17.3369 O   0  0  0  0  0  0  0  0  0  0  0  0
   30.4893  -26.9224  -18.2212 N   0  0  0  0  0  0  0  0  0  0  0  0
   29.2010  -26.6907  -17.6178 C   0  0  1  0  0  0  0  0  0  0  0  0
   28.6982  -25.2920  -17.8282 C   0  0  0  0  0  0  0  0  0  0  0  0
   27.4175  -25.0034  -17.1463 C   0  0  0  0  0  0  0  0  0  0  0  0
   26.5872  -25.8150  -16.3979 C   0  0  0  0  0  0  0  0  0  0  0  0
   25.5543  -25.0481  -16.0295 N   0  0  0  0  0  0  0  0  0  0  0  0
   25.7076  -23.8087  -16.5124 C   0  0  0  0  0  0  0  0  0  0  0  0
   26.8557  -23.7594  -17.2076 N   0  0  0  0  0  0  0  0  0  0  0  0
   28.2011  -27.7102  -18.0101 C   0  0  0  0  0  0  0  0  0  0  0  0
   28.0039  -28.0301  -19.2100 O   0  0  0  0  0  0  0  0  0  0  0  0
   27.2279  -32.4816  -14.3534 N   0  0  0  0  0  0  0  0  0  0  0  0
   26.1919  -32.6958  -15.3121 C   0  0  0  0  0  0  0  0  0  0  0  0
   25.4894  -33.7537  -15.3268 O   0  0  0  0  0  0  0  0  0  0  0  0
   25.8729  -31.6874  -16.3448 C   0  0  0  0  0  0  0  0  0  0  0  0
   26.7332  -30.4793  -16.3341 C   0  0  0  0  0  0  0  0  0  0  0  0
   26.4456  -29.3985  -17.3022 C   0  0  2  0  0  0  0  0  0  0  0  0
   27.4504  -28.3394  -17.0116 N   0  0  0  0  0  0  0  0  0  0  0  0
   25.1238  -28.8149  -17.3317 C   0  0  0  0  0  0  0  0  0  0  0  0
   24.0135  -29.3209  -17.9902 O   0  0  0  0  0  0  0  0  0  0  0  0
   24.9120  -27.7195  -16.7074 O   0  0  0  0  0  0  0  0  0  0  0  0
  2  1  1  0
  2  3  1  0
  3  4  1  6
  5  3  1  0
  5  6  2  0
  7  5  1  0
  8  7  1  0
  8  9  1  6
 10  9  1  0
 10 11  2  0
 12 11  1  0
 13 12  1  0
 14 13  2  0
 14 10  1  0
 15  8  1  0
 16 15  2  0
 17 18  1  0
 18 19  2  0
 18 20  1  0
 20 21  1  0
 22 21  1  1
 22 24  1  0
 22 23  1  0
 23 15  1  0
 24 25  1  0
 26 24  2  0
M  END
$$$$
