SHQ.pdb
     RDKit          3D

 26 26  0  0  1  0  0  0  0  0999 V2000
   19.6190  -15.1372  -16.1452 O   0  0  0  0  0  0  0  0  0  0  0  0
   20.4384  -14.0292  -15.9582 C   0  0  0  0  0  0  0  0  0  0  0  0
   21.8939  -14.4437  -16.0740 C   0  0  2  0  0  0  0  0  0  0  0  0
   22.2524  -15.4485  -15.1261 N   0  0  0  0  0  0  0  0  0  0  0  0
   22.7249  -13.2263  -15.9023 C   0  0  0  0  0  0  0  0  0  0  0  0
   23.0105  -12.8575  -14.7578 O   0  0  0  0  0  0  0  0  0  0  0  0
   23.2045  -12.4692  -17.0073 N   0  0  0  0  0  0  0  0  0  0  0  0
   23.9840  -11.2659  -16.8590 C   0  0  1  0  0  0  0  0  0  0  0  0
   25.3772  -11.3992  -17.4020 C   0  0  0  0  0  0  0  0  0  0  0  0
   26.1824  -12.4508  -16.7432 C   0  0  0  0  0  0  0  0  0  0  0  0
   26.4195  -13.7648  -17.0973 C   0  0  0  0  0  0  0  0  0  0  0  0
   27.2066  -14.2696  -16.1399 N   0  0  0  0  0  0  0  0  0  0  0  0
   27.4648  -13.3341  -15.2173 C   0  0  0  0  0  0  0  0  0  0  0  0
   26.8397  -12.1996  -15.5719 N   0  0  0  0  0  0  0  0  0  0  0  0
   23.2877  -10.0718  -17.3905 C   0  0  0  0  0  0  0  0  0  0  0  0
   22.4387  -10.1459  -18.3150 O   0  0  0  0  0  0  0  0  0  0  0  0
   18.9367   -8.2340  -15.3590 N   0  0  0  0  0  0  0  0  0  0  0  0
   19.2039   -6.9766  -15.9802 C   0  0  0  0  0  0  0  0  0  0  0  0
   18.3789   -6.0117  -15.9410 O   0  0  0  0  0  0  0  0  0  0  0  0
   20.4679   -6.7240  -16.7035 C   0  0  0  0  0  0  0  0  0  0  0  0
   21.4514   -7.8335  -16.6618 C   0  0  0  0  0  0  0  0  0  0  0  0
   22.8150   -7.5887  -17.1802 C   0  0  2  0  0  0  0  0  0  0  0  0
   23.5842   -8.8184  -16.8451 N   0  0  0  0  0  0  0  0  0  0  0  0
   23.5418   -6.4256  -16.7246 C   0  0  0  0  0  0  0  0  0  0  0  0
   23.3973   -5.1280  -17.1914 O   0  0  0  0  0  0  0  0  0  0  0  0
   24.4200   -6.5599  -15.8053 O   0  0  0  0  0  0  0  0  0  0  0  0
  2  1  1  0
  2  3  1  0
  3  4  1  1
  5  3  1  0
  5  6  2  0
  7  5  1  0
  8  7  1  0
  8  9  1  6
 10  9  1  0
 10 11  2  0
 12 11  1  0
 13 12  1  0
 14 13  2  0
 14 10  1  0
 15  8  1  0
 16 15  2  0
 17 18  1  0
 18 19  2  0
 18 20  1  0
 20 21  1  0
 22 21  1  1
 22 24  1  0
 22 23  1  0
 23 15  1  0
 24 25  1  0
 26 24  2  0
M  END
$$$$
