SHQ.pdb
     RDKit          3D

 26 26  0  0  1  0  0  0  0  0999 V2000
   24.1216  -16.4440  -18.2494 O   0  0  0  0  0  0  0  0  0  0  0  0
   25.4557  -16.3463  -17.8689 C   0  0  0  0  0  0  0  0  0  0  0  0
   26.2145  -17.5719  -18.3441 C   0  0  2  0  0  0  0  0  0  0  0  0
   26.0850  -17.7832  -19.7495 N   0  0  0  0  0  0  0  0  0  0  0  0
   25.7103  -18.7395  -17.5794 C   0  0  0  0  0  0  0  0  0  0  0  0
   25.0350  -19.5901  -18.1692 O   0  0  0  0  0  0  0  0  0  0  0  0
   25.9766  -18.9147  -16.1928 N   0  0  0  0  0  0  0  0  0  0  0  0
   25.4022  -19.9789  -15.4085 C   0  0  1  0  0  0  0  0  0  0  0  0
   26.4147  -20.6979  -14.5651 C   0  0  0  0  0  0  0  0  0  0  0  0
   27.3449  -21.5508  -15.3368 C   0  0  0  0  0  0  0  0  0  0  0  0
   27.4386  -21.7912  -16.6939 C   0  0  0  0  0  0  0  0  0  0  0  0
   28.4495  -22.6544  -16.8477 N   0  0  0  0  0  0  0  0  0  0  0  0
   28.9809  -22.9559  -15.6562 C   0  0  0  0  0  0  0  0  0  0  0  0
   28.3112  -22.2828  -14.7064 N   0  0  0  0  0  0  0  0  0  0  0  0
   24.2319  -19.5314  -14.6190 C   0  0  0  0  0  0  0  0  0  0  0  0
   24.2172  -18.4353  -14.0030 O   0  0  0  0  0  0  0  0  0  0  0  0
   19.6529  -17.9761  -17.1477 N   0  0  0  0  0  0  0  0  0  0  0  0
   19.0752  -17.9953  -15.8423 C   0  0  0  0  0  0  0  0  0  0  0  0
   17.9426  -17.4771  -15.5940 O   0  0  0  0  0  0  0  0  0  0  0  0
   19.7657  -18.6300  -14.6998 C   0  0  0  0  0  0  0  0  0  0  0  0
   21.0933  -19.2140  -15.0103 C   0  0  0  0  0  0  0  0  0  0  0  0
   21.8210  -19.9250  -13.9365 C   0  0  2  0  0  0  0  0  0  0  0  0
   23.1039  -20.3560  -14.5565 N   0  0  0  0  0  0  0  0  0  0  0  0
   21.1929  -21.0554  -13.2913 C   0  0  0  0  0  0  0  0  0  0  0  0
   21.2480  -22.3772  -13.7064 O   0  0  0  0  0  0  0  0  0  0  0  0
   20.5023  -20.8643  -12.2325 O   0  0  0  0  0  0  0  0  0  0  0  0
  2  1  1  0
  2  3  1  0
  3  4  1  6
  5  3  1  0
  5  6  2  0
  7  5  1  0
  8  7  1  0
  8  9  1  1
 10  9  1  0
 10 11  2  0
 12 11  1  0
 13 12  1  0
 14 13  2  0
 14 10  1  0
 15  8  1  0
 16 15  2  0
 17 18  1  0
 18 19  2  0
 18 20  1  0
 20 21  1  0
 22 21  1  6
 22 24  1  0
 22 23  1  0
 23 15  1  0
 24 25  1  0
 26 24  2  0
M  END
$$$$
