SHQ.pdb
     RDKit          3D

 26 26  0  0  1  0  0  0  0  0999 V2000
   41.2620   -6.6154  -14.2140 O   0  0  0  0  0  0  0  0  0  0  0  0
   40.6507   -7.7683  -14.6949 C   0  0  0  0  0  0  0  0  0  0  0  0
   39.1641   -7.7238  -14.3917 C   0  0  2  0  0  0  0  0  0  0  0  0
   38.5162   -6.6066  -14.9989 N   0  0  0  0  0  0  0  0  0  0  0  0
   39.0050   -7.6970  -12.9165 C   0  0  0  0  0  0  0  0  0  0  0  0
   38.5721   -6.6695  -12.3835 O   0  0  0  0  0  0  0  0  0  0  0  0
   39.3325   -8.8112  -12.0945 N   0  0  0  0  0  0  0  0  0  0  0  0
   39.1716   -8.8079  -10.6622 C   0  0  1  0  0  0  0  0  0  0  0  0
   38.7715  -10.1469  -10.1141 C   0  0  0  0  0  0  0  0  0  0  0  0
   38.4715  -10.1397   -8.6655 C   0  0  0  0  0  0  0  0  0  0  0  0
   38.4828   -9.1109   -7.7437 C   0  0  0  0  0  0  0  0  0  0  0  0
   38.1456   -9.6611   -6.5713 N   0  0  0  0  0  0  0  0  0  0  0  0
   37.9278  -10.9732   -6.7258 C   0  0  0  0  0  0  0  0  0  0  0  0
   38.1244  -11.2905   -8.0159 N   0  0  0  0  0  0  0  0  0  0  0  0
   40.3490   -8.2452   -9.9620 C   0  0  0  0  0  0  0  0  0  0  0  0
   41.5254   -8.5855  -10.2471 O   0  0  0  0  0  0  0  0  0  0  0  0
   39.3316   -3.8720   -5.5049 N   0  0  0  0  0  0  0  0  0  0  0  0
   40.7456   -3.7904   -5.6841 C   0  0  0  0  0  0  0  0  0  0  0  0
   41.4570   -2.9276   -5.0821 O   0  0  0  0  0  0  0  0  0  0  0  0
   41.4664   -4.7170   -6.5823 C   0  0  0  0  0  0  0  0  0  0  0  0
   40.6166   -5.7226   -7.2653 C   0  0  0  0  0  0  0  0  0  0  0  0
   41.2627   -6.6904   -8.1785 C   0  0  2  0  0  0  0  0  0  0  0  0
   40.1458   -7.3025   -8.9489 N   0  0  0  0  0  0  0  0  0  0  0  0
   42.0945   -7.7335   -7.6229 C   0  0  0  0  0  0  0  0  0  0  0  0
   43.3081   -8.1764   -8.1263 O   0  0  0  0  0  0  0  0  0  0  0  0
   41.7099   -8.3406   -6.5656 O   0  0  0  0  0  0  0  0  0  0  0  0
  2  1  1  0
  2  3  1  0
  3  4  1  6
  5  3  1  0
  5  6  2  0
  7  5  1  0
  8  7  1  0
  8  9  1  1
 10  9  1  0
 10 11  2  0
 12 11  1  0
 13 12  1  0
 14 13  2  0
 14 10  1  0
 15  8  1  0
 16 15  2  0
 17 18  1  0
 18 19  2  0
 18 20  1  0
 20 21  1  0
 22 21  1  1
 22 24  1  0
 22 23  1  0
 23 15  1  0
 24 25  1  0
 26 24  2  0
M  END
$$$$
