SHQ.pdb
     RDKit          3D

 26 26  0  0  1  0  0  0  0  0999 V2000
   20.5422  -11.2012  -20.6422 O   0  0  0  0  0  0  0  0  0  0  0  0
   20.7163  -10.1540  -19.7437 C   0  0  0  0  0  0  0  0  0  0  0  0
   21.5552  -10.6221  -18.5686 C   0  0  2  0  0  0  0  0  0  0  0  0
   20.8660  -11.5631  -17.7463 N   0  0  0  0  0  0  0  0  0  0  0  0
   21.9515   -9.4222  -17.7906 C   0  0  0  0  0  0  0  0  0  0  0  0
   21.1778   -8.9892  -16.9296 O   0  0  0  0  0  0  0  0  0  0  0  0
   23.1896   -8.7531  -18.0000 N   0  0  0  0  0  0  0  0  0  0  0  0
   23.6160   -7.6212  -17.2160 C   0  0  1  0  0  0  0  0  0  0  0  0
   25.0851   -7.6412  -16.9084 C   0  0  0  0  0  0  0  0  0  0  0  0
   25.5386   -8.8662  -16.2141 C   0  0  0  0  0  0  0  0  0  0  0  0
   24.8328   -9.9631  -15.7592 C   0  0  0  0  0  0  0  0  0  0  0  0
   25.7342  -10.7740  -15.1928 N   0  0  0  0  0  0  0  0  0  0  0  0
   26.9559  -10.2322  -15.2768 C   0  0  0  0  0  0  0  0  0  0  0  0
   26.8571   -9.0498  -15.9060 N   0  0  0  0  0  0  0  0  0  0  0  0
   23.1841   -6.3319  -17.8027 C   0  0  0  0  0  0  0  0  0  0  0  0
   23.5510   -5.9582  -18.9459 O   0  0  0  0  0  0  0  0  0  0  0  0
   17.6605   -5.3065  -18.5882 N   0  0  0  0  0  0  0  0  0  0  0  0
   18.0730   -3.9479  -18.7377 C   0  0  0  0  0  0  0  0  0  0  0  0
   17.2785   -3.0367  -19.1269 O   0  0  0  0  0  0  0  0  0  0  0  0
   19.4567   -3.5221  -18.4395 C   0  0  0  0  0  0  0  0  0  0  0  0
   20.3625   -4.6008  -17.9748 C   0  0  0  0  0  0  0  0  0  0  0  0
   21.7515   -4.2479  -17.6082 C   0  0  2  0  0  0  0  0  0  0  0  0
   22.3386   -5.5012  -17.0601 N   0  0  0  0  0  0  0  0  0  0  0  0
   21.9795   -3.1625  -16.6816 C   0  0  0  0  0  0  0  0  0  0  0  0
   22.0514   -1.8134  -16.9935 O   0  0  0  0  0  0  0  0  0  0  0  0
   22.1430   -3.4257  -15.4413 O   0  0  0  0  0  0  0  0  0  0  0  0
  2  1  1  0
  2  3  1  0
  3  4  1  1
  5  3  1  0
  5  6  2  0
  7  5  1  0
  8  7  1  0
  8  9  1  6
 10  9  1  0
 10 11  2  0
 12 11  1  0
 13 12  1  0
 14 13  2  0
 14 10  1  0
 15  8  1  0
 16 15  2  0
 17 18  1  0
 18 19  2  0
 18 20  1  0
 20 21  1  0
 22 21  1  1
 22 24  1  0
 22 23  1  0
 23 15  1  0
 24 25  1  0
 26 24  2  0
M  END
$$$$
