SHQ.pdb
     RDKit          3D

 26 26  0  0  1  0  0  0  0  0999 V2000
   25.6238  -11.5763  -15.8870 O   0  0  0  0  0  0  0  0  0  0  0  0
   24.2896  -11.7971  -15.5623 C   0  0  0  0  0  0  0  0  0  0  0  0
   23.4323  -11.6725  -16.8087 C   0  0  2  0  0  0  0  0  0  0  0  0
   24.2119  -11.5737  -17.9999 N   0  0  0  0  0  0  0  0  0  0  0  0
   22.5609  -10.4832  -16.6400 C   0  0  0  0  0  0  0  0  0  0  0  0
   22.1985   -9.8639  -17.6463 O   0  0  0  0  0  0  0  0  0  0  0  0
   22.1279  -10.0310  -15.3625 N   0  0  0  0  0  0  0  0  0  0  0  0
   21.1862   -8.9542  -15.1854 C   0  0  1  0  0  0  0  0  0  0  0  0
   19.9878   -9.3510  -14.3731 C   0  0  0  0  0  0  0  0  0  0  0  0
   19.0787  -10.2934  -15.0614 C   0  0  0  0  0  0  0  0  0  0  0  0
   18.4403  -10.2063  -16.2834 C   0  0  0  0  0  0  0  0  0  0  0  0
   17.7272  -11.3318  -16.4092 N   0  0  0  0  0  0  0  0  0  0  0  0
   17.8951  -12.1046  -15.3287 C   0  0  0  0  0  0  0  0  0  0  0  0
   18.7288  -11.4799  -14.4811 N   0  0  0  0  0  0  0  0  0  0  0  0
   21.8268   -7.7212  -14.6730 C   0  0  0  0  0  0  0  0  0  0  0  0
   22.6258   -7.7336  -13.7022 O   0  0  0  0  0  0  0  0  0  0  0  0
   22.2178   -3.0591  -18.7514 N   0  0  0  0  0  0  0  0  0  0  0  0
   22.9428   -2.5129  -17.6495 C   0  0  0  0  0  0  0  0  0  0  0  0
   23.5298   -1.3885  -17.7142 O   0  0  0  0  0  0  0  0  0  0  0  0
   23.0460   -3.2285  -16.3602 C   0  0  0  0  0  0  0  0  0  0  0  0
   22.3182   -4.5192  -16.2949 C   0  0  0  0  0  0  0  0  0  0  0  0
   22.2903   -5.2503  -15.0093 C   0  0  2  0  0  0  0  0  0  0  0  0
   21.5333   -6.5008  -15.2902 N   0  0  0  0  0  0  0  0  0  0  0  0
   21.7348   -4.6012  -13.8437 C   0  0  0  0  0  0  0  0  0  0  0  0
   22.4175   -3.7973  -12.9436 O   0  0  0  0  0  0  0  0  0  0  0  0
   20.4957   -4.7609  -13.5724 O   0  0  0  0  0  0  0  0  0  0  0  0
  2  1  1  0
  2  3  1  0
  3  4  1  6
  5  3  1  0
  5  6  2  0
  7  5  1  0
  8  7  1  0
  8  9  1  1
 10  9  1  0
 10 11  2  0
 12 11  1  0
 13 12  1  0
 14 13  2  0
 14 10  1  0
 15  8  1  0
 16 15  2  0
 17 18  1  0
 18 19  2  0
 18 20  1  0
 20 21  1  0
 22 21  1  6
 22 24  1  0
 22 23  1  0
 23 15  1  0
 24 25  1  0
 26 24  2  0
M  END
$$$$
