LPW.pdb
     RDKit          3D

 30 32  0  0  1  0  0  0  0  0999 V2000
    8.7139  -13.0788   19.6699 C   0  0  0  0  0  0  0  0  0  0  0  0
    8.1157  -13.6160   20.9468 C   0  0  1  0  0  0  0  0  0  0  0  0
    7.7890  -12.3968   21.8199 C   0  0  0  0  0  0  0  0  0  0  0  0
    6.9181  -14.4595   20.7352 C   0  0  0  0  0  0  0  0  0  0  0  0
    7.2627  -15.8724   20.2751 C   0  0  2  0  0  0  0  0  0  0  0  0
    5.9214  -16.5260   20.2166 N   0  0  0  0  0  0  0  0  0  0  0  0
    7.9819  -16.6169   21.3407 C   0  0  0  0  0  0  0  0  0  0  0  0
    7.3018  -16.8450   22.4134 O   0  0  0  0  0  0  0  0  0  0  0  0
    9.3164  -17.0754   21.2516 N   0  0  0  0  0  0  0  0  0  0  0  0
   10.2097  -16.9799   20.1325 C   0  0  0  0  0  0  0  0  0  0  0  0
   11.0441  -18.2451   20.2047 C   0  0  0  0  0  0  0  0  0  0  0  0
   11.1884  -18.4541   21.6870 C   0  0  0  0  0  0  0  0  0  0  0  0
   10.0248  -17.7764   22.3260 C   0  0  1  0  0  0  0  0  0  0  0  0
   10.4364  -16.8281   23.3898 C   0  0  0  0  0  0  0  0  0  0  0  0
   11.0566  -15.7770   23.0839 O   0  0  0  0  0  0  0  0  0  0  0  0
   10.1204  -17.1293   24.7317 N   0  0  0  0  0  0  0  0  0  0  0  0
   10.5756  -16.2959   25.8471 C   0  0  1  0  0  0  0  0  0  0  0  0
   10.0619  -14.9170   25.7330 C   0  0  0  0  0  0  0  0  0  0  0  0
    8.6052  -14.8264   25.9398 C   0  0  0  0  0  0  0  0  0  0  0  0
    7.7006  -15.9111   25.9051 C   0  0  0  0  0  0  0  0  0  0  0  0
    6.4537  -15.4529   26.0881 N   0  0  0  0  0  0  0  0  0  0  0  0
    6.4517  -14.1275   26.2460 C   0  0  0  0  0  0  0  0  0  0  0  0
    5.4745  -13.1834   26.4803 C   0  0  0  0  0  0  0  0  0  0  0  0
    5.7965  -11.8309   26.6318 C   0  0  0  0  0  0  0  0  0  0  0  0
    7.1059  -11.4601   26.5427 C   0  0  0  0  0  0  0  0  0  0  0  0
    8.0681  -12.4067   26.3086 C   0  0  0  0  0  0  0  0  0  0  0  0
    7.7818  -13.7434   26.1543 C   0  0  0  0  0  0  0  0  0  0  0  0
   10.2001  -16.9482   27.0875 C   0  0  0  0  0  0  0  0  0  0  0  0
    9.5326  -18.1618   27.0609 O   0  0  0  0  0  0  0  0  0  0  0  0
   10.4468  -16.4718   28.2166 O   0  0  0  0  0  0  0  0  0  0  0  0
  2  3  1  1
  2  1  1  0
  4  2  1  0
  5  4  1  0
  5  6  1  1
  7  5  1  0
  8  7  2  0
  9  7  1  0
  9 13  1  0
 10  9  1  0
 11 10  1  0
 11 12  1  0
 12 13  1  0
 13 14  1  1
 14 15  2  0
 16 14  1  0
 17 16  1  0
 17 28  1  0
 17 18  1  6
 19 18  1  0
 20 19  2  0
 21 22  1  0
 21 20  1  0
 22 27  2  0
 23 22  1  0
 23 24  2  0
 24 25  1  0
 25 26  2  0
 27 19  1  0
 27 26  1  0
 28 30  2  0
 28 29  1  0
M  END
$$$$
