LPW.pdb
     RDKit          3D

 30 32  0  0  1  0  0  0  0  0999 V2000
    8.1208  -22.0018   20.7207 C   0  0  0  0  0  0  0  0  0  0  0  0
    8.0171  -20.7745   19.8489 C   0  0  1  0  0  0  0  0  0  0  0  0
    6.5208  -20.5470   19.5954 C   0  0  0  0  0  0  0  0  0  0  0  0
    8.6499  -19.5719   20.4351 C   0  0  0  0  0  0  0  0  0  0  0  0
    8.5770  -18.3567   19.5159 C   0  0  2  0  0  0  0  0  0  0  0  0
    9.5570  -18.7063   18.4449 N   0  0  0  0  0  0  0  0  0  0  0  0
    9.1671  -17.1604   20.1701 C   0  0  0  0  0  0  0  0  0  0  0  0
   10.4212  -16.9636   19.9383 O   0  0  0  0  0  0  0  0  0  0  0  0
    8.4619  -16.2572   20.9983 N   0  0  0  0  0  0  0  0  0  0  0  0
    7.0848  -16.3166   21.3974 C   0  0  0  0  0  0  0  0  0  0  0  0
    6.6521  -14.8648   21.4828 C   0  0  0  0  0  0  0  0  0  0  0  0
    7.8948  -14.1854   21.9887 C   0  0  0  0  0  0  0  0  0  0  0  0
    9.0426  -15.0473   21.5871 C   0  0  1  0  0  0  0  0  0  0  0  0
    9.9209  -15.3899   22.7323 C   0  0  0  0  0  0  0  0  0  0  0  0
   11.1606  -15.5109   22.5547 O   0  0  0  0  0  0  0  0  0  0  0  0
    9.3408  -15.5739   24.0055 N   0  0  0  0  0  0  0  0  0  0  0  0
   10.1308  -15.9703   25.1736 C   0  0  1  0  0  0  0  0  0  0  0  0
    9.7097  -15.2358   26.3825 C   0  0  0  0  0  0  0  0  0  0  0  0
    8.2816  -14.8708   26.3660 C   0  0  0  0  0  0  0  0  0  0  0  0
    7.2129  -15.7442   26.0645 C   0  0  0  0  0  0  0  0  0  0  0  0
    6.0597  -15.0606   26.1000 N   0  0  0  0  0  0  0  0  0  0  0  0
    6.2748  -13.7795   26.4070 C   0  0  0  0  0  0  0  0  0  0  0  0
    5.4632  -12.6803   26.5912 C   0  0  0  0  0  0  0  0  0  0  0  0
    5.9975  -11.4376   26.9461 C   0  0  0  0  0  0  0  0  0  0  0  0
    7.3475  -11.3323   27.1079 C   0  0  0  0  0  0  0  0  0  0  0  0
    8.1442  -12.4310   26.9212 C   0  0  0  0  0  0  0  0  0  0  0  0
    7.6478  -13.6653   26.5710 C   0  0  0  0  0  0  0  0  0  0  0  0
   10.0424  -17.4115   25.3169 C   0  0  0  0  0  0  0  0  0  0  0  0
    9.1117  -18.1278   24.5825 O   0  0  0  0  0  0  0  0  0  0  0  0
   10.7748  -18.0719   26.0852 O   0  0  0  0  0  0  0  0  0  0  0  0
  2  3  1  1
  2  1  1  0
  4  2  1  0
  5  4  1  0
  5  6  1  6
  7  5  1  0
  8  7  2  0
  9  7  1  0
  9 13  1  0
 10  9  1  0
 11 10  1  0
 11 12  1  0
 12 13  1  0
 13 14  1  1
 14 15  2  0
 16 14  1  0
 17 16  1  0
 17 28  1  0
 17 18  1  1
 19 18  1  0
 20 19  2  0
 21 22  1  0
 21 20  1  0
 22 27  2  0
 23 22  1  0
 23 24  2  0
 24 25  1  0
 25 26  2  0
 27 19  1  0
 27 26  1  0
 28 30  2  0
 28 29  1  0
M  END
$$$$
