LPW.pdb
     RDKit          3D

 30 32  0  0  1  0  0  0  0  0999 V2000
    5.2715  -19.2754   23.4477 C   0  0  0  0  0  0  0  0  0  0  0  0
    6.7729  -19.2629   23.5974 C   0  0  1  0  0  0  0  0  0  0  0  0
    7.0977  -20.1685   24.7931 C   0  0  0  0  0  0  0  0  0  0  0  0
    7.4967  -19.6998   22.3826 C   0  0  0  0  0  0  0  0  0  0  0  0
    7.4439  -18.6695   21.2590 C   0  0  2  0  0  0  0  0  0  0  0  0
    8.2257  -19.3368   20.1759 N   0  0  0  0  0  0  0  0  0  0  0  0
    8.2505  -17.4696   21.6010 C   0  0  0  0  0  0  0  0  0  0  0  0
    9.4890  -17.6963   21.8840 O   0  0  0  0  0  0  0  0  0  0  0  0
    7.7606  -16.1436   21.6312 N   0  0  0  0  0  0  0  0  0  0  0  0
    6.4116  -15.6963   21.4330 C   0  0  0  0  0  0  0  0  0  0  0  0
    6.5554  -14.3550   20.7385 C   0  0  0  0  0  0  0  0  0  0  0  0
    7.7974  -13.7927   21.3732 C   0  0  0  0  0  0  0  0  0  0  0  0
    8.5930  -14.9581   21.8533 C   0  0  1  0  0  0  0  0  0  0  0  0
    8.9652  -14.8383   23.2842 C   0  0  0  0  0  0  0  0  0  0  0  0
    8.8202  -13.7383   23.8776 O   0  0  0  0  0  0  0  0  0  0  0  0
    9.4778  -15.9704   23.9528 N   0  0  0  0  0  0  0  0  0  0  0  0
   10.2185  -15.8646   25.2122 C   0  0  1  0  0  0  0  0  0  0  0  0
    9.3338  -16.0696   26.3756 C   0  0  0  0  0  0  0  0  0  0  0  0
    8.0327  -15.3910   26.2360 C   0  0  0  0  0  0  0  0  0  0  0  0
    6.8211  -16.0068   25.8504 C   0  0  0  0  0  0  0  0  0  0  0  0
    5.8551  -15.0790   25.7840 N   0  0  0  0  0  0  0  0  0  0  0  0
    6.3309  -13.8726   26.1004 C   0  0  0  0  0  0  0  0  0  0  0  0
    5.7790  -12.6138   26.2087 C   0  0  0  0  0  0  0  0  0  0  0  0
    6.5519  -11.5160   26.6000 C   0  0  0  0  0  0  0  0  0  0  0  0
    7.8727  -11.7154   26.8748 C   0  0  0  0  0  0  0  0  0  0  0  0
    8.4105  -12.9704   26.7629 C   0  0  0  0  0  0  0  0  0  0  0  0
    7.6759  -14.0685   26.3794 C   0  0  0  0  0  0  0  0  0  0  0  0
   11.3321  -16.7936   25.1663 C   0  0  0  0  0  0  0  0  0  0  0  0
   11.4655  -17.6676   24.1000 O   0  0  0  0  0  0  0  0  0  0  0  0
   12.2086  -16.8601   26.0553 O   0  0  0  0  0  0  0  0  0  0  0  0
  2  3  1  1
  2  1  1  0
  4  2  1  0
  5  4  1  0
  5  6  1  6
  7  5  1  0
  8  7  2  0
  9  7  1  0
  9 13  1  0
 10  9  1  0
 11 10  1  0
 11 12  1  0
 12 13  1  0
 13 14  1  1
 14 15  2  0
 16 14  1  0
 17 16  1  0
 17 28  1  0
 17 18  1  1
 19 18  1  0
 20 19  2  0
 21 22  1  0
 21 20  1  0
 22 27  2  0
 23 22  1  0
 23 24  2  0
 24 25  1  0
 25 26  2  0
 27 19  1  0
 27 26  1  0
 28 30  2  0
 28 29  1  0
M  END
$$$$
