LPW.pdb
     RDKit          3D

 30 32  0  0  1  0  0  0  0  0999 V2000
    7.1067  -13.0622   19.0048 C   0  0  0  0  0  0  0  0  0  0  0  0
    8.1078  -14.1911   18.9871 C   0  0  1  0  0  0  0  0  0  0  0  0
    8.9676  -14.0289   20.2478 C   0  0  0  0  0  0  0  0  0  0  0  0
    7.4899  -15.5348   18.9295 C   0  0  0  0  0  0  0  0  0  0  0  0
    8.5199  -16.6577   18.8579 C   0  0  2  0  0  0  0  0  0  0  0  0
    7.6625  -17.8679   18.6850 N   0  0  0  0  0  0  0  0  0  0  0  0
    9.1740  -16.8626   20.1760 C   0  0  0  0  0  0  0  0  0  0  0  0
    8.3817  -17.1759   21.1453 O   0  0  0  0  0  0  0  0  0  0  0  0
   10.5611  -16.7420   20.4216 N   0  0  0  0  0  0  0  0  0  0  0  0
   11.5752  -16.2494   19.5337 C   0  0  0  0  0  0  0  0  0  0  0  0
   12.8042  -17.0743   19.8673 C   0  0  0  0  0  0  0  0  0  0  0  0
   12.6708  -17.2687   21.3525 C   0  0  0  0  0  0  0  0  0  0  0  0
   11.2194  -17.1429   21.6680 C   0  0  1  0  0  0  0  0  0  0  0  0
   10.9575  -16.1539   22.7420 C   0  0  0  0  0  0  0  0  0  0  0  0
   11.0334  -14.9235   22.4904 O   0  0  0  0  0  0  0  0  0  0  0  0
   10.6264  -16.6198   24.0323 N   0  0  0  0  0  0  0  0  0  0  0  0
    9.7117  -15.8914   24.9146 C   0  0  1  0  0  0  0  0  0  0  0  0
    8.4744  -15.5070   24.2077 C   0  0  0  0  0  0  0  0  0  0  0  0
    7.4791  -14.8742   25.0920 C   0  0  0  0  0  0  0  0  0  0  0  0
    6.1947  -15.3854   25.3832 C   0  0  0  0  0  0  0  0  0  0  0  0
    5.5479  -14.5260   26.1840 N   0  0  0  0  0  0  0  0  0  0  0  0
    6.3093  -13.4642   26.4570 C   0  0  0  0  0  0  0  0  0  0  0  0
    6.1467  -12.3294   27.2231 C   0  0  0  0  0  0  0  0  0  0  0  0
    7.1687  -11.3818   27.3387 C   0  0  0  0  0  0  0  0  0  0  0  0
    8.3388  -11.6029   26.6741 C   0  0  0  0  0  0  0  0  0  0  0  0
    8.4887  -12.7334   25.9151 C   0  0  0  0  0  0  0  0  0  0  0  0
    7.5015  -13.6821   25.7816 C   0  0  0  0  0  0  0  0  0  0  0  0
    9.4717  -16.7025   26.0934 C   0  0  0  0  0  0  0  0  0  0  0  0
    9.8580  -18.0326   26.1132 O   0  0  0  0  0  0  0  0  0  0  0  0
    8.9205  -16.2662   27.1272 O   0  0  0  0  0  0  0  0  0  0  0  0
  2  3  1  1
  2  1  1  0
  4  2  1  0
  5  4  1  0
  5  6  1  1
  7  5  1  0
  8  7  2  0
  9  7  1  0
  9 13  1  0
 10  9  1  0
 11 10  1  0
 11 12  1  0
 12 13  1  0
 13 14  1  1
 14 15  2  0
 16 14  1  0
 17 16  1  0
 17 28  1  0
 17 18  1  6
 19 18  1  0
 20 19  2  0
 21 22  1  0
 21 20  1  0
 22 27  2  0
 23 22  1  0
 23 24  2  0
 24 25  1  0
 25 26  2  0
 27 19  1  0
 27 26  1  0
 28 30  2  0
 28 29  1  0
M  END
$$$$
