LPW.pdb
     RDKit          3D

 30 32  0  0  1  0  0  0  0  0999 V2000
    8.7099  -13.1095   19.0782 C   0  0  0  0  0  0  0  0  0  0  0  0
    8.0647  -13.4581   20.3970 C   0  0  1  0  0  0  0  0  0  0  0  0
    7.6665  -12.1280   21.0507 C   0  0  0  0  0  0  0  0  0  0  0  0
    6.8999  -14.3623   20.2700 C   0  0  0  0  0  0  0  0  0  0  0  0
    7.2946  -15.7878   19.8971 C   0  0  2  0  0  0  0  0  0  0  0  0
    5.9723  -16.4778   19.8262 N   0  0  0  0  0  0  0  0  0  0  0  0
    7.9924  -16.4574   21.0248 C   0  0  0  0  0  0  0  0  0  0  0  0
    7.2729  -16.6687   22.0751 O   0  0  0  0  0  0  0  0  0  0  0  0
    9.3466  -16.8640   21.0150 N   0  0  0  0  0  0  0  0  0  0  0  0
   10.3138  -16.6869   19.9699 C   0  0  0  0  0  0  0  0  0  0  0  0
   11.1889  -17.9238   20.0499 C   0  0  0  0  0  0  0  0  0  0  0  0
   11.2339  -18.1940   21.5286 C   0  0  0  0  0  0  0  0  0  0  0  0
   10.0020  -17.5872   22.1082 C   0  0  1  0  0  0  0  0  0  0  0  0
   10.2991  -16.6736   23.2385 C   0  0  0  0  0  0  0  0  0  0  0  0
   10.8667  -15.5723   23.0191 O   0  0  0  0  0  0  0  0  0  0  0  0
    9.9353  -17.0641   24.5448 N   0  0  0  0  0  0  0  0  0  0  0  0
   10.5169  -16.4414   25.7364 C   0  0  1  0  0  0  0  0  0  0  0  0
   10.0780  -15.0396   25.8795 C   0  0  0  0  0  0  0  0  0  0  0  0
    8.6209  -14.9082   26.0597 C   0  0  0  0  0  0  0  0  0  0  0  0
    7.6771  -15.9494   25.9149 C   0  0  0  0  0  0  0  0  0  0  0  0
    6.4440  -15.4583   26.1066 N   0  0  0  0  0  0  0  0  0  0  0  0
    6.4882  -14.1511   26.3733 C   0  0  0  0  0  0  0  0  0  0  0  0
    5.5418  -13.1910   26.6623 C   0  0  0  0  0  0  0  0  0  0  0  0
    5.9108  -11.8694   26.9323 C   0  0  0  0  0  0  0  0  0  0  0  0
    7.2351  -11.5451   26.9040 C   0  0  0  0  0  0  0  0  0  0  0  0
    8.1665  -12.5071   26.6147 C   0  0  0  0  0  0  0  0  0  0  0  0
    7.8339  -13.8142   26.3440 C   0  0  0  0  0  0  0  0  0  0  0  0
   10.1932  -17.2651   26.8861 C   0  0  0  0  0  0  0  0  0  0  0  0
   10.6965  -16.9437   28.1360 O   0  0  0  0  0  0  0  0  0  0  0  0
    9.4662  -18.2801   26.8216 O   0  0  0  0  0  0  0  0  0  0  0  0
  2  3  1  6
  2  1  1  0
  4  2  1  0
  5  4  1  0
  5  6  1  1
  7  5  1  0
  8  7  2  0
  9  7  1  0
  9 13  1  0
 10  9  1  0
 11 10  1  0
 11 12  1  0
 12 13  1  0
 13 14  1  1
 14 15  2  0
 16 14  1  0
 17 16  1  0
 17 28  1  0
 17 18  1  1
 19 18  1  0
 20 19  2  0
 21 22  1  0
 21 20  1  0
 22 27  2  0
 23 22  1  0
 23 24  2  0
 24 25  1  0
 25 26  2  0
 27 19  1  0
 27 26  1  0
 28 30  2  0
 28 29  1  0
M  END
$$$$
