LPW.pdb
     RDKit          3D

 30 32  0  0  1  0  0  0  0  0999 V2000
    6.0465  -21.2238   24.2351 C   0  0  0  0  0  0  0  0  0  0  0  0
    5.9792  -20.5286   22.8974 C   0  0  1  0  0  0  0  0  0  0  0  0
    4.6244  -19.8093   22.8495 C   0  0  0  0  0  0  0  0  0  0  0  0
    7.0949  -19.5858   22.6590 C   0  0  0  0  0  0  0  0  0  0  0  0
    6.9961  -18.8805   21.3100 C   0  0  2  0  0  0  0  0  0  0  0  0
    7.4508  -19.9399   20.3610 N   0  0  0  0  0  0  0  0  0  0  0  0
    8.0285  -17.8190   21.1894 C   0  0  0  0  0  0  0  0  0  0  0  0
    9.2224  -18.2338   20.9289 O   0  0  0  0  0  0  0  0  0  0  0  0
    7.7889  -16.4332   21.3350 N   0  0  0  0  0  0  0  0  0  0  0  0
    6.5528  -15.7803   21.6587 C   0  0  0  0  0  0  0  0  0  0  0  0
    6.6015  -14.4736   20.8891 C   0  0  0  0  0  0  0  0  0  0  0  0
    8.0607  -14.1151   20.9511 C   0  0  0  0  0  0  0  0  0  0  0  0
    8.8034  -15.3929   21.1443 C   0  0  1  0  0  0  0  0  0  0  0  0
    9.7268  -15.3409   22.3041 C   0  0  0  0  0  0  0  0  0  0  0  0
   10.7830  -14.6610   22.2319 O   0  0  0  0  0  0  0  0  0  0  0  0
    9.3966  -16.0614   23.4717 N   0  0  0  0  0  0  0  0  0  0  0  0
   10.1851  -15.9586   24.7019 C   0  0  1  0  0  0  0  0  0  0  0  0
    9.9170  -14.6909   25.4085 C   0  0  0  0  0  0  0  0  0  0  0  0
    8.4841  -14.4745   25.6788 C   0  0  0  0  0  0  0  0  0  0  0  0
    7.4636  -15.4394   25.5264 C   0  0  0  0  0  0  0  0  0  0  0  0
    6.2797  -14.8805   25.8166 N   0  0  0  0  0  0  0  0  0  0  0  0
    6.4291  -13.5985   26.1574 C   0  0  0  0  0  0  0  0  0  0  0  0
    5.5686  -12.5978   26.5562 C   0  0  0  0  0  0  0  0  0  0  0  0
    6.0427  -11.3232   26.8826 C   0  0  0  0  0  0  0  0  0  0  0  0
    7.3831  -11.0866   26.7983 C   0  0  0  0  0  0  0  0  0  0  0  0
    8.2285  -12.0883   26.4000 C   0  0  0  0  0  0  0  0  0  0  0  0
    7.7916  -13.3507   26.0717 C   0  0  0  0  0  0  0  0  0  0  0  0
    9.9238  -17.1341   25.5113 C   0  0  0  0  0  0  0  0  0  0  0  0
   10.7849  -17.4749   26.5415 O   0  0  0  0  0  0  0  0  0  0  0  0
    8.9403  -17.8854   25.3346 O   0  0  0  0  0  0  0  0  0  0  0  0
  2  3  1  1
  2  1  1  0
  4  2  1  0
  5  4  1  0
  5  6  1  6
  7  5  1  0
  8  7  2  0
  9  7  1  0
  9 13  1  0
 10  9  1  0
 11 10  1  0
 11 12  1  0
 12 13  1  0
 13 14  1  1
 14 15  2  0
 16 14  1  0
 17 16  1  0
 17 28  1  0
 17 18  1  1
 19 18  1  0
 20 19  2  0
 21 22  1  0
 21 20  1  0
 22 27  2  0
 23 22  1  0
 23 24  2  0
 24 25  1  0
 25 26  2  0
 27 19  1  0
 27 26  1  0
 28 30  2  0
 28 29  1  0
M  END
$$$$
