LPW.pdb
     RDKit          3D

 30 32  0  0  1  0  0  0  0  0999 V2000
    7.8561  -11.7750   19.6370 C   0  0  0  0  0  0  0  0  0  0  0  0
    7.8236  -13.2517   19.3288 C   0  0  1  0  0  0  0  0  0  0  0  0
    9.0359  -13.5350   18.4315 C   0  0  0  0  0  0  0  0  0  0  0  0
    7.8359  -14.1123   20.5329 C   0  0  0  0  0  0  0  0  0  0  0  0
    7.7511  -15.5984   20.1996 C   0  0  2  0  0  0  0  0  0  0  0  0
    6.2772  -15.8260   20.1243 N   0  0  0  0  0  0  0  0  0  0  0  0
    8.1868  -16.4267   21.3534 C   0  0  0  0  0  0  0  0  0  0  0  0
    7.3425  -16.5109   22.3257 O   0  0  0  0  0  0  0  0  0  0  0  0
    9.4241  -17.1048   21.4448 N   0  0  0  0  0  0  0  0  0  0  0  0
   10.4541  -17.1999   20.4501 C   0  0  0  0  0  0  0  0  0  0  0  0
   11.0448  -18.5835   20.6474 C   0  0  0  0  0  0  0  0  0  0  0  0
   10.9638  -18.7609   22.1386 C   0  0  0  0  0  0  0  0  0  0  0  0
    9.8617  -17.8759   22.6117 C   0  0  1  0  0  0  0  0  0  0  0  0
   10.2919  -16.9726   23.7068 C   0  0  0  0  0  0  0  0  0  0  0  0
   11.0246  -15.9828   23.4489 O   0  0  0  0  0  0  0  0  0  0  0  0
    9.8658  -17.2465   25.0240 N   0  0  0  0  0  0  0  0  0  0  0  0
   10.3389  -16.4730   26.1745 C   0  0  1  0  0  0  0  0  0  0  0  0
    9.9819  -15.0466   26.0474 C   0  0  0  0  0  0  0  0  0  0  0  0
    8.5300  -14.8068   26.1330 C   0  0  0  0  0  0  0  0  0  0  0  0
    7.5239  -15.7853   25.9715 C   0  0  0  0  0  0  0  0  0  0  0  0
    6.3202  -15.2021   26.0683 N   0  0  0  0  0  0  0  0  0  0  0  0
    6.4426  -13.8908   26.2861 C   0  0  0  0  0  0  0  0  0  0  0  0
    5.5523  -12.8558   26.4792 C   0  0  0  0  0  0  0  0  0  0  0  0
    5.9989  -11.5526   26.7195 C   0  0  0  0  0  0  0  0  0  0  0  0
    7.3425  -11.3225   26.7596 C   0  0  0  0  0  0  0  0  0  0  0  0
    8.2176  -12.3583   26.5653 C   0  0  0  0  0  0  0  0  0  0  0  0
    7.8083  -13.6497   26.3259 C   0  0  0  0  0  0  0  0  0  0  0  0
    9.8227  -17.0892   27.3824 C   0  0  0  0  0  0  0  0  0  0  0  0
   10.2536  -16.6532   28.6246 O   0  0  0  0  0  0  0  0  0  0  0  0
    8.9870  -18.0190   27.3764 O   0  0  0  0  0  0  0  0  0  0  0  0
  2  3  1  6
  2  1  1  0
  4  2  1  0
  5  4  1  0
  5  6  1  1
  7  5  1  0
  8  7  2  0
  9  7  1  0
  9 13  1  0
 10  9  1  0
 11 10  1  0
 11 12  1  0
 12 13  1  0
 13 14  1  1
 14 15  2  0
 16 14  1  0
 17 16  1  0
 17 28  1  0
 17 18  1  6
 19 18  1  0
 20 19  2  0
 21 22  1  0
 21 20  1  0
 22 27  2  0
 23 22  1  0
 23 24  2  0
 24 25  1  0
 25 26  2  0
 27 19  1  0
 27 26  1  0
 28 30  2  0
 28 29  1  0
M  END
$$$$
