LPW.pdb
     RDKit          3D

 30 32  0  0  1  0  0  0  0  0999 V2000
    7.7997  -13.5652   21.9518 C   0  0  0  0  0  0  0  0  0  0  0  0
    7.3670  -14.2686   23.2147 C   0  0  1  0  0  0  0  0  0  0  0  0
    6.5354  -13.2555   24.0130 C   0  0  0  0  0  0  0  0  0  0  0  0
    6.6050  -15.5140   22.9721 C   0  0  0  0  0  0  0  0  0  0  0  0
    7.4106  -16.5625   22.2115 C   0  0  2  0  0  0  0  0  0  0  0  0
    6.4975  -17.7438   22.2310 N   0  0  0  0  0  0  0  0  0  0  0  0
    8.5889  -17.0027   23.0022 C   0  0  0  0  0  0  0  0  0  0  0  0
    8.3189  -17.6252   24.0999 O   0  0  0  0  0  0  0  0  0  0  0  0
    9.9378  -16.7903   22.6357 N   0  0  0  0  0  0  0  0  0  0  0  0
   10.4414  -16.0724   21.4998 C   0  0  0  0  0  0  0  0  0  0  0  0
   11.7035  -16.8185   21.1091 C   0  0  0  0  0  0  0  0  0  0  0  0
   12.2495  -17.2519   22.4416 C   0  0  0  0  0  0  0  0  0  0  0  0
   11.0893  -17.3147   23.3752 C   0  0  1  0  0  0  0  0  0  0  0  0
   11.3176  -16.5330   24.6150 C   0  0  0  0  0  0  0  0  0  0  0  0
   11.3231  -15.2756   24.5687 O   0  0  0  0  0  0  0  0  0  0  0  0
   11.5253  -17.2233   25.8281 N   0  0  0  0  0  0  0  0  0  0  0  0
   11.7849  -16.5250   27.0894 C   0  0  1  0  0  0  0  0  0  0  0  0
   11.2107  -15.1655   27.0798 C   0  0  0  0  0  0  0  0  0  0  0  0
    9.7390  -15.1629   26.9959 C   0  0  0  0  0  0  0  0  0  0  0  0
    8.9191  -16.3086   26.8916 C   0  0  0  0  0  0  0  0  0  0  0  0
    7.6374  -15.9275   26.7900 N   0  0  0  0  0  0  0  0  0  0  0  0
    7.5325  -14.5971   26.8195 C   0  0  0  0  0  0  0  0  0  0  0  0
    6.4784  -13.7094   26.7737 C   0  0  0  0  0  0  0  0  0  0  0  0
    6.6905  -12.3295   26.8561 C   0  0  0  0  0  0  0  0  0  0  0  0
    7.9697  -11.8745   26.9835 C   0  0  0  0  0  0  0  0  0  0  0  0
    9.0092  -12.7657   27.0269 C   0  0  0  0  0  0  0  0  0  0  0  0
    8.8319  -14.1276   26.9471 C   0  0  0  0  0  0  0  0  0  0  0  0
   11.2926  -17.3491   28.1773 C   0  0  0  0  0  0  0  0  0  0  0  0
   11.5661  -17.0036   29.4906 O   0  0  0  0  0  0  0  0  0  0  0  0
   10.6155  -18.3854   28.0024 O   0  0  0  0  0  0  0  0  0  0  0  0
  2  3  1  6
  2  1  1  0
  4  2  1  0
  5  4  1  0
  5  6  1  1
  7  5  1  0
  8  7  2  0
  9  7  1  0
  9 13  1  0
 10  9  1  0
 11 10  1  0
 11 12  1  0
 12 13  1  0
 13 14  1  1
 14 15  2  0
 16 14  1  0
 17 16  1  0
 17 28  1  0
 17 18  1  6
 19 18  1  0
 20 19  2  0
 21 22  1  0
 21 20  1  0
 22 27  2  0
 23 22  1  0
 23 24  2  0
 24 25  1  0
 25 26  2  0
 27 19  1  0
 27 26  1  0
 28 30  2  0
 28 29  1  0
M  END
$$$$
