LPW.pdb
     RDKit          3D

 30 32  0  0  1  0  0  0  0  0999 V2000
   10.2421  -16.7953   15.5110 C   0  0  0  0  0  0  0  0  0  0  0  0
   10.8982  -17.1779   16.8149 C   0  0  1  0  0  0  0  0  0  0  0  0
   11.1428  -18.6915   16.7504 C   0  0  0  0  0  0  0  0  0  0  0  0
   12.1539  -16.4437   17.0883 C   0  0  0  0  0  0  0  0  0  0  0  0
   11.9186  -14.9779   17.4389 C   0  0  2  0  0  0  0  0  0  0  0  0
   13.3037  -14.4849   17.6998 N   0  0  0  0  0  0  0  0  0  0  0  0
   11.2352  -14.8495   18.7518 C   0  0  0  0  0  0  0  0  0  0  0  0
   11.9424  -15.1796   19.7796 O   0  0  0  0  0  0  0  0  0  0  0  0
    9.9069  -14.4013   18.9353 N   0  0  0  0  0  0  0  0  0  0  0  0
    8.9558  -14.0237   17.9293 C   0  0  0  0  0  0  0  0  0  0  0  0
    8.1503  -12.9082   18.5690 C   0  0  0  0  0  0  0  0  0  0  0  0
    8.0863  -13.3389   20.0084 C   0  0  0  0  0  0  0  0  0  0  0  0
    9.2680  -14.2169   20.2414 C   0  0  1  0  0  0  0  0  0  0  0  0
    8.8935  -15.5249   20.8322 C   0  0  0  0  0  0  0  0  0  0  0  0
    9.3845  -16.5850   20.3652 O   0  0  0  0  0  0  0  0  0  0  0  0
    7.9874  -15.5504   21.9137 N   0  0  0  0  0  0  0  0  0  0  0  0
    8.3730  -15.1380   23.2654 C   0  0  1  0  0  0  0  0  0  0  0  0
    7.3319  -14.2984   23.8894 C   0  0  0  0  0  0  0  0  0  0  0  0
    7.5631  -14.0682   25.3269 C   0  0  0  0  0  0  0  0  0  0  0  0
    8.3071  -14.9083   26.1851 C   0  0  0  0  0  0  0  0  0  0  0  0
    8.2675  -14.4140   27.4311 N   0  0  0  0  0  0  0  0  0  0  0  0
    7.5459  -13.2920   27.4756 C   0  0  0  0  0  0  0  0  0  0  0  0
    7.2126  -12.3959   28.4691 C   0  0  0  0  0  0  0  0  0  0  0  0
    6.4399  -11.2635   28.1926 C   0  0  0  0  0  0  0  0  0  0  0  0
    6.0187  -11.0603   26.9116 C   0  0  0  0  0  0  0  0  0  0  0  0
    6.3552  -11.9579   25.9329 C   0  0  0  0  0  0  0  0  0  0  0  0
    7.1125  -13.0806   26.1746 C   0  0  0  0  0  0  0  0  0  0  0  0
    8.6881  -16.3281   24.0333 C   0  0  0  0  0  0  0  0  0  0  0  0
    7.8032  -17.3935   24.0600 O   0  0  0  0  0  0  0  0  0  0  0  0
    9.7404  -16.4602   24.6952 O   0  0  0  0  0  0  0  0  0  0  0  0
  2  3  1  6
  2  1  1  0
  4  2  1  0
  5  4  1  0
  5  6  1  1
  7  5  1  0
  8  7  2  0
  9  7  1  0
  9 13  1  0
 10  9  1  0
 11 10  1  0
 11 12  1  0
 12 13  1  0
 13 14  1  6
 14 15  2  0
 16 14  1  0
 17 16  1  0
 17 28  1  0
 17 18  1  1
 19 18  1  0
 20 19  2  0
 21 22  1  0
 21 20  1  0
 22 27  2  0
 23 22  1  0
 23 24  2  0
 24 25  1  0
 25 26  2  0
 27 19  1  0
 27 26  1  0
 28 30  2  0
 28 29  1  0
M  END
$$$$
