LPW.pdb
     RDKit          3D

 30 32  0  0  1  0  0  0  0  0999 V2000
    3.8121  -16.7035   20.7347 C   0  0  0  0  0  0  0  0  0  0  0  0
    4.8773  -17.5207   21.4236 C   0  0  1  0  0  0  0  0  0  0  0  0
    4.1601  -18.3572   22.4918 C   0  0  0  0  0  0  0  0  0  0  0  0
    5.6567  -18.3801   20.5046 C   0  0  0  0  0  0  0  0  0  0  0  0
    6.5394  -17.5804   19.5516 C   0  0  2  0  0  0  0  0  0  0  0  0
    7.3119  -18.6520   18.8556 N   0  0  0  0  0  0  0  0  0  0  0  0
    7.5719  -16.8171   20.2990 C   0  0  0  0  0  0  0  0  0  0  0  0
    8.4591  -17.5316   20.9053 O   0  0  0  0  0  0  0  0  0  0  0  0
    7.6390  -15.4071   20.3802 N   0  0  0  0  0  0  0  0  0  0  0  0
    6.7229  -14.4469   19.8343 C   0  0  0  0  0  0  0  0  0  0  0  0
    7.5964  -13.2694   19.4437 C   0  0  0  0  0  0  0  0  0  0  0  0
    8.6438  -13.2706   20.5228 C   0  0  0  0  0  0  0  0  0  0  0  0
    8.7166  -14.6661   21.0415 C   0  0  1  0  0  0  0  0  0  0  0  0
    8.5700  -14.7300   22.5162 C   0  0  0  0  0  0  0  0  0  0  0  0
    8.0845  -13.7504   23.1389 O   0  0  0  0  0  0  0  0  0  0  0  0
    8.9818  -15.8981   23.1926 N   0  0  0  0  0  0  0  0  0  0  0  0
    9.9204  -15.8596   24.3166 C   0  0  1  0  0  0  0  0  0  0  0  0
    9.6825  -14.6838   25.1762 C   0  0  0  0  0  0  0  0  0  0  0  0
    8.2795  -14.5638   25.6121 C   0  0  0  0  0  0  0  0  0  0  0  0
    7.3007  -15.5786   25.5220 C   0  0  0  0  0  0  0  0  0  0  0  0
    6.1288  -15.1034   25.9685 N   0  0  0  0  0  0  0  0  0  0  0  0
    6.2475  -13.8320   26.3572 C   0  0  0  0  0  0  0  0  0  0  0  0
    5.3853  -12.9024   26.8991 C   0  0  0  0  0  0  0  0  0  0  0  0
    5.8250  -11.6188   27.2378 C   0  0  0  0  0  0  0  0  0  0  0  0
    7.1332  -11.3009   27.0201 C   0  0  0  0  0  0  0  0  0  0  0  0
    7.9804  -12.2322   26.4803 C   0  0  0  0  0  0  0  0  0  0  0  0
    7.5768  -13.5015   26.1363 C   0  0  0  0  0  0  0  0  0  0  0  0
    9.8310  -17.1201   25.0294 C   0  0  0  0  0  0  0  0  0  0  0  0
   10.7117  -17.3998   26.0614 O   0  0  0  0  0  0  0  0  0  0  0  0
    8.9837  -18.0005   24.7651 O   0  0  0  0  0  0  0  0  0  0  0  0
  2  3  1  1
  2  1  1  0
  4  2  1  0
  5  4  1  0
  5  6  1  6
  7  5  1  0
  8  7  2  0
  9  7  1  0
  9 13  1  0
 10  9  1  0
 11 10  1  0
 11 12  1  0
 12 13  1  0
 13 14  1  1
 14 15  2  0
 16 14  1  0
 17 16  1  0
 17 28  1  0
 17 18  1  1
 19 18  1  0
 20 19  2  0
 21 22  1  0
 21 20  1  0
 22 27  2  0
 23 22  1  0
 23 24  2  0
 24 25  1  0
 25 26  2  0
 27 19  1  0
 27 26  1  0
 28 30  2  0
 28 29  1  0
M  END
$$$$
