LPW.pdb
     RDKit          3D

 30 32  0  0  1  0  0  0  0  0999 V2000
    7.1676  -11.9879   20.4893 C   0  0  0  0  0  0  0  0  0  0  0  0
    7.5130  -13.3616   19.9691 C   0  0  1  0  0  0  0  0  0  0  0  0
    8.8384  -13.2176   19.2090 C   0  0  0  0  0  0  0  0  0  0  0  0
    7.6117  -14.3921   21.0269 C   0  0  0  0  0  0  0  0  0  0  0  0
    7.8755  -15.7880   20.4711 C   0  0  2  0  0  0  0  0  0  0  0  0
    6.4946  -16.3240   20.2834 N   0  0  0  0  0  0  0  0  0  0  0  0
    8.4679  -16.6695   21.5100 C   0  0  0  0  0  0  0  0  0  0  0  0
    7.6380  -17.1331   22.3827 O   0  0  0  0  0  0  0  0  0  0  0  0
    9.8351  -17.0195   21.5944 N   0  0  0  0  0  0  0  0  0  0  0  0
   10.8686  -16.7812   20.6278 C   0  0  0  0  0  0  0  0  0  0  0  0
   11.7874  -17.9823   20.7515 C   0  0  0  0  0  0  0  0  0  0  0  0
   11.7344  -18.2807   22.2245 C   0  0  0  0  0  0  0  0  0  0  0  0
   10.4382  -17.7373   22.7208 C   0  0  1  0  0  0  0  0  0  0  0  0
   10.6116  -16.8357   23.8859 C   0  0  0  0  0  0  0  0  0  0  0  0
   11.2189  -15.7428   23.7452 O   0  0  0  0  0  0  0  0  0  0  0  0
   10.0869  -17.2278   25.1358 N   0  0  0  0  0  0  0  0  0  0  0  0
   10.4252  -16.5297   26.3784 C   0  0  1  0  0  0  0  0  0  0  0  0
   10.0683  -15.0994   26.3062 C   0  0  0  0  0  0  0  0  0  0  0  0
    8.6217  -14.8750   26.1339 C   0  0  0  0  0  0  0  0  0  0  0  0
    7.6575  -15.8778   25.8878 C   0  0  0  0  0  0  0  0  0  0  0  0
    6.4532  -15.3066   25.7400 N   0  0  0  0  0  0  0  0  0  0  0  0
    6.5359  -13.9807   25.8705 C   0  0  0  0  0  0  0  0  0  0  0  0
    5.6241  -12.9471   25.8330 C   0  0  0  0  0  0  0  0  0  0  0  0
    6.0229  -11.6227   26.0394 C   0  0  0  0  0  0  0  0  0  0  0  0
    7.3412  -11.3704   26.2804 C   0  0  0  0  0  0  0  0  0  0  0  0
    8.2383  -12.4052   26.3144 C   0  0  0  0  0  0  0  0  0  0  0  0
    7.8761  -13.7172   26.1141 C   0  0  0  0  0  0  0  0  0  0  0  0
    9.7889  -17.2257   27.4810 C   0  0  0  0  0  0  0  0  0  0  0  0
    9.0860  -18.3971   27.2514 O   0  0  0  0  0  0  0  0  0  0  0  0
    9.8339  -16.8250   28.6643 O   0  0  0  0  0  0  0  0  0  0  0  0
  2  3  1  1
  2  1  1  0
  4  2  1  0
  5  4  1  0
  5  6  1  1
  7  5  1  0
  8  7  2  0
  9  7  1  0
  9 13  1  0
 10  9  1  0
 11 10  1  0
 11 12  1  0
 12 13  1  0
 13 14  1  1
 14 15  2  0
 16 14  1  0
 17 16  1  0
 17 28  1  0
 17 18  1  6
 19 18  1  0
 20 19  2  0
 21 22  1  0
 21 20  1  0
 22 27  2  0
 23 22  1  0
 23 24  2  0
 24 25  1  0
 25 26  2  0
 27 19  1  0
 27 26  1  0
 28 30  2  0
 28 29  1  0
M  END
$$$$
