EHR.pdb
     RDKit          3D

 31 31  0  0  1  0  0  0  0  0999 V2000
   10.0502  -15.5590   15.8670 N   0  0  0  0  0  0  0  0  0  0  0  0
   10.3572  -14.5531   16.9042 C   0  0  1  0  0  0  0  0  0  0  0  0
    9.0607  -14.2547   17.5995 C   0  0  0  0  0  0  0  0  0  0  0  0
    9.2649  -13.2791   18.7231 C   0  0  0  0  0  0  0  0  0  0  0  0
    8.0188  -13.1014   19.5136 C   0  0  0  0  0  0  0  0  0  0  0  0
    6.9284  -13.6263   19.2091 O   0  0  0  0  0  0  0  0  0  0  0  0
   11.2966  -15.1687   17.8916 C   0  0  0  0  0  0  0  0  0  0  0  0
   11.1108  -16.3321   18.3015 O   0  0  0  0  0  0  0  0  0  0  0  0
    8.0143  -12.3092   20.6756 O   0  0  0  0  0  0  0  0  0  0  0  0
   12.4316  -14.4204   18.3811 N   0  0  0  0  0  0  0  0  0  0  0  0
   13.3779  -15.0855   19.2010 C   0  0  1  0  0  0  0  0  0  0  0  0
   14.7922  -14.5124   18.9883 C   0  0  0  0  0  0  0  0  0  0  0  0
   15.3240  -15.1632   17.7666 C   0  0  0  0  0  0  0  0  0  0  0  0
   15.5652  -16.5182   17.5754 C   0  0  0  0  0  0  0  0  0  0  0  0
   16.0483  -16.7198   16.3425 N   0  0  0  0  0  0  0  0  0  0  0  0
   16.1161  -15.5175   15.7536 C   0  0  0  0  0  0  0  0  0  0  0  0
   15.6753  -14.5723   16.6210 N   0  0  0  0  0  0  0  0  0  0  0  0
   13.1378  -15.0570   20.6420 C   0  0  0  0  0  0  0  0  0  0  0  0
   12.7234  -13.9419   21.1076 O   0  0  0  0  0  0  0  0  0  0  0  0
    6.3487  -15.7658   20.4506 N   0  0  0  0  0  0  0  0  0  0  0  0
    7.1879  -15.1155   21.3853 C   0  0  0  0  0  0  0  0  0  0  0  0
    6.7378  -14.2439   22.2278 N   0  0  0  0  0  0  0  0  0  0  0  0
    8.5958  -15.4236   21.4118 N   0  0  0  0  0  0  0  0  0  0  0  0
    9.0545  -16.6759   21.9521 C   0  0  0  0  0  0  0  0  0  0  0  0
   10.5656  -16.7822   21.7952 C   0  0  0  0  0  0  0  0  0  0  0  0
   11.2297  -15.9311   22.8512 C   0  0  0  0  0  0  0  0  0  0  0  0
   12.7190  -16.0371   22.8562 C   0  0  2  0  0  0  0  0  0  0  0  0
   13.3107  -16.1046   21.5503 N   0  0  0  0  0  0  0  0  0  0  0  0
   13.0781  -17.2450   23.6476 C   0  0  0  0  0  0  0  0  0  0  0  0
   13.6617  -18.3035   22.9765 O   0  0  0  0  0  0  0  0  0  0  0  0
   12.8810  -17.3529   24.8822 O   0  0  0  0  0  0  0  0  0  0  0  0
  2  1  1  6
  2  3  1  0
  4  3  1  0
  5  4  1  0
  6  5  2  0
  7  8  2  0
  7  2  1  0
  9  5  1  0
 10  7  1  0
 11 10  1  0
 11 12  1  1
 13 17  1  0
 13 12  1  0
 14 13  2  0
 15 14  1  0
 15 16  1  0
 16 17  2  0
 18 11  1  0
 18 19  2  0
 21 20  1  0
 21 22  2  0
 23 24  1  0
 23 21  1  0
 25 26  1  0
 25 24  1  0
 27 26  1  6
 27 28  1  0
 27 29  1  0
 28 18  1  0
 29 30  1  0
 31 29  2  0
M  END
$$$$
