EHR.pdb
     RDKit          3D

 31 31  0  0  1  0  0  0  0  0999 V2000
   10.2120  -16.6673   16.6572 N   0  0  0  0  0  0  0  0  0  0  0  0
   11.2434  -17.0904   17.6263 C   0  0  1  0  0  0  0  0  0  0  0  0
   12.5667  -16.9039   16.9427 C   0  0  0  0  0  0  0  0  0  0  0  0
   12.4041  -16.8925   15.4496 C   0  0  0  0  0  0  0  0  0  0  0  0
   13.7179  -16.7601   14.7670 C   0  0  0  0  0  0  0  0  0  0  0  0
   13.9437  -15.9325   13.8608 O   0  0  0  0  0  0  0  0  0  0  0  0
   11.1831  -16.1734   18.8061 C   0  0  0  0  0  0  0  0  0  0  0  0
   12.0961  -15.3494   19.0143 O   0  0  0  0  0  0  0  0  0  0  0  0
   14.7973  -17.5879   15.1240 O   0  0  0  0  0  0  0  0  0  0  0  0
   10.0640  -16.2328   19.7181 N   0  0  0  0  0  0  0  0  0  0  0  0
   10.0769  -15.3934   20.8605 C   0  0  1  0  0  0  0  0  0  0  0  0
    8.6536  -14.9218   21.2153 C   0  0  0  0  0  0  0  0  0  0  0  0
    8.1455  -14.2028   20.0221 C   0  0  0  0  0  0  0  0  0  0  0  0
    8.1646  -12.8316   19.7979 C   0  0  0  0  0  0  0  0  0  0  0  0
    7.6122  -12.5624   18.6077 N   0  0  0  0  0  0  0  0  0  0  0  0
    7.2457  -13.7379   18.0780 C   0  0  0  0  0  0  0  0  0  0  0  0
    7.5706  -14.7341   18.9394 N   0  0  0  0  0  0  0  0  0  0  0  0
   10.6384  -15.9562   22.0864 C   0  0  0  0  0  0  0  0  0  0  0  0
    9.8964  -16.8012   22.6927 O   0  0  0  0  0  0  0  0  0  0  0  0
   18.4547  -19.2970   20.9750 N   0  0  0  0  0  0  0  0  0  0  0  0
   17.4775  -19.8861   21.8110 C   0  0  0  0  0  0  0  0  0  0  0  0
   17.7741  -20.4154   22.9529 N   0  0  0  0  0  0  0  0  0  0  0  0
   16.0992  -19.9055   21.3894 N   0  0  0  0  0  0  0  0  0  0  0  0
   15.3681  -18.6749   21.2419 C   0  0  0  0  0  0  0  0  0  0  0  0
   14.1564  -18.6817   22.1644 C   0  0  0  0  0  0  0  0  0  0  0  0
   13.2564  -17.5249   21.8009 C   0  0  0  0  0  0  0  0  0  0  0  0
   12.7912  -16.7350   22.9794 C   0  0  2  0  0  0  0  0  0  0  0  0
   11.8820  -15.6724   22.6567 N   0  0  0  0  0  0  0  0  0  0  0  0
   13.9990  -16.1914   23.6576 C   0  0  0  0  0  0  0  0  0  0  0  0
   14.5000  -14.9837   23.2086 O   0  0  0  0  0  0  0  0  0  0  0  0
   14.5824  -16.7666   24.6083 O   0  0  0  0  0  0  0  0  0  0  0  0
  2  1  1  6
  2  3  1  0
  4  3  1  0
  5  4  1  0
  6  5  2  0
  7  8  2  0
  7  2  1  0
  9  5  1  0
 10  7  1  0
 11 10  1  0
 11 12  1  1
 13 17  1  0
 13 12  1  0
 14 13  2  0
 15 14  1  0
 15 16  1  0
 16 17  2  0
 18 11  1  0
 18 19  2  0
 21 20  1  0
 21 22  2  0
 23 24  1  0
 23 21  1  0
 25 26  1  0
 25 24  1  0
 27 26  1  6
 27 28  1  0
 27 29  1  0
 28 18  1  0
 29 30  1  0
 31 29  2  0
M  END
$$$$
