EHR.pdb
     RDKit          3D

 31 31  0  0  1  0  0  0  0  0999 V2000
   11.2885  -17.9574   14.1501 N   0  0  0  0  0  0  0  0  0  0  0  0
   12.4266  -17.4283   14.9288 C   0  0  1  0  0  0  0  0  0  0  0  0
   13.2281  -16.5819   13.9829 C   0  0  0  0  0  0  0  0  0  0  0  0
   12.3734  -16.0789   12.8549 C   0  0  0  0  0  0  0  0  0  0  0  0
   12.9803  -16.3997   11.5365 C   0  0  0  0  0  0  0  0  0  0  0  0
   12.5490  -17.2914   10.7776 O   0  0  0  0  0  0  0  0  0  0  0  0
   11.8862  -16.5506   16.0124 C   0  0  0  0  0  0  0  0  0  0  0  0
   12.6598  -15.9493   16.7844 O   0  0  0  0  0  0  0  0  0  0  0  0
   14.1022  -15.6898   11.0726 O   0  0  0  0  0  0  0  0  0  0  0  0
   10.4596  -16.3897   16.1756 N   0  0  0  0  0  0  0  0  0  0  0  0
    9.9831  -15.6943   17.3154 C   0  0  1  0  0  0  0  0  0  0  0  0
    8.4954  -15.3265   17.1558 C   0  0  0  0  0  0  0  0  0  0  0  0
    8.1868  -14.3658   18.2424 C   0  0  0  0  0  0  0  0  0  0  0  0
    9.0472  -13.9227   19.2396 C   0  0  0  0  0  0  0  0  0  0  0  0
    8.4042  -13.0611   20.0387 N   0  0  0  0  0  0  0  0  0  0  0  0
    7.1553  -12.9533   19.5637 C   0  0  0  0  0  0  0  0  0  0  0  0
    7.0250  -13.7472   18.4717 N   0  0  0  0  0  0  0  0  0  0  0  0
   10.0995  -16.3777   18.6016 C   0  0  0  0  0  0  0  0  0  0  0  0
   10.0890  -17.6540   18.5480 O   0  0  0  0  0  0  0  0  0  0  0  0
   17.4313  -15.4952   19.5439 N   0  0  0  0  0  0  0  0  0  0  0  0
   16.7034  -14.2825   19.5606 C   0  0  0  0  0  0  0  0  0  0  0  0
   17.2424  -13.1494   19.2483 N   0  0  0  0  0  0  0  0  0  0  0  0
   15.3121  -14.2934   19.9374 N   0  0  0  0  0  0  0  0  0  0  0  0
   14.6105  -15.5408   20.0865 C   0  0  0  0  0  0  0  0  0  0  0  0
   13.1747  -15.2759   20.5198 C   0  0  0  0  0  0  0  0  0  0  0  0
   12.4321  -16.5891   20.5866 C   0  0  0  0  0  0  0  0  0  0  0  0
   10.9789  -16.4400   20.8953 C   0  0  2  0  0  0  0  0  0  0  0  0
   10.2195  -15.7917   19.8643 N   0  0  0  0  0  0  0  0  0  0  0  0
   10.8688  -15.6812   22.1707 C   0  0  0  0  0  0  0  0  0  0  0  0
   10.2671  -14.4373   22.1291 O   0  0  0  0  0  0  0  0  0  0  0  0
   11.2897  -16.1074   23.2734 O   0  0  0  0  0  0  0  0  0  0  0  0
  2  1  1  6
  2  3  1  0
  4  3  1  0
  5  4  1  0
  6  5  2  0
  7  8  2  0
  7  2  1  0
  9  5  1  0
 10  7  1  0
 11 10  1  0
 11 12  1  6
 13 17  1  0
 13 12  1  0
 14 13  2  0
 15 14  1  0
 15 16  1  0
 16 17  2  0
 18 11  1  0
 18 19  2  0
 21 20  1  0
 21 22  2  0
 23 24  1  0
 23 21  1  0
 25 26  1  0
 25 24  1  0
 27 26  1  6
 27 28  1  0
 27 29  1  0
 28 18  1  0
 29 30  1  0
 31 29  2  0
M  END
$$$$
