EHR.pdb
     RDKit          3D

 31 31  0  0  1  0  0  0  0  0999 V2000
   15.3694  -21.3493   20.2946 N   0  0  0  0  0  0  0  0  0  0  0  0
   15.8562  -20.0887   20.8908 C   0  0  1  0  0  0  0  0  0  0  0  0
   15.9434  -19.0966   19.7676 C   0  0  0  0  0  0  0  0  0  0  0  0
   17.1908  -19.3083   18.9583 C   0  0  0  0  0  0  0  0  0  0  0  0
   17.3444  -18.2538   17.9220 C   0  0  0  0  0  0  0  0  0  0  0  0
   17.9073  -17.1596   18.1298 O   0  0  0  0  0  0  0  0  0  0  0  0
   14.8351  -19.6086   21.8723 C   0  0  0  0  0  0  0  0  0  0  0  0
   14.9891  -18.5220   22.4652 O   0  0  0  0  0  0  0  0  0  0  0  0
   16.8465  -18.4497   16.6214 O   0  0  0  0  0  0  0  0  0  0  0  0
   13.6573  -20.4003   22.1436 N   0  0  0  0  0  0  0  0  0  0  0  0
   12.6978  -19.8948   23.0567 C   0  0  1  0  0  0  0  0  0  0  0  0
   11.2952  -20.4537   22.7495 C   0  0  0  0  0  0  0  0  0  0  0  0
   10.7581  -19.6364   21.6348 C   0  0  0  0  0  0  0  0  0  0  0  0
   11.3333  -18.5032   21.0727 C   0  0  0  0  0  0  0  0  0  0  0  0
   10.5494  -18.0410   20.0898 N   0  0  0  0  0  0  0  0  0  0  0  0
    9.4915  -18.8615   20.0222 C   0  0  0  0  0  0  0  0  0  0  0  0
    9.6202  -19.8308   20.9623 N   0  0  0  0  0  0  0  0  0  0  0  0
   12.9380  -20.1506   24.4750 C   0  0  0  0  0  0  0  0  0  0  0  0
   13.5328  -21.2492   24.7417 O   0  0  0  0  0  0  0  0  0  0  0  0
   11.2917  -19.1074   32.4910 N   0  0  0  0  0  0  0  0  0  0  0  0
   12.6738  -19.3849   32.3740 C   0  0  0  0  0  0  0  0  0  0  0  0
   13.2348  -20.3711   32.9940 N   0  0  0  0  0  0  0  0  0  0  0  0
   13.4988  -18.5480   31.5393 N   0  0  0  0  0  0  0  0  0  0  0  0
   13.0026  -18.0685   30.2766 C   0  0  0  0  0  0  0  0  0  0  0  0
   12.7156  -19.2462   29.3548 C   0  0  0  0  0  0  0  0  0  0  0  0
   12.5659  -18.7376   27.9408 C   0  0  0  0  0  0  0  0  0  0  0  0
   12.7969  -19.7837   26.9007 C   0  0  2  0  0  0  0  0  0  0  0  0
   12.5914  -19.3329   25.5537 N   0  0  0  0  0  0  0  0  0  0  0  0
   11.8916  -20.9246   27.2061 C   0  0  0  0  0  0  0  0  0  0  0  0
   10.8277  -21.1477   26.3520 O   0  0  0  0  0  0  0  0  0  0  0  0
   12.0417  -21.6890   28.1899 O   0  0  0  0  0  0  0  0  0  0  0  0
  2  1  1  6
  2  3  1  0
  4  3  1  0
  5  4  1  0
  6  5  2  0
  7  8  2  0
  7  2  1  0
  9  5  1  0
 10  7  1  0
 11 10  1  0
 11 12  1  6
 13 17  1  0
 13 12  1  0
 14 13  2  0
 15 14  1  0
 15 16  1  0
 16 17  2  0
 18 11  1  0
 18 19  2  0
 21 20  1  0
 21 22  2  0
 23 24  1  0
 23 21  1  0
 25 26  1  0
 25 24  1  0
 27 26  1  1
 27 28  1  0
 27 29  1  0
 28 18  1  0
 29 30  1  0
 31 29  2  0
M  END
$$$$
