EHR.pdb
     RDKit          3D

 31 31  0  0  1  0  0  0  0  0999 V2000
   12.9788  -17.0893   18.0424 N   0  0  0  0  0  0  0  0  0  0  0  0
   11.8422  -17.7634   18.7025 C   0  0  1  0  0  0  0  0  0  0  0  0
   12.4053  -18.9850   19.3689 C   0  0  0  0  0  0  0  0  0  0  0  0
   13.1740  -19.8258   18.3902 C   0  0  0  0  0  0  0  0  0  0  0  0
   13.6868  -21.0644   19.0324 C   0  0  0  0  0  0  0  0  0  0  0  0
   13.6495  -21.2693   20.2628 O   0  0  0  0  0  0  0  0  0  0  0  0
   11.3036  -16.8506   19.7575 C   0  0  0  0  0  0  0  0  0  0  0  0
   12.0784  -16.2181   20.5027 O   0  0  0  0  0  0  0  0  0  0  0  0
   14.2540  -22.0914   18.2569 O   0  0  0  0  0  0  0  0  0  0  0  0
    9.8771  -16.6918   19.9240 N   0  0  0  0  0  0  0  0  0  0  0  0
    9.4049  -15.9238   21.0181 C   0  0  1  0  0  0  0  0  0  0  0  0
    7.9573  -15.4535   20.7786 C   0  0  0  0  0  0  0  0  0  0  0  0
    8.0343  -14.3739   19.7650 C   0  0  0  0  0  0  0  0  0  0  0  0
    9.1766  -13.8931   19.1368 C   0  0  0  0  0  0  0  0  0  0  0  0
    8.8440  -12.9134   18.2861 N   0  0  0  0  0  0  0  0  0  0  0  0
    7.5138  -12.7680   18.3667 C   0  0  0  0  0  0  0  0  0  0  0  0
    7.0233  -13.6567   19.2664 N   0  0  0  0  0  0  0  0  0  0  0  0
    9.4136  -16.5685   22.3292 C   0  0  0  0  0  0  0  0  0  0  0  0
    9.2997  -17.8408   22.3162 O   0  0  0  0  0  0  0  0  0  0  0  0
   11.7789  -18.2125   30.1168 N   0  0  0  0  0  0  0  0  0  0  0  0
   12.8579  -18.6194   29.2977 C   0  0  0  0  0  0  0  0  0  0  0  0
   13.7542  -19.4587   29.7030 N   0  0  0  0  0  0  0  0  0  0  0  0
   12.9768  -18.0886   27.9628 N   0  0  0  0  0  0  0  0  0  0  0  0
   12.2387  -16.9141   27.5805 C   0  0  0  0  0  0  0  0  0  0  0  0
   10.9867  -17.3192   26.8138 C   0  0  0  0  0  0  0  0  0  0  0  0
   10.8518  -16.4389   25.5943 C   0  0  0  0  0  0  0  0  0  0  0  0
    9.6438  -16.7393   24.7698 C   0  0  2  0  0  0  0  0  0  0  0  0
    9.5318  -15.9498   23.5765 N   0  0  0  0  0  0  0  0  0  0  0  0
    8.4505  -16.5366   25.6355 C   0  0  0  0  0  0  0  0  0  0  0  0
    7.5039  -15.6183   25.2212 O   0  0  0  0  0  0  0  0  0  0  0  0
    8.2594  -17.1505   26.7132 O   0  0  0  0  0  0  0  0  0  0  0  0
  2  1  1  1
  2  3  1  0
  4  3  1  0
  5  4  1  0
  6  5  2  0
  7  8  2  0
  7  2  1  0
  9  5  1  0
 10  7  1  0
 11 10  1  0
 11 12  1  6
 13 17  1  0
 13 12  1  0
 14 13  2  0
 15 14  1  0
 15 16  1  0
 16 17  2  0
 18 11  1  0
 18 19  2  0
 21 20  1  0
 21 22  2  0
 23 24  1  0
 23 21  1  0
 25 26  1  0
 25 24  1  0
 27 26  1  1
 27 28  1  0
 27 29  1  0
 28 18  1  0
 29 30  1  0
 31 29  2  0
M  END
$$$$
