EHR.pdb
     RDKit          3D

 31 31  0  0  1  0  0  0  0  0999 V2000
    8.7403  -12.8515   17.1519 N   0  0  0  0  0  0  0  0  0  0  0  0
    7.8782  -13.9041   17.7271 C   0  0  1  0  0  0  0  0  0  0  0  0
    8.0893  -15.1291   16.8856 C   0  0  0  0  0  0  0  0  0  0  0  0
    9.5115  -15.2171   16.4107 C   0  0  0  0  0  0  0  0  0  0  0  0
    9.7520  -16.4807   15.6658 C   0  0  0  0  0  0  0  0  0  0  0  0
   10.8495  -16.7808   15.1533 O   0  0  0  0  0  0  0  0  0  0  0  0
    8.3526  -14.1924   19.1157 C   0  0  0  0  0  0  0  0  0  0  0  0
    9.5711  -14.3044   19.3576 O   0  0  0  0  0  0  0  0  0  0  0  0
    8.7208  -17.4226   15.5011 O   0  0  0  0  0  0  0  0  0  0  0  0
    7.4018  -14.3438   20.1932 N   0  0  0  0  0  0  0  0  0  0  0  0
    7.8947  -14.5420   21.5076 C   0  0  1  0  0  0  0  0  0  0  0  0
    6.7458  -14.5408   22.5341 C   0  0  0  0  0  0  0  0  0  0  0  0
    7.3803  -14.6802   23.8671 C   0  0  0  0  0  0  0  0  0  0  0  0
    8.1497  -13.7339   24.5329 C   0  0  0  0  0  0  0  0  0  0  0  0
    8.5502  -14.2279   25.7117 N   0  0  0  0  0  0  0  0  0  0  0  0
    8.0476  -15.4674   25.8010 C   0  0  0  0  0  0  0  0  0  0  0  0
    7.3367  -15.7407   24.6786 N   0  0  0  0  0  0  0  0  0  0  0  0
    8.6572  -15.7648   21.7490 C   0  0  0  0  0  0  0  0  0  0  0  0
    8.2643  -16.7935   21.1015 O   0  0  0  0  0  0  0  0  0  0  0  0
   14.3356  -15.7347   17.9015 N   0  0  0  0  0  0  0  0  0  0  0  0
   14.5800  -14.8074   18.9413 C   0  0  0  0  0  0  0  0  0  0  0  0
   15.1680  -13.6749   18.7323 N   0  0  0  0  0  0  0  0  0  0  0  0
   14.1659  -15.1213   20.2858 N   0  0  0  0  0  0  0  0  0  0  0  0
   13.4591  -16.3441   20.5606 C   0  0  0  0  0  0  0  0  0  0  0  0
   12.3660  -16.0875   21.5895 C   0  0  0  0  0  0  0  0  0  0  0  0
   11.5856  -17.3623   21.8047 C   0  0  0  0  0  0  0  0  0  0  0  0
   10.4079  -17.1980   22.7077 C   0  0  2  0  0  0  0  0  0  0  0  0
    9.7539  -15.9251   22.5998 N   0  0  0  0  0  0  0  0  0  0  0  0
   10.8798  -17.4183   24.1016 C   0  0  0  0  0  0  0  0  0  0  0  0
   11.4970  -18.6215   24.3890 O   0  0  0  0  0  0  0  0  0  0  0  0
   10.7485  -16.5764   25.0229 O   0  0  0  0  0  0  0  0  0  0  0  0
  2  1  1  6
  2  3  1  0
  4  3  1  0
  5  4  1  0
  6  5  2  0
  7  8  2  0
  7  2  1  0
  9  5  1  0
 10  7  1  0
 11 10  1  0
 11 12  1  1
 13 17  1  0
 13 12  1  0
 14 13  2  0
 15 14  1  0
 15 16  1  0
 16 17  2  0
 18 11  1  0
 18 19  2  0
 21 20  1  0
 21 22  2  0
 23 24  1  0
 23 21  1  0
 25 26  1  0
 25 24  1  0
 27 26  1  6
 27 28  1  0
 27 29  1  0
 28 18  1  0
 29 30  1  0
 31 29  2  0
M  END
$$$$
