EHR.pdb
     RDKit          3D

 31 31  0  0  1  0  0  0  0  0999 V2000
   13.5467  -16.7402   16.9766 N   0  0  0  0  0  0  0  0  0  0  0  0
   12.0949  -16.5487   17.1704 C   0  0  1  0  0  0  0  0  0  0  0  0
   11.4171  -17.3329   16.0846 C   0  0  0  0  0  0  0  0  0  0  0  0
    9.9279  -17.1436   16.1337 C   0  0  0  0  0  0  0  0  0  0  0  0
    9.2466  -17.9739   15.1062 C   0  0  0  0  0  0  0  0  0  0  0  0
    9.2826  -19.2212   15.0928 O   0  0  0  0  0  0  0  0  0  0  0  0
   11.7160  -17.1385   18.4914 C   0  0  0  0  0  0  0  0  0  0  0  0
   10.5330  -17.1011   18.8851 O   0  0  0  0  0  0  0  0  0  0  0  0
    8.5085  -17.3710   14.0720 O   0  0  0  0  0  0  0  0  0  0  0  0
   12.7187  -17.7592   19.3263 N   0  0  0  0  0  0  0  0  0  0  0  0
   12.3284  -18.2600   20.5938 C   0  0  1  0  0  0  0  0  0  0  0  0
   13.5099  -18.9492   21.3029 C   0  0  0  0  0  0  0  0  0  0  0  0
   12.9297  -19.6959   22.4451 C   0  0  0  0  0  0  0  0  0  0  0  0
   11.8144  -20.5245   22.4258 C   0  0  0  0  0  0  0  0  0  0  0  0
   11.5986  -21.0174   23.6524 N   0  0  0  0  0  0  0  0  0  0  0  0
   12.5567  -20.5151   24.4439 C   0  0  0  0  0  0  0  0  0  0  0  0
   13.3650  -19.7118   23.7082 N   0  0  0  0  0  0  0  0  0  0  0  0
   11.7871  -17.2937   21.5468 C   0  0  0  0  0  0  0  0  0  0  0  0
   12.5031  -16.2537   21.7406 O   0  0  0  0  0  0  0  0  0  0  0  0
    7.3957  -14.5963   18.0004 N   0  0  0  0  0  0  0  0  0  0  0  0
    8.1368  -13.5004   18.5012 C   0  0  0  0  0  0  0  0  0  0  0  0
    8.3814  -12.4493   17.7891 N   0  0  0  0  0  0  0  0  0  0  0  0
    8.6442  -13.5420   19.8498 N   0  0  0  0  0  0  0  0  0  0  0  0
    8.3821  -14.6812   20.6888 C   0  0  0  0  0  0  0  0  0  0  0  0
    8.9703  -14.4472   22.0740 C   0  0  0  0  0  0  0  0  0  0  0  0
    8.8765  -15.7273   22.8696 C   0  0  0  0  0  0  0  0  0  0  0  0
   10.2025  -16.3453   23.1679 C   0  0  2  0  0  0  0  0  0  0  0  0
   10.5875  -17.3857   22.2573 N   0  0  0  0  0  0  0  0  0  0  0  0
   10.1470  -16.8721   24.5585 C   0  0  0  0  0  0  0  0  0  0  0  0
   10.0132  -15.9585   25.5875 O   0  0  0  0  0  0  0  0  0  0  0  0
   10.2144  -18.0921   24.8445 O   0  0  0  0  0  0  0  0  0  0  0  0
  2  1  1  6
  2  3  1  0
  4  3  1  0
  5  4  1  0
  6  5  2  0
  7  8  2  0
  7  2  1  0
  9  5  1  0
 10  7  1  0
 11 10  1  0
 11 12  1  1
 13 17  1  0
 13 12  1  0
 14 13  2  0
 15 14  1  0
 15 16  1  0
 16 17  2  0
 18 11  1  0
 18 19  2  0
 21 20  1  0
 21 22  2  0
 23 24  1  0
 23 21  1  0
 25 26  1  0
 25 24  1  0
 27 26  1  6
 27 28  1  0
 27 29  1  0
 28 18  1  0
 29 30  1  0
 31 29  2  0
M  END
$$$$
