EHR.pdb
     RDKit          3D

 31 31  0  0  1  0  0  0  0  0999 V2000
   12.5152  -18.9984   19.4710 N   0  0  0  0  0  0  0  0  0  0  0  0
   11.8487  -17.7070   19.7355 C   0  0  1  0  0  0  0  0  0  0  0  0
   11.0307  -17.3965   18.5157 C   0  0  0  0  0  0  0  0  0  0  0  0
   10.9415  -18.5909   17.6094 C   0  0  0  0  0  0  0  0  0  0  0  0
   10.1916  -18.2681   16.3673 C   0  0  0  0  0  0  0  0  0  0  0  0
   10.7319  -18.1364   15.2502 O   0  0  0  0  0  0  0  0  0  0  0  0
   10.9235  -17.8856   20.8968 C   0  0  0  0  0  0  0  0  0  0  0  0
   10.2294  -16.9330   21.3051 O   0  0  0  0  0  0  0  0  0  0  0  0
    8.7967  -18.0915   16.3981 O   0  0  0  0  0  0  0  0  0  0  0  0
   10.8240  -19.1663   21.5583 N   0  0  0  0  0  0  0  0  0  0  0  0
    9.9808  -19.2783   22.6925 C   0  0  1  0  0  0  0  0  0  0  0  0
    9.8814  -20.7417   23.1641 C   0  0  0  0  0  0  0  0  0  0  0  0
    8.7976  -20.7788   24.1755 C   0  0  0  0  0  0  0  0  0  0  0  0
    7.4305  -20.6886   23.9437 C   0  0  0  0  0  0  0  0  0  0  0  0
    6.7711  -20.7574   25.1075 N   0  0  0  0  0  0  0  0  0  0  0  0
    7.6969  -20.8892   26.0679 C   0  0  0  0  0  0  0  0  0  0  0  0
    8.9283  -20.9020   25.4994 N   0  0  0  0  0  0  0  0  0  0  0  0
   10.3496  -18.4940   23.8688 C   0  0  0  0  0  0  0  0  0  0  0  0
   11.2732  -17.6306   23.6856 O   0  0  0  0  0  0  0  0  0  0  0  0
    5.7812  -12.1322   24.8412 N   0  0  0  0  0  0  0  0  0  0  0  0
    6.5332  -11.9862   26.0302 C   0  0  0  0  0  0  0  0  0  0  0  0
    6.4382  -10.9392   26.7830 N   0  0  0  0  0  0  0  0  0  0  0  0
    7.4418  -13.0315   26.4298 N   0  0  0  0  0  0  0  0  0  0  0  0
    7.6176  -14.1956   25.6024 C   0  0  0  0  0  0  0  0  0  0  0  0
    8.5181  -15.1995   26.3100 C   0  0  0  0  0  0  0  0  0  0  0  0
    8.6862  -16.4143   25.4288 C   0  0  0  0  0  0  0  0  0  0  0  0
    9.6588  -17.4124   25.9644 C   0  0  2  0  0  0  0  0  0  0  0  0
    9.8069  -18.5870   25.1530 N   0  0  0  0  0  0  0  0  0  0  0  0
    9.2083  -17.7850   27.3329 C   0  0  0  0  0  0  0  0  0  0  0  0
    9.2607  -16.8126   28.3141 O   0  0  0  0  0  0  0  0  0  0  0  0
    8.7865  -18.9260   27.6409 O   0  0  0  0  0  0  0  0  0  0  0  0
  2  1  1  6
  2  3  1  0
  4  3  1  0
  5  4  1  0
  6  5  2  0
  7  8  2  0
  7  2  1  0
  9  5  1  0
 10  7  1  0
 11 10  1  0
 11 12  1  1
 13 17  1  0
 13 12  1  0
 14 13  2  0
 15 14  1  0
 15 16  1  0
 16 17  2  0
 18 11  1  0
 18 19  2  0
 21 20  1  0
 21 22  2  0
 23 24  1  0
 23 21  1  0
 25 26  1  0
 25 24  1  0
 27 26  1  6
 27 28  1  0
 27 29  1  0
 28 18  1  0
 29 30  1  0
 31 29  2  0
M  END
$$$$
