EHR.pdb
     RDKit          3D

 31 31  0  0  1  0  0  0  0  0999 V2000
   12.7370  -16.1505   17.7824 N   0  0  0  0  0  0  0  0  0  0  0  0
   13.2880  -15.1552   18.7246 C   0  0  1  0  0  0  0  0  0  0  0  0
   13.6852  -13.9665   17.8984 C   0  0  0  0  0  0  0  0  0  0  0  0
   15.0206  -14.1861   17.2470 C   0  0  0  0  0  0  0  0  0  0  0  0
   14.8678  -14.7963   15.9003 C   0  0  0  0  0  0  0  0  0  0  0  0
   13.7635  -14.9890   15.3519 O   0  0  0  0  0  0  0  0  0  0  0  0
   12.1978  -14.7417   19.6610 C   0  0  0  0  0  0  0  0  0  0  0  0
   12.4372  -13.9649   20.6072 O   0  0  0  0  0  0  0  0  0  0  0  0
   15.9965  -15.1955   15.1624 O   0  0  0  0  0  0  0  0  0  0  0  0
   10.8534  -15.2386   19.4782 N   0  0  0  0  0  0  0  0  0  0  0  0
    9.8783  -14.9290   20.4596 C   0  0  1  0  0  0  0  0  0  0  0  0
    8.4561  -15.1847   19.9248 C   0  0  0  0  0  0  0  0  0  0  0  0
    8.2901  -14.2985   18.7476 C   0  0  0  0  0  0  0  0  0  0  0  0
    8.1071  -12.9210   18.7539 C   0  0  0  0  0  0  0  0  0  0  0  0
    7.9929  -12.4764   17.4956 N   0  0  0  0  0  0  0  0  0  0  0  0
    8.1005  -13.5476   16.6969 C   0  0  0  0  0  0  0  0  0  0  0  0
    8.2810  -14.6544   17.4599 N   0  0  0  0  0  0  0  0  0  0  0  0
    9.9715  -15.6435   21.7307 C   0  0  0  0  0  0  0  0  0  0  0  0
   10.5127  -16.7992   21.6724 O   0  0  0  0  0  0  0  0  0  0  0  0
   10.6225  -16.1613   31.4961 N   0  0  0  0  0  0  0  0  0  0  0  0
   10.2626  -15.3880   30.3678 C   0  0  0  0  0  0  0  0  0  0  0  0
    9.9543  -14.1355   30.4591 N   0  0  0  0  0  0  0  0  0  0  0  0
   10.2331  -16.0028   29.0644 N   0  0  0  0  0  0  0  0  0  0  0  0
    9.9860  -15.2063   27.8918 C   0  0  0  0  0  0  0  0  0  0  0  0
   10.0033  -16.0928   26.6536 C   0  0  0  0  0  0  0  0  0  0  0  0
    9.7936  -15.2319   25.4307 C   0  0  0  0  0  0  0  0  0  0  0  0
    9.7662  -16.0036   24.1528 C   0  0  2  0  0  0  0  0  0  0  0  0
    9.5383  -15.2027   22.9839 N   0  0  0  0  0  0  0  0  0  0  0  0
    8.7076  -17.0416   24.2806 C   0  0  0  0  0  0  0  0  0  0  0  0
    8.9728  -18.1352   25.0836 O   0  0  0  0  0  0  0  0  0  0  0  0
    7.5955  -16.9773   23.7028 O   0  0  0  0  0  0  0  0  0  0  0  0
  2  1  1  6
  2  3  1  0
  4  3  1  0
  5  4  1  0
  6  5  2  0
  7  8  2  0
  7  2  1  0
  9  5  1  0
 10  7  1  0
 11 10  1  0
 11 12  1  6
 13 17  1  0
 13 12  1  0
 14 13  2  0
 15 14  1  0
 15 16  1  0
 16 17  2  0
 18 11  1  0
 18 19  2  0
 21 20  1  0
 21 22  2  0
 23 24  1  0
 23 21  1  0
 25 26  1  0
 25 24  1  0
 27 26  1  1
 27 28  1  0
 27 29  1  0
 28 18  1  0
 29 30  1  0
 31 29  2  0
M  END
$$$$
