EHR.pdb
     RDKit          3D

 31 31  0  0  1  0  0  0  0  0999 V2000
    9.8712  -18.1229   16.3280 N   0  0  0  0  0  0  0  0  0  0  0  0
   11.0423  -17.2232   16.2982 C   0  0  1  0  0  0  0  0  0  0  0  0
   10.8429  -16.3094   15.1241 C   0  0  0  0  0  0  0  0  0  0  0  0
    9.8213  -16.8678   14.1752 C   0  0  0  0  0  0  0  0  0  0  0  0
    9.6312  -15.9737   13.0031 C   0  0  0  0  0  0  0  0  0  0  0  0
   10.4219  -15.9231   12.0391 O   0  0  0  0  0  0  0  0  0  0  0  0
   11.0349  -16.4016   17.5479 C   0  0  0  0  0  0  0  0  0  0  0  0
   12.0112  -15.6814   17.8374 O   0  0  0  0  0  0  0  0  0  0  0  0
    8.5169  -15.1190   12.9273 O   0  0  0  0  0  0  0  0  0  0  0  0
    9.8938  -16.4339   18.4337 N   0  0  0  0  0  0  0  0  0  0  0  0
    9.9792  -15.7495   19.6723 C   0  0  1  0  0  0  0  0  0  0  0  0
    8.5768  -15.4207   20.2192 C   0  0  0  0  0  0  0  0  0  0  0  0
    7.9542  -14.4998   19.2378 C   0  0  0  0  0  0  0  0  0  0  0  0
    7.9836  -13.1107   19.2554 C   0  0  0  0  0  0  0  0  0  0  0  0
    7.3056  -12.6328   18.2037 N   0  0  0  0  0  0  0  0  0  0  0  0
    6.8498  -13.6945   17.5241 C   0  0  0  0  0  0  0  0  0  0  0  0
    7.2451  -14.8287   18.1544 N   0  0  0  0  0  0  0  0  0  0  0  0
   10.6908  -16.4278   20.7532 C   0  0  0  0  0  0  0  0  0  0  0  0
   10.4711  -17.6823   20.8526 O   0  0  0  0  0  0  0  0  0  0  0  0
   18.5908  -15.4685   20.6097 N   0  0  0  0  0  0  0  0  0  0  0  0
   17.7417  -14.3519   20.4275 C   0  0  0  0  0  0  0  0  0  0  0  0
   18.1331  -13.2786   19.8219 N   0  0  0  0  0  0  0  0  0  0  0  0
   16.3911  -14.3963   20.9291 N   0  0  0  0  0  0  0  0  0  0  0  0
   15.8539  -15.6212   21.4595 C   0  0  0  0  0  0  0  0  0  0  0  0
   14.3908  -15.4232   21.8331 C   0  0  0  0  0  0  0  0  0  0  0  0
   13.7975  -16.7577   22.2174 C   0  0  0  0  0  0  0  0  0  0  0  0
   12.3439  -16.6924   22.5520 C   0  0  2  0  0  0  0  0  0  0  0  0
   11.5727  -15.8581   21.6750 N   0  0  0  0  0  0  0  0  0  0  0  0
   12.2298  -16.2096   23.9550 C   0  0  0  0  0  0  0  0  0  0  0  0
   12.8619  -16.9438   24.9412 O   0  0  0  0  0  0  0  0  0  0  0  0
   11.5954  -15.1792   24.2877 O   0  0  0  0  0  0  0  0  0  0  0  0
  2  1  1  1
  2  3  1  0
  4  3  1  0
  5  4  1  0
  6  5  2  0
  7  8  2  0
  7  2  1  0
  9  5  1  0
 10  7  1  0
 11 10  1  0
 11 12  1  1
 13 17  1  0
 13 12  1  0
 14 13  2  0
 15 14  1  0
 15 16  1  0
 16 17  2  0
 18 11  1  0
 18 19  2  0
 21 20  1  0
 21 22  2  0
 23 24  1  0
 23 21  1  0
 25 26  1  0
 25 24  1  0
 27 26  1  6
 27 28  1  0
 27 29  1  0
 28 18  1  0
 29 30  1  0
 31 29  2  0
M  END
$$$$
