EHR.pdb
     RDKit          3D

 31 31  0  0  1  0  0  0  0  0999 V2000
   10.3265  -19.1767   19.2490 N   0  0  0  0  0  0  0  0  0  0  0  0
   11.5567  -18.6296   19.8566 C   0  0  1  0  0  0  0  0  0  0  0  0
   12.2286  -17.8154   18.7893 C   0  0  0  0  0  0  0  0  0  0  0  0
   11.4057  -17.7911   17.5331 C   0  0  0  0  0  0  0  0  0  0  0  0
   12.2650  -17.6320   16.3308 C   0  0  0  0  0  0  0  0  0  0  0  0
   13.4994  -17.4564   16.3839 O   0  0  0  0  0  0  0  0  0  0  0  0
   11.1625  -17.7175   20.9743 C   0  0  0  0  0  0  0  0  0  0  0  0
   11.9981  -17.3715   21.8333 O   0  0  0  0  0  0  0  0  0  0  0  0
   11.7069  -17.6739   15.0406 O   0  0  0  0  0  0  0  0  0  0  0  0
    9.8069  -17.2265   21.0698 N   0  0  0  0  0  0  0  0  0  0  0  0
    9.4513  -16.4351   22.1910 C   0  0  1  0  0  0  0  0  0  0  0  0
    8.0699  -15.7829   21.9907 C   0  0  0  0  0  0  0  0  0  0  0  0
    8.2604  -14.7075   20.9876 C   0  0  0  0  0  0  0  0  0  0  0  0
    9.4544  -14.3158   20.3945 C   0  0  0  0  0  0  0  0  0  0  0  0
    9.2243  -13.3082   19.5424 N   0  0  0  0  0  0  0  0  0  0  0  0
    7.9081  -13.0580   19.5876 C   0  0  0  0  0  0  0  0  0  0  0  0
    7.3238  -13.9097   20.4668 N   0  0  0  0  0  0  0  0  0  0  0  0
    9.4007  -17.1102   23.4858 C   0  0  0  0  0  0  0  0  0  0  0  0
    8.7317  -18.1982   23.5118 O   0  0  0  0  0  0  0  0  0  0  0  0
   14.3259  -20.1602   30.1354 N   0  0  0  0  0  0  0  0  0  0  0  0
   12.9308  -20.3584   30.0121 C   0  0  0  0  0  0  0  0  0  0  0  0
   12.1255  -20.2423   31.0170 N   0  0  0  0  0  0  0  0  0  0  0  0
   12.3722  -20.7029   28.7287 N   0  0  0  0  0  0  0  0  0  0  0  0
   12.4658  -19.7831   27.6261 C   0  0  0  0  0  0  0  0  0  0  0  0
   11.1178  -19.1118   27.3992 C   0  0  0  0  0  0  0  0  0  0  0  0
   11.2096  -18.2263   26.1794 C   0  0  0  0  0  0  0  0  0  0  0  0
    9.9316  -17.5289   25.8483 C   0  0  2  0  0  0  0  0  0  0  0  0
    9.9977  -16.6980   24.6799 N   0  0  0  0  0  0  0  0  0  0  0  0
    9.5442  -16.7192   27.0351 C   0  0  0  0  0  0  0  0  0  0  0  0
    9.4472  -15.3495   26.8753 O   0  0  0  0  0  0  0  0  0  0  0  0
    9.3025  -17.2101   28.1645 O   0  0  0  0  0  0  0  0  0  0  0  0
  2  1  1  6
  2  3  1  0
  4  3  1  0
  5  4  1  0
  6  5  2  0
  7  8  2  0
  7  2  1  0
  9  5  1  0
 10  7  1  0
 11 10  1  0
 11 12  1  6
 13 17  1  0
 13 12  1  0
 14 13  2  0
 15 14  1  0
 15 16  1  0
 16 17  2  0
 18 11  1  0
 18 19  2  0
 21 20  1  0
 21 22  2  0
 23 24  1  0
 23 21  1  0
 25 26  1  0
 25 24  1  0
 27 26  1  1
 27 28  1  0
 27 29  1  0
 28 18  1  0
 29 30  1  0
 31 29  2  0
M  END
$$$$
