EHR.pdb
     RDKit          3D

 31 31  0  0  1  0  0  0  0  0999 V2000
    8.4378  -19.6220   21.4142 N   0  0  0  0  0  0  0  0  0  0  0  0
    7.4303  -18.9420   22.2535 C   0  0  1  0  0  0  0  0  0  0  0  0
    7.1717  -19.8494   23.4210 C   0  0  0  0  0  0  0  0  0  0  0  0
    5.6977  -20.0295   23.6463 C   0  0  0  0  0  0  0  0  0  0  0  0
    5.2764  -21.4252   23.3562 C   0  0  0  0  0  0  0  0  0  0  0  0
    4.0923  -21.8145   23.4160 O   0  0  0  0  0  0  0  0  0  0  0  0
    8.0261  -17.6684   22.7627 C   0  0  0  0  0  0  0  0  0  0  0  0
    9.1835  -17.6527   23.2276 O   0  0  0  0  0  0  0  0  0  0  0  0
    6.2237  -22.3980   22.9902 O   0  0  0  0  0  0  0  0  0  0  0  0
    7.2654  -16.4407   22.7206 N   0  0  0  0  0  0  0  0  0  0  0  0
    7.8784  -15.2486   23.1823 C   0  0  1  0  0  0  0  0  0  0  0  0
    7.0841  -14.0083   22.7299 C   0  0  0  0  0  0  0  0  0  0  0  0
    7.3931  -13.8197   21.2919 C   0  0  0  0  0  0  0  0  0  0  0  0
    7.9579  -12.6990   20.6954 C   0  0  0  0  0  0  0  0  0  0  0  0
    8.0791  -12.9037   19.3772 N   0  0  0  0  0  0  0  0  0  0  0  0
    7.6014  -14.1320   19.1323 C   0  0  0  0  0  0  0  0  0  0  0  0
    7.1847  -14.6873   20.2975 N   0  0  0  0  0  0  0  0  0  0  0  0
    8.0571  -15.1152   24.6263 C   0  0  0  0  0  0  0  0  0  0  0  0
    7.0281  -15.3837   25.3340 O   0  0  0  0  0  0  0  0  0  0  0  0
   13.0539  -19.2579   30.0373 N   0  0  0  0  0  0  0  0  0  0  0  0
   12.1972  -18.5357   30.9006 C   0  0  0  0  0  0  0  0  0  0  0  0
   12.1048  -18.8017   32.1626 N   0  0  0  0  0  0  0  0  0  0  0  0
   11.3924  -17.4638   30.3704 N   0  0  0  0  0  0  0  0  0  0  0  0
   11.4373  -17.1485   28.9671 C   0  0  0  0  0  0  0  0  0  0  0  0
   10.4574  -16.0238   28.6601 C   0  0  0  0  0  0  0  0  0  0  0  0
   10.4129  -15.8058   27.1664 C   0  0  0  0  0  0  0  0  0  0  0  0
    9.3137  -14.8961   26.7267 C   0  0  2  0  0  0  0  0  0  0  0  0
    9.2169  -14.7311   25.3043 N   0  0  0  0  0  0  0  0  0  0  0  0
    9.5336  -13.5795   27.3844 C   0  0  0  0  0  0  0  0  0  0  0  0
    9.7568  -12.4839   26.5714 O   0  0  0  0  0  0  0  0  0  0  0  0
    9.5270  -13.4123   28.6281 O   0  0  0  0  0  0  0  0  0  0  0  0
  2  1  1  6
  2  3  1  0
  4  3  1  0
  5  4  1  0
  6  5  2  0
  7  8  2  0
  7  2  1  0
  9  5  1  0
 10  7  1  0
 11 10  1  0
 11 12  1  1
 13 17  1  0
 13 12  1  0
 14 13  2  0
 15 14  1  0
 15 16  1  0
 16 17  2  0
 18 11  1  0
 18 19  2  0
 21 20  1  0
 21 22  2  0
 23 24  1  0
 23 21  1  0
 25 26  1  0
 25 24  1  0
 27 26  1  6
 27 28  1  0
 27 29  1  0
 28 18  1  0
 29 30  1  0
 31 29  2  0
M  END
$$$$
