YQY.pdb
     RDKit          3D

 34 35  0  0  1  0  0  0  0  0999 V2000
    6.7742  -12.2607   16.5851 O   0  0  0  0  0  0  0  0  0  0  0  0
    7.0618  -12.9548   17.7716 C   0  0  0  0  0  0  0  0  0  0  0  0
    6.0876  -13.3573   18.6472 C   0  0  0  0  0  0  0  0  0  0  0  0
    6.3562  -14.0392   19.8151 C   0  0  0  0  0  0  0  0  0  0  0  0
    7.6691  -14.3247   20.1070 C   0  0  0  0  0  0  0  0  0  0  0  0
    8.0273  -15.0591   21.3536 C   0  0  0  0  0  0  0  0  0  0  0  0
    7.8962  -16.5362   21.0605 C   0  0  2  0  0  0  0  0  0  0  0  0
    6.5009  -16.8878   21.0063 N   0  0  0  0  0  0  0  0  0  0  0  0
    8.6435  -17.3793   22.0143 C   0  0  0  0  0  0  0  0  0  0  0  0
    8.0353  -17.9332   22.9587 O   0  0  0  0  0  0  0  0  0  0  0  0
    8.6677  -13.9231   19.2290 C   0  0  0  0  0  0  0  0  0  0  0  0
    8.3733  -13.2450   18.0720 C   0  0  0  0  0  0  0  0  0  0  0  0
   12.4834  -22.2919   20.9727 N   0  0  0  0  0  0  0  0  0  0  0  0
   13.1426  -21.3446   21.7920 C   0  0  0  0  0  0  0  0  0  0  0  0
   14.3916  -21.3220   21.7404 O   0  0  0  0  0  0  0  0  0  0  0  0
   12.3998  -20.4354   22.6560 C   0  0  0  0  0  0  0  0  0  0  0  0
   11.6075  -19.4321   21.8893 C   0  0  0  0  0  0  0  0  0  0  0  0
   10.8616  -18.4293   22.6824 C   0  0  2  0  0  0  0  0  0  0  0  0
   10.0287  -17.5654   21.8720 N   0  0  0  0  0  0  0  0  0  0  0  0
   11.8454  -17.6451   23.5120 C   0  0  0  0  0  0  0  0  0  0  0  0
   12.9876  -18.0990   23.8216 O   0  0  0  0  0  0  0  0  0  0  0  0
   10.4918  -14.9026   31.5173 O   0  0  0  0  0  0  0  0  0  0  0  0
   10.4202  -15.1698   30.1546 C   0  0  0  0  0  0  0  0  0  0  0  0
   10.4688  -16.4807   29.6979 C   0  0  0  0  0  0  0  0  0  0  0  0
   10.3973  -16.7370   28.3466 C   0  0  0  0  0  0  0  0  0  0  0  0
   10.2783  -15.6981   27.4503 C   0  0  0  0  0  0  0  0  0  0  0  0
   10.2136  -15.9953   26.0155 C   0  0  0  0  0  0  0  0  0  0  0  0
   11.5384  -15.9442   25.3375 C   0  0  2  0  0  0  0  0  0  0  0  0
   11.4467  -16.3573   23.9434 N   0  0  0  0  0  0  0  0  0  0  0  0
   12.4871  -16.8406   26.0181 C   0  0  0  0  0  0  0  0  0  0  0  0
   13.4972  -16.3383   26.5752 O   0  0  0  0  0  0  0  0  0  0  0  0
   10.2275  -14.3688   27.8914 C   0  0  0  0  0  0  0  0  0  0  0  0
   10.3004  -14.1373   29.2448 C   0  0  0  0  0  0  0  0  0  0  0  0
   12.3669  -18.2164   26.1060 O   0  0  0  0  0  0  0  0  0  0  0  0
  2  1  1  0
  3  2  2  0
  4  3  1  0
  5 11  1  0
  5  4  2  0
  6  5  1  0
  7  6  1  0
  7  8  1  1
  9  7  1  0
  9 10  2  0
 11 12  2  0
 12  2  1  0
 13 14  1  0
 14 15  2  0
 16 17  1  0
 16 14  1  0
 18 17  1  6
 18 19  1  0
 18 20  1  0
 19  9  1  0
 20 29  1  0
 21 20  2  0
 23 22  1  0
 23 24  2  0
 25 24  1  0
 26 25  2  0
 27 26  1  0
 28 27  1  1
 28 30  1  0
 29 28  1  0
 30 31  2  0
 30 34  1  0
 32 33  2  0
 32 26  1  0
 33 23  1  0
M  END
$$$$
