YQY.pdb
     RDKit          3D

 34 35  0  0  1  0  0  0  0  0999 V2000
    7.4017  -12.7940   15.7197 O   0  0  0  0  0  0  0  0  0  0  0  0
    7.3528  -13.2312   17.0534 C   0  0  0  0  0  0  0  0  0  0  0  0
    8.0591  -12.6220   18.0573 C   0  0  0  0  0  0  0  0  0  0  0  0
    8.0201  -13.0409   19.3703 C   0  0  0  0  0  0  0  0  0  0  0  0
    7.2309  -14.1240   19.6778 C   0  0  0  0  0  0  0  0  0  0  0  0
    7.1445  -14.6274   21.0781 C   0  0  0  0  0  0  0  0  0  0  0  0
    8.4672  -15.2821   21.4046 C   0  0  2  0  0  0  0  0  0  0  0  0
    8.7139  -16.3475   20.4678 N   0  0  0  0  0  0  0  0  0  0  0  0
    8.5489  -15.7447   22.8040 C   0  0  0  0  0  0  0  0  0  0  0  0
    8.2046  -14.9759   23.7308 O   0  0  0  0  0  0  0  0  0  0  0  0
    6.5090  -14.7520   18.6707 C   0  0  0  0  0  0  0  0  0  0  0  0
    6.5654  -14.3147   17.3704 C   0  0  0  0  0  0  0  0  0  0  0  0
   14.1252  -18.6962   21.3952 N   0  0  0  0  0  0  0  0  0  0  0  0
   13.7962  -17.6161   22.2486 C   0  0  0  0  0  0  0  0  0  0  0  0
   14.4447  -16.5576   22.0993 O   0  0  0  0  0  0  0  0  0  0  0  0
   12.7481  -17.7311   23.2552 C   0  0  0  0  0  0  0  0  0  0  0  0
   11.4030  -17.3608   22.7298 C   0  0  0  0  0  0  0  0  0  0  0  0
   10.2855  -17.3725   23.7003 C   0  0  2  0  0  0  0  0  0  0  0  0
    9.0088  -17.0376   23.1046 N   0  0  0  0  0  0  0  0  0  0  0  0
   10.6318  -16.4522   24.8423 C   0  0  0  0  0  0  0  0  0  0  0  0
   10.7433  -15.1982   24.6951 O   0  0  0  0  0  0  0  0  0  0  0  0
    6.5513  -11.3420   26.8963 O   0  0  0  0  0  0  0  0  0  0  0  0
    7.0643  -12.6343   26.9185 C   0  0  0  0  0  0  0  0  0  0  0  0
    6.2802  -13.7026   26.5020 C   0  0  0  0  0  0  0  0  0  0  0  0
    6.7956  -14.9795   26.5270 C   0  0  0  0  0  0  0  0  0  0  0  0
    8.0834  -15.1978   26.9634 C   0  0  0  0  0  0  0  0  0  0  0  0
    8.6071  -16.5675   26.9899 C   0  0  0  0  0  0  0  0  0  0  0  0
   10.0651  -16.6410   27.2841 C   0  0  2  0  0  0  0  0  0  0  0  0
   10.8317  -17.0437   26.1125 N   0  0  0  0  0  0  0  0  0  0  0  0
   10.3141  -17.6226   28.3525 C   0  0  0  0  0  0  0  0  0  0  0  0
    9.8849  -17.3763   29.5093 O   0  0  0  0  0  0  0  0  0  0  0  0
    8.8903  -14.1331   27.3874 C   0  0  0  0  0  0  0  0  0  0  0  0
    8.3544  -12.8673   27.3535 C   0  0  0  0  0  0  0  0  0  0  0  0
   10.9901  -18.8201   28.1983 O   0  0  0  0  0  0  0  0  0  0  0  0
  2  1  1  0
  3  2  2  0
  4  3  1  0
  5 11  1  0
  5  4  2  0
  6  5  1  0
  7  6  1  0
  7  8  1  6
  9  7  1  0
  9 10  2  0
 11 12  2  0
 12  2  1  0
 13 14  1  0
 14 15  2  0
 16 17  1  0
 16 14  1  0
 18 17  1  6
 18 19  1  0
 18 20  1  0
 19  9  1  0
 20 29  1  0
 21 20  2  0
 23 22  1  0
 23 24  2  0
 25 24  1  0
 26 25  2  0
 27 26  1  0
 28 27  1  6
 28 30  1  0
 29 28  1  0
 30 31  2  0
 30 34  1  0
 32 33  2  0
 32 26  1  0
 33 23  1  0
M  END
$$$$
