YQY.pdb
     RDKit          3D

 34 35  0  0  1  0  0  0  0  0999 V2000
    7.3616  -14.4620   22.6963 O   0  0  0  0  0  0  0  0  0  0  0  0
    7.8454  -14.0700   21.4376 C   0  0  0  0  0  0  0  0  0  0  0  0
    7.1087  -14.1997   20.2894 C   0  0  0  0  0  0  0  0  0  0  0  0
    7.5714  -13.8190   19.0477 C   0  0  0  0  0  0  0  0  0  0  0  0
    8.8354  -13.2837   18.9675 C   0  0  0  0  0  0  0  0  0  0  0  0
    9.3952  -12.8520   17.6553 C   0  0  0  0  0  0  0  0  0  0  0  0
    9.6934  -14.1017   16.8589 C   0  0  2  0  0  0  0  0  0  0  0  0
    8.4708  -14.8321   16.6457 N   0  0  0  0  0  0  0  0  0  0  0  0
   10.7394  -14.9403   17.4766 C   0  0  0  0  0  0  0  0  0  0  0  0
   10.4568  -16.0981   17.8616 O   0  0  0  0  0  0  0  0  0  0  0  0
    9.5941  -13.1459   20.1228 C   0  0  0  0  0  0  0  0  0  0  0  0
    9.1096  -13.5332   21.3477 C   0  0  0  0  0  0  0  0  0  0  0  0
   16.3484  -13.9182   15.4308 N   0  0  0  0  0  0  0  0  0  0  0  0
   15.4907  -14.9650   15.0166 C   0  0  0  0  0  0  0  0  0  0  0  0
   15.8106  -15.5826   13.9776 O   0  0  0  0  0  0  0  0  0  0  0  0
   14.2895  -15.3094   15.7674 C   0  0  0  0  0  0  0  0  0  0  0  0
   14.3988  -14.9693   17.2147 C   0  0  0  0  0  0  0  0  0  0  0  0
   13.2017  -15.2221   18.0478 C   0  0  2  0  0  0  0  0  0  0  0  0
   12.0468  -14.4516   17.6362 N   0  0  0  0  0  0  0  0  0  0  0  0
   13.5592  -14.9722   19.4903 C   0  0  0  0  0  0  0  0  0  0  0  0
   13.4459  -13.8315   20.0311 O   0  0  0  0  0  0  0  0  0  0  0  0
    7.8004  -16.6033   23.0162 O   0  0  0  0  0  0  0  0  0  0  0  0
    9.1662  -16.7718   22.8171 C   0  0  0  0  0  0  0  0  0  0  0  0
    9.7286  -18.0403   22.8808 C   0  0  0  0  0  0  0  0  0  0  0  0
   11.0822  -18.1988   22.6825 C   0  0  0  0  0  0  0  0  0  0  0  0
   11.8765  -17.1043   22.4223 C   0  0  0  0  0  0  0  0  0  0  0  0
   13.3169  -17.2969   22.2239 C   0  0  0  0  0  0  0  0  0  0  0  0
   14.0111  -16.0897   21.6963 C   0  0  2  0  0  0  0  0  0  0  0  0
   14.0345  -16.0749   20.2397 N   0  0  0  0  0  0  0  0  0  0  0  0
   15.4024  -16.0592   22.1759 C   0  0  0  0  0  0  0  0  0  0  0  0
   15.6116  -15.9874   23.4145 O   0  0  0  0  0  0  0  0  0  0  0  0
   11.3280  -15.8164   22.3538 C   0  0  0  0  0  0  0  0  0  0  0  0
    9.9744  -15.6827   22.5550 C   0  0  0  0  0  0  0  0  0  0  0  0
   16.5279  -16.1058   21.3722 O   0  0  0  0  0  0  0  0  0  0  0  0
  2  1  1  0
  3  2  2  0
  4  3  1  0
  5 11  1  0
  5  4  2  0
  6  5  1  0
  7  6  1  0
  7  8  1  1
  9  7  1  0
  9 10  2  0
 11 12  2  0
 12  2  1  0
 13 14  1  0
 14 15  2  0
 16 17  1  0
 16 14  1  0
 18 17  1  6
 18 19  1  0
 18 20  1  0
 19  9  1  0
 20 29  1  0
 21 20  2  0
 23 22  1  0
 23 24  2  0
 25 24  1  0
 26 25  2  0
 27 26  1  0
 28 27  1  6
 28 30  1  0
 29 28  1  0
 30 31  2  0
 30 34  1  0
 32 33  2  0
 32 26  1  0
 33 23  1  0
M  END
$$$$
