YQY.pdb
     RDKit          3D

 34 35  0  0  1  0  0  0  0  0999 V2000
    8.2096  -12.5117   16.7933 O   0  0  0  0  0  0  0  0  0  0  0  0
    8.0602  -13.0353   18.0878 C   0  0  0  0  0  0  0  0  0  0  0  0
    9.0590  -13.7217   18.7274 C   0  0  0  0  0  0  0  0  0  0  0  0
    8.9256  -14.2408   19.9977 C   0  0  0  0  0  0  0  0  0  0  0  0
    7.7278  -14.0555   20.6468 C   0  0  0  0  0  0  0  0  0  0  0  0
    7.5184  -14.5914   22.0218 C   0  0  0  0  0  0  0  0  0  0  0  0
    7.3824  -16.0923   21.9051 C   0  0  2  0  0  0  0  0  0  0  0  0
    6.0232  -16.4208   21.5615 N   0  0  0  0  0  0  0  0  0  0  0  0
    7.8360  -16.8057   23.1152 C   0  0  0  0  0  0  0  0  0  0  0  0
    7.0289  -17.0132   24.0501 O   0  0  0  0  0  0  0  0  0  0  0  0
    6.7059  -13.3617   20.0113 C   0  0  0  0  0  0  0  0  0  0  0  0
    6.8645  -12.8546   18.7453 C   0  0  0  0  0  0  0  0  0  0  0  0
   11.4828  -21.4539   23.5961 N   0  0  0  0  0  0  0  0  0  0  0  0
   11.7315  -20.9388   24.8906 C   0  0  0  0  0  0  0  0  0  0  0  0
   12.2164  -21.7272   25.7312 O   0  0  0  0  0  0  0  0  0  0  0  0
   11.4372  -19.5517   25.2292 C   0  0  0  0  0  0  0  0  0  0  0  0
   10.8590  -18.7907   24.0852 C   0  0  0  0  0  0  0  0  0  0  0  0
    9.7695  -17.8407   24.4033 C   0  0  2  0  0  0  0  0  0  0  0  0
    9.1630  -17.2530   23.2270 N   0  0  0  0  0  0  0  0  0  0  0  0
   10.3062  -16.7918   25.3428 C   0  0  0  0  0  0  0  0  0  0  0  0
   11.1952  -15.9580   24.9945 O   0  0  0  0  0  0  0  0  0  0  0  0
    6.5123  -11.4684   24.8568 O   0  0  0  0  0  0  0  0  0  0  0  0
    7.1432  -12.3664   25.7107 C   0  0  0  0  0  0  0  0  0  0  0  0
    8.4674  -12.7237   25.4916 C   0  0  0  0  0  0  0  0  0  0  0  0
    9.0851  -13.6137   26.3420 C   0  0  0  0  0  0  0  0  0  0  0  0
    8.3933  -14.1485   27.4059 C   0  0  0  0  0  0  0  0  0  0  0  0
    9.0694  -15.1016   28.2922 C   0  0  0  0  0  0  0  0  0  0  0  0
   10.2185  -15.7982   27.6503 C   0  0  2  0  0  0  0  0  0  0  0  0
    9.7748  -16.7645   26.6543 N   0  0  0  0  0  0  0  0  0  0  0  0
   11.0027  -16.5177   28.6672 C   0  0  0  0  0  0  0  0  0  0  0  0
   11.0667  -17.7726   28.6024 O   0  0  0  0  0  0  0  0  0  0  0  0
    7.0567  -13.8004   27.6438 C   0  0  0  0  0  0  0  0  0  0  0  0
    6.4610  -12.9100   26.7818 C   0  0  0  0  0  0  0  0  0  0  0  0
   11.6941  -15.9279   29.7108 O   0  0  0  0  0  0  0  0  0  0  0  0
  2  1  1  0
  3  2  2  0
  4  3  1  0
  5 11  1  0
  5  4  2  0
  6  5  1  0
  7  6  1  0
  7  8  1  1
  9  7  1  0
  9 10  2  0
 11 12  2  0
 12  2  1  0
 13 14  1  0
 14 15  2  0
 16 17  1  0
 16 14  1  0
 18 17  1  6
 18 19  1  0
 18 20  1  0
 19  9  1  0
 20 29  1  0
 21 20  2  0
 23 22  1  0
 23 24  2  0
 25 24  1  0
 26 25  2  0
 27 26  1  0
 28 27  1  1
 28 30  1  0
 29 28  1  0
 30 31  2  0
 30 34  1  0
 32 33  2  0
 32 26  1  0
 33 23  1  0
M  END
$$$$
