YQY.pdb
     RDKit          3D

 34 35  0  0  1  0  0  0  0  0999 V2000
   10.3086  -23.5369   15.7468 O   0  0  0  0  0  0  0  0  0  0  0  0
   10.4577  -22.4915   16.6725 C   0  0  0  0  0  0  0  0  0  0  0  0
    9.4214  -21.6712   17.0344 C   0  0  0  0  0  0  0  0  0  0  0  0
    9.5540  -20.6415   17.9416 C   0  0  0  0  0  0  0  0  0  0  0  0
   10.7908  -20.4353   18.5058 C   0  0  0  0  0  0  0  0  0  0  0  0
   11.0016  -19.3392   19.4936 C   0  0  0  0  0  0  0  0  0  0  0  0
   10.5919  -18.0460   18.8267 C   0  0  2  0  0  0  0  0  0  0  0  0
   11.5627  -17.7023   17.8202 N   0  0  0  0  0  0  0  0  0  0  0  0
   10.3779  -16.9468   19.7884 C   0  0  0  0  0  0  0  0  0  0  0  0
   11.3640  -16.4067   20.3402 O   0  0  0  0  0  0  0  0  0  0  0  0
   11.8510  -21.2587   18.1488 C   0  0  0  0  0  0  0  0  0  0  0  0
   11.6922  -22.2776   17.2423 C   0  0  0  0  0  0  0  0  0  0  0  0
    8.5799  -12.5140   20.0030 N   0  0  0  0  0  0  0  0  0  0  0  0
    7.9537  -13.4073   19.1014 C   0  0  0  0  0  0  0  0  0  0  0  0
    8.2613  -13.3027   17.8940 O   0  0  0  0  0  0  0  0  0  0  0  0
    6.9945  -14.4052   19.5589 C   0  0  0  0  0  0  0  0  0  0  0  0
    7.3476  -14.9740   20.8908 C   0  0  0  0  0  0  0  0  0  0  0  0
    8.7300  -15.4780   21.0517 C   0  0  2  0  0  0  0  0  0  0  0  0
    9.0797  -16.5021   20.0895 N   0  0  0  0  0  0  0  0  0  0  0  0
    8.9047  -15.9560   22.4702 C   0  0  0  0  0  0  0  0  0  0  0  0
    8.6521  -17.1471   22.8222 O   0  0  0  0  0  0  0  0  0  0  0  0
   10.5227  -15.2357   31.1049 O   0  0  0  0  0  0  0  0  0  0  0  0
   10.3564  -14.9613   29.7519 C   0  0  0  0  0  0  0  0  0  0  0  0
   10.9181  -15.7988   28.7967 C   0  0  0  0  0  0  0  0  0  0  0  0
   10.7489  -15.5202   27.4586 C   0  0  0  0  0  0  0  0  0  0  0  0
   10.0258  -14.4152   27.0678 C   0  0  0  0  0  0  0  0  0  0  0  0
    9.8672  -14.1338   25.6371 C   0  0  0  0  0  0  0  0  0  0  0  0
    9.4604  -15.3232   24.8388 C   0  0  2  0  0  0  0  0  0  0  0  0
    9.3710  -15.0138   23.4179 N   0  0  0  0  0  0  0  0  0  0  0  0
    8.1422  -15.8025   25.2857 C   0  0  0  0  0  0  0  0  0  0  0  0
    7.1109  -15.2708   24.7991 O   0  0  0  0  0  0  0  0  0  0  0  0
    9.4512  -13.5582   28.0162 C   0  0  0  0  0  0  0  0  0  0  0  0
    9.6333  -13.8566   29.3461 C   0  0  0  0  0  0  0  0  0  0  0  0
    7.9272  -16.8086   26.2111 O   0  0  0  0  0  0  0  0  0  0  0  0
  2  1  1  0
  3  2  2  0
  4  3  1  0
  5 11  1  0
  5  4  2  0
  6  5  1  0
  7  6  1  0
  7  8  1  6
  9  7  1  0
  9 10  2  0
 11 12  2  0
 12  2  1  0
 13 14  1  0
 14 15  2  0
 16 17  1  0
 16 14  1  0
 18 17  1  1
 18 19  1  0
 18 20  1  0
 19  9  1  0
 20 29  1  0
 21 20  2  0
 23 22  1  0
 23 24  2  0
 25 24  1  0
 26 25  2  0
 27 26  1  0
 28 27  1  1
 28 30  1  0
 29 28  1  0
 30 31  2  0
 30 34  1  0
 32 33  2  0
 32 26  1  0
 33 23  1  0
M  END
$$$$
