YQY.pdb
     RDKit          3D

 34 35  0  0  1  0  0  0  0  0999 V2000
    9.4872  -12.8416   17.3637 O   0  0  0  0  0  0  0  0  0  0  0  0
    8.5931  -13.6136   18.1233 C   0  0  0  0  0  0  0  0  0  0  0  0
    8.1324  -14.8350   17.7063 C   0  0  0  0  0  0  0  0  0  0  0  0
    7.2548  -15.6029   18.4420 C   0  0  0  0  0  0  0  0  0  0  0  0
    6.8266  -15.1106   19.6523 C   0  0  0  0  0  0  0  0  0  0  0  0
    5.8778  -15.8909   20.4965 C   0  0  0  0  0  0  0  0  0  0  0  0
    6.3812  -15.8242   21.9203 C   0  0  2  0  0  0  0  0  0  0  0  0
    6.3605  -14.4557   22.3678 N   0  0  0  0  0  0  0  0  0  0  0  0
    7.7111  -16.4423   22.0886 C   0  0  0  0  0  0  0  0  0  0  0  0
    7.8241  -17.6888   22.0441 O   0  0  0  0  0  0  0  0  0  0  0  0
    7.2849  -13.8740   20.0883 C   0  0  0  0  0  0  0  0  0  0  0  0
    8.1590  -13.1288   19.3361 C   0  0  0  0  0  0  0  0  0  0  0  0
   13.1802  -13.9664   20.3589 N   0  0  0  0  0  0  0  0  0  0  0  0
   13.5253  -15.2112   20.9373 C   0  0  0  0  0  0  0  0  0  0  0  0
   14.6490  -15.6779   20.6498 O   0  0  0  0  0  0  0  0  0  0  0  0
   12.6133  -15.9170   21.8290 C   0  0  0  0  0  0  0  0  0  0  0  0
   11.2210  -15.3884   21.7636 C   0  0  0  0  0  0  0  0  0  0  0  0
   10.1948  -16.1250   22.5351 C   0  0  2  0  0  0  0  0  0  0  0  0
    8.8491  -15.6456   22.2978 N   0  0  0  0  0  0  0  0  0  0  0  0
   10.5615  -16.0710   23.9958 C   0  0  0  0  0  0  0  0  0  0  0  0
   11.5490  -15.4018   24.4245 O   0  0  0  0  0  0  0  0  0  0  0  0
    6.2619  -11.5813   25.8900 O   0  0  0  0  0  0  0  0  0  0  0  0
    6.8625  -12.8018   26.1786 C   0  0  0  0  0  0  0  0  0  0  0  0
    6.1430  -13.9821   26.0425 C   0  0  0  0  0  0  0  0  0  0  0  0
    6.7450  -15.1869   26.3304 C   0  0  0  0  0  0  0  0  0  0  0  0
    8.0555  -15.2225   26.7521 C   0  0  0  0  0  0  0  0  0  0  0  0
    8.6722  -16.5167   27.0618 C   0  0  0  0  0  0  0  0  0  0  0  0
    9.9509  -16.7547   26.3365 C   0  0  2  0  0  0  0  0  0  0  0  0
    9.7511  -16.8053   24.8942 N   0  0  0  0  0  0  0  0  0  0  0  0
   10.5397  -18.0352   26.7613 C   0  0  0  0  0  0  0  0  0  0  0  0
   10.6426  -18.9612   25.9158 O   0  0  0  0  0  0  0  0  0  0  0  0
    8.7982  -14.0426   26.8954 C   0  0  0  0  0  0  0  0  0  0  0  0
    8.1763  -12.8519   26.6021 C   0  0  0  0  0  0  0  0  0  0  0  0
   11.0036  -18.3207   28.0334 O   0  0  0  0  0  0  0  0  0  0  0  0
  2  1  1  0
  3  2  2  0
  4  3  1  0
  5 11  1  0
  5  4  2  0
  6  5  1  0
  7  6  1  0
  7  8  1  6
  9  7  1  0
  9 10  2  0
 11 12  2  0
 12  2  1  0
 13 14  1  0
 14 15  2  0
 16 17  1  0
 16 14  1  0
 18 17  1  6
 18 19  1  0
 18 20  1  0
 19  9  1  0
 20 29  1  0
 21 20  2  0
 23 22  1  0
 23 24  2  0
 25 24  1  0
 26 25  2  0
 27 26  1  0
 28 27  1  1
 28 30  1  0
 29 28  1  0
 30 31  2  0
 30 34  1  0
 32 33  2  0
 32 26  1  0
 33 23  1  0
M  END
$$$$
