YQY.pdb
     RDKit          3D

 34 35  0  0  1  0  0  0  0  0999 V2000
    6.4642  -12.5149   15.7468 O   0  0  0  0  0  0  0  0  0  0  0  0
    7.0466  -13.3882   16.6798 C   0  0  0  0  0  0  0  0  0  0  0  0
    7.6054  -14.5870   16.3214 C   0  0  0  0  0  0  0  0  0  0  0  0
    8.1802  -15.4535   17.2269 C   0  0  0  0  0  0  0  0  0  0  0  0
    8.1884  -15.0880   18.5523 C   0  0  0  0  0  0  0  0  0  0  0  0
    8.7942  -15.9794   19.5820 C   0  0  0  0  0  0  0  0  0  0  0  0
    8.1088  -17.3225   19.4755 C   0  0  2  0  0  0  0  0  0  0  0  0
    6.7124  -17.1695   19.7918 N   0  0  0  0  0  0  0  0  0  0  0  0
    8.7533  -18.3629   20.3008 C   0  0  0  0  0  0  0  0  0  0  0  0
    8.3218  -18.5933   21.4538 O   0  0  0  0  0  0  0  0  0  0  0  0
    7.6257  -13.8758   18.9309 C   0  0  0  0  0  0  0  0  0  0  0  0
    7.0593  -13.0306   18.0089 C   0  0  0  0  0  0  0  0  0  0  0  0
   12.6628  -21.9694   17.5819 N   0  0  0  0  0  0  0  0  0  0  0  0
   11.4447  -22.4650   18.1050 C   0  0  0  0  0  0  0  0  0  0  0  0
   10.9240  -23.4332   17.5093 O   0  0  0  0  0  0  0  0  0  0  0  0
   10.8253  -21.8750   19.2854 C   0  0  0  0  0  0  0  0  0  0  0  0
   11.6321  -20.7626   19.8630 C   0  0  0  0  0  0  0  0  0  0  0  0
   10.8875  -19.7144   20.5963 C   0  0  2  0  0  0  0  0  0  0  0  0
    9.8446  -19.0955   19.8050 N   0  0  0  0  0  0  0  0  0  0  0  0
   11.8735  -18.7011   21.1181 C   0  0  0  0  0  0  0  0  0  0  0  0
   12.8351  -18.2647   20.4170 O   0  0  0  0  0  0  0  0  0  0  0  0
   11.3431  -13.3155   18.2489 O   0  0  0  0  0  0  0  0  0  0  0  0
   11.5056  -13.9665   19.4669 C   0  0  0  0  0  0  0  0  0  0  0  0
   10.4255  -14.1149   20.3275 C   0  0  0  0  0  0  0  0  0  0  0  0
   10.5947  -14.7609   21.5320 C   0  0  0  0  0  0  0  0  0  0  0  0
   11.8300  -15.2581   21.8832 C   0  0  0  0  0  0  0  0  0  0  0  0
   11.9879  -15.9339   23.1753 C   0  0  0  0  0  0  0  0  0  0  0  0
   12.5974  -17.2883   23.0672 C   0  0  2  0  0  0  0  0  0  0  0  0
   11.6881  -18.2404   22.4435 N   0  0  0  0  0  0  0  0  0  0  0  0
   12.9404  -17.7942   24.4064 C   0  0  0  0  0  0  0  0  0  0  0  0
   13.8610  -17.2251   25.0481 O   0  0  0  0  0  0  0  0  0  0  0  0
   12.9320  -15.1185   21.0286 C   0  0  0  0  0  0  0  0  0  0  0  0
   12.7390  -14.4702   19.8314 C   0  0  0  0  0  0  0  0  0  0  0  0
   12.3283  -18.8609   25.0407 O   0  0  0  0  0  0  0  0  0  0  0  0
  2  1  1  0
  3  2  2  0
  4  3  1  0
  5 11  1  0
  5  4  2  0
  6  5  1  0
  7  6  1  0
  7  8  1  1
  9  7  1  0
  9 10  2  0
 11 12  2  0
 12  2  1  0
 13 14  1  0
 14 15  2  0
 16 17  1  0
 16 14  1  0
 18 17  1  6
 18 19  1  0
 18 20  1  0
 19  9  1  0
 20 29  1  0
 21 20  2  0
 23 22  1  0
 23 24  2  0
 25 24  1  0
 26 25  2  0
 27 26  1  0
 28 27  1  1
 28 30  1  0
 29 28  1  0
 30 31  2  0
 30 34  1  0
 32 33  2  0
 32 26  1  0
 33 23  1  0
M  END
$$$$
