YQY.pdb
     RDKit          3D

 34 35  0  0  1  0  0  0  0  0999 V2000
    7.4317  -11.8568   17.3489 O   0  0  0  0  0  0  0  0  0  0  0  0
    7.4881  -12.6076   18.5344 C   0  0  0  0  0  0  0  0  0  0  0  0
    6.5157  -13.5064   18.8871 C   0  0  0  0  0  0  0  0  0  0  0  0
    6.5587  -14.2496   20.0476 C   0  0  0  0  0  0  0  0  0  0  0  0
    7.6341  -14.0733   20.8860 C   0  0  0  0  0  0  0  0  0  0  0  0
    7.7413  -14.8458   22.1562 C   0  0  0  0  0  0  0  0  0  0  0  0
    8.6846  -15.9997   21.9043 C   0  0  2  0  0  0  0  0  0  0  0  0
    8.1901  -16.7860   20.8040 N   0  0  0  0  0  0  0  0  0  0  0  0
    8.9231  -16.8197   23.1084 C   0  0  0  0  0  0  0  0  0  0  0  0
    7.9488  -17.2371   23.7755 O   0  0  0  0  0  0  0  0  0  0  0  0
    8.6278  -13.1657   20.5420 C   0  0  0  0  0  0  0  0  0  0  0  0
    8.5609  -12.4377   19.3798 C   0  0  0  0  0  0  0  0  0  0  0  0
   12.0343  -21.0022   23.0370 N   0  0  0  0  0  0  0  0  0  0  0  0
   12.6702  -19.8226   22.5818 C   0  0  0  0  0  0  0  0  0  0  0  0
   13.3366  -19.9084   21.5274 O   0  0  0  0  0  0  0  0  0  0  0  0
   12.5530  -18.5639   23.3079 C   0  0  0  0  0  0  0  0  0  0  0  0
   11.7793  -18.7007   24.5748 C   0  0  0  0  0  0  0  0  0  0  0  0
   10.6075  -17.8109   24.7359 C   0  0  2  0  0  0  0  0  0  0  0  0
   10.2313  -17.1353   23.5117 N   0  0  0  0  0  0  0  0  0  0  0  0
   10.8935  -16.8375   25.8503 C   0  0  0  0  0  0  0  0  0  0  0  0
   11.7705  -15.9279   25.7500 O   0  0  0  0  0  0  0  0  0  0  0  0
    6.7732  -12.0123   24.9381 O   0  0  0  0  0  0  0  0  0  0  0  0
    7.3422  -12.8786   25.8652 C   0  0  0  0  0  0  0  0  0  0  0  0
    8.4466  -12.4784   26.6066 C   0  0  0  0  0  0  0  0  0  0  0  0
    9.0043  -13.3423   27.5229 C   0  0  0  0  0  0  0  0  0  0  0  0
    8.4702  -14.5986   27.7040 C   0  0  0  0  0  0  0  0  0  0  0  0
    9.0872  -15.5043   28.6788 C   0  0  0  0  0  0  0  0  0  0  0  0
   10.3555  -16.1197   28.1986 C   0  0  2  0  0  0  0  0  0  0  0  0
   10.1353  -16.9722   27.0378 N   0  0  0  0  0  0  0  0  0  0  0  0
   10.9502  -16.9433   29.2639 C   0  0  0  0  0  0  0  0  0  0  0  0
   11.0351  -18.1863   29.0884 O   0  0  0  0  0  0  0  0  0  0  0  0
    7.3562  -15.0208   26.9658 C   0  0  0  0  0  0  0  0  0  0  0  0
    6.8163  -14.1413   26.0570 C   0  0  0  0  0  0  0  0  0  0  0  0
   11.4381  -16.4657   30.4676 O   0  0  0  0  0  0  0  0  0  0  0  0
  2  1  1  0
  3  2  2  0
  4  3  1  0
  5 11  1  0
  5  4  2  0
  6  5  1  0
  7  6  1  0
  7  8  1  6
  9  7  1  0
  9 10  2  0
 11 12  2  0
 12  2  1  0
 13 14  1  0
 14 15  2  0
 16 17  1  0
 16 14  1  0
 18 17  1  6
 18 19  1  0
 18 20  1  0
 19  9  1  0
 20 29  1  0
 21 20  2  0
 23 22  1  0
 23 24  2  0
 25 24  1  0
 26 25  2  0
 27 26  1  0
 28 27  1  1
 28 30  1  0
 29 28  1  0
 30 31  2  0
 30 34  1  0
 32 33  2  0
 32 26  1  0
 33 23  1  0
M  END
$$$$
