YQY.pdb
     RDKit          3D

 34 35  0  0  1  0  0  0  0  0999 V2000
    7.0367  -11.4501   18.2197 O   0  0  0  0  0  0  0  0  0  0  0  0
    7.4460  -12.5097   19.0456 C   0  0  0  0  0  0  0  0  0  0  0  0
    8.6915  -12.5649   19.6145 C   0  0  0  0  0  0  0  0  0  0  0  0
    9.1060  -13.5989   20.4268 C   0  0  0  0  0  0  0  0  0  0  0  0
    8.2191  -14.6204   20.6724 C   0  0  0  0  0  0  0  0  0  0  0  0
    8.6047  -15.7680   21.5420 C   0  0  0  0  0  0  0  0  0  0  0  0
    9.3817  -16.7417   20.6858 C   0  0  2  0  0  0  0  0  0  0  0  0
    8.5671  -17.1482   19.5701 N   0  0  0  0  0  0  0  0  0  0  0  0
    9.8920  -17.8973   21.4494 C   0  0  0  0  0  0  0  0  0  0  0  0
    9.1418  -18.8768   21.6644 O   0  0  0  0  0  0  0  0  0  0  0  0
    6.9530  -14.5785   20.1027 C   0  0  0  0  0  0  0  0  0  0  0  0
    6.5649  -13.5368   19.2969 C   0  0  0  0  0  0  0  0  0  0  0  0
   15.0148  -20.5569   20.7885 N   0  0  0  0  0  0  0  0  0  0  0  0
   15.0367  -19.1554   20.9848 C   0  0  0  0  0  0  0  0  0  0  0  0
   15.9662  -18.5210   20.4401 O   0  0  0  0  0  0  0  0  0  0  0  0
   14.0213  -18.4812   21.7845 C   0  0  0  0  0  0  0  0  0  0  0  0
   13.0609  -19.4315   22.4145 C   0  0  0  0  0  0  0  0  0  0  0  0
   11.7688  -18.8674   22.8654 C   0  0  2  0  0  0  0  0  0  0  0  0
   11.2097  -17.9077   21.9364 N   0  0  0  0  0  0  0  0  0  0  0  0
   11.9561  -18.2769   24.2392 C   0  0  0  0  0  0  0  0  0  0  0  0
   12.8624  -17.4291   24.4970 O   0  0  0  0  0  0  0  0  0  0  0  0
    5.2452  -20.2601   25.3436 O   0  0  0  0  0  0  0  0  0  0  0  0
    6.3862  -19.5740   25.7448 C   0  0  0  0  0  0  0  0  0  0  0  0
    7.0074  -19.8962   26.9447 C   0  0  0  0  0  0  0  0  0  0  0  0
    8.1371  -19.2119   27.3350 C   0  0  0  0  0  0  0  0  0  0  0  0
    8.6499  -18.2115   26.5395 C   0  0  0  0  0  0  0  0  0  0  0  0
    9.8485  -17.4905   26.9808 C   0  0  0  0  0  0  0  0  0  0  0  0
   11.1209  -18.1684   26.6078 C   0  0  2  0  0  0  0  0  0  0  0  0
   11.0686  -18.7062   25.2548 N   0  0  0  0  0  0  0  0  0  0  0  0
   11.3875  -19.2825   27.5323 C   0  0  0  0  0  0  0  0  0  0  0  0
   11.3727  -20.4568   27.0809 O   0  0  0  0  0  0  0  0  0  0  0  0
    8.0377  -17.8718   25.3254 C   0  0  0  0  0  0  0  0  0  0  0  0
    6.9112  -18.5686   24.9564 C   0  0  0  0  0  0  0  0  0  0  0  0
   11.6615  -19.1548   28.8826 O   0  0  0  0  0  0  0  0  0  0  0  0
  2  1  1  0
  3  2  2  0
  4  3  1  0
  5 11  1  0
  5  4  2  0
  6  5  1  0
  7  6  1  0
  7  8  1  6
  9  7  1  0
  9 10  2  0
 11 12  2  0
 12  2  1  0
 13 14  1  0
 14 15  2  0
 16 17  1  0
 16 14  1  0
 18 17  1  6
 18 19  1  0
 18 20  1  0
 19  9  1  0
 20 29  1  0
 21 20  2  0
 23 22  1  0
 23 24  2  0
 25 24  1  0
 26 25  2  0
 27 26  1  0
 28 27  1  1
 28 30  1  0
 29 28  1  0
 30 31  2  0
 30 34  1  0
 32 33  2  0
 32 26  1  0
 33 23  1  0
M  END
$$$$
