AGD.pdb
     RDKit          3D

 18 17  0  0  1  0  0  0  0  0999 V2000
   18.9372  -15.1476  -16.3427 C   0  0  0  0  0  0  0  0  0  0  0  0
   17.7312  -14.2295  -16.4681 C   0  0  2  0  0  0  0  0  0  0  0  0
   17.5768  -13.7179  -17.8151 N   0  0  0  0  0  0  0  0  0  0  0  0
   17.9116  -13.1426  -15.4788 C   0  0  0  0  0  0  0  0  0  0  0  0
   18.0888  -13.4442  -14.2813 O   0  0  0  0  0  0  0  0  0  0  0  0
   17.8858  -11.7807  -15.8612 N   0  0  0  0  0  0  0  0  0  0  0  0
   17.9532  -10.7306  -14.8544 C   0  0  0  0  0  0  0  0  0  0  0  0
   17.9113   -9.3916  -15.4995 C   0  0  0  0  0  0  0  0  0  0  0  0
   18.0225   -9.2937  -16.7521 O   0  0  0  0  0  0  0  0  0  0  0  0
   17.7490   -8.1964  -14.7667 N   0  0  0  0  0  0  0  0  0  0  0  0
   17.6761   -6.8976  -15.4434 C   0  0  1  0  0  0  0  0  0  0  0  0
   16.7381   -5.9809  -14.7491 C   0  0  0  0  0  0  0  0  0  0  0  0
   16.6756   -4.6676  -15.3896 C   0  0  0  0  0  0  0  0  0  0  0  0
   17.0766   -3.6318  -14.8278 O   0  0  0  0  0  0  0  0  0  0  0  0
   19.0515   -6.3065  -15.4064 C   0  0  0  0  0  0  0  0  0  0  0  0
   20.0491   -6.9863  -14.6791 O   0  0  0  0  0  0  0  0  0  0  0  0
   16.1409   -4.5799  -16.6894 O   0  0  0  0  0  0  0  0  0  0  0  0
   19.3835   -5.2618  -15.9668 O   0  0  0  0  0  0  0  0  0  0  0  0
  2  1  1  6
  2  3  1  0
  4  5  2  0
  4  2  1  0
  6  4  1  0
  7  6  1  0
  8  7  1  0
  8 10  1  0
  9  8  2  0
 11 12  1  1
 11 10  1  0
 12 13  1  0
 13 14  2  0
 13 17  1  0
 15 11  1  0
 16 15  1  0
 18 15  2  0
M  END
$$$$
