AGD.pdb
     RDKit          3D

 18 17  0  0  1  0  0  0  0  0999 V2000
   17.6705  -14.2704  -16.6624 C   0  0  0  0  0  0  0  0  0  0  0  0
   17.6548  -13.1362  -15.6493 C   0  0  2  0  0  0  0  0  0  0  0  0
   16.4682  -12.3137  -15.7743 N   0  0  0  0  0  0  0  0  0  0  0  0
   18.8958  -12.3554  -15.8563 C   0  0  0  0  0  0  0  0  0  0  0  0
   19.9408  -12.7265  -15.2847 O   0  0  0  0  0  0  0  0  0  0  0  0
   18.9194  -11.2061  -16.6811 N   0  0  0  0  0  0  0  0  0  0  0  0
   20.1336  -10.4116  -16.8043 C   0  0  0  0  0  0  0  0  0  0  0  0
   20.1076   -9.2746  -15.8465 C   0  0  0  0  0  0  0  0  0  0  0  0
   19.1273   -9.1331  -15.0655 O   0  0  0  0  0  0  0  0  0  0  0  0
   21.1469   -8.3235  -15.7629 N   0  0  0  0  0  0  0  0  0  0  0  0
   21.0618   -7.1884  -14.8385 C   0  0  1  0  0  0  0  0  0  0  0  0
   22.4069   -6.6415  -14.5324 C   0  0  0  0  0  0  0  0  0  0  0  0
   22.3366   -5.4314  -13.7143 C   0  0  0  0  0  0  0  0  0  0  0  0
   22.1272   -5.4666  -12.4879 O   0  0  0  0  0  0  0  0  0  0  0  0
   20.2489   -6.1301  -15.5179 C   0  0  0  0  0  0  0  0  0  0  0  0
   19.5162   -5.2344  -14.7135 O   0  0  0  0  0  0  0  0  0  0  0  0
   22.5133   -4.1843  -14.3444 O   0  0  0  0  0  0  0  0  0  0  0  0
   20.1686   -5.9790  -16.7371 O   0  0  0  0  0  0  0  0  0  0  0  0
  2  1  1  6
  2  3  1  0
  4  5  2  0
  4  2  1  0
  6  4  1  0
  7  6  1  0
  8  7  1  0
  8 10  1  0
  9  8  2  0
 11 12  1  6
 11 10  1  0
 12 13  1  0
 13 14  2  0
 13 17  1  0
 15 11  1  0
 16 15  1  0
 18 15  2  0
M  END
$$$$
