AGD.pdb
     RDKit          3D

 18 17  0  0  1  0  0  0  0  0999 V2000
   18.3183  -10.3762  -17.2755 C   0  0  0  0  0  0  0  0  0  0  0  0
   19.6105   -9.7407  -16.7863 C   0  0  2  0  0  0  0  0  0  0  0  0
   20.7786  -10.3646  -17.3749 N   0  0  0  0  0  0  0  0  0  0  0  0
   19.6106   -9.8448  -15.3093 C   0  0  0  0  0  0  0  0  0  0  0  0
   19.5218  -10.9744  -14.7872 O   0  0  0  0  0  0  0  0  0  0  0  0
   19.7071   -8.6985  -14.4855 N   0  0  0  0  0  0  0  0  0  0  0  0
   20.6804   -8.6478  -13.4034 C   0  0  0  0  0  0  0  0  0  0  0  0
   21.4383   -7.3694  -13.4485 C   0  0  0  0  0  0  0  0  0  0  0  0
   22.2336   -7.0771  -12.5142 O   0  0  0  0  0  0  0  0  0  0  0  0
   21.3123   -6.4446  -14.5071 N   0  0  0  0  0  0  0  0  0  0  0  0
   22.0851   -5.1986  -14.5197 C   0  0  1  0  0  0  0  0  0  0  0  0
   22.5905   -4.8925  -15.8811 C   0  0  0  0  0  0  0  0  0  0  0  0
   23.6722   -5.7912  -16.2822 C   0  0  0  0  0  0  0  0  0  0  0  0
   24.3904   -6.3817  -15.4546 O   0  0  0  0  0  0  0  0  0  0  0  0
   21.1593   -4.1042  -14.0866 C   0  0  0  0  0  0  0  0  0  0  0  0
   21.7025   -2.8242  -13.8575 O   0  0  0  0  0  0  0  0  0  0  0  0
   23.9038   -5.9906  -17.6570 O   0  0  0  0  0  0  0  0  0  0  0  0
   19.9477   -4.2357  -13.9123 O   0  0  0  0  0  0  0  0  0  0  0  0
  2  1  1  6
  2  3  1  0
  4  5  2  0
  4  2  1  0
  6  4  1  0
  7  6  1  0
  8  7  1  0
  8 10  1  0
  9  8  2  0
 11 12  1  6
 11 10  1  0
 12 13  1  0
 13 14  2  0
 13 17  1  0
 15 11  1  0
 16 15  1  0
 18 15  2  0
M  END
$$$$
