AGD.pdb
     RDKit          3D

 18 17  0  0  1  0  0  0  0  0999 V2000
   11.2195   -9.6504   -8.5843 C   0  0  0  0  0  0  0  0  0  0  0  0
   12.4580   -9.7821   -9.4571 C   0  0  2  0  0  0  0  0  0  0  0  0
   13.1697  -11.0191   -9.2057 N   0  0  0  0  0  0  0  0  0  0  0  0
   13.3006   -8.5934   -9.1929 C   0  0  0  0  0  0  0  0  0  0  0  0
   12.8415   -7.4627   -9.4521 O   0  0  0  0  0  0  0  0  0  0  0  0
   14.6049   -8.7136   -8.6582 N   0  0  0  0  0  0  0  0  0  0  0  0
   15.4308   -7.5314   -8.4557 C   0  0  0  0  0  0  0  0  0  0  0  0
   16.6284   -7.5797   -9.3356 C   0  0  0  0  0  0  0  0  0  0  0  0
   17.5263   -8.4408   -9.1282 O   0  0  0  0  0  0  0  0  0  0  0  0
   16.8172   -6.6922  -10.4166 N   0  0  0  0  0  0  0  0  0  0  0  0
   17.8172   -6.9647  -11.4539 C   0  0  1  0  0  0  0  0  0  0  0  0
   17.6463   -8.3250  -12.0221 C   0  0  0  0  0  0  0  0  0  0  0  0
   18.5990   -8.5964  -13.0980 C   0  0  0  0  0  0  0  0  0  0  0  0
   19.5655   -7.8495  -13.3373 O   0  0  0  0  0  0  0  0  0  0  0  0
   17.6094   -5.9540  -12.5392 C   0  0  0  0  0  0  0  0  0  0  0  0
   18.7446   -5.4447  -13.2009 O   0  0  0  0  0  0  0  0  0  0  0  0
   18.4090   -9.7467  -13.8879 O   0  0  0  0  0  0  0  0  0  0  0  0
   16.5132   -5.5277  -12.9028 O   0  0  0  0  0  0  0  0  0  0  0  0
  2  1  1  1
  2  3  1  0
  4  5  2  0
  4  2  1  0
  6  4  1  0
  7  6  1  0
  8  7  1  0
  8 10  1  0
  9  8  2  0
 11 12  1  6
 11 10  1  0
 12 13  1  0
 13 14  2  0
 13 17  1  0
 15 11  1  0
 16 15  1  0
 18 15  2  0
M  END
$$$$
