AGD.pdb
     RDKit          3D

 18 17  0  0  1  0  0  0  0  0999 V2000
   19.9972  -12.9946  -17.5324 C   0  0  0  0  0  0  0  0  0  0  0  0
   20.8139  -11.7254  -17.7202 C   0  0  2  0  0  0  0  0  0  0  0  0
   22.2369  -11.9742  -17.6052 N   0  0  0  0  0  0  0  0  0  0  0  0
   20.3372  -10.7522  -16.7112 C   0  0  0  0  0  0  0  0  0  0  0  0
   19.1452  -10.3855  -16.7471 O   0  0  0  0  0  0  0  0  0  0  0  0
   21.1994  -10.2335  -15.7166 N   0  0  0  0  0  0  0  0  0  0  0  0
   20.6841   -9.3451  -14.6841 C   0  0  0  0  0  0  0  0  0  0  0  0
   21.1335   -7.9494  -14.9306 C   0  0  0  0  0  0  0  0  0  0  0  0
   22.0534   -7.7232  -15.7634 O   0  0  0  0  0  0  0  0  0  0  0  0
   20.5710   -6.8382  -14.2668 N   0  0  0  0  0  0  0  0  0  0  0  0
   21.0107   -5.4728  -14.5704 C   0  0  1  0  0  0  0  0  0  0  0  0
   19.8901   -4.5073  -14.4507 C   0  0  0  0  0  0  0  0  0  0  0  0
   20.3306   -3.1256  -14.6394 C   0  0  0  0  0  0  0  0  0  0  0  0
   21.1849   -2.8077  -15.4870 O   0  0  0  0  0  0  0  0  0  0  0  0
   22.0668   -5.1197  -13.5690 C   0  0  0  0  0  0  0  0  0  0  0  0
   22.9609   -4.0768  -13.8839 O   0  0  0  0  0  0  0  0  0  0  0  0
   19.7630   -2.1237  -13.8286 O   0  0  0  0  0  0  0  0  0  0  0  0
   22.2177   -5.6747  -12.4806 O   0  0  0  0  0  0  0  0  0  0  0  0
  2  1  1  1
  2  3  1  0
  4  5  2  0
  4  2  1  0
  6  4  1  0
  7  6  1  0
  8  7  1  0
  8 10  1  0
  9  8  2  0
 11 12  1  1
 11 10  1  0
 12 13  1  0
 13 14  2  0
 13 17  1  0
 15 11  1  0
 16 15  1  0
 18 15  2  0
M  END
$$$$
