AGD.pdb
     RDKit          3D

 18 17  0  0  1  0  0  0  0  0999 V2000
   17.9082  -12.2622  -16.5580 C   0  0  0  0  0  0  0  0  0  0  0  0
   19.3324  -11.7289  -16.5372 C   0  0  2  0  0  0  0  0  0  0  0  0
   20.0779  -12.2176  -15.3946 N   0  0  0  0  0  0  0  0  0  0  0  0
   19.2400  -10.2512  -16.5490 C   0  0  0  0  0  0  0  0  0  0  0  0
   18.7452   -9.6886  -17.5466 O   0  0  0  0  0  0  0  0  0  0  0  0
   19.6991   -9.4712  -15.4615 N   0  0  0  0  0  0  0  0  0  0  0  0
   19.4442   -8.0380  -15.4223 C   0  0  0  0  0  0  0  0  0  0  0  0
   20.5318   -7.3387  -14.6882 C   0  0  0  0  0  0  0  0  0  0  0  0
   20.9507   -7.8037  -13.5931 O   0  0  0  0  0  0  0  0  0  0  0  0
   21.1348   -6.1547  -15.1640 N   0  0  0  0  0  0  0  0  0  0  0  0
   22.2924   -5.5678  -14.4817 C   0  0  1  0  0  0  0  0  0  0  0  0
   23.0729   -4.6986  -15.3970 C   0  0  0  0  0  0  0  0  0  0  0  0
   23.5755   -5.4319  -16.5582 C   0  0  0  0  0  0  0  0  0  0  0  0
   24.0681   -6.5712  -16.4656 O   0  0  0  0  0  0  0  0  0  0  0  0
   21.7617   -4.7362  -13.3550 C   0  0  0  0  0  0  0  0  0  0  0  0
   22.6714   -4.2733  -12.3833 O   0  0  0  0  0  0  0  0  0  0  0  0
   23.4958   -4.8199  -17.8241 O   0  0  0  0  0  0  0  0  0  0  0  0
   20.5805   -4.4218  -13.2085 O   0  0  0  0  0  0  0  0  0  0  0  0
  2  1  1  1
  2  3  1  0
  4  5  2  0
  4  2  1  0
  6  4  1  0
  7  6  1  0
  8  7  1  0
  8 10  1  0
  9  8  2  0
 11 12  1  6
 11 10  1  0
 12 13  1  0
 13 14  2  0
 13 17  1  0
 15 11  1  0
 16 15  1  0
 18 15  2  0
M  END
$$$$
