AGD.pdb
     RDKit          3D

 18 17  0  0  1  0  0  0  0  0999 V2000
   21.0839  -11.5061  -18.1602 C   0  0  0  0  0  0  0  0  0  0  0  0
   20.0210  -10.5797  -17.5901 C   0  0  2  0  0  0  0  0  0  0  0  0
   19.8788   -9.3696  -18.3747 N   0  0  0  0  0  0  0  0  0  0  0  0
   20.4059  -10.2912  -16.1897 C   0  0  0  0  0  0  0  0  0  0  0  0
   20.5330  -11.2436  -15.3938 O   0  0  0  0  0  0  0  0  0  0  0  0
   20.6291   -8.9685  -15.7399 N   0  0  0  0  0  0  0  0  0  0  0  0
   20.9848   -8.7119  -14.3512 C   0  0  0  0  0  0  0  0  0  0  0  0
   21.2459   -7.2630  -14.1431 C   0  0  0  0  0  0  0  0  0  0  0  0
   21.4787   -6.8268  -12.9828 O   0  0  0  0  0  0  0  0  0  0  0  0
   21.2480   -6.3285  -15.2007 N   0  0  0  0  0  0  0  0  0  0  0  0
   21.5845   -4.9207  -14.9662 C   0  0  1  0  0  0  0  0  0  0  0  0
   22.2136   -4.3110  -16.1640 C   0  0  0  0  0  0  0  0  0  0  0  0
   23.5355   -4.8730  -16.4385 C   0  0  0  0  0  0  0  0  0  0  0  0
   24.2499   -5.3644  -15.5456 O   0  0  0  0  0  0  0  0  0  0  0  0
   20.3014   -4.2064  -14.6731 C   0  0  0  0  0  0  0  0  0  0  0  0
   20.3679   -2.8609  -14.2594 O   0  0  0  0  0  0  0  0  0  0  0  0
   24.0106   -4.8537  -17.7641 O   0  0  0  0  0  0  0  0  0  0  0  0
   19.1805   -4.7072  -14.7656 O   0  0  0  0  0  0  0  0  0  0  0  0
  2  1  1  6
  2  3  1  0
  4  5  2  0
  4  2  1  0
  6  4  1  0
  7  6  1  0
  8  7  1  0
  8 10  1  0
  9  8  2  0
 11 12  1  6
 11 10  1  0
 12 13  1  0
 13 14  2  0
 13 17  1  0
 15 11  1  0
 16 15  1  0
 18 15  2  0
M  END
$$$$
