AGD.pdb
     RDKit          3D

 18 17  0  0  1  0  0  0  0  0999 V2000
   16.6128  -13.9833  -16.6777 C   0  0  0  0  0  0  0  0  0  0  0  0
   18.0346  -13.7898  -16.1734 C   0  0  2  0  0  0  0  0  0  0  0  0
   18.0976  -13.7624  -14.7259 N   0  0  0  0  0  0  0  0  0  0  0  0
   18.5387  -12.5341  -16.7748 C   0  0  0  0  0  0  0  0  0  0  0  0
   18.6986  -12.4826  -18.0111 O   0  0  0  0  0  0  0  0  0  0  0  0
   18.8411  -11.4019  -15.9821 N   0  0  0  0  0  0  0  0  0  0  0  0
   19.2188  -10.1426  -16.6085 C   0  0  0  0  0  0  0  0  0  0  0  0
   19.4755   -9.1063  -15.5736 C   0  0  0  0  0  0  0  0  0  0  0  0
   18.7911   -9.0930  -14.5143 O   0  0  0  0  0  0  0  0  0  0  0  0
   20.4689   -8.1142  -15.7175 N   0  0  0  0  0  0  0  0  0  0  0  0
   20.6924   -7.1098  -14.6728 C   0  0  1  0  0  0  0  0  0  0  0  0
   22.0177   -6.4598  -14.8259 C   0  0  0  0  0  0  0  0  0  0  0  0
   22.2913   -5.5065  -13.7511 C   0  0  0  0  0  0  0  0  0  0  0  0
   21.9983   -5.7378  -12.5637 O   0  0  0  0  0  0  0  0  0  0  0  0
   19.6216   -6.0740  -14.8245 C   0  0  0  0  0  0  0  0  0  0  0  0
   19.0502   -5.5311  -13.6562 O   0  0  0  0  0  0  0  0  0  0  0  0
   22.9091   -4.2843  -14.0796 O   0  0  0  0  0  0  0  0  0  0  0  0
   19.1959   -5.6548  -15.9009 O   0  0  0  0  0  0  0  0  0  0  0  0
  2  1  1  1
  2  3  1  0
  4  5  2  0
  4  2  1  0
  6  4  1  0
  7  6  1  0
  8  7  1  0
  8 10  1  0
  9  8  2  0
 11 12  1  6
 11 10  1  0
 12 13  1  0
 13 14  2  0
 13 17  1  0
 15 11  1  0
 16 15  1  0
 18 15  2  0
M  END
$$$$
