AGD.pdb
     RDKit          3D

 18 17  0  0  1  0  0  0  0  0999 V2000
   12.6310   -9.5690   -9.8809 C   0  0  0  0  0  0  0  0  0  0  0  0
   13.9824   -9.6576   -9.1888 C   0  0  2  0  0  0  0  0  0  0  0  0
   14.2427   -8.4999   -8.3570 N   0  0  0  0  0  0  0  0  0  0  0  0
   15.0015   -9.8187  -10.2508 C   0  0  0  0  0  0  0  0  0  0  0  0
   14.9123  -10.7923  -11.0257 O   0  0  0  0  0  0  0  0  0  0  0  0
   16.0660   -8.8989  -10.4020 N   0  0  0  0  0  0  0  0  0  0  0  0
   17.0921   -9.1181  -11.4119 C   0  0  0  0  0  0  0  0  0  0  0  0
   17.9455   -7.9088  -11.5534 C   0  0  0  0  0  0  0  0  0  0  0  0
   17.7152   -6.8907  -10.8455 O   0  0  0  0  0  0  0  0  0  0  0  0
   19.0258   -7.8391  -12.4590 N   0  0  0  0  0  0  0  0  0  0  0  0
   19.8828   -6.6511  -12.5250 C   0  0  1  0  0  0  0  0  0  0  0  0
   21.0973   -6.9081  -13.3382 C   0  0  0  0  0  0  0  0  0  0  0  0
   22.0264   -5.7791  -13.3128 C   0  0  0  0  0  0  0  0  0  0  0  0
   21.6783   -4.6363  -12.9633 O   0  0  0  0  0  0  0  0  0  0  0  0
   19.0805   -5.5677  -13.1769 C   0  0  0  0  0  0  0  0  0  0  0  0
   19.2277   -4.2504  -12.6982 O   0  0  0  0  0  0  0  0  0  0  0  0
   23.3624   -6.0009  -13.6995 O   0  0  0  0  0  0  0  0  0  0  0  0
   18.2934   -5.7385  -14.1079 O   0  0  0  0  0  0  0  0  0  0  0  0
  2  1  1  6
  2  3  1  0
  4  5  2  0
  4  2  1  0
  6  4  1  0
  7  6  1  0
  8  7  1  0
  8 10  1  0
  9  8  2  0
 11 12  1  6
 11 10  1  0
 12 13  1  0
 13 14  2  0
 13 17  1  0
 15 11  1  0
 16 15  1  0
 18 15  2  0
M  END
$$$$
