AGD.pdb
     RDKit          3D

 18 17  0  0  1  0  0  0  0  0999 V2000
   17.8179  -14.0352  -16.4222 C   0  0  0  0  0  0  0  0  0  0  0  0
   18.9360  -13.1187  -16.8943 C   0  0  2  0  0  0  0  0  0  0  0  0
   20.1061  -13.2082  -16.0440 N   0  0  0  0  0  0  0  0  0  0  0  0
   18.3817  -11.7462  -16.9330 C   0  0  0  0  0  0  0  0  0  0  0  0
   17.4500  -11.4972  -17.7246 O   0  0  0  0  0  0  0  0  0  0  0  0
   18.8841  -10.7202  -16.0983 N   0  0  0  0  0  0  0  0  0  0  0  0
   18.2818   -9.3944  -16.1153 C   0  0  0  0  0  0  0  0  0  0  0  0
   18.9668   -8.5022  -15.1430 C   0  0  0  0  0  0  0  0  0  0  0  0
   19.0940   -8.8626  -13.9410 O   0  0  0  0  0  0  0  0  0  0  0  0
   19.4953   -7.2441  -15.5030 N   0  0  0  0  0  0  0  0  0  0  0  0
   20.1628   -6.3922  -14.5137 C   0  0  1  0  0  0  0  0  0  0  0  0
   21.5779   -6.1433  -14.8851 C   0  0  0  0  0  0  0  0  0  0  0  0
   22.2728   -5.3260  -13.8912 C   0  0  0  0  0  0  0  0  0  0  0  0
   22.1142   -5.4861  -12.6671 O   0  0  0  0  0  0  0  0  0  0  0  0
   19.4282   -5.0875  -14.4921 C   0  0  0  0  0  0  0  0  0  0  0  0
   19.5383   -4.2804  -13.3421 O   0  0  0  0  0  0  0  0  0  0  0  0
   23.1520   -4.3230  -14.3435 O   0  0  0  0  0  0  0  0  0  0  0  0
   18.7276   -4.6595  -15.4094 O   0  0  0  0  0  0  0  0  0  0  0  0
  2  1  1  1
  2  3  1  0
  4  5  2  0
  4  2  1  0
  6  4  1  0
  7  6  1  0
  8  7  1  0
  8 10  1  0
  9  8  2  0
 11 12  1  6
 11 10  1  0
 12 13  1  0
 13 14  2  0
 13 17  1  0
 15 11  1  0
 16 15  1  0
 18 15  2  0
M  END
$$$$
