AGD.pdb
     RDKit          3D

 18 17  0  0  1  0  0  0  0  0999 V2000
   13.6037  -20.2918    1.3950 C   0  0  0  0  0  0  0  0  0  0  0  0
   14.6963  -19.3185    1.8096 C   0  0  2  0  0  0  0  0  0  0  0  0
   16.0196  -19.8326    1.5188 N   0  0  0  0  0  0  0  0  0  0  0  0
   14.5101  -19.0502    3.2538 C   0  0  0  0  0  0  0  0  0  0  0  0
   13.3503  -18.9270    3.6968 O   0  0  0  0  0  0  0  0  0  0  0  0
   15.6117  -18.9305    4.1335 N   0  0  0  0  0  0  0  0  0  0  0  0
   15.4003  -18.6438    5.5455 C   0  0  0  0  0  0  0  0  0  0  0  0
   16.6983  -18.6284    6.2706 C   0  0  0  0  0  0  0  0  0  0  0  0
   17.7802  -18.6573    5.6230 O   0  0  0  0  0  0  0  0  0  0  0  0
   16.7852  -18.5811    7.6784 N   0  0  0  0  0  0  0  0  0  0  0  0
   18.0643  -18.3292    8.3498 C   0  0  1  0  0  0  0  0  0  0  0  0
   17.8722  -17.5531    9.6000 C   0  0  0  0  0  0  0  0  0  0  0  0
   18.0381  -16.1157    9.3873 C   0  0  0  0  0  0  0  0  0  0  0  0
   18.3813  -15.6391    8.2899 O   0  0  0  0  0  0  0  0  0  0  0  0
   18.6507  -19.6643    8.6907 C   0  0  0  0  0  0  0  0  0  0  0  0
   19.9454  -19.7006    9.2462 O   0  0  0  0  0  0  0  0  0  0  0  0
   17.7992  -15.2455   10.4685 O   0  0  0  0  0  0  0  0  0  0  0  0
   18.0853  -20.7447    8.5218 O   0  0  0  0  0  0  0  0  0  0  0  0
  2  1  1  1
  2  3  1  0
  4  5  2  0
  4  2  1  0
  6  4  1  0
  7  6  1  0
  8  7  1  0
  8 10  1  0
  9  8  2  0
 11 12  1  1
 11 10  1  0
 12 13  1  0
 13 14  2  0
 13 17  1  0
 15 11  1  0
 16 15  1  0
 18 15  2  0
M  END
$$$$
