AGD.pdb
     RDKit          3D

 18 17  0  0  1  0  0  0  0  0999 V2000
   27.8412  -17.5348  -16.9719 C   0  0  0  0  0  0  0  0  0  0  0  0
   26.7202  -17.7042  -15.9581 C   0  0  2  0  0  0  0  0  0  0  0  0
   26.8451  -16.7771  -14.8514 N   0  0  0  0  0  0  0  0  0  0  0  0
   26.7551  -19.1143  -15.5076 C   0  0  0  0  0  0  0  0  0  0  0  0
   26.6458  -20.0194  -16.3593 O   0  0  0  0  0  0  0  0  0  0  0  0
   26.9074  -19.4525  -14.1423 N   0  0  0  0  0  0  0  0  0  0  0  0
   26.8572  -20.8445  -13.7173 C   0  0  0  0  0  0  0  0  0  0  0  0
   25.4463  -21.2923  -13.5771 C   0  0  0  0  0  0  0  0  0  0  0  0
   25.1950  -22.4611  -13.1753 O   0  0  0  0  0  0  0  0  0  0  0  0
   24.3478  -20.4582  -13.8762 N   0  0  0  0  0  0  0  0  0  0  0  0
   22.9733  -20.9652  -13.8136 C   0  0  1  0  0  0  0  0  0  0  0  0
   22.1013  -20.0602  -13.0244 C   0  0  0  0  0  0  0  0  0  0  0  0
   20.7149  -20.5242  -12.9881 C   0  0  0  0  0  0  0  0  0  0  0  0
   20.3670  -21.6237  -13.4562 O   0  0  0  0  0  0  0  0  0  0  0  0
   22.4645  -21.0269  -15.2207 C   0  0  0  0  0  0  0  0  0  0  0  0
   21.3784  -21.8806  -15.4991 O   0  0  0  0  0  0  0  0  0  0  0  0
   19.7437  -19.6906  -12.4005 O   0  0  0  0  0  0  0  0  0  0  0  0
   22.9253  -20.3840  -16.1641 O   0  0  0  0  0  0  0  0  0  0  0  0
  2  1  1  6
  2  3  1  0
  4  5  2  0
  4  2  1  0
  6  4  1  0
  7  6  1  0
  8  7  1  0
  8 10  1  0
  9  8  2  0
 11 12  1  1
 11 10  1  0
 12 13  1  0
 13 14  2  0
 13 17  1  0
 15 11  1  0
 16 15  1  0
 18 15  2  0
M  END
$$$$
