AGD.pdb
     RDKit          3D

 18 17  0  0  1  0  0  0  0  0999 V2000
   16.6240  -13.0497  -17.4280 C   0  0  0  0  0  0  0  0  0  0  0  0
   17.8847  -13.6634  -16.8389 C   0  0  2  0  0  0  0  0  0  0  0  0
   17.7399  -13.9481  -15.4253 N   0  0  0  0  0  0  0  0  0  0  0  0
   18.9907  -12.7152  -17.1037 C   0  0  0  0  0  0  0  0  0  0  0  0
   19.7946  -12.9721  -18.0225 O   0  0  0  0  0  0  0  0  0  0  0  0
   19.1532  -11.5345  -16.3412 N   0  0  0  0  0  0  0  0  0  0  0  0
   20.1968  -10.5764  -16.6788 C   0  0  0  0  0  0  0  0  0  0  0  0
   20.1774   -9.4336  -15.7278 C   0  0  0  0  0  0  0  0  0  0  0  0
   19.3312   -9.4083  -14.7929 O   0  0  0  0  0  0  0  0  0  0  0  0
   21.0780   -8.3507  -15.8179 N   0  0  0  0  0  0  0  0  0  0  0  0
   21.1143   -7.3085  -14.7871 C   0  0  1  0  0  0  0  0  0  0  0  0
   22.3999   -6.5677  -14.8158 C   0  0  0  0  0  0  0  0  0  0  0  0
   22.4338   -5.4847  -13.8336 C   0  0  0  0  0  0  0  0  0  0  0  0
   22.2083   -5.6737  -12.6242 O   0  0  0  0  0  0  0  0  0  0  0  0
   19.9972   -6.3571  -15.0862 C   0  0  0  0  0  0  0  0  0  0  0  0
   19.3362   -5.7446  -14.0027 O   0  0  0  0  0  0  0  0  0  0  0  0
   22.7331   -4.1830  -14.2803 O   0  0  0  0  0  0  0  0  0  0  0  0
   19.6058   -6.0648  -16.2162 O   0  0  0  0  0  0  0  0  0  0  0  0
  2  1  1  1
  2  3  1  0
  4  5  2  0
  4  2  1  0
  6  4  1  0
  7  6  1  0
  8  7  1  0
  8 10  1  0
  9  8  2  0
 11 12  1  6
 11 10  1  0
 12 13  1  0
 13 14  2  0
 13 17  1  0
 15 11  1  0
 16 15  1  0
 18 15  2  0
M  END
$$$$
