AGD.pdb
     RDKit          3D

 18 17  0  0  1  0  0  0  0  0999 V2000
   24.9992  -22.7429  -12.9584 C   0  0  0  0  0  0  0  0  0  0  0  0
   26.3237  -21.9956  -12.9723 C   0  0  2  0  0  0  0  0  0  0  0  0
   26.6715  -21.4839  -11.6619 N   0  0  0  0  0  0  0  0  0  0  0  0
   26.1983  -20.9135  -13.9753 C   0  0  0  0  0  0  0  0  0  0  0  0
   25.6255  -21.1602  -15.0559 O   0  0  0  0  0  0  0  0  0  0  0  0
   26.7117  -19.6172  -13.7351 N   0  0  0  0  0  0  0  0  0  0  0  0
   26.6355  -18.5912  -14.7658 C   0  0  0  0  0  0  0  0  0  0  0  0
   25.2185  -18.3316  -15.1340 C   0  0  0  0  0  0  0  0  0  0  0  0
   24.6852  -17.2271  -14.8403 O   0  0  0  0  0  0  0  0  0  0  0  0
   24.4207  -19.2783  -15.8116 N   0  0  0  0  0  0  0  0  0  0  0  0
   23.0277  -18.9825  -16.1611 C   0  0  1  0  0  0  0  0  0  0  0  0
   22.6234  -19.6864  -17.4034 C   0  0  0  0  0  0  0  0  0  0  0  0
   21.2486  -19.3734  -17.7916 C   0  0  0  0  0  0  0  0  0  0  0  0
   20.2898  -20.1138  -17.5057 O   0  0  0  0  0  0  0  0  0  0  0  0
   22.1786  -19.4689  -15.0275 C   0  0  0  0  0  0  0  0  0  0  0  0
   20.9903  -18.7690  -14.7376 O   0  0  0  0  0  0  0  0  0  0  0  0
   21.0089  -18.1893  -18.5154 O   0  0  0  0  0  0  0  0  0  0  0  0
   22.4397  -20.4423  -14.3205 O   0  0  0  0  0  0  0  0  0  0  0  0
  2  1  1  1
  2  3  1  0
  4  5  2  0
  4  2  1  0
  6  4  1  0
  7  6  1  0
  8  7  1  0
  8 10  1  0
  9  8  2  0
 11 12  1  6
 11 10  1  0
 12 13  1  0
 13 14  2  0
 13 17  1  0
 15 11  1  0
 16 15  1  0
 18 15  2  0
M  END
$$$$
