IEM.pdb
     RDKit          3D

 26 25  0  0  1  0  0  0  0  0999 V2000
    7.3754  -11.9399   18.8672 C   0  0  0  0  0  0  0  0  0  0  0  0
    7.7663  -13.3777   18.7909 C   0  0  0  0  0  0  0  0  0  0  0  0
    7.8707  -14.0426   20.1715 C   0  0  2  0  0  0  0  0  0  0  0  0
    9.0647  -13.3254   20.8288 C   0  0  0  0  0  0  0  0  0  0  0  0
    8.2596  -15.4780   19.9911 C   0  0  2  0  0  0  0  0  0  0  0  0
    7.2191  -16.1589   19.2550 N   0  0  0  0  0  0  0  0  0  0  0  0
    8.5693  -16.1559   21.2681 C   0  0  0  0  0  0  0  0  0  0  0  0
    7.6751  -16.4758   22.0883 O   0  0  0  0  0  0  0  0  0  0  0  0
    9.9137  -16.5012   21.6704 N   0  0  0  0  0  0  0  0  0  0  0  0
   10.2206  -17.0591   22.9357 C   0  0  1  0  0  0  0  0  0  0  0  0
   11.3949  -17.9557   22.9309 C   0  0  0  0  0  0  0  0  0  0  0  0
   11.2210  -19.3067   22.3118 C   0  0  0  0  0  0  0  0  0  0  0  0
   10.4221  -20.2587   23.0941 C   0  0  0  0  0  0  0  0  0  0  0  0
   10.8107  -20.7271   24.2194 O   0  0  0  0  0  0  0  0  0  0  0  0
   10.3161  -16.0607   24.0260 C   0  0  0  0  0  0  0  0  0  0  0  0
   11.2242  -15.1971   24.1005 O   0  0  0  0  0  0  0  0  0  0  0  0
    9.1931  -20.6925   22.6321 O   0  0  0  0  0  0  0  0  0  0  0  0
    6.4048  -11.3972   25.9458 C   0  0  0  0  0  0  0  0  0  0  0  0
    6.6049  -12.3578   27.4627 S   0  0  0  0  0  0  0  0  0  0  0  0
    8.1542  -13.2956   27.3644 C   0  0  0  0  0  0  0  0  0  0  0  0
    8.0885  -14.3344   26.2574 C   0  0  0  0  0  0  0  0  0  0  0  0
    9.4083  -15.0583   26.1070 C   0  0  2  0  0  0  0  0  0  0  0  0
    9.3377  -16.0654   25.0484 N   0  0  0  0  0  0  0  0  0  0  0  0
    9.6777  -15.7538   27.3806 C   0  0  0  0  0  0  0  0  0  0  0  0
   10.0919  -15.0216   28.4762 O   0  0  0  0  0  0  0  0  0  0  0  0
    9.5458  -16.9949   27.5125 O   0  0  0  0  0  0  0  0  0  0  0  0
  1  2  1  0
  2  3  1  0
  3  4  1  1
  5  3  1  0
  5  6  1  1
  7  8  2  0
  7  5  1  0
  9  7  1  0
 10  9  1  0
 10 11  1  6
 12 13  1  0
 12 11  1  0
 13 14  2  0
 15 23  1  0
 15 10  1  0
 16 15  2  0
 17 13  1  0
 19 18  1  0
 20 19  1  0
 20 21  1  0
 22 21  1  1
 22 24  1  0
 22 23  1  0
 24 25  1  0
 26 24  2  0
M  END
$$$$
