IEM.pdb
     RDKit          3D

 26 25  0  0  1  0  0  0  0  0999 V2000
    7.3607  -11.9224   19.0074 C   0  0  0  0  0  0  0  0  0  0  0  0
    7.4846  -13.4091   18.9855 C   0  0  0  0  0  0  0  0  0  0  0  0
    7.7059  -14.0109   20.3811 C   0  0  2  0  0  0  0  0  0  0  0  0
    9.0883  -13.4709   20.7927 C   0  0  0  0  0  0  0  0  0  0  0  0
    7.8301  -15.4984   20.2545 C   0  0  2  0  0  0  0  0  0  0  0  0
    6.5898  -16.0325   19.7400 N   0  0  0  0  0  0  0  0  0  0  0  0
    8.2332  -16.1525   21.5177 C   0  0  0  0  0  0  0  0  0  0  0  0
    7.4349  -16.3089   22.4731 O   0  0  0  0  0  0  0  0  0  0  0  0
    9.5663  -16.6592   21.7515 N   0  0  0  0  0  0  0  0  0  0  0  0
    9.9637  -17.2475   22.9773 C   0  0  1  0  0  0  0  0  0  0  0  0
   11.1829  -18.0766   22.8813 C   0  0  0  0  0  0  0  0  0  0  0  0
   11.6521  -18.7496   24.1325 C   0  0  0  0  0  0  0  0  0  0  0  0
   12.8817  -19.5409   23.9976 C   0  0  0  0  0  0  0  0  0  0  0  0
   13.5397  -19.9741   25.0058 O   0  0  0  0  0  0  0  0  0  0  0  0
   10.0582  -16.2880   24.1019 C   0  0  0  0  0  0  0  0  0  0  0  0
   10.8188  -15.2892   24.1019 O   0  0  0  0  0  0  0  0  0  0  0  0
   13.3838  -19.8537   22.7477 O   0  0  0  0  0  0  0  0  0  0  0  0
    6.9138  -11.5223   26.9559 C   0  0  0  0  0  0  0  0  0  0  0  0
    6.4130  -12.9038   25.9049 S   0  0  0  0  0  0  0  0  0  0  0  0
    7.8700  -13.9179   25.5333 C   0  0  0  0  0  0  0  0  0  0  0  0
    8.2188  -14.8151   26.7089 C   0  0  0  0  0  0  0  0  0  0  0  0
    9.4531  -15.6407   26.4202 C   0  0  2  0  0  0  0  0  0  0  0  0
    9.2533  -16.4924   25.2479 N   0  0  0  0  0  0  0  0  0  0  0  0
    9.6808  -16.5164   27.5863 C   0  0  0  0  0  0  0  0  0  0  0  0
   10.1570  -15.9676   28.7611 O   0  0  0  0  0  0  0  0  0  0  0  0
    9.4586  -17.7513   27.5563 O   0  0  0  0  0  0  0  0  0  0  0  0
  1  2  1  0
  2  3  1  0
  3  4  1  6
  5  3  1  0
  5  6  1  1
  7  8  2  0
  7  5  1  0
  9  7  1  0
 10  9  1  0
 10 11  1  6
 12 13  1  0
 12 11  1  0
 13 14  2  0
 15 23  1  0
 15 10  1  0
 16 15  2  0
 17 13  1  0
 19 18  1  0
 20 19  1  0
 20 21  1  0
 22 21  1  1
 22 24  1  0
 22 23  1  0
 24 25  1  0
 26 24  2  0
M  END
$$$$
