IEM.pdb
     RDKit          3D

 26 25  0  0  1  0  0  0  0  0999 V2000
    8.5426  -12.5862   18.0123 C   0  0  0  0  0  0  0  0  0  0  0  0
    7.2434  -13.1004   18.5355 C   0  0  0  0  0  0  0  0  0  0  0  0
    7.3955  -13.8819   19.8490 C   0  0  2  0  0  0  0  0  0  0  0  0
    8.3864  -13.0298   20.6640 C   0  0  0  0  0  0  0  0  0  0  0  0
    8.0669  -15.1897   19.5611 C   0  0  2  0  0  0  0  0  0  0  0  0
    7.2467  -15.9485   18.6447 N   0  0  0  0  0  0  0  0  0  0  0  0
    8.3846  -15.9560   20.7849 C   0  0  0  0  0  0  0  0  0  0  0  0
    7.5098  -16.2486   21.6356 O   0  0  0  0  0  0  0  0  0  0  0  0
    9.7155  -16.4250   21.0970 N   0  0  0  0  0  0  0  0  0  0  0  0
   10.0576  -16.9996   22.3457 C   0  0  1  0  0  0  0  0  0  0  0  0
   11.2944  -17.8074   22.3195 C   0  0  0  0  0  0  0  0  0  0  0  0
   11.6914  -18.4911   23.5899 C   0  0  0  0  0  0  0  0  0  0  0  0
   12.9616  -19.2261   23.5380 C   0  0  0  0  0  0  0  0  0  0  0  0
   13.0533  -20.4697   23.8241 O   0  0  0  0  0  0  0  0  0  0  0  0
   10.0756  -16.0326   23.4678 C   0  0  0  0  0  0  0  0  0  0  0  0
   10.8095  -15.0145   23.4967 O   0  0  0  0  0  0  0  0  0  0  0  0
   14.1305  -18.5860   23.1692 O   0  0  0  0  0  0  0  0  0  0  0  0
    6.3401  -11.1769   27.8686 C   0  0  0  0  0  0  0  0  0  0  0  0
    6.2546  -12.5396   26.6857 S   0  0  0  0  0  0  0  0  0  0  0  0
    7.8180  -13.4578   26.7329 C   0  0  0  0  0  0  0  0  0  0  0  0
    7.8737  -14.4889   25.6182 C   0  0  0  0  0  0  0  0  0  0  0  0
    9.1770  -15.2565   25.6472 C   0  0  2  0  0  0  0  0  0  0  0  0
    9.2243  -16.2523   24.5767 N   0  0  0  0  0  0  0  0  0  0  0  0
    9.2398  -15.9707   26.9373 C   0  0  0  0  0  0  0  0  0  0  0  0
    9.4392  -15.2510   28.0994 O   0  0  0  0  0  0  0  0  0  0  0  0
    9.1190  -17.2168   27.0251 O   0  0  0  0  0  0  0  0  0  0  0  0
  1  2  1  0
  2  3  1  0
  3  4  1  1
  5  3  1  0
  5  6  1  6
  7  8  2  0
  7  5  1  0
  9  7  1  0
 10  9  1  0
 10 11  1  6
 12 13  1  0
 12 11  1  0
 13 14  2  0
 15 23  1  0
 15 10  1  0
 16 15  2  0
 17 13  1  0
 19 18  1  0
 20 19  1  0
 20 21  1  0
 22 21  1  1
 22 24  1  0
 22 23  1  0
 24 25  1  0
 26 24  2  0
M  END
$$$$
