IEM.pdb
     RDKit          3D

 26 25  0  0  1  0  0  0  0  0999 V2000
    8.0236  -11.8319   20.8732 C   0  0  0  0  0  0  0  0  0  0  0  0
    7.6035  -13.2564   21.0160 C   0  0  0  0  0  0  0  0  0  0  0  0
    8.3139  -14.1910   20.0256 C   0  0  2  0  0  0  0  0  0  0  0  0
    7.7509  -13.7632   18.6574 C   0  0  0  0  0  0  0  0  0  0  0  0
    7.8591  -15.5968   20.2729 C   0  0  2  0  0  0  0  0  0  0  0  0
    6.4200  -15.6538   20.1550 N   0  0  0  0  0  0  0  0  0  0  0  0
    8.3308  -16.1359   21.5663 C   0  0  0  0  0  0  0  0  0  0  0  0
    7.6168  -16.1172   22.5980 O   0  0  0  0  0  0  0  0  0  0  0  0
    9.6397  -16.7220   21.7447 N   0  0  0  0  0  0  0  0  0  0  0  0
   10.1385  -17.1252   23.0077 C   0  0  1  0  0  0  0  0  0  0  0  0
   11.3978  -17.8950   22.9413 C   0  0  0  0  0  0  0  0  0  0  0  0
   11.9657  -18.3895   24.2343 C   0  0  0  0  0  0  0  0  0  0  0  0
   13.2209  -19.1433   24.1223 C   0  0  0  0  0  0  0  0  0  0  0  0
   13.3207  -20.2240   23.4448 O   0  0  0  0  0  0  0  0  0  0  0  0
   10.2375  -16.0245   23.9943 C   0  0  0  0  0  0  0  0  0  0  0  0
   10.9559  -15.0078   23.8323 O   0  0  0  0  0  0  0  0  0  0  0  0
   14.3661  -18.7019   24.7592 O   0  0  0  0  0  0  0  0  0  0  0  0
    5.9659  -12.0983   25.6646 C   0  0  0  0  0  0  0  0  0  0  0  0
    6.6155  -12.3360   27.3335 S   0  0  0  0  0  0  0  0  0  0  0  0
    8.2313  -13.1526   27.2245 C   0  0  0  0  0  0  0  0  0  0  0  0
    8.1851  -14.3154   26.2476 C   0  0  0  0  0  0  0  0  0  0  0  0
    9.5332  -14.9931   26.1390 C   0  0  2  0  0  0  0  0  0  0  0  0
    9.4870  -16.1064   25.1913 N   0  0  0  0  0  0  0  0  0  0  0  0
    9.8601  -15.5408   27.4700 C   0  0  0  0  0  0  0  0  0  0  0  0
   10.2148  -14.6769   28.4880 O   0  0  0  0  0  0  0  0  0  0  0  0
    9.8299  -16.7704   27.7196 O   0  0  0  0  0  0  0  0  0  0  0  0
  1  2  1  0
  2  3  1  0
  3  4  1  6
  5  3  1  0
  5  6  1  1
  7  8  2  0
  7  5  1  0
  9  7  1  0
 10  9  1  0
 10 11  1  6
 12 13  1  0
 12 11  1  0
 13 14  2  0
 15 23  1  0
 15 10  1  0
 16 15  2  0
 17 13  1  0
 19 18  1  0
 20 19  1  0
 20 21  1  0
 22 21  1  1
 22 24  1  0
 22 23  1  0
 24 25  1  0
 26 24  2  0
M  END
$$$$
