IEM.pdb
     RDKit          3D

 26 25  0  0  1  0  0  0  0  0999 V2000
    8.0576  -11.9285   20.4466 C   0  0  0  0  0  0  0  0  0  0  0  0
    7.6432  -13.3601   20.5148 C   0  0  0  0  0  0  0  0  0  0  0  0
    8.2936  -14.2230   19.4233 C   0  0  2  0  0  0  0  0  0  0  0  0
    7.6097  -13.7447   18.1289 C   0  0  0  0  0  0  0  0  0  0  0  0
    7.8965  -15.6522   19.6332 C   0  0  2  0  0  0  0  0  0  0  0  0
    6.4560  -15.7537   19.5777 N   0  0  0  0  0  0  0  0  0  0  0  0
    8.4446  -16.2252   20.8811 C   0  0  0  0  0  0  0  0  0  0  0  0
    7.7709  -16.2919   21.9376 O   0  0  0  0  0  0  0  0  0  0  0  0
    9.7875  -16.7493   20.9835 N   0  0  0  0  0  0  0  0  0  0  0  0
   10.3341  -17.2384   22.1953 C   0  0  1  0  0  0  0  0  0  0  0  0
   11.6641  -17.8646   22.0478 C   0  0  0  0  0  0  0  0  0  0  0  0
   12.2641  -18.4905   23.2673 C   0  0  0  0  0  0  0  0  0  0  0  0
   13.6156  -19.0376   23.0931 C   0  0  0  0  0  0  0  0  0  0  0  0
   14.6661  -18.3079   23.1206 O   0  0  0  0  0  0  0  0  0  0  0  0
   10.3289  -16.2505   23.2992 C   0  0  0  0  0  0  0  0  0  0  0  0
   10.8387  -15.1068   23.2113 O   0  0  0  0  0  0  0  0  0  0  0  0
   13.8056  -20.3920   22.8889 O   0  0  0  0  0  0  0  0  0  0  0  0
    6.3198  -11.7922   27.7444 C   0  0  0  0  0  0  0  0  0  0  0  0
    6.4271  -13.0772   26.4791 S   0  0  0  0  0  0  0  0  0  0  0  0
    8.0577  -13.8651   26.5784 C   0  0  0  0  0  0  0  0  0  0  0  0
    8.2351  -14.8839   25.4652 C   0  0  0  0  0  0  0  0  0  0  0  0
    9.5757  -15.5774   25.5662 C   0  0  2  0  0  0  0  0  0  0  0  0
    9.7190  -16.5980   24.5281 N   0  0  0  0  0  0  0  0  0  0  0  0
    9.6259  -16.2516   26.8782 C   0  0  0  0  0  0  0  0  0  0  0  0
    9.9271  -15.5135   28.0064 O   0  0  0  0  0  0  0  0  0  0  0  0
    9.4049  -17.4795   27.0147 O   0  0  0  0  0  0  0  0  0  0  0  0
  1  2  1  0
  2  3  1  0
  3  4  1  6
  5  3  1  0
  5  6  1  1
  7  8  2  0
  7  5  1  0
  9  7  1  0
 10  9  1  0
 10 11  1  6
 12 13  1  0
 12 11  1  0
 13 14  2  0
 15 23  1  0
 15 10  1  0
 16 15  2  0
 17 13  1  0
 19 18  1  0
 20 19  1  0
 20 21  1  0
 22 21  1  6
 22 24  1  0
 22 23  1  0
 24 25  1  0
 26 24  2  0
M  END
$$$$
