IEM.pdb
     RDKit          3D

 26 25  0  0  1  0  0  0  0  0999 V2000
    7.5335  -11.8638   19.3759 C   0  0  0  0  0  0  0  0  0  0  0  0
    7.3502  -13.3397   19.4942 C   0  0  0  0  0  0  0  0  0  0  0  0
    7.7803  -13.8874   20.8631 C   0  0  2  0  0  0  0  0  0  0  0  0
    9.2767  -13.5315   20.9411 C   0  0  0  0  0  0  0  0  0  0  0  0
    7.6800  -15.3820   20.8416 C   0  0  2  0  0  0  0  0  0  0  0  0
    6.2937  -15.7588   20.6855 N   0  0  0  0  0  0  0  0  0  0  0  0
    8.2972  -16.0180   22.0251 C   0  0  0  0  0  0  0  0  0  0  0  0
    7.6964  -16.1107   23.1228 O   0  0  0  0  0  0  0  0  0  0  0  0
    9.6292  -16.5784   22.0130 N   0  0  0  0  0  0  0  0  0  0  0  0
   10.2647  -17.0815   23.1747 C   0  0  1  0  0  0  0  0  0  0  0  0
   11.4929  -17.8564   22.9028 C   0  0  0  0  0  0  0  0  0  0  0  0
   12.2471  -18.3790   24.0847 C   0  0  0  0  0  0  0  0  0  0  0  0
   13.4766  -19.1175   23.7696 C   0  0  0  0  0  0  0  0  0  0  0  0
   14.6214  -18.5522   23.6878 O   0  0  0  0  0  0  0  0  0  0  0  0
   10.4991  -16.0602   24.2219 C   0  0  0  0  0  0  0  0  0  0  0  0
   10.9294  -14.9053   23.9831 O   0  0  0  0  0  0  0  0  0  0  0  0
   13.4403  -20.4815   23.5453 O   0  0  0  0  0  0  0  0  0  0  0  0
    6.2538  -13.3410   26.7803 C   0  0  0  0  0  0  0  0  0  0  0  0
    7.5264  -12.5261   27.7703 S   0  0  0  0  0  0  0  0  0  0  0  0
    9.0058  -13.5748   27.8045 C   0  0  0  0  0  0  0  0  0  0  0  0
    9.0315  -14.5132   26.6097 C   0  0  0  0  0  0  0  0  0  0  0  0
   10.3003  -15.3367   26.5876 C   0  0  2  0  0  0  0  0  0  0  0  0
   10.2276  -16.3868   25.5719 N   0  0  0  0  0  0  0  0  0  0  0  0
   10.4275  -15.9865   27.9067 C   0  0  0  0  0  0  0  0  0  0  0  0
   10.4364  -17.3658   27.9828 O   0  0  0  0  0  0  0  0  0  0  0  0
   10.5287  -15.3333   28.9736 O   0  0  0  0  0  0  0  0  0  0  0  0
  1  2  1  0
  2  3  1  0
  3  4  1  6
  5  3  1  0
  5  6  1  1
  7  8  2  0
  7  5  1  0
  9  7  1  0
 10  9  1  0
 10 11  1  6
 12 13  1  0
 12 11  1  0
 13 14  2  0
 15 23  1  0
 15 10  1  0
 16 15  2  0
 17 13  1  0
 19 18  1  0
 20 19  1  0
 20 21  1  0
 22 21  1  1
 22 24  1  0
 22 23  1  0
 24 25  1  0
 26 24  2  0
M  END
$$$$
