IEM.pdb
     RDKit          3D

 26 25  0  0  1  0  0  0  0  0999 V2000
    7.5007  -12.1315   18.8936 C   0  0  0  0  0  0  0  0  0  0  0  0
    7.7977  -13.5929   18.9388 C   0  0  0  0  0  0  0  0  0  0  0  0
    7.8364  -14.1508   20.3693 C   0  0  2  0  0  0  0  0  0  0  0  0
    9.0123  -13.3978   21.0193 C   0  0  0  0  0  0  0  0  0  0  0  0
    8.2126  -15.5998   20.3155 C   0  0  2  0  0  0  0  0  0  0  0  0
    7.2267  -16.3138   19.5366 N   0  0  0  0  0  0  0  0  0  0  0  0
    8.3987  -16.1970   21.6552 C   0  0  0  0  0  0  0  0  0  0  0  0
    7.4707  -16.2482   22.4982 O   0  0  0  0  0  0  0  0  0  0  0  0
    9.6524  -16.7639   22.0973 N   0  0  0  0  0  0  0  0  0  0  0  0
    9.8700  -17.2151   23.4223 C   0  0  1  0  0  0  0  0  0  0  0  0
   10.8995  -18.2683   23.5395 C   0  0  0  0  0  0  0  0  0  0  0  0
   11.7352  -18.5450   22.3296 C   0  0  0  0  0  0  0  0  0  0  0  0
   12.0317  -19.9616   22.0809 C   0  0  0  0  0  0  0  0  0  0  0  0
   12.7683  -20.6611   22.8587 O   0  0  0  0  0  0  0  0  0  0  0  0
   10.1082  -16.1253   24.3971 C   0  0  0  0  0  0  0  0  0  0  0  0
   10.9048  -15.1758   24.1978 O   0  0  0  0  0  0  0  0  0  0  0  0
   11.5134  -20.6049   20.9720 O   0  0  0  0  0  0  0  0  0  0  0  0
    5.9776  -12.1295   26.7210 C   0  0  0  0  0  0  0  0  0  0  0  0
    7.6197  -11.7639   27.3795 S   0  0  0  0  0  0  0  0  0  0  0  0
    8.3841  -13.3089   27.9435 C   0  0  0  0  0  0  0  0  0  0  0  0
    8.2318  -14.4010   26.8981 C   0  0  0  0  0  0  0  0  0  0  0  0
    9.5690  -15.0175   26.5515 C   0  0  2  0  0  0  0  0  0  0  0  0
    9.4069  -16.1388   25.6263 N   0  0  0  0  0  0  0  0  0  0  0  0
   10.1517  -15.5398   27.8030 C   0  0  0  0  0  0  0  0  0  0  0  0
   10.3745  -16.8971   27.9300 O   0  0  0  0  0  0  0  0  0  0  0  0
   10.4564  -14.7963   28.7671 O   0  0  0  0  0  0  0  0  0  0  0  0
  1  2  1  0
  2  3  1  0
  3  4  1  1
  5  3  1  0
  5  6  1  1
  7  8  2  0
  7  5  1  0
  9  7  1  0
 10  9  1  0
 10 11  1  6
 12 13  1  0
 12 11  1  0
 13 14  2  0
 15 23  1  0
 15 10  1  0
 16 15  2  0
 17 13  1  0
 19 18  1  0
 20 19  1  0
 20 21  1  0
 22 21  1  1
 22 24  1  0
 22 23  1  0
 24 25  1  0
 26 24  2  0
M  END
$$$$
