IEM.pdb
     RDKit          3D

 26 25  0  0  1  0  0  0  0  0999 V2000
    7.4555  -11.6391   19.0153 C   0  0  0  0  0  0  0  0  0  0  0  0
    7.6444  -13.1093   18.8461 C   0  0  0  0  0  0  0  0  0  0  0  0
    7.6384  -13.8701   20.1803 C   0  0  2  0  0  0  0  0  0  0  0  0
    8.8211  -13.2557   20.9521 C   0  0  0  0  0  0  0  0  0  0  0  0
    7.9753  -15.3067   19.9218 C   0  0  2  0  0  0  0  0  0  0  0  0
    6.9282  -15.8993   19.1214 N   0  0  0  0  0  0  0  0  0  0  0  0
    8.2251  -16.0721   21.1620 C   0  0  0  0  0  0  0  0  0  0  0  0
    7.3009  -16.3863   21.9504 O   0  0  0  0  0  0  0  0  0  0  0  0
    9.5411  -16.5153   21.5620 N   0  0  0  0  0  0  0  0  0  0  0  0
    9.7866  -17.2072   22.7734 C   0  0  1  0  0  0  0  0  0  0  0  0
   10.9086  -18.1660   22.7039 C   0  0  0  0  0  0  0  0  0  0  0  0
   11.2398  -18.9223   23.9517 C   0  0  0  0  0  0  0  0  0  0  0  0
   12.3448  -19.8819   23.8307 C   0  0  0  0  0  0  0  0  0  0  0  0
   12.1798  -21.1452   23.9477 O   0  0  0  0  0  0  0  0  0  0  0  0
    9.9124  -16.3236   23.9558 C   0  0  0  0  0  0  0  0  0  0  0  0
   10.7963  -15.4399   24.0726 O   0  0  0  0  0  0  0  0  0  0  0  0
   13.6324  -19.4445   23.5799 O   0  0  0  0  0  0  0  0  0  0  0  0
    6.8430  -11.7169   27.2755 C   0  0  0  0  0  0  0  0  0  0  0  0
    6.1636  -12.9557   26.1497 S   0  0  0  0  0  0  0  0  0  0  0  0
    7.5100  -14.0223   25.5676 C   0  0  0  0  0  0  0  0  0  0  0  0
    7.9660  -14.9668   26.6670 C   0  0  0  0  0  0  0  0  0  0  0  0
    9.2128  -15.7203   26.2593 C   0  0  2  0  0  0  0  0  0  0  0  0
    8.9933  -16.4691   25.0221 N   0  0  0  0  0  0  0  0  0  0  0  0
    9.5132  -16.6892   27.3314 C   0  0  0  0  0  0  0  0  0  0  0  0
   10.0372  -16.2347   28.5260 O   0  0  0  0  0  0  0  0  0  0  0  0
    9.3114  -17.9213   27.2032 O   0  0  0  0  0  0  0  0  0  0  0  0
  1  2  1  0
  2  3  1  0
  3  4  1  1
  5  3  1  0
  5  6  1  1
  7  8  2  0
  7  5  1  0
  9  7  1  0
 10  9  1  0
 10 11  1  6
 12 13  1  0
 12 11  1  0
 13 14  2  0
 15 23  1  0
 15 10  1  0
 16 15  2  0
 17 13  1  0
 19 18  1  0
 20 19  1  0
 20 21  1  0
 22 21  1  1
 22 24  1  0
 22 23  1  0
 24 25  1  0
 26 24  2  0
M  END
$$$$
