IEM.pdb
     RDKit          3D

 26 25  0  0  1  0  0  0  0  0999 V2000
    7.4349  -11.8165   18.9565 C   0  0  0  0  0  0  0  0  0  0  0  0
    7.7654  -13.2664   18.8361 C   0  0  0  0  0  0  0  0  0  0  0  0
    7.9767  -13.9460   20.1972 C   0  0  2  0  0  0  0  0  0  0  0  0
    9.2183  -13.2352   20.7673 C   0  0  0  0  0  0  0  0  0  0  0  0
    8.3501  -15.3792   19.9716 C   0  0  2  0  0  0  0  0  0  0  0  0
    7.2813  -16.0373   19.2556 N   0  0  0  0  0  0  0  0  0  0  0  0
    8.6978  -16.0877   21.2219 C   0  0  0  0  0  0  0  0  0  0  0  0
    7.8616  -16.2734   22.1389 O   0  0  0  0  0  0  0  0  0  0  0  0
   10.0160  -16.6178   21.4860 N   0  0  0  0  0  0  0  0  0  0  0  0
   10.3551  -17.2747   22.6943 C   0  0  1  0  0  0  0  0  0  0  0  0
   11.4355  -18.2729   22.5557 C   0  0  0  0  0  0  0  0  0  0  0  0
   11.4733  -19.0679   21.2887 C   0  0  0  0  0  0  0  0  0  0  0  0
   12.7099  -19.8255   21.0584 C   0  0  0  0  0  0  0  0  0  0  0  0
   13.6771  -19.3734   20.3534 O   0  0  0  0  0  0  0  0  0  0  0  0
   10.6205  -16.3548   23.8248 C   0  0  0  0  0  0  0  0  0  0  0  0
   11.4765  -15.4371   23.7885 O   0  0  0  0  0  0  0  0  0  0  0  0
   12.8774  -21.0833   21.6082 O   0  0  0  0  0  0  0  0  0  0  0  0
    5.5236  -13.0008   26.7078 C   0  0  0  0  0  0  0  0  0  0  0  0
    7.3225  -12.8372   26.6829 S   0  0  0  0  0  0  0  0  0  0  0  0
    8.0503  -14.4235   26.1896 C   0  0  0  0  0  0  0  0  0  0  0  0
    9.5622  -14.3157   26.0841 C   0  0  0  0  0  0  0  0  0  0  0  0
   10.2160  -15.6767   26.1777 C   0  0  2  0  0  0  0  0  0  0  0  0
    9.8768  -16.5034   25.0196 N   0  0  0  0  0  0  0  0  0  0  0  0
    9.6827  -16.3403   27.3833 C   0  0  0  0  0  0  0  0  0  0  0  0
    9.0227  -17.5470   27.2548 O   0  0  0  0  0  0  0  0  0  0  0  0
    9.8039  -15.8504   28.5325 O   0  0  0  0  0  0  0  0  0  0  0  0
  1  2  1  0
  2  3  1  0
  3  4  1  6
  5  3  1  0
  5  6  1  1
  7  8  2  0
  7  5  1  0
  9  7  1  0
 10  9  1  0
 10 11  1  6
 12 13  1  0
 12 11  1  0
 13 14  2  0
 15 23  1  0
 15 10  1  0
 16 15  2  0
 17 13  1  0
 19 18  1  0
 20 19  1  0
 20 21  1  0
 22 21  1  6
 22 24  1  0
 22 23  1  0
 24 25  1  0
 26 24  2  0
M  END
$$$$
