IEM.pdb
     RDKit          3D

 26 25  0  0  1  0  0  0  0  0999 V2000
    6.7521  -12.2543   18.7066 C   0  0  0  0  0  0  0  0  0  0  0  0
    8.0779  -12.8737   18.9970 C   0  0  0  0  0  0  0  0  0  0  0  0
    8.0068  -13.9546   20.0859 C   0  0  2  0  0  0  0  0  0  0  0  0
    7.5786  -13.1740   21.3427 C   0  0  0  0  0  0  0  0  0  0  0  0
    9.3865  -14.4807   20.3388 C   0  0  2  0  0  0  0  0  0  0  0  0
    9.9583  -14.9236   19.0878 N   0  0  0  0  0  0  0  0  0  0  0  0
    9.4190  -15.5409   21.3689 C   0  0  0  0  0  0  0  0  0  0  0  0
    8.3719  -16.0534   21.8330 O   0  0  0  0  0  0  0  0  0  0  0  0
   10.6476  -16.0668   21.9190 N   0  0  0  0  0  0  0  0  0  0  0  0
   10.6777  -17.0748   22.9137 C   0  0  1  0  0  0  0  0  0  0  0  0
   11.9237  -17.8686   22.9306 C   0  0  0  0  0  0  0  0  0  0  0  0
   12.3927  -18.4324   21.6264 C   0  0  0  0  0  0  0  0  0  0  0  0
   13.8434  -18.6297   21.5120 C   0  0  0  0  0  0  0  0  0  0  0  0
   14.3976  -19.7760   21.6372 O   0  0  0  0  0  0  0  0  0  0  0  0
   10.3354  -16.5903   24.2712 C   0  0  0  0  0  0  0  0  0  0  0  0
   10.5508  -17.2474   25.3190 O   0  0  0  0  0  0  0  0  0  0  0  0
   14.6814  -17.5593   21.2586 O   0  0  0  0  0  0  0  0  0  0  0  0
    7.9255  -11.4388   25.7854 C   0  0  0  0  0  0  0  0  0  0  0  0
    6.9187  -12.3200   26.9993 S   0  0  0  0  0  0  0  0  0  0  0  0
    6.8373  -14.0714   26.5352 C   0  0  0  0  0  0  0  0  0  0  0  0
    7.6585  -14.3386   25.2850 C   0  0  0  0  0  0  0  0  0  0  0  0
    8.9629  -15.0258   25.6233 C   0  0  2  0  0  0  0  0  0  0  0  0
    9.7321  -15.3181   24.4139 N   0  0  0  0  0  0  0  0  0  0  0  0
    8.6302  -16.3085   26.2731 C   0  0  0  0  0  0  0  0  0  0  0  0
    8.8359  -16.4515   27.6316 O   0  0  0  0  0  0  0  0  0  0  0  0
    8.1640  -17.2855   25.6381 O   0  0  0  0  0  0  0  0  0  0  0  0
  1  2  1  0
  2  3  1  0
  3  4  1  1
  5  3  1  0
  5  6  1  6
  7  8  2  0
  7  5  1  0
  9  7  1  0
 10  9  1  0
 10 11  1  1
 12 13  1  0
 12 11  1  0
 13 14  2  0
 15 23  1  0
 15 10  1  0
 16 15  2  0
 17 13  1  0
 19 18  1  0
 20 19  1  0
 20 21  1  0
 22 21  1  6
 22 24  1  0
 22 23  1  0
 24 25  1  0
 26 24  2  0
M  END
$$$$
