IEM.pdb
     RDKit          3D

 26 25  0  0  1  0  0  0  0  0999 V2000
    6.7545  -12.1455   19.5710 C   0  0  0  0  0  0  0  0  0  0  0  0
    7.3858  -13.4512   19.2211 C   0  0  0  0  0  0  0  0  0  0  0  0
    7.7723  -14.2781   20.4563 C   0  0  2  0  0  0  0  0  0  0  0  0
    8.8863  -13.4437   21.1158 C   0  0  0  0  0  0  0  0  0  0  0  0
    8.3905  -15.5658   20.0048 C   0  0  2  0  0  0  0  0  0  0  0  0
    7.4209  -16.3083   19.2322 N   0  0  0  0  0  0  0  0  0  0  0  0
    8.9381  -16.3650   21.1218 C   0  0  0  0  0  0  0  0  0  0  0  0
    8.2676  -17.2563   21.6967 O   0  0  0  0  0  0  0  0  0  0  0  0
   10.2765  -16.1854   21.6363 N   0  0  0  0  0  0  0  0  0  0  0  0
   10.7933  -16.9370   22.7200 C   0  0  1  0  0  0  0  0  0  0  0  0
   12.2592  -17.1179   22.6841 C   0  0  0  0  0  0  0  0  0  0  0  0
   12.8435  -17.7209   21.4456 C   0  0  0  0  0  0  0  0  0  0  0  0
   14.3018  -17.8927   21.4575 C   0  0  0  0  0  0  0  0  0  0  0  0
   14.8669  -18.9834   21.8151 O   0  0  0  0  0  0  0  0  0  0  0  0
   10.3471  -16.4599   24.0497 C   0  0  0  0  0  0  0  0  0  0  0  0
   10.7058  -16.9836   25.1328 O   0  0  0  0  0  0  0  0  0  0  0  0
   15.1354  -16.8584   21.0734 O   0  0  0  0  0  0  0  0  0  0  0  0
    6.3519  -11.3366   25.9345 C   0  0  0  0  0  0  0  0  0  0  0  0
    7.2903  -12.4319   27.0224 S   0  0  0  0  0  0  0  0  0  0  0  0
    6.8745  -14.1520   26.6253 C   0  0  0  0  0  0  0  0  0  0  0  0
    7.4597  -14.5537   25.2818 C   0  0  0  0  0  0  0  0  0  0  0  0
    8.9069  -14.9724   25.4181 C   0  0  2  0  0  0  0  0  0  0  0  0
    9.4683  -15.3530   24.1221 N   0  0  0  0  0  0  0  0  0  0  0  0
    8.9423  -16.1583   26.2961 C   0  0  0  0  0  0  0  0  0  0  0  0
    9.1380  -17.4068   25.7384 O   0  0  0  0  0  0  0  0  0  0  0  0
    8.8003  -16.0807   27.5407 O   0  0  0  0  0  0  0  0  0  0  0  0
  1  2  1  0
  2  3  1  0
  3  4  1  1
  5  3  1  0
  5  6  1  1
  7  8  2  0
  7  5  1  0
  9  7  1  0
 10  9  1  0
 10 11  1  1
 12 13  1  0
 12 11  1  0
 13 14  2  0
 15 23  1  0
 15 10  1  0
 16 15  2  0
 17 13  1  0
 19 18  1  0
 20 19  1  0
 20 21  1  0
 22 21  1  6
 22 24  1  0
 22 23  1  0
 24 25  1  0
 26 24  2  0
M  END
$$$$
