FYC.pdb
     RDKit          3D

 30 31  0  0  1  0  0  0  0  0999 V2000
    5.7301  -17.8550   24.3025 N   0  0  0  0  0  0  0  0  0  0  0  0
    6.2774  -16.5621   24.6149 C   0  0  1  0  0  0  0  0  0  0  0  0
    6.1611  -16.2625   26.1109 C   0  0  0  0  0  0  0  0  0  0  0  0
    6.5249  -14.8784   26.4310 C   0  0  0  0  0  0  0  0  0  0  0  0
    7.8124  -14.5891   26.7973 C   0  0  0  0  0  0  0  0  0  0  0  0
    8.2285  -13.3131   27.1125 C   0  0  0  0  0  0  0  0  0  0  0  0
    7.3251  -12.2744   27.0621 C   0  0  0  0  0  0  0  0  0  0  0  0
    6.0363  -12.5536   26.6971 C   0  0  0  0  0  0  0  0  0  0  0  0
    5.6229  -13.8332   26.3820 C   0  0  0  0  0  0  0  0  0  0  0  0
    7.7249  -16.5566   24.3010 C   0  0  0  0  0  0  0  0  0  0  0  0
    8.3496  -17.6449   24.3376 O   0  0  0  0  0  0  0  0  0  0  0  0
    6.9361  -14.0212   17.7837 O   0  0  0  0  0  0  0  0  0  0  0  0
    7.7060  -14.1084   18.9259 C   0  0  0  0  0  0  0  0  0  0  0  0
    8.3509  -15.2887   19.2634 C   0  0  0  0  0  0  0  0  0  0  0  0
    9.1244  -15.3931   20.4016 C   0  0  0  0  0  0  0  0  0  0  0  0
    9.2879  -14.3318   21.2480 C   0  0  0  0  0  0  0  0  0  0  0  0
   10.0771  -14.3433   22.4607 C   0  0  0  0  0  0  0  0  0  0  0  0
    9.7826  -15.4402   23.4347 C   0  0  2  0  0  0  0  0  0  0  0  0
    8.4533  -15.4058   23.9620 N   0  0  0  0  0  0  0  0  0  0  0  0
   10.8147  -15.5953   24.4949 C   0  0  0  0  0  0  0  0  0  0  0  0
   12.0244  -15.8444   24.2246 O   0  0  0  0  0  0  0  0  0  0  0  0
    8.6366  -13.1461   20.9038 C   0  0  0  0  0  0  0  0  0  0  0  0
    7.8706  -13.0326   19.7822 C   0  0  0  0  0  0  0  0  0  0  0  0
   10.5086  -15.4729   25.8790 N   0  0  0  0  0  0  0  0  0  0  0  0
   11.4752  -15.7468   26.8928 C   0  0  1  0  0  0  0  0  0  0  0  0
   11.1442  -14.8470   28.0930 C   0  0  0  0  0  0  0  0  0  0  0  0
   10.5608  -13.2301   27.5175 S   0  0  0  0  0  0  0  0  0  0  0  0
   11.5746  -17.1523   27.2892 C   0  0  0  0  0  0  0  0  0  0  0  0
   10.9044  -18.0625   26.7406 O   0  0  0  0  0  0  0  0  0  0  0  0
   12.4325  -17.5393   28.3089 O   0  0  0  0  0  0  0  0  0  0  0  0
  2  1  1  1
  3  2  1  0
  3  4  1  0
  4  5  2  0
  5  6  1  0
  7  6  2  0
  8  7  1  0
  9  4  1  0
  9  8  2  0
 10 19  1  0
 10  2  1  0
 11 10  2  0
 13 12  1  0
 14 13  2  0
 15 14  1  0
 16 22  1  0
 16 15  2  0
 18 17  1  1
 17 16  1  0
 18 19  1  0
 20 18  1  0
 21 20  2  0
 22 23  2  0
 23 13  1  0
 24 20  1  0
 25 24  1  0
 25 28  1  0
 26 27  1  0
 25 26  1  1
 28 30  1  0
 29 28  2  0
M  END
$$$$
