FYC.pdb
     RDKit          3D

 30 31  0  0  1  0  0  0  0  0999 V2000
    6.4751  -18.2845   26.1465 N   0  0  0  0  0  0  0  0  0  0  0  0
    6.5814  -16.8696   25.9109 C   0  0  1  0  0  0  0  0  0  0  0  0
    7.5520  -16.2190   26.8988 C   0  0  0  0  0  0  0  0  0  0  0  0
    7.4010  -14.7612   26.9487 C   0  0  0  0  0  0  0  0  0  0  0  0
    8.3546  -14.0077   27.5801 C   0  0  0  0  0  0  0  0  0  0  0  0
    8.2810  -12.6337   27.6675 C   0  0  0  0  0  0  0  0  0  0  0  0
    7.2113  -11.9754   27.1020 C   0  0  0  0  0  0  0  0  0  0  0  0
    6.2535  -12.7198   26.4690 C   0  0  0  0  0  0  0  0  0  0  0  0
    6.3303  -14.0962   26.3833 C   0  0  0  0  0  0  0  0  0  0  0  0
    7.1467  -16.6412   24.5611 C   0  0  0  0  0  0  0  0  0  0  0  0
    8.0513  -17.4100   24.1529 O   0  0  0  0  0  0  0  0  0  0  0  0
    8.9377  -13.2689   16.5682 O   0  0  0  0  0  0  0  0  0  0  0  0
    8.4030  -13.4952   17.8204 C   0  0  0  0  0  0  0  0  0  0  0  0
    8.5980  -12.5912   18.8535 C   0  0  0  0  0  0  0  0  0  0  0  0
    8.0705  -12.8020   20.1114 C   0  0  0  0  0  0  0  0  0  0  0  0
    7.3301  -13.9166   20.3924 C   0  0  0  0  0  0  0  0  0  0  0  0
    6.7366  -14.2245   21.6756 C   0  0  0  0  0  0  0  0  0  0  0  0
    7.4232  -15.2752   22.4902 C   0  0  2  0  0  0  0  0  0  0  0  0
    6.7359  -15.6133   23.6984 N   0  0  0  0  0  0  0  0  0  0  0  0
    8.8713  -15.0142   22.7097 C   0  0  0  0  0  0  0  0  0  0  0  0
    9.2810  -14.1428   23.5290 O   0  0  0  0  0  0  0  0  0  0  0  0
    7.1368  -14.8235   19.3490 C   0  0  0  0  0  0  0  0  0  0  0  0
    7.6534  -14.6246   18.1034 C   0  0  0  0  0  0  0  0  0  0  0  0
    9.8873  -15.7271   22.0141 N   0  0  0  0  0  0  0  0  0  0  0  0
   11.2699  -15.4039   22.1586 C   0  0  1  0  0  0  0  0  0  0  0  0
   11.6031  -15.4862   23.6560 C   0  0  0  0  0  0  0  0  0  0  0  0
   10.9342  -17.0169   24.3599 S   0  0  0  0  0  0  0  0  0  0  0  0
   12.1834  -16.2239   21.3615 C   0  0  0  0  0  0  0  0  0  0  0  0
   13.4183  -16.0008   21.2986 O   0  0  0  0  0  0  0  0  0  0  0  0
   11.7076  -17.3023   20.6293 O   0  0  0  0  0  0  0  0  0  0  0  0
  2  1  1  1
  3  2  1  0
  3  4  1  0
  4  5  2  0
  5  6  1  0
  7  6  2  0
  8  7  1  0
  9  4  1  0
  9  8  2  0
 10 19  1  0
 10  2  1  0
 11 10  2  0
 13 12  1  0
 14 13  2  0
 15 14  1  0
 16 22  1  0
 16 15  2  0
 18 17  1  1
 17 16  1  0
 18 19  1  0
 20 18  1  0
 21 20  2  0
 22 23  2  0
 23 13  1  0
 24 20  1  0
 25 24  1  0
 25 28  1  0
 26 27  1  0
 25 26  1  1
 28 30  1  0
 29 28  2  0
M  END
$$$$
