FYC.pdb
     RDKit          3D

 30 31  0  0  1  0  0  0  0  0999 V2000
    6.0339  -18.5709   25.7697 N   0  0  0  0  0  0  0  0  0  0  0  0
    6.3109  -17.1598   25.7464 C   0  0  1  0  0  0  0  0  0  0  0  0
    7.2257  -16.7598   26.9059 C   0  0  0  0  0  0  0  0  0  0  0  0
    7.4023  -15.3070   26.9995 C   0  0  0  0  0  0  0  0  0  0  0  0
    6.3684  -14.4800   26.6492 C   0  0  0  0  0  0  0  0  0  0  0  0
    6.4599  -13.1058   26.7108 C   0  0  0  0  0  0  0  0  0  0  0  0
    7.6321  -12.5236   27.1402 C   0  0  0  0  0  0  0  0  0  0  0  0
    8.6708  -13.3417   27.4924 C   0  0  0  0  0  0  0  0  0  0  0  0
    8.5757  -14.7182   27.4294 C   0  0  0  0  0  0  0  0  0  0  0  0
    7.0450  -16.8274   24.5037 C   0  0  0  0  0  0  0  0  0  0  0  0
    7.8675  -17.6619   24.0528 O   0  0  0  0  0  0  0  0  0  0  0  0
    9.0499  -13.1081   16.6674 O   0  0  0  0  0  0  0  0  0  0  0  0
    8.5429  -13.3794   17.9221 C   0  0  0  0  0  0  0  0  0  0  0  0
    7.9301  -14.5925   18.1971 C   0  0  0  0  0  0  0  0  0  0  0  0
    7.4178  -14.8801   19.4460 C   0  0  0  0  0  0  0  0  0  0  0  0
    7.4938  -13.9762   20.4691 C   0  0  0  0  0  0  0  0  0  0  0  0
    6.9886  -14.1854   21.8088 C   0  0  0  0  0  0  0  0  0  0  0  0
    7.5569  -15.3485   22.5591 C   0  0  2  0  0  0  0  0  0  0  0  0
    6.8824  -15.6309   23.7885 N   0  0  0  0  0  0  0  0  0  0  0  0
    9.0354  -15.2973   22.7164 C   0  0  0  0  0  0  0  0  0  0  0  0
    9.8128  -15.1654   21.7282 O   0  0  0  0  0  0  0  0  0  0  0  0
    8.1115  -12.7566   20.1871 C   0  0  0  0  0  0  0  0  0  0  0  0
    8.6206  -12.4629   18.9573 C   0  0  0  0  0  0  0  0  0  0  0  0
    9.6695  -15.3923   23.9866 N   0  0  0  0  0  0  0  0  0  0  0  0
   11.0886  -15.3359   24.1278 C   0  0  1  0  0  0  0  0  0  0  0  0
   11.3978  -15.3507   25.6324 C   0  0  0  0  0  0  0  0  0  0  0  0
   10.4185  -14.0841   26.4824 S   0  0  0  0  0  0  0  0  0  0  0  0
   11.8228  -16.3861   23.4204 C   0  0  0  0  0  0  0  0  0  0  0  0
   11.2502  -17.3009   22.7771 O   0  0  0  0  0  0  0  0  0  0  0  0
   13.2102  -16.4098   23.4349 O   0  0  0  0  0  0  0  0  0  0  0  0
  2  1  1  6
  3  2  1  0
  3  4  1  0
  4  5  2  0
  5  6  1  0
  7  6  2  0
  8  7  1  0
  9  4  1  0
  9  8  2  0
 10 19  1  0
 10  2  1  0
 11 10  2  0
 13 12  1  0
 14 13  2  0
 15 14  1  0
 16 22  1  0
 16 15  2  0
 18 17  1  1
 17 16  1  0
 18 19  1  0
 20 18  1  0
 21 20  2  0
 22 23  2  0
 23 13  1  0
 24 20  1  0
 25 24  1  0
 25 28  1  0
 26 27  1  0
 25 26  1  1
 28 30  1  0
 29 28  2  0
M  END
$$$$
