FYC.pdb
     RDKit          3D

 30 31  0  0  1  0  0  0  0  0999 V2000
    6.4457  -18.8042   25.8418 N   0  0  0  0  0  0  0  0  0  0  0  0
    6.5026  -17.3673   25.8168 C   0  0  1  0  0  0  0  0  0  0  0  0
    7.2753  -16.8265   27.0217 C   0  0  0  0  0  0  0  0  0  0  0  0
    7.1689  -15.3689   27.1422 C   0  0  0  0  0  0  0  0  0  0  0  0
    8.1979  -14.6641   27.7080 C   0  0  0  0  0  0  0  0  0  0  0  0
    8.1698  -13.2936   27.8552 C   0  0  0  0  0  0  0  0  0  0  0  0
    7.0692  -12.5882   27.4207 C   0  0  0  0  0  0  0  0  0  0  0  0
    6.0361  -13.2837   26.8540 C   0  0  0  0  0  0  0  0  0  0  0  0
    6.0676  -14.6567   26.7082 C   0  0  0  0  0  0  0  0  0  0  0  0
    7.2483  -16.9298   24.6142 C   0  0  0  0  0  0  0  0  0  0  0  0
    8.1720  -17.6625   24.1829 O   0  0  0  0  0  0  0  0  0  0  0  0
    8.7006  -13.0098   16.7538 O   0  0  0  0  0  0  0  0  0  0  0  0
    8.2747  -13.3133   18.0311 C   0  0  0  0  0  0  0  0  0  0  0  0
    7.4908  -14.4307   18.2754 C   0  0  0  0  0  0  0  0  0  0  0  0
    7.0565  -14.7486   19.5463 C   0  0  0  0  0  0  0  0  0  0  0  0
    7.3827  -13.9711   20.6227 C   0  0  0  0  0  0  0  0  0  0  0  0
    6.9773  -14.2219   21.9888 C   0  0  0  0  0  0  0  0  0  0  0  0
    7.5716  -15.4268   22.6476 C   0  0  2  0  0  0  0  0  0  0  0  0
    6.9901  -15.7396   23.9166 N   0  0  0  0  0  0  0  0  0  0  0  0
    9.0588  -15.4180   22.6864 C   0  0  0  0  0  0  0  0  0  0  0  0
    9.7583  -15.3117   21.6386 O   0  0  0  0  0  0  0  0  0  0  0  0
    8.1719  -12.8475   20.3714 C   0  0  0  0  0  0  0  0  0  0  0  0
    8.6060  -12.5248   19.1203 C   0  0  0  0  0  0  0  0  0  0  0  0
    9.7892  -15.5276   23.9024 N   0  0  0  0  0  0  0  0  0  0  0  0
   11.2150  -15.4709   23.9341 C   0  0  1  0  0  0  0  0  0  0  0  0
   11.6176  -14.8829   25.2950 C   0  0  0  0  0  0  0  0  0  0  0  0
   11.0853  -15.9850   26.6321 S   0  0  0  0  0  0  0  0  0  0  0  0
   11.8904  -16.7445   23.6808 C   0  0  0  0  0  0  0  0  0  0  0  0
   13.1357  -16.8381   23.5426 O   0  0  0  0  0  0  0  0  0  0  0  0
   11.1629  -17.9220   23.5819 O   0  0  0  0  0  0  0  0  0  0  0  0
  2  1  1  1
  3  2  1  0
  3  4  1  0
  4  5  2  0
  5  6  1  0
  7  6  2  0
  8  7  1  0
  9  4  1  0
  9  8  2  0
 10 19  1  0
 10  2  1  0
 11 10  2  0
 13 12  1  0
 14 13  2  0
 15 14  1  0
 16 22  1  0
 16 15  2  0
 18 17  1  1
 17 16  1  0
 18 19  1  0
 20 18  1  0
 21 20  2  0
 22 23  2  0
 23 13  1  0
 24 20  1  0
 25 24  1  0
 25 28  1  0
 26 27  1  0
 25 26  1  1
 28 30  1  0
 29 28  2  0
M  END
$$$$
