FYC.pdb
     RDKit          3D

 30 31  0  0  1  0  0  0  0  0999 V2000
    5.3726  -17.4310   24.2459 N   0  0  0  0  0  0  0  0  0  0  0  0
    6.1865  -16.2499   24.3530 C   0  0  1  0  0  0  0  0  0  0  0  0
    6.5788  -15.9826   25.8076 C   0  0  0  0  0  0  0  0  0  0  0  0
    6.7463  -14.5523   26.0847 C   0  0  0  0  0  0  0  0  0  0  0  0
    5.6444  -13.7395   26.1141 C   0  0  0  0  0  0  0  0  0  0  0  0
    5.7231  -12.3866   26.3676 C   0  0  0  0  0  0  0  0  0  0  0  0
    6.9527  -11.8121   26.6032 C   0  0  0  0  0  0  0  0  0  0  0  0
    8.0595  -12.6161   26.5760 C   0  0  0  0  0  0  0  0  0  0  0  0
    7.9769  -13.9712   26.3217 C   0  0  0  0  0  0  0  0  0  0  0  0
    7.4521  -16.4611   23.6131 C   0  0  0  0  0  0  0  0  0  0  0  0
    7.3910  -16.7594   22.3952 O   0  0  0  0  0  0  0  0  0  0  0  0
    7.8318  -13.9122   17.7481 O   0  0  0  0  0  0  0  0  0  0  0  0
    8.2318  -13.9898   19.0668 C   0  0  0  0  0  0  0  0  0  0  0  0
    8.0641  -12.9158   19.9278 C   0  0  0  0  0  0  0  0  0  0  0  0
    8.4584  -12.9765   21.2490 C   0  0  0  0  0  0  0  0  0  0  0  0
    9.0338  -14.1039   21.7665 C   0  0  0  0  0  0  0  0  0  0  0  0
    9.4778  -14.2634   23.1343 C   0  0  0  0  0  0  0  0  0  0  0  0
    9.8144  -15.6562   23.5654 C   0  0  2  0  0  0  0  0  0  0  0  0
    8.7281  -16.3493   24.1866 N   0  0  0  0  0  0  0  0  0  0  0  0
   11.0770  -15.7548   24.3459 C   0  0  0  0  0  0  0  0  0  0  0  0
   12.0893  -15.0454   24.0801 O   0  0  0  0  0  0  0  0  0  0  0  0
    9.2004  -15.1820   20.8957 C   0  0  0  0  0  0  0  0  0  0  0  0
    8.8144  -15.1322   19.5894 C   0  0  0  0  0  0  0  0  0  0  0  0
   11.2272  -16.6511   25.4406 N   0  0  0  0  0  0  0  0  0  0  0  0
   11.2842  -16.1910   26.7905 C   0  0  1  0  0  0  0  0  0  0  0  0
   10.1364  -15.1876   26.9787 C   0  0  0  0  0  0  0  0  0  0  0  0
   10.3053  -14.3391   28.5716 S   0  0  0  0  0  0  0  0  0  0  0  0
   11.2452  -17.2450   27.8054 C   0  0  0  0  0  0  0  0  0  0  0  0
   12.1598  -17.4089   28.6510 O   0  0  0  0  0  0  0  0  0  0  0  0
   10.1716  -18.1217   27.8718 O   0  0  0  0  0  0  0  0  0  0  0  0
  2  1  1  1
  3  2  1  0
  3  4  1  0
  4  5  2  0
  5  6  1  0
  7  6  2  0
  8  7  1  0
  9  4  1  0
  9  8  2  0
 10 19  1  0
 10  2  1  0
 11 10  2  0
 13 12  1  0
 14 13  2  0
 15 14  1  0
 16 22  1  0
 16 15  2  0
 18 17  1  1
 17 16  1  0
 18 19  1  0
 20 18  1  0
 21 20  2  0
 22 23  2  0
 23 13  1  0
 24 20  1  0
 25 24  1  0
 25 28  1  0
 26 27  1  0
 25 26  1  1
 28 30  1  0
 29 28  2  0
M  END
$$$$
