FYC.pdb
     RDKit          3D

 30 31  0  0  1  0  0  0  0  0999 V2000
    5.7615  -17.4253   24.3016 N   0  0  0  0  0  0  0  0  0  0  0  0
    6.4648  -16.1753   24.4092 C   0  0  1  0  0  0  0  0  0  0  0  0
    6.4833  -15.6775   25.8559 C   0  0  0  0  0  0  0  0  0  0  0  0
    6.5698  -14.2160   25.9404 C   0  0  0  0  0  0  0  0  0  0  0  0
    5.4812  -13.5015   26.3647 C   0  0  0  0  0  0  0  0  0  0  0  0
    5.4871  -12.1268   26.4696 C   0  0  0  0  0  0  0  0  0  0  0  0
    6.6264  -11.4272   26.1380 C   0  0  0  0  0  0  0  0  0  0  0  0
    7.7192  -12.1324   25.7129 C   0  0  0  0  0  0  0  0  0  0  0  0
    7.7098  -13.5096   25.6090 C   0  0  0  0  0  0  0  0  0  0  0  0
    7.8797  -16.3769   24.0207 C   0  0  0  0  0  0  0  0  0  0  0  0
    8.3378  -17.5457   24.0129 O   0  0  0  0  0  0  0  0  0  0  0  0
    7.0056  -13.7814   17.7439 O   0  0  0  0  0  0  0  0  0  0  0  0
    7.8603  -13.9873   18.8079 C   0  0  0  0  0  0  0  0  0  0  0  0
    8.4379  -15.2283   19.0293 C   0  0  0  0  0  0  0  0  0  0  0  0
    9.2946  -15.4514   20.0882 C   0  0  0  0  0  0  0  0  0  0  0  0
    9.6109  -14.4529   20.9672 C   0  0  0  0  0  0  0  0  0  0  0  0
   10.4967  -14.5887   22.1032 C   0  0  0  0  0  0  0  0  0  0  0  0
   10.0762  -15.5595   23.1613 C   0  0  2  0  0  0  0  0  0  0  0  0
    8.7524  -15.3396   23.6568 N   0  0  0  0  0  0  0  0  0  0  0  0
   11.0742  -15.7295   24.2514 C   0  0  0  0  0  0  0  0  0  0  0  0
   12.2579  -16.1123   24.0260 O   0  0  0  0  0  0  0  0  0  0  0  0
    9.0268  -13.2057   20.7398 C   0  0  0  0  0  0  0  0  0  0  0  0
    8.1796  -12.9751   19.6973 C   0  0  0  0  0  0  0  0  0  0  0  0
   10.7627  -15.4721   25.6156 N   0  0  0  0  0  0  0  0  0  0  0  0
   11.7031  -15.7102   26.6625 C   0  0  1  0  0  0  0  0  0  0  0  0
   11.3222  -14.7931   27.8345 C   0  0  0  0  0  0  0  0  0  0  0  0
    9.5270  -14.5455   27.8740 S   0  0  0  0  0  0  0  0  0  0  0  0
   11.8134  -17.1059   27.0892 C   0  0  0  0  0  0  0  0  0  0  0  0
   12.6412  -17.4894   27.9531 O   0  0  0  0  0  0  0  0  0  0  0  0
   10.9886  -18.0786   26.5424 O   0  0  0  0  0  0  0  0  0  0  0  0
  2  1  1  1
  3  2  1  0
  3  4  1  0
  4  5  2  0
  5  6  1  0
  7  6  2  0
  8  7  1  0
  9  4  1  0
  9  8  2  0
 10 19  1  0
 10  2  1  0
 11 10  2  0
 13 12  1  0
 14 13  2  0
 15 14  1  0
 16 22  1  0
 16 15  2  0
 18 17  1  1
 17 16  1  0
 18 19  1  0
 20 18  1  0
 21 20  2  0
 22 23  2  0
 23 13  1  0
 24 20  1  0
 25 24  1  0
 25 28  1  0
 26 27  1  0
 25 26  1  1
 28 30  1  0
 29 28  2  0
M  END
$$$$
