FYC.pdb
     RDKit          3D

 30 31  0  0  1  0  0  0  0  0999 V2000
    6.0349  -18.1314   26.0852 N   0  0  0  0  0  0  0  0  0  0  0  0
    6.2996  -16.7302   25.8976 C   0  0  1  0  0  0  0  0  0  0  0  0
    7.2386  -16.1980   26.9821 C   0  0  0  0  0  0  0  0  0  0  0  0
    7.3890  -14.7405   26.9215 C   0  0  0  0  0  0  0  0  0  0  0  0
    6.2712  -13.9508   26.8703 C   0  0  0  0  0  0  0  0  0  0  0  0
    6.3332  -12.5747   26.8118 C   0  0  0  0  0  0  0  0  0  0  0  0
    7.5619  -11.9519   26.8036 C   0  0  0  0  0  0  0  0  0  0  0  0
    8.6844  -12.7326   26.8544 C   0  0  0  0  0  0  0  0  0  0  0  0
    8.6186  -14.1110   26.9130 C   0  0  0  0  0  0  0  0  0  0  0  0
    7.0009  -16.5349   24.6077 C   0  0  0  0  0  0  0  0  0  0  0  0
    7.9234  -17.3294   24.3015 O   0  0  0  0  0  0  0  0  0  0  0  0
    9.1883  -13.7769   16.4927 O   0  0  0  0  0  0  0  0  0  0  0  0
    8.6248  -13.8768   17.7487 C   0  0  0  0  0  0  0  0  0  0  0  0
    8.8339  -12.8944   18.7048 C   0  0  0  0  0  0  0  0  0  0  0  0
    8.2780  -12.9787   19.9653 C   0  0  0  0  0  0  0  0  0  0  0  0
    7.4942  -14.0396   20.3254 C   0  0  0  0  0  0  0  0  0  0  0  0
    6.8686  -14.2161   21.6181 C   0  0  0  0  0  0  0  0  0  0  0  0
    7.4476  -15.2799   22.4968 C   0  0  2  0  0  0  0  0  0  0  0  0
    6.7015  -15.5117   23.6950 N   0  0  0  0  0  0  0  0  0  0  0  0
    8.9046  -15.1211   22.7518 C   0  0  0  0  0  0  0  0  0  0  0  0
    9.3500  -14.6474   23.8361 O   0  0  0  0  0  0  0  0  0  0  0  0
    7.2869  -15.0256   19.3594 C   0  0  0  0  0  0  0  0  0  0  0  0
    7.8312  -14.9519   18.1120 C   0  0  0  0  0  0  0  0  0  0  0  0
    9.8898  -15.4918   21.7945 N   0  0  0  0  0  0  0  0  0  0  0  0
   11.2779  -15.5454   22.1221 C   0  0  1  0  0  0  0  0  0  0  0  0
   11.4297  -16.5125   23.3060 C   0  0  0  0  0  0  0  0  0  0  0  0
   11.5035  -15.5858   24.8622 S   0  0  0  0  0  0  0  0  0  0  0  0
   12.1611  -15.9132   21.0144 C   0  0  0  0  0  0  0  0  0  0  0  0
   11.7301  -16.3382   19.9134 O   0  0  0  0  0  0  0  0  0  0  0  0
   13.5384  -15.8033   21.1432 O   0  0  0  0  0  0  0  0  0  0  0  0
  2  1  1  1
  3  2  1  0
  3  4  1  0
  4  5  2  0
  5  6  1  0
  7  6  2  0
  8  7  1  0
  9  4  1  0
  9  8  2  0
 10 19  1  0
 10  2  1  0
 11 10  2  0
 13 12  1  0
 14 13  2  0
 15 14  1  0
 16 22  1  0
 16 15  2  0
 18 17  1  1
 17 16  1  0
 18 19  1  0
 20 18  1  0
 21 20  2  0
 22 23  2  0
 23 13  1  0
 24 20  1  0
 25 24  1  0
 25 28  1  0
 26 27  1  0
 25 26  1  1
 28 30  1  0
 29 28  2  0
M  END
$$$$
