FYC.pdb
     RDKit          3D

 30 31  0  0  1  0  0  0  0  0999 V2000
    5.3391  -17.7064   21.6273 N   0  0  0  0  0  0  0  0  0  0  0  0
    6.2599  -16.6344   21.3594 C   0  0  1  0  0  0  0  0  0  0  0  0
    5.5534  -15.4596   20.6798 C   0  0  0  0  0  0  0  0  0  0  0  0
    6.4902  -14.4076   20.2720 C   0  0  0  0  0  0  0  0  0  0  0  0
    6.6486  -13.3034   21.0665 C   0  0  0  0  0  0  0  0  0  0  0  0
    7.5097  -12.2746   20.7491 C   0  0  0  0  0  0  0  0  0  0  0  0
    8.2490  -12.3437   19.5888 C   0  0  0  0  0  0  0  0  0  0  0  0
    8.0975  -13.4431   18.7885 C   0  0  0  0  0  0  0  0  0  0  0  0
    7.2339  -14.4721   19.1096 C   0  0  0  0  0  0  0  0  0  0  0  0
    6.7903  -16.1155   22.6413 C   0  0  0  0  0  0  0  0  0  0  0  0
    6.5794  -14.9130   22.9336 O   0  0  0  0  0  0  0  0  0  0  0  0
   11.3278  -13.9577   29.7540 O   0  0  0  0  0  0  0  0  0  0  0  0
   10.4845  -14.5074   28.8098 C   0  0  0  0  0  0  0  0  0  0  0  0
   10.3304  -15.8814   28.7042 C   0  0  0  0  0  0  0  0  0  0  0  0
    9.4915  -16.4475   27.7659 C   0  0  0  0  0  0  0  0  0  0  0  0
    8.7738  -15.6731   26.8970 C   0  0  0  0  0  0  0  0  0  0  0  0
    7.8707  -16.1721   25.8825 C   0  0  0  0  0  0  0  0  0  0  0  0
    8.4367  -16.3244   24.5058 C   0  0  2  0  0  0  0  0  0  0  0  0
    7.5203  -16.8843   23.5609 N   0  0  0  0  0  0  0  0  0  0  0  0
    9.7680  -16.9875   24.4737 C   0  0  0  0  0  0  0  0  0  0  0  0
    9.9342  -18.1814   24.8551 O   0  0  0  0  0  0  0  0  0  0  0  0
    8.9325  -14.2907   27.0074 C   0  0  0  0  0  0  0  0  0  0  0  0
    9.7584  -13.7218   27.9305 C   0  0  0  0  0  0  0  0  0  0  0  0
   10.9384  -16.3232   24.0120 N   0  0  0  0  0  0  0  0  0  0  0  0
   12.2003  -16.9853   23.9323 C   0  0  1  0  0  0  0  0  0  0  0  0
   12.9759  -16.3493   22.7687 C   0  0  0  0  0  0  0  0  0  0  0  0
   12.0881  -16.6124   21.2104 S   0  0  0  0  0  0  0  0  0  0  0  0
   12.9846  -16.9729   25.1681 C   0  0  0  0  0  0  0  0  0  0  0  0
   14.1218  -17.4995   25.2570 O   0  0  0  0  0  0  0  0  0  0  0  0
   12.4888  -16.3649   26.3127 O   0  0  0  0  0  0  0  0  0  0  0  0
  2  1  1  1
  3  2  1  0
  3  4  1  0
  4  5  2  0
  5  6  1  0
  7  6  2  0
  8  7  1  0
  9  4  1  0
  9  8  2  0
 10 19  1  0
 10  2  1  0
 11 10  2  0
 13 12  1  0
 14 13  2  0
 15 14  1  0
 16 22  1  0
 16 15  2  0
 18 17  1  1
 17 16  1  0
 18 19  1  0
 20 18  1  0
 21 20  2  0
 22 23  2  0
 23 13  1  0
 24 20  1  0
 25 24  1  0
 25 28  1  0
 26 27  1  0
 25 26  1  6
 28 30  1  0
 29 28  2  0
M  END
$$$$
