FYC.pdb
     RDKit          3D

 30 31  0  0  1  0  0  0  0  0999 V2000
    5.5745  -17.7799   24.2957 N   0  0  0  0  0  0  0  0  0  0  0  0
    6.1964  -16.5128   24.5723 C   0  0  1  0  0  0  0  0  0  0  0  0
    6.3056  -16.2712   26.0793 C   0  0  0  0  0  0  0  0  0  0  0  0
    6.6205  -14.8747   26.3974 C   0  0  0  0  0  0  0  0  0  0  0  0
    7.8591  -14.5600   26.8898 C   0  0  0  0  0  0  0  0  0  0  0  0
    8.2275  -13.2710   27.2115 C   0  0  0  0  0  0  0  0  0  0  0  0
    7.3250  -12.2451   27.0368 C   0  0  0  0  0  0  0  0  0  0  0  0
    6.0849  -12.5497   26.5453 C   0  0  0  0  0  0  0  0  0  0  0  0
    5.7192  -13.8422   26.2240 C   0  0  0  0  0  0  0  0  0  0  0  0
    7.5829  -16.5261   24.0517 C   0  0  0  0  0  0  0  0  0  0  0  0
    8.1883  -17.6241   23.9886 O   0  0  0  0  0  0  0  0  0  0  0  0
    7.0619  -14.1800   17.1856 O   0  0  0  0  0  0  0  0  0  0  0  0
    7.7469  -14.2166   18.3833 C   0  0  0  0  0  0  0  0  0  0  0  0
    8.4511  -15.3473   18.7684 C   0  0  0  0  0  0  0  0  0  0  0  0
    9.1412  -15.4007   19.9624 C   0  0  0  0  0  0  0  0  0  0  0  0
    9.1594  -14.3355   20.8195 C   0  0  0  0  0  0  0  0  0  0  0  0
    9.8526  -14.2955   22.0889 C   0  0  0  0  0  0  0  0  0  0  0  0
    9.5770  -15.4238   23.0322 C   0  0  2  0  0  0  0  0  0  0  0  0
    8.2733  -15.3832   23.6196 N   0  0  0  0  0  0  0  0  0  0  0  0
   10.6511  -15.6417   24.0381 C   0  0  0  0  0  0  0  0  0  0  0  0
   11.7958  -15.1171   23.9242 O   0  0  0  0  0  0  0  0  0  0  0  0
    8.4490  -13.1997   20.4271 C   0  0  0  0  0  0  0  0  0  0  0  0
    7.7643  -13.1369   19.2503 C   0  0  0  0  0  0  0  0  0  0  0  0
   10.4605  -16.4523   25.1918 N   0  0  0  0  0  0  0  0  0  0  0  0
   11.1290  -16.1813   26.4234 C   0  0  1  0  0  0  0  0  0  0  0  0
   10.6857  -14.7848   26.8849 C   0  0  0  0  0  0  0  0  0  0  0  0
   11.4190  -14.3994   28.4972 S   0  0  0  0  0  0  0  0  0  0  0  0
   10.9233  -17.1816   27.4720 C   0  0  0  0  0  0  0  0  0  0  0  0
    9.9221  -17.9401   27.5011 O   0  0  0  0  0  0  0  0  0  0  0  0
   11.8481  -17.3318   28.4956 O   0  0  0  0  0  0  0  0  0  0  0  0
  2  1  1  1
  3  2  1  0
  3  4  1  0
  4  5  2  0
  5  6  1  0
  7  6  2  0
  8  7  1  0
  9  4  1  0
  9  8  2  0
 10 19  1  0
 10  2  1  0
 11 10  2  0
 13 12  1  0
 14 13  2  0
 15 14  1  0
 16 22  1  0
 16 15  2  0
 18 17  1  1
 17 16  1  0
 18 19  1  0
 20 18  1  0
 21 20  2  0
 22 23  2  0
 23 13  1  0
 24 20  1  0
 25 24  1  0
 25 28  1  0
 26 27  1  0
 25 26  1  1
 28 30  1  0
 29 28  2  0
M  END
$$$$
