FYC.pdb
     RDKit          3D

 30 31  0  0  1  0  0  0  0  0999 V2000
   10.9376  -16.5956   20.1039 N   0  0  0  0  0  0  0  0  0  0  0  0
   10.1736  -15.7103   20.9412 C   0  0  1  0  0  0  0  0  0  0  0  0
    8.6717  -15.9224   20.7396 C   0  0  0  0  0  0  0  0  0  0  0  0
    7.9539  -14.6598   20.5371 C   0  0  0  0  0  0  0  0  0  0  0  0
    6.5939  -14.6778   20.3762 C   0  0  0  0  0  0  0  0  0  0  0  0
    5.8515  -13.5326   20.1816 C   0  0  0  0  0  0  0  0  0  0  0  0
    6.4875  -12.3112   20.1447 C   0  0  0  0  0  0  0  0  0  0  0  0
    7.8461  -12.2831   20.3045 C   0  0  0  0  0  0  0  0  0  0  0  0
    8.5868  -13.4325   20.4993 C   0  0  0  0  0  0  0  0  0  0  0  0
   10.4506  -16.0231   22.3622 C   0  0  0  0  0  0  0  0  0  0  0  0
   11.1551  -17.0277   22.6278 O   0  0  0  0  0  0  0  0  0  0  0  0
   10.5854  -15.7905   31.2303 O   0  0  0  0  0  0  0  0  0  0  0  0
   10.3582  -15.5006   29.9001 C   0  0  0  0  0  0  0  0  0  0  0  0
   10.9986  -14.4373   29.2820 C   0  0  0  0  0  0  0  0  0  0  0  0
   10.7830  -14.1336   27.9531 C   0  0  0  0  0  0  0  0  0  0  0  0
    9.9246  -14.8724   27.1869 C   0  0  0  0  0  0  0  0  0  0  0  0
    9.6346  -14.6336   25.7896 C   0  0  0  0  0  0  0  0  0  0  0  0
   10.3020  -15.5440   24.8074 C   0  0  2  0  0  0  0  0  0  0  0  0
    9.9744  -15.2652   23.4432 N   0  0  0  0  0  0  0  0  0  0  0  0
   10.1733  -16.9876   25.1431 C   0  0  0  0  0  0  0  0  0  0  0  0
    9.0890  -17.6197   24.9904 O   0  0  0  0  0  0  0  0  0  0  0  0
    9.2826  -15.9416   27.8138 C   0  0  0  0  0  0  0  0  0  0  0  0
    9.4886  -16.2498   29.1254 C   0  0  0  0  0  0  0  0  0  0  0  0
   11.2599  -17.7497   25.6559 N   0  0  0  0  0  0  0  0  0  0  0  0
   11.1255  -19.1336   25.9780 C   0  0  1  0  0  0  0  0  0  0  0  0
   10.8310  -19.8799   24.6680 C   0  0  0  0  0  0  0  0  0  0  0  0
   12.2169  -19.6868   23.5157 S   0  0  0  0  0  0  0  0  0  0  0  0
   12.2678  -19.7186   26.6818 C   0  0  0  0  0  0  0  0  0  0  0  0
   12.2867  -20.9125   27.0729 O   0  0  0  0  0  0  0  0  0  0  0  0
   13.3975  -18.9582   26.9486 O   0  0  0  0  0  0  0  0  0  0  0  0
  2  1  1  6
  3  2  1  0
  3  4  1  0
  4  5  2  0
  5  6  1  0
  7  6  2  0
  8  7  1  0
  9  4  1  0
  9  8  2  0
 10 19  1  0
 10  2  1  0
 11 10  2  0
 13 12  1  0
 14 13  2  0
 15 14  1  0
 16 22  1  0
 16 15  2  0
 18 17  1  1
 17 16  1  0
 18 19  1  0
 20 18  1  0
 21 20  2  0
 22 23  2  0
 23 13  1  0
 24 20  1  0
 25 24  1  0
 25 28  1  0
 26 27  1  0
 25 26  1  6
 28 30  1  0
 29 28  2  0
M  END
$$$$
