FYC.pdb
     RDKit          3D

 30 31  0  0  1  0  0  0  0  0999 V2000
    6.7297  -16.0739   24.5712 N   0  0  0  0  0  0  0  0  0  0  0  0
    8.0503  -15.5138   24.4667 C   0  0  1  0  0  0  0  0  0  0  0  0
    8.4790  -14.8666   25.7852 C   0  0  0  0  0  0  0  0  0  0  0  0
    7.6505  -13.7072   26.1311 C   0  0  0  0  0  0  0  0  0  0  0  0
    8.2306  -12.4701   26.2248 C   0  0  0  0  0  0  0  0  0  0  0  0
    7.5169  -11.3349   26.5452 C   0  0  0  0  0  0  0  0  0  0  0  0
    6.1637  -11.4305   26.7841 C   0  0  0  0  0  0  0  0  0  0  0  0
    5.5751  -12.6624   26.6929 C   0  0  0  0  0  0  0  0  0  0  0  0
    6.2931  -13.7976   26.3717 C   0  0  0  0  0  0  0  0  0  0  0  0
    9.0212  -16.6005   24.2018 C   0  0  0  0  0  0  0  0  0  0  0  0
   10.2469  -16.3400   24.2781 O   0  0  0  0  0  0  0  0  0  0  0  0
    9.7444  -20.3725   29.8225 O   0  0  0  0  0  0  0  0  0  0  0  0
    9.6308  -20.3446   28.4473 C   0  0  0  0  0  0  0  0  0  0  0  0
    8.3874  -20.3549   27.8336 C   0  0  0  0  0  0  0  0  0  0  0  0
    8.2558  -20.3274   26.4600 C   0  0  0  0  0  0  0  0  0  0  0  0
    9.3517  -20.2886   25.6432 C   0  0  0  0  0  0  0  0  0  0  0  0
    9.3157  -20.2566   24.1970 C   0  0  0  0  0  0  0  0  0  0  0  0
    9.6102  -18.9381   23.5540 C   0  0  2  0  0  0  0  0  0  0  0  0
    8.6608  -17.9151   23.8679 N   0  0  0  0  0  0  0  0  0  0  0  0
    9.8910  -19.0301   22.0960 C   0  0  0  0  0  0  0  0  0  0  0  0
   10.5645  -19.9778   21.5992 O   0  0  0  0  0  0  0  0  0  0  0  0
   10.6009  -20.2783   26.2658 C   0  0  0  0  0  0  0  0  0  0  0  0
   10.7416  -20.3052   27.6213 C   0  0  0  0  0  0  0  0  0  0  0  0
    9.4202  -18.0604   21.1674 N   0  0  0  0  0  0  0  0  0  0  0  0
    9.6085  -18.2089   19.7604 C   0  0  1  0  0  0  0  0  0  0  0  0
    8.4697  -17.4474   19.0654 C   0  0  0  0  0  0  0  0  0  0  0  0
    7.5489  -16.4620   20.2765 S   0  0  0  0  0  0  0  0  0  0  0  0
   10.9179  -17.7836   19.2633 C   0  0  0  0  0  0  0  0  0  0  0  0
   11.2450  -17.8653   18.0530 O   0  0  0  0  0  0  0  0  0  0  0  0
   11.8673  -17.2628   20.1310 O   0  0  0  0  0  0  0  0  0  0  0  0
  2  1  1  1
  3  2  1  0
  3  4  1  0
  4  5  2  0
  5  6  1  0
  7  6  2  0
  8  7  1  0
  9  4  1  0
  9  8  2  0
 10 19  1  0
 10  2  1  0
 11 10  2  0
 13 12  1  0
 14 13  2  0
 15 14  1  0
 16 22  1  0
 16 15  2  0
 18 17  1  6
 17 16  1  0
 18 19  1  0
 20 18  1  0
 21 20  2  0
 22 23  2  0
 23 13  1  0
 24 20  1  0
 25 24  1  0
 25 28  1  0
 26 27  1  0
 25 26  1  6
 28 30  1  0
 29 28  2  0
M  END
$$$$
