PCA.pdb
     RDKit          3D

 19 19  0  0  1  0  0  0  0  0999 V2000
   18.4525  -14.2721    5.1939 N   0  0  0  0  0  0  0  0  0  0  0  0
   18.6122  -12.9017    4.6862 C   0  0  0  0  0  0  0  0  0  0  0  0
   19.0886  -13.1764    3.2772 C   0  0  0  0  0  0  0  0  0  0  0  0
   18.2035  -14.3432    2.8681 C   0  0  0  0  0  0  0  0  0  0  0  0
   17.7200  -14.9556    4.1673 C   0  0  1  0  0  0  0  0  0  0  0  0
   17.9074  -16.4171    4.1796 C   0  0  0  0  0  0  0  0  0  0  0  0
   17.4774  -17.0381    3.1482 O   0  0  0  0  0  0  0  0  0  0  0  0
   18.5122  -17.1377    5.2279 N   0  0  0  0  0  0  0  0  0  0  0  0
   18.6225  -18.5650    5.1468 C   0  0  1  0  0  0  0  0  0  0  0  0
   20.0582  -19.0328    5.0331 C   0  0  0  0  0  0  0  0  0  0  0  0
   21.2060  -17.6831    4.7924 S   0  0  0  0  0  0  0  0  0  0  0  0
   18.0199  -19.1134    6.4144 C   0  0  0  0  0  0  0  0  0  0  0  0
   18.3403  -18.6883    7.5542 O   0  0  0  0  0  0  0  0  0  0  0  0
   15.0027  -20.9822    7.3028 C   0  0  0  0  0  0  0  0  0  0  0  0
   16.4448  -20.6526    7.6073 C   0  0  2  0  0  0  0  0  0  0  0  0
   17.0471  -20.1524    6.3743 N   0  0  0  0  0  0  0  0  0  0  0  0
   17.1918  -21.8315    8.1235 C   0  0  0  0  0  0  0  0  0  0  0  0
   17.9985  -22.4236    7.3650 O   0  0  0  0  0  0  0  0  0  0  0  0
   17.0399  -22.3148    9.4153 O   0  0  0  0  0  0  0  0  0  0  0  0
  1  5  1  0
  1  2  1  0
  3  2  1  0
  4  3  1  0
  4  5  1  0
  6  7  2  0
  5  6  1  6
  8  6  1  0
  9 12  1  0
  9  8  1  0
  9 10  1  1
 11 10  1  0
 12 16  1  0
 13 12  2  0
 15 14  1  6
 15 17  1  0
 16 15  1  0
 17 18  2  0
 17 19  1  0
M  END
$$$$
