PCA.pdb
     RDKit          3D

 19 19  0  0  1  0  0  0  0  0999 V2000
   18.4126  -10.7029  -17.3356 N   0  0  0  0  0  0  0  0  0  0  0  0
   17.9510  -11.9218  -18.0154 C   0  0  0  0  0  0  0  0  0  0  0  0
   17.3664  -12.6902  -16.8511 C   0  0  0  0  0  0  0  0  0  0  0  0
   16.6514  -11.5932  -16.0780 C   0  0  0  0  0  0  0  0  0  0  0  0
   17.3020  -10.2988  -16.5227 C   0  0  1  0  0  0  0  0  0  0  0  0
   17.6843   -9.4618  -15.3718 C   0  0  0  0  0  0  0  0  0  0  0  0
   16.7208   -9.0719  -14.6277 O   0  0  0  0  0  0  0  0  0  0  0  0
   19.0050   -9.0837  -15.0608 N   0  0  0  0  0  0  0  0  0  0  0  0
   19.2633   -8.2493  -13.9237 C   0  0  1  0  0  0  0  0  0  0  0  0
   20.0274   -8.9707  -12.8334 C   0  0  0  0  0  0  0  0  0  0  0  0
   20.4795   -7.8931  -11.4800 S   0  0  0  0  0  0  0  0  0  0  0  0
   20.0852   -7.0890  -14.4224 C   0  0  0  0  0  0  0  0  0  0  0  0
   21.1235   -7.2444  -15.1154 O   0  0  0  0  0  0  0  0  0  0  0  0
   19.7227   -3.3785  -14.4746 C   0  0  0  0  0  0  0  0  0  0  0  0
   20.5603   -4.6330  -14.5479 C   0  0  2  0  0  0  0  0  0  0  0  0
   19.7150   -5.7466  -14.1252 N   0  0  0  0  0  0  0  0  0  0  0  0
   21.7812   -4.5415  -13.7020 C   0  0  0  0  0  0  0  0  0  0  0  0
   22.6964   -3.7486  -14.0340 O   0  0  0  0  0  0  0  0  0  0  0  0
   21.9609   -5.2968  -12.5520 O   0  0  0  0  0  0  0  0  0  0  0  0
  1  5  1  0
  1  2  1  0
  3  2  1  0
  4  3  1  0
  4  5  1  0
  6  7  2  0
  5  6  1  1
  8  6  1  0
  9 12  1  0
  9  8  1  0
  9 10  1  1
 11 10  1  0
 12 16  1  0
 13 12  2  0
 15 14  1  1
 15 17  1  0
 16 15  1  0
 17 18  2  0
 17 19  1  0
M  END
$$$$
