PCA.pdb
     RDKit          3D

 19 19  0  0  1  0  0  0  0  0999 V2000
   29.0813  -21.4684  -13.1186 N   0  0  0  0  0  0  0  0  0  0  0  0
   30.2117  -22.0839  -12.4085 C   0  0  0  0  0  0  0  0  0  0  0  0
   30.4866  -21.0358  -11.3531 C   0  0  0  0  0  0  0  0  0  0  0  0
   29.0808  -20.6398  -10.9300 C   0  0  0  0  0  0  0  0  0  0  0  0
   28.1838  -21.0530  -12.0795 C   0  0  1  0  0  0  0  0  0  0  0  0
   27.2794  -19.9607  -12.4800 C   0  0  0  0  0  0  0  0  0  0  0  0
   26.5066  -19.5187  -11.5628 O   0  0  0  0  0  0  0  0  0  0  0  0
   27.2243  -19.4001  -13.7710 N   0  0  0  0  0  0  0  0  0  0  0  0
   26.3466  -18.2979  -14.0374 C   0  0  1  0  0  0  0  0  0  0  0  0
   27.0787  -17.0879  -14.5786 C   0  0  0  0  0  0  0  0  0  0  0  0
   28.1679  -17.4921  -15.9377 S   0  0  0  0  0  0  0  0  0  0  0  0
   25.3549  -18.7794  -15.0646 C   0  0  0  0  0  0  0  0  0  0  0  0
   25.6802  -19.5354  -16.0160 O   0  0  0  0  0  0  0  0  0  0  0  0
   21.6876  -18.9916  -15.2965 C   0  0  0  0  0  0  0  0  0  0  0  0
   23.0279  -18.8886  -15.9847 C   0  0  2  0  0  0  0  0  0  0  0  0
   23.9861  -18.3924  -15.0003 N   0  0  0  0  0  0  0  0  0  0  0  0
   22.9791  -17.9971  -17.1752 C   0  0  0  0  0  0  0  0  0  0  0  0
   22.3842  -18.3901  -18.2088 O   0  0  0  0  0  0  0  0  0  0  0  0
   23.5645  -16.7393  -17.2007 O   0  0  0  0  0  0  0  0  0  0  0  0
  1  5  1  0
  1  2  1  0
  3  2  1  0
  4  3  1  0
  4  5  1  0
  6  7  2  0
  5  6  1  6
  8  6  1  0
  9 12  1  0
  9  8  1  0
  9 10  1  6
 11 10  1  0
 12 16  1  0
 13 12  2  0
 15 14  1  1
 15 17  1  0
 16 15  1  0
 17 18  2  0
 17 19  1  0
M  END
$$$$
