PCA.pdb
     RDKit          3D

 19 19  0  0  1  0  0  0  0  0999 V2000
   18.4007  -10.4270  -14.8662 N   0  0  0  0  0  0  0  0  0  0  0  0
   18.1193  -11.6297  -15.6632 C   0  0  0  0  0  0  0  0  0  0  0  0
   16.7444  -11.9940  -15.1486 C   0  0  0  0  0  0  0  0  0  0  0  0
   16.0765  -10.6319  -15.0453 C   0  0  0  0  0  0  0  0  0  0  0  0
   17.2127   -9.6312  -14.9794 C   0  0  1  0  0  0  0  0  0  0  0  0
   17.0307   -8.6780  -13.8705 C   0  0  0  0  0  0  0  0  0  0  0  0
   16.0121   -7.9112  -13.9624 O   0  0  0  0  0  0  0  0  0  0  0  0
   17.8876   -8.5718  -12.7577 N   0  0  0  0  0  0  0  0  0  0  0  0
   17.6143   -7.6086  -11.7313 C   0  0  1  0  0  0  0  0  0  0  0  0
   17.7292   -8.1925  -10.3389 C   0  0  0  0  0  0  0  0  0  0  0  0
   17.5452   -6.9596   -9.0570 S   0  0  0  0  0  0  0  0  0  0  0  0
   18.6315   -6.5089  -11.8947 C   0  0  0  0  0  0  0  0  0  0  0  0
   18.5379   -5.4069  -11.2953 O   0  0  0  0  0  0  0  0  0  0  0  0
   22.0307   -6.2152  -13.3484 C   0  0  0  0  0  0  0  0  0  0  0  0
   20.7237   -5.5908  -12.9209 C   0  0  2  0  0  0  0  0  0  0  0  0
   19.7593   -6.6740  -12.7482 N   0  0  0  0  0  0  0  0  0  0  0  0
   20.2305   -4.5925  -13.9082 C   0  0  0  0  0  0  0  0  0  0  0  0
   19.3855   -4.9479  -14.7662 O   0  0  0  0  0  0  0  0  0  0  0  0
   20.6625   -3.2741  -13.9285 O   0  0  0  0  0  0  0  0  0  0  0  0
  1  5  1  0
  1  2  1  0
  3  2  1  0
  4  3  1  0
  4  5  1  0
  6  7  2  0
  5  6  1  1
  8  6  1  0
  9 12  1  0
  9  8  1  0
  9 10  1  1
 11 10  1  0
 12 16  1  0
 13 12  2  0
 15 14  1  6
 15 17  1  0
 16 15  1  0
 17 18  2  0
 17 19  1  0
M  END
$$$$
