PCA.pdb
     RDKit          3D

 19 19  0  0  1  0  0  0  0  0999 V2000
   21.9788  -10.4028  -20.2923 N   0  0  0  0  0  0  0  0  0  0  0  0
   21.8321  -11.5095  -21.2487 C   0  0  0  0  0  0  0  0  0  0  0  0
   22.9917  -12.3908  -20.8407 C   0  0  0  0  0  0  0  0  0  0  0  0
   22.9300  -12.3089  -19.3236 C   0  0  0  0  0  0  0  0  0  0  0  0
   22.1528  -11.0436  -19.0208 C   0  0  1  0  0  0  0  0  0  0  0  0
   22.8472  -10.2068  -18.0262 C   0  0  0  0  0  0  0  0  0  0  0  0
   23.0142  -10.7392  -16.8761 O   0  0  0  0  0  0  0  0  0  0  0  0
   23.3181   -8.9015  -18.2675 N   0  0  0  0  0  0  0  0  0  0  0  0
   23.9598   -8.1651  -17.2178 C   0  0  1  0  0  0  0  0  0  0  0  0
   25.2733   -7.5517  -17.6553 C   0  0  0  0  0  0  0  0  0  0  0  0
   25.9000   -6.3558  -16.4830 S   0  0  0  0  0  0  0  0  0  0  0  0
   23.0066   -7.0676  -16.8207 C   0  0  0  0  0  0  0  0  0  0  0  0
   22.5401   -6.2446  -17.6498 O   0  0  0  0  0  0  0  0  0  0  0  0
   20.9602   -6.2858  -13.8292 C   0  0  0  0  0  0  0  0  0  0  0  0
   21.6570   -5.8513  -15.0966 C   0  0  2  0  0  0  0  0  0  0  0  0
   22.5874   -6.9140  -15.4686 N   0  0  0  0  0  0  0  0  0  0  0  0
   22.3697   -4.5558  -14.9280 C   0  0  0  0  0  0  0  0  0  0  0  0
   21.6997   -3.4989  -14.8251 O   0  0  0  0  0  0  0  0  0  0  0  0
   23.7527   -4.4562  -14.8782 O   0  0  0  0  0  0  0  0  0  0  0  0
  1  5  1  0
  1  2  1  0
  3  2  1  0
  4  3  1  0
  4  5  1  0
  6  7  2  0
  5  6  1  1
  8  6  1  0
  9 12  1  0
  9  8  1  0
  9 10  1  6
 11 10  1  0
 12 16  1  0
 13 12  2  0
 15 14  1  1
 15 17  1  0
 16 15  1  0
 17 18  2  0
 17 19  1  0
M  END
$$$$
