PCA.pdb
     RDKit          3D

 19 19  0  0  1  0  0  0  0  0999 V2000
   20.0681   -9.7600  -17.6242 N   0  0  0  0  0  0  0  0  0  0  0  0
   19.8571  -11.1231  -18.1328 C   0  0  0  0  0  0  0  0  0  0  0  0
   19.6138  -11.8718  -16.8413 C   0  0  0  0  0  0  0  0  0  0  0  0
   18.7339  -10.8975  -16.0742 C   0  0  0  0  0  0  0  0  0  0  0  0
   18.9861   -9.5440  -16.7076 C   0  0  1  0  0  0  0  0  0  0  0  0
   19.2678   -8.5148  -15.6913 C   0  0  0  0  0  0  0  0  0  0  0  0
   18.3209   -8.2800  -14.8653 O   0  0  0  0  0  0  0  0  0  0  0  0
   20.4792   -7.8038  -15.5867 N   0  0  0  0  0  0  0  0  0  0  0  0
   20.6807   -6.8857  -14.5039 C   0  0  1  0  0  0  0  0  0  0  0  0
   22.0183   -7.0761  -13.8200 C   0  0  0  0  0  0  0  0  0  0  0  0
   22.3142   -5.8674  -12.5360 S   0  0  0  0  0  0  0  0  0  0  0  0
   20.6190   -5.5026  -15.0987 C   0  0  0  0  0  0  0  0  0  0  0  0
   21.2826   -5.1738  -16.1156 O   0  0  0  0  0  0  0  0  0  0  0  0
   18.4461   -2.5163  -14.5846 C   0  0  0  0  0  0  0  0  0  0  0  0
   19.6706   -3.1853  -15.1625 C   0  0  2  0  0  0  0  0  0  0  0  0
   19.7938   -4.4937  -14.5253 N   0  0  0  0  0  0  0  0  0  0  0  0
   20.9016   -2.3752  -14.9552 C   0  0  0  0  0  0  0  0  0  0  0  0
   21.6618   -2.6537  -13.9955 O   0  0  0  0  0  0  0  0  0  0  0  0
   21.2554   -1.3159  -15.7786 O   0  0  0  0  0  0  0  0  0  0  0  0
  1  5  1  0
  1  2  1  0
  3  2  1  0
  4  3  1  0
  4  5  1  0
  6  7  2  0
  5  6  1  1
  8  6  1  0
  9 12  1  0
  9  8  1  0
  9 10  1  6
 11 10  1  0
 12 16  1  0
 13 12  2  0
 15 14  1  1
 15 17  1  0
 16 15  1  0
 17 18  2  0
 17 19  1  0
M  END
$$$$
