PCA.pdb
     RDKit          3D

 19 19  0  0  1  0  0  0  0  0999 V2000
   26.8044  -18.9840  -14.3823 N   0  0  0  0  0  0  0  0  0  0  0  0
   27.9574  -18.5355  -15.1763 C   0  0  0  0  0  0  0  0  0  0  0  0
   29.0408  -19.4439  -14.6390 C   0  0  0  0  0  0  0  0  0  0  0  0
   28.3085  -20.7714  -14.5222 C   0  0  0  0  0  0  0  0  0  0  0  0
   26.8362  -20.4151  -14.4741 C   0  0  1  0  0  0  0  0  0  0  0  0
   26.1509  -21.0951  -13.3608 C   0  0  0  0  0  0  0  0  0  0  0  0
   26.0746  -22.3677  -13.4536 O   0  0  0  0  0  0  0  0  0  0  0  0
   25.5970  -20.4411  -12.2430 N   0  0  0  0  0  0  0  0  0  0  0  0
   24.8556  -21.1884  -11.2695 C   0  0  1  0  0  0  0  0  0  0  0  0
   25.1332  -20.7346   -9.8517 C   0  0  0  0  0  0  0  0  0  0  0  0
   25.0947  -18.9555   -9.6774 S   0  0  0  0  0  0  0  0  0  0  0  0
   23.3978  -20.9726  -11.5839 C   0  0  0  0  0  0  0  0  0  0  0  0
   22.9946  -20.0210  -12.3012 O   0  0  0  0  0  0  0  0  0  0  0  0
   20.2265  -22.8514  -10.9930 C   0  0  0  0  0  0  0  0  0  0  0  0
   20.9840  -21.5856  -11.3169 C   0  0  2  0  0  0  0  0  0  0  0  0
   22.3996  -21.8509  -11.0742 N   0  0  0  0  0  0  0  0  0  0  0  0
   20.5136  -20.4288  -10.5076 C   0  0  0  0  0  0  0  0  0  0  0  0
   21.2741  -19.9454   -9.6333 O   0  0  0  0  0  0  0  0  0  0  0  0
   19.2628  -19.8513  -10.6724 O   0  0  0  0  0  0  0  0  0  0  0  0
  1  5  1  0
  1  2  1  0
  3  2  1  0
  4  3  1  0
  4  5  1  0
  6  7  2  0
  5  6  1  1
  8  6  1  0
  9 12  1  0
  9  8  1  0
  9 10  1  1
 11 10  1  0
 12 16  1  0
 13 12  2  0
 15 14  1  1
 15 17  1  0
 16 15  1  0
 17 18  2  0
 17 19  1  0
M  END
$$$$
