PCA.pdb
     RDKit          3D

 19 19  0  0  1  0  0  0  0  0999 V2000
   22.6211  -10.1642  -18.2197 N   0  0  0  0  0  0  0  0  0  0  0  0
   22.8977  -11.3289  -19.0728 C   0  0  0  0  0  0  0  0  0  0  0  0
   21.7870  -12.2623  -18.6452 C   0  0  0  0  0  0  0  0  0  0  0  0
   20.6055  -11.3122  -18.5291 C   0  0  0  0  0  0  0  0  0  0  0  0
   21.2131   -9.9333  -18.3674 C   0  0  1  0  0  0  0  0  0  0  0  0
   20.6107   -9.2055  -17.2365 C   0  0  0  0  0  0  0  0  0  0  0  0
   19.3539   -8.9897  -17.3248 O   0  0  0  0  0  0  0  0  0  0  0  0
   21.3202   -8.7528  -16.1071 N   0  0  0  0  0  0  0  0  0  0  0  0
   20.6389   -8.0250  -15.0765 C   0  0  1  0  0  0  0  0  0  0  0  0
   20.8159   -8.6492  -13.7083 C   0  0  0  0  0  0  0  0  0  0  0  0
   19.7929   -7.8777  -12.4611 S   0  0  0  0  0  0  0  0  0  0  0  0
   21.2290   -6.6385  -15.0703 C   0  0  0  0  0  0  0  0  0  0  0  0
   22.4677   -6.4313  -14.9979 O   0  0  0  0  0  0  0  0  0  0  0  0
   20.0624   -3.2735  -15.9971 C   0  0  0  0  0  0  0  0  0  0  0  0
   20.9808   -4.1485  -15.1775 C   0  0  2  0  0  0  0  0  0  0  0  0
   20.3958   -5.4864  -15.1474 N   0  0  0  0  0  0  0  0  0  0  0  0
   21.1735   -3.6216  -13.7992 C   0  0  0  0  0  0  0  0  0  0  0  0
   20.5277   -4.1355  -12.8529 O   0  0  0  0  0  0  0  0  0  0  0  0
   22.0406   -2.5794  -13.5040 O   0  0  0  0  0  0  0  0  0  0  0  0
  1  5  1  0
  1  2  1  0
  3  2  1  0
  4  3  1  0
  4  5  1  0
  6  7  2  0
  5  6  1  1
  8  6  1  0
  9 12  1  0
  9  8  1  0
  9 10  1  1
 11 10  1  0
 12 16  1  0
 13 12  2  0
 15 14  1  6
 15 17  1  0
 16 15  1  0
 17 18  2  0
 17 19  1  0
M  END
$$$$
