PCA.pdb
     RDKit          3D

 19 19  0  0  1  0  0  0  0  0999 V2000
   26.0636  -33.7054   -9.1426 N   0  0  0  0  0  0  0  0  0  0  0  0
   25.3453  -32.4946   -9.5658 C   0  0  0  0  0  0  0  0  0  0  0  0
   24.5802  -32.1647   -8.3035 C   0  0  0  0  0  0  0  0  0  0  0  0
   25.6181  -32.4382   -7.2264 C   0  0  0  0  0  0  0  0  0  0  0  0
   26.6307  -33.3640   -7.8701 C   0  0  1  0  0  0  0  0  0  0  0  0
   26.9162  -34.5310   -7.0169 C   0  0  0  0  0  0  0  0  0  0  0  0
   26.3888  -35.6329   -7.3932 O   0  0  0  0  0  0  0  0  0  0  0  0
   27.7092  -34.4968   -5.8533 N   0  0  0  0  0  0  0  0  0  0  0  0
   27.9516  -35.7019   -5.1149 C   0  0  1  0  0  0  0  0  0  0  0  0
   29.4244  -36.0409   -5.0204 C   0  0  0  0  0  0  0  0  0  0  0  0
   30.1425  -36.4430   -6.6078 S   0  0  0  0  0  0  0  0  0  0  0  0
   27.4045  -35.4722   -3.7298 C   0  0  0  0  0  0  0  0  0  0  0  0
   27.5435  -34.3805   -3.1205 O   0  0  0  0  0  0  0  0  0  0  0  0
   25.1994  -37.4058   -1.4089 C   0  0  0  0  0  0  0  0  0  0  0  0
   26.1025  -36.2394   -1.7324 C   0  0  2  0  0  0  0  0  0  0  0  0
   26.6958  -36.4978   -3.0418 N   0  0  0  0  0  0  0  0  0  0  0  0
   27.1567  -36.0443   -0.7004 C   0  0  0  0  0  0  0  0  0  0  0  0
   26.8241  -35.6582    0.4472 O   0  0  0  0  0  0  0  0  0  0  0  0
   28.5036  -36.2701   -0.9453 O   0  0  0  0  0  0  0  0  0  0  0  0
  1  5  1  0
  1  2  1  0
  3  2  1  0
  4  3  1  0
  4  5  1  0
  6  7  2  0
  5  6  1  1
  8  6  1  0
  9 12  1  0
  9  8  1  0
  9 10  1  1
 11 10  1  0
 12 16  1  0
 13 12  2  0
 15 14  1  1
 15 17  1  0
 16 15  1  0
 17 18  2  0
 17 19  1  0
M  END
$$$$
