PCA.pdb
     RDKit          3D

 19 19  0  0  1  0  0  0  0  0999 V2000
   17.7944  -11.0322  -17.1571 N   0  0  0  0  0  0  0  0  0  0  0  0
   17.0215  -12.2367  -17.4930 C   0  0  0  0  0  0  0  0  0  0  0  0
   18.0405  -13.3161  -17.2027 C   0  0  0  0  0  0  0  0  0  0  0  0
   18.6764  -12.8103  -15.9174 C   0  0  0  0  0  0  0  0  0  0  0  0
   18.3835  -11.3238  -15.8821 C   0  0  1  0  0  0  0  0  0  0  0  0
   19.5981  -10.5394  -15.5978 C   0  0  0  0  0  0  0  0  0  0  0  0
   20.1410  -10.7539  -14.4606 O   0  0  0  0  0  0  0  0  0  0  0  0
   20.1699   -9.6017  -16.4797 N   0  0  0  0  0  0  0  0  0  0  0  0
   21.3992   -8.9493  -16.1345 C   0  0  1  0  0  0  0  0  0  0  0  0
   22.4246   -9.0126  -17.2469 C   0  0  0  0  0  0  0  0  0  0  0  0
   23.9225   -8.1181  -16.8554 S   0  0  0  0  0  0  0  0  0  0  0  0
   21.0556   -7.5087  -15.8566 C   0  0  0  0  0  0  0  0  0  0  0  0
   20.2473   -6.8573  -16.5671 O   0  0  0  0  0  0  0  0  0  0  0  0
   21.7736   -5.1112  -13.0828 C   0  0  0  0  0  0  0  0  0  0  0  0
   21.2524   -5.4375  -14.4622 C   0  0  2  0  0  0  0  0  0  0  0  0
   21.6410   -6.8134  -14.7605 N   0  0  0  0  0  0  0  0  0  0  0  0
   21.7755   -4.5018  -15.4943 C   0  0  0  0  0  0  0  0  0  0  0  0
   22.7452   -4.8590  -16.2075 O   0  0  0  0  0  0  0  0  0  0  0  0
   21.2396   -3.2403  -15.7105 O   0  0  0  0  0  0  0  0  0  0  0  0
  1  5  1  0
  1  2  1  0
  3  2  1  0
  4  3  1  0
  4  5  1  0
  6  7  2  0
  5  6  1  6
  8  6  1  0
  9 12  1  0
  9  8  1  0
  9 10  1  6
 11 10  1  0
 12 16  1  0
 13 12  2  0
 15 14  1  1
 15 17  1  0
 16 15  1  0
 17 18  2  0
 17 19  1  0
M  END
$$$$
