PCA.pdb
     RDKit          3D

 19 19  0  0  1  0  0  0  0  0999 V2000
   19.7783  -13.0044  -18.4345 N   0  0  0  0  0  0  0  0  0  0  0  0
   20.1859  -14.2803  -19.0405 C   0  0  0  0  0  0  0  0  0  0  0  0
   19.0274  -15.1662  -18.6394 C   0  0  0  0  0  0  0  0  0  0  0  0
   17.8377  -14.2436  -18.8530 C   0  0  0  0  0  0  0  0  0  0  0  0
   18.4078  -12.8397  -18.8247 C   0  0  1  0  0  0  0  0  0  0  0  0
   17.6381  -11.9609  -17.9265 C   0  0  0  0  0  0  0  0  0  0  0  0
   16.4092  -11.7941  -18.2362 O   0  0  0  0  0  0  0  0  0  0  0  0
   18.1656  -11.3201  -16.7885 N   0  0  0  0  0  0  0  0  0  0  0  0
   17.3181  -10.5074  -15.9656 C   0  0  1  0  0  0  0  0  0  0  0  0
   17.3525  -10.9189  -14.5087 C   0  0  0  0  0  0  0  0  0  0  0  0
   16.1497  -12.1839  -14.1211 S   0  0  0  0  0  0  0  0  0  0  0  0
   17.8240   -9.0939  -16.0950 C   0  0  0  0  0  0  0  0  0  0  0  0
   19.0465   -8.8047  -16.0289 O   0  0  0  0  0  0  0  0  0  0  0  0
   16.2842   -5.7726  -16.8643 C   0  0  0  0  0  0  0  0  0  0  0  0
   17.4222   -6.6379  -16.3774 C   0  0  2  0  0  0  0  0  0  0  0  0
   16.9249   -8.0090  -16.3007 N   0  0  0  0  0  0  0  0  0  0  0  0
   17.9438   -6.1871  -15.0586 C   0  0  0  0  0  0  0  0  0  0  0  0
   17.5500   -6.7653  -14.0159 O   0  0  0  0  0  0  0  0  0  0  0  0
   18.8535   -5.1484  -14.9218 O   0  0  0  0  0  0  0  0  0  0  0  0
  1  5  1  0
  1  2  1  0
  3  2  1  0
  4  3  1  0
  4  5  1  0
  6  7  2  0
  5  6  1  1
  8  6  1  0
  9 12  1  0
  9  8  1  0
  9 10  1  1
 11 10  1  0
 12 16  1  0
 13 12  2  0
 15 14  1  1
 15 17  1  0
 16 15  1  0
 17 18  2  0
 17 19  1  0
M  END
$$$$
