PCA.pdb
     RDKit          3D

 19 19  0  0  1  0  0  0  0  0999 V2000
   23.2793  -11.1758  -18.5948 N   0  0  0  0  0  0  0  0  0  0  0  0
   23.6157  -12.2845  -19.4996 C   0  0  0  0  0  0  0  0  0  0  0  0
   22.2396  -12.8444  -19.7838 C   0  0  0  0  0  0  0  0  0  0  0  0
   21.4132  -11.5786  -19.9483 C   0  0  0  0  0  0  0  0  0  0  0  0
   22.2011  -10.4904  -19.2470 C   0  0  1  0  0  0  0  0  0  0  0  0
   21.3511   -9.7136  -18.3275 C   0  0  0  0  0  0  0  0  0  0  0  0
   20.4175   -9.0356  -18.8778 O   0  0  0  0  0  0  0  0  0  0  0  0
   21.5077   -9.6805  -16.9282 N   0  0  0  0  0  0  0  0  0  0  0  0
   20.6277   -8.8810  -16.1267 C   0  0  1  0  0  0  0  0  0  0  0  0
   20.0248   -9.6556  -14.9737 C   0  0  0  0  0  0  0  0  0  0  0  0
   19.0896   -8.6162  -13.8591 S   0  0  0  0  0  0  0  0  0  0  0  0
   21.4566   -7.7459  -15.5834 C   0  0  0  0  0  0  0  0  0  0  0  0
   22.5443   -7.9319  -14.9794 O   0  0  0  0  0  0  0  0  0  0  0  0
   21.2737   -4.0118  -15.7523 C   0  0  0  0  0  0  0  0  0  0  0  0
   21.8622   -5.3000  -15.2279 C   0  0  2  0  0  0  0  0  0  0  0  0
   21.0366   -6.3937  -15.7336 N   0  0  0  0  0  0  0  0  0  0  0  0
   21.9230   -5.3235  -13.7412 C   0  0  0  0  0  0  0  0  0  0  0  0
   20.9992   -5.8830  -13.1008 O   0  0  0  0  0  0  0  0  0  0  0  0
   22.9609   -4.7519  -13.0192 O   0  0  0  0  0  0  0  0  0  0  0  0
  1  5  1  0
  1  2  1  0
  3  2  1  0
  4  3  1  0
  4  5  1  0
  6  7  2  0
  5  6  1  1
  8  6  1  0
  9 12  1  0
  9  8  1  0
  9 10  1  1
 11 10  1  0
 12 16  1  0
 13 12  2  0
 15 14  1  1
 15 17  1  0
 16 15  1  0
 17 18  2  0
 17 19  1  0
M  END
$$$$
