PCA.pdb
     RDKit          3D

 19 19  0  0  1  0  0  0  0  0999 V2000
   20.9714  -12.1439  -16.6550 N   0  0  0  0  0  0  0  0  0  0  0  0
   20.7087  -13.5410  -17.0297 C   0  0  0  0  0  0  0  0  0  0  0  0
   19.3639  -13.4032  -17.7082 C   0  0  0  0  0  0  0  0  0  0  0  0
   19.5467  -12.1251  -18.5114 C   0  0  0  0  0  0  0  0  0  0  0  0
   20.6926  -11.3915  -17.8440 C   0  0  1  0  0  0  0  0  0  0  0  0
   20.3549   -9.9805  -17.5861 C   0  0  0  0  0  0  0  0  0  0  0  0
   20.0901   -9.2777  -18.6205 O   0  0  0  0  0  0  0  0  0  0  0  0
   20.3104   -9.3889  -16.3086 N   0  0  0  0  0  0  0  0  0  0  0  0
   19.8785   -8.0294  -16.1626 C   0  0  1  0  0  0  0  0  0  0  0  0
   18.5230   -7.9171  -15.4969 C   0  0  0  0  0  0  0  0  0  0  0  0
   18.3528   -9.0091  -14.0913 S   0  0  0  0  0  0  0  0  0  0  0  0
   20.9109   -7.3422  -15.3068 C   0  0  0  0  0  0  0  0  0  0  0  0
   21.4077   -7.8800  -14.2838 O   0  0  0  0  0  0  0  0  0  0  0  0
   22.9103   -4.1979  -15.6088 C   0  0  0  0  0  0  0  0  0  0  0  0
   22.4464   -5.4173  -14.8480 C   0  0  2  0  0  0  0  0  0  0  0  0
   21.3748   -6.0342  -15.6255 N   0  0  0  0  0  0  0  0  0  0  0  0
   21.9802   -5.0777  -13.4763 C   0  0  0  0  0  0  0  0  0  0  0  0
   20.7530   -4.9071  -13.2729 O   0  0  0  0  0  0  0  0  0  0  0  0
   22.8432   -4.9385  -12.3987 O   0  0  0  0  0  0  0  0  0  0  0  0
  1  5  1  0
  1  2  1  0
  3  2  1  0
  4  3  1  0
  4  5  1  0
  6  7  2  0
  5  6  1  1
  8  6  1  0
  9 12  1  0
  9  8  1  0
  9 10  1  1
 11 10  1  0
 12 16  1  0
 13 12  2  0
 15 14  1  6
 15 17  1  0
 16 15  1  0
 17 18  2  0
 17 19  1  0
M  END
$$$$
