AIN.pdb
     RDKit          3D

 22 21  0  0  1  0  0  0  0  0999 V2000
   20.6100  -21.7013  -14.2336 C   0  0  0  0  0  0  0  0  0  0  0  0
   21.1711  -21.4196  -12.8466 C   0  0  2  0  0  0  0  0  0  0  0  0
   20.2814  -20.5671  -12.1197 N   0  0  0  0  0  0  0  0  0  0  0  0
   22.5126  -20.7703  -13.0223 C   0  0  0  0  0  0  0  0  0  0  0  0
   22.5602  -19.5372  -13.2912 O   0  0  0  0  0  0  0  0  0  0  0  0
   25.9728  -21.0777   -9.2949 C   0  0  0  0  0  0  0  0  0  0  0  0
   25.1673  -20.6846  -10.5205 C   0  0  0  0  0  0  0  0  0  0  0  0
   25.7630  -21.1687  -11.7810 C   0  0  2  0  0  0  0  0  0  0  0  0
   27.1973  -20.7285  -11.9808 C   0  0  0  0  0  0  0  0  0  0  0  0
   24.9971  -20.7079  -12.9956 C   0  0  2  0  0  0  0  0  0  0  0  0
   23.7271  -21.4815  -12.8997 N   0  0  0  0  0  0  0  0  0  0  0  0
   25.6322  -20.9670  -14.2817 C   0  0  0  0  0  0  0  0  0  0  0  0
   25.9697  -22.1457  -14.6048 O   0  0  0  0  0  0  0  0  0  0  0  0
   24.6556  -17.3726  -17.6604 N   0  0  0  0  0  0  0  0  0  0  0  0
   25.1713  -18.6848  -17.8344 C   0  0  0  0  0  0  0  0  0  0  0  0
   24.4720  -19.5188  -18.4317 O   0  0  0  0  0  0  0  0  0  0  0  0
   26.4833  -18.9959  -17.3116 C   0  0  0  0  0  0  0  0  0  0  0  0
   26.5818  -20.2665  -16.4987 C   0  0  2  0  0  0  0  0  0  0  0  0
   25.9045  -19.9586  -15.2366 N   0  0  0  0  0  0  0  0  0  0  0  0
   27.9716  -20.6384  -16.2564 C   0  0  0  0  0  0  0  0  0  0  0  0
   28.8089  -19.7003  -15.6243 O   0  0  0  0  0  0  0  0  0  0  0  0
   28.5271  -21.7175  -16.5493 O   0  0  0  0  0  0  0  0  0  0  0  0
  2  1  1  6
  2  3  1  0
  2  4  1  0
  4  5  2  0
  6  7  1  0
  7  8  1  0
  8 10  1  0
  8  9  1  6
 10 12  1  0
 11  4  1  0
 10 11  1  6
 12 19  1  0
 12 13  2  0
 14 15  1  0
 15 17  1  0
 16 15  2  0
 18 17  1  6
 18 20  1  0
 19 18  1  0
 20 22  2  0
 20 21  1  0
M  END
$$$$
