AIN.pdb
     RDKit          3D

 22 21  0  0  1  0  0  0  0  0999 V2000
   29.3160  -37.9183   -4.7897 C   0  0  0  0  0  0  0  0  0  0  0  0
   30.0516  -37.6207   -6.0891 C   0  0  2  0  0  0  0  0  0  0  0  0
   31.2971  -36.9736   -5.8123 N   0  0  0  0  0  0  0  0  0  0  0  0
   29.1645  -36.7431   -6.9228 C   0  0  0  0  0  0  0  0  0  0  0  0
   29.2767  -35.4897   -6.8162 O   0  0  0  0  0  0  0  0  0  0  0  0
   27.0014  -36.5672  -12.3810 C   0  0  0  0  0  0  0  0  0  0  0  0
   26.5072  -36.3013  -10.9702 C   0  0  0  0  0  0  0  0  0  0  0  0
   27.2352  -37.0788   -9.9487 C   0  0  2  0  0  0  0  0  0  0  0  0
   26.5294  -38.3548   -9.5425 C   0  0  0  0  0  0  0  0  0  0  0  0
   27.4683  -36.2931   -8.6828 C   0  0  2  0  0  0  0  0  0  0  0  0
   28.2072  -37.2607   -7.8236 N   0  0  0  0  0  0  0  0  0  0  0  0
   26.2699  -35.8383   -7.9890 C   0  0  0  0  0  0  0  0  0  0  0  0
   25.7781  -36.5226   -7.0416 O   0  0  0  0  0  0  0  0  0  0  0  0
   25.5909  -30.6843   -8.2520 N   0  0  0  0  0  0  0  0  0  0  0  0
   25.2400  -31.7951   -7.4390 C   0  0  0  0  0  0  0  0  0  0  0  0
   25.7986  -31.9191   -6.3372 O   0  0  0  0  0  0  0  0  0  0  0  0
   24.2516  -32.7326   -7.9241 C   0  0  0  0  0  0  0  0  0  0  0  0
   24.4528  -34.1721   -7.5093 C   0  0  2  0  0  0  0  0  0  0  0  0
   25.5920  -34.6367   -8.3048 N   0  0  0  0  0  0  0  0  0  0  0  0
   23.2697  -34.9785   -7.7898 C   0  0  0  0  0  0  0  0  0  0  0  0
   22.1852  -34.8986   -6.8964 O   0  0  0  0  0  0  0  0  0  0  0  0
   23.0948  -35.7542   -8.7523 O   0  0  0  0  0  0  0  0  0  0  0  0
  2  1  1  1
  2  3  1  0
  2  4  1  0
  4  5  2  0
  6  7  1  0
  7  8  1  0
  8 10  1  0
  8  9  1  1
 10 12  1  0
 11  4  1  0
 10 11  1  1
 12 19  1  0
 12 13  2  0
 14 15  1  0
 15 17  1  0
 16 15  2  0
 18 17  1  6
 18 20  1  0
 19 18  1  0
 20 22  2  0
 20 21  1  0
M  END
$$$$
