AIN.pdb
     RDKit          3D

 22 21  0  0  1  0  0  0  0  0999 V2000
   20.2714  -34.6680   -4.8133 C   0  0  0  0  0  0  0  0  0  0  0  0
   20.6910  -34.0388   -6.1347 C   0  0  2  0  0  0  0  0  0  0  0  0
   19.9142  -34.5813   -7.2066 N   0  0  0  0  0  0  0  0  0  0  0  0
   22.1508  -34.3254   -6.3313 C   0  0  0  0  0  0  0  0  0  0  0  0
   22.4986  -35.4826   -6.6990 O   0  0  0  0  0  0  0  0  0  0  0  0
   24.7256  -31.6872   -9.6464 C   0  0  0  0  0  0  0  0  0  0  0  0
   24.2983  -32.7630   -8.6638 C   0  0  0  0  0  0  0  0  0  0  0  0
   25.0183  -32.6874   -7.3778 C   0  0  2  0  0  0  0  0  0  0  0  0
   26.5183  -32.8379   -7.5142 C   0  0  0  0  0  0  0  0  0  0  0  0
   24.5661  -33.7429   -6.4002 C   0  0  2  0  0  0  0  0  0  0  0  0
   23.1548  -33.3539   -6.1219 N   0  0  0  0  0  0  0  0  0  0  0  0
   25.3112  -33.8097   -5.1493 C   0  0  0  0  0  0  0  0  0  0  0  0
   25.2898  -32.8366   -4.3369 O   0  0  0  0  0  0  0  0  0  0  0  0
   25.6232  -36.1626   -0.1132 N   0  0  0  0  0  0  0  0  0  0  0  0
   26.4544  -35.6464   -1.1430 C   0  0  0  0  0  0  0  0  0  0  0  0
   27.6227  -35.3374   -0.8584 O   0  0  0  0  0  0  0  0  0  0  0  0
   25.9101  -35.5017   -2.4749 C   0  0  0  0  0  0  0  0  0  0  0  0
   26.8506  -34.9279   -3.5098 C   0  0  2  0  0  0  0  0  0  0  0  0
   26.0827  -34.9297   -4.7575 N   0  0  0  0  0  0  0  0  0  0  0  0
   28.0532  -35.7424   -3.6477 C   0  0  0  0  0  0  0  0  0  0  0  0
   29.1640  -35.4270   -2.8431 O   0  0  0  0  0  0  0  0  0  0  0  0
   28.2246  -36.7131   -4.4140 O   0  0  0  0  0  0  0  0  0  0  0  0
  2  1  1  1
  2  3  1  0
  2  4  1  0
  4  5  2  0
  6  7  1  0
  7  8  1  0
  8 10  1  0
  8  9  1  6
 10 12  1  0
 11  4  1  0
 10 11  1  1
 12 19  1  0
 12 13  2  0
 14 15  1  0
 15 17  1  0
 16 15  2  0
 18 17  1  1
 18 20  1  0
 19 18  1  0
 20 22  2  0
 20 21  1  0
M  END
$$$$
