AIN.pdb
     RDKit          3D

 22 21  0  0  1  0  0  0  0  0999 V2000
   19.5569  -14.5710  -19.3321 C   0  0  0  0  0  0  0  0  0  0  0  0
   20.9870  -14.8027  -18.8640 C   0  0  2  0  0  0  0  0  0  0  0  0
   21.2007  -16.1934  -18.6052 N   0  0  0  0  0  0  0  0  0  0  0  0
   21.1964  -13.9872  -17.6218 C   0  0  0  0  0  0  0  0  0  0  0  0
   20.3052  -14.0034  -16.7270 O   0  0  0  0  0  0  0  0  0  0  0  0
   25.4967  -14.6177  -14.9287 C   0  0  0  0  0  0  0  0  0  0  0  0
   24.0696  -14.2652  -15.3088 C   0  0  0  0  0  0  0  0  0  0  0  0
   23.9092  -12.8500  -15.6953 C   0  0  2  0  0  0  0  0  0  0  0  0
   24.2910  -11.8767  -14.6007 C   0  0  0  0  0  0  0  0  0  0  0  0
   22.4933  -12.5173  -16.0937 C   0  0  2  0  0  0  0  0  0  0  0  0
   22.3505  -13.2003  -17.4104 N   0  0  0  0  0  0  0  0  0  0  0  0
   22.1931  -11.0989  -16.2430 C   0  0  0  0  0  0  0  0  0  0  0  0
   22.8263  -10.3941  -17.0855 O   0  0  0  0  0  0  0  0  0  0  0  0
   19.9315   -6.3948  -15.5646 N   0  0  0  0  0  0  0  0  0  0  0  0
   18.9909   -7.4564  -15.4851 C   0  0  0  0  0  0  0  0  0  0  0  0
   17.7838   -7.1716  -15.4281 O   0  0  0  0  0  0  0  0  0  0  0  0
   19.4737   -8.8195  -15.4735 C   0  0  0  0  0  0  0  0  0  0  0  0
   20.9651   -8.9892  -15.6519 C   0  0  2  0  0  0  0  0  0  0  0  0
   21.2019  -10.4259  -15.4896 N   0  0  0  0  0  0  0  0  0  0  0  0
   21.7116   -8.2314  -14.6534 C   0  0  0  0  0  0  0  0  0  0  0  0
   22.0329   -6.8916  -14.9409 O   0  0  0  0  0  0  0  0  0  0  0  0
   22.1131   -8.6358  -13.5425 O   0  0  0  0  0  0  0  0  0  0  0  0
  2  1  1  1
  2  3  1  0
  2  4  1  0
  4  5  2  0
  6  7  1  0
  7  8  1  0
  8 10  1  0
  8  9  1  1
 10 12  1  0
 11  4  1  0
 10 11  1  6
 12 19  1  0
 12 13  2  0
 14 15  1  0
 15 17  1  0
 16 15  2  0
 18 17  1  1
 18 20  1  0
 19 18  1  0
 20 22  2  0
 20 21  1  0
M  END
$$$$
