AIN.pdb
     RDKit          3D

 22 21  0  0  1  0  0  0  0  0999 V2000
   24.0640  -10.1158  -21.6560 C   0  0  0  0  0  0  0  0  0  0  0  0
   25.1263  -10.7740  -20.7863 C   0  0  2  0  0  0  0  0  0  0  0  0
   25.3266  -12.1300  -21.1957 N   0  0  0  0  0  0  0  0  0  0  0  0
   24.6542  -10.7072  -19.3634 C   0  0  0  0  0  0  0  0  0  0  0  0
   23.5907  -11.3106  -19.0472 O   0  0  0  0  0  0  0  0  0  0  0  0
   27.9262  -11.8477  -15.6301 C   0  0  0  0  0  0  0  0  0  0  0  0
   26.6245  -11.6270  -16.3798 C   0  0  0  0  0  0  0  0  0  0  0  0
   26.0408  -10.2928  -16.1402 C   0  0  2  0  0  0  0  0  0  0  0  0
   25.6445  -10.0556  -14.6988 C   0  0  0  0  0  0  0  0  0  0  0  0
   24.8085  -10.0439  -16.9730 C   0  0  2  0  0  0  0  0  0  0  0  0
   25.3502   -9.9963  -18.3604 N   0  0  0  0  0  0  0  0  0  0  0  0
   24.0879   -8.8098  -16.6862 C   0  0  0  0  0  0  0  0  0  0  0  0
   24.5420   -7.6945  -17.0831 O   0  0  0  0  0  0  0  0  0  0  0  0
   20.4311   -5.3155  -16.1492 N   0  0  0  0  0  0  0  0  0  0  0  0
   20.9242   -5.9231  -17.3349 C   0  0  0  0  0  0  0  0  0  0  0  0
   20.6011   -5.4309  -18.4279 O   0  0  0  0  0  0  0  0  0  0  0  0
   21.7782   -7.0847  -17.2226 C   0  0  0  0  0  0  0  0  0  0  0  0
   22.1212   -7.5138  -15.8143 C   0  0  2  0  0  0  0  0  0  0  0  0
   22.8659   -8.7654  -15.9737 N   0  0  0  0  0  0  0  0  0  0  0  0
   20.9200   -7.7310  -15.0153 C   0  0  0  0  0  0  0  0  0  0  0  0
   20.5960   -6.7780  -14.0317 O   0  0  0  0  0  0  0  0  0  0  0  0
   20.1200   -8.6860  -15.0979 O   0  0  0  0  0  0  0  0  0  0  0  0
  2  1  1  6
  2  3  1  0
  2  4  1  0
  4  5  2  0
  6  7  1  0
  7  8  1  0
  8 10  1  0
  8  9  1  1
 10 12  1  0
 11  4  1  0
 10 11  1  6
 12 19  1  0
 12 13  2  0
 14 15  1  0
 15 17  1  0
 16 15  2  0
 18 17  1  6
 18 20  1  0
 19 18  1  0
 20 22  2  0
 20 21  1  0
M  END
$$$$
