AIN.pdb
     RDKit          3D

 22 21  0  0  1  0  0  0  0  0999 V2000
   21.8615  -12.8683  -20.2823 C   0  0  0  0  0  0  0  0  0  0  0  0
   22.8630  -13.4496  -19.2938 C   0  0  2  0  0  0  0  0  0  0  0  0
   22.4731  -14.7742  -18.9199 N   0  0  0  0  0  0  0  0  0  0  0  0
   22.8999  -12.5433  -18.0983 C   0  0  0  0  0  0  0  0  0  0  0  0
   21.9638  -12.6138  -17.2534 O   0  0  0  0  0  0  0  0  0  0  0  0
   27.4637  -11.8893  -15.6006 C   0  0  0  0  0  0  0  0  0  0  0  0
   25.9832  -11.9981  -15.9192 C   0  0  0  0  0  0  0  0  0  0  0  0
   25.3704  -10.6997  -16.2607 C   0  0  2  0  0  0  0  0  0  0  0  0
   25.4616   -9.6764  -15.1492 C   0  0  0  0  0  0  0  0  0  0  0  0
   23.9093  -10.8257  -16.6123 C   0  0  2  0  0  0  0  0  0  0  0  0
   23.9396  -11.6127  -17.8773 N   0  0  0  0  0  0  0  0  0  0  0  0
   23.1997   -9.5718  -16.8327 C   0  0  0  0  0  0  0  0  0  0  0  0
   23.6206   -8.7384  -17.6905 O   0  0  0  0  0  0  0  0  0  0  0  0
   17.6477   -7.1922  -16.4408 N   0  0  0  0  0  0  0  0  0  0  0  0
   19.0567   -7.0174  -16.4886 C   0  0  0  0  0  0  0  0  0  0  0  0
   19.5029   -5.8749  -16.6809 O   0  0  0  0  0  0  0  0  0  0  0  0
   19.9111   -8.1708  -16.3126 C   0  0  0  0  0  0  0  0  0  0  0  0
   21.3973   -7.8959  -16.3318 C   0  0  2  0  0  0  0  0  0  0  0  0
   22.0242   -9.2054  -16.1348 N   0  0  0  0  0  0  0  0  0  0  0  0
   21.7839   -6.9779  -15.2658 C   0  0  0  0  0  0  0  0  0  0  0  0
   21.9784   -5.6233  -15.5948 O   0  0  0  0  0  0  0  0  0  0  0  0
   21.9695   -7.2527  -14.0622 O   0  0  0  0  0  0  0  0  0  0  0  0
  2  1  1  6
  2  3  1  0
  2  4  1  0
  4  5  2  0
  6  7  1  0
  7  8  1  0
  8 10  1  0
  8  9  1  1
 10 12  1  0
 11  4  1  0
 10 11  1  6
 12 19  1  0
 12 13  2  0
 14 15  1  0
 15 17  1  0
 16 15  2  0
 18 17  1  1
 18 20  1  0
 19 18  1  0
 20 22  2  0
 20 21  1  0
M  END
$$$$
