AIN.pdb
     RDKit          3D

 22 21  0  0  1  0  0  0  0  0999 V2000
   30.2281  -20.5278  -12.1899 C   0  0  0  0  0  0  0  0  0  0  0  0
   30.5417  -21.0874  -10.8092 C   0  0  2  0  0  0  0  0  0  0  0  0
   31.2626  -22.3173  -10.9289 N   0  0  0  0  0  0  0  0  0  0  0  0
   29.2377  -21.2969  -10.0967 C   0  0  0  0  0  0  0  0  0  0  0  0
   28.6433  -22.4032  -10.2303 O   0  0  0  0  0  0  0  0  0  0  0  0
   28.4232  -19.4182   -5.2429 C   0  0  0  0  0  0  0  0  0  0  0  0
   28.4440  -20.1458   -6.5754 C   0  0  0  0  0  0  0  0  0  0  0  0
   27.2917  -19.8090   -7.4337 C   0  0  2  0  0  0  0  0  0  0  0  0
   25.9523  -20.0622   -6.7756 C   0  0  0  0  0  0  0  0  0  0  0  0
   27.2898  -20.5834   -8.7276 C   0  0  2  0  0  0  0  0  0  0  0  0
   28.6454  -20.3070   -9.2812 N   0  0  0  0  0  0  0  0  0  0  0  0
   26.2755  -20.1932   -9.6989 C   0  0  0  0  0  0  0  0  0  0  0  0
   25.9879  -18.9703   -9.8703 O   0  0  0  0  0  0  0  0  0  0  0  0
   24.4692  -20.9655  -15.0097 N   0  0  0  0  0  0  0  0  0  0  0  0
   23.9407  -21.5038  -13.8060 C   0  0  0  0  0  0  0  0  0  0  0  0
   22.7381  -21.8103  -13.7752 O   0  0  0  0  0  0  0  0  0  0  0  0
   24.8196  -21.6725  -12.6700 C   0  0  0  0  0  0  0  0  0  0  0  0
   24.6498  -20.6677  -11.5535 C   0  0  2  0  0  0  0  0  0  0  0  0
   25.5644  -21.1173  -10.5010 N   0  0  0  0  0  0  0  0  0  0  0  0
   23.2763  -20.6434  -11.0621 C   0  0  0  0  0  0  0  0  0  0  0  0
   22.9210  -21.5438  -10.0405 O   0  0  0  0  0  0  0  0  0  0  0  0
   22.3491  -19.9011  -11.4471 O   0  0  0  0  0  0  0  0  0  0  0  0
  2  1  1  6
  2  3  1  0
  2  4  1  0
  4  5  2  0
  6  7  1  0
  7  8  1  0
  8 10  1  0
  8  9  1  1
 10 12  1  0
 11  4  1  0
 10 11  1  6
 12 19  1  0
 12 13  2  0
 14 15  1  0
 15 17  1  0
 16 15  2  0
 18 17  1  6
 18 20  1  0
 19 18  1  0
 20 22  2  0
 20 21  1  0
M  END
$$$$
