AIN.pdb
     RDKit          3D

 22 21  0  0  1  0  0  0  0  0999 V2000
   27.6303  -10.7192  -15.7307 C   0  0  0  0  0  0  0  0  0  0  0  0
   26.5915  -11.7074  -16.2428 C   0  0  2  0  0  0  0  0  0  0  0  0
   27.1159  -12.4414  -17.3531 N   0  0  0  0  0  0  0  0  0  0  0  0
   25.3768  -10.9227  -16.6438 C   0  0  0  0  0  0  0  0  0  0  0  0
   25.3907  -10.3010  -17.7431 O   0  0  0  0  0  0  0  0  0  0  0  0
   20.9975  -13.0773  -17.4085 C   0  0  0  0  0  0  0  0  0  0  0  0
   21.9963  -11.9380  -17.5072 C   0  0  0  0  0  0  0  0  0  0  0  0
   21.9350  -11.0168  -16.3558 C   0  0  2  0  0  0  0  0  0  0  0  0
   20.6597  -10.2034  -16.2987 C   0  0  0  0  0  0  0  0  0  0  0  0
   23.0762  -10.0311  -16.3439 C   0  0  2  0  0  0  0  0  0  0  0  0
   24.2158  -10.8497  -15.8422 N   0  0  0  0  0  0  0  0  0  0  0  0
   22.8976   -8.8644  -15.4886 C   0  0  0  0  0  0  0  0  0  0  0  0
   22.8390   -8.9952  -14.2289 O   0  0  0  0  0  0  0  0  0  0  0  0
   22.4006   -3.8864  -13.8873 N   0  0  0  0  0  0  0  0  0  0  0  0
   22.6569   -3.9074  -15.2844 C   0  0  0  0  0  0  0  0  0  0  0  0
   22.7679   -2.8237  -15.8799 O   0  0  0  0  0  0  0  0  0  0  0  0
   22.7776   -5.1833  -15.9544 C   0  0  0  0  0  0  0  0  0  0  0  0
   22.6092   -6.4035  -15.0782 C   0  0  2  0  0  0  0  0  0  0  0  0
   22.7867   -7.5427  -15.9822 N   0  0  0  0  0  0  0  0  0  0  0  0
   21.2871   -6.4398  -14.4624 C   0  0  0  0  0  0  0  0  0  0  0  0
   21.1881   -6.1613  -13.0864 O   0  0  0  0  0  0  0  0  0  0  0  0
   20.2001   -6.6953  -15.0210 O   0  0  0  0  0  0  0  0  0  0  0  0
  2  1  1  6
  2  3  1  0
  2  4  1  0
  4  5  2  0
  6  7  1  0
  7  8  1  0
  8 10  1  0
  8  9  1  6
 10 12  1  0
 11  4  1  0
 10 11  1  1
 12 19  1  0
 12 13  2  0
 14 15  1  0
 15 17  1  0
 16 15  2  0
 18 17  1  6
 18 20  1  0
 19 18  1  0
 20 22  2  0
 20 21  1  0
M  END
$$$$
