AIN.pdb
     RDKit          3D

 22 21  0  0  1  0  0  0  0  0999 V2000
   12.3980  -11.1222  -15.8683 C   0  0  0  0  0  0  0  0  0  0  0  0
   13.3480  -12.2289  -15.4314 C   0  0  2  0  0  0  0  0  0  0  0  0
   12.7503  -13.0081  -14.3911 N   0  0  0  0  0  0  0  0  0  0  0  0
   14.6143  -11.5793  -14.9555 C   0  0  0  0  0  0  0  0  0  0  0  0
   14.6735  -11.1641  -13.7642 O   0  0  0  0  0  0  0  0  0  0  0  0
   18.9880  -14.0998  -15.4457 C   0  0  0  0  0  0  0  0  0  0  0  0
   17.8890  -13.1367  -15.0334 C   0  0  0  0  0  0  0  0  0  0  0  0
   18.0523  -11.7917  -15.6184 C   0  0  2  0  0  0  0  0  0  0  0  0
   19.3765  -11.1412  -15.2799 C   0  0  0  0  0  0  0  0  0  0  0  0
   16.9753  -10.8342  -15.1739 C   0  0  2  0  0  0  0  0  0  0  0  0
   15.7454  -11.4121  -15.7852 N   0  0  0  0  0  0  0  0  0  0  0  0
   17.1358   -9.4526  -15.6095 C   0  0  0  0  0  0  0  0  0  0  0  0
   17.2830   -9.1804  -16.8391 O   0  0  0  0  0  0  0  0  0  0  0  0
   15.9210   -4.0567  -15.6440 N   0  0  0  0  0  0  0  0  0  0  0  0
   16.5317   -4.7048  -14.5372 C   0  0  0  0  0  0  0  0  0  0  0  0
   17.1748   -4.0139  -13.7307 O   0  0  0  0  0  0  0  0  0  0  0  0
   16.3814   -6.1360  -14.3944 C   0  0  0  0  0  0  0  0  0  0  0  0
   17.3327   -6.9808  -15.2106 C   0  0  2  0  0  0  0  0  0  0  0  0
   17.1327   -8.3482  -14.7244 N   0  0  0  0  0  0  0  0  0  0  0  0
   18.7175   -6.5653  -15.0148 C   0  0  0  0  0  0  0  0  0  0  0  0
   19.2203   -5.5296  -15.8242 O   0  0  0  0  0  0  0  0  0  0  0  0
   19.5365   -7.0284  -14.1940 O   0  0  0  0  0  0  0  0  0  0  0  0
  2  1  1  1
  2  3  1  0
  2  4  1  0
  4  5  2  0
  6  7  1  0
  7  8  1  0
  8 10  1  0
  8  9  1  1
 10 12  1  0
 11  4  1  0
 10 11  1  6
 12 19  1  0
 12 13  2  0
 14 15  1  0
 15 17  1  0
 16 15  2  0
 18 17  1  1
 18 20  1  0
 19 18  1  0
 20 22  2  0
 20 21  1  0
M  END
$$$$
