AIN.pdb
     RDKit          3D

 22 21  0  0  1  0  0  0  0  0999 V2000
   27.0764  -19.5896  -16.4781 C   0  0  0  0  0  0  0  0  0  0  0  0
   27.7492  -20.6285  -15.5916 C   0  0  2  0  0  0  0  0  0  0  0  0
   28.2609  -21.6996  -16.3901 N   0  0  0  0  0  0  0  0  0  0  0  0
   26.7227  -21.1282  -14.6176 C   0  0  0  0  0  0  0  0  0  0  0  0
   25.9641  -22.0756  -14.9672 O   0  0  0  0  0  0  0  0  0  0  0  0
   25.3498  -20.8648   -8.6523 C   0  0  0  0  0  0  0  0  0  0  0  0
   24.9242  -21.2162  -10.0668 C   0  0  0  0  0  0  0  0  0  0  0  0
   25.9018  -20.7872  -11.0858 C   0  0  2  0  0  0  0  0  0  0  0  0
   26.2190  -19.3081  -11.0354 C   0  0  0  0  0  0  0  0  0  0  0  0
   25.4381  -21.0813  -12.4904 C   0  0  2  0  0  0  0  0  0  0  0  0
   26.5684  -20.5826  -13.3237 N   0  0  0  0  0  0  0  0  0  0  0  0
   24.2019  -20.4270  -12.9002 C   0  0  0  0  0  0  0  0  0  0  0  0
   24.2007  -19.2001  -13.2202 O   0  0  0  0  0  0  0  0  0  0  0  0
   20.6187  -20.2501  -17.1104 N   0  0  0  0  0  0  0  0  0  0  0  0
   20.7923  -19.9111  -15.7418 C   0  0  0  0  0  0  0  0  0  0  0  0
   20.0317  -19.0664  -15.2426 O   0  0  0  0  0  0  0  0  0  0  0  0
   21.8425  -20.5595  -14.9883 C   0  0  0  0  0  0  0  0  0  0  0  0
   21.7597  -20.4122  -13.4862 C   0  0  2  0  0  0  0  0  0  0  0  0
   22.9539  -21.0902  -12.9757 N   0  0  0  0  0  0  0  0  0  0  0  0
   20.5515  -21.0340  -12.9549 C   0  0  0  0  0  0  0  0  0  0  0  0
   20.5392  -22.4326  -12.7978 O   0  0  0  0  0  0  0  0  0  0  0  0
   19.4956  -20.4627  -12.6125 O   0  0  0  0  0  0  0  0  0  0  0  0
  2  1  1  6
  2  3  1  0
  2  4  1  0
  4  5  2  0
  6  7  1  0
  7  8  1  0
  8 10  1  0
  8  9  1  6
 10 12  1  0
 11  4  1  0
 10 11  1  6
 12 19  1  0
 12 13  2  0
 14 15  1  0
 15 17  1  0
 16 15  2  0
 18 17  1  6
 18 20  1  0
 19 18  1  0
 20 22  2  0
 20 21  1  0
M  END
$$$$
