VWP.pdb
     RDKit          3D

 29 31  0  0  1  0  0  0  0  0999 V2000
    8.3970  -12.7951   20.5900 C   0  0  0  0  0  0  0  0  0  0  0  0
    8.1154  -14.2590   20.5344 C   0  0  1  0  0  0  0  0  0  0  0  0
    8.0064  -14.6975   19.0732 C   0  0  0  0  0  0  0  0  0  0  0  0
    9.1625  -15.1253   21.1898 C   0  0  2  0  0  0  0  0  0  0  0  0
    8.6740  -16.5088   21.0703 N   0  0  0  0  0  0  0  0  0  0  0  0
    9.3597  -14.7855   22.6337 C   0  0  0  0  0  0  0  0  0  0  0  0
    9.8663  -13.6954   22.8860 O   0  0  0  0  0  0  0  0  0  0  0  0
    8.9719  -15.6942   23.6198 N   0  0  0  0  0  0  0  0  0  0  0  0
    9.2007  -15.4156   25.0316 C   0  0  1  0  0  0  0  0  0  0  0  0
    7.9862  -15.8245   25.8398 C   0  0  0  0  0  0  0  0  0  0  0  0
    6.9028  -14.8403   25.7880 C   0  0  0  0  0  0  0  0  0  0  0  0
    5.5858  -15.0895   25.3828 C   0  0  0  0  0  0  0  0  0  0  0  0
    4.8936  -13.9657   25.4629 N   0  0  0  0  0  0  0  0  0  0  0  0
    5.6657  -12.9408   25.9057 C   0  0  0  0  0  0  0  0  0  0  0  0
    5.4038  -11.6065   26.1483 C   0  0  0  0  0  0  0  0  0  0  0  0
    6.4037  -10.7759   26.6055 C   0  0  0  0  0  0  0  0  0  0  0  0
    7.6498  -11.3052   26.8104 C   0  0  0  0  0  0  0  0  0  0  0  0
    7.9106  -12.6302   26.5700 C   0  0  0  0  0  0  0  0  0  0  0  0
    6.9215  -13.5052   26.1048 C   0  0  0  0  0  0  0  0  0  0  0  0
   10.3772  -16.1268   25.5373 C   0  0  0  0  0  0  0  0  0  0  0  0
   11.0721  -16.8143   24.7523 O   0  0  0  0  0  0  0  0  0  0  0  0
   10.7650  -16.0658   26.8927 N   0  0  0  0  0  0  0  0  0  0  0  0
   10.1131  -15.3957   27.9857 C   0  0  0  0  0  0  0  0  0  0  0  0
   11.2836  -14.7875   28.7446 C   0  0  0  0  0  0  0  0  0  0  0  0
   12.4697  -15.6481   28.3983 C   0  0  0  0  0  0  0  0  0  0  0  0
   11.9471  -16.7125   27.4831 C   0  0  1  0  0  0  0  0  0  0  0  0
   11.4907  -17.9382   28.1720 C   0  0  0  0  0  0  0  0  0  0  0  0
   12.3278  -18.6965   28.7044 O   0  0  0  0  0  0  0  0  0  0  0  0
   10.1540  -18.3000   28.2606 O   0  0  0  0  0  0  0  0  0  0  0  0
  2  3  1  6
  2  1  1  0
  4  2  1  0
  4  5  1  1
  6  8  1  0
  6  4  1  0
  7  6  2  0
  9  8  1  0
  9 10  1  1
 10 11  1  0
 11 12  2  0
 11 19  1  0
 12 13  1  0
 13 14  1  0
 14 15  2  0
 16 15  1  0
 17 16  2  0
 18 19  2  0
 18 17  1  0
 19 14  1  0
 20 21  2  0
 20  9  1  0
 22 20  1  0
 23 22  1  0
 24 23  1  0
 25 24  1  0
 25 26  1  0
 26 22  1  0
 27 29  1  0
 26 27  1  1
 28 27  2  0
M  END
$$$$
