VWP.pdb
     RDKit          3D

 29 31  0  0  1  0  0  0  0  0999 V2000
    6.5104  -22.0502   22.2960 C   0  0  0  0  0  0  0  0  0  0  0  0
    6.7276  -20.5820   22.1460 C   0  0  1  0  0  0  0  0  0  0  0  0
    6.2838  -20.1457   20.7488 C   0  0  0  0  0  0  0  0  0  0  0  0
    5.9810  -19.7315   23.1439 C   0  0  2  0  0  0  0  0  0  0  0  0
    4.5617  -20.0959   23.0026 N   0  0  0  0  0  0  0  0  0  0  0  0
    6.1517  -18.2677   22.8844 C   0  0  0  0  0  0  0  0  0  0  0  0
    5.3152  -17.7275   22.1654 O   0  0  0  0  0  0  0  0  0  0  0  0
    7.2271  -17.5828   23.4527 N   0  0  0  0  0  0  0  0  0  0  0  0
    7.5179  -16.2026   23.0873 C   0  0  1  0  0  0  0  0  0  0  0  0
    8.2400  -15.5105   24.2253 C   0  0  0  0  0  0  0  0  0  0  0  0
    7.3303  -14.8984   25.1960 C   0  0  0  0  0  0  0  0  0  0  0  0
    6.2391  -15.5269   25.8086 C   0  0  0  0  0  0  0  0  0  0  0  0
    5.6496  -14.6656   26.6205 N   0  0  0  0  0  0  0  0  0  0  0  0
    6.2782  -13.4626   26.6047 C   0  0  0  0  0  0  0  0  0  0  0  0
    6.0436  -12.2734   27.2670 C   0  0  0  0  0  0  0  0  0  0  0  0
    6.8637  -11.1871   27.0524 C   0  0  0  0  0  0  0  0  0  0  0  0
    7.9060  -11.3190   26.1741 C   0  0  0  0  0  0  0  0  0  0  0  0
    8.1397  -12.4996   25.5163 C   0  0  0  0  0  0  0  0  0  0  0  0
    7.3288  -13.6249   25.7075 C   0  0  0  0  0  0  0  0  0  0  0  0
    8.3414  -16.1276   21.8782 C   0  0  0  0  0  0  0  0  0  0  0  0
    8.8862  -17.1651   21.4325 O   0  0  0  0  0  0  0  0  0  0  0  0
    8.5468  -14.9158   21.1848 N   0  0  0  0  0  0  0  0  0  0  0  0
    8.2615  -13.5735   21.6154 C   0  0  0  0  0  0  0  0  0  0  0  0
    7.6824  -12.9403   20.3586 C   0  0  0  0  0  0  0  0  0  0  0  0
    8.2477  -13.7412   19.2156 C   0  0  0  0  0  0  0  0  0  0  0  0
    9.1301  -14.7771   19.8414 C   0  0  1  0  0  0  0  0  0  0  0  0
   10.5387  -14.3596   20.0049 C   0  0  0  0  0  0  0  0  0  0  0  0
   10.9399  -13.9595   21.1176 O   0  0  0  0  0  0  0  0  0  0  0  0
   11.4590  -14.3882   18.9667 O   0  0  0  0  0  0  0  0  0  0  0  0
  2  3  1  6
  2  1  1  0
  4  2  1  0
  4  5  1  6
  6  8  1  0
  6  4  1  0
  7  6  2  0
  9  8  1  0
  9 10  1  1
 10 11  1  0
 11 12  2  0
 11 19  1  0
 12 13  1  0
 13 14  1  0
 14 15  2  0
 16 15  1  0
 17 16  2  0
 18 19  2  0
 18 17  1  0
 19 14  1  0
 20 21  2  0
 20  9  1  0
 22 20  1  0
 23 22  1  0
 24 23  1  0
 25 24  1  0
 25 26  1  0
 26 22  1  0
 27 29  1  0
 26 27  1  1
 28 27  2  0
M  END
$$$$
