VWP.pdb
     RDKit          3D

 29 31  0  0  1  0  0  0  0  0999 V2000
    3.6447  -20.7566   20.4722 C   0  0  0  0  0  0  0  0  0  0  0  0
    4.2196  -19.4342   20.8547 C   0  0  1  0  0  0  0  0  0  0  0  0
    3.1441  -18.3558   20.7137 C   0  0  0  0  0  0  0  0  0  0  0  0
    4.7484  -19.3639   22.2661 C   0  0  2  0  0  0  0  0  0  0  0  0
    3.6243  -19.7436   23.1375 N   0  0  0  0  0  0  0  0  0  0  0  0
    5.2231  -17.9918   22.6282 C   0  0  0  0  0  0  0  0  0  0  0  0
    4.3807  -17.0983   22.6513 O   0  0  0  0  0  0  0  0  0  0  0  0
    6.5714  -17.7782   22.9199 N   0  0  0  0  0  0  0  0  0  0  0  0
    7.1337  -16.4343   22.9374 C   0  0  1  0  0  0  0  0  0  0  0  0
    7.8557  -16.1958   24.2479 C   0  0  0  0  0  0  0  0  0  0  0  0
    7.1185  -15.3179   25.1593 C   0  0  0  0  0  0  0  0  0  0  0  0
    5.8147  -15.5268   25.6254 C   0  0  0  0  0  0  0  0  0  0  0  0
    5.4807  -14.5277   26.4246 N   0  0  0  0  0  0  0  0  0  0  0  0
    6.4911  -13.6285   26.5395 C   0  0  0  0  0  0  0  0  0  0  0  0
    6.6193  -12.4470   27.2434 C   0  0  0  0  0  0  0  0  0  0  0  0
    7.7886  -11.7215   27.1726 C   0  0  0  0  0  0  0  0  0  0  0  0
    8.8081  -12.2000   26.3938 C   0  0  0  0  0  0  0  0  0  0  0  0
    8.6818  -13.3733   25.6947 C   0  0  0  0  0  0  0  0  0  0  0  0
    7.5098  -14.1381   25.7408 C   0  0  0  0  0  0  0  0  0  0  0  0
    8.0679  -16.2267   21.8284 C   0  0  0  0  0  0  0  0  0  0  0  0
    8.5741  -17.2168   21.2493 O   0  0  0  0  0  0  0  0  0  0  0  0
    8.4239  -14.9372   21.3792 N   0  0  0  0  0  0  0  0  0  0  0  0
    8.1835  -13.6668   22.0093 C   0  0  0  0  0  0  0  0  0  0  0  0
    7.7824  -12.7869   20.8343 C   0  0  0  0  0  0  0  0  0  0  0  0
    8.4110  -13.4292   19.6262 C   0  0  0  0  0  0  0  0  0  0  0  0
    9.1530  -14.6245   20.1403 C   0  0  1  0  0  0  0  0  0  0  0  0
   10.5609  -14.3579   20.5034 C   0  0  0  0  0  0  0  0  0  0  0  0
   10.8759  -14.2292   21.7049 O   0  0  0  0  0  0  0  0  0  0  0  0
   11.5732  -14.2399   19.5617 O   0  0  0  0  0  0  0  0  0  0  0  0
  2  3  1  1
  2  1  1  0
  4  2  1  0
  4  5  1  1
  6  8  1  0
  6  4  1  0
  7  6  2  0
  9  8  1  0
  9 10  1  1
 10 11  1  0
 11 12  2  0
 11 19  1  0
 12 13  1  0
 13 14  1  0
 14 15  2  0
 16 15  1  0
 17 16  2  0
 18 19  2  0
 18 17  1  0
 19 14  1  0
 20 21  2  0
 20  9  1  0
 22 20  1  0
 23 22  1  0
 24 23  1  0
 25 24  1  0
 25 26  1  0
 26 22  1  0
 27 29  1  0
 26 27  1  1
 28 27  2  0
M  END
$$$$
