VWP.pdb
     RDKit          3D

 29 31  0  0  1  0  0  0  0  0999 V2000
   12.3055  -16.3305   21.5157 C   0  0  0  0  0  0  0  0  0  0  0  0
   11.0547  -16.1285   20.7282 C   0  0  1  0  0  0  0  0  0  0  0  0
   11.1571  -16.8989   19.4108 C   0  0  0  0  0  0  0  0  0  0  0  0
    9.7950  -16.5846   21.4222 C   0  0  2  0  0  0  0  0  0  0  0  0
    8.6883  -16.2477   20.5118 N   0  0  0  0  0  0  0  0  0  0  0  0
    9.5898  -15.8997   22.7368 C   0  0  0  0  0  0  0  0  0  0  0  0
    9.5648  -14.6717   22.7280 O   0  0  0  0  0  0  0  0  0  0  0  0
    9.4376  -16.6585   23.8985 N   0  0  0  0  0  0  0  0  0  0  0  0
    9.4222  -16.0285   25.2121 C   0  0  1  0  0  0  0  0  0  0  0  0
    8.1262  -16.3567   25.9248 C   0  0  0  0  0  0  0  0  0  0  0  0
    7.0524  -15.4045   25.6334 C   0  0  0  0  0  0  0  0  0  0  0  0
    5.7899  -15.7230   25.1179 C   0  0  0  0  0  0  0  0  0  0  0  0
    5.0895  -14.6096   24.9829 N   0  0  0  0  0  0  0  0  0  0  0  0
    5.8037  -13.5258   25.3802 C   0  0  0  0  0  0  0  0  0  0  0  0
    5.5120  -12.1766   25.4275 C   0  0  0  0  0  0  0  0  0  0  0  0
    6.4515  -11.2800   25.8881 C   0  0  0  0  0  0  0  0  0  0  0  0
    7.6685  -11.7596   26.2930 C   0  0  0  0  0  0  0  0  0  0  0  0
    7.9589  -13.0993   26.2467 C   0  0  0  0  0  0  0  0  0  0  0  0
    7.0310  -14.0407   25.7849 C   0  0  0  0  0  0  0  0  0  0  0  0
   10.5499  -16.4716   26.0353 C   0  0  0  0  0  0  0  0  0  0  0  0
   11.4178  -17.2305   25.5429 O   0  0  0  0  0  0  0  0  0  0  0  0
   10.7002  -16.0702   27.3798 N   0  0  0  0  0  0  0  0  0  0  0  0
    9.8287  -15.2485   28.1762 C   0  0  0  0  0  0  0  0  0  0  0  0
   10.8097  -14.3649   28.9330 C   0  0  0  0  0  0  0  0  0  0  0  0
   12.0949  -15.1481   28.9772 C   0  0  0  0  0  0  0  0  0  0  0  0
   11.8097  -16.4388   28.2728 C   0  0  1  0  0  0  0  0  0  0  0  0
   11.3325  -17.5231   29.1570 C   0  0  0  0  0  0  0  0  0  0  0  0
   10.1303  -17.8595   29.1296 O   0  0  0  0  0  0  0  0  0  0  0  0
   12.1657  -18.2017   30.0350 O   0  0  0  0  0  0  0  0  0  0  0  0
  2  3  1  6
  2  1  1  0
  4  2  1  0
  4  5  1  6
  6  8  1  0
  6  4  1  0
  7  6  2  0
  9  8  1  0
  9 10  1  1
 10 11  1  0
 11 12  2  0
 11 19  1  0
 12 13  1  0
 13 14  1  0
 14 15  2  0
 16 15  1  0
 17 16  2  0
 18 19  2  0
 18 17  1  0
 19 14  1  0
 20 21  2  0
 20  9  1  0
 22 20  1  0
 23 22  1  0
 24 23  1  0
 25 24  1  0
 25 26  1  0
 26 22  1  0
 27 29  1  0
 26 27  1  1
 28 27  2  0
M  END
$$$$
