VWP.pdb
     RDKit          3D

 29 31  0  0  1  0  0  0  0  0999 V2000
   11.4721  -18.7311   20.4067 C   0  0  0  0  0  0  0  0  0  0  0  0
   11.3466  -17.4199   21.1071 C   0  0  1  0  0  0  0  0  0  0  0  0
   12.0560  -16.3399   20.2888 C   0  0  0  0  0  0  0  0  0  0  0  0
    9.9268  -16.9598   21.3291 C   0  0  2  0  0  0  0  0  0  0  0  0
    9.5868  -16.1249   20.1652 N   0  0  0  0  0  0  0  0  0  0  0  0
    9.7783  -16.1572   22.5832 C   0  0  0  0  0  0  0  0  0  0  0  0
   10.0832  -14.9689   22.5243 O   0  0  0  0  0  0  0  0  0  0  0  0
    9.3106  -16.7690   23.7475 N   0  0  0  0  0  0  0  0  0  0  0  0
    9.2731  -16.0484   25.0133 C   0  0  1  0  0  0  0  0  0  0  0  0
    7.9514  -16.3005   25.7097 C   0  0  0  0  0  0  0  0  0  0  0  0
    6.9473  -15.2724   25.4276 C   0  0  0  0  0  0  0  0  0  0  0  0
    5.6343  -15.5026   24.9988 C   0  0  0  0  0  0  0  0  0  0  0  0
    5.0246  -14.3395   24.8440 N   0  0  0  0  0  0  0  0  0  0  0  0
    5.8505  -13.3052   25.1449 C   0  0  0  0  0  0  0  0  0  0  0  0
    5.6780  -11.9348   25.1375 C   0  0  0  0  0  0  0  0  0  0  0  0
    6.7159  -11.1037   25.4990 C   0  0  0  0  0  0  0  0  0  0  0  0
    7.9092  -11.6687   25.8618 C   0  0  0  0  0  0  0  0  0  0  0  0
    8.0813  -13.0294   25.8697 C   0  0  0  0  0  0  0  0  0  0  0  0
    7.0511  -13.9064   25.5087 C   0  0  0  0  0  0  0  0  0  0  0  0
   10.3682  -16.4548   25.8972 C   0  0  0  0  0  0  0  0  0  0  0  0
   11.2517  -17.2364   25.4723 O   0  0  0  0  0  0  0  0  0  0  0  0
   10.4695  -15.9929   27.2267 N   0  0  0  0  0  0  0  0  0  0  0  0
    9.5350  -15.1969   27.9762 C   0  0  0  0  0  0  0  0  0  0  0  0
   10.4458  -14.2250   28.7121 C   0  0  0  0  0  0  0  0  0  0  0  0
   11.7761  -14.9240   28.8071 C   0  0  0  0  0  0  0  0  0  0  0  0
   11.5837  -16.2564   28.1505 C   0  0  1  0  0  0  0  0  0  0  0  0
   11.1589  -17.3332   29.0699 C   0  0  0  0  0  0  0  0  0  0  0  0
   11.9574  -17.7652   29.9272 O   0  0  0  0  0  0  0  0  0  0  0  0
    9.8941  -17.9027   29.0309 O   0  0  0  0  0  0  0  0  0  0  0  0
  2  3  1  6
  2  1  1  0
  4  2  1  0
  4  5  1  6
  6  8  1  0
  6  4  1  0
  7  6  2  0
  9  8  1  0
  9 10  1  1
 10 11  1  0
 11 12  2  0
 11 19  1  0
 12 13  1  0
 13 14  1  0
 14 15  2  0
 16 15  1  0
 17 16  2  0
 18 19  2  0
 18 17  1  0
 19 14  1  0
 20 21  2  0
 20  9  1  0
 22 20  1  0
 23 22  1  0
 24 23  1  0
 25 24  1  0
 25 26  1  0
 26 22  1  0
 27 29  1  0
 26 27  1  1
 28 27  2  0
M  END
$$$$
