VWP.pdb
     RDKit          3D

 29 31  0  0  1  0  0  0  0  0999 V2000
   12.1745  -18.8025   20.2845 C   0  0  0  0  0  0  0  0  0  0  0  0
   11.9367  -17.9731   21.5015 C   0  0  1  0  0  0  0  0  0  0  0  0
   13.1563  -17.0855   21.7544 C   0  0  0  0  0  0  0  0  0  0  0  0
   10.7297  -17.0713   21.4208 C   0  0  2  0  0  0  0  0  0  0  0  0
   10.9929  -16.1436   20.3086 N   0  0  0  0  0  0  0  0  0  0  0  0
   10.5142  -16.2950   22.6818 C   0  0  0  0  0  0  0  0  0  0  0  0
   11.0628  -15.1990   22.7627 O   0  0  0  0  0  0  0  0  0  0  0  0
    9.7182  -16.8275   23.6973 N   0  0  0  0  0  0  0  0  0  0  0  0
    9.5070  -16.1051   24.9449 C   0  0  1  0  0  0  0  0  0  0  0  0
    8.0686  -16.2633   25.3936 C   0  0  0  0  0  0  0  0  0  0  0  0
    7.2065  -15.1615   24.9604 C   0  0  0  0  0  0  0  0  0  0  0  0
    6.3697  -15.1662   23.8377 C   0  0  0  0  0  0  0  0  0  0  0  0
    5.7488  -14.0012   23.7617 N   0  0  0  0  0  0  0  0  0  0  0  0
    6.1125  -13.1807   24.7802 C   0  0  0  0  0  0  0  0  0  0  0  0
    5.7465  -11.8940   25.1241 C   0  0  0  0  0  0  0  0  0  0  0  0
    6.2893  -11.2936   26.2391 C   0  0  0  0  0  0  0  0  0  0  0  0
    7.1914  -12.0010   26.9880 C   0  0  0  0  0  0  0  0  0  0  0  0
    7.5552  -13.2788   26.6474 C   0  0  0  0  0  0  0  0  0  0  0  0
    7.0261  -13.9224   25.5221 C   0  0  0  0  0  0  0  0  0  0  0  0
   10.3973  -16.5868   26.0037 C   0  0  0  0  0  0  0  0  0  0  0  0
   11.2648  -17.4526   25.7395 O   0  0  0  0  0  0  0  0  0  0  0  0
   10.3162  -16.1061   27.3279 N   0  0  0  0  0  0  0  0  0  0  0  0
    9.2841  -15.3085   27.9339 C   0  0  0  0  0  0  0  0  0  0  0  0
   10.0812  -14.3187   28.7709 C   0  0  0  0  0  0  0  0  0  0  0  0
   11.3916  -15.0045   29.0534 C   0  0  0  0  0  0  0  0  0  0  0  0
   11.2983  -16.3473   28.3964 C   0  0  1  0  0  0  0  0  0  0  0  0
   10.7617  -17.4154   29.2662 C   0  0  0  0  0  0  0  0  0  0  0  0
   11.4504  -17.8444   30.2152 O   0  0  0  0  0  0  0  0  0  0  0  0
    9.5075  -17.9795   29.0811 O   0  0  0  0  0  0  0  0  0  0  0  0
  2  3  1  6
  2  1  1  0
  4  2  1  0
  4  5  1  6
  6  8  1  0
  6  4  1  0
  7  6  2  0
  9  8  1  0
  9 10  1  1
 10 11  1  0
 11 12  2  0
 11 19  1  0
 12 13  1  0
 13 14  1  0
 14 15  2  0
 16 15  1  0
 17 16  2  0
 18 19  2  0
 18 17  1  0
 19 14  1  0
 20 21  2  0
 20  9  1  0
 22 20  1  0
 23 22  1  0
 24 23  1  0
 25 24  1  0
 25 26  1  0
 26 22  1  0
 27 29  1  0
 26 27  1  1
 28 27  2  0
M  END
$$$$
