VWP.pdb
     RDKit          3D

 29 31  0  0  1  0  0  0  0  0999 V2000
    8.4425  -22.7604   21.6775 C   0  0  0  0  0  0  0  0  0  0  0  0
    8.8358  -21.4108   22.1768 C   0  0  1  0  0  0  0  0  0  0  0  0
   10.3215  -21.1810   21.8952 C   0  0  0  0  0  0  0  0  0  0  0  0
    8.0752  -20.2651   21.5558 C   0  0  2  0  0  0  0  0  0  0  0  0
    8.3020  -20.3698   20.1050 N   0  0  0  0  0  0  0  0  0  0  0  0
    8.5531  -18.9338   22.0439 C   0  0  0  0  0  0  0  0  0  0  0  0
    9.6092  -18.5149   21.5771 O   0  0  0  0  0  0  0  0  0  0  0  0
    7.8033  -18.2307   22.9882 N   0  0  0  0  0  0  0  0  0  0  0  0
    8.2398  -16.9300   23.4787 C   0  0  1  0  0  0  0  0  0  0  0  0
    7.0417  -16.0212   23.6630 C   0  0  0  0  0  0  0  0  0  0  0  0
    7.4111  -14.6344   23.9547 C   0  0  0  0  0  0  0  0  0  0  0  0
    8.1456  -13.7866   23.1165 C   0  0  0  0  0  0  0  0  0  0  0  0
    8.2879  -12.6145   23.7118 N   0  0  0  0  0  0  0  0  0  0  0  0
    7.6865  -12.6026   24.9287 C   0  0  0  0  0  0  0  0  0  0  0  0
    7.5637  -11.6328   25.9045 C   0  0  0  0  0  0  0  0  0  0  0  0
    6.8817  -11.9051   27.0703 C   0  0  0  0  0  0  0  0  0  0  0  0
    6.3352  -13.1502   27.2319 C   0  0  0  0  0  0  0  0  0  0  0  0
    6.4565  -14.1137   26.2633 C   0  0  0  0  0  0  0  0  0  0  0  0
    7.1420  -13.8754   25.0659 C   0  0  0  0  0  0  0  0  0  0  0  0
    8.9557  -17.0468   24.7513 C   0  0  0  0  0  0  0  0  0  0  0  0
    8.5030  -17.7918   25.6524 O   0  0  0  0  0  0  0  0  0  0  0  0
   10.1530  -16.3445   25.0053 N   0  0  0  0  0  0  0  0  0  0  0  0
   10.6579  -15.1634   24.3581 C   0  0  0  0  0  0  0  0  0  0  0  0
   12.1405  -15.4750   24.2138 C   0  0  0  0  0  0  0  0  0  0  0  0
   12.4429  -16.4719   25.3009 C   0  0  0  0  0  0  0  0  0  0  0  0
   11.1521  -16.6825   26.0309 C   0  0  1  0  0  0  0  0  0  0  0  0
   10.9445  -15.7719   27.1767 C   0  0  0  0  0  0  0  0  0  0  0  0
   11.5712  -15.9627   28.2398 O   0  0  0  0  0  0  0  0  0  0  0  0
   10.0719  -14.6938   27.1345 O   0  0  0  0  0  0  0  0  0  0  0  0
  2  3  1  6
  2  1  1  0
  4  2  1  0
  4  5  1  6
  6  8  1  0
  6  4  1  0
  7  6  2  0
  9  8  1  0
  9 10  1  1
 10 11  1  0
 11 12  2  0
 11 19  1  0
 12 13  1  0
 13 14  1  0
 14 15  2  0
 16 15  1  0
 17 16  2  0
 18 19  2  0
 18 17  1  0
 19 14  1  0
 20 21  2  0
 20  9  1  0
 22 20  1  0
 23 22  1  0
 24 23  1  0
 25 24  1  0
 25 26  1  0
 26 22  1  0
 27 29  1  0
 26 27  1  1
 28 27  2  0
M  END
$$$$
