VWP.pdb
     RDKit          3D

 29 31  0  0  1  0  0  0  0  0999 V2000
   13.1949  -18.4210   22.3081 C   0  0  0  0  0  0  0  0  0  0  0  0
   13.1794  -17.4066   21.2144 C   0  0  1  0  0  0  0  0  0  0  0  0
   13.7291  -18.0362   19.9335 C   0  0  0  0  0  0  0  0  0  0  0  0
   11.8144  -16.8487   20.8946 C   0  0  2  0  0  0  0  0  0  0  0  0
   12.0049  -15.9522   19.7426 N   0  0  0  0  0  0  0  0  0  0  0  0
   11.2320  -16.0794   22.0384 C   0  0  0  0  0  0  0  0  0  0  0  0
   11.7644  -15.0088   22.3191 O   0  0  0  0  0  0  0  0  0  0  0  0
   10.1323  -16.5901   22.7300 N   0  0  0  0  0  0  0  0  0  0  0  0
    9.5330  -15.8569   23.8372 C   0  0  1  0  0  0  0  0  0  0  0  0
    8.0470  -15.6860   23.5965 C   0  0  0  0  0  0  0  0  0  0  0  0
    7.3404  -15.1133   24.7444 C   0  0  0  0  0  0  0  0  0  0  0  0
    6.6840  -15.8357   25.7485 C   0  0  0  0  0  0  0  0  0  0  0  0
    6.1596  -14.9851   26.6145 N   0  0  0  0  0  0  0  0  0  0  0  0
    6.4188  -13.6999   26.2628 C   0  0  0  0  0  0  0  0  0  0  0  0
    6.0904  -12.4866   26.8355 C   0  0  0  0  0  0  0  0  0  0  0  0
    6.4968  -11.3093   26.2461 C   0  0  0  0  0  0  0  0  0  0  0  0
    7.2273  -11.3759   25.0898 C   0  0  0  0  0  0  0  0  0  0  0  0
    7.5541  -12.5802   24.5206 C   0  0  0  0  0  0  0  0  0  0  0  0
    7.1593  -13.7974   25.0892 C   0  0  0  0  0  0  0  0  0  0  0  0
    9.7378  -16.5462   25.1134 C   0  0  0  0  0  0  0  0  0  0  0  0
    9.8580  -17.7940   25.1329 O   0  0  0  0  0  0  0  0  0  0  0  0
    9.8076  -15.8500   26.3389 N   0  0  0  0  0  0  0  0  0  0  0  0
    9.2036  -14.5945   26.6960 C   0  0  0  0  0  0  0  0  0  0  0  0
   10.3106  -13.9084   27.4832 C   0  0  0  0  0  0  0  0  0  0  0  0
   11.1663  -15.0257   28.0187 C   0  0  0  0  0  0  0  0  0  0  0  0
   10.5243  -16.2933   27.5448 C   0  0  1  0  0  0  0  0  0  0  0  0
    9.5260  -16.8567   28.4782 C   0  0  0  0  0  0  0  0  0  0  0  0
    9.8907  -17.2680   29.5994 O   0  0  0  0  0  0  0  0  0  0  0  0
    8.1768  -16.9558   28.1694 O   0  0  0  0  0  0  0  0  0  0  0  0
  2  3  1  6
  2  1  1  0
  4  2  1  0
  4  5  1  6
  6  8  1  0
  6  4  1  0
  7  6  2  0
  9  8  1  0
  9 10  1  6
 10 11  1  0
 11 12  2  0
 11 19  1  0
 12 13  1  0
 13 14  1  0
 14 15  2  0
 16 15  1  0
 17 16  2  0
 18 19  2  0
 18 17  1  0
 19 14  1  0
 20 21  2  0
 20  9  1  0
 22 20  1  0
 23 22  1  0
 24 23  1  0
 25 24  1  0
 25 26  1  0
 26 22  1  0
 27 29  1  0
 26 27  1  1
 28 27  2  0
M  END
$$$$
