VWP.pdb
     RDKit          3D

 29 31  0  0  1  0  0  0  0  0999 V2000
    7.2136  -20.3965   20.6836 C   0  0  0  0  0  0  0  0  0  0  0  0
    6.0212  -20.7337   21.5142 C   0  0  1  0  0  0  0  0  0  0  0  0
    5.9222  -22.2527   21.6631 C   0  0  0  0  0  0  0  0  0  0  0  0
    6.0355  -20.1430   22.9026 C   0  0  2  0  0  0  0  0  0  0  0  0
    4.7626  -20.5434   23.5244 N   0  0  0  0  0  0  0  0  0  0  0  0
    6.1378  -18.6502   22.8847 C   0  0  0  0  0  0  0  0  0  0  0  0
    5.2409  -18.0365   22.3123 O   0  0  0  0  0  0  0  0  0  0  0  0
    7.2200  -18.0212   23.5025 N   0  0  0  0  0  0  0  0  0  0  0  0
    7.4857  -16.6039   23.2941 C   0  0  1  0  0  0  0  0  0  0  0  0
    8.1339  -16.0149   24.5304 C   0  0  0  0  0  0  0  0  0  0  0  0
    7.2300  -15.1582   25.3010 C   0  0  0  0  0  0  0  0  0  0  0  0
    5.9229  -15.4803   25.6866 C   0  0  0  0  0  0  0  0  0  0  0  0
    5.4143  -14.4652   26.3645 N   0  0  0  0  0  0  0  0  0  0  0  0
    6.3055  -13.4469   26.4713 C   0  0  0  0  0  0  0  0  0  0  0  0
    6.2423  -12.2048   27.0720 C   0  0  0  0  0  0  0  0  0  0  0  0
    7.3256  -11.3548   27.0220 C   0  0  0  0  0  0  0  0  0  0  0  0
    8.4536  -11.7721   26.3675 C   0  0  0  0  0  0  0  0  0  0  0  0
    8.5173  -13.0055   25.7709 C   0  0  0  0  0  0  0  0  0  0  0  0
    7.4378  -13.8967   25.7998 C   0  0  0  0  0  0  0  0  0  0  0  0
    8.3611  -16.3839   22.1404 C   0  0  0  0  0  0  0  0  0  0  0  0
    9.0714  -17.3239   21.7117 O   0  0  0  0  0  0  0  0  0  0  0  0
    8.4357  -15.1377   21.4826 N   0  0  0  0  0  0  0  0  0  0  0  0
    7.9086  -13.8666   21.9010 C   0  0  0  0  0  0  0  0  0  0  0  0
    7.3507  -13.2983   20.6042 C   0  0  0  0  0  0  0  0  0  0  0  0
    8.1317  -13.9733   19.5080 C   0  0  0  0  0  0  0  0  0  0  0  0
    9.1060  -14.8768   20.1993 C   0  0  1  0  0  0  0  0  0  0  0  0
   10.4127  -14.2519   20.4946 C   0  0  0  0  0  0  0  0  0  0  0  0
   11.2072  -14.0097   19.5622 O   0  0  0  0  0  0  0  0  0  0  0  0
   10.8133  -13.9131   21.7792 O   0  0  0  0  0  0  0  0  0  0  0  0
  2  3  1  1
  2  1  1  0
  4  2  1  0
  4  5  1  6
  6  8  1  0
  6  4  1  0
  7  6  2  0
  9  8  1  0
  9 10  1  1
 10 11  1  0
 11 12  2  0
 11 19  1  0
 12 13  1  0
 13 14  1  0
 14 15  2  0
 16 15  1  0
 17 16  2  0
 18 19  2  0
 18 17  1  0
 19 14  1  0
 20 21  2  0
 20  9  1  0
 22 20  1  0
 23 22  1  0
 24 23  1  0
 25 24  1  0
 25 26  1  0
 26 22  1  0
 27 29  1  0
 26 27  1  1
 28 27  2  0
M  END
$$$$
