VWP.pdb
     RDKit          3D

 29 31  0  0  1  0  0  0  0  0999 V2000
    7.6523  -20.7478   21.7319 C   0  0  0  0  0  0  0  0  0  0  0  0
    6.1775  -20.9589   21.8075 C   0  0  1  0  0  0  0  0  0  0  0  0
    5.8703  -22.4468   21.6317 C   0  0  0  0  0  0  0  0  0  0  0  0
    5.5454  -20.5165   23.1042 C   0  0  2  0  0  0  0  0  0  0  0  0
    4.1062  -20.7943   22.9668 N   0  0  0  0  0  0  0  0  0  0  0  0
    5.7521  -19.0585   23.3697 C   0  0  0  0  0  0  0  0  0  0  0  0
    5.2513  -18.2699   22.5722 O   0  0  0  0  0  0  0  0  0  0  0  0
    6.4876  -18.6534   24.4848 N   0  0  0  0  0  0  0  0  0  0  0  0
    6.8807  -17.2616   24.6619 C   0  0  1  0  0  0  0  0  0  0  0  0
    6.9576  -16.9329   26.1389 C   0  0  0  0  0  0  0  0  0  0  0  0
    7.1653  -15.5071   26.4008 C   0  0  0  0  0  0  0  0  0  0  0  0
    6.2217  -14.4906   26.2073 C   0  0  0  0  0  0  0  0  0  0  0  0
    6.7640  -13.3332   26.5459 N   0  0  0  0  0  0  0  0  0  0  0  0
    8.0443  -13.4925   26.9678 C   0  0  0  0  0  0  0  0  0  0  0  0
    9.0018  -12.6030   27.4150 C   0  0  0  0  0  0  0  0  0  0  0  0
   10.2488  -13.0560   27.7868 C   0  0  0  0  0  0  0  0  0  0  0  0
   10.5087  -14.3978   27.7015 C   0  0  0  0  0  0  0  0  0  0  0  0
    9.5584  -15.2817   27.2578 C   0  0  0  0  0  0  0  0  0  0  0  0
    8.2805  -14.8600   26.8708 C   0  0  0  0  0  0  0  0  0  0  0  0
    8.1771  -16.9845   24.0389 C   0  0  0  0  0  0  0  0  0  0  0  0
    9.0302  -17.8986   23.9475 O   0  0  0  0  0  0  0  0  0  0  0  0
    8.5069  -15.7108   23.5288 N   0  0  0  0  0  0  0  0  0  0  0  0
    7.8949  -14.4410   23.8149 C   0  0  0  0  0  0  0  0  0  0  0  0
    7.8429  -13.7837   22.4434 C   0  0  0  0  0  0  0  0  0  0  0  0
    8.9448  -14.4352   21.6504 C   0  0  0  0  0  0  0  0  0  0  0  0
    9.5922  -15.4141   22.5811 C   0  0  1  0  0  0  0  0  0  0  0  0
   10.7247  -14.8622   23.3546 C   0  0  0  0  0  0  0  0  0  0  0  0
   10.5312  -13.9129   24.1424 O   0  0  0  0  0  0  0  0  0  0  0  0
   12.0189  -15.3517   23.2501 O   0  0  0  0  0  0  0  0  0  0  0  0
  2  3  1  1
  2  1  1  0
  4  2  1  0
  4  5  1  6
  6  8  1  0
  6  4  1  0
  7  6  2  0
  9  8  1  0
  9 10  1  1
 10 11  1  0
 11 12  2  0
 11 19  1  0
 12 13  1  0
 13 14  1  0
 14 15  2  0
 16 15  1  0
 17 16  2  0
 18 19  2  0
 18 17  1  0
 19 14  1  0
 20 21  2  0
 20  9  1  0
 22 20  1  0
 23 22  1  0
 24 23  1  0
 25 24  1  0
 25 26  1  0
 26 22  1  0
 27 29  1  0
 26 27  1  1
 28 27  2  0
M  END
$$$$
