VWP.pdb
     RDKit          3D

 29 31  0  0  1  0  0  0  0  0999 V2000
    5.5753  -22.4932   22.6056 C   0  0  0  0  0  0  0  0  0  0  0  0
    6.0785  -21.1026   22.8020 C   0  0  1  0  0  0  0  0  0  0  0  0
    6.7551  -20.6237   21.5166 C   0  0  0  0  0  0  0  0  0  0  0  0
    5.0140  -20.0936   23.1560 C   0  0  2  0  0  0  0  0  0  0  0  0
    3.9904  -20.2010   22.1034 N   0  0  0  0  0  0  0  0  0  0  0  0
    5.5463  -18.6958   23.1977 C   0  0  0  0  0  0  0  0  0  0  0  0
    5.4282  -18.0232   22.1768 O   0  0  0  0  0  0  0  0  0  0  0  0
    6.1436  -18.2151   24.3642 N   0  0  0  0  0  0  0  0  0  0  0  0
    6.7386  -16.8859   24.4123 C   0  0  1  0  0  0  0  0  0  0  0  0
    6.9771  -16.4810   25.8526 C   0  0  0  0  0  0  0  0  0  0  0  0
    7.6238  -15.1735   25.9830 C   0  0  0  0  0  0  0  0  0  0  0  0
    8.9860  -14.9088   25.7951 C   0  0  0  0  0  0  0  0  0  0  0  0
    9.2039  -13.6208   26.0004 N   0  0  0  0  0  0  0  0  0  0  0  0
    8.0566  -12.9714   26.3235 C   0  0  0  0  0  0  0  0  0  0  0  0
    7.7782  -11.6517   26.6215 C   0  0  0  0  0  0  0  0  0  0  0  0
    6.4896  -11.2655   26.9197 C   0  0  0  0  0  0  0  0  0  0  0  0
    5.5043  -12.2163   26.9121 C   0  0  0  0  0  0  0  0  0  0  0  0
    5.7799  -13.5269   26.6159 C   0  0  0  0  0  0  0  0  0  0  0  0
    7.0760  -13.9580   26.3083 C   0  0  0  0  0  0  0  0  0  0  0  0
    8.0074  -16.8370   23.6820 C   0  0  0  0  0  0  0  0  0  0  0  0
    8.7497  -17.8470   23.6585 O   0  0  0  0  0  0  0  0  0  0  0  0
    8.4318  -15.6810   22.9929 N   0  0  0  0  0  0  0  0  0  0  0  0
    8.0814  -14.3078   23.2382 C   0  0  0  0  0  0  0  0  0  0  0  0
    7.8876  -13.7608   21.8314 C   0  0  0  0  0  0  0  0  0  0  0  0
    8.7187  -14.6487   20.9437 C   0  0  0  0  0  0  0  0  0  0  0  0
    9.3640  -15.6467   21.8552 C   0  0  1  0  0  0  0  0  0  0  0  0
   10.6865  -15.2346   22.3714 C   0  0  0  0  0  0  0  0  0  0  0  0
   10.7998  -14.8678   23.5596 O   0  0  0  0  0  0  0  0  0  0  0  0
   11.8335  -15.2327   21.5904 O   0  0  0  0  0  0  0  0  0  0  0  0
  2  3  1  6
  2  1  1  0
  4  2  1  0
  4  5  1  6
  6  8  1  0
  6  4  1  0
  7  6  2  0
  9  8  1  0
  9 10  1  1
 10 11  1  0
 11 12  2  0
 11 19  1  0
 12 13  1  0
 13 14  1  0
 14 15  2  0
 16 15  1  0
 17 16  2  0
 18 19  2  0
 18 17  1  0
 19 14  1  0
 20 21  2  0
 20  9  1  0
 22 20  1  0
 23 22  1  0
 24 23  1  0
 25 24  1  0
 25 26  1  0
 26 22  1  0
 27 29  1  0
 26 27  1  1
 28 27  2  0
M  END
$$$$
