VWP.pdb
     RDKit          3D

 29 31  0  0  1  0  0  0  0  0999 V2000
   12.8346  -18.8661   22.4523 C   0  0  0  0  0  0  0  0  0  0  0  0
   13.0902  -17.8454   21.3949 C   0  0  1  0  0  0  0  0  0  0  0  0
   13.6421  -18.5373   20.1475 C   0  0  0  0  0  0  0  0  0  0  0  0
   11.8736  -17.0581   20.9747 C   0  0  2  0  0  0  0  0  0  0  0  0
   12.3320  -16.1398   19.9194 N   0  0  0  0  0  0  0  0  0  0  0  0
   11.2867  -16.2717   22.1044 C   0  0  0  0  0  0  0  0  0  0  0  0
   11.9636  -15.3505   22.5536 O   0  0  0  0  0  0  0  0  0  0  0  0
   10.0231  -16.6019   22.5973 N   0  0  0  0  0  0  0  0  0  0  0  0
    9.4645  -15.9168   23.7555 C   0  0  1  0  0  0  0  0  0  0  0  0
    7.9715  -15.7339   23.5742 C   0  0  0  0  0  0  0  0  0  0  0  0
    7.3188  -15.1389   24.7424 C   0  0  0  0  0  0  0  0  0  0  0  0
    6.7628  -15.8411   25.8188 C   0  0  0  0  0  0  0  0  0  0  0  0
    6.2608  -14.9741   26.6819 N   0  0  0  0  0  0  0  0  0  0  0  0
    6.4399  -13.6967   26.2591 C   0  0  0  0  0  0  0  0  0  0  0  0
    6.0980  -12.4730   26.8010 C   0  0  0  0  0  0  0  0  0  0  0  0
    6.4127  -11.3081   26.1357 C   0  0  0  0  0  0  0  0  0  0  0  0
    7.0668  -11.3973   24.9361 C   0  0  0  0  0  0  0  0  0  0  0  0
    7.4070  -12.6120   24.3974 C   0  0  0  0  0  0  0  0  0  0  0  0
    7.1041  -13.8171   25.0427 C   0  0  0  0  0  0  0  0  0  0  0  0
    9.7117  -16.6610   24.9927 C   0  0  0  0  0  0  0  0  0  0  0  0
    9.8188  -17.9096   24.9554 O   0  0  0  0  0  0  0  0  0  0  0  0
    9.8372  -16.0177   26.2424 N   0  0  0  0  0  0  0  0  0  0  0  0
    9.2928  -14.7545   26.6627 C   0  0  0  0  0  0  0  0  0  0  0  0
   10.4442  -14.1448   27.4492 C   0  0  0  0  0  0  0  0  0  0  0  0
   11.2656  -15.3156   27.9199 C   0  0  0  0  0  0  0  0  0  0  0  0
   10.5622  -16.5368   27.4125 C   0  0  1  0  0  0  0  0  0  0  0  0
    9.5631  -17.0970   28.3469 C   0  0  0  0  0  0  0  0  0  0  0  0
    9.9377  -17.5831   29.4344 O   0  0  0  0  0  0  0  0  0  0  0  0
    8.2024  -17.1128   28.0754 O   0  0  0  0  0  0  0  0  0  0  0  0
  2  3  1  6
  2  1  1  0
  4  2  1  0
  4  5  1  6
  6  8  1  0
  6  4  1  0
  7  6  2  0
  9  8  1  0
  9 10  1  6
 10 11  1  0
 11 12  2  0
 11 19  1  0
 12 13  1  0
 13 14  1  0
 14 15  2  0
 16 15  1  0
 17 16  2  0
 18 19  2  0
 18 17  1  0
 19 14  1  0
 20 21  2  0
 20  9  1  0
 22 20  1  0
 23 22  1  0
 24 23  1  0
 25 24  1  0
 25 26  1  0
 26 22  1  0
 27 29  1  0
 26 27  1  1
 28 27  2  0
M  END
$$$$
