PSA.pdb
     RDKit          3D

 19 19  0  0  1  0  0  0  0  0999 V2000
   24.3759  -11.6304  -19.9628 N   0  0  0  0  0  0  0  0  0  0  0  0
   24.3234  -12.6779  -20.9702 C   0  0  0  0  0  0  0  0  0  0  0  0
   23.9628  -13.8862  -20.1452 C   0  0  0  0  0  0  0  0  0  0  0  0
   22.9923  -13.3435  -19.1165 C   0  0  0  0  0  0  0  0  0  0  0  0
   23.1413  -11.8689  -19.2409 C   0  0  1  0  0  0  0  0  0  0  0  0
   23.1042  -11.1372  -17.9634 C   0  0  0  0  0  0  0  0  0  0  0  0
   22.0629  -11.2444  -17.2649 O   0  0  0  0  0  0  0  0  0  0  0  0
   26.3546   -9.3042  -16.0048 O   0  0  0  0  0  0  0  0  0  0  0  0
   25.2384   -9.8373  -15.4043 C   0  0  0  0  0  0  0  0  0  0  0  0
   23.9797   -9.6353  -16.2242 C   0  0  2  0  0  0  0  0  0  0  0  0
   24.1422  -10.3320  -17.4703 N   0  0  0  0  0  0  0  0  0  0  0  0
   23.7029   -8.1934  -16.4474 C   0  0  0  0  0  0  0  0  0  0  0  0
   24.1925   -7.6101  -17.4692 O   0  0  0  0  0  0  0  0  0  0  0  0
   21.5912   -5.5419  -14.7742 C   0  0  0  0  0  0  0  0  0  0  0  0
   22.5923   -6.0272  -15.7998 C   0  0  2  0  0  0  0  0  0  0  0  0
   22.9152   -7.4119  -15.5811 N   0  0  0  0  0  0  0  0  0  0  0  0
   23.8131   -5.1590  -15.6480 C   0  0  0  0  0  0  0  0  0  0  0  0
   24.7791   -5.6039  -14.9808 O   0  0  0  0  0  0  0  0  0  0  0  0
   23.8882   -3.9083  -16.2174 O   0  0  0  0  0  0  0  0  0  0  0  0
  1  5  1  0
  2  1  1  0
  2  3  1  0
  3  4  1  0
  5  6  1  1
  5  4  1  0
  6  7  2  0
  8  9  1  0
 10  9  1  1
 11 10  1  0
 11  6  1  0
 12 16  1  0
 12 10  1  0
 13 12  2  0
 15 16  1  0
 15 14  1  1
 17 19  1  0
 17 15  1  0
 18 17  2  0
M  END
$$$$
