PSA.pdb
     RDKit          3D

 19 19  0  0  1  0  0  0  0  0999 V2000
   19.9468  -12.2651  -16.0997 N   0  0  0  0  0  0  0  0  0  0  0  0
   19.8072  -13.5304  -16.8027 C   0  0  0  0  0  0  0  0  0  0  0  0
   18.4961  -13.3444  -17.5220 C   0  0  0  0  0  0  0  0  0  0  0  0
   18.5165  -11.8879  -17.9375 C   0  0  0  0  0  0  0  0  0  0  0  0
   19.6472  -11.3187  -17.1566 C   0  0  1  0  0  0  0  0  0  0  0  0
   19.4093   -9.9650  -16.6278 C   0  0  0  0  0  0  0  0  0  0  0  0
   19.4081   -9.0136  -17.4517 O   0  0  0  0  0  0  0  0  0  0  0  0
   18.8557   -8.9709  -12.5693 O   0  0  0  0  0  0  0  0  0  0  0  0
   18.1522   -8.3427  -13.5700 C   0  0  0  0  0  0  0  0  0  0  0  0
   18.9084   -8.3061  -14.8830 C   0  0  2  0  0  0  0  0  0  0  0  0
   19.1848   -9.6600  -15.2766 N   0  0  0  0  0  0  0  0  0  0  0  0
   20.1597   -7.5147  -14.7670 C   0  0  0  0  0  0  0  0  0  0  0  0
   21.2353   -8.0899  -14.3976 O   0  0  0  0  0  0  0  0  0  0  0  0
   21.2212   -3.9604  -15.4816 C   0  0  0  0  0  0  0  0  0  0  0  0
   21.4177   -5.3353  -14.8812 C   0  0  2  0  0  0  0  0  0  0  0  0
   20.2345   -6.1370  -15.0457 N   0  0  0  0  0  0  0  0  0  0  0  0
   21.7262   -5.1236  -13.4227 C   0  0  0  0  0  0  0  0  0  0  0  0
   20.8381   -5.4040  -12.5809 O   0  0  0  0  0  0  0  0  0  0  0  0
   22.9431   -4.6367  -13.0028 O   0  0  0  0  0  0  0  0  0  0  0  0
  1  5  1  0
  2  1  1  0
  2  3  1  0
  3  4  1  0
  5  6  1  1
  5  4  1  0
  6  7  2  0
  8  9  1  0
 10  9  1  1
 11 10  1  0
 11  6  1  0
 12 16  1  0
 12 10  1  0
 13 12  2  0
 15 16  1  0
 15 14  1  6
 17 19  1  0
 17 15  1  0
 18 17  2  0
M  END
$$$$
