PSA.pdb
     RDKit          3D

 19 19  0  0  1  0  0  0  0  0999 V2000
   26.2326  -12.0417  -17.4867 N   0  0  0  0  0  0  0  0  0  0  0  0
   27.5209  -12.6306  -17.1579 C   0  0  0  0  0  0  0  0  0  0  0  0
   28.1444  -11.5586  -16.3019 C   0  0  0  0  0  0  0  0  0  0  0  0
   26.9805  -11.0174  -15.4975 C   0  0  0  0  0  0  0  0  0  0  0  0
   25.7891  -11.5840  -16.1844 C   0  0  1  0  0  0  0  0  0  0  0  0
   24.6439  -10.6639  -16.2883 C   0  0  0  0  0  0  0  0  0  0  0  0
   24.5074  -10.0292  -17.3665 O   0  0  0  0  0  0  0  0  0  0  0  0
   21.0111  -11.2961  -15.1773 O   0  0  0  0  0  0  0  0  0  0  0  0
   21.3992  -10.0476  -14.7512 C   0  0  0  0  0  0  0  0  0  0  0  0
   22.6134   -9.5268  -15.4940 C   0  0  2  0  0  0  0  0  0  0  0  0
   23.6973  -10.4445  -15.2760 N   0  0  0  0  0  0  0  0  0  0  0  0
   22.9736   -8.1557  -15.0516 C   0  0  0  0  0  0  0  0  0  0  0  0
   23.7898   -8.0011  -14.0851 O   0  0  0  0  0  0  0  0  0  0  0  0
   22.9322   -4.7920  -16.5690 C   0  0  0  0  0  0  0  0  0  0  0  0
   22.8868   -5.6532  -15.3258 C   0  0  2  0  0  0  0  0  0  0  0  0
   22.4584   -6.9886  -15.6464 N   0  0  0  0  0  0  0  0  0  0  0  0
   21.9194   -4.9892  -14.3822 C   0  0  0  0  0  0  0  0  0  0  0  0
   20.7561   -5.4541  -14.2999 O   0  0  0  0  0  0  0  0  0  0  0  0
   22.2808   -3.9008  -13.6213 O   0  0  0  0  0  0  0  0  0  0  0  0
  1  5  1  0
  2  1  1  0
  2  3  1  0
  3  4  1  0
  5  6  1  6
  5  4  1  0
  6  7  2  0
  8  9  1  0
 10  9  1  1
 11 10  1  0
 11  6  1  0
 12 16  1  0
 12 10  1  0
 13 12  2  0
 15 16  1  0
 15 14  1  6
 17 19  1  0
 17 15  1  0
 18 17  2  0
M  END
$$$$
