PSA.pdb
     RDKit          3D

 19 19  0  0  1  0  0  0  0  0999 V2000
   17.7726  -11.9173  -15.4480 N   0  0  0  0  0  0  0  0  0  0  0  0
   17.3706  -13.3148  -15.4349 C   0  0  0  0  0  0  0  0  0  0  0  0
   18.0300  -13.8406  -16.6837 C   0  0  0  0  0  0  0  0  0  0  0  0
   19.3568  -13.1108  -16.7253 C   0  0  0  0  0  0  0  0  0  0  0  0
   19.1933  -12.0331  -15.7133 C   0  0  1  0  0  0  0  0  0  0  0  0
   19.7867  -10.7394  -16.0914 C   0  0  0  0  0  0  0  0  0  0  0  0
   21.0331  -10.7019  -16.2618 O   0  0  0  0  0  0  0  0  0  0  0  0
   19.5080   -6.5768  -18.3042 O   0  0  0  0  0  0  0  0  0  0  0  0
   18.9634   -7.7555  -17.8512 C   0  0  0  0  0  0  0  0  0  0  0  0
   19.7451   -8.3573  -16.7006 C   0  0  2  0  0  0  0  0  0  0  0  0
   19.0656   -9.5497  -16.2749 N   0  0  0  0  0  0  0  0  0  0  0  0
   19.8908   -7.3935  -15.5802 C   0  0  0  0  0  0  0  0  0  0  0  0
   18.9555   -7.2814  -14.7218 O   0  0  0  0  0  0  0  0  0  0  0  0
   22.6270   -5.1520  -14.2626 C   0  0  0  0  0  0  0  0  0  0  0  0
   21.2017   -5.6574  -14.3102 C   0  0  2  0  0  0  0  0  0  0  0  0
   21.0233   -6.5766  -15.4024 N   0  0  0  0  0  0  0  0  0  0  0  0
   20.3247   -4.4450  -14.4780 C   0  0  0  0  0  0  0  0  0  0  0  0
   19.8852   -4.1840  -15.6247 O   0  0  0  0  0  0  0  0  0  0  0  0
   20.0017   -3.6318  -13.4157 O   0  0  0  0  0  0  0  0  0  0  0  0
  1  5  1  0
  2  1  1  0
  2  3  1  0
  3  4  1  0
  5  6  1  6
  5  4  1  0
  6  7  2  0
  8  9  1  0
 10  9  1  6
 11 10  1  0
 11  6  1  0
 12 16  1  0
 12 10  1  0
 13 12  2  0
 15 16  1  0
 15 14  1  6
 17 19  1  0
 17 15  1  0
 18 17  2  0
M  END
$$$$
