PSA.pdb
     RDKit          3D

 19 19  0  0  1  0  0  0  0  0999 V2000
   79.2051   -6.0673 -145.7214 N   0  0  0  0  0  0  0  0  0  0  0  0
   79.1211   -6.8491 -146.9447 C   0  0  0  0  0  0  0  0  0  0  0  0
   78.2442   -7.9988 -146.5204 C   0  0  0  0  0  0  0  0  0  0  0  0
   77.2347   -7.3579 -145.5904 C   0  0  0  0  0  0  0  0  0  0  0  0
   77.8121   -6.0136 -145.3226 C   0  0  1  0  0  0  0  0  0  0  0  0
   77.6576   -5.5433 -143.9357 C   0  0  0  0  0  0  0  0  0  0  0  0
   77.8819   -6.3716 -143.0151 O   0  0  0  0  0  0  0  0  0  0  0  0
   80.4765   -3.9521 -144.0906 O   0  0  0  0  0  0  0  0  0  0  0  0
   79.5793   -3.8387 -143.0547 C   0  0  0  0  0  0  0  0  0  0  0  0
   78.2699   -3.2054 -143.4812 C   0  0  2  0  0  0  0  0  0  0  0  0
   77.2797   -4.2430 -143.5675 N   0  0  0  0  0  0  0  0  0  0  0  0
   78.4096   -2.4877 -144.7738 C   0  0  0  0  0  0  0  0  0  0  0  0
   77.7318   -2.8715 -145.7824 O   0  0  0  0  0  0  0  0  0  0  0  0
   78.3654    0.2532 -143.4062 C   0  0  0  0  0  0  0  0  0  0  0  0
   78.8640   -0.0103 -144.8102 C   0  0  2  0  0  0  0  0  0  0  0  0
   79.2635   -1.3842 -144.9596 N   0  0  0  0  0  0  0  0  0  0  0  0
   80.0301    0.9166 -145.0296 C   0  0  0  0  0  0  0  0  0  0  0  0
   79.8388    2.1513 -144.9069 O   0  0  0  0  0  0  0  0  0  0  0  0
   81.2804    0.4432 -145.3566 O   0  0  0  0  0  0  0  0  0  0  0  0
  1  5  1  0
  2  1  1  0
  2  3  1  0
  3  4  1  0
  5  6  1  1
  5  4  1  0
  6  7  2  0
  8  9  1  0
 10  9  1  6
 11 10  1  0
 11  6  1  0
 12 16  1  0
 12 10  1  0
 13 12  2  0
 15 16  1  0
 15 14  1  1
 17 19  1  0
 17 15  1  0
 18 17  2  0
M  END
$$$$
