PSA.pdb
     RDKit          3D

 19 19  0  0  1  0  0  0  0  0999 V2000
   19.7325  -10.5860  -16.2554 N   0  0  0  0  0  0  0  0  0  0  0  0
   19.8557  -11.4215  -17.4393 C   0  0  0  0  0  0  0  0  0  0  0  0
   19.3071  -10.5203  -18.5153 C   0  0  0  0  0  0  0  0  0  0  0  0
   19.8049   -9.1449  -18.1218 C   0  0  0  0  0  0  0  0  0  0  0  0
   20.2941   -9.3364  -16.7302 C   0  0  1  0  0  0  0  0  0  0  0  0
   19.9983   -8.2209  -15.8155 C   0  0  0  0  0  0  0  0  0  0  0  0
   18.8845   -8.2324  -15.2297 O   0  0  0  0  0  0  0  0  0  0  0  0
   22.7755   -5.5690  -14.2580 O   0  0  0  0  0  0  0  0  0  0  0  0
   21.5808   -5.8833  -13.6538 C   0  0  0  0  0  0  0  0  0  0  0  0
   20.4611   -6.1051  -14.6508 C   0  0  2  0  0  0  0  0  0  0  0  0
   20.8653   -7.1499  -15.5507 N   0  0  0  0  0  0  0  0  0  0  0  0
   20.1356   -4.8578  -15.3880 C   0  0  0  0  0  0  0  0  0  0  0  0
   20.7146   -4.6135  -16.4967 O   0  0  0  0  0  0  0  0  0  0  0  0
   17.6071   -2.0786  -15.0069 C   0  0  0  0  0  0  0  0  0  0  0  0
   18.7868   -2.7498  -15.6755 C   0  0  2  0  0  0  0  0  0  0  0  0
   19.2059   -3.9058  -14.9288 N   0  0  0  0  0  0  0  0  0  0  0  0
   19.8846   -1.7210  -15.7364 C   0  0  0  0  0  0  0  0  0  0  0  0
   20.8657   -1.8529  -14.9643 O   0  0  0  0  0  0  0  0  0  0  0  0
   19.8329   -0.6570  -16.6079 O   0  0  0  0  0  0  0  0  0  0  0  0
  1  5  1  0
  2  1  1  0
  2  3  1  0
  3  4  1  0
  5  6  1  1
  5  4  1  0
  6  7  2  0
  8  9  1  0
 10  9  1  1
 11 10  1  0
 11  6  1  0
 12 16  1  0
 12 10  1  0
 13 12  2  0
 15 16  1  0
 15 14  1  1
 17 19  1  0
 17 15  1  0
 18 17  2  0
M  END
$$$$
