PSA.pdb
     RDKit          3D

 19 19  0  0  1  0  0  0  0  0999 V2000
   22.7942  -10.9461  -14.5626 N   0  0  0  0  0  0  0  0  0  0  0  0
   23.5819  -12.1418  -14.3081 C   0  0  0  0  0  0  0  0  0  0  0  0
   24.0267  -12.5235  -15.6963 C   0  0  0  0  0  0  0  0  0  0  0  0
   24.2921  -11.1922  -16.3685 C   0  0  0  0  0  0  0  0  0  0  0  0
   23.6789  -10.2049  -15.4403 C   0  0  1  0  0  0  0  0  0  0  0  0
   22.9837   -9.0881  -16.1021 C   0  0  0  0  0  0  0  0  0  0  0  0
   23.6802   -8.3022  -16.7957 O   0  0  0  0  0  0  0  0  0  0  0  0
   19.5837   -9.2218  -18.0203 O   0  0  0  0  0  0  0  0  0  0  0  0
   19.6145   -8.1574  -17.1501 C   0  0  0  0  0  0  0  0  0  0  0  0
   21.0246   -7.7575  -16.7642 C   0  0  2  0  0  0  0  0  0  0  0  0
   21.6057   -8.8376  -16.0158 N   0  0  0  0  0  0  0  0  0  0  0  0
   21.0360   -6.4952  -15.9819 C   0  0  0  0  0  0  0  0  0  0  0  0
   20.8019   -6.5295  -14.7296 O   0  0  0  0  0  0  0  0  0  0  0  0
   21.8050   -2.8621  -16.6820 C   0  0  0  0  0  0  0  0  0  0  0  0
   21.2975   -3.9952  -15.8173 C   0  0  2  0  0  0  0  0  0  0  0  0
   21.2951   -5.2334  -16.5497 N   0  0  0  0  0  0  0  0  0  0  0  0
   19.9028   -3.6171  -15.3942 C   0  0  0  0  0  0  0  0  0  0  0  0
   18.9359   -4.1347  -16.0053 O   0  0  0  0  0  0  0  0  0  0  0  0
   19.6725   -2.7299  -14.3675 O   0  0  0  0  0  0  0  0  0  0  0  0
  1  5  1  0
  2  1  1  0
  2  3  1  0
  3  4  1  0
  5  6  1  6
  5  4  1  0
  6  7  2  0
  8  9  1  0
 10  9  1  1
 11 10  1  0
 11  6  1  0
 12 16  1  0
 12 10  1  0
 13 12  2  0
 15 16  1  0
 15 14  1  6
 17 19  1  0
 17 15  1  0
 18 17  2  0
M  END
$$$$
