PSA.pdb
     RDKit          3D

 19 19  0  0  1  0  0  0  0  0999 V2000
   17.7791   -9.0322  -16.2519 N   0  0  0  0  0  0  0  0  0  0  0  0
   16.5185   -8.8932  -16.9635 C   0  0  0  0  0  0  0  0  0  0  0  0
   15.8921   -7.7162  -16.2611 C   0  0  0  0  0  0  0  0  0  0  0  0
   17.0649   -6.8008  -15.9761 C   0  0  0  0  0  0  0  0  0  0  0  0
   18.2498   -7.6609  -16.2378 C   0  0  1  0  0  0  0  0  0  0  0  0
   19.3651   -7.4748  -15.2943 C   0  0  0  0  0  0  0  0  0  0  0  0
   19.1807   -7.8333  -14.1021 O   0  0  0  0  0  0  0  0  0  0  0  0
   23.3474   -7.0920  -16.2690 O   0  0  0  0  0  0  0  0  0  0  0  0
   22.8556   -7.5406  -15.0657 C   0  0  0  0  0  0  0  0  0  0  0  0
   21.6243   -6.7795  -14.6163 C   0  0  2  0  0  0  0  0  0  0  0  0
   20.6140   -6.9285  -15.6271 N   0  0  0  0  0  0  0  0  0  0  0  0
   21.9309   -5.3474  -14.3706 C   0  0  0  0  0  0  0  0  0  0  0  0
   22.7204   -5.0271  -13.4229 O   0  0  0  0  0  0  0  0  0  0  0  0
   21.3123   -2.0892  -16.1474 C   0  0  0  0  0  0  0  0  0  0  0  0
   21.6821   -2.9032  -14.9268 C   0  0  2  0  0  0  0  0  0  0  0  0
   21.3918   -4.2965  -15.1365 N   0  0  0  0  0  0  0  0  0  0  0  0
   20.8722   -2.3504  -13.7842 C   0  0  0  0  0  0  0  0  0  0  0  0
   19.8584   -2.9899  -13.4106 O   0  0  0  0  0  0  0  0  0  0  0  0
   21.2169   -1.1771  -13.1526 O   0  0  0  0  0  0  0  0  0  0  0  0
  1  5  1  0
  2  1  1  0
  2  3  1  0
  3  4  1  0
  5  6  1  1
  5  4  1  0
  6  7  2  0
  8  9  1  0
 10  9  1  6
 11 10  1  0
 11  6  1  0
 12 16  1  0
 12 10  1  0
 13 12  2  0
 15 16  1  0
 15 14  1  6
 17 19  1  0
 17 15  1  0
 18 17  2  0
M  END
$$$$
