PSA.pdb
     RDKit          3D

 19 19  0  0  1  0  0  0  0  0999 V2000
   17.9643  -10.0140  -16.7891 N   0  0  0  0  0  0  0  0  0  0  0  0
   17.0018  -11.1036  -16.8218 C   0  0  0  0  0  0  0  0  0  0  0  0
   17.6641  -12.1311  -15.9406 C   0  0  0  0  0  0  0  0  0  0  0  0
   18.3070  -11.3058  -14.8451 C   0  0  0  0  0  0  0  0  0  0  0  0
   18.2331   -9.9152  -15.3677 C   0  0  1  0  0  0  0  0  0  0  0  0
   19.4216   -9.0907  -15.0915 C   0  0  0  0  0  0  0  0  0  0  0  0
   19.6951   -8.8550  -13.8858 O   0  0  0  0  0  0  0  0  0  0  0  0
   23.7309   -7.5139  -16.3678 O   0  0  0  0  0  0  0  0  0  0  0  0
   22.5503   -8.1544  -16.6623 C   0  0  0  0  0  0  0  0  0  0  0  0
   21.4434   -7.8215  -15.6820 C   0  0  2  0  0  0  0  0  0  0  0  0
   20.2681   -8.5505  -16.0716 N   0  0  0  0  0  0  0  0  0  0  0  0
   21.1789   -6.3609  -15.6373 C   0  0  0  0  0  0  0  0  0  0  0  0
   20.4453   -5.8272  -16.5324 O   0  0  0  0  0  0  0  0  0  0  0  0
   22.0016   -3.5286  -13.2708 C   0  0  0  0  0  0  0  0  0  0  0  0
   21.3760   -4.1125  -14.5186 C   0  0  2  0  0  0  0  0  0  0  0  0
   21.6995   -5.5085  -14.6454 N   0  0  0  0  0  0  0  0  0  0  0  0
   21.9243   -3.3252  -15.6790 C   0  0  0  0  0  0  0  0  0  0  0  0
   22.9087   -3.7930  -16.3021 O   0  0  0  0  0  0  0  0  0  0  0  0
   21.3755   -2.1227  -16.0626 O   0  0  0  0  0  0  0  0  0  0  0  0
  1  5  1  0
  2  1  1  0
  2  3  1  0
  3  4  1  0
  5  6  1  6
  5  4  1  0
  6  7  2  0
  8  9  1  0
 10  9  1  6
 11 10  1  0
 11  6  1  0
 12 16  1  0
 12 10  1  0
 13 12  2  0
 15 16  1  0
 15 14  1  1
 17 19  1  0
 17 15  1  0
 18 17  2  0
M  END
$$$$
