PSA.pdb
     RDKit          3D

 19 19  0  0  1  0  0  0  0  0999 V2000
   28.2964  -20.2019  -15.7522 N   0  0  0  0  0  0  0  0  0  0  0  0
   28.8675  -19.0167  -16.3718 C   0  0  0  0  0  0  0  0  0  0  0  0
   27.8261  -17.9718  -16.0645 C   0  0  0  0  0  0  0  0  0  0  0  0
   27.3592  -18.3279  -14.6682 C   0  0  0  0  0  0  0  0  0  0  0  0
   27.9202  -19.6880  -14.4497 C   0  0  1  0  0  0  0  0  0  0  0  0
   27.0266  -20.6138  -13.7333 C   0  0  0  0  0  0  0  0  0  0  0  0
   26.6350  -21.6365  -14.3535 O   0  0  0  0  0  0  0  0  0  0  0  0
   25.3833  -19.8465   -9.9554 O   0  0  0  0  0  0  0  0  0  0  0  0
   25.5262  -21.1438  -10.3884 C   0  0  0  0  0  0  0  0  0  0  0  0
   25.5212  -21.2604  -11.8995 C   0  0  2  0  0  0  0  0  0  0  0  0
   26.5819  -20.4390  -12.4140 N   0  0  0  0  0  0  0  0  0  0  0  0
   24.2092  -20.8629  -12.4704 C   0  0  0  0  0  0  0  0  0  0  0  0
   23.9822  -19.6360  -12.7297 O   0  0  0  0  0  0  0  0  0  0  0  0
   21.3371  -22.6096  -14.1013 C   0  0  0  0  0  0  0  0  0  0  0  0
   21.9207  -21.4272  -13.3591 C   0  0  2  0  0  0  0  0  0  0  0  0
   23.1760  -21.7773  -12.7498 N   0  0  0  0  0  0  0  0  0  0  0  0
   20.9071  -21.0354  -12.3169 C   0  0  0  0  0  0  0  0  0  0  0  0
   19.7997  -20.5880  -12.7040 O   0  0  0  0  0  0  0  0  0  0  0  0
   21.1677  -21.1567  -10.9710 O   0  0  0  0  0  0  0  0  0  0  0  0
  1  5  1  0
  2  1  1  0
  2  3  1  0
  3  4  1  0
  5  6  1  6
  5  4  1  0
  6  7  2  0
  8  9  1  0
 10  9  1  1
 11 10  1  0
 11  6  1  0
 12 16  1  0
 12 10  1  0
 13 12  2  0
 15 16  1  0
 15 14  1  1
 17 19  1  0
 17 15  1  0
 18 17  2  0
M  END
$$$$
