PSA.pdb
     RDKit          3D

 19 19  0  0  1  0  0  0  0  0999 V2000
   19.5294  -12.3946  -16.5625 N   0  0  0  0  0  0  0  0  0  0  0  0
   19.4050  -13.2490  -17.7326 C   0  0  0  0  0  0  0  0  0  0  0  0
   18.6047  -12.3809  -18.6689 C   0  0  0  0  0  0  0  0  0  0  0  0
   19.1416  -10.9873  -18.4157 C   0  0  0  0  0  0  0  0  0  0  0  0
   19.9363  -11.1416  -17.1679 C   0  0  1  0  0  0  0  0  0  0  0  0
   19.8246  -10.0162  -16.2247 C   0  0  0  0  0  0  0  0  0  0  0  0
   18.7238   -9.8630  -15.6341 O   0  0  0  0  0  0  0  0  0  0  0  0
   21.3845   -7.3728  -12.7963 O   0  0  0  0  0  0  0  0  0  0  0  0
   21.5330   -8.3152  -13.7867 C   0  0  0  0  0  0  0  0  0  0  0  0
   20.6355   -8.0564  -14.9804 C   0  0  2  0  0  0  0  0  0  0  0  0
   20.8528   -9.1055  -15.9378 N   0  0  0  0  0  0  0  0  0  0  0  0
   20.8975   -6.7220  -15.5773 C   0  0  0  0  0  0  0  0  0  0  0  0
   21.8633   -6.5784  -16.3963 O   0  0  0  0  0  0  0  0  0  0  0  0
   19.1426   -3.3867  -15.6399 C   0  0  0  0  0  0  0  0  0  0  0  0
   20.3341   -4.2863  -15.8859 C   0  0  2  0  0  0  0  0  0  0  0  0
   20.1284   -5.5789  -15.2888 N   0  0  0  0  0  0  0  0  0  0  0  0
   21.5240   -3.5945  -15.2756 C   0  0  0  0  0  0  0  0  0  0  0  0
   22.0229   -4.0811  -14.2313 O   0  0  0  0  0  0  0  0  0  0  0  0
   22.0654   -2.4580  -15.8319 O   0  0  0  0  0  0  0  0  0  0  0  0
  1  5  1  0
  2  1  1  0
  2  3  1  0
  3  4  1  0
  5  6  1  1
  5  4  1  0
  6  7  2  0
  8  9  1  0
 10  9  1  1
 11 10  1  0
 11  6  1  0
 12 16  1  0
 12 10  1  0
 13 12  2  0
 15 16  1  0
 15 14  1  1
 17 19  1  0
 17 15  1  0
 18 17  2  0
M  END
$$$$
