PSA.pdb
     RDKit          3D

 19 19  0  0  1  0  0  0  0  0999 V2000
   17.8723  -23.9596    4.4260 N   0  0  0  0  0  0  0  0  0  0  0  0
   18.2720  -22.5978    4.1090 C   0  0  0  0  0  0  0  0  0  0  0  0
   19.5895  -22.4834    4.8315 C   0  0  0  0  0  0  0  0  0  0  0  0
   20.2178  -23.8502    4.6538 C   0  0  0  0  0  0  0  0  0  0  0  0
   19.0960  -24.6864    4.1492 C   0  0  1  0  0  0  0  0  0  0  0  0
   19.0554  -26.0541    4.6936 C   0  0  0  0  0  0  0  0  0  0  0  0
   18.0169  -26.3991    5.3152 O   0  0  0  0  0  0  0  0  0  0  0  0
   22.1174  -28.8397    4.2796 O   0  0  0  0  0  0  0  0  0  0  0  0
   20.8209  -29.2686    4.4414 C   0  0  0  0  0  0  0  0  0  0  0  0
   19.9684  -28.2784    5.2094 C   0  0  2  0  0  0  0  0  0  0  0  0
   20.0870  -26.9972    4.5698 N   0  0  0  0  0  0  0  0  0  0  0  0
   20.3732  -28.2056    6.6363 C   0  0  0  0  0  0  0  0  0  0  0  0
   21.0884  -27.2302    7.0379 O   0  0  0  0  0  0  0  0  0  0  0  0
   19.6751  -30.1751    9.7815 C   0  0  0  0  0  0  0  0  0  0  0  0
   20.4465  -29.1605    8.9662 C   0  0  2  0  0  0  0  0  0  0  0  0
   20.0083  -29.1686    7.5960 N   0  0  0  0  0  0  0  0  0  0  0  0
   21.8985  -29.5454    9.0695 C   0  0  0  0  0  0  0  0  0  0  0  0
   22.5095  -29.8470    8.0150 O   0  0  0  0  0  0  0  0  0  0  0  0
   22.5568  -29.5722   10.2778 O   0  0  0  0  0  0  0  0  0  0  0  0
  1  5  1  0
  2  1  1  0
  2  3  1  0
  3  4  1  0
  5  6  1  1
  5  4  1  0
  6  7  2  0
  8  9  1  0
 10  9  1  6
 11 10  1  0
 11  6  1  0
 12 16  1  0
 12 10  1  0
 13 12  2  0
 15 16  1  0
 15 14  1  1
 17 19  1  0
 17 15  1  0
 18 17  2  0
M  END
$$$$
