PSA.pdb
     RDKit          3D

 19 19  0  0  1  0  0  0  0  0999 V2000
   27.3643  -19.4542  -15.3658 N   0  0  0  0  0  0  0  0  0  0  0  0
   28.5981  -19.2834  -16.1164 C   0  0  0  0  0  0  0  0  0  0  0  0
   29.4530  -20.3969  -15.5685 C   0  0  0  0  0  0  0  0  0  0  0  0
   28.4749  -21.5356  -15.3653 C   0  0  0  0  0  0  0  0  0  0  0  0
   27.1459  -20.8813  -15.4997 C   0  0  1  0  0  0  0  0  0  0  0  0
   26.1227  -21.3690  -14.5596 C   0  0  0  0  0  0  0  0  0  0  0  0
   25.7181  -22.5516  -14.7065 O   0  0  0  0  0  0  0  0  0  0  0  0
   23.9141  -21.1910  -10.3414 O   0  0  0  0  0  0  0  0  0  0  0  0
   24.8682  -20.7634  -11.2346 C   0  0  0  0  0  0  0  0  0  0  0  0
   24.5742  -21.1964  -12.6571 C   0  0  2  0  0  0  0  0  0  0  0  0
   25.5680  -20.6132  -13.5154 N   0  0  0  0  0  0  0  0  0  0  0  0
   23.2052  -20.7992  -13.0735 C   0  0  0  0  0  0  0  0  0  0  0  0
   22.9198  -19.5634  -13.1984 O   0  0  0  0  0  0  0  0  0  0  0  0
   20.1362  -22.5376  -14.3777 C   0  0  0  0  0  0  0  0  0  0  0  0
   20.8405  -21.3640  -13.7328 C   0  0  2  0  0  0  0  0  0  0  0  0
   22.1786  -21.7231  -13.3453 N   0  0  0  0  0  0  0  0  0  0  0  0
   20.0170  -20.9797  -12.5323 C   0  0  0  0  0  0  0  0  0  0  0  0
   18.8652  -20.5188  -12.7249 O   0  0  0  0  0  0  0  0  0  0  0  0
   20.4956  -21.1219  -11.2497 O   0  0  0  0  0  0  0  0  0  0  0  0
  1  5  1  0
  2  1  1  0
  2  3  1  0
  3  4  1  0
  5  6  1  1
  5  4  1  0
  6  7  2  0
  8  9  1  0
 10  9  1  1
 11 10  1  0
 11  6  1  0
 12 16  1  0
 12 10  1  0
 13 12  2  0
 15 16  1  0
 15 14  1  1
 17 19  1  0
 17 15  1  0
 18 17  2  0
M  END
$$$$
