PSA.pdb
     RDKit          3D

 19 19  0  0  1  0  0  0  0  0999 V2000
   18.7599  -12.1922  -15.3315 N   0  0  0  0  0  0  0  0  0  0  0  0
   18.3839  -13.5764  -15.5713 C   0  0  0  0  0  0  0  0  0  0  0  0
   17.5537  -13.4614  -16.8237 C   0  0  0  0  0  0  0  0  0  0  0  0
   18.2625  -12.3919  -17.6289 C   0  0  0  0  0  0  0  0  0  0  0  0
   19.2049  -11.7864  -16.6504 C   0  0  1  0  0  0  0  0  0  0  0  0
   19.3446  -10.3242  -16.7552 C   0  0  0  0  0  0  0  0  0  0  0  0
   19.8799   -9.8670  -17.7984 O   0  0  0  0  0  0  0  0  0  0  0  0
   17.4766   -7.5868  -14.2427 O   0  0  0  0  0  0  0  0  0  0  0  0
   17.7662   -7.3277  -15.5618 C   0  0  0  0  0  0  0  0  0  0  0  0
   19.0463   -7.9959  -16.0223 C   0  0  2  0  0  0  0  0  0  0  0  0
   18.9254   -9.4069  -15.7795 N   0  0  0  0  0  0  0  0  0  0  0  0
   20.2327   -7.4317  -15.3297 C   0  0  0  0  0  0  0  0  0  0  0  0
   20.5607   -7.8764  -14.1813 O   0  0  0  0  0  0  0  0  0  0  0  0
   22.8867   -4.8599  -16.1329 C   0  0  0  0  0  0  0  0  0  0  0  0
   22.1920   -5.8520  -15.2260 C   0  0  2  0  0  0  0  0  0  0  0  0
   21.0368   -6.4128  -15.8744 N   0  0  0  0  0  0  0  0  0  0  0  0
   21.7985   -5.0935  -13.9862 C   0  0  0  0  0  0  0  0  0  0  0  0
   20.6501   -4.5885  -13.9383 O   0  0  0  0  0  0  0  0  0  0  0  0
   22.6599   -4.9462  -12.9229 O   0  0  0  0  0  0  0  0  0  0  0  0
  1  5  1  0
  2  1  1  0
  2  3  1  0
  3  4  1  0
  5  6  1  1
  5  4  1  0
  6  7  2  0
  8  9  1  0
 10  9  1  1
 11 10  1  0
 11  6  1  0
 12 16  1  0
 12 10  1  0
 13 12  2  0
 15 16  1  0
 15 14  1  6
 17 19  1  0
 17 15  1  0
 18 17  2  0
M  END
$$$$
