PSA.pdb
     RDKit          3D

 19 19  0  0  1  0  0  0  0  0999 V2000
   21.2657  -11.5119  -18.0391 N   0  0  0  0  0  0  0  0  0  0  0  0
   21.3284  -12.7020  -18.8725 C   0  0  0  0  0  0  0  0  0  0  0  0
   19.9238  -13.2360  -18.7595 C   0  0  0  0  0  0  0  0  0  0  0  0
   19.0645  -11.9888  -18.7408 C   0  0  0  0  0  0  0  0  0  0  0  0
   20.0456  -10.8931  -18.5193 C   0  0  1  0  0  0  0  0  0  0  0  0
   19.5817   -9.8254  -17.6173 C   0  0  0  0  0  0  0  0  0  0  0  0
   18.5522   -9.1866  -17.9578 O   0  0  0  0  0  0  0  0  0  0  0  0
   20.3890   -9.4397  -13.5931 O   0  0  0  0  0  0  0  0  0  0  0  0
   19.3172   -8.8992  -14.2641 C   0  0  0  0  0  0  0  0  0  0  0  0
   19.6901   -8.3733  -15.6358 C   0  0  2  0  0  0  0  0  0  0  0  0
   20.2023   -9.4699  -16.4100 N   0  0  0  0  0  0  0  0  0  0  0  0
   20.6818   -7.2717  -15.5436 C   0  0  0  0  0  0  0  0  0  0  0  0
   21.9261   -7.5463  -15.5215 O   0  0  0  0  0  0  0  0  0  0  0  0
   20.5483   -3.4937  -15.4007 C   0  0  0  0  0  0  0  0  0  0  0  0
   21.2666   -4.8253  -15.4077 C   0  0  2  0  0  0  0  0  0  0  0  0
   20.3258   -5.9114  -15.4777 N   0  0  0  0  0  0  0  0  0  0  0  0
   22.0650   -4.8858  -14.1325 C   0  0  0  0  0  0  0  0  0  0  0  0
   21.6175   -5.5755  -13.1837 O   0  0  0  0  0  0  0  0  0  0  0  0
   23.2558   -4.2105  -13.9905 O   0  0  0  0  0  0  0  0  0  0  0  0
  1  5  1  0
  2  1  1  0
  2  3  1  0
  3  4  1  0
  5  6  1  1
  5  4  1  0
  6  7  2  0
  8  9  1  0
 10  9  1  1
 11 10  1  0
 11  6  1  0
 12 16  1  0
 12 10  1  0
 13 12  2  0
 15 16  1  0
 15 14  1  1
 17 19  1  0
 17 15  1  0
 18 17  2  0
M  END
$$$$
