PSA.pdb
     RDKit          3D

 19 19  0  0  1  0  0  0  0  0999 V2000
   18.5140  -10.5054  -18.4336 N   0  0  0  0  0  0  0  0  0  0  0  0
   18.3978  -10.9137  -19.8245 C   0  0  0  0  0  0  0  0  0  0  0  0
   17.9189   -9.6456  -20.4827 C   0  0  0  0  0  0  0  0  0  0  0  0
   18.6691   -8.5532  -19.7490 C   0  0  0  0  0  0  0  0  0  0  0  0
   19.2337   -9.2535  -18.5645 C   0  0  1  0  0  0  0  0  0  0  0  0
   19.2044   -8.4723  -17.3165 C   0  0  0  0  0  0  0  0  0  0  0  0
   18.0928   -8.3422  -16.7410 O   0  0  0  0  0  0  0  0  0  0  0  0
   22.3309   -8.0023  -14.8006 O   0  0  0  0  0  0  0  0  0  0  0  0
   21.0111   -7.8759  -14.4356 C   0  0  0  0  0  0  0  0  0  0  0  0
   20.1806   -7.1588  -15.4812 C   0  0  2  0  0  0  0  0  0  0  0  0
   20.3222   -7.8647  -16.7246 N   0  0  0  0  0  0  0  0  0  0  0  0
   20.5916   -5.7385  -15.6203 C   0  0  0  0  0  0  0  0  0  0  0  0
   21.5316   -5.4320  -16.4245 O   0  0  0  0  0  0  0  0  0  0  0  0
   19.4016   -2.4132  -14.2789 C   0  0  0  0  0  0  0  0  0  0  0  0
   20.3820   -3.3034  -15.0107 C   0  0  2  0  0  0  0  0  0  0  0  0
   19.9944   -4.6846  -14.9033 N   0  0  0  0  0  0  0  0  0  0  0  0
   21.7266   -3.0704  -14.3743 C   0  0  0  0  0  0  0  0  0  0  0  0
   22.1161   -3.8786  -13.4960 O   0  0  0  0  0  0  0  0  0  0  0  0
   22.5227   -2.0061  -14.7316 O   0  0  0  0  0  0  0  0  0  0  0  0
  1  5  1  0
  2  1  1  0
  2  3  1  0
  3  4  1  0
  5  6  1  1
  5  4  1  0
  6  7  2  0
  8  9  1  0
 10  9  1  1
 11 10  1  0
 11  6  1  0
 12 16  1  0
 12 10  1  0
 13 12  2  0
 15 16  1  0
 15 14  1  1
 17 19  1  0
 17 15  1  0
 18 17  2  0
M  END
$$$$
