PSA.pdb
     RDKit          3D

 19 19  0  0  1  0  0  0  0  0999 V2000
   30.4097  -23.2444  -20.4231 N   0  0  0  0  0  0  0  0  0  0  0  0
   30.0949  -22.5530  -21.6630 C   0  0  0  0  0  0  0  0  0  0  0  0
   29.5055  -23.6611  -22.4970 C   0  0  0  0  0  0  0  0  0  0  0  0
   28.7127  -24.4803  -21.4994 C   0  0  0  0  0  0  0  0  0  0  0  0
   29.1777  -23.9699  -20.1820 C   0  0  1  0  0  0  0  0  0  0  0  0
   29.3449  -25.0036  -19.1464 C   0  0  0  0  0  0  0  0  0  0  0  0
   30.4782  -25.5408  -19.0424 O   0  0  0  0  0  0  0  0  0  0  0  0
   26.7456  -25.6337  -16.0288 O   0  0  0  0  0  0  0  0  0  0  0  0
   28.0670  -26.0093  -15.9664 C   0  0  0  0  0  0  0  0  0  0  0  0
   28.6110  -26.4612  -17.3069 C   0  0  2  0  0  0  0  0  0  0  0  0
   28.3357  -25.4313  -18.2703 N   0  0  0  0  0  0  0  0  0  0  0  0
   28.0195  -27.7581  -17.7235 C   0  0  0  0  0  0  0  0  0  0  0  0
   27.1665  -27.7849  -18.6701 O   0  0  0  0  0  0  0  0  0  0  0  0
   28.3154  -31.3639  -16.6171 C   0  0  0  0  0  0  0  0  0  0  0  0
   27.7180  -30.2427  -17.4388 C   0  0  2  0  0  0  0  0  0  0  0  0
   28.3492  -28.9887  -17.1249 N   0  0  0  0  0  0  0  0  0  0  0  0
   26.2501  -30.2051  -17.1054 C   0  0  0  0  0  0  0  0  0  0  0  0
   25.8871  -29.5545  -16.0949 O   0  0  0  0  0  0  0  0  0  0  0  0
   25.3153  -30.8595  -17.8748 O   0  0  0  0  0  0  0  0  0  0  0  0
  1  5  1  0
  2  1  1  0
  2  3  1  0
  3  4  1  0
  5  6  1  1
  5  4  1  0
  6  7  2  0
  8  9  1  0
 10  9  1  1
 11 10  1  0
 11  6  1  0
 12 16  1  0
 12 10  1  0
 13 12  2  0
 15 16  1  0
 15 14  1  1
 17 19  1  0
 17 15  1  0
 18 17  2  0
M  END
$$$$
