PSA.pdb
     RDKit          3D

 19 19  0  0  1  0  0  0  0  0999 V2000
   19.0099  -11.2755  -18.4672 N   0  0  0  0  0  0  0  0  0  0  0  0
   18.0965  -11.4674  -19.5823 C   0  0  0  0  0  0  0  0  0  0  0  0
   17.2100  -10.2538  -19.4715 C   0  0  0  0  0  0  0  0  0  0  0  0
   18.1583   -9.1526  -19.0444 C   0  0  0  0  0  0  0  0  0  0  0  0
   19.3886   -9.8874  -18.6460 C   0  0  1  0  0  0  0  0  0  0  0  0
   20.0688   -9.3480  -17.4565 C   0  0  0  0  0  0  0  0  0  0  0  0
   19.5532   -9.5915  -16.3345 O   0  0  0  0  0  0  0  0  0  0  0  0
   23.9499   -7.8790  -17.2936 O   0  0  0  0  0  0  0  0  0  0  0  0
   23.2595   -8.3736  -16.2120 C   0  0  0  0  0  0  0  0  0  0  0  0
   21.7803   -8.0471  -16.2626 C   0  0  2  0  0  0  0  0  0  0  0  0
   21.2461   -8.5850  -17.4831 N   0  0  0  0  0  0  0  0  0  0  0  0
   21.5440   -6.5838  -16.1720 C   0  0  0  0  0  0  0  0  0  0  0  0
   21.3737   -5.9073  -17.2386 O   0  0  0  0  0  0  0  0  0  0  0  0
   21.1286   -4.0465  -13.4033 C   0  0  0  0  0  0  0  0  0  0  0  0
   21.3606   -4.4522  -14.8424 C   0  0  2  0  0  0  0  0  0  0  0  0
   21.4951   -5.8801  -14.9538 N   0  0  0  0  0  0  0  0  0  0  0  0
   22.6209   -3.7565  -15.2837 C   0  0  0  0  0  0  0  0  0  0  0  0
   23.7145   -4.3532  -15.1280 O   0  0  0  0  0  0  0  0  0  0  0  0
   22.5965   -2.5001  -15.8450 O   0  0  0  0  0  0  0  0  0  0  0  0
  1  5  1  0
  2  1  1  0
  2  3  1  0
  3  4  1  0
  5  6  1  1
  5  4  1  0
  6  7  2  0
  8  9  1  0
 10  9  1  6
 11 10  1  0
 11  6  1  0
 12 16  1  0
 12 10  1  0
 13 12  2  0
 15 16  1  0
 15 14  1  1
 17 19  1  0
 17 15  1  0
 18 17  2  0
M  END
$$$$
