PSA.pdb
     RDKit          3D

 19 19  0  0  1  0  0  0  0  0999 V2000
   20.7706  -11.9396  -18.6668 N   0  0  0  0  0  0  0  0  0  0  0  0
   20.1846  -13.0579  -19.3883 C   0  0  0  0  0  0  0  0  0  0  0  0
   19.9432  -14.0512  -18.2810 C   0  0  0  0  0  0  0  0  0  0  0  0
   19.5117  -13.1899  -17.1120 C   0  0  0  0  0  0  0  0  0  0  0  0
   19.8544  -11.8105  -17.5505 C   0  0  1  0  0  0  0  0  0  0  0  0
   20.4011  -10.9465  -16.4907 C   0  0  0  0  0  0  0  0  0  0  0  0
   19.6428  -10.6612  -15.5277 O   0  0  0  0  0  0  0  0  0  0  0  0
   24.4044   -9.5423  -16.1520 O   0  0  0  0  0  0  0  0  0  0  0  0
   23.5718   -9.8493  -15.1015 C   0  0  0  0  0  0  0  0  0  0  0  0
   22.1155   -9.5580  -15.4044 C   0  0  2  0  0  0  0  0  0  0  0  0
   21.7018  -10.4200  -16.4769 N   0  0  0  0  0  0  0  0  0  0  0  0
   21.9089   -8.1294  -15.7536 C   0  0  0  0  0  0  0  0  0  0  0  0
   22.1556   -7.7299  -16.9384 O   0  0  0  0  0  0  0  0  0  0  0  0
   20.7341   -5.0246  -13.9391 C   0  0  0  0  0  0  0  0  0  0  0  0
   21.2764   -5.7699  -15.1390 C   0  0  2  0  0  0  0  0  0  0  0  0
   21.4468   -7.1661  -14.8372 N   0  0  0  0  0  0  0  0  0  0  0  0
   22.5951   -5.1278  -15.4795 C   0  0  0  0  0  0  0  0  0  0  0  0
   22.5830   -3.9811  -15.9905 O   0  0  0  0  0  0  0  0  0  0  0  0
   23.7928   -5.7640  -15.2449 O   0  0  0  0  0  0  0  0  0  0  0  0
  1  5  1  0
  2  1  1  0
  2  3  1  0
  3  4  1  0
  5  6  1  1
  5  4  1  0
  6  7  2  0
  8  9  1  0
 10  9  1  6
 11 10  1  0
 11  6  1  0
 12 16  1  0
 12 10  1  0
 13 12  2  0
 15 16  1  0
 15 14  1  1
 17 19  1  0
 17 15  1  0
 18 17  2  0
M  END
$$$$
