IRL.pdb
     RDKit          3D

 28 27  0  0  1  0  0  0  0  0999 V2000
   27.9976  -18.1671  -17.3559 C   0  0  0  0  0  0  0  0  0  0  0  0
   28.4166  -19.2360  -16.3660 C   0  0  0  0  0  0  0  0  0  0  0  0
   27.7239  -18.9138  -15.0524 C   0  0  2  0  0  0  0  0  0  0  0  0
   28.0863  -17.5573  -14.5487 C   0  0  0  0  0  0  0  0  0  0  0  0
   28.1050  -19.9448  -13.9855 C   0  0  2  0  0  0  0  0  0  0  0  0
   27.7343  -21.2415  -14.5818 N   0  0  0  0  0  0  0  0  0  0  0  0
   27.2215  -19.7130  -12.8249 C   0  0  0  0  0  0  0  0  0  0  0  0
   27.5175  -18.7437  -12.0494 O   0  0  0  0  0  0  0  0  0  0  0  0
   19.4684  -19.7381   -9.8278 N   0  0  0  0  0  0  0  0  0  0  0  0
   19.9279  -19.8567  -11.1680 C   0  0  0  0  0  0  0  0  0  0  0  0
   19.2729  -19.2893  -12.1093 N   0  0  0  0  0  0  0  0  0  0  0  0
   21.1122  -20.6112  -11.4006 N   0  0  0  0  0  0  0  0  0  0  0  0
   21.8182  -21.1716  -10.2678 C   0  0  0  0  0  0  0  0  0  0  0  0
   23.1546  -20.4461  -10.0751 C   0  0  0  0  0  0  0  0  0  0  0  0
   23.9445  -20.7124  -11.3253 C   0  0  0  0  0  0  0  0  0  0  0  0
   25.3661  -20.1832  -11.2641 C   0  0  2  0  0  0  0  0  0  0  0  0
   26.0743  -20.4544  -12.4822 N   0  0  0  0  0  0  0  0  0  0  0  0
   26.0688  -20.6718  -10.0519 C   0  0  0  0  0  0  0  0  0  0  0  0
   26.8659  -21.6223  -10.1532 O   0  0  0  0  0  0  0  0  0  0  0  0
   19.5527  -19.4329  -13.0864 C   0  0  0  0  0  0  0  0  0  0  0  0
   29.2034  -18.7802   -5.4858 C   0  0  1  0  0  0  0  0  0  0  0  0
   28.4922  -20.0298   -6.0297 C   0  0  0  0  0  0  0  0  0  0  0  0
   29.5181  -21.0975   -6.2282 C   0  0  0  0  0  0  0  0  0  0  0  0
   27.7535  -19.6509   -7.2852 C   0  0  2  0  0  0  0  0  0  0  0  0
   26.5707  -20.5244   -7.5721 N   0  0  0  0  0  0  0  0  0  0  0  0
   25.8601  -20.0851   -8.7669 C   0  0  0  0  0  0  0  0  0  0  0  0
   25.6439  -20.6932   -6.4322 O   0  0  0  0  0  0  0  0  0  0  0  0
   24.4639  -20.2307   -6.5476 O   0  0  0  0  0  0  0  0  0  0  0  0
  1  2  1  0
  3  2  1  0
  3  5  1  0
  3  4  1  1
  5  6  1  6
  7  8  2  0
  7  5  1  0
 10 12  1  0
 10  9  1  0
 11 10  2  0
 12 13  1  0
 13 14  1  0
 14 15  1  0
 16 15  1  6
 16 17  1  0
 17  7  1  0
 18 19  2  0
 18 16  1  0
 21 22  1  6
 21 20  1  0
 24 23  1  6
 23 21  1  0
 24 25  1  0
 25 18  1  0
 26 24  1  0
 27 26  2  0
 28 26  1  0
M  END
$$$$
