IRL.pdb
     RDKit          3D

 28 27  0  0  1  0  0  0  0  0999 V2000
   19.9842  -16.0597  -20.5080 C   0  0  0  0  0  0  0  0  0  0  0  0
   19.9949  -15.9510  -18.9959 C   0  0  0  0  0  0  0  0  0  0  0  0
   19.7753  -14.4855  -18.6594 C   0  0  2  0  0  0  0  0  0  0  0  0
   20.8028  -13.6079  -19.2913 C   0  0  0  0  0  0  0  0  0  0  0  0
   19.8259  -14.2767  -17.1427 C   0  0  2  0  0  0  0  0  0  0  0  0
   18.9220  -15.3084  -16.6017 N   0  0  0  0  0  0  0  0  0  0  0  0
   19.2211  -12.9578  -16.8673 C   0  0  0  0  0  0  0  0  0  0  0  0
   19.8834  -11.9258  -17.2209 O   0  0  0  0  0  0  0  0  0  0  0  0
   11.3028   -9.9825  -14.6009 N   0  0  0  0  0  0  0  0  0  0  0  0
   12.0319   -8.7623  -14.6275 C   0  0  0  0  0  0  0  0  0  0  0  0
   11.4240   -7.6618  -14.3898 N   0  0  0  0  0  0  0  0  0  0  0  0
   13.4232   -8.8254  -14.9208 N   0  0  0  0  0  0  0  0  0  0  0  0
   14.0104  -10.1058  -15.2544 C   0  0  0  0  0  0  0  0  0  0  0  0
   15.5236   -9.9522  -15.4444 C   0  0  0  0  0  0  0  0  0  0  0  0
   16.0354  -11.3306  -15.7540 C   0  0  0  0  0  0  0  0  0  0  0  0
   17.5318  -11.3753  -16.0060 C   0  0  2  0  0  0  0  0  0  0  0  0
   17.9774  -12.7168  -16.2522 N   0  0  0  0  0  0  0  0  0  0  0  0
   18.2795  -10.6954  -14.9195 C   0  0  0  0  0  0  0  0  0  0  0  0
   18.4828  -11.3004  -13.8509 O   0  0  0  0  0  0  0  0  0  0  0  0
   11.9204   -6.7696  -14.4956 C   0  0  0  0  0  0  0  0  0  0  0  0
   23.4622   -9.8906  -13.7397 C   0  0  1  0  0  0  0  0  0  0  0  0
   22.1696   -9.1463  -13.3675 C   0  0  0  0  0  0  0  0  0  0  0  0
   21.9444   -9.3137  -11.9001 C   0  0  0  0  0  0  0  0  0  0  0  0
   21.0498   -9.6768  -14.2221 C   0  0  2  0  0  0  0  0  0  0  0  0
   19.8235   -8.8165  -14.2058 N   0  0  0  0  0  0  0  0  0  0  0  0
   18.7761   -9.3639  -15.0595 C   0  0  0  0  0  0  0  0  0  0  0  0
   20.0716   -7.3914  -14.5130 O   0  0  0  0  0  0  0  0  0  0  0  0
   19.9708   -7.0148  -15.7244 O   0  0  0  0  0  0  0  0  0  0  0  0
  1  2  1  0
  3  2  1  0
  3  5  1  0
  3  4  1  6
  5  6  1  1
  7  8  2  0
  7  5  1  0
 10 12  1  0
 10  9  1  0
 11 10  2  0
 12 13  1  0
 13 14  1  0
 14 15  1  0
 16 15  1  1
 16 17  1  0
 17  7  1  0
 18 19  2  0
 18 16  1  0
 21 22  1  1
 21 20  1  0
 24 23  1  1
 23 21  1  0
 24 25  1  0
 25 18  1  0
 26 24  1  0
 27 26  2  0
 28 26  1  0
M  END
$$$$
