IRL.pdb
     RDKit          3D

 28 27  0  0  1  0  0  0  0  0999 V2000
   35.9752   -9.7651   -9.1716 C   0  0  0  0  0  0  0  0  0  0  0  0
   36.5896  -10.8040   -8.2543 C   0  0  0  0  0  0  0  0  0  0  0  0
   38.0318  -10.3856   -8.0209 C   0  0  2  0  0  0  0  0  0  0  0  0
   38.7922  -10.2678   -9.2988 C   0  0  0  0  0  0  0  0  0  0  0  0
   38.7417  -11.4070   -7.1268 C   0  0  2  0  0  0  0  0  0  0  0  0
   38.0394  -11.3108   -5.8337 N   0  0  0  0  0  0  0  0  0  0  0  0
   40.1222  -10.9215   -6.9274 C   0  0  0  0  0  0  0  0  0  0  0  0
   40.2701   -9.8259   -6.2899 O   0  0  0  0  0  0  0  0  0  0  0  0
   47.9971  -14.5578   -6.3945 N   0  0  0  0  0  0  0  0  0  0  0  0
   48.3582  -13.1876   -6.2789 C   0  0  0  0  0  0  0  0  0  0  0  0
   49.5735  -12.8773   -6.0262 N   0  0  0  0  0  0  0  0  0  0  0  0
   47.3353  -12.2134   -6.4536 N   0  0  0  0  0  0  0  0  0  0  0  0
   45.9801  -12.6586   -6.7004 C   0  0  0  0  0  0  0  0  0  0  0  0
   45.0428  -11.4495   -6.7947 C   0  0  0  0  0  0  0  0  0  0  0  0
   43.6744  -12.0160   -7.0479 C   0  0  0  0  0  0  0  0  0  0  0  0
   42.5854  -10.9595   -7.1027 C   0  0  2  0  0  0  0  0  0  0  0  0
   41.3040  -11.5475   -7.3687 N   0  0  0  0  0  0  0  0  0  0  0  0
   42.9416   -9.8701   -8.0452 C   0  0  0  0  0  0  0  0  0  0  0  0
   42.7612  -10.0388   -9.2651 O   0  0  0  0  0  0  0  0  0  0  0  0
   49.8225  -11.9008   -5.8309 C   0  0  0  0  0  0  0  0  0  0  0  0
   41.6062   -6.1304   -9.7515 C   0  0  1  0  0  0  0  0  0  0  0  0
   41.9017   -6.0210   -8.2468 C   0  0  0  0  0  0  0  0  0  0  0  0
   41.3991   -4.6972   -7.7708 C   0  0  0  0  0  0  0  0  0  0  0  0
   43.3773   -6.2274   -8.0334 C   0  0  2  0  0  0  0  0  0  0  0  0
   43.8719   -7.5588   -8.5097 N   0  0  0  0  0  0  0  0  0  0  0  0
   43.4870   -8.6288   -7.5973 C   0  0  0  0  0  0  0  0  0  0  0  0
   45.3205   -7.6040   -8.8038 O   0  0  0  0  0  0  0  0  0  0  0  0
   46.0774   -8.2194   -7.9865 O   0  0  0  0  0  0  0  0  0  0  0  0
  1  2  1  0
  3  2  1  0
  3  5  1  0
  3  4  1  6
  5  6  1  1
  7  8  2  0
  7  5  1  0
 10 12  1  0
 10  9  1  0
 11 10  2  0
 12 13  1  0
 13 14  1  0
 14 15  1  0
 16 15  1  6
 16 17  1  0
 17  7  1  0
 18 19  2  0
 18 16  1  0
 21 22  1  6
 21 20  1  0
 24 23  1  6
 23 21  1  0
 24 25  1  0
 25 18  1  0
 26 24  1  0
 27 26  2  0
 28 26  1  0
M  END
$$$$
