IRL.pdb
     RDKit          3D

 28 27  0  0  1  0  0  0  0  0999 V2000
   16.7753  -19.8337  -16.6428 C   0  0  0  0  0  0  0  0  0  0  0  0
   17.9237  -20.7597  -16.2936 C   0  0  0  0  0  0  0  0  0  0  0  0
   19.0210  -19.8932  -15.6981 C   0  0  2  0  0  0  0  0  0  0  0  0
   19.4682  -18.8307  -16.6448 C   0  0  0  0  0  0  0  0  0  0  0  0
   20.2329  -20.7536  -15.3273 C   0  0  2  0  0  0  0  0  0  0  0  0
   19.7373  -21.6418  -14.2597 N   0  0  0  0  0  0  0  0  0  0  0  0
   21.2385  -19.8504  -14.7320 C   0  0  0  0  0  0  0  0  0  0  0  0
   21.1032  -19.5581  -13.4972 O   0  0  0  0  0  0  0  0  0  0  0  0
   27.0138  -21.7965  -10.8599 N   0  0  0  0  0  0  0  0  0  0  0  0
   25.6578  -21.4439  -10.6192 C   0  0  0  0  0  0  0  0  0  0  0  0
   25.2333  -21.3652   -9.4147 N   0  0  0  0  0  0  0  0  0  0  0  0
   24.8264  -21.1909  -11.7464 N   0  0  0  0  0  0  0  0  0  0  0  0
   25.3697  -21.3853  -13.0740 C   0  0  0  0  0  0  0  0  0  0  0  0
   24.4057  -20.8158  -14.1208 C   0  0  0  0  0  0  0  0  0  0  0  0
   23.9733  -19.4787  -13.5888 C   0  0  0  0  0  0  0  0  0  0  0  0
   23.3552  -18.5809  -14.6456 C   0  0  2  0  0  0  0  0  0  0  0  0
   22.3429  -19.2745  -15.3891 N   0  0  0  0  0  0  0  0  0  0  0  0
   24.3980  -17.9642  -15.5024 C   0  0  0  0  0  0  0  0  0  0  0  0
   24.7251  -18.5282  -16.5627 O   0  0  0  0  0  0  0  0  0  0  0  0
   24.2690  -21.0655   -9.2303 C   0  0  0  0  0  0  0  0  0  0  0  0
   27.9127  -12.7813  -15.5683 C   0  0  1  0  0  0  0  0  0  0  0  0
   27.3589  -13.9817  -16.3528 C   0  0  0  0  0  0  0  0  0  0  0  0
   26.7163  -13.4648  -17.5985 C   0  0  0  0  0  0  0  0  0  0  0  0
   26.4244  -14.7486  -15.4560 C   0  0  2  0  0  0  0  0  0  0  0  0
   25.9967  -16.0677  -16.0228 N   0  0  0  0  0  0  0  0  0  0  0  0
   25.0419  -16.7395  -15.1496 C   0  0  0  0  0  0  0  0  0  0  0  0
   27.1120  -16.9680  -16.3864 O   0  0  0  0  0  0  0  0  0  0  0  0
   27.6065  -17.7054  -15.4747 O   0  0  0  0  0  0  0  0  0  0  0  0
  1  2  1  0
  3  2  1  0
  3  5  1  0
  3  4  1  6
  5  6  1  1
  7  8  2  0
  7  5  1  0
 10 12  1  0
 10  9  1  0
 11 10  2  0
 12 13  1  0
 13 14  1  0
 14 15  1  0
 16 15  1  1
 16 17  1  0
 17  7  1  0
 18 19  2  0
 18 16  1  0
 21 22  1  1
 21 20  1  0
 24 23  1  6
 23 21  1  0
 24 25  1  0
 25 18  1  0
 26 24  1  0
 27 26  2  0
 28 26  1  0
M  END
$$$$
