IRL.pdb
     RDKit          3D

 28 27  0  0  1  0  0  0  0  0999 V2000
   28.0623  -15.9761  -17.5087 C   0  0  0  0  0  0  0  0  0  0  0  0
   26.8797  -16.8508  -17.8757 C   0  0  0  0  0  0  0  0  0  0  0  0
   26.3738  -17.4701  -16.5835 C   0  0  2  0  0  0  0  0  0  0  0  0
   27.4432  -18.2292  -15.8727 C   0  0  0  0  0  0  0  0  0  0  0  0
   25.2120  -18.4254  -16.8731 C   0  0  2  0  0  0  0  0  0  0  0  0
   24.1888  -17.5742  -17.5078 N   0  0  0  0  0  0  0  0  0  0  0  0
   24.6823  -18.8703  -15.5682 C   0  0  0  0  0  0  0  0  0  0  0  0
   24.2338  -17.9706  -14.7821 O   0  0  0  0  0  0  0  0  0  0  0  0
   18.7699  -20.4524  -15.2736 N   0  0  0  0  0  0  0  0  0  0  0  0
   18.7987  -21.6198  -14.4628 C   0  0  0  0  0  0  0  0  0  0  0  0
   17.7871  -21.9025  -13.7321 N   0  0  0  0  0  0  0  0  0  0  0  0
   19.9683  -22.4298  -14.5047 N   0  0  0  0  0  0  0  0  0  0  0  0
   21.0333  -22.0739  -15.4184 C   0  0  0  0  0  0  0  0  0  0  0  0
   21.7869  -20.8486  -14.8893 C   0  0  0  0  0  0  0  0  0  0  0  0
   22.8275  -21.3876  -13.9488 C   0  0  0  0  0  0  0  0  0  0  0  0
   24.0427  -20.4875  -13.8146 C   0  0  2  0  0  0  0  0  0  0  0  0
   24.6172  -20.1956  -15.0966 N   0  0  0  0  0  0  0  0  0  0  0  0
   25.0177  -21.0436  -12.8441 C   0  0  0  0  0  0  0  0  0  0  0  0
   26.0956  -21.5047  -13.2621 O   0  0  0  0  0  0  0  0  0  0  0  0
   17.8101  -22.7287  -13.1234 C   0  0  0  0  0  0  0  0  0  0  0  0
   28.6103  -21.7330  -11.2026 C   0  0  2  0  0  0  0  0  0  0  0  0
   27.9058  -20.4206  -11.5830 C   0  0  0  0  0  0  0  0  0  0  0  0
   28.9439  -19.3516  -11.6906 C   0  0  0  0  0  0  0  0  0  0  0  0
   26.8397  -20.1364  -10.5591 C   0  0  2  0  0  0  0  0  0  0  0  0
   25.8136  -21.2219  -10.4444 N   0  0  0  0  0  0  0  0  0  0  0  0
   24.7596  -21.0673  -11.4398 C   0  0  0  0  0  0  0  0  0  0  0  0
   25.2467  -21.3874   -9.0887 O   0  0  0  0  0  0  0  0  0  0  0  0
   24.0905  -20.9066   -8.8615 O   0  0  0  0  0  0  0  0  0  0  0  0
  1  2  1  0
  3  2  1  0
  3  5  1  0
  3  4  1  6
  5  6  1  1
  7  8  2  0
  7  5  1  0
 10 12  1  0
 10  9  1  0
 11 10  2  0
 12 13  1  0
 13 14  1  0
 14 15  1  0
 16 15  1  6
 16 17  1  0
 17  7  1  0
 18 19  2  0
 18 16  1  0
 21 22  1  1
 21 20  1  0
 24 23  1  6
 23 21  1  0
 24 25  1  0
 25 18  1  0
 26 24  1  0
 27 26  2  0
 28 26  1  0
M  END
$$$$
