IRL.pdb
     RDKit          3D

 28 27  0  0  1  0  0  0  0  0999 V2000
   27.8463  -17.8214  -18.1785 C   0  0  0  0  0  0  0  0  0  0  0  0
   28.5303  -18.5007  -17.0085 C   0  0  0  0  0  0  0  0  0  0  0  0
   27.5297  -18.5186  -15.8650 C   0  0  2  0  0  0  0  0  0  0  0  0
   26.9567  -17.1663  -15.6039 C   0  0  0  0  0  0  0  0  0  0  0  0
   28.2009  -19.0167  -14.5813 C   0  0  2  0  0  0  0  0  0  0  0  0
   28.9657  -20.2038  -15.0061 N   0  0  0  0  0  0  0  0  0  0  0  0
   27.1241  -19.4730  -13.6793 C   0  0  0  0  0  0  0  0  0  0  0  0
   26.3419  -18.5827  -13.2059 O   0  0  0  0  0  0  0  0  0  0  0  0
   23.7851  -24.7093  -16.9098 N   0  0  0  0  0  0  0  0  0  0  0  0
   24.4951  -25.1832  -15.7729 C   0  0  0  0  0  0  0  0  0  0  0  0
   25.2339  -26.2222  -15.8816 N   0  0  0  0  0  0  0  0  0  0  0  0
   24.3482  -24.4676  -14.5514 N   0  0  0  0  0  0  0  0  0  0  0  0
   23.5069  -23.2897  -14.5275 C   0  0  0  0  0  0  0  0  0  0  0  0
   24.3573  -22.0470  -14.2415 C   0  0  0  0  0  0  0  0  0  0  0  0
   24.9668  -22.2755  -12.8873 C   0  0  0  0  0  0  0  0  0  0  0  0
   25.7858  -21.0985  -12.3886 C   0  0  2  0  0  0  0  0  0  0  0  0
   26.8657  -20.7999  -13.2848 N   0  0  0  0  0  0  0  0  0  0  0  0
   26.2234  -21.3053  -10.9859 C   0  0  0  0  0  0  0  0  0  0  0  0
   27.4402  -21.3728  -10.7326 O   0  0  0  0  0  0  0  0  0  0  0  0
   25.8282  -26.5122  -15.0966 C   0  0  0  0  0  0  0  0  0  0  0  0
   27.9908  -20.8943   -7.3919 C   0  0  2  0  0  0  0  0  0  0  0  0
   27.6268  -19.6009   -8.1388 C   0  0  0  0  0  0  0  0  0  0  0  0
   28.0085  -18.4435   -7.2747 C   0  0  0  0  0  0  0  0  0  0  0  0
   26.1634  -19.6466   -8.4880 C   0  0  2  0  0  0  0  0  0  0  0  0
   25.6029  -21.0347   -8.5435 N   0  0  0  0  0  0  0  0  0  0  0  0
   25.2909  -21.4300   -9.9117 C   0  0  0  0  0  0  0  0  0  0  0  0
   24.4509  -21.2658   -7.6456 O   0  0  0  0  0  0  0  0  0  0  0  0
   23.3058  -20.8615   -8.0263 O   0  0  0  0  0  0  0  0  0  0  0  0
  1  2  1  0
  3  2  1  0
  3  5  1  0
  3  4  1  1
  5  6  1  6
  7  8  2  0
  7  5  1  0
 10 12  1  0
 10  9  1  0
 11 10  2  0
 12 13  1  0
 13 14  1  0
 14 15  1  0
 16 15  1  6
 16 17  1  0
 17  7  1  0
 18 19  2  0
 18 16  1  0
 21 22  1  1
 21 20  1  0
 24 23  1  6
 23 21  1  0
 24 25  1  0
 25 18  1  0
 26 24  1  0
 27 26  2  0
 28 26  1  0
M  END
$$$$
