IRL.pdb
     RDKit          3D

 28 27  0  0  1  0  0  0  0  0999 V2000
   22.5646  -17.6039  -17.8032 C   0  0  0  0  0  0  0  0  0  0  0  0
   22.6687  -17.6761  -16.2925 C   0  0  0  0  0  0  0  0  0  0  0  0
   23.5406  -18.8780  -15.9693 C   0  0  2  0  0  0  0  0  0  0  0  0
   23.0404  -20.1219  -16.6233 C   0  0  0  0  0  0  0  0  0  0  0  0
   23.5837  -19.1097  -14.4558 C   0  0  2  0  0  0  0  0  0  0  0  0
   24.0086  -17.8118  -13.8996 N   0  0  0  0  0  0  0  0  0  0  0  0
   24.6620  -20.0855  -14.1982 C   0  0  0  0  0  0  0  0  0  0  0  0
   24.4587  -21.2911  -14.5639 O   0  0  0  0  0  0  0  0  0  0  0  0
   28.7363  -21.8251  -18.6616 N   0  0  0  0  0  0  0  0  0  0  0  0
   29.5368  -22.3657  -17.6185 C   0  0  0  0  0  0  0  0  0  0  0  0
   30.7686  -22.6286  -17.8437 N   0  0  0  0  0  0  0  0  0  0  0  0
   28.9202  -22.5903  -16.3555 N   0  0  0  0  0  0  0  0  0  0  0  0
   27.6810  -21.9068  -16.0507 C   0  0  0  0  0  0  0  0  0  0  0  0
   27.9795  -20.5294  -15.4482 C   0  0  0  0  0  0  0  0  0  0  0  0
   28.1227  -20.7559  -13.9697 C   0  0  0  0  0  0  0  0  0  0  0  0
   26.7934  -20.8962  -13.2499 C   0  0  2  0  0  0  0  0  0  0  0  0
   25.9037  -19.8226  -13.5880 N   0  0  0  0  0  0  0  0  0  0  0  0
   26.9895  -21.0617  -11.7884 C   0  0  0  0  0  0  0  0  0  0  0  0
   27.9993  -20.5707  -11.2513 O   0  0  0  0  0  0  0  0  0  0  0  0
   31.1671  -22.4566  -18.7738 C   0  0  0  0  0  0  0  0  0  0  0  0
   26.8507  -18.4928   -7.4629 C   0  0  1  0  0  0  0  0  0  0  0  0
   26.5263  -19.9830   -7.6563 C   0  0  0  0  0  0  0  0  0  0  0  0
   27.4033  -20.7712   -6.7390 C   0  0  0  0  0  0  0  0  0  0  0  0
   26.7003  -20.3249   -9.1118 C   0  0  2  0  0  0  0  0  0  0  0  0
   25.7814  -21.4083   -9.5875 N   0  0  0  0  0  0  0  0  0  0  0  0
   26.0539  -21.7688  -10.9736 C   0  0  0  0  0  0  0  0  0  0  0  0
   24.3444  -21.1256   -9.3826 O   0  0  0  0  0  0  0  0  0  0  0  0
   23.8559  -21.3220   -8.2241 O   0  0  0  0  0  0  0  0  0  0  0  0
  1  2  1  0
  3  2  1  0
  3  5  1  0
  3  4  1  6
  5  6  1  1
  7  8  2  0
  7  5  1  0
 10 12  1  0
 10  9  1  0
 11 10  2  0
 12 13  1  0
 13 14  1  0
 14 15  1  0
 16 15  1  6
 16 17  1  0
 17  7  1  0
 18 19  2  0
 18 16  1  0
 21 22  1  1
 21 20  1  0
 24 23  1  1
 23 21  1  0
 24 25  1  0
 25 18  1  0
 26 24  1  0
 27 26  2  0
 28 26  1  0
M  END
$$$$
