IRL.pdb
     RDKit          3D

 28 27  0  0  1  0  0  0  0  0999 V2000
   28.7260  -19.1767  -14.9251 C   0  0  0  0  0  0  0  0  0  0  0  0
   28.3334  -19.8603  -13.6302 C   0  0  0  0  0  0  0  0  0  0  0  0
   26.8163  -19.9484  -13.6225 C   0  0  2  0  0  0  0  0  0  0  0  0
   26.1790  -18.6059  -13.7514 C   0  0  0  0  0  0  0  0  0  0  0  0
   26.3295  -20.5932  -12.3211 C   0  0  2  0  0  0  0  0  0  0  0  0
   26.9322  -21.9390  -12.3327 N   0  0  0  0  0  0  0  0  0  0  0  0
   24.8661  -20.7534  -12.4389 C   0  0  0  0  0  0  0  0  0  0  0  0
   24.4376  -21.5984  -13.2939 O   0  0  0  0  0  0  0  0  0  0  0  0
   18.3147  -22.8616   -9.1902 N   0  0  0  0  0  0  0  0  0  0  0  0
   19.3280  -22.6984   -8.2065 C   0  0  0  0  0  0  0  0  0  0  0  0
   19.4299  -23.5547   -7.2613 N   0  0  0  0  0  0  0  0  0  0  0  0
   20.1934  -21.5744   -8.3235 N   0  0  0  0  0  0  0  0  0  0  0  0
   19.7783  -20.4542   -9.1411 C   0  0  0  0  0  0  0  0  0  0  0  0
   20.3163  -20.6213  -10.5666 C   0  0  0  0  0  0  0  0  0  0  0  0
   21.7756  -20.2709  -10.4930 C   0  0  0  0  0  0  0  0  0  0  0  0
   22.4987  -20.4193  -11.8196 C   0  0  2  0  0  0  0  0  0  0  0  0
   23.8844  -20.0673  -11.6982 N   0  0  0  0  0  0  0  0  0  0  0  0
   21.7955  -19.6833  -12.8993 C   0  0  0  0  0  0  0  0  0  0  0  0
   21.6821  -18.4465  -12.8175 O   0  0  0  0  0  0  0  0  0  0  0  0
   20.1112  -23.4069   -6.5079 C   0  0  0  0  0  0  0  0  0  0  0  0
   21.2829  -21.1274  -17.3838 C   0  0  2  0  0  0  0  0  0  0  0  0
   20.2858  -21.7647  -16.4025 C   0  0  0  0  0  0  0  0  0  0  0  0
   19.4355  -22.7274  -17.1656 C   0  0  0  0  0  0  0  0  0  0  0  0
   19.5099  -20.6652  -15.7282 C   0  0  2  0  0  0  0  0  0  0  0  0
   20.3732  -19.6833  -14.9970 N   0  0  0  0  0  0  0  0  0  0  0  0
   21.2421  -20.3497  -14.0345 C   0  0  0  0  0  0  0  0  0  0  0  0
   19.6333  -18.5694  -14.3656 O   0  0  0  0  0  0  0  0  0  0  0  0
   19.5642  -17.4652  -14.9946 O   0  0  0  0  0  0  0  0  0  0  0  0
  1  2  1  0
  3  2  1  0
  3  5  1  0
  3  4  1  1
  5  6  1  6
  7  8  2  0
  7  5  1  0
 10 12  1  0
 10  9  1  0
 11 10  2  0
 12 13  1  0
 13 14  1  0
 14 15  1  0
 16 15  1  1
 16 17  1  0
 17  7  1  0
 18 19  2  0
 18 16  1  0
 21 22  1  1
 21 20  1  0
 24 23  1  6
 23 21  1  0
 24 25  1  0
 25 18  1  0
 26 24  1  0
 27 26  2  0
 28 26  1  0
M  END
$$$$
