IRL.pdb
     RDKit          3D

 28 27  0  0  1  0  0  0  0  0999 V2000
   20.6281  -20.9967  -19.5350 C   0  0  0  0  0  0  0  0  0  0  0  0
   21.1948  -19.8993  -18.6559 C   0  0  0  0  0  0  0  0  0  0  0  0
   21.9365  -20.5852  -17.5206 C   0  0  2  0  0  0  0  0  0  0  0  0
   21.0698  -21.5598  -16.7966 C   0  0  0  0  0  0  0  0  0  0  0  0
   22.4432  -19.5467  -16.5150 C   0  0  2  0  0  0  0  0  0  0  0  0
   23.2184  -18.5950  -17.3321 N   0  0  0  0  0  0  0  0  0  0  0  0
   23.3862  -20.2407  -15.6148 C   0  0  0  0  0  0  0  0  0  0  0  0
   22.9117  -21.1600  -14.8676 O   0  0  0  0  0  0  0  0  0  0  0  0
   27.5370  -23.7554  -18.0449 N   0  0  0  0  0  0  0  0  0  0  0  0
   28.5197  -24.1566  -17.0991 C   0  0  0  0  0  0  0  0  0  0  0  0
   28.8426  -25.3917  -17.0140 N   0  0  0  0  0  0  0  0  0  0  0  0
   29.1059  -23.1496  -16.2816 N   0  0  0  0  0  0  0  0  0  0  0  0
   28.6043  -21.7947  -16.3730 C   0  0  0  0  0  0  0  0  0  0  0  0
   27.1088  -21.7684  -16.0383 C   0  0  0  0  0  0  0  0  0  0  0  0
   26.9705  -20.8309  -14.8723 C   0  0  0  0  0  0  0  0  0  0  0  0
   25.5307  -20.6075  -14.4460 C   0  0  2  0  0  0  0  0  0  0  0  0
   24.7675  -19.9942  -15.4949 N   0  0  0  0  0  0  0  0  0  0  0  0
   25.4601  -19.8732  -13.1584 C   0  0  0  0  0  0  0  0  0  0  0  0
   25.1043  -18.6805  -13.1578 O   0  0  0  0  0  0  0  0  0  0  0  0
   29.5704  -25.6862  -16.3528 C   0  0  0  0  0  0  0  0  0  0  0  0
   21.3193  -20.5863   -9.9650 C   0  0  1  0  0  0  0  0  0  0  0  0
   22.4930  -19.8181  -10.5940 C   0  0  0  0  0  0  0  0  0  0  0  0
   21.9510  -18.9604  -11.6906 C   0  0  0  0  0  0  0  0  0  0  0  0
   23.5258  -20.8135  -11.0502 C   0  0  2  0  0  0  0  0  0  0  0  0
   24.9325  -20.4045  -10.7371 N   0  0  0  0  0  0  0  0  0  0  0  0
   25.7883  -20.4922  -11.9142 C   0  0  0  0  0  0  0  0  0  0  0  0
   25.5339  -21.1124   -9.5865 O   0  0  0  0  0  0  0  0  0  0  0  0
   25.7359  -20.4519   -8.5176 O   0  0  0  0  0  0  0  0  0  0  0  0
  1  2  1  0
  3  2  1  0
  3  5  1  0
  3  4  1  1
  5  6  1  6
  7  8  2  0
  7  5  1  0
 10 12  1  0
 10  9  1  0
 11 10  2  0
 12 13  1  0
 13 14  1  0
 14 15  1  0
 16 15  1  6
 16 17  1  0
 17  7  1  0
 18 19  2  0
 18 16  1  0
 21 22  1  6
 21 20  1  0
 24 23  1  6
 23 21  1  0
 24 25  1  0
 25 18  1  0
 26 24  1  0
 27 26  2  0
 28 26  1  0
M  END
$$$$
