IRL.pdb
     RDKit          3D

 28 27  0  0  1  0  0  0  0  0999 V2000
   20.2984  -23.7092   -7.5928 C   0  0  0  0  0  0  0  0  0  0  0  0
   19.8703  -22.2552   -7.5603 C   0  0  0  0  0  0  0  0  0  0  0  0
   20.6166  -21.5526   -8.6822 C   0  0  2  0  0  0  0  0  0  0  0  0
   20.2343  -22.0818  -10.0235 C   0  0  0  0  0  0  0  0  0  0  0  0
   22.1279  -21.7281   -8.5046 C   0  0  2  0  0  0  0  0  0  0  0  0
   22.4340  -21.0124   -7.2522 N   0  0  0  0  0  0  0  0  0  0  0  0
   22.7808  -21.0001   -9.6113 C   0  0  0  0  0  0  0  0  0  0  0  0
   22.5393  -19.7510   -9.7120 O   0  0  0  0  0  0  0  0  0  0  0  0
   27.9972  -22.3856  -16.0480 N   0  0  0  0  0  0  0  0  0  0  0  0
   28.0635  -20.9655  -16.0391 C   0  0  0  0  0  0  0  0  0  0  0  0
   28.2296  -20.3373  -17.1414 N   0  0  0  0  0  0  0  0  0  0  0  0
   27.9391  -20.3019  -14.7861 N   0  0  0  0  0  0  0  0  0  0  0  0
   27.3496  -21.0147  -13.6726 C   0  0  0  0  0  0  0  0  0  0  0  0
   25.9708  -20.4285  -13.3491 C   0  0  0  0  0  0  0  0  0  0  0  0
   25.4750  -21.1934  -12.1546 C   0  0  0  0  0  0  0  0  0  0  0  0
   24.1011  -20.7514  -11.6836 C   0  0  2  0  0  0  0  0  0  0  0  0
   23.6522  -21.5437  -10.5748 N   0  0  0  0  0  0  0  0  0  0  0  0
   23.1352  -20.7114  -12.8094 C   0  0  0  0  0  0  0  0  0  0  0  0
   22.6404  -21.7758  -13.2236 O   0  0  0  0  0  0  0  0  0  0  0  0
   28.3613  -19.3193  -17.1356 C   0  0  0  0  0  0  0  0  0  0  0  0
   20.2699  -16.4017  -16.3289 C   0  0  2  0  0  0  0  0  0  0  0  0
   20.3776  -17.8819  -15.9283 C   0  0  0  0  0  0  0  0  0  0  0  0
   19.0130  -18.3614  -15.5541 C   0  0  0  0  0  0  0  0  0  0  0  0
   21.3930  -18.0055  -14.8241 C   0  0  2  0  0  0  0  0  0  0  0  0
   21.7660  -19.4215  -14.5078 N   0  0  0  0  0  0  0  0  0  0  0  0
   22.7526  -19.4869  -13.4364 C   0  0  0  0  0  0  0  0  0  0  0  0
   22.1958  -20.2170  -15.6779 O   0  0  0  0  0  0  0  0  0  0  0  0
   23.3783  -20.0451  -16.1158 O   0  0  0  0  0  0  0  0  0  0  0  0
  1  2  1  0
  3  2  1  0
  3  5  1  0
  3  4  1  6
  5  6  1  1
  7  8  2  0
  7  5  1  0
 10 12  1  0
 10  9  1  0
 11 10  2  0
 12 13  1  0
 13 14  1  0
 14 15  1  0
 16 15  1  6
 16 17  1  0
 17  7  1  0
 18 19  2  0
 18 16  1  0
 21 22  1  1
 21 20  1  0
 24 23  1  1
 23 21  1  0
 24 25  1  0
 25 18  1  0
 26 24  1  0
 27 26  2  0
 28 26  1  0
M  END
$$$$
