IRL.pdb
     RDKit          3D

 28 27  0  0  1  0  0  0  0  0999 V2000
   12.6514  -12.1922  -10.0847 C   0  0  0  0  0  0  0  0  0  0  0  0
   13.8900  -11.4432   -9.6340 C   0  0  0  0  0  0  0  0  0  0  0  0
   14.5353  -10.8690  -10.8843 C   0  0  2  0  0  0  0  0  0  0  0  0
   14.8628  -11.9299  -11.8805 C   0  0  0  0  0  0  0  0  0  0  0  0
   15.8265  -10.1289  -10.5221 C   0  0  2  0  0  0  0  0  0  0  0  0
   15.3902   -9.0618   -9.6026 N   0  0  0  0  0  0  0  0  0  0  0  0
   16.3180   -9.4864  -11.7578 C   0  0  0  0  0  0  0  0  0  0  0  0
   17.0770  -10.1790  -12.5145 O   0  0  0  0  0  0  0  0  0  0  0  0
   14.2403   -2.5252  -16.6371 N   0  0  0  0  0  0  0  0  0  0  0  0
   15.2610   -3.1192  -17.4287 C   0  0  0  0  0  0  0  0  0  0  0  0
   15.5155   -2.6410  -18.5879 N   0  0  0  0  0  0  0  0  0  0  0  0
   15.9611   -4.2326  -16.8847 N   0  0  0  0  0  0  0  0  0  0  0  0
   15.5473   -4.7600  -15.6016 C   0  0  0  0  0  0  0  0  0  0  0  0
   16.4847   -5.8962  -15.1777 C   0  0  0  0  0  0  0  0  0  0  0  0
   15.9032   -6.4493  -13.9074 C   0  0  0  0  0  0  0  0  0  0  0  0
   16.6669   -7.6439  -13.3650 C   0  0  2  0  0  0  0  0  0  0  0  0
   16.0323   -8.1784  -12.1944 N   0  0  0  0  0  0  0  0  0  0  0  0
   18.1001   -7.3173  -13.1619 C   0  0  0  0  0  0  0  0  0  0  0  0
   18.6426   -7.6094  -12.0804 O   0  0  0  0  0  0  0  0  0  0  0  0
   16.2428   -3.0712  -19.1707 C   0  0  0  0  0  0  0  0  0  0  0  0
   22.4805   -8.0254  -12.8645 C   0  0  1  0  0  0  0  0  0  0  0  0
   21.2950   -8.9393  -13.2148 C   0  0  0  0  0  0  0  0  0  0  0  0
   21.8167  -10.3280  -13.3916 C   0  0  0  0  0  0  0  0  0  0  0  0
   20.6079   -8.3846  -14.4337 C   0  0  2  0  0  0  0  0  0  0  0  0
   20.3089   -6.9197  -14.3393 N   0  0  0  0  0  0  0  0  0  0  0  0
   18.8815   -6.6762  -14.1706 C   0  0  0  0  0  0  0  0  0  0  0  0
   20.8610   -6.1099  -15.4466 O   0  0  0  0  0  0  0  0  0  0  0  0
   20.2171   -6.0799  -16.5439 O   0  0  0  0  0  0  0  0  0  0  0  0
  1  2  1  0
  3  2  1  0
  3  5  1  0
  3  4  1  6
  5  6  1  1
  7  8  2  0
  7  5  1  0
 10 12  1  0
 10  9  1  0
 11 10  2  0
 12 13  1  0
 13 14  1  0
 14 15  1  0
 16 15  1  1
 16 17  1  0
 17  7  1  0
 18 19  2  0
 18 16  1  0
 21 22  1  6
 21 20  1  0
 24 23  1  1
 23 21  1  0
 24 25  1  0
 25 18  1  0
 26 24  1  0
 27 26  2  0
 28 26  1  0
M  END
$$$$
