IRL.pdb
     RDKit          3D

 28 27  0  0  1  0  0  0  0  0999 V2000
   22.1714  -17.1955  -17.7514 C   0  0  0  0  0  0  0  0  0  0  0  0
   21.3765  -18.4610  -17.4969 C   0  0  0  0  0  0  0  0  0  0  0  0
   22.3199  -19.4444  -16.8245 C   0  0  2  0  0  0  0  0  0  0  0  0
   21.7402  -20.8173  -16.7584 C   0  0  0  0  0  0  0  0  0  0  0  0
   22.6378  -18.9833  -15.3988 C   0  0  2  0  0  0  0  0  0  0  0  0
   23.2234  -17.6410  -15.5711 N   0  0  0  0  0  0  0  0  0  0  0  0
   23.6964  -19.8742  -14.8821 C   0  0  0  0  0  0  0  0  0  0  0  0
   23.3665  -21.0762  -14.6084 O   0  0  0  0  0  0  0  0  0  0  0  0
   30.6768  -20.5664  -11.9738 N   0  0  0  0  0  0  0  0  0  0  0  0
   31.1294  -21.7214  -12.6681 C   0  0  0  0  0  0  0  0  0  0  0  0
   31.9417  -22.5237  -12.0906 N   0  0  0  0  0  0  0  0  0  0  0  0
   30.6489  -21.9328  -13.9911 N   0  0  0  0  0  0  0  0  0  0  0  0
   29.6628  -21.0208  -14.5312 C   0  0  0  0  0  0  0  0  0  0  0  0
   28.3301  -21.1978  -13.7950 C   0  0  0  0  0  0  0  0  0  0  0  0
   27.3423  -20.3384  -14.5322 C   0  0  0  0  0  0  0  0  0  0  0  0
   25.9277  -20.4470  -13.9918 C   0  0  2  0  0  0  0  0  0  0  0  0
   25.0449  -19.5344  -14.6599 N   0  0  0  0  0  0  0  0  0  0  0  0
   25.9062  -20.3134  -12.5141 C   0  0  0  0  0  0  0  0  0  0  0  0
   26.0701  -19.1904  -12.0030 O   0  0  0  0  0  0  0  0  0  0  0  0
   32.2961  -23.3444  -12.5950 C   0  0  0  0  0  0  0  0  0  0  0  0
   26.7078  -18.8479   -7.6901 C   0  0  1  0  0  0  0  0  0  0  0  0
   26.3643  -20.2908   -8.0945 C   0  0  0  0  0  0  0  0  0  0  0  0
   27.2463  -21.2126   -7.3171 C   0  0  0  0  0  0  0  0  0  0  0  0
   26.5127  -20.4169   -9.5870 C   0  0  2  0  0  0  0  0  0  0  0  0
   25.4835  -21.3030  -10.2194 N   0  0  0  0  0  0  0  0  0  0  0  0
   25.7027  -21.4355  -11.6547 C   0  0  0  0  0  0  0  0  0  0  0  0
   24.0850  -20.9222   -9.9264 O   0  0  0  0  0  0  0  0  0  0  0  0
   23.5735  -21.3220   -8.8318 O   0  0  0  0  0  0  0  0  0  0  0  0
  1  2  1  0
  3  2  1  0
  3  5  1  0
  3  4  1  1
  5  6  1  6
  7  8  2  0
  7  5  1  0
 10 12  1  0
 10  9  1  0
 11 10  2  0
 12 13  1  0
 13 14  1  0
 14 15  1  0
 16 15  1  6
 16 17  1  0
 17  7  1  0
 18 19  2  0
 18 16  1  0
 21 22  1  1
 21 20  1  0
 24 23  1  1
 23 21  1  0
 24 25  1  0
 25 18  1  0
 26 24  1  0
 27 26  2  0
 28 26  1  0
M  END
$$$$
