IRL.pdb
     RDKit          3D

 28 27  0  0  1  0  0  0  0  0999 V2000
   27.5780  -17.8094  -16.2319 C   0  0  0  0  0  0  0  0  0  0  0  0
   27.6139  -18.7492  -15.0429 C   0  0  0  0  0  0  0  0  0  0  0  0
   26.1980  -19.2656  -14.8484 C   0  0  2  0  0  0  0  0  0  0  0  0
   25.2231  -18.1558  -14.6404 C   0  0  0  0  0  0  0  0  0  0  0  0
   26.1363  -20.1989  -13.6354 C   0  0  2  0  0  0  0  0  0  0  0  0
   27.0613  -21.2968  -13.9718 N   0  0  0  0  0  0  0  0  0  0  0  0
   24.7702  -20.7583  -13.5892 C   0  0  0  0  0  0  0  0  0  0  0  0
   24.4410  -21.5737  -14.5141 O   0  0  0  0  0  0  0  0  0  0  0  0
   19.1534  -23.0713   -7.4225 N   0  0  0  0  0  0  0  0  0  0  0  0
   18.6890  -23.7750   -8.5672 C   0  0  0  0  0  0  0  0  0  0  0  0
   17.7457  -24.6301   -8.4394 N   0  0  0  0  0  0  0  0  0  0  0  0
   19.3043  -23.4891   -9.8184 N   0  0  0  0  0  0  0  0  0  0  0  0
   20.2505  -22.3964   -9.8991 C   0  0  0  0  0  0  0  0  0  0  0  0
   20.6175  -22.1312  -11.3634 C   0  0  0  0  0  0  0  0  0  0  0  0
   21.9512  -21.4399  -11.3284 C   0  0  0  0  0  0  0  0  0  0  0  0
   22.4887  -21.0973  -12.7063 C   0  0  2  0  0  0  0  0  0  0  0  0
   23.7841  -20.4861  -12.6214 N   0  0  0  0  0  0  0  0  0  0  0  0
   21.5084  -20.2967  -13.4808 C   0  0  0  0  0  0  0  0  0  0  0  0
   21.3377  -19.0984  -13.1905 O   0  0  0  0  0  0  0  0  0  0  0  0
   17.3840  -25.1205   -9.2653 C   0  0  0  0  0  0  0  0  0  0  0  0
   19.3684  -19.7978  -19.0759 C   0  0  1  0  0  0  0  0  0  0  0  0
   19.3533  -19.1874  -17.6652 C   0  0  0  0  0  0  0  0  0  0  0  0
   19.7275  -17.7456  -17.7799 C   0  0  0  0  0  0  0  0  0  0  0  0
   20.2755  -19.9902  -16.7872 C   0  0  2  0  0  0  0  0  0  0  0  0
   19.8239  -20.0744  -15.3613 N   0  0  0  0  0  0  0  0  0  0  0  0
   20.7507  -20.8577  -14.5533 C   0  0  0  0  0  0  0  0  0  0  0  0
   18.4335  -20.5467  -15.1867 O   0  0  0  0  0  0  0  0  0  0  0  0
   18.2516  -21.7656  -14.8696 O   0  0  0  0  0  0  0  0  0  0  0  0
  1  2  1  0
  3  2  1  0
  3  5  1  0
  3  4  1  1
  5  6  1  6
  7  8  2  0
  7  5  1  0
 10 12  1  0
 10  9  1  0
 11 10  2  0
 12 13  1  0
 13 14  1  0
 14 15  1  0
 16 15  1  1
 16 17  1  0
 17  7  1  0
 18 19  2  0
 18 16  1  0
 21 22  1  1
 21 20  1  0
 24 23  1  1
 23 21  1  0
 24 25  1  0
 25 18  1  0
 26 24  1  0
 27 26  2  0
 28 26  1  0
M  END
$$$$
