IRL.pdb
     RDKit          3D

 28 27  0  0  1  0  0  0  0  0999 V2000
   17.4582  -15.4855  -16.6441 C   0  0  0  0  0  0  0  0  0  0  0  0
   18.0132  -16.8212  -17.0982 C   0  0  0  0  0  0  0  0  0  0  0  0
   19.3461  -17.0058  -16.3920 C   0  0  2  0  0  0  0  0  0  0  0  0
   20.2382  -15.8230  -16.5662 C   0  0  0  0  0  0  0  0  0  0  0  0
   20.0679  -18.2420  -16.9373 C   0  0  2  0  0  0  0  0  0  0  0  0
   19.0710  -19.3233  -16.8315 N   0  0  0  0  0  0  0  0  0  0  0  0
   21.1675  -18.5491  -16.0004 C   0  0  0  0  0  0  0  0  0  0  0  0
   22.1043  -17.6887  -15.8966 O   0  0  0  0  0  0  0  0  0  0  0  0
   17.6511  -21.8984  -11.7688 N   0  0  0  0  0  0  0  0  0  0  0  0
   18.7607  -22.7553  -11.5327 C   0  0  0  0  0  0  0  0  0  0  0  0
   18.5546  -23.9824  -11.2343 N   0  0  0  0  0  0  0  0  0  0  0  0
   20.0660  -22.1986  -11.6425 N   0  0  0  0  0  0  0  0  0  0  0  0
   20.2055  -20.8204  -12.0627 C   0  0  0  0  0  0  0  0  0  0  0  0
   21.6869  -20.4269  -12.0775 C   0  0  0  0  0  0  0  0  0  0  0  0
   22.2415  -20.9838  -13.3582 C   0  0  0  0  0  0  0  0  0  0  0  0
   22.4758  -19.9275  -14.4231 C   0  0  2  0  0  0  0  0  0  0  0  0
   21.2909  -19.7011  -15.1999 N   0  0  0  0  0  0  0  0  0  0  0  0
   23.6678  -20.2503  -15.2459 C   0  0  0  0  0  0  0  0  0  0  0  0
   23.5548  -20.3048  -16.4843 O   0  0  0  0  0  0  0  0  0  0  0  0
   19.3501  -24.6092  -11.0674 C   0  0  0  0  0  0  0  0  0  0  0  0
   27.4029  -16.5129  -16.1025 C   0  0  1  0  0  0  0  0  0  0  0  0
   27.3927  -18.0461  -16.2135 C   0  0  0  0  0  0  0  0  0  0  0  0
   27.4930  -18.4069  -17.6597 C   0  0  0  0  0  0  0  0  0  0  0  0
   26.1518  -18.5659  -15.5384 C   0  0  2  0  0  0  0  0  0  0  0  0
   26.1932  -20.0368  -15.2574 N   0  0  0  0  0  0  0  0  0  0  0  0
   24.9463  -20.5016  -14.6617 C   0  0  0  0  0  0  0  0  0  0  0  0
   27.3602  -20.4753  -14.4620 O   0  0  0  0  0  0  0  0  0  0  0  0
   28.4339  -20.7598  -15.0831 O   0  0  0  0  0  0  0  0  0  0  0  0
  1  2  1  0
  3  2  1  0
  3  5  1  0
  3  4  1  6
  5  6  1  1
  7  8  2  0
  7  5  1  0
 10 12  1  0
 10  9  1  0
 11 10  2  0
 12 13  1  0
 13 14  1  0
 14 15  1  0
 16 15  1  1
 16 17  1  0
 17  7  1  0
 18 19  2  0
 18 16  1  0
 21 22  1  6
 21 20  1  0
 24 23  1  6
 23 21  1  0
 24 25  1  0
 25 18  1  0
 26 24  1  0
 27 26  2  0
 28 26  1  0
M  END
$$$$
