IRL.pdb
     RDKit          3D

 28 27  0  0  1  0  0  0  0  0999 V2000
   21.2754  -10.3171    7.9169 C   0  0  0  0  0  0  0  0  0  0  0  0
   19.8693  -10.5342    7.3934 C   0  0  0  0  0  0  0  0  0  0  0  0
   19.7144  -12.0273    7.1571 C   0  0  2  0  0  0  0  0  0  0  0  0
   20.8516  -12.5888    6.3719 C   0  0  0  0  0  0  0  0  0  0  0  0
   18.4143  -12.3116    6.3985 C   0  0  2  0  0  0  0  0  0  0  0  0
   17.3578  -11.7529    7.2621 N   0  0  0  0  0  0  0  0  0  0  0  0
   18.2433  -13.7783    6.3681 C   0  0  0  0  0  0  0  0  0  0  0  0
   18.9901  -14.4374    5.5702 O   0  0  0  0  0  0  0  0  0  0  0  0
   18.0472  -19.8752   10.2232 N   0  0  0  0  0  0  0  0  0  0  0  0
   16.8925  -20.6518    9.9325 C   0  0  0  0  0  0  0  0  0  0  0  0
   16.9335  -21.9212   10.0875 N   0  0  0  0  0  0  0  0  0  0  0  0
   15.7294  -19.9692    9.4772 N   0  0  0  0  0  0  0  0  0  0  0  0
   15.7545  -18.5242    9.3929 C   0  0  0  0  0  0  0  0  0  0  0  0
   16.5969  -18.0865    8.1895 C   0  0  0  0  0  0  0  0  0  0  0  0
   16.5122  -16.5866    8.1593 C   0  0  0  0  0  0  0  0  0  0  0  0
   17.2870  -15.9622    7.0127 C   0  0  2  0  0  0  0  0  0  0  0  0
   17.3360  -14.5335    7.1360 N   0  0  0  0  0  0  0  0  0  0  0  0
   16.7690  -16.4236    5.7010 C   0  0  0  0  0  0  0  0  0  0  0  0
   16.2816  -15.5921    4.9135 O   0  0  0  0  0  0  0  0  0  0  0  0
   16.0937  -22.4855    9.9148 C   0  0  0  0  0  0  0  0  0  0  0  0
   16.6975  -17.0528    1.2552 C   0  0  1  0  0  0  0  0  0  0  0  0
   17.6025  -16.3965    2.3104 C   0  0  0  0  0  0  0  0  0  0  0  0
   18.6978  -15.6735    1.5968 C   0  0  0  0  0  0  0  0  0  0  0  0
   18.0882  -17.4641    3.2539 C   0  0  2  0  0  0  0  0  0  0  0  0
   16.9824  -18.2195    3.9254 N   0  0  0  0  0  0  0  0  0  0  0  0
   16.8112  -17.7964    5.3100 C   0  0  0  0  0  0  0  0  0  0  0  0
   17.0990  -19.6904    3.8277 O   0  0  0  0  0  0  0  0  0  0  0  0
   17.8328  -20.2896    4.6775 O   0  0  0  0  0  0  0  0  0  0  0  0
  1  2  1  0
  3  2  1  0
  3  5  1  0
  3  4  1  6
  5  6  1  1
  7  8  2  0
  7  5  1  0
 10 12  1  0
 10  9  1  0
 11 10  2  0
 12 13  1  0
 13 14  1  0
 14 15  1  0
 16 15  1  1
 16 17  1  0
 17  7  1  0
 18 19  2  0
 18 16  1  0
 21 22  1  6
 21 20  1  0
 24 23  1  6
 23 21  1  0
 24 25  1  0
 25 18  1  0
 26 24  1  0
 27 26  2  0
 28 26  1  0
M  END
$$$$
