IRL.pdb
     RDKit          3D

 28 27  0  0  1  0  0  0  0  0999 V2000
   29.5104  -18.5238  -16.8293 C   0  0  0  0  0  0  0  0  0  0  0  0
   28.0400  -18.8917  -16.8599 C   0  0  0  0  0  0  0  0  0  0  0  0
   27.4691  -18.5330  -15.4980 C   0  0  2  0  0  0  0  0  0  0  0  0
   27.6055  -17.0773  -15.2019 C   0  0  0  0  0  0  0  0  0  0  0  0
   28.1875  -19.3208  -14.3981 C   0  0  2  0  0  0  0  0  0  0  0  0
   28.3719  -20.6659  -14.9734 N   0  0  0  0  0  0  0  0  0  0  0  0
   27.2462  -19.4396  -13.2663 C   0  0  0  0  0  0  0  0  0  0  0  0
   27.0038  -18.3821  -12.5943 O   0  0  0  0  0  0  0  0  0  0  0  0
   19.7322  -22.1834  -11.2292 N   0  0  0  0  0  0  0  0  0  0  0  0
   19.9153  -21.1091  -10.3163 C   0  0  0  0  0  0  0  0  0  0  0  0
   19.0262  -20.8841   -9.4241 N   0  0  0  0  0  0  0  0  0  0  0  0
   21.0968  -20.3251  -10.4404 N   0  0  0  0  0  0  0  0  0  0  0  0
   22.0445  -20.6489  -11.4857 C   0  0  0  0  0  0  0  0  0  0  0  0
   23.3883  -21.0484  -10.8660 C   0  0  0  0  0  0  0  0  0  0  0  0
   24.3525  -21.1424  -12.0146 C   0  0  0  0  0  0  0  0  0  0  0  0
   25.7292  -20.5893  -11.6926 C   0  0  2  0  0  0  0  0  0  0  0  0
   26.5797  -20.6075  -12.8480 N   0  0  0  0  0  0  0  0  0  0  0  0
   26.3196  -21.2719  -10.5147 C   0  0  0  0  0  0  0  0  0  0  0  0
   27.3318  -21.9802  -10.6669 O   0  0  0  0  0  0  0  0  0  0  0  0
   19.1251  -20.0798   -8.7941 C   0  0  0  0  0  0  0  0  0  0  0  0
   28.7712  -20.9234   -6.3846 C   0  0  1  0  0  0  0  0  0  0  0  0
   28.3456  -19.5479   -6.9233 C   0  0  0  0  0  0  0  0  0  0  0  0
   27.6951  -18.7948   -5.8090 C   0  0  0  0  0  0  0  0  0  0  0  0
   27.4571  -19.7574   -8.1200 C   0  0  1  0  0  0  0  0  0  0  0  0
   26.5812  -20.9679   -8.0122 N   0  0  0  0  0  0  0  0  0  0  0  0
   25.7629  -21.1426   -9.2061 C   0  0  0  0  0  0  0  0  0  0  0  0
   25.7545  -21.0180   -6.7871 O   0  0  0  0  0  0  0  0  0  0  0  0
   26.3513  -21.0223   -5.6631 O   0  0  0  0  0  0  0  0  0  0  0  0
  1  2  1  0
  3  2  1  0
  3  5  1  0
  3  4  1  1
  5  6  1  6
  7  8  2  0
  7  5  1  0
 10 12  1  0
 10  9  1  0
 11 10  2  0
 12 13  1  0
 13 14  1  0
 14 15  1  0
 16 15  1  6
 16 17  1  0
 17  7  1  0
 18 19  2  0
 18 16  1  0
 21 22  1  1
 21 20  1  0
 24 23  1  6
 23 21  1  0
 24 25  1  0
 25 18  1  0
 26 24  1  0
 27 26  2  0
 28 26  1  0
M  END
$$$$
