LLA.pdb
     RDKit          3D

 22 21  0  0  1  0  0  0  0  0999 V2000
    8.3034  -12.6654   18.7719 C   0  0  0  0  0  0  0  0  0  0  0  0
    7.9943  -13.6788   19.8569 C   0  0  2  0  0  0  0  0  0  0  0  0
    6.6593  -13.2425   20.4737 C   0  0  0  0  0  0  0  0  0  0  0  0
    9.0099  -13.6148   20.9779 C   0  0  0  0  0  0  0  0  0  0  0  0
    8.8716  -14.8803   21.7846 C   0  0  2  0  0  0  0  0  0  0  0  0
    7.5330  -15.3762   21.7126 N   0  0  0  0  0  0  0  0  0  0  0  0
    9.2809  -14.6869   23.2031 C   0  0  0  0  0  0  0  0  0  0  0  0
   10.4307  -14.2916   23.5243 O   0  0  0  0  0  0  0  0  0  0  0  0
    5.7808  -12.4734   26.5415 C   0  0  0  0  0  0  0  0  0  0  0  0
    7.0881  -12.9174   25.9156 C   0  0  1  0  0  0  0  0  0  0  0  0
    8.2024  -12.0009   26.3589 C   0  0  0  0  0  0  0  0  0  0  0  0
    7.3373  -14.3605   26.2929 C   0  0  0  0  0  0  0  0  0  0  0  0
    8.6208  -14.8133   25.6437 C   0  0  2  0  0  0  0  0  0  0  0  0
    8.3627  -14.9511   24.2249 N   0  0  0  0  0  0  0  0  0  0  0  0
    9.0145  -16.1802   26.1404 C   0  0  0  0  0  0  0  0  0  0  0  0
    9.1391  -16.4412   27.3650 O   0  0  0  0  0  0  0  0  0  0  0  0
    9.5836  -19.5134   24.4909 C   0  0  0  0  0  0  0  0  0  0  0  0
    9.6753  -18.5739   25.6735 C   0  0  2  0  0  0  0  0  0  0  0  0
    9.2639  -17.2435   25.2248 N   0  0  0  0  0  0  0  0  0  0  0  0
   11.0754  -18.5509   26.1714 C   0  0  0  0  0  0  0  0  0  0  0  0
   11.8905  -17.4427   26.0606 O   0  0  0  0  0  0  0  0  0  0  0  0
   11.5375  -19.5809   26.7154 O   0  0  0  0  0  0  0  0  0  0  0  0
  2  1  1  6
  2  3  1  0
  4  2  1  0
  5  4  1  0
  5  7  1  0
  5  6  1  1
  7  8  2  0
 10  9  1  1
 10 11  1  0
 13 12  1  1
 12 10  1  0
 14  7  1  0
 14 13  1  0
 15 13  1  0
 15 19  1  0
 16 15  2  0
 18 19  1  0
 18 17  1  6
 20 18  1  0
 21 20  1  0
 22 20  2  0
M  END
$$$$
