LLA.pdb
     RDKit          3D

 22 21  0  0  1  0  0  0  0  0999 V2000
    8.2814  -18.0527   20.7370 C   0  0  0  0  0  0  0  0  0  0  0  0
    7.3933  -16.8525   21.0029 C   0  0  2  0  0  0  0  0  0  0  0  0
    6.0244  -17.1998   20.4041 C   0  0  0  0  0  0  0  0  0  0  0  0
    7.8770  -15.6304   20.2512 C   0  0  0  0  0  0  0  0  0  0  0  0
    7.4727  -14.4193   21.0519 C   0  0  2  0  0  0  0  0  0  0  0  0
    7.5955  -13.2337   20.2631 N   0  0  0  0  0  0  0  0  0  0  0  0
    8.2587  -14.2927   22.3101 C   0  0  0  0  0  0  0  0  0  0  0  0
    9.4929  -14.0511   22.3118 O   0  0  0  0  0  0  0  0  0  0  0  0
    5.7319  -12.1496   26.5023 C   0  0  0  0  0  0  0  0  0  0  0  0
    6.8674  -12.5446   25.5789 C   0  0  1  0  0  0  0  0  0  0  0  0
    8.0350  -11.6091   25.7782 C   0  0  0  0  0  0  0  0  0  0  0  0
    7.2269  -13.9888   25.8478 C   0  0  0  0  0  0  0  0  0  0  0  0
    8.2587  -14.4242   24.8382 C   0  0  2  0  0  0  0  0  0  0  0  0
    7.6131  -14.4460   23.5416 N   0  0  0  0  0  0  0  0  0  0  0  0
    8.7101  -15.8350   25.1137 C   0  0  0  0  0  0  0  0  0  0  0  0
    7.8973  -16.7789   25.2928 O   0  0  0  0  0  0  0  0  0  0  0  0
   11.9721  -17.6346   24.8826 C   0  0  0  0  0  0  0  0  0  0  0  0
   10.5676  -17.5178   25.4336 C   0  0  2  0  0  0  0  0  0  0  0  0
   10.0971  -16.1554   25.1823 N   0  0  0  0  0  0  0  0  0  0  0  0
   10.5896  -17.8056   26.8915 C   0  0  0  0  0  0  0  0  0  0  0  0
   11.0184  -19.0109   27.4095 O   0  0  0  0  0  0  0  0  0  0  0  0
   10.2028  -16.9172   27.6861 O   0  0  0  0  0  0  0  0  0  0  0  0
  2  1  1  6
  2  3  1  0
  4  2  1  0
  5  4  1  0
  5  7  1  0
  5  6  1  6
  7  8  2  0
 10  9  1  1
 10 11  1  0
 13 12  1  1
 12 10  1  0
 14  7  1  0
 14 13  1  0
 15 13  1  0
 15 19  1  0
 16 15  2  0
 18 19  1  0
 18 17  1  1
 20 18  1  0
 21 20  1  0
 22 20  2  0
M  END
$$$$
