LLA.pdb
     RDKit          3D

 22 21  0  0  1  0  0  0  0  0999 V2000
    8.3054  -14.6323   18.4575 C   0  0  0  0  0  0  0  0  0  0  0  0
    7.6462  -13.7223   19.4758 C   0  0  2  0  0  0  0  0  0  0  0  0
    7.6106  -12.3288   18.8356 C   0  0  0  0  0  0  0  0  0  0  0  0
    8.4933  -13.5842   20.7231 C   0  0  0  0  0  0  0  0  0  0  0  0
    8.4627  -14.9106   21.4381 C   0  0  2  0  0  0  0  0  0  0  0  0
    7.1402  -15.4528   21.4311 N   0  0  0  0  0  0  0  0  0  0  0  0
    8.9768  -14.8068   22.8316 C   0  0  0  0  0  0  0  0  0  0  0  0
   10.1649  -14.4847   23.0889 O   0  0  0  0  0  0  0  0  0  0  0  0
    5.8018  -12.5603   26.3713 C   0  0  0  0  0  0  0  0  0  0  0  0
    7.0930  -13.0371   25.7361 C   0  0  1  0  0  0  0  0  0  0  0  0
    8.2434  -12.1899   26.2229 C   0  0  0  0  0  0  0  0  0  0  0  0
    7.2747  -14.5038   26.0566 C   0  0  0  0  0  0  0  0  0  0  0  0
    8.4771  -15.0159   25.3045 C   0  0  2  0  0  0  0  0  0  0  0  0
    8.1175  -15.0748   23.9025 N   0  0  0  0  0  0  0  0  0  0  0  0
    8.8037  -16.4265   25.7208 C   0  0  0  0  0  0  0  0  0  0  0  0
    7.9179  -17.3095   25.8598 O   0  0  0  0  0  0  0  0  0  0  0  0
   11.8924  -18.4692   25.8068 C   0  0  0  0  0  0  0  0  0  0  0  0
   10.5050  -18.1885   26.3417 C   0  0  2  0  0  0  0  0  0  0  0  0
   10.1504  -16.8169   25.9761 N   0  0  0  0  0  0  0  0  0  0  0  0
   10.5082  -18.3547   27.8186 C   0  0  0  0  0  0  0  0  0  0  0  0
   10.6561  -19.5817   28.4328 O   0  0  0  0  0  0  0  0  0  0  0  0
   10.3710  -17.3383   28.5386 O   0  0  0  0  0  0  0  0  0  0  0  0
  2  1  1  6
  2  3  1  0
  4  2  1  0
  5  4  1  0
  5  7  1  0
  5  6  1  1
  7  8  2  0
 10  9  1  1
 10 11  1  0
 13 12  1  1
 12 10  1  0
 14  7  1  0
 14 13  1  0
 15 13  1  0
 15 19  1  0
 16 15  2  0
 18 19  1  0
 18 17  1  1
 20 18  1  0
 21 20  1  0
 22 20  2  0
M  END
$$$$
