LLA.pdb
     RDKit          3D

 22 21  0  0  1  0  0  0  0  0999 V2000
    8.8572  -14.3252   18.8342 C   0  0  0  0  0  0  0  0  0  0  0  0
    7.7228  -13.6617   19.5910 C   0  0  2  0  0  0  0  0  0  0  0  0
    7.5026  -12.3026   18.9147 C   0  0  0  0  0  0  0  0  0  0  0  0
    8.1176  -13.3549   21.0201 C   0  0  0  0  0  0  0  0  0  0  0  0
    8.4302  -14.6666   21.6931 C   0  0  2  0  0  0  0  0  0  0  0  0
    7.2725  -15.5044   21.7195 N   0  0  0  0  0  0  0  0  0  0  0  0
    8.9675  -14.4755   23.0686 C   0  0  0  0  0  0  0  0  0  0  0  0
   10.0876  -13.9470   23.2866 O   0  0  0  0  0  0  0  0  0  0  0  0
    5.7875  -12.5371   26.7161 C   0  0  0  0  0  0  0  0  0  0  0  0
    7.0889  -12.9150   26.0369 C   0  0  1  0  0  0  0  0  0  0  0  0
    8.1898  -11.9891   26.4943 C   0  0  0  0  0  0  0  0  0  0  0  0
    7.3867  -14.3664   26.3396 C   0  0  0  0  0  0  0  0  0  0  0  0
    8.6057  -14.7818   25.5553 C   0  0  2  0  0  0  0  0  0  0  0  0
    8.2088  -14.8945   24.1666 N   0  0  0  0  0  0  0  0  0  0  0  0
    9.0695  -16.1512   25.9789 C   0  0  0  0  0  0  0  0  0  0  0  0
    9.2647  -16.4525   27.1850 O   0  0  0  0  0  0  0  0  0  0  0  0
    9.4278  -19.4702   24.3108 C   0  0  0  0  0  0  0  0  0  0  0  0
    9.8379  -18.4831   25.3820 C   0  0  2  0  0  0  0  0  0  0  0  0
    9.3075  -17.1707   25.0119 N   0  0  0  0  0  0  0  0  0  0  0  0
   11.3210  -18.4451   25.4689 C   0  0  0  0  0  0  0  0  0  0  0  0
   12.0713  -19.5117   25.9208 O   0  0  0  0  0  0  0  0  0  0  0  0
   11.9177  -17.4007   25.1173 O   0  0  0  0  0  0  0  0  0  0  0  0
  2  1  1  6
  2  3  1  0
  4  2  1  0
  5  4  1  0
  5  7  1  0
  5  6  1  1
  7  8  2  0
 10  9  1  1
 10 11  1  0
 13 12  1  1
 12 10  1  0
 14  7  1  0
 14 13  1  0
 15 13  1  0
 15 19  1  0
 16 15  2  0
 18 19  1  0
 18 17  1  6
 20 18  1  0
 21 20  1  0
 22 20  2  0
M  END
$$$$
