LLA.pdb
     RDKit          3D

 22 21  0  0  1  0  0  0  0  0999 V2000
    7.7651  -14.3850   18.6925 C   0  0  0  0  0  0  0  0  0  0  0  0
    7.4970  -13.5738   19.9454 C   0  0  2  0  0  0  0  0  0  0  0  0
    7.3824  -12.1145   19.4866 C   0  0  0  0  0  0  0  0  0  0  0  0
    8.6754  -13.6188   20.8950 C   0  0  0  0  0  0  0  0  0  0  0  0
    8.5542  -14.8844   21.7043 C   0  0  2  0  0  0  0  0  0  0  0  0
    7.2055  -15.3573   21.6953 N   0  0  0  0  0  0  0  0  0  0  0  0
    9.0341  -14.7026   23.1021 C   0  0  0  0  0  0  0  0  0  0  0  0
   10.1672  -14.2265   23.3685 O   0  0  0  0  0  0  0  0  0  0  0  0
    5.5752  -12.5251   26.2710 C   0  0  0  0  0  0  0  0  0  0  0  0
    6.9164  -12.9631   25.7169 C   0  0  1  0  0  0  0  0  0  0  0  0
    7.9815  -11.9715   26.1177 C   0  0  0  0  0  0  0  0  0  0  0  0
    7.2086  -14.3620   26.2116 C   0  0  0  0  0  0  0  0  0  0  0  0
    8.4851  -14.8432   25.5693 C   0  0  2  0  0  0  0  0  0  0  0  0
    8.2044  -15.0707   24.1665 N   0  0  0  0  0  0  0  0  0  0  0  0
    8.9002  -16.1734   26.1424 C   0  0  0  0  0  0  0  0  0  0  0  0
    8.9453  -16.3878   27.3816 O   0  0  0  0  0  0  0  0  0  0  0  0
    9.4255  -19.5954   24.7540 C   0  0  0  0  0  0  0  0  0  0  0  0
    9.6977  -18.5481   25.8118 C   0  0  2  0  0  0  0  0  0  0  0  0
    9.2626  -17.2537   25.2865 N   0  0  0  0  0  0  0  0  0  0  0  0
   11.1520  -18.5293   26.1175 C   0  0  0  0  0  0  0  0  0  0  0  0
   11.7634  -19.4848   26.9036 O   0  0  0  0  0  0  0  0  0  0  0  0
   11.8548  -17.6071   25.6421 O   0  0  0  0  0  0  0  0  0  0  0  0
  2  1  1  6
  2  3  1  0
  4  2  1  0
  5  4  1  0
  5  7  1  0
  5  6  1  1
  7  8  2  0
 10  9  1  1
 10 11  1  0
 13 12  1  1
 12 10  1  0
 14  7  1  0
 14 13  1  0
 15 13  1  0
 15 19  1  0
 16 15  2  0
 18 19  1  0
 18 17  1  6
 20 18  1  0
 21 20  1  0
 22 20  2  0
M  END
$$$$
