LLA.pdb
     RDKit          3D

 22 21  0  0  1  0  0  0  0  0999 V2000
    8.6390  -14.4559   17.8293 C   0  0  0  0  0  0  0  0  0  0  0  0
    8.1592  -15.1218   19.1044 C   0  0  2  0  0  0  0  0  0  0  0  0
    6.6495  -14.8593   19.1751 C   0  0  0  0  0  0  0  0  0  0  0  0
    8.7532  -14.4604   20.3300 C   0  0  0  0  0  0  0  0  0  0  0  0
    8.7203  -15.4705   21.4481 C   0  0  2  0  0  0  0  0  0  0  0  0
    7.4395  -16.1013   21.5155 N   0  0  0  0  0  0  0  0  0  0  0  0
    9.0726  -14.8631   22.7611 C   0  0  0  0  0  0  0  0  0  0  0  0
   10.2075  -14.3741   22.9941 O   0  0  0  0  0  0  0  0  0  0  0  0
    7.8775  -11.5807   26.5186 C   0  0  0  0  0  0  0  0  0  0  0  0
    7.0851  -12.8516   26.7521 C   0  0  1  0  0  0  0  0  0  0  0  0
    5.7535  -12.5140   27.3777 C   0  0  0  0  0  0  0  0  0  0  0  0
    6.9405  -13.5783   25.4337 C   0  0  0  0  0  0  0  0  0  0  0  0
    8.2755  -14.1730   25.0626 C   0  0  2  0  0  0  0  0  0  0  0  0
    8.1156  -14.8289   23.7809 N   0  0  0  0  0  0  0  0  0  0  0  0
    8.6714  -15.2453   26.0441 C   0  0  0  0  0  0  0  0  0  0  0  0
    8.7482  -15.0301   27.2815 O   0  0  0  0  0  0  0  0  0  0  0  0
    8.8031  -18.9300   26.0016 C   0  0  0  0  0  0  0  0  0  0  0  0
    9.3661  -17.6266   26.5250 C   0  0  2  0  0  0  0  0  0  0  0  0
    8.9779  -16.5636   25.5977 N   0  0  0  0  0  0  0  0  0  0  0  0
   10.8459  -17.7339   26.6118 C   0  0  0  0  0  0  0  0  0  0  0  0
   11.4841  -18.5670   27.5081 O   0  0  0  0  0  0  0  0  0  0  0  0
   11.5458  -17.0389   25.8388 O   0  0  0  0  0  0  0  0  0  0  0  0
  2  1  1  6
  2  3  1  0
  4  2  1  0
  5  4  1  0
  5  7  1  0
  5  6  1  1
  7  8  2  0
 10  9  1  6
 10 11  1  0
 13 12  1  1
 12 10  1  0
 14  7  1  0
 14 13  1  0
 15 13  1  0
 15 19  1  0
 16 15  2  0
 18 19  1  0
 18 17  1  6
 20 18  1  0
 21 20  1  0
 22 20  2  0
M  END
$$$$
