LLA.pdb
     RDKit          3D

 22 21  0  0  1  0  0  0  0  0999 V2000
    8.3923  -12.5922   18.6679 C   0  0  0  0  0  0  0  0  0  0  0  0
    7.9860  -13.5981   19.7275 C   0  0  2  0  0  0  0  0  0  0  0  0
    6.7251  -13.0277   20.3892 C   0  0  0  0  0  0  0  0  0  0  0  0
    9.0241  -13.6931   20.8256 C   0  0  0  0  0  0  0  0  0  0  0  0
    8.7572  -14.9645   21.5896 C   0  0  2  0  0  0  0  0  0  0  0  0
    7.3650  -15.2863   21.5556 N   0  0  0  0  0  0  0  0  0  0  0  0
    9.2399  -14.8838   22.9958 C   0  0  0  0  0  0  0  0  0  0  0  0
   10.4476  -14.6824   23.2828 O   0  0  0  0  0  0  0  0  0  0  0  0
    5.6877  -12.5163   26.1836 C   0  0  0  0  0  0  0  0  0  0  0  0
    7.0050  -12.9588   25.5781 C   0  0  1  0  0  0  0  0  0  0  0  0
    8.0789  -11.9482   25.9006 C   0  0  0  0  0  0  0  0  0  0  0  0
    7.3332  -14.3412   26.0959 C   0  0  0  0  0  0  0  0  0  0  0  0
    8.6119  -14.8076   25.4470 C   0  0  2  0  0  0  0  0  0  0  0  0
    8.3273  -15.0358   24.0451 N   0  0  0  0  0  0  0  0  0  0  0  0
    9.0439  -16.1342   26.0160 C   0  0  0  0  0  0  0  0  0  0  0  0
    9.1244  -16.3411   27.2546 O   0  0  0  0  0  0  0  0  0  0  0  0
    9.5822  -19.5583   24.6241 C   0  0  0  0  0  0  0  0  0  0  0  0
    9.8507  -18.5044   25.6763 C   0  0  2  0  0  0  0  0  0  0  0  0
    9.3821  -17.2195   25.1565 N   0  0  0  0  0  0  0  0  0  0  0  0
   11.3090  -18.4568   25.9587 C   0  0  0  0  0  0  0  0  0  0  0  0
   12.1245  -17.4370   25.5117 O   0  0  0  0  0  0  0  0  0  0  0  0
   11.8220  -19.3813   26.6314 O   0  0  0  0  0  0  0  0  0  0  0  0
  2  1  1  6
  2  3  1  0
  4  2  1  0
  5  4  1  0
  5  7  1  0
  5  6  1  1
  7  8  2  0
 10  9  1  1
 10 11  1  0
 13 12  1  1
 12 10  1  0
 14  7  1  0
 14 13  1  0
 15 13  1  0
 15 19  1  0
 16 15  2  0
 18 19  1  0
 18 17  1  6
 20 18  1  0
 21 20  1  0
 22 20  2  0
M  END
$$$$
