LLA.pdb
     RDKit          3D

 22 21  0  0  1  0  0  0  0  0999 V2000
    8.5011  -14.6481   18.7662 C   0  0  0  0  0  0  0  0  0  0  0  0
    7.7266  -13.7234   19.6853 C   0  0  2  0  0  0  0  0  0  0  0  0
    7.7072  -12.3564   18.9896 C   0  0  0  0  0  0  0  0  0  0  0  0
    8.4539  -13.5115   20.9962 C   0  0  0  0  0  0  0  0  0  0  0  0
    8.4512  -14.8272   21.7312 C   0  0  2  0  0  0  0  0  0  0  0  0
    7.1454  -15.4082   21.7130 N   0  0  0  0  0  0  0  0  0  0  0  0
    8.9407  -14.6873   23.1304 C   0  0  0  0  0  0  0  0  0  0  0  0
   10.1093  -14.3091   23.4004 O   0  0  0  0  0  0  0  0  0  0  0  0
    5.6346  -12.4017   26.6231 C   0  0  0  0  0  0  0  0  0  0  0  0
    6.9255  -12.8614   25.9749 C   0  0  1  0  0  0  0  0  0  0  0  0
    8.0735  -12.0155   26.4698 C   0  0  0  0  0  0  0  0  0  0  0  0
    7.1167  -14.3320   26.2716 C   0  0  0  0  0  0  0  0  0  0  0  0
    8.3816  -14.7990   25.5969 C   0  0  2  0  0  0  0  0  0  0  0  0
    8.0796  -14.9841   24.1922 N   0  0  0  0  0  0  0  0  0  0  0  0
    8.7993  -16.1470   26.1246 C   0  0  0  0  0  0  0  0  0  0  0  0
    8.9162  -16.3813   27.3554 O   0  0  0  0  0  0  0  0  0  0  0  0
    9.3306  -19.5410   24.6369 C   0  0  0  0  0  0  0  0  0  0  0  0
    9.6062  -18.5043   25.7041 C   0  0  2  0  0  0  0  0  0  0  0  0
    9.0815  -17.2224   25.2329 N   0  0  0  0  0  0  0  0  0  0  0  0
   11.0718  -18.4192   25.9352 C   0  0  0  0  0  0  0  0  0  0  0  0
   11.8154  -17.3006   25.6180 O   0  0  0  0  0  0  0  0  0  0  0  0
   11.6595  -19.4044   26.4396 O   0  0  0  0  0  0  0  0  0  0  0  0
  2  1  1  6
  2  3  1  0
  4  2  1  0
  5  4  1  0
  5  7  1  0
  5  6  1  1
  7  8  2  0
 10  9  1  1
 10 11  1  0
 13 12  1  1
 12 10  1  0
 14  7  1  0
 14 13  1  0
 15 13  1  0
 15 19  1  0
 16 15  2  0
 18 19  1  0
 18 17  1  6
 20 18  1  0
 21 20  1  0
 22 20  2  0
M  END
$$$$
