LLA.pdb
     RDKit          3D

 22 21  0  0  1  0  0  0  0  0999 V2000
    8.2781  -14.9857   18.0209 C   0  0  0  0  0  0  0  0  0  0  0  0
    7.6688  -13.8664   18.8429 C   0  0  2  0  0  0  0  0  0  0  0  0
    7.7213  -12.6155   17.9567 C   0  0  0  0  0  0  0  0  0  0  0  0
    8.5150  -13.5500   20.0579 C   0  0  0  0  0  0  0  0  0  0  0  0
    8.3696  -14.7003   21.0207 C   0  0  2  0  0  0  0  0  0  0  0  0
    7.0278  -15.1927   21.0136 N   0  0  0  0  0  0  0  0  0  0  0  0
    8.7819  -14.3289   22.4024 C   0  0  0  0  0  0  0  0  0  0  0  0
    9.9311  -13.8927   22.6679 O   0  0  0  0  0  0  0  0  0  0  0  0
    7.6653  -11.6009   26.5359 C   0  0  0  0  0  0  0  0  0  0  0  0
    6.8953  -12.8991   26.6762 C   0  0  1  0  0  0  0  0  0  0  0  0
    5.5821  -12.6396   27.3738 C   0  0  0  0  0  0  0  0  0  0  0  0
    6.7141  -13.5028   25.3016 C   0  0  0  0  0  0  0  0  0  0  0  0
    8.0564  -13.9737   24.8016 C   0  0  2  0  0  0  0  0  0  0  0  0
    7.8672  -14.4651   23.4520 N   0  0  0  0  0  0  0  0  0  0  0  0
    8.5474  -15.1422   25.6162 C   0  0  0  0  0  0  0  0  0  0  0  0
    8.6861  -15.0809   26.8654 O   0  0  0  0  0  0  0  0  0  0  0  0
    8.8859  -18.7850   25.0553 C   0  0  0  0  0  0  0  0  0  0  0  0
    9.3643  -17.5294   25.7513 C   0  0  2  0  0  0  0  0  0  0  0  0
    8.8774  -16.3790   24.9897 N   0  0  0  0  0  0  0  0  0  0  0  0
   10.8496  -17.5353   25.8025 C   0  0  0  0  0  0  0  0  0  0  0  0
   11.5687  -18.4483   26.5469 O   0  0  0  0  0  0  0  0  0  0  0  0
   11.4778  -16.6752   25.1421 O   0  0  0  0  0  0  0  0  0  0  0  0
  2  1  1  6
  2  3  1  0
  4  2  1  0
  5  4  1  0
  5  7  1  0
  5  6  1  1
  7  8  2  0
 10  9  1  6
 10 11  1  0
 13 12  1  1
 12 10  1  0
 14  7  1  0
 14 13  1  0
 15 13  1  0
 15 19  1  0
 16 15  2  0
 18 19  1  0
 18 17  1  6
 20 18  1  0
 21 20  1  0
 22 20  2  0
M  END
$$$$
