LLA.pdb
     RDKit          3D

 22 21  0  0  1  0  0  0  0  0999 V2000
    8.1194  -12.8767   18.3881 C   0  0  0  0  0  0  0  0  0  0  0  0
    7.7961  -13.8433   19.5110 C   0  0  2  0  0  0  0  0  0  0  0  0
    7.1489  -13.0021   20.6185 C   0  0  0  0  0  0  0  0  0  0  0  0
    9.0549  -14.4279   20.1159 C   0  0  0  0  0  0  0  0  0  0  0  0
    8.6309  -15.4157   21.1722 C   0  0  2  0  0  0  0  0  0  0  0  0
    7.2375  -15.7105   21.0517 N   0  0  0  0  0  0  0  0  0  0  0  0
    8.9458  -14.9354   22.5459 C   0  0  0  0  0  0  0  0  0  0  0  0
   10.1066  -14.5969   22.8914 O   0  0  0  0  0  0  0  0  0  0  0  0
    7.8322  -11.6815   26.2203 C   0  0  0  0  0  0  0  0  0  0  0  0
    6.8741  -12.8371   26.4316 C   0  0  1  0  0  0  0  0  0  0  0  0
    5.5550  -12.3171   26.9491 C   0  0  0  0  0  0  0  0  0  0  0  0
    6.7313  -13.5892   25.1273 C   0  0  0  0  0  0  0  0  0  0  0  0
    8.0434  -14.2626   24.8135 C   0  0  2  0  0  0  0  0  0  0  0  0
    7.9224  -14.8529   23.4961 N   0  0  0  0  0  0  0  0  0  0  0  0
    8.2995  -15.3995   25.7684 C   0  0  0  0  0  0  0  0  0  0  0  0
    8.4067  -15.2244   27.0100 O   0  0  0  0  0  0  0  0  0  0  0  0
    8.1340  -19.1169   25.4777 C   0  0  0  0  0  0  0  0  0  0  0  0
    8.6020  -17.8710   26.1979 C   0  0  2  0  0  0  0  0  0  0  0  0
    8.4316  -16.7357   25.2909 N   0  0  0  0  0  0  0  0  0  0  0  0
   10.0304  -18.0325   26.5751 C   0  0  0  0  0  0  0  0  0  0  0  0
   10.4553  -18.9399   27.5242 O   0  0  0  0  0  0  0  0  0  0  0  0
   10.8872  -17.3150   26.0081 O   0  0  0  0  0  0  0  0  0  0  0  0
  2  1  1  6
  2  3  1  0
  4  2  1  0
  5  4  1  0
  5  7  1  0
  5  6  1  1
  7  8  2  0
 10  9  1  6
 10 11  1  0
 13 12  1  1
 12 10  1  0
 14  7  1  0
 14 13  1  0
 15 13  1  0
 15 19  1  0
 16 15  2  0
 18 19  1  0
 18 17  1  6
 20 18  1  0
 21 20  1  0
 22 20  2  0
M  END
$$$$
