LLA.pdb
     RDKit          3D

 22 21  0  0  1  0  0  0  0  0999 V2000
    7.6470  -14.7769   18.2982 C   0  0  0  0  0  0  0  0  0  0  0  0
    7.5950  -13.8385   19.4884 C   0  0  2  0  0  0  0  0  0  0  0  0
    7.7192  -12.4215   18.9141 C   0  0  0  0  0  0  0  0  0  0  0  0
    8.7949  -14.0264   20.3925 C   0  0  0  0  0  0  0  0  0  0  0  0
    8.4545  -15.1200   21.3721 C   0  0  2  0  0  0  0  0  0  0  0  0
    7.0757  -15.4800   21.2616 N   0  0  0  0  0  0  0  0  0  0  0  0
    8.7835  -14.7382   22.7731 C   0  0  0  0  0  0  0  0  0  0  0  0
    9.9435  -14.4036   23.1253 O   0  0  0  0  0  0  0  0  0  0  0  0
    7.8759  -11.8292   26.7982 C   0  0  0  0  0  0  0  0  0  0  0  0
    6.7903  -12.8871   26.8030 C   0  0  1  0  0  0  0  0  0  0  0  0
    5.4985  -12.2891   27.3050 C   0  0  0  0  0  0  0  0  0  0  0  0
    6.6643  -13.4547   25.4069 C   0  0  0  0  0  0  0  0  0  0  0  0
    7.9059  -14.2524   25.0974 C   0  0  2  0  0  0  0  0  0  0  0  0
    7.7750  -14.7481   23.7425 N   0  0  0  0  0  0  0  0  0  0  0  0
    7.9952  -15.4642   25.9882 C   0  0  0  0  0  0  0  0  0  0  0  0
    8.0351  -15.3758   27.2429 O   0  0  0  0  0  0  0  0  0  0  0  0
    7.4588  -19.1086   25.5481 C   0  0  0  0  0  0  0  0  0  0  0  0
    8.1491  -17.9707   26.2680 C   0  0  2  0  0  0  0  0  0  0  0  0
    8.0385  -16.7754   25.4315 N   0  0  0  0  0  0  0  0  0  0  0  0
    9.5749  -18.3267   26.4898 C   0  0  0  0  0  0  0  0  0  0  0  0
    9.9737  -19.2844   27.4001 O   0  0  0  0  0  0  0  0  0  0  0  0
   10.4541  -17.7331   25.8227 O   0  0  0  0  0  0  0  0  0  0  0  0
  2  1  1  6
  2  3  1  0
  4  2  1  0
  5  4  1  0
  5  7  1  0
  5  6  1  1
  7  8  2  0
 10  9  1  6
 10 11  1  0
 13 12  1  1
 12 10  1  0
 14  7  1  0
 14 13  1  0
 15 13  1  0
 15 19  1  0
 16 15  2  0
 18 19  1  0
 18 17  1  6
 20 18  1  0
 21 20  1  0
 22 20  2  0
M  END
$$$$
