LLA.pdb
     RDKit          3D

 22 21  0  0  1  0  0  0  0  0999 V2000
    8.3686  -14.4663   18.8138 C   0  0  0  0  0  0  0  0  0  0  0  0
    7.5977  -13.5964   19.7878 C   0  0  2  0  0  0  0  0  0  0  0  0
    7.5640  -12.1945   19.1660 C   0  0  0  0  0  0  0  0  0  0  0  0
    8.3364  -13.4499   21.1013 C   0  0  0  0  0  0  0  0  0  0  0  0
    8.2778  -14.7826   21.8026 C   0  0  2  0  0  0  0  0  0  0  0  0
    6.9539  -15.3185   21.7499 N   0  0  0  0  0  0  0  0  0  0  0  0
    8.7492  -14.6941   23.2122 C   0  0  0  0  0  0  0  0  0  0  0  0
    9.9339  -14.3935   23.5085 O   0  0  0  0  0  0  0  0  0  0  0  0
    5.5378  -12.1258   26.4876 C   0  0  0  0  0  0  0  0  0  0  0  0
    6.8067  -12.7114   25.9004 C   0  0  1  0  0  0  0  0  0  0  0  0
    8.0004  -11.9181   26.3737 C   0  0  0  0  0  0  0  0  0  0  0  0
    6.8880  -14.1710   26.2879 C   0  0  0  0  0  0  0  0  0  0  0  0
    8.1250  -14.7666   25.6645 C   0  0  2  0  0  0  0  0  0  0  0  0
    7.8520  -14.9523   24.2540 N   0  0  0  0  0  0  0  0  0  0  0  0
    8.3988  -16.1361   26.2299 C   0  0  0  0  0  0  0  0  0  0  0  0
    8.5517  -16.3370   27.4627 O   0  0  0  0  0  0  0  0  0  0  0  0
    8.4220  -19.6216   24.8605 C   0  0  0  0  0  0  0  0  0  0  0  0
    8.8692  -18.5934   25.8766 C   0  0  2  0  0  0  0  0  0  0  0  0
    8.4958  -17.2712   25.3736 N   0  0  0  0  0  0  0  0  0  0  0  0
   10.3414  -18.6914   26.0549 C   0  0  0  0  0  0  0  0  0  0  0  0
   10.9494  -19.7607   26.6807 O   0  0  0  0  0  0  0  0  0  0  0  0
   11.0632  -17.7644   25.6191 O   0  0  0  0  0  0  0  0  0  0  0  0
  2  1  1  6
  2  3  1  0
  4  2  1  0
  5  4  1  0
  5  7  1  0
  5  6  1  1
  7  8  2  0
 10  9  1  1
 10 11  1  0
 13 12  1  1
 12 10  1  0
 14  7  1  0
 14 13  1  0
 15 13  1  0
 15 19  1  0
 16 15  2  0
 18 19  1  0
 18 17  1  6
 20 18  1  0
 21 20  1  0
 22 20  2  0
M  END
$$$$
