DVK.pdb
     RDKit          3D

 25 24  0  0  1  0  0  0  0  0999 V2000
   32.8237  -27.9835  -20.2668 N   0  0  0  0  0  0  0  0  0  0  0  0
   31.5944  -28.2104  -19.5317 C   0  0  1  0  0  0  0  0  0  0  0  0
   30.5397  -27.3294  -20.1648 C   0  0  0  0  0  0  0  0  0  0  0  0
   30.8323  -25.9469  -19.7301 C   0  0  0  0  0  0  0  0  0  0  0  0
   31.9937  -25.5141  -19.7950 O   0  0  0  0  0  0  0  0  0  0  0  0
   31.2650  -29.6715  -19.6989 C   0  0  0  0  0  0  0  0  0  0  0  0
   31.9265  -30.4192  -20.4620 O   0  0  0  0  0  0  0  0  0  0  0  0
   29.8152  -25.1450  -19.2556 O   0  0  0  0  0  0  0  0  0  0  0  0
   32.3850  -32.1455  -19.2956 C   0  0  0  0  0  0  0  0  0  0  0  0
   31.1920  -32.3190  -18.4290 C   0  0  2  0  0  0  0  0  0  0  0  0
   30.9910  -33.7420  -17.9710 C   0  0  0  0  0  0  0  0  0  0  0  0
   29.9294  -31.7253  -19.0135 C   0  0  2  0  0  0  0  0  0  0  0  0
   30.1887  -30.2707  -18.9991 N   0  0  0  0  0  0  0  0  0  0  0  0
   28.7174  -32.0030  -18.1887 C   0  0  0  0  0  0  0  0  0  0  0  0
   28.6648  -31.6171  -16.9675 O   0  0  0  0  0  0  0  0  0  0  0  0
   27.5627  -32.6817  -18.6453 N   0  0  0  0  0  0  0  0  0  0  0  0
   26.4208  -32.9460  -17.7570 C   0  0  1  0  0  0  0  0  0  0  0  0
   25.1389  -32.4388  -18.3253 C   0  0  0  0  0  0  0  0  0  0  0  0
   23.9128  -32.8016  -17.5638 C   0  0  0  0  0  0  0  0  0  0  0  0
   23.2329  -31.6739  -16.8665 C   0  0  0  0  0  0  0  0  0  0  0  0
   23.2484  -31.8196  -15.3595 C   0  0  0  0  0  0  0  0  0  0  0  0
   22.5522  -30.6903  -14.7547 N   0  0  0  0  0  0  0  0  0  0  0  0
   26.3465  -34.3931  -17.4288 C   0  0  0  0  0  0  0  0  0  0  0  0
   25.6326  -34.8916  -16.3448 O   0  0  0  0  0  0  0  0  0  0  0  0
   26.9623  -35.1956  -18.1740 O   0  0  0  0  0  0  0  0  0  0  0  0
  2  1  1  6
  3  4  1  0
  3  2  1  0
  4  8  1  0
  5  4  2  0
  6  2  1  0
  6  7  2  0
 10  9  1  6
 10 12  1  0
 11 10  1  0
 12 13  1  1
 13  6  1  0
 14 12  1  0
 15 14  2  0
 16 14  1  0
 17 16  1  0
 17 23  1  0
 17 18  1  6
 19 18  1  0
 20 19  1  0
 20 21  1  0
 22 21  1  0
 23 24  1  0
 25 23  2  0
M  END
$$$$
