DVK.pdb
     RDKit          3D

 25 24  0  0  1  0  0  0  0  0999 V2000
   28.1807  -21.9434  -15.8918 N   0  0  0  0  0  0  0  0  0  0  0  0
   27.4294  -20.8165  -15.3735 C   0  0  1  0  0  0  0  0  0  0  0  0
   26.6279  -20.2591  -16.5295 C   0  0  0  0  0  0  0  0  0  0  0  0
   27.6000  -19.6309  -17.4493 C   0  0  0  0  0  0  0  0  0  0  0  0
   27.6075  -19.9501  -18.6488 O   0  0  0  0  0  0  0  0  0  0  0  0
   26.5320  -21.3663  -14.2949 C   0  0  0  0  0  0  0  0  0  0  0  0
   25.9817  -22.4912  -14.3972 O   0  0  0  0  0  0  0  0  0  0  0  0
   28.4927  -18.6939  -16.9720 O   0  0  0  0  0  0  0  0  0  0  0  0
   27.1351  -21.0979  -10.4857 C   0  0  0  0  0  0  0  0  0  0  0  0
   25.7953  -20.5461  -10.8092 C   0  0  2  0  0  0  0  0  0  0  0  0
   24.8022  -20.6964   -9.6839 C   0  0  0  0  0  0  0  0  0  0  0  0
   25.2410  -21.0394  -12.1274 C   0  0  2  0  0  0  0  0  0  0  0  0
   26.2672  -20.6351  -13.1106 N   0  0  0  0  0  0  0  0  0  0  0  0
   23.9467  -20.3944  -12.4947 C   0  0  0  0  0  0  0  0  0  0  0  0
   23.9099  -19.4916  -13.4039 O   0  0  0  0  0  0  0  0  0  0  0  0
   22.6939  -20.6980  -11.9111 N   0  0  0  0  0  0  0  0  0  0  0  0
   21.4780  -20.8445  -12.7254 C   0  0  1  0  0  0  0  0  0  0  0  0
   21.6335  -21.8831  -13.7838 C   0  0  0  0  0  0  0  0  0  0  0  0
   20.4611  -22.0616  -14.6832 C   0  0  0  0  0  0  0  0  0  0  0  0
   20.6031  -23.1220  -15.7202 C   0  0  0  0  0  0  0  0  0  0  0  0
   19.4145  -23.1924  -16.6556 C   0  0  0  0  0  0  0  0  0  0  0  0
   19.6366  -24.2390  -17.6461 N   0  0  0  0  0  0  0  0  0  0  0  0
   20.3036  -21.1122  -11.8555 C   0  0  0  0  0  0  0  0  0  0  0  0
   20.3012  -22.0799  -10.8572 O   0  0  0  0  0  0  0  0  0  0  0  0
   19.2685  -20.4244  -12.0401 O   0  0  0  0  0  0  0  0  0  0  0  0
  2  1  1  6
  3  4  1  0
  3  2  1  0
  4  8  1  0
  5  4  2  0
  6  2  1  0
  6  7  2  0
 10  9  1  1
 10 12  1  0
 11 10  1  0
 12 13  1  6
 13  6  1  0
 14 12  1  0
 15 14  2  0
 16 14  1  0
 17 16  1  0
 17 23  1  0
 17 18  1  6
 19 18  1  0
 20 19  1  0
 20 21  1  0
 22 21  1  0
 23 24  1  0
 25 23  2  0
M  END
$$$$
