DVK.pdb
     RDKit          3D

 25 24  0  0  1  0  0  0  0  0999 V2000
   19.7248  -13.1853  -16.6486 N   0  0  0  0  0  0  0  0  0  0  0  0
   20.1966  -11.9831  -17.3082 C   0  0  1  0  0  0  0  0  0  0  0  0
   18.9698  -11.1736  -17.6673 C   0  0  0  0  0  0  0  0  0  0  0  0
   18.2720  -11.9213  -18.7350 C   0  0  0  0  0  0  0  0  0  0  0  0
   18.9308  -12.4874  -19.6215 O   0  0  0  0  0  0  0  0  0  0  0  0
   21.0593  -11.2611  -16.3055 C   0  0  0  0  0  0  0  0  0  0  0  0
   20.6898  -11.0807  -15.1182 O   0  0  0  0  0  0  0  0  0  0  0  0
   16.8942  -11.9871  -18.7413 O   0  0  0  0  0  0  0  0  0  0  0  0
   24.7717  -11.9535  -15.7741 C   0  0  0  0  0  0  0  0  0  0  0  0
   24.5854  -10.5034  -16.0327 C   0  0  2  0  0  0  0  0  0  0  0  0
   25.6523   -9.6444  -15.4009 C   0  0  0  0  0  0  0  0  0  0  0  0
   23.1924  -10.0071  -15.7145 C   0  0  2  0  0  0  0  0  0  0  0  0
   22.3329  -10.7506  -16.6588 N   0  0  0  0  0  0  0  0  0  0  0  0
   23.0223   -8.5456  -15.9624 C   0  0  0  0  0  0  0  0  0  0  0  0
   23.0134   -8.0904  -17.1606 O   0  0  0  0  0  0  0  0  0  0  0  0
   22.8595   -7.5649  -14.9554 N   0  0  0  0  0  0  0  0  0  0  0  0
   22.6031   -6.1548  -15.2853 C   0  0  1  0  0  0  0  0  0  0  0  0
   21.3854   -5.9886  -16.1295 C   0  0  0  0  0  0  0  0  0  0  0  0
   20.9824   -4.5822  -16.4027 C   0  0  0  0  0  0  0  0  0  0  0  0
   19.7679   -4.4152  -17.2495 C   0  0  0  0  0  0  0  0  0  0  0  0
   19.5315   -2.9776  -17.6614 C   0  0  0  0  0  0  0  0  0  0  0  0
   18.3653   -2.9072  -18.5338 N   0  0  0  0  0  0  0  0  0  0  0  0
   22.5323   -5.3394  -14.0453 C   0  0  0  0  0  0  0  0  0  0  0  0
   22.8166   -3.9788  -14.0123 O   0  0  0  0  0  0  0  0  0  0  0  0
   22.1981   -5.9182  -12.9814 O   0  0  0  0  0  0  0  0  0  0  0  0
  2  1  1  1
  3  4  1  0
  3  2  1  0
  4  8  1  0
  5  4  2  0
  6  2  1  0
  6  7  2  0
 10  9  1  1
 10 12  1  0
 11 10  1  0
 12 13  1  6
 13  6  1  0
 14 12  1  0
 15 14  2  0
 16 14  1  0
 17 16  1  0
 17 23  1  0
 17 18  1  1
 19 18  1  0
 20 19  1  0
 20 21  1  0
 22 21  1  0
 23 24  1  0
 25 23  2  0
M  END
$$$$
