DVK.pdb
     RDKit          3D

 25 24  0  0  1  0  0  0  0  0999 V2000
   34.8848  -28.9604  -19.7941 N   0  0  0  0  0  0  0  0  0  0  0  0
   33.8286  -28.8711  -18.8044 C   0  0  1  0  0  0  0  0  0  0  0  0
   32.8683  -27.8063  -19.2876 C   0  0  0  0  0  0  0  0  0  0  0  0
   33.5902  -26.5192  -19.1988 C   0  0  0  0  0  0  0  0  0  0  0  0
   34.0966  -26.1706  -18.1206 O   0  0  0  0  0  0  0  0  0  0  0  0
   33.1724  -30.2271  -18.7623 C   0  0  0  0  0  0  0  0  0  0  0  0
   33.5604  -31.1763  -19.4884 O   0  0  0  0  0  0  0  0  0  0  0  0
   33.6984  -25.7127  -20.3126 O   0  0  0  0  0  0  0  0  0  0  0  0
   33.0855  -32.3187  -15.9015 C   0  0  0  0  0  0  0  0  0  0  0  0
   32.6118  -32.6932  -17.2578 C   0  0  2  0  0  0  0  0  0  0  0  0
   33.7266  -32.8045  -18.2678 C   0  0  0  0  0  0  0  0  0  0  0  0
   31.4733  -31.8327  -17.7590 C   0  0  2  0  0  0  0  0  0  0  0  0
   32.0825  -30.4937  -17.8972 N   0  0  0  0  0  0  0  0  0  0  0  0
   30.3391  -31.7444  -16.7934 C   0  0  0  0  0  0  0  0  0  0  0  0
   29.9016  -30.6010  -16.4136 O   0  0  0  0  0  0  0  0  0  0  0  0
   29.6643  -32.8533  -16.2301 N   0  0  0  0  0  0  0  0  0  0  0  0
   28.3634  -32.7065  -15.5601 C   0  0  1  0  0  0  0  0  0  0  0  0
   27.3886  -31.9411  -16.3892 C   0  0  0  0  0  0  0  0  0  0  0  0
   26.0540  -31.7207  -15.7685 C   0  0  0  0  0  0  0  0  0  0  0  0
   24.9160  -31.5927  -16.7217 C   0  0  0  0  0  0  0  0  0  0  0  0
   23.6127  -31.2386  -16.0371 C   0  0  0  0  0  0  0  0  0  0  0  0
   22.5997  -30.9428  -17.0432 N   0  0  0  0  0  0  0  0  0  0  0  0
   27.8317  -34.0374  -15.1682 C   0  0  0  0  0  0  0  0  0  0  0  0
   27.0826  -34.2481  -14.0160 O   0  0  0  0  0  0  0  0  0  0  0  0
   28.0769  -35.0118  -15.9224 O   0  0  0  0  0  0  0  0  0  0  0  0
  2  1  1  6
  3  4  1  0
  3  2  1  0
  4  8  1  0
  5  4  2  0
  6  2  1  0
  6  7  2  0
 10  9  1  1
 10 12  1  0
 11 10  1  0
 12 13  1  1
 13  6  1  0
 14 12  1  0
 15 14  2  0
 16 14  1  0
 17 16  1  0
 17 23  1  0
 17 18  1  6
 19 18  1  0
 20 19  1  0
 20 21  1  0
 22 21  1  0
 23 24  1  0
 25 23  2  0
M  END
$$$$
