DVK.pdb
     RDKit          3D

 25 24  0  0  1  0  0  0  0  0999 V2000
   27.2375  -20.3888  -16.2932 N   0  0  0  0  0  0  0  0  0  0  0  0
   26.4389  -19.8774  -17.3904 C   0  0  1  0  0  0  0  0  0  0  0  0
   24.9910  -19.9984  -16.9682 C   0  0  0  0  0  0  0  0  0  0  0  0
   24.6827  -21.4440  -16.9376 C   0  0  0  0  0  0  0  0  0  0  0  0
   23.5156  -21.8206  -16.7456 O   0  0  0  0  0  0  0  0  0  0  0  0
   26.8418  -18.4365  -17.5712 C   0  0  0  0  0  0  0  0  0  0  0  0
   26.9249  -17.6425  -16.6009 O   0  0  0  0  0  0  0  0  0  0  0  0
   25.6911  -22.3668  -17.1226 O   0  0  0  0  0  0  0  0  0  0  0  0
   29.8809  -17.0870  -19.1118 C   0  0  0  0  0  0  0  0  0  0  0  0
   28.7399  -16.5129  -19.8687 C   0  0  2  0  0  0  0  0  0  0  0  0
   29.0541  -15.1781  -20.4971 C   0  0  0  0  0  0  0  0  0  0  0  0
   27.4479  -16.4821  -19.0827 C   0  0  2  0  0  0  0  0  0  0  0  0
   27.1465  -17.9099  -18.8507 N   0  0  0  0  0  0  0  0  0  0  0  0
   26.3172  -15.8719  -19.8413 C   0  0  0  0  0  0  0  0  0  0  0  0
   25.7098  -16.5447  -20.7476 O   0  0  0  0  0  0  0  0  0  0  0  0
   25.8237  -14.5599  -19.6473 N   0  0  0  0  0  0  0  0  0  0  0  0
   24.5963  -14.0912  -20.3081 C   0  0  1  0  0  0  0  0  0  0  0  0
   23.4157  -14.9332  -19.9609 C   0  0  0  0  0  0  0  0  0  0  0  0
   22.1120  -14.4634  -20.5039 C   0  0  0  0  0  0  0  0  0  0  0  0
   20.9324  -15.3065  -20.1609 C   0  0  0  0  0  0  0  0  0  0  0  0
   19.6696  -14.8676  -20.8715 C   0  0  0  0  0  0  0  0  0  0  0  0
   18.5252  -15.5772  -20.3121 N   0  0  0  0  0  0  0  0  0  0  0  0
   24.3617  -12.6562  -20.0027 C   0  0  0  0  0  0  0  0  0  0  0  0
   23.4981  -11.8531  -20.7392 O   0  0  0  0  0  0  0  0  0  0  0  0
   24.9788  -12.1555  -19.0296 O   0  0  0  0  0  0  0  0  0  0  0  0
  2  1  1  1
  3  4  1  0
  3  2  1  0
  4  8  1  0
  5  4  2  0
  6  2  1  0
  6  7  2  0
 10  9  1  1
 10 12  1  0
 11 10  1  0
 12 13  1  6
 13  6  1  0
 14 12  1  0
 15 14  2  0
 16 14  1  0
 17 16  1  0
 17 23  1  0
 17 18  1  1
 19 18  1  0
 20 19  1  0
 20 21  1  0
 22 21  1  0
 23 24  1  0
 25 23  2  0
M  END
$$$$
