DVK.pdb
     RDKit          3D

 25 24  0  0  1  0  0  0  0  0999 V2000
   28.0062  -22.4081  -16.1604 N   0  0  0  0  0  0  0  0  0  0  0  0
   27.4684  -21.1852  -15.5961 C   0  0  1  0  0  0  0  0  0  0  0  0
   26.8215  -20.4279  -16.7351 C   0  0  0  0  0  0  0  0  0  0  0  0
   27.9151  -19.7465  -17.4600 C   0  0  0  0  0  0  0  0  0  0  0  0
   29.0944  -20.0554  -17.2268 O   0  0  0  0  0  0  0  0  0  0  0  0
   26.4519  -21.6058  -14.5661 C   0  0  0  0  0  0  0  0  0  0  0  0
   25.7264  -22.6196  -14.7232 O   0  0  0  0  0  0  0  0  0  0  0  0
   27.6210  -18.7723  -18.3913 O   0  0  0  0  0  0  0  0  0  0  0  0
   27.0945  -21.1655  -10.6814 C   0  0  0  0  0  0  0  0  0  0  0  0
   25.7746  -20.6172  -11.0834 C   0  0  2  0  0  0  0  0  0  0  0  0
   24.7547  -20.6466   -9.9725 C   0  0  0  0  0  0  0  0  0  0  0  0
   25.2375  -21.2143  -12.3653 C   0  0  2  0  0  0  0  0  0  0  0  0
   26.2677  -20.8726  -13.3679 N   0  0  0  0  0  0  0  0  0  0  0  0
   23.9393  -20.6139  -12.7901 C   0  0  0  0  0  0  0  0  0  0  0  0
   23.8539  -19.3558  -13.0197 O   0  0  0  0  0  0  0  0  0  0  0  0
   22.7346  -21.3327  -12.9760 N   0  0  0  0  0  0  0  0  0  0  0  0
   21.4909  -20.6624  -13.3843 C   0  0  1  0  0  0  0  0  0  0  0  0
   20.6764  -21.5047  -14.3065 C   0  0  0  0  0  0  0  0  0  0  0  0
   19.4415  -20.8645  -14.8360 C   0  0  0  0  0  0  0  0  0  0  0  0
   18.5959  -21.7259  -15.7096 C   0  0  0  0  0  0  0  0  0  0  0  0
   17.4652  -20.9645  -16.3685 C   0  0  0  0  0  0  0  0  0  0  0  0
   16.6066  -21.8966  -17.0895 N   0  0  0  0  0  0  0  0  0  0  0  0
   20.7153  -20.2413  -12.1891 C   0  0  0  0  0  0  0  0  0  0  0  0
   19.9767  -19.0644  -12.1374 O   0  0  0  0  0  0  0  0  0  0  0  0
   20.7352  -20.9931  -11.1826 O   0  0  0  0  0  0  0  0  0  0  0  0
  2  1  1  6
  3  4  1  0
  3  2  1  0
  4  8  1  0
  5  4  2  0
  6  2  1  0
  6  7  2  0
 10  9  1  1
 10 12  1  0
 11 10  1  0
 12 13  1  6
 13  6  1  0
 14 12  1  0
 15 14  2  0
 16 14  1  0
 17 16  1  0
 17 23  1  0
 17 18  1  1
 19 18  1  0
 20 19  1  0
 20 21  1  0
 22 21  1  0
 23 24  1  0
 25 23  2  0
M  END
$$$$
