DVK.pdb
     RDKit          3D

 25 24  0  0  1  0  0  0  0  0999 V2000
   24.1527  -20.3408   -9.4121 N   0  0  0  0  0  0  0  0  0  0  0  0
   23.9354  -20.8591  -10.7490 C   0  0  1  0  0  0  0  0  0  0  0  0
   22.5072  -20.5233  -11.1192 C   0  0  0  0  0  0  0  0  0  0  0  0
   21.6433  -21.3139  -10.2169 C   0  0  0  0  0  0  0  0  0  0  0  0
   22.1514  -21.9541   -9.2828 O   0  0  0  0  0  0  0  0  0  0  0  0
   24.9183  -20.1483  -11.6433 C   0  0  0  0  0  0  0  0  0  0  0  0
   25.0182  -18.8959  -11.6587 O   0  0  0  0  0  0  0  0  0  0  0  0
   20.2785  -21.3366  -10.4159 O   0  0  0  0  0  0  0  0  0  0  0  0
   28.5153  -20.6131  -11.7260 C   0  0  0  0  0  0  0  0  0  0  0  0
   28.0510  -20.8585  -13.1146 C   0  0  2  0  0  0  0  0  0  0  0  0
   29.0995  -20.5536  -14.1553 C   0  0  0  0  0  0  0  0  0  0  0  0
   26.7254  -20.2030  -13.4330 C   0  0  2  0  0  0  0  0  0  0  0  0
   25.7787  -20.8647  -12.5116 N   0  0  0  0  0  0  0  0  0  0  0  0
   26.2760  -20.4451  -14.8351 C   0  0  0  0  0  0  0  0  0  0  0  0
   25.9488  -21.6251  -15.2139 O   0  0  0  0  0  0  0  0  0  0  0  0
   26.1679  -19.4507  -15.8361 N   0  0  0  0  0  0  0  0  0  0  0  0
   25.5147  -19.7214  -17.1257 C   0  0  1  0  0  0  0  0  0  0  0  0
   24.0375  -19.5303  -17.0573 C   0  0  0  0  0  0  0  0  0  0  0  0
   23.2876  -19.8882  -18.2921 C   0  0  0  0  0  0  0  0  0  0  0  0
   21.8123  -19.6899  -18.2274 C   0  0  0  0  0  0  0  0  0  0  0  0
   21.1012  -20.1544  -19.4808 C   0  0  0  0  0  0  0  0  0  0  0  0
   19.6602  -20.0289  -19.2971 N   0  0  0  0  0  0  0  0  0  0  0  0
   26.1302  -18.8982  -18.1986 C   0  0  0  0  0  0  0  0  0  0  0  0
   26.0189  -19.2039  -19.5504 O   0  0  0  0  0  0  0  0  0  0  0  0
   26.7800  -17.8790  -17.8556 O   0  0  0  0  0  0  0  0  0  0  0  0
  2  1  1  1
  3  4  1  0
  3  2  1  0
  4  8  1  0
  5  4  2  0
  6  2  1  0
  6  7  2  0
 10  9  1  1
 10 12  1  0
 11 10  1  0
 12 13  1  1
 13  6  1  0
 14 12  1  0
 15 14  2  0
 16 14  1  0
 17 16  1  0
 17 23  1  0
 17 18  1  1
 19 18  1  0
 20 19  1  0
 20 21  1  0
 22 21  1  0
 23 24  1  0
 25 23  2  0
M  END
$$$$
