DVK.pdb
     RDKit          3D

 25 24  0  0  1  0  0  0  0  0999 V2000
   26.5559  -16.4830  -19.2627 N   0  0  0  0  0  0  0  0  0  0  0  0
   25.8795  -16.3012  -17.9928 C   0  0  1  0  0  0  0  0  0  0  0  0
   24.6435  -15.4745  -18.2724 C   0  0  0  0  0  0  0  0  0  0  0  0
   25.1032  -14.0810  -18.4533 C   0  0  0  0  0  0  0  0  0  0  0  0
   25.5574  -13.7202  -19.5506 O   0  0  0  0  0  0  0  0  0  0  0  0
   25.5210  -17.6805  -17.5031 C   0  0  0  0  0  0  0  0  0  0  0  0
   25.0881  -18.5697  -18.2782 O   0  0  0  0  0  0  0  0  0  0  0  0
   25.0252  -13.1890  -17.4040 O   0  0  0  0  0  0  0  0  0  0  0  0
   27.7538  -19.8353  -15.5821 C   0  0  0  0  0  0  0  0  0  0  0  0
   26.4953  -19.7768  -14.7966 C   0  0  2  0  0  0  0  0  0  0  0  0
   26.2388  -21.0252  -13.9898 C   0  0  0  0  0  0  0  0  0  0  0  0
   25.2902  -19.3708  -15.6159 C   0  0  2  0  0  0  0  0  0  0  0  0
   25.6567  -18.0384  -16.1389 N   0  0  0  0  0  0  0  0  0  0  0  0
   24.0474  -19.2391  -14.8008 C   0  0  0  0  0  0  0  0  0  0  0  0
   24.0164  -18.4470  -13.7935 O   0  0  0  0  0  0  0  0  0  0  0  0
   22.8395  -19.9350  -15.0439 N   0  0  0  0  0  0  0  0  0  0  0  0
   21.6316  -19.6885  -14.2419 C   0  0  1  0  0  0  0  0  0  0  0  0
   20.4237  -19.4907  -15.0934 C   0  0  0  0  0  0  0  0  0  0  0  0
   19.1533  -19.2493  -14.3565 C   0  0  0  0  0  0  0  0  0  0  0  0
   17.9264  -19.1767  -15.1988 C   0  0  0  0  0  0  0  0  0  0  0  0
   17.2546  -17.8210  -15.1434 C   0  0  0  0  0  0  0  0  0  0  0  0
   16.2169  -17.7503  -16.1652 N   0  0  0  0  0  0  0  0  0  0  0  0
   21.4383  -20.7792  -13.2517 C   0  0  0  0  0  0  0  0  0  0  0  0
   20.7854  -20.5975  -12.0377 O   0  0  0  0  0  0  0  0  0  0  0  0
   21.8906  -21.9163  -13.5364 O   0  0  0  0  0  0  0  0  0  0  0  0
  2  1  1  6
  3  4  1  0
  3  2  1  0
  4  8  1  0
  5  4  2  0
  6  2  1  0
  6  7  2  0
 10  9  1  6
 10 12  1  0
 11 10  1  0
 12 13  1  1
 13  6  1  0
 14 12  1  0
 15 14  2  0
 16 14  1  0
 17 16  1  0
 17 23  1  0
 17 18  1  6
 19 18  1  0
 20 19  1  0
 20 21  1  0
 22 21  1  0
 23 24  1  0
 25 23  2  0
M  END
$$$$
