AQF.pdb
     RDKit          3D

 26 26  0  0  1  0  0  0  0  0999 V2000
    6.7549  -13.7359   19.4165 C   0  0  0  0  0  0  0  0  0  0  0  0
    7.9404  -13.4461   20.3121 C   0  0  2  0  0  0  0  0  0  0  0  0
    9.1427  -13.4510   19.5079 N   0  0  0  0  0  0  0  0  0  0  0  0
    7.9644  -14.5074   21.3615 C   0  0  0  0  0  0  0  0  0  0  0  0
    6.9789  -14.5723   22.0948 O   0  0  0  0  0  0  0  0  0  0  0  0
    9.4997  -19.3421   19.9177 N   0  0  0  0  0  0  0  0  0  0  0  0
   10.6973  -19.1912   20.6645 C   0  0  0  0  0  0  0  0  0  0  0  0
   11.7528  -19.7096   20.2782 O   0  0  0  0  0  0  0  0  0  0  0  0
   10.6013  -18.3781   21.9281 C   0  0  0  0  0  0  0  0  0  0  0  0
    9.1990  -17.8358   22.0462 C   0  0  0  0  0  0  0  0  0  0  0  0
    9.1643  -16.4000   22.5105 C   0  0  2  0  0  0  0  0  0  0  0  0
    9.0458  -15.3973   21.5217 N   0  0  0  0  0  0  0  0  0  0  0  0
    9.9912  -16.0965   23.6803 C   0  0  0  0  0  0  0  0  0  0  0  0
   11.1210  -16.6357   23.8910 O   0  0  0  0  0  0  0  0  0  0  0  0
    9.5967  -15.1591   24.6966 N   0  0  0  0  0  0  0  0  0  0  0  0
    9.2253  -15.5609   26.0405 C   0  0  1  0  0  0  0  0  0  0  0  0
    7.7454  -15.3184   26.1789 C   0  0  0  0  0  0  0  0  0  0  0  0
    7.3698  -13.8901   26.2047 C   0  0  0  0  0  0  0  0  0  0  0  0
    8.2860  -12.8623   26.2589 C   0  0  0  0  0  0  0  0  0  0  0  0
    7.8874  -11.5230   26.2808 C   0  0  0  0  0  0  0  0  0  0  0  0
    6.5580  -11.2060   26.2482 C   0  0  0  0  0  0  0  0  0  0  0  0
    5.6277  -12.2121   26.1941 C   0  0  0  0  0  0  0  0  0  0  0  0
    6.0228  -13.5291   26.1726 C   0  0  0  0  0  0  0  0  0  0  0  0
    9.6351  -16.9268   26.3591 C   0  0  0  0  0  0  0  0  0  0  0  0
   10.4153  -17.1799   27.3159 O   0  0  0  0  0  0  0  0  0  0  0  0
    9.1820  -18.0081   25.6206 O   0  0  0  0  0  0  0  0  0  0  0  0
  2  1  1  6
  3  2  1  0
  4  5  2  0
  4  2  1  0
  6  7  1  0
  7  9  1  0
  8  7  2  0
  9 10  1  0
 11 10  1  6
 11 12  1  0
 12  4  1  0
 13 11  1  0
 14 13  2  0
 15 13  1  0
 16 24  1  0
 16 15  1  0
 17 18  1  0
 16 17  1  6
 18 19  2  0
 19 20  1  0
 21 20  2  0
 22 21  1  0
 23 18  1  0
 23 22  2  0
 24 26  1  0
 25 24  2  0
M  END
$$$$
