AQF.pdb
     RDKit          3D

 26 26  0  0  1  0  0  0  0  0999 V2000
    6.4785  -19.4317   19.4940 C   0  0  0  0  0  0  0  0  0  0  0  0
    6.5420  -19.1096   20.9716 C   0  0  2  0  0  0  0  0  0  0  0  0
    5.3342  -18.4077   21.3468 N   0  0  0  0  0  0  0  0  0  0  0  0
    7.7625  -18.2770   21.1848 C   0  0  0  0  0  0  0  0  0  0  0  0
    8.8424  -18.8286   20.9781 O   0  0  0  0  0  0  0  0  0  0  0  0
    7.1740  -12.1843   19.2347 N   0  0  0  0  0  0  0  0  0  0  0  0
    8.0432  -13.2895   19.4290 C   0  0  0  0  0  0  0  0  0  0  0  0
    8.8530  -13.6186   18.5526 O   0  0  0  0  0  0  0  0  0  0  0  0
    7.9181  -14.0182   20.7406 C   0  0  0  0  0  0  0  0  0  0  0  0
    9.0776  -14.9735   20.8730 C   0  0  0  0  0  0  0  0  0  0  0  0
    8.8088  -16.0869   21.8561 C   0  0  2  0  0  0  0  0  0  0  0  0
    7.7048  -16.9311   21.5998 N   0  0  0  0  0  0  0  0  0  0  0  0
    9.1075  -15.7767   23.2557 C   0  0  0  0  0  0  0  0  0  0  0  0
   10.0662  -15.0241   23.6109 O   0  0  0  0  0  0  0  0  0  0  0  0
    8.3404  -16.2976   24.3545 N   0  0  0  0  0  0  0  0  0  0  0  0
    8.7549  -16.1675   25.7391 C   0  0  1  0  0  0  0  0  0  0  0  0
    7.5337  -15.7763   26.5289 C   0  0  0  0  0  0  0  0  0  0  0  0
    7.2079  -14.3374   26.4594 C   0  0  0  0  0  0  0  0  0  0  0  0
    5.9695  -13.8533   26.0976 C   0  0  0  0  0  0  0  0  0  0  0  0
    5.7030  -12.4823   26.0454 C   0  0  0  0  0  0  0  0  0  0  0  0
    6.6848  -11.5839   26.3581 C   0  0  0  0  0  0  0  0  0  0  0  0
    7.9253  -12.0423   26.7210 C   0  0  0  0  0  0  0  0  0  0  0  0
    8.1846  -13.3918   26.7715 C   0  0  0  0  0  0  0  0  0  0  0  0
    9.4315  -17.3600   26.2442 C   0  0  0  0  0  0  0  0  0  0  0  0
    9.8724  -17.4240   27.4231 O   0  0  0  0  0  0  0  0  0  0  0  0
    9.6186  -18.4774   25.4466 O   0  0  0  0  0  0  0  0  0  0  0  0
  2  1  1  6
  3  2  1  0
  4  5  2  0
  4  2  1  0
  6  7  1  0
  7  9  1  0
  8  7  2  0
  9 10  1  0
 11 10  1  6
 11 12  1  0
 12  4  1  0
 13 11  1  0
 14 13  2  0
 15 13  1  0
 16 24  1  0
 16 15  1  0
 17 18  1  0
 16 17  1  1
 18 19  2  0
 19 20  1  0
 21 20  2  0
 22 21  1  0
 23 18  1  0
 23 22  2  0
 24 26  1  0
 25 24  2  0
M  END
$$$$
