AQF.pdb
     RDKit          3D

 26 26  0  0  1  0  0  0  0  0999 V2000
    8.0918  -12.2279   19.7637 C   0  0  0  0  0  0  0  0  0  0  0  0
    8.0668  -13.5793   19.0823 C   0  0  2  0  0  0  0  0  0  0  0  0
    6.7740  -13.7623   18.4599 N   0  0  0  0  0  0  0  0  0  0  0  0
    8.3314  -14.6039   20.1351 C   0  0  0  0  0  0  0  0  0  0  0  0
    7.4288  -14.7963   20.9484 O   0  0  0  0  0  0  0  0  0  0  0  0
   11.3653  -21.0524   21.8342 N   0  0  0  0  0  0  0  0  0  0  0  0
   11.1537  -19.9347   20.9853 C   0  0  0  0  0  0  0  0  0  0  0  0
   11.3860  -20.0094   19.7719 O   0  0  0  0  0  0  0  0  0  0  0  0
   10.6400  -18.6814   21.6429 C   0  0  0  0  0  0  0  0  0  0  0  0
   10.3855  -17.6472   20.5752 C   0  0  0  0  0  0  0  0  0  0  0  0
    9.8447  -16.3526   21.1319 C   0  0  2  0  0  0  0  0  0  0  0  0
    9.5411  -15.3233   20.2124 N   0  0  0  0  0  0  0  0  0  0  0  0
   10.3828  -15.9539   22.4342 C   0  0  0  0  0  0  0  0  0  0  0  0
   11.4209  -15.2351   22.5661 O   0  0  0  0  0  0  0  0  0  0  0  0
    9.7824  -16.3414   23.6818 N   0  0  0  0  0  0  0  0  0  0  0  0
   10.3272  -15.9619   24.9721 C   0  0  1  0  0  0  0  0  0  0  0  0
    9.1605  -15.5990   25.8526 C   0  0  0  0  0  0  0  0  0  0  0  0
    9.5469  -15.1097   27.1916 C   0  0  0  0  0  0  0  0  0  0  0  0
    9.5816  -13.7755   27.5343 C   0  0  0  0  0  0  0  0  0  0  0  0
    9.9526  -13.3551   28.8146 C   0  0  0  0  0  0  0  0  0  0  0  0
   10.2931  -14.2779   29.7639 C   0  0  0  0  0  0  0  0  0  0  0  0
   10.2660  -15.6116   29.4458 C   0  0  0  0  0  0  0  0  0  0  0  0
    9.9005  -16.0224   28.1854 C   0  0  0  0  0  0  0  0  0  0  0  0
   11.2051  -16.9822   25.5407 C   0  0  0  0  0  0  0  0  0  0  0  0
   10.9158  -18.2079   25.4943 O   0  0  0  0  0  0  0  0  0  0  0  0
   12.3992  -16.6458   26.1578 O   0  0  0  0  0  0  0  0  0  0  0  0
  2  1  1  1
  3  2  1  0
  4  5  2  0
  4  2  1  0
  6  7  1  0
  7  9  1  0
  8  7  2  0
  9 10  1  0
 11 10  1  6
 11 12  1  0
 12  4  1  0
 13 11  1  0
 14 13  2  0
 15 13  1  0
 16 24  1  0
 16 15  1  0
 17 18  1  0
 16 17  1  1
 18 19  2  0
 19 20  1  0
 21 20  2  0
 22 21  1  0
 23 18  1  0
 23 22  2  0
 24 26  1  0
 25 24  2  0
M  END
$$$$
