AQF.pdb
     RDKit          3D

 26 26  0  0  1  0  0  0  0  0999 V2000
    8.0842  -12.0988   19.9902 C   0  0  0  0  0  0  0  0  0  0  0  0
    8.3012  -13.4616   19.3682 C   0  0  2  0  0  0  0  0  0  0  0  0
    7.3555  -13.6352   18.2876 N   0  0  0  0  0  0  0  0  0  0  0  0
    8.1066  -14.4713   20.4502 C   0  0  0  0  0  0  0  0  0  0  0  0
    6.9498  -14.6498   20.8284 O   0  0  0  0  0  0  0  0  0  0  0  0
    9.2576  -20.1734   21.0957 N   0  0  0  0  0  0  0  0  0  0  0  0
    9.1259  -19.3812   19.9253 C   0  0  0  0  0  0  0  0  0  0  0  0
    8.8947  -19.9069   18.8288 O   0  0  0  0  0  0  0  0  0  0  0  0
    9.2822  -17.8941   20.1015 C   0  0  0  0  0  0  0  0  0  0  0  0
    9.5337  -17.6060   21.5603 C   0  0  0  0  0  0  0  0  0  0  0  0
    9.0674  -16.2312   21.9738 C   0  0  2  0  0  0  0  0  0  0  0  0
    9.1745  -15.1922   21.0219 N   0  0  0  0  0  0  0  0  0  0  0  0
    9.2987  -15.8837   23.3775 C   0  0  0  0  0  0  0  0  0  0  0  0
   10.3816  -15.3705   23.7965 O   0  0  0  0  0  0  0  0  0  0  0  0
    8.3185  -16.0932   24.4081 N   0  0  0  0  0  0  0  0  0  0  0  0
    8.6120  -15.9380   25.8207 C   0  0  1  0  0  0  0  0  0  0  0  0
    7.3223  -15.5571   26.4987 C   0  0  0  0  0  0  0  0  0  0  0  0
    7.0060  -14.1163   26.4236 C   0  0  0  0  0  0  0  0  0  0  0  0
    7.9332  -13.1205   26.6415 C   0  0  0  0  0  0  0  0  0  0  0  0
    7.5916  -11.7678   26.5597 C   0  0  0  0  0  0  0  0  0  0  0  0
    6.3089  -11.4049   26.2567 C   0  0  0  0  0  0  0  0  0  0  0  0
    5.3688  -12.3786   26.0358 C   0  0  0  0  0  0  0  0  0  0  0  0
    5.7078  -13.7088   26.1170 C   0  0  0  0  0  0  0  0  0  0  0  0
    9.2619  -17.1123   26.3985 C   0  0  0  0  0  0  0  0  0  0  0  0
    9.2310  -18.2359   25.8287 O   0  0  0  0  0  0  0  0  0  0  0  0
    9.9438  -17.0417   27.6026 O   0  0  0  0  0  0  0  0  0  0  0  0
  2  1  1  1
  3  2  1  0
  4  5  2  0
  4  2  1  0
  6  7  1  0
  7  9  1  0
  8  7  2  0
  9 10  1  0
 11 10  1  6
 11 12  1  0
 12  4  1  0
 13 11  1  0
 14 13  2  0
 15 13  1  0
 16 24  1  0
 16 15  1  0
 17 18  1  0
 16 17  1  1
 18 19  2  0
 19 20  1  0
 21 20  2  0
 22 21  1  0
 23 18  1  0
 23 22  2  0
 24 26  1  0
 25 24  2  0
M  END
$$$$
