AQF.pdb
     RDKit          3D

 26 26  0  0  1  0  0  0  0  0999 V2000
    8.4291  -12.2903   19.9015 C   0  0  0  0  0  0  0  0  0  0  0  0
    8.3326  -13.6089   19.1645 C   0  0  2  0  0  0  0  0  0  0  0  0
    7.1600  -13.5835   18.3180 N   0  0  0  0  0  0  0  0  0  0  0  0
    8.2533  -14.6822   20.1988 C   0  0  0  0  0  0  0  0  0  0  0  0
    7.1252  -14.9905   20.5801 O   0  0  0  0  0  0  0  0  0  0  0  0
   11.4868  -20.3086   19.9760 N   0  0  0  0  0  0  0  0  0  0  0  0
   10.7258  -19.1770   19.5822 C   0  0  0  0  0  0  0  0  0  0  0  0
    9.9914  -19.2243   18.5870 O   0  0  0  0  0  0  0  0  0  0  0  0
   10.8675  -17.9442   20.4349 C   0  0  0  0  0  0  0  0  0  0  0  0
    9.5989  -17.7600   21.2294 C   0  0  0  0  0  0  0  0  0  0  0  0
    9.4067  -16.3399   21.7034 C   0  0  2  0  0  0  0  0  0  0  0  0
    9.3948  -15.3212   20.7240 N   0  0  0  0  0  0  0  0  0  0  0  0
   10.0118  -16.0210   22.9982 C   0  0  0  0  0  0  0  0  0  0  0  0
   11.2380  -15.7229   23.1371 O   0  0  0  0  0  0  0  0  0  0  0  0
    9.2701  -16.0169   24.2298 N   0  0  0  0  0  0  0  0  0  0  0  0
    9.8733  -15.7129   25.5142 C   0  0  1  0  0  0  0  0  0  0  0  0
    9.8550  -14.2146   25.6650 C   0  0  0  0  0  0  0  0  0  0  0  0
    8.5026  -13.6426   25.8250 C   0  0  0  0  0  0  0  0  0  0  0  0
    7.4744  -13.8571   24.9331 C   0  0  0  0  0  0  0  0  0  0  0  0
    6.2081  -13.2970   25.1230 C   0  0  0  0  0  0  0  0  0  0  0  0
    5.9656  -12.5132   26.2165 C   0  0  0  0  0  0  0  0  0  0  0  0
    6.9737  -12.2857   27.1179 C   0  0  0  0  0  0  0  0  0  0  0  0
    8.2187  -12.8382   26.9286 C   0  0  0  0  0  0  0  0  0  0  0  0
    9.2436  -16.4286   26.6215 C   0  0  0  0  0  0  0  0  0  0  0  0
    8.2148  -17.1372   26.4546 O   0  0  0  0  0  0  0  0  0  0  0  0
    9.7519  -16.3600   27.9086 O   0  0  0  0  0  0  0  0  0  0  0  0
  2  1  1  1
  3  2  1  0
  4  5  2  0
  4  2  1  0
  6  7  1  0
  7  9  1  0
  8  7  2  0
  9 10  1  0
 11 10  1  6
 11 12  1  0
 12  4  1  0
 13 11  1  0
 14 13  2  0
 15 13  1  0
 16 24  1  0
 16 15  1  0
 17 18  1  0
 16 17  1  1
 18 19  2  0
 19 20  1  0
 21 20  2  0
 22 21  1  0
 23 18  1  0
 23 22  2  0
 24 26  1  0
 25 24  2  0
M  END
$$$$
