AQF.pdb
     RDKit          3D

 26 26  0  0  1  0  0  0  0  0999 V2000
    7.8127  -12.1513   19.6946 C   0  0  0  0  0  0  0  0  0  0  0  0
    8.2245  -13.4934   19.1286 C   0  0  2  0  0  0  0  0  0  0  0  0
    7.4565  -13.7476   17.9295 N   0  0  0  0  0  0  0  0  0  0  0  0
    7.9629  -14.5124   20.1876 C   0  0  0  0  0  0  0  0  0  0  0  0
    6.7983  -14.6160   20.5696 O   0  0  0  0  0  0  0  0  0  0  0  0
    8.4553  -20.8172   20.9643 N   0  0  0  0  0  0  0  0  0  0  0  0
    8.8626  -19.7906   20.0727 C   0  0  0  0  0  0  0  0  0  0  0  0
    9.6118  -20.0413   19.1199 O   0  0  0  0  0  0  0  0  0  0  0  0
    8.3356  -18.4089   20.3557 C   0  0  0  0  0  0  0  0  0  0  0  0
    9.2613  -17.7318   21.3349 C   0  0  0  0  0  0  0  0  0  0  0  0
    8.8085  -16.3392   21.7009 C   0  0  2  0  0  0  0  0  0  0  0  0
    8.9788  -15.3226   20.7342 N   0  0  0  0  0  0  0  0  0  0  0  0
    8.9876  -15.9678   23.1061 C   0  0  0  0  0  0  0  0  0  0  0  0
   10.0070  -15.3447   23.5352 O   0  0  0  0  0  0  0  0  0  0  0  0
    8.0234  -16.2763   24.1269 N   0  0  0  0  0  0  0  0  0  0  0  0
    8.2533  -16.0147   25.5356 C   0  0  1  0  0  0  0  0  0  0  0  0
    6.9749  -15.4449   26.0916 C   0  0  0  0  0  0  0  0  0  0  0  0
    6.9891  -13.9763   26.2484 C   0  0  0  0  0  0  0  0  0  0  0  0
    8.1363  -13.2151   26.1902 C   0  0  0  0  0  0  0  0  0  0  0  0
    8.1050  -11.8262   26.3432 C   0  0  0  0  0  0  0  0  0  0  0  0
    6.9142  -11.1898   26.5569 C   0  0  0  0  0  0  0  0  0  0  0  0
    5.7593  -11.9267   26.6188 C   0  0  0  0  0  0  0  0  0  0  0  0
    5.7930  -13.2931   26.4679 C   0  0  0  0  0  0  0  0  0  0  0  0
    8.7448  -17.1857   26.2582 C   0  0  0  0  0  0  0  0  0  0  0  0
    8.5260  -18.3579   25.8502 O   0  0  0  0  0  0  0  0  0  0  0  0
    9.4762  -17.0586   27.4282 O   0  0  0  0  0  0  0  0  0  0  0  0
  2  1  1  1
  3  2  1  0
  4  5  2  0
  4  2  1  0
  6  7  1  0
  7  9  1  0
  8  7  2  0
  9 10  1  0
 11 10  1  6
 11 12  1  0
 12  4  1  0
 13 11  1  0
 14 13  2  0
 15 13  1  0
 16 24  1  0
 16 15  1  0
 17 18  1  0
 16 17  1  1
 18 19  2  0
 19 20  1  0
 21 20  2  0
 22 21  1  0
 23 18  1  0
 23 22  2  0
 24 26  1  0
 25 24  2  0
M  END
$$$$
