AQF.pdb
     RDKit          3D

 26 26  0  0  1  0  0  0  0  0999 V2000
    8.2531  -12.0548   20.1738 C   0  0  0  0  0  0  0  0  0  0  0  0
    8.0401  -13.4383   19.5979 C   0  0  2  0  0  0  0  0  0  0  0  0
    6.7250  -13.4947   18.9980 N   0  0  0  0  0  0  0  0  0  0  0  0
    8.1834  -14.4069   20.7246 C   0  0  0  0  0  0  0  0  0  0  0  0
    7.1824  -14.5935   21.4146 O   0  0  0  0  0  0  0  0  0  0  0  0
   11.8582  -19.3474   20.6202 N   0  0  0  0  0  0  0  0  0  0  0  0
   11.1840  -19.6130   21.8407 C   0  0  0  0  0  0  0  0  0  0  0  0
   11.3044  -20.7086   22.4039 O   0  0  0  0  0  0  0  0  0  0  0  0
   10.3327  -18.5003   22.3922 C   0  0  0  0  0  0  0  0  0  0  0  0
   10.3535  -17.3499   21.4173 C   0  0  0  0  0  0  0  0  0  0  0  0
    9.5571  -16.1612   21.8982 C   0  0  2  0  0  0  0  0  0  0  0  0
    9.3895  -15.0821   21.0012 N   0  0  0  0  0  0  0  0  0  0  0  0
    9.7040  -15.8381   23.3189 C   0  0  0  0  0  0  0  0  0  0  0  0
   10.6734  -15.1606   23.7804 O   0  0  0  0  0  0  0  0  0  0  0  0
    8.7620  -16.2601   24.3197 N   0  0  0  0  0  0  0  0  0  0  0  0
    8.9273  -15.9707   25.7320 C   0  0  1  0  0  0  0  0  0  0  0  0
    7.5632  -15.6347   26.2747 C   0  0  0  0  0  0  0  0  0  0  0  0
    7.2618  -14.1888   26.2912 C   0  0  0  0  0  0  0  0  0  0  0  0
    8.1723  -13.2251   26.6666 C   0  0  0  0  0  0  0  0  0  0  0  0
    7.8458  -11.8662   26.6671 C   0  0  0  0  0  0  0  0  0  0  0  0
    6.5952  -11.4646   26.2882 C   0  0  0  0  0  0  0  0  0  0  0  0
    5.6722  -12.4060   25.9105 C   0  0  0  0  0  0  0  0  0  0  0  0
    5.9962  -13.7424   25.9110 C   0  0  0  0  0  0  0  0  0  0  0  0
    9.6065  -17.0426   26.4562 C   0  0  0  0  0  0  0  0  0  0  0  0
    9.7241  -18.2003   25.9721 O   0  0  0  0  0  0  0  0  0  0  0  0
   10.1538  -16.8328   27.7117 O   0  0  0  0  0  0  0  0  0  0  0  0
  2  1  1  1
  3  2  1  0
  4  5  2  0
  4  2  1  0
  6  7  1  0
  7  9  1  0
  8  7  2  0
  9 10  1  0
 11 10  1  6
 11 12  1  0
 12  4  1  0
 13 11  1  0
 14 13  2  0
 15 13  1  0
 16 24  1  0
 16 15  1  0
 17 18  1  0
 16 17  1  1
 18 19  2  0
 19 20  1  0
 21 20  2  0
 22 21  1  0
 23 18  1  0
 23 22  2  0
 24 26  1  0
 25 24  2  0
M  END
$$$$
