AQF.pdb
     RDKit          3D

 26 26  0  0  1  0  0  0  0  0999 V2000
    5.3740  -18.7376   23.1703 C   0  0  0  0  0  0  0  0  0  0  0  0
    5.7852  -18.4714   21.7381 C   0  0  2  0  0  0  0  0  0  0  0  0
    5.9754  -19.7381   21.0661 N   0  0  0  0  0  0  0  0  0  0  0  0
    7.0431  -17.6693   21.7870 C   0  0  0  0  0  0  0  0  0  0  0  0
    8.0890  -18.3021   21.9236 O   0  0  0  0  0  0  0  0  0  0  0  0
    8.3330  -12.0796   19.3473 N   0  0  0  0  0  0  0  0  0  0  0  0
    8.0265  -13.2646   18.6285 C   0  0  0  0  0  0  0  0  0  0  0  0
    7.7952  -13.2247   17.4132 O   0  0  0  0  0  0  0  0  0  0  0  0
    8.0018  -14.5432   19.4232 C   0  0  0  0  0  0  0  0  0  0  0  0
    8.2308  -14.2112   20.8764 C   0  0  0  0  0  0  0  0  0  0  0  0
    8.1933  -15.4290   21.7674 C   0  0  2  0  0  0  0  0  0  0  0  0
    7.0557  -16.2634   21.6844 N   0  0  0  0  0  0  0  0  0  0  0  0
    8.8121  -15.2647   23.0845 C   0  0  0  0  0  0  0  0  0  0  0  0
    9.9180  -14.6673   23.2625 O   0  0  0  0  0  0  0  0  0  0  0  0
    8.2214  -15.7661   24.2956 N   0  0  0  0  0  0  0  0  0  0  0  0
    8.8400  -15.6114   25.5991 C   0  0  1  0  0  0  0  0  0  0  0  0
    7.7540  -15.1913   26.5542 C   0  0  0  0  0  0  0  0  0  0  0  0
    7.3491  -13.7772   26.4204 C   0  0  0  0  0  0  0  0  0  0  0  0
    8.2256  -12.7199   26.5327 C   0  0  0  0  0  0  0  0  0  0  0  0
    7.8004  -11.3954   26.3982 C   0  0  0  0  0  0  0  0  0  0  0  0
    6.4841  -11.1233   26.1486 C   0  0  0  0  0  0  0  0  0  0  0  0
    5.5933  -12.1594   26.0328 C   0  0  0  0  0  0  0  0  0  0  0  0
    6.0146  -13.4617   26.1655 C   0  0  0  0  0  0  0  0  0  0  0  0
    9.5765  -16.7998   26.0233 C   0  0  0  0  0  0  0  0  0  0  0  0
    9.5286  -17.8781   25.3728 O   0  0  0  0  0  0  0  0  0  0  0  0
   10.3635  -16.7936   27.1637 O   0  0  0  0  0  0  0  0  0  0  0  0
  2  1  1  1
  3  2  1  0
  4  5  2  0
  4  2  1  0
  6  7  1  0
  7  9  1  0
  8  7  2  0
  9 10  1  0
 11 10  1  1
 11 12  1  0
 12  4  1  0
 13 11  1  0
 14 13  2  0
 15 13  1  0
 16 24  1  0
 16 15  1  0
 17 18  1  0
 16 17  1  1
 18 19  2  0
 19 20  1  0
 21 20  2  0
 22 21  1  0
 23 18  1  0
 23 22  2  0
 24 26  1  0
 25 24  2  0
M  END
$$$$
