AQF.pdb
     RDKit          3D

 26 26  0  0  1  0  0  0  0  0999 V2000
    6.9410  -12.6786   19.6105 C   0  0  0  0  0  0  0  0  0  0  0  0
    8.3441  -13.2104   19.8098 C   0  0  2  0  0  0  0  0  0  0  0  0
    8.7471  -13.9182   18.6144 N   0  0  0  0  0  0  0  0  0  0  0  0
    8.3062  -14.1051   21.0041 C   0  0  0  0  0  0  0  0  0  0  0  0
    7.8527  -13.6164   22.0379 O   0  0  0  0  0  0  0  0  0  0  0  0
    8.4071  -19.3330   18.3475 N   0  0  0  0  0  0  0  0  0  0  0  0
    8.2613  -19.4154   19.7570 C   0  0  0  0  0  0  0  0  0  0  0  0
    8.5525  -20.4547   20.3628 O   0  0  0  0  0  0  0  0  0  0  0  0
    7.7413  -18.1842   20.4502 C   0  0  0  0  0  0  0  0  0  0  0  0
    8.6590  -17.8560   21.6011 C   0  0  0  0  0  0  0  0  0  0  0  0
    8.6034  -16.4004   21.9967 C   0  0  2  0  0  0  0  0  0  0  0  0
    8.7595  -15.4395   20.9723 N   0  0  0  0  0  0  0  0  0  0  0  0
    9.1704  -16.0825   23.3090 C   0  0  0  0  0  0  0  0  0  0  0  0
   10.3661  -15.6884   23.4718 O   0  0  0  0  0  0  0  0  0  0  0  0
    8.4223  -16.1886   24.5321 N   0  0  0  0  0  0  0  0  0  0  0  0
    9.0165  -15.9910   25.8411 C   0  0  1  0  0  0  0  0  0  0  0  0
    7.9345  -15.4501   26.7382 C   0  0  0  0  0  0  0  0  0  0  0  0
    7.5545  -14.0528   26.4472 C   0  0  0  0  0  0  0  0  0  0  0  0
    8.4384  -12.9968   26.4971 C   0  0  0  0  0  0  0  0  0  0  0  0
    8.0370  -11.6885   26.2133 C   0  0  0  0  0  0  0  0  0  0  0  0
    6.7375  -11.4315   25.8755 C   0  0  0  0  0  0  0  0  0  0  0  0
    5.8397  -12.4667   25.8194 C   0  0  0  0  0  0  0  0  0  0  0  0
    6.2375  -13.7529   26.0992 C   0  0  0  0  0  0  0  0  0  0  0  0
    9.6690  -17.1926   26.3563 C   0  0  0  0  0  0  0  0  0  0  0  0
    9.5186  -18.3170   25.8075 O   0  0  0  0  0  0  0  0  0  0  0  0
   10.4854  -17.1485   27.4750 O   0  0  0  0  0  0  0  0  0  0  0  0
  2  1  1  6
  3  2  1  0
  4  5  2  0
  4  2  1  0
  6  7  1  0
  7  9  1  0
  8  7  2  0
  9 10  1  0
 11 10  1  6
 11 12  1  0
 12  4  1  0
 13 11  1  0
 14 13  2  0
 15 13  1  0
 16 24  1  0
 16 15  1  0
 17 18  1  0
 16 17  1  1
 18 19  2  0
 19 20  1  0
 21 20  2  0
 22 21  1  0
 23 18  1  0
 23 22  2  0
 24 26  1  0
 25 24  2  0
M  END
$$$$
