AQF.pdb
     RDKit          3D

 26 26  0  0  1  0  0  0  0  0999 V2000
    8.2840  -12.1569   19.8358 C   0  0  0  0  0  0  0  0  0  0  0  0
    8.2733  -13.5493   19.2425 C   0  0  2  0  0  0  0  0  0  0  0  0
    7.3077  -13.5887   18.1662 N   0  0  0  0  0  0  0  0  0  0  0  0
    7.9208  -14.4911   20.3456 C   0  0  0  0  0  0  0  0  0  0  0  0
    6.7456  -14.4907   20.7089 O   0  0  0  0  0  0  0  0  0  0  0  0
    6.0188  -19.1785   23.4665 N   0  0  0  0  0  0  0  0  0  0  0  0
    6.9339  -19.2188   22.3822 C   0  0  0  0  0  0  0  0  0  0  0  0
    6.5861  -19.6553   21.2775 O   0  0  0  0  0  0  0  0  0  0  0  0
    8.3230  -18.7075   22.6581 C   0  0  0  0  0  0  0  0  0  0  0  0
    8.7182  -17.7654   21.5488 C   0  0  0  0  0  0  0  0  0  0  0  0
    8.6011  -16.3136   21.9449 C   0  0  2  0  0  0  0  0  0  0  0  0
    8.8658  -15.3431   20.9524 N   0  0  0  0  0  0  0  0  0  0  0  0
    9.0069  -16.0006   23.3167 C   0  0  0  0  0  0  0  0  0  0  0  0
   10.1896  -15.6634   23.6312 O   0  0  0  0  0  0  0  0  0  0  0  0
    8.1005  -16.0474   24.4318 N   0  0  0  0  0  0  0  0  0  0  0  0
    8.5250  -15.8414   25.8040 C   0  0  1  0  0  0  0  0  0  0  0  0
    7.3168  -15.3755   26.5730 C   0  0  0  0  0  0  0  0  0  0  0  0
    7.0698  -13.9220   26.4823 C   0  0  0  0  0  0  0  0  0  0  0  0
    5.8360  -13.3749   26.2048 C   0  0  0  0  0  0  0  0  0  0  0  0
    5.6455  -11.9924   26.1289 C   0  0  0  0  0  0  0  0  0  0  0  0
    6.6996  -11.1461   26.3324 C   0  0  0  0  0  0  0  0  0  0  0  0
    7.9371  -11.6678   26.6100 C   0  0  0  0  0  0  0  0  0  0  0  0
    8.1216  -13.0284   26.6841 C   0  0  0  0  0  0  0  0  0  0  0  0
    9.1782  -17.0150   26.3791 C   0  0  0  0  0  0  0  0  0  0  0  0
    9.0622  -18.1590   25.8633 O   0  0  0  0  0  0  0  0  0  0  0  0
    9.9573  -16.9216   27.5211 O   0  0  0  0  0  0  0  0  0  0  0  0
  2  1  1  1
  3  2  1  0
  4  5  2  0
  4  2  1  0
  6  7  1  0
  7  9  1  0
  8  7  2  0
  9 10  1  0
 11 10  1  6
 11 12  1  0
 12  4  1  0
 13 11  1  0
 14 13  2  0
 15 13  1  0
 16 24  1  0
 16 15  1  0
 17 18  1  0
 16 17  1  1
 18 19  2  0
 19 20  1  0
 21 20  2  0
 22 21  1  0
 23 18  1  0
 23 22  2  0
 24 26  1  0
 25 24  2  0
M  END
$$$$
