AQF.pdb
     RDKit          3D

 26 26  0  0  1  0  0  0  0  0999 V2000
    9.1459  -19.2602   19.0957 C   0  0  0  0  0  0  0  0  0  0  0  0
    9.1000  -19.1289   20.6030 C   0  0  2  0  0  0  0  0  0  0  0  0
    7.7442  -19.3639   21.0490 N   0  0  0  0  0  0  0  0  0  0  0  0
    9.5678  -17.7509   20.9355 C   0  0  0  0  0  0  0  0  0  0  0  0
   10.7346  -17.4868   20.6493 O   0  0  0  0  0  0  0  0  0  0  0  0
    8.3212  -11.9322   19.4484 N   0  0  0  0  0  0  0  0  0  0  0  0
    7.9085  -13.2505   19.1219 C   0  0  0  0  0  0  0  0  0  0  0  0
    6.9528  -13.4430   18.3592 O   0  0  0  0  0  0  0  0  0  0  0  0
    8.6915  -14.3729   19.7497 C   0  0  0  0  0  0  0  0  0  0  0  0
    8.4949  -14.3198   21.2441 C   0  0  0  0  0  0  0  0  0  0  0  0
    9.1199  -15.4936   21.9582 C   0  0  2  0  0  0  0  0  0  0  0  0
    8.7361  -16.7890   21.5439 N   0  0  0  0  0  0  0  0  0  0  0  0
    9.3841  -15.2946   23.3847 C   0  0  0  0  0  0  0  0  0  0  0  0
   10.1392  -14.3761   23.8296 O   0  0  0  0  0  0  0  0  0  0  0  0
    8.8111  -16.1230   24.4106 N   0  0  0  0  0  0  0  0  0  0  0  0
    9.0433  -15.9018   25.8259 C   0  0  1  0  0  0  0  0  0  0  0  0
    7.6977  -15.6706   26.4615 C   0  0  0  0  0  0  0  0  0  0  0  0
    7.2370  -14.2686   26.4012 C   0  0  0  0  0  0  0  0  0  0  0  0
    8.0179  -13.1937   26.7667 C   0  0  0  0  0  0  0  0  0  0  0  0
    7.5426  -11.8814   26.6934 C   0  0  0  0  0  0  0  0  0  0  0  0
    6.2723  -11.6395   26.2500 C   0  0  0  0  0  0  0  0  0  0  0  0
    5.4766  -12.6936   25.8808 C   0  0  0  0  0  0  0  0  0  0  0  0
    5.9469  -13.9837   25.9539 C   0  0  0  0  0  0  0  0  0  0  0  0
    9.8178  -16.9728   26.4489 C   0  0  0  0  0  0  0  0  0  0  0  0
   10.1033  -16.9582   27.6763 O   0  0  0  0  0  0  0  0  0  0  0  0
   10.2740  -18.0559   25.7150 O   0  0  0  0  0  0  0  0  0  0  0  0
  2  1  1  6
  3  2  1  0
  4  5  2  0
  4  2  1  0
  6  7  1  0
  7  9  1  0
  8  7  2  0
  9 10  1  0
 11 10  1  1
 11 12  1  0
 12  4  1  0
 13 11  1  0
 14 13  2  0
 15 13  1  0
 16 24  1  0
 16 15  1  0
 17 18  1  0
 16 17  1  1
 18 19  2  0
 19 20  1  0
 21 20  2  0
 22 21  1  0
 23 18  1  0
 23 22  2  0
 24 26  1  0
 25 24  2  0
M  END
$$$$
