VCV.pdb
     RDKit          3D

 21 20  0  0  1  0  0  0  0  0999 V2000
   13.6198   -9.6038  -14.6954 C   0  0  0  0  0  0  0  0  0  0  0  0
   14.8076   -9.3810  -15.5770 C   0  0  2  0  0  0  0  0  0  0  0  0
   14.4407   -9.6866  -16.9910 C   0  0  0  0  0  0  0  0  0  0  0  0
   16.0340  -10.1293  -15.1133 C   0  0  2  0  0  0  0  0  0  0  0  0
   15.7545  -11.5310  -15.1896 N   0  0  0  0  0  0  0  0  0  0  0  0
   16.4892   -9.6936  -13.7800 C   0  0  0  0  0  0  0  0  0  0  0  0
   16.1387  -10.4377  -12.8022 O   0  0  0  0  0  0  0  0  0  0  0  0
   17.2669   -8.5297  -13.5607 N   0  0  0  0  0  0  0  0  0  0  0  0
   17.6736   -8.2374  -12.1856 C   0  0  1  0  0  0  0  0  0  0  0  0
   19.0437   -7.5606  -12.3482 C   0  0  0  0  0  0  0  0  0  0  0  0
   20.3307   -8.8160  -12.3516 S   0  0  0  0  0  0  0  0  0  0  0  0
   16.7651   -7.2720  -11.5569 C   0  0  0  0  0  0  0  0  0  0  0  0
   16.3770   -6.2844  -12.2719 O   0  0  0  0  0  0  0  0  0  0  0  0
   14.8025   -7.9550   -7.8697 C   0  0  0  0  0  0  0  0  0  0  0  0
   14.2379   -7.0243   -8.8912 C   0  0  1  0  0  0  0  0  0  0  0  0
   13.3149   -6.0528   -8.2295 C   0  0  0  0  0  0  0  0  0  0  0  0
   15.3046   -6.3446   -9.7213 C   0  0  2  0  0  0  0  0  0  0  0  0
   16.2596   -7.2979  -10.2496 N   0  0  0  0  0  0  0  0  0  0  0  0
   16.0374   -5.3777   -8.8876 C   0  0  0  0  0  0  0  0  0  0  0  0
   17.2555   -5.7042   -8.3273 O   0  0  0  0  0  0  0  0  0  0  0  0
   15.5632   -4.2460   -8.6768 O   0  0  0  0  0  0  0  0  0  0  0  0
  2  3  1  6
  2  1  1  0
  4  6  1  0
  4  2  1  0
  4  5  1  1
  6  8  1  0
  7  6  2  0
  8  9  1  0
  9 12  1  0
 10 11  1  0
  9 10  1  6
 12 18  1  0
 12 13  2  0
 15 14  1  1
 16 15  1  0
 17 15  1  0
 17 19  1  0
 17 18  1  1
 19 20  1  0
 21 19  2  0
M  END
$$$$
