VCV.pdb
     RDKit          3D

 21 20  0  0  1  0  0  0  0  0999 V2000
   15.7375  -15.4479  -16.1634 C   0  0  0  0  0  0  0  0  0  0  0  0
   16.9890  -14.6395  -16.2977 C   0  0  2  0  0  0  0  0  0  0  0  0
   17.0765  -13.6687  -15.1675 C   0  0  0  0  0  0  0  0  0  0  0  0
   17.1226  -13.9810  -17.6495 C   0  0  2  0  0  0  0  0  0  0  0  0
   17.0262  -14.9991  -18.6511 N   0  0  0  0  0  0  0  0  0  0  0  0
   18.3451  -13.1637  -17.7598 C   0  0  0  0  0  0  0  0  0  0  0  0
   19.2507  -13.6198  -18.5373 O   0  0  0  0  0  0  0  0  0  0  0  0
   18.5369  -11.9453  -17.0624 N   0  0  0  0  0  0  0  0  0  0  0  0
   19.7066  -11.1403  -17.4166 C   0  0  1  0  0  0  0  0  0  0  0  0
   19.4162  -10.6922  -18.8575 C   0  0  0  0  0  0  0  0  0  0  0  0
   20.6821   -9.5297  -19.3857 S   0  0  0  0  0  0  0  0  0  0  0  0
   19.7976   -9.9386  -16.5799 C   0  0  0  0  0  0  0  0  0  0  0  0
   18.7228   -9.2667  -16.4045 O   0  0  0  0  0  0  0  0  0  0  0  0
   20.9037   -9.7346  -12.9031 C   0  0  0  0  0  0  0  0  0  0  0  0
   21.6304   -8.7032  -13.7011 C   0  0  1  0  0  0  0  0  0  0  0  0
   23.0376   -9.1487  -13.9346 C   0  0  0  0  0  0  0  0  0  0  0  0
   20.9130   -8.3372  -14.9818 C   0  0  2  0  0  0  0  0  0  0  0  0
   20.9332   -9.4271  -15.9366 N   0  0  0  0  0  0  0  0  0  0  0  0
   21.5707   -7.1749  -15.6011 C   0  0  0  0  0  0  0  0  0  0  0  0
   21.4379   -5.9127  -15.0592 O   0  0  0  0  0  0  0  0  0  0  0  0
   22.2593   -7.3183  -16.6283 O   0  0  0  0  0  0  0  0  0  0  0  0
  2  3  1  1
  2  1  1  0
  4  6  1  0
  4  2  1  0
  4  5  1  6
  6  8  1  0
  7  6  2  0
  8  9  1  0
  9 12  1  0
 10 11  1  0
  9 10  1  6
 12 18  1  0
 12 13  2  0
 15 14  1  6
 16 15  1  0
 17 15  1  0
 17 19  1  0
 17 18  1  6
 19 20  1  0
 21 19  2  0
M  END
$$$$
