VCV.pdb
     RDKit          3D

 21 20  0  0  1  0  0  0  0  0999 V2000
   38.1914  -29.1244    3.0180 C   0  0  0  0  0  0  0  0  0  0  0  0
   37.0749  -28.3559    3.6508 C   0  0  2  0  0  0  0  0  0  0  0  0
   37.4522  -26.9147    3.7400 C   0  0  0  0  0  0  0  0  0  0  0  0
   36.6402  -28.9326    4.9765 C   0  0  2  0  0  0  0  0  0  0  0  0
   36.3039  -30.3090    4.7734 N   0  0  0  0  0  0  0  0  0  0  0  0
   35.5583  -28.1509    5.6035 C   0  0  0  0  0  0  0  0  0  0  0  0
   34.3877  -28.3405    5.1279 O   0  0  0  0  0  0  0  0  0  0  0  0
   35.7679  -27.2387    6.6673 N   0  0  0  0  0  0  0  0  0  0  0  0
   34.5858  -26.6301    7.2789 C   0  0  1  0  0  0  0  0  0  0  0  0
   34.7060  -27.0139    8.7621 C   0  0  0  0  0  0  0  0  0  0  0  0
   33.8639  -28.5775    9.0423 S   0  0  0  0  0  0  0  0  0  0  0  0
   34.6336  -25.1667    7.1861 C   0  0  0  0  0  0  0  0  0  0  0  0
   35.7666  -24.6059    7.3839 O   0  0  0  0  0  0  0  0  0  0  0  0
   32.6181  -20.7260    6.0905 C   0  0  0  0  0  0  0  0  0  0  0  0
   32.6334  -22.2161    6.0011 C   0  0  1  0  0  0  0  0  0  0  0  0
   32.7491  -22.6320    4.5704 C   0  0  0  0  0  0  0  0  0  0  0  0
   33.6902  -22.8473    6.8806 C   0  0  2  0  0  0  0  0  0  0  0  0
   33.5760  -24.2918    6.9014 N   0  0  0  0  0  0  0  0  0  0  0  0
   33.5412  -22.3572    8.2606 C   0  0  0  0  0  0  0  0  0  0  0  0
   34.2747  -21.2797    8.7137 O   0  0  0  0  0  0  0  0  0  0  0  0
   32.7460  -22.9133    9.0406 O   0  0  0  0  0  0  0  0  0  0  0  0
  2  3  1  1
  2  1  1  0
  4  6  1  0
  4  2  1  0
  4  5  1  6
  6  8  1  0
  7  6  2  0
  8  9  1  0
  9 12  1  0
 10 11  1  0
  9 10  1  1
 12 18  1  0
 12 13  2  0
 15 14  1  6
 16 15  1  0
 17 15  1  0
 17 19  1  0
 17 18  1  1
 19 20  1  0
 21 19  2  0
M  END
$$$$
