VCV.pdb
     RDKit          3D

 21 20  0  0  1  0  0  0  0  0999 V2000
   16.4411  -17.4434  -17.4543 C   0  0  0  0  0  0  0  0  0  0  0  0
   17.2603  -16.3515  -16.8425 C   0  0  2  0  0  0  0  0  0  0  0  0
   17.9886  -16.8838  -15.6537 C   0  0  0  0  0  0  0  0  0  0  0  0
   16.4539  -15.1136  -16.5319 C   0  0  2  0  0  0  0  0  0  0  0  0
   15.4594  -14.9640  -17.5505 N   0  0  0  0  0  0  0  0  0  0  0  0
   17.3003  -13.9186  -16.3585 C   0  0  0  0  0  0  0  0  0  0  0  0
   18.0916  -13.9385  -15.3554 O   0  0  0  0  0  0  0  0  0  0  0  0
   17.2643  -12.8015  -17.2294 N   0  0  0  0  0  0  0  0  0  0  0  0
   18.1917  -11.7024  -16.9580 C   0  0  1  0  0  0  0  0  0  0  0  0
   18.5684  -11.1913  -18.3574 C   0  0  0  0  0  0  0  0  0  0  0  0
   19.4559   -9.6352  -18.2035 S   0  0  0  0  0  0  0  0  0  0  0  0
   17.5246  -10.6089  -16.2426 C   0  0  0  0  0  0  0  0  0  0  0  0
   16.3126  -10.3544  -16.5646 O   0  0  0  0  0  0  0  0  0  0  0  0
   18.0078   -9.6347  -12.3336 C   0  0  0  0  0  0  0  0  0  0  0  0
   16.8849   -9.1386  -13.1830 C   0  0  1  0  0  0  0  0  0  0  0  0
   16.1579   -8.0470  -12.4665 C   0  0  0  0  0  0  0  0  0  0  0  0
   17.3318   -8.7310  -14.5697 C   0  0  2  0  0  0  0  0  0  0  0  0
   18.0573   -9.7959  -15.2326 N   0  0  0  0  0  0  0  0  0  0  0  0
   18.2202   -7.5608  -14.4779 C   0  0  0  0  0  0  0  0  0  0  0  0
   17.7046   -6.2859  -14.3646 O   0  0  0  0  0  0  0  0  0  0  0  0
   19.4562   -7.7091  -14.5017 O   0  0  0  0  0  0  0  0  0  0  0  0
  2  3  1  1
  2  1  1  0
  4  6  1  0
  4  2  1  0
  4  5  1  6
  6  8  1  0
  7  6  2  0
  8  9  1  0
  9 12  1  0
 10 11  1  0
  9 10  1  6
 12 18  1  0
 12 13  2  0
 15 14  1  1
 16 15  1  0
 17 15  1  0
 17 19  1  0
 17 18  1  1
 19 20  1  0
 21 19  2  0
M  END
$$$$
