VCV.pdb
     RDKit          3D

 21 20  0  0  1  0  0  0  0  0999 V2000
   24.3025  -13.9529  -15.3855 C   0  0  0  0  0  0  0  0  0  0  0  0
   23.6112  -12.6917  -15.7966 C   0  0  2  0  0  0  0  0  0  0  0  0
   23.6307  -11.7223  -14.6621 C   0  0  0  0  0  0  0  0  0  0  0  0
   22.2237  -12.9311  -16.3411 C   0  0  2  0  0  0  0  0  0  0  0  0
   22.3182  -13.9055  -17.3853 N   0  0  0  0  0  0  0  0  0  0  0  0
   21.5603  -11.6830  -16.7617 C   0  0  0  0  0  0  0  0  0  0  0  0
   21.9763  -11.1743  -17.8575 O   0  0  0  0  0  0  0  0  0  0  0  0
   20.5244  -11.0603  -16.0223 N   0  0  0  0  0  0  0  0  0  0  0  0
   19.9324   -9.8439  -16.5806 C   0  0  1  0  0  0  0  0  0  0  0  0
   18.4319  -10.1686  -16.6489 C   0  0  0  0  0  0  0  0  0  0  0  0
   18.0974  -11.1264  -18.1333 S   0  0  0  0  0  0  0  0  0  0  0  0
   20.1065   -8.7039  -15.6736 C   0  0  0  0  0  0  0  0  0  0  0  0
   19.9434   -8.9223  -14.4234 O   0  0  0  0  0  0  0  0  0  0  0  0
   22.4367   -5.3176  -16.5125 C   0  0  0  0  0  0  0  0  0  0  0  0
   22.0844   -5.7916  -15.1415 C   0  0  1  0  0  0  0  0  0  0  0  0
   22.3574   -4.7073  -14.1499 C   0  0  0  0  0  0  0  0  0  0  0  0
   20.6723   -6.3265  -15.0487 C   0  0  2  0  0  0  0  0  0  0  0  0
   20.4364   -7.3839  -16.0111 N   0  0  0  0  0  0  0  0  0  0  0  0
   19.7147   -5.2414  -15.3180 C   0  0  0  0  0  0  0  0  0  0  0  0
   19.4374   -4.2864  -14.3613 O   0  0  0  0  0  0  0  0  0  0  0  0
   19.1398   -5.1723  -16.4202 O   0  0  0  0  0  0  0  0  0  0  0  0
  2  3  1  1
  2  1  1  0
  4  6  1  0
  4  2  1  0
  4  5  1  6
  6  8  1  0
  7  6  2  0
  8  9  1  0
  9 12  1  0
 10 11  1  0
  9 10  1  1
 12 18  1  0
 12 13  2  0
 15 14  1  6
 16 15  1  0
 17 15  1  0
 17 19  1  0
 17 18  1  6
 19 20  1  0
 21 19  2  0
M  END
$$$$
