VCV.pdb
     RDKit          3D

 21 20  0  0  1  0  0  0  0  0999 V2000
   24.8119  -14.3637  -16.6551 C   0  0  0  0  0  0  0  0  0  0  0  0
   23.9256  -14.9056  -15.5788 C   0  0  2  0  0  0  0  0  0  0  0  0
   24.6119  -16.0410  -14.8952 C   0  0  0  0  0  0  0  0  0  0  0  0
   22.5470  -15.2664  -16.0770 C   0  0  2  0  0  0  0  0  0  0  0  0
   22.6733  -16.3827  -16.9640 N   0  0  0  0  0  0  0  0  0  0  0  0
   21.8460  -14.1164  -16.6776 C   0  0  0  0  0  0  0  0  0  0  0  0
   22.0766  -13.9102  -17.9173 O   0  0  0  0  0  0  0  0  0  0  0  0
   20.9660  -13.2728  -15.9554 N   0  0  0  0  0  0  0  0  0  0  0  0
   20.3692  -12.1455  -16.6729 C   0  0  1  0  0  0  0  0  0  0  0  0
   18.8579  -12.3912  -16.5426 C   0  0  0  0  0  0  0  0  0  0  0  0
   17.9659  -10.9818  -17.2138 S   0  0  0  0  0  0  0  0  0  0  0  0
   20.6781  -10.8722  -16.0127 C   0  0  0  0  0  0  0  0  0  0  0  0
   20.7661  -10.8829  -14.7362 O   0  0  0  0  0  0  0  0  0  0  0  0
   22.2651   -6.1347  -16.1232 C   0  0  0  0  0  0  0  0  0  0  0  0
   21.9598   -7.4264  -16.8065 C   0  0  1  0  0  0  0  0  0  0  0  0
   23.2050   -7.9732  -17.4260 C   0  0  0  0  0  0  0  0  0  0  0  0
   21.2717   -8.4232  -15.9000 C   0  0  2  0  0  0  0  0  0  0  0  0
   20.8939   -9.6253  -16.6157 N   0  0  0  0  0  0  0  0  0  0  0  0
   20.0502   -7.8211  -15.3412 C   0  0  0  0  0  0  0  0  0  0  0  0
   20.0193   -7.3549  -14.0427 O   0  0  0  0  0  0  0  0  0  0  0  0
   19.0234   -7.7248  -16.0387 O   0  0  0  0  0  0  0  0  0  0  0  0
  2  3  1  6
  2  1  1  0
  4  6  1  0
  4  2  1  0
  4  5  1  6
  6  8  1  0
  7  6  2  0
  8  9  1  0
  9 12  1  0
 10 11  1  0
  9 10  1  1
 12 18  1  0
 12 13  2  0
 15 14  1  1
 16 15  1  0
 17 15  1  0
 17 19  1  0
 17 18  1  6
 19 20  1  0
 21 19  2  0
M  END
$$$$
