VCV.pdb
     RDKit          3D

 21 20  0  0  1  0  0  0  0  0999 V2000
   16.1357  -13.4847  -15.5529 C   0  0  0  0  0  0  0  0  0  0  0  0
   16.6769  -12.6421  -14.4417 C   0  0  2  0  0  0  0  0  0  0  0  0
   17.2612  -13.5242  -13.3891 C   0  0  0  0  0  0  0  0  0  0  0  0
   15.6630  -11.6666  -13.8946 C   0  0  2  0  0  0  0  0  0  0  0  0
   14.8235  -11.2457  -14.9748 N   0  0  0  0  0  0  0  0  0  0  0  0
   16.2923  -10.5469  -13.1701 C   0  0  0  0  0  0  0  0  0  0  0  0
   16.7001  -10.8087  -11.9878 O   0  0  0  0  0  0  0  0  0  0  0  0
   16.4508   -9.2505  -13.7195 N   0  0  0  0  0  0  0  0  0  0  0  0
   17.0155   -8.2140  -12.8543 C   0  0  1  0  0  0  0  0  0  0  0  0
   17.5224   -7.1522  -13.8429 C   0  0  0  0  0  0  0  0  0  0  0  0
   17.9818   -5.6680  -12.9382 S   0  0  0  0  0  0  0  0  0  0  0  0
   15.9789   -7.5956  -12.0202 C   0  0  0  0  0  0  0  0  0  0  0  0
   14.8280   -7.4226  -12.5519 O   0  0  0  0  0  0  0  0  0  0  0  0
   15.5391   -7.8388   -7.8894 C   0  0  0  0  0  0  0  0  0  0  0  0
   14.4895   -7.3897   -8.8512 C   0  0  1  0  0  0  0  0  0  0  0  0
   13.3637   -6.7514   -8.1038 C   0  0  0  0  0  0  0  0  0  0  0  0
   15.0376   -6.5053   -9.9495 C   0  0  2  0  0  0  0  0  0  0  0  0
   16.0934   -7.1652  -10.6910 N   0  0  0  0  0  0  0  0  0  0  0  0
   15.5922   -5.2748   -9.3618 C   0  0  0  0  0  0  0  0  0  0  0  0
   14.7630   -4.2852   -8.8746 O   0  0  0  0  0  0  0  0  0  0  0  0
   16.8248   -5.1116   -9.2972 O   0  0  0  0  0  0  0  0  0  0  0  0
  2  3  1  1
  2  1  1  0
  4  6  1  0
  4  2  1  0
  4  5  1  6
  6  8  1  0
  7  6  2  0
  8  9  1  0
  9 12  1  0
 10 11  1  0
  9 10  1  6
 12 18  1  0
 12 13  2  0
 15 14  1  1
 16 15  1  0
 17 15  1  0
 17 19  1  0
 17 18  1  1
 19 20  1  0
 21 19  2  0
M  END
$$$$
