VCV.pdb
     RDKit          3D

 21 20  0  0  1  0  0  0  0  0999 V2000
   17.4369  -11.7058  -18.2414 C   0  0  0  0  0  0  0  0  0  0  0  0
   18.9112  -11.5091  -18.4005 C   0  0  2  0  0  0  0  0  0  0  0  0
   19.4257  -12.4374  -19.4497 C   0  0  0  0  0  0  0  0  0  0  0  0
   19.6643  -11.6205  -17.0968 C   0  0  2  0  0  0  0  0  0  0  0  0
   19.5211  -12.9604  -16.6141 N   0  0  0  0  0  0  0  0  0  0  0  0
   19.2516  -10.5972  -16.1185 C   0  0  0  0  0  0  0  0  0  0  0  0
   18.2590  -10.9065  -15.3757 O   0  0  0  0  0  0  0  0  0  0  0  0
   19.8923   -9.3407  -15.9835 N   0  0  0  0  0  0  0  0  0  0  0  0
   19.2977   -8.3744  -15.0591 C   0  0  1  0  0  0  0  0  0  0  0  0
   20.3609   -8.2215  -13.9602 C   0  0  0  0  0  0  0  0  0  0  0  0
   21.9678   -7.9516  -14.7203 S   0  0  0  0  0  0  0  0  0  0  0  0
   19.1197   -7.0666  -15.6999 C   0  0  0  0  0  0  0  0  0  0  0  0
   19.9926   -6.7182  -16.5681 O   0  0  0  0  0  0  0  0  0  0  0  0
   16.5669   -5.7530  -18.1013 C   0  0  0  0  0  0  0  0  0  0  0  0
   16.6299   -4.8209  -16.9369 C   0  0  1  0  0  0  0  0  0  0  0  0
   15.4559   -5.0551  -16.0423 C   0  0  0  0  0  0  0  0  0  0  0  0
   17.9492   -4.8887  -16.1997 C   0  0  2  0  0  0  0  0  0  0  0  0
   18.0948   -6.1365  -15.4772 N   0  0  0  0  0  0  0  0  0  0  0  0
   18.0289   -3.7859  -15.2279 C   0  0  0  0  0  0  0  0  0  0  0  0
   18.4537   -2.5307  -15.6128 O   0  0  0  0  0  0  0  0  0  0  0  0
   17.7117   -3.9744  -14.0388 O   0  0  0  0  0  0  0  0  0  0  0  0
  2  3  1  6
  2  1  1  0
  4  6  1  0
  4  2  1  0
  4  5  1  1
  6  8  1  0
  7  6  2  0
  8  9  1  0
  9 12  1  0
 10 11  1  0
  9 10  1  1
 12 18  1  0
 12 13  2  0
 15 14  1  6
 16 15  1  0
 17 15  1  0
 17 19  1  0
 17 18  1  1
 19 20  1  0
 21 19  2  0
M  END
$$$$
