VCV.pdb
     RDKit          3D

 21 20  0  0  1  0  0  0  0  0999 V2000
   25.7207  -22.2669  -17.4102 C   0  0  0  0  0  0  0  0  0  0  0  0
   26.8312  -22.1167  -16.4192 C   0  0  2  0  0  0  0  0  0  0  0  0
   28.1396  -22.1103  -17.1370 C   0  0  0  0  0  0  0  0  0  0  0  0
   26.7739  -23.1401  -15.3108 C   0  0  2  0  0  0  0  0  0  0  0  0
   26.8516  -24.4410  -15.9028 N   0  0  0  0  0  0  0  0  0  0  0  0
   25.5978  -22.9615  -14.4393 C   0  0  0  0  0  0  0  0  0  0  0  0
   24.6132  -23.7433  -14.6670 O   0  0  0  0  0  0  0  0  0  0  0  0
   25.5299  -21.9947  -13.4057 N   0  0  0  0  0  0  0  0  0  0  0  0
   24.2786  -21.8964  -12.6530 C   0  0  1  0  0  0  0  0  0  0  0  0
   24.6493  -21.0219  -11.4450 C   0  0  0  0  0  0  0  0  0  0  0  0
   25.7830  -21.9257  -10.3817 S   0  0  0  0  0  0  0  0  0  0  0  0
   23.2496  -21.1890  -13.4234 C   0  0  0  0  0  0  0  0  0  0  0  0
   23.5192  -19.9963  -13.8000 O   0  0  0  0  0  0  0  0  0  0  0  0
   19.5547  -21.0965  -16.6408 C   0  0  0  0  0  0  0  0  0  0  0  0
   20.6570  -21.7355  -15.8630 C   0  0  1  0  0  0  0  0  0  0  0  0
   21.8110  -22.0201  -16.7689 C   0  0  0  0  0  0  0  0  0  0  0  0
   21.0557  -20.9360  -14.6422 C   0  0  2  0  0  0  0  0  0  0  0  0
   21.9880  -21.6653  -13.8060 N   0  0  0  0  0  0  0  0  0  0  0  0
   19.8603  -20.6339  -13.8379 C   0  0  0  0  0  0  0  0  0  0  0  0
   19.4310  -21.4994  -12.8526 O   0  0  0  0  0  0  0  0  0  0  0  0
   19.2182  -19.5864  -14.0389 O   0  0  0  0  0  0  0  0  0  0  0  0
  2  3  1  6
  2  1  1  0
  4  6  1  0
  4  2  1  0
  4  5  1  6
  6  8  1  0
  7  6  2  0
  8  9  1  0
  9 12  1  0
 10 11  1  0
  9 10  1  1
 12 18  1  0
 12 13  2  0
 15 14  1  6
 16 15  1  0
 17 15  1  0
 17 19  1  0
 17 18  1  1
 19 20  1  0
 21 19  2  0
M  END
$$$$
