VCV.pdb
     RDKit          3D

 21 20  0  0  1  0  0  0  0  0999 V2000
   19.8061  -11.9169  -21.6058 C   0  0  0  0  0  0  0  0  0  0  0  0
   20.4313  -12.9567  -20.7308 C   0  0  2  0  0  0  0  0  0  0  0  0
   19.9885  -14.3110  -21.1750 C   0  0  0  0  0  0  0  0  0  0  0  0
   20.1898  -12.7123  -19.2608 C   0  0  2  0  0  0  0  0  0  0  0  0
   18.8120  -12.9854  -18.9855 N   0  0  0  0  0  0  0  0  0  0  0  0
   20.6173  -11.3665  -18.8357 C   0  0  0  0  0  0  0  0  0  0  0  0
   21.8733  -11.1388  -18.8910 O   0  0  0  0  0  0  0  0  0  0  0  0
   19.7196  -10.3655  -18.3889 N   0  0  0  0  0  0  0  0  0  0  0  0
   20.2933   -9.1036  -17.9195 C   0  0  1  0  0  0  0  0  0  0  0  0
   19.3123   -8.0422  -18.4418 C   0  0  0  0  0  0  0  0  0  0  0  0
   19.7219   -6.4471  -17.7204 S   0  0  0  0  0  0  0  0  0  0  0  0
   20.2955   -9.0337  -16.4540 C   0  0  0  0  0  0  0  0  0  0  0  0
   19.2283   -9.4000  -15.8505 O   0  0  0  0  0  0  0  0  0  0  0  0
   22.4599   -9.5765  -12.1379 C   0  0  0  0  0  0  0  0  0  0  0  0
   22.3967   -9.5753  -13.6294 C   0  0  1  0  0  0  0  0  0  0  0  0
   22.2873  -10.9797  -14.1284 C   0  0  0  0  0  0  0  0  0  0  0  0
   21.3074   -8.6761  -14.1713 C   0  0  2  0  0  0  0  0  0  0  0  0
   21.3385   -8.6104  -15.6186 N   0  0  0  0  0  0  0  0  0  0  0  0
   21.4875   -7.3120  -13.6479 C   0  0  0  0  0  0  0  0  0  0  0  0
   21.9898   -6.3060  -14.4478 O   0  0  0  0  0  0  0  0  0  0  0  0
   21.1866   -7.0484  -12.4689 O   0  0  0  0  0  0  0  0  0  0  0  0
  2  3  1  6
  2  1  1  0
  4  6  1  0
  4  2  1  0
  4  5  1  6
  6  8  1  0
  7  6  2  0
  8  9  1  0
  9 12  1  0
 10 11  1  0
  9 10  1  6
 12 18  1  0
 12 13  2  0
 15 14  1  1
 16 15  1  0
 17 15  1  0
 17 19  1  0
 17 18  1  6
 19 20  1  0
 21 19  2  0
M  END
$$$$
