VCV.pdb
     RDKit          3D

 21 20  0  0  1  0  0  0  0  0999 V2000
   26.7847  -21.9310  -14.6103 C   0  0  0  0  0  0  0  0  0  0  0  0
   26.8205  -21.0670  -13.3897 C   0  0  2  0  0  0  0  0  0  0  0  0
   28.1768  -21.1376  -12.7710 C   0  0  0  0  0  0  0  0  0  0  0  0
   25.7123  -21.3802  -12.4136 C   0  0  2  0  0  0  0  0  0  0  0  0
   24.4682  -21.3166  -13.1185 N   0  0  0  0  0  0  0  0  0  0  0  0
   25.7540  -20.5177  -11.2181 C   0  0  0  0  0  0  0  0  0  0  0  0
   25.3473  -19.3178  -11.3838 O   0  0  0  0  0  0  0  0  0  0  0  0
   26.2099  -20.9587   -9.9511 N   0  0  0  0  0  0  0  0  0  0  0  0
   26.1781  -19.9966   -8.8488 C   0  0  1  0  0  0  0  0  0  0  0  0
   24.6808  -19.8551   -8.5334 C   0  0  0  0  0  0  0  0  0  0  0  0
   24.0223  -21.4545   -8.0425 S   0  0  0  0  0  0  0  0  0  0  0  0
   26.8418  -20.5337   -7.6557 C   0  0  0  0  0  0  0  0  0  0  0  0
   26.7990  -21.8011   -7.4846 O   0  0  0  0  0  0  0  0  0  0  0  0
   30.5074  -19.6746   -6.0511 C   0  0  0  0  0  0  0  0  0  0  0  0
   29.3824  -19.6279   -5.0710 C   0  0  1  0  0  0  0  0  0  0  0  0
   29.0476  -18.2054   -4.7582 C   0  0  0  0  0  0  0  0  0  0  0  0
   28.1782  -20.4268   -5.5190 C   0  0  2  0  0  0  0  0  0  0  0  0
   27.5299  -19.8203   -6.6644 N   0  0  0  0  0  0  0  0  0  0  0  0
   27.1976  -20.4980   -4.4234 C   0  0  0  0  0  0  0  0  0  0  0  0
   27.4581  -21.2331   -3.2850 O   0  0  0  0  0  0  0  0  0  0  0  0
   26.1140  -19.8914   -4.5120 O   0  0  0  0  0  0  0  0  0  0  0  0
  2  3  1  1
  2  1  1  0
  4  6  1  0
  4  2  1  0
  4  5  1  6
  6  8  1  0
  7  6  2  0
  8  9  1  0
  9 12  1  0
 10 11  1  0
  9 10  1  1
 12 18  1  0
 12 13  2  0
 15 14  1  6
 16 15  1  0
 17 15  1  0
 17 19  1  0
 17 18  1  6
 19 20  1  0
 21 19  2  0
M  END
$$$$
