VCV.pdb
     RDKit          3D

 21 20  0  0  1  0  0  0  0  0999 V2000
   24.4526  -11.8172  -17.1456 C   0  0  0  0  0  0  0  0  0  0  0  0
   23.9518  -12.0426  -15.7542 C   0  0  2  0  0  0  0  0  0  0  0  0
   24.6359  -13.2319  -15.1669 C   0  0  0  0  0  0  0  0  0  0  0  0
   22.4468  -12.1328  -15.6772 C   0  0  2  0  0  0  0  0  0  0  0  0
   22.0336  -13.2942  -16.4045 N   0  0  0  0  0  0  0  0  0  0  0  0
   21.7845  -10.8937  -16.1251 C   0  0  0  0  0  0  0  0  0  0  0  0
   21.3935  -10.8807  -17.3415 O   0  0  0  0  0  0  0  0  0  0  0  0
   21.5783   -9.7701  -15.2869 N   0  0  0  0  0  0  0  0  0  0  0  0
   20.9750   -8.5798  -15.8880 C   0  0  1  0  0  0  0  0  0  0  0  0
   19.4726   -8.9023  -15.9029 C   0  0  0  0  0  0  0  0  0  0  0  0
   18.9751   -9.4948  -14.2799 S   0  0  0  0  0  0  0  0  0  0  0  0
   21.1746   -7.3982  -15.0416 C   0  0  0  0  0  0  0  0  0  0  0  0
   21.6132   -7.5966  -13.8560 O   0  0  0  0  0  0  0  0  0  0  0  0
   21.6997   -3.5278  -16.5954 C   0  0  0  0  0  0  0  0  0  0  0  0
   22.2584   -3.9905  -15.2907 C   0  0  1  0  0  0  0  0  0  0  0  0
   22.6586   -2.8086  -14.4684 C   0  0  0  0  0  0  0  0  0  0  0  0
   21.3290   -4.9284  -14.5523 C   0  0  2  0  0  0  0  0  0  0  0  0
   20.9425   -6.0567  -15.3756 N   0  0  0  0  0  0  0  0  0  0  0  0
   20.1064   -4.2067  -14.1630 C   0  0  0  0  0  0  0  0  0  0  0  0
   20.0625   -3.4598  -13.0036 O   0  0  0  0  0  0  0  0  0  0  0  0
   19.0905   -4.2625  -14.8806 O   0  0  0  0  0  0  0  0  0  0  0  0
  2  3  1  6
  2  1  1  0
  4  6  1  0
  4  2  1  0
  4  5  1  6
  6  8  1  0
  7  6  2  0
  8  9  1  0
  9 12  1  0
 10 11  1  0
  9 10  1  1
 12 18  1  0
 12 13  2  0
 15 14  1  6
 16 15  1  0
 17 15  1  0
 17 19  1  0
 17 18  1  6
 19 20  1  0
 21 19  2  0
M  END
$$$$
