THV.pdb
     RDKit          3D

 25 25  0  0  1  0  0  0  0  0999 V2000
   43.9458   -8.7673   -4.4490 C   0  0  0  0  0  0  0  0  0  0  0  0
   44.7651   -9.5669   -5.4417 C   0  0  1  0  0  0  0  0  0  0  0  0
   45.5417  -10.4893   -4.7356 O   0  0  0  0  0  0  0  0  0  0  0  0
   43.7804  -10.3398   -6.2892 C   0  0  2  0  0  0  0  0  0  0  0  0
   44.5210  -11.2858   -7.0711 N   0  0  0  0  0  0  0  0  0  0  0  0
   42.8916   -9.4785   -7.0742 C   0  0  0  0  0  0  0  0  0  0  0  0
   43.2468   -9.1369   -8.2323 O   0  0  0  0  0  0  0  0  0  0  0  0
   41.6341   -8.9855   -6.6279 N   0  0  0  0  0  0  0  0  0  0  0  0
   40.8143   -8.1238   -7.4558 C   0  0  1  0  0  0  0  0  0  0  0  0
   39.3481   -8.5071   -7.3792 C   0  0  0  0  0  0  0  0  0  0  0  0
   39.0033   -9.3696   -8.5391 C   0  0  0  0  0  0  0  0  0  0  0  0
   39.7949   -9.6883   -9.6030 C   0  0  0  0  0  0  0  0  0  0  0  0
   39.0747  -10.5008  -10.4221 N   0  0  0  0  0  0  0  0  0  0  0  0
   37.8689  -10.6765   -9.8731 C   0  0  0  0  0  0  0  0  0  0  0  0
   37.8181   -9.9817   -8.7117 N   0  0  0  0  0  0  0  0  0  0  0  0
   41.0265   -6.7175   -7.0122 C   0  0  0  0  0  0  0  0  0  0  0  0
   41.1232   -6.4299   -5.7932 O   0  0  0  0  0  0  0  0  0  0  0  0
   43.8161   -4.3332   -8.3267 C   0  0  0  0  0  0  0  0  0  0  0  0
   42.4874   -3.6385   -8.3266 C   0  0  1  0  0  0  0  0  0  0  0  0
   41.9762   -3.3975   -9.7097 C   0  0  0  0  0  0  0  0  0  0  0  0
   41.4817   -4.3356   -7.4310 C   0  0  2  0  0  0  0  0  0  0  0  0
   41.1292   -5.6440   -7.9329 N   0  0  0  0  0  0  0  0  0  0  0  0
   40.2432   -3.5493   -7.2922 C   0  0  0  0  0  0  0  0  0  0  0  0
   40.1972   -2.4616   -6.4328 O   0  0  0  0  0  0  0  0  0  0  0  0
   39.1900   -3.8303   -7.9407 O   0  0  0  0  0  0  0  0  0  0  0  0
  2  1  1  1
  2  3  1  0
  4  2  1  0
  4  5  1  6
  6  7  2  0
  6  4  1  0
  8  6  1  0
  9 16  1  0
  9  8  1  0
  9 10  1  1
 11 12  2  0
 11 10  1  0
 13 12  1  0
 14 15  2  0
 14 13  1  0
 15 11  1  0
 16 22  1  0
 17 16  2  0
 19 18  1  6
 19 20  1  0
 21 19  1  0
 21 23  1  0
 21 22  1  6
 23 25  2  0
 23 24  1  0
M  END
$$$$
