THV.pdb
     RDKit          3D

 25 25  0  0  1  0  0  0  0  0999 V2000
   30.2501  -29.1186  -19.4411 C   0  0  0  0  0  0  0  0  0  0  0  0
   29.2994  -30.2669  -19.1689 C   0  0  1  0  0  0  0  0  0  0  0  0
   30.0418  -31.4477  -19.0851 O   0  0  0  0  0  0  0  0  0  0  0  0
   28.6860  -30.0056  -17.8121 C   0  0  2  0  0  0  0  0  0  0  0  0
   27.8402  -31.1173  -17.4906 N   0  0  0  0  0  0  0  0  0  0  0  0
   28.0237  -28.7016  -17.7179 C   0  0  0  0  0  0  0  0  0  0  0  0
   26.8271  -28.6014  -18.0952 O   0  0  0  0  0  0  0  0  0  0  0  0
   28.6323  -27.5140  -17.2253 N   0  0  0  0  0  0  0  0  0  0  0  0
   27.9440  -26.2389  -17.2438 C   0  0  1  0  0  0  0  0  0  0  0  0
   28.5436  -25.2667  -16.2449 C   0  0  0  0  0  0  0  0  0  0  0  0
   27.8208  -23.9708  -16.3242 C   0  0  0  0  0  0  0  0  0  0  0  0
   26.8050  -23.6354  -17.1702 C   0  0  0  0  0  0  0  0  0  0  0  0
   26.4462  -22.3530  -16.8933 N   0  0  0  0  0  0  0  0  0  0  0  0
   27.2242  -21.9119  -15.9002 C   0  0  0  0  0  0  0  0  0  0  0  0
   28.0742  -22.9045  -15.5444 N   0  0  0  0  0  0  0  0  0  0  0  0
   28.0119  -25.6965  -18.6297 C   0  0  0  0  0  0  0  0  0  0  0  0
   29.0975  -25.6651  -19.2609 O   0  0  0  0  0  0  0  0  0  0  0  0
   26.9224  -26.9900  -21.7621 C   0  0  0  0  0  0  0  0  0  0  0  0
   26.2708  -25.6454  -21.6363 C   0  0  1  0  0  0  0  0  0  0  0  0
   24.8091  -25.7515  -21.3454 C   0  0  0  0  0  0  0  0  0  0  0  0
   27.0093  -24.7446  -20.6655 C   0  0  2  0  0  0  0  0  0  0  0  0
   26.8676  -25.1937  -19.2993 N   0  0  0  0  0  0  0  0  0  0  0  0
   26.5275  -23.3542  -20.7429 C   0  0  0  0  0  0  0  0  0  0  0  0
   26.9804  -22.5112  -21.7469 O   0  0  0  0  0  0  0  0  0  0  0  0
   25.6954  -22.8817  -19.9102 O   0  0  0  0  0  0  0  0  0  0  0  0
  2  1  1  1
  2  3  1  0
  4  2  1  0
  4  5  1  6
  6  7  2  0
  6  4  1  0
  8  6  1  0
  9 16  1  0
  9  8  1  0
  9 10  1  1
 11 12  2  0
 11 10  1  0
 13 12  1  0
 14 15  2  0
 14 13  1  0
 15 11  1  0
 16 22  1  0
 17 16  2  0
 19 18  1  1
 19 20  1  0
 21 19  1  0
 21 23  1  0
 21 22  1  1
 23 25  2  0
 23 24  1  0
M  END
$$$$
