THV.pdb
     RDKit          3D

 25 25  0  0  1  0  0  0  0  0999 V2000
   18.5688  -17.4730  -15.4246 C   0  0  0  0  0  0  0  0  0  0  0  0
   19.1854  -16.1036  -15.6262 C   0  0  1  0  0  0  0  0  0  0  0  0
   20.5324  -16.2678  -15.9596 O   0  0  0  0  0  0  0  0  0  0  0  0
   18.4840  -15.4863  -16.8146 C   0  0  2  0  0  0  0  0  0  0  0  0
   18.7988  -16.2748  -17.9694 N   0  0  0  0  0  0  0  0  0  0  0  0
   18.7618  -14.0558  -16.9716 C   0  0  0  0  0  0  0  0  0  0  0  0
   19.4972  -13.6825  -17.9225 O   0  0  0  0  0  0  0  0  0  0  0  0
   18.2597  -13.0317  -16.1217 N   0  0  0  0  0  0  0  0  0  0  0  0
   18.4618  -11.6272  -16.4164 C   0  0  1  0  0  0  0  0  0  0  0  0
   17.1464  -10.8727  -16.4661 C   0  0  0  0  0  0  0  0  0  0  0  0
   16.4097  -11.2480  -17.7008 C   0  0  0  0  0  0  0  0  0  0  0  0
   16.7959  -11.0472  -18.9933 C   0  0  0  0  0  0  0  0  0  0  0  0
   15.8187  -11.5469  -19.7965 N   0  0  0  0  0  0  0  0  0  0  0  0
   14.8550  -12.0429  -19.0145 C   0  0  0  0  0  0  0  0  0  0  0  0
   15.2130  -11.8619  -17.7209 N   0  0  0  0  0  0  0  0  0  0  0  0
   19.3673  -11.0620  -15.3770 C   0  0  0  0  0  0  0  0  0  0  0  0
   19.1693  -11.2814  -14.1562 O   0  0  0  0  0  0  0  0  0  0  0  0
   23.2768   -9.8252  -16.3660 C   0  0  0  0  0  0  0  0  0  0  0  0
   22.8444  -10.3813  -15.0423 C   0  0  1  0  0  0  0  0  0  0  0  0
   23.8469  -10.1201  -13.9657 C   0  0  0  0  0  0  0  0  0  0  0  0
   21.4414   -9.9409  -14.6719 C   0  0  2  0  0  0  0  0  0  0  0  0
   20.4861  -10.2566  -15.7092 N   0  0  0  0  0  0  0  0  0  0  0  0
   21.3782   -8.4910  -14.4169 C   0  0  0  0  0  0  0  0  0  0  0  0
   21.7268   -7.9830  -13.1742 O   0  0  0  0  0  0  0  0  0  0  0  0
   21.0095   -7.6654  -15.3064 O   0  0  0  0  0  0  0  0  0  0  0  0
  2  1  1  6
  2  3  1  0
  4  2  1  0
  4  5  1  6
  6  7  2  0
  6  4  1  0
  8  6  1  0
  9 16  1  0
  9  8  1  0
  9 10  1  1
 11 12  2  0
 11 10  1  0
 13 12  1  0
 14 15  2  0
 14 13  1  0
 15 11  1  0
 16 22  1  0
 17 16  2  0
 19 18  1  6
 19 20  1  0
 21 19  1  0
 21 23  1  0
 21 22  1  6
 23 25  2  0
 23 24  1  0
M  END
$$$$
