THV.pdb
     RDKit          3D

 25 25  0  0  1  0  0  0  0  0999 V2000
   18.3757  -10.6401  -14.1859 C   0  0  0  0  0  0  0  0  0  0  0  0
   17.0243  -10.7251  -14.8662 C   0  0  1  0  0  0  0  0  0  0  0  0
   16.7295  -12.0705  -15.1017 O   0  0  0  0  0  0  0  0  0  0  0  0
   16.0109  -10.1926  -13.8790 C   0  0  2  0  0  0  0  0  0  0  0  0
   14.7106  -10.3302  -14.4663 N   0  0  0  0  0  0  0  0  0  0  0  0
   16.3164   -8.8382  -13.4098 C   0  0  0  0  0  0  0  0  0  0  0  0
   16.2128   -7.8793  -14.2185 O   0  0  0  0  0  0  0  0  0  0  0  0
   16.7290   -8.5088  -12.0889 N   0  0  0  0  0  0  0  0  0  0  0  0
   17.1697   -7.1738  -11.7371 C   0  0  1  0  0  0  0  0  0  0  0  0
   16.6044   -6.7341  -10.3994 C   0  0  0  0  0  0  0  0  0  0  0  0
   17.2240   -5.4429  -10.0032 C   0  0  0  0  0  0  0  0  0  0  0  0
   18.2140   -5.2419   -9.0869 C   0  0  0  0  0  0  0  0  0  0  0  0
   18.4703   -3.9069   -9.0451 N   0  0  0  0  0  0  0  0  0  0  0  0
   17.6561   -3.3028   -9.9159 C   0  0  0  0  0  0  0  0  0  0  0  0
   16.8848   -4.2442  -10.5103 N   0  0  0  0  0  0  0  0  0  0  0  0
   18.6594   -7.1678  -11.7197 C   0  0  0  0  0  0  0  0  0  0  0  0
   19.3007   -7.8560  -10.8873 O   0  0  0  0  0  0  0  0  0  0  0  0
   21.0776   -8.7092  -13.6836 C   0  0  0  0  0  0  0  0  0  0  0  0
   21.4303   -7.2532  -13.7473 C   0  0  1  0  0  0  0  0  0  0  0  0
   21.0924   -6.6480  -15.0709 C   0  0  0  0  0  0  0  0  0  0  0  0
   20.8622   -6.4789  -12.5738 C   0  0  2  0  0  0  0  0  0  0  0  0
   19.4207   -6.3936  -12.6317 N   0  0  0  0  0  0  0  0  0  0  0  0
   21.4002   -5.1083  -12.5174 C   0  0  0  0  0  0  0  0  0  0  0  0
   22.7127   -4.8870  -12.1273 O   0  0  0  0  0  0  0  0  0  0  0  0
   20.6981   -4.0955  -12.8177 O   0  0  0  0  0  0  0  0  0  0  0  0
  2  1  1  1
  2  3  1  0
  4  2  1  0
  4  5  1  6
  6  7  2  0
  6  4  1  0
  8  6  1  0
  9 16  1  0
  9  8  1  0
  9 10  1  1
 11 12  2  0
 11 10  1  0
 13 12  1  0
 14 15  2  0
 14 13  1  0
 15 11  1  0
 16 22  1  0
 17 16  2  0
 19 18  1  6
 19 20  1  0
 21 19  1  0
 21 23  1  0
 21 22  1  6
 23 25  2  0
 23 24  1  0
M  END
$$$$
