THV.pdb
     RDKit          3D

 25 25  0  0  1  0  0  0  0  0999 V2000
   31.6883  -31.2413  -20.3914 C   0  0  0  0  0  0  0  0  0  0  0  0
   32.7849  -30.3735  -19.8078 C   0  0  1  0  0  0  0  0  0  0  0  0
   32.7655  -29.1365  -20.4575 O   0  0  0  0  0  0  0  0  0  0  0  0
   32.4258  -30.1431  -18.3576 C   0  0  2  0  0  0  0  0  0  0  0  0
   33.4149  -29.2729  -17.7926 N   0  0  0  0  0  0  0  0  0  0  0  0
   32.2219  -31.3856  -17.6074 C   0  0  0  0  0  0  0  0  0  0  0  0
   33.1994  -31.8922  -16.9975 O   0  0  0  0  0  0  0  0  0  0  0  0
   30.9856  -32.0823  -17.5084 N   0  0  0  0  0  0  0  0  0  0  0  0
   30.8658  -33.3240  -16.7709 C   0  0  1  0  0  0  0  0  0  0  0  0
   30.1837  -33.1138  -15.4318 C   0  0  0  0  0  0  0  0  0  0  0  0
   28.8631  -32.4678  -15.6478 C   0  0  0  0  0  0  0  0  0  0  0  0
   28.2605  -32.1845  -16.8381 C   0  0  0  0  0  0  0  0  0  0  0  0
   27.0658  -31.5953  -16.5638 N   0  0  0  0  0  0  0  0  0  0  0  0
   26.9385  -31.5189  -15.2355 C   0  0  0  0  0  0  0  0  0  0  0  0
   28.0433  -32.0552  -14.6645 N   0  0  0  0  0  0  0  0  0  0  0  0
   30.1092  -34.2917  -17.6139 C   0  0  0  0  0  0  0  0  0  0  0  0
   29.3575  -33.8958  -18.5392 O   0  0  0  0  0  0  0  0  0  0  0  0
   31.4332  -38.0705  -18.8017 C   0  0  0  0  0  0  0  0  0  0  0  0
   30.0286  -37.9825  -18.2842 C   0  0  1  0  0  0  0  0  0  0  0  0
   29.8798  -38.6247  -16.9434 C   0  0  0  0  0  0  0  0  0  0  0  0
   29.4939  -36.5643  -18.3300 C   0  0  2  0  0  0  0  0  0  0  0  0
   30.1983  -35.6931  -17.4172 N   0  0  0  0  0  0  0  0  0  0  0  0
   28.0597  -36.5149  -17.9955 C   0  0  0  0  0  0  0  0  0  0  0  0
   27.1063  -36.8248  -18.9541 O   0  0  0  0  0  0  0  0  0  0  0  0
   27.6476  -36.1930  -16.8399 O   0  0  0  0  0  0  0  0  0  0  0  0
  2  1  1  6
  2  3  1  0
  4  2  1  0
  4  5  1  1
  6  7  2  0
  6  4  1  0
  8  6  1  0
  9 16  1  0
  9  8  1  0
  9 10  1  1
 11 12  2  0
 11 10  1  0
 13 12  1  0
 14 15  2  0
 14 13  1  0
 15 11  1  0
 16 22  1  0
 17 16  2  0
 19 18  1  1
 19 20  1  0
 21 19  1  0
 21 23  1  0
 21 22  1  1
 23 25  2  0
 23 24  1  0
M  END
$$$$
