THV.pdb
     RDKit          3D

 25 25  0  0  1  0  0  0  0  0999 V2000
   14.5130   -6.2097  -10.1793 C   0  0  0  0  0  0  0  0  0  0  0  0
   14.2783   -7.3882   -9.2561 C   0  0  1  0  0  0  0  0  0  0  0  0
   12.9704   -7.3175   -8.7695 O   0  0  0  0  0  0  0  0  0  0  0  0
   14.3911   -8.6318  -10.1081 C   0  0  2  0  0  0  0  0  0  0  0  0
   14.1153   -9.7635   -9.2728 N   0  0  0  0  0  0  0  0  0  0  0  0
   15.6591   -8.7203  -10.8378 C   0  0  0  0  0  0  0  0  0  0  0  0
   16.7177   -8.9281  -10.1895 O   0  0  0  0  0  0  0  0  0  0  0  0
   15.7972   -8.5883  -12.2474 N   0  0  0  0  0  0  0  0  0  0  0  0
   17.0737   -8.7673  -12.9097 C   0  0  1  0  0  0  0  0  0  0  0  0
   16.8975   -9.2100  -14.3503 C   0  0  0  0  0  0  0  0  0  0  0  0
   18.2222   -9.5660  -14.9217 C   0  0  0  0  0  0  0  0  0  0  0  0
   19.4304   -9.5573  -14.2890 C   0  0  0  0  0  0  0  0  0  0  0  0
   20.3689   -9.9531  -15.1903 N   0  0  0  0  0  0  0  0  0  0  0  0
   19.7506  -10.1989  -16.3493 C   0  0  0  0  0  0  0  0  0  0  0  0
   18.4265   -9.9622  -16.1908 N   0  0  0  0  0  0  0  0  0  0  0  0
   17.8209   -7.4808  -12.8299 C   0  0  0  0  0  0  0  0  0  0  0  0
   17.2318   -6.3797  -12.9661 O   0  0  0  0  0  0  0  0  0  0  0  0
   19.6331   -5.7161  -10.1375 C   0  0  0  0  0  0  0  0  0  0  0  0
   20.5914   -5.8867  -11.2781 C   0  0  1  0  0  0  0  0  0  0  0  0
   21.6525   -6.8949  -10.9778 C   0  0  0  0  0  0  0  0  0  0  0  0
   19.8744   -6.1463  -12.5888 C   0  0  2  0  0  0  0  0  0  0  0  0
   19.2190   -7.4343  -12.5986 N   0  0  0  0  0  0  0  0  0  0  0  0
   20.8016   -6.0955  -13.7329 C   0  0  0  0  0  0  0  0  0  0  0  0
   21.2801   -4.8775  -14.1926 O   0  0  0  0  0  0  0  0  0  0  0  0
   21.1916   -7.1435  -14.3317 O   0  0  0  0  0  0  0  0  0  0  0  0
  2  1  1  6
  2  3  1  0
  4  2  1  0
  4  5  1  1
  6  7  2  0
  6  4  1  0
  8  6  1  0
  9 16  1  0
  9  8  1  0
  9 10  1  6
 11 12  2  0
 11 10  1  0
 13 12  1  0
 14 15  2  0
 14 13  1  0
 15 11  1  0
 16 22  1  0
 17 16  2  0
 19 18  1  1
 19 20  1  0
 21 19  1  0
 21 23  1  0
 21 22  1  1
 23 25  2  0
 23 24  1  0
M  END
$$$$
