THV.pdb
     RDKit          3D

 25 25  0  0  1  0  0  0  0  0999 V2000
   20.7403  -15.2381  -15.2658 C   0  0  0  0  0  0  0  0  0  0  0  0
   21.0627  -16.0658  -16.4935 C   0  0  1  0  0  0  0  0  0  0  0  0
   20.4842  -17.3287  -16.3422 O   0  0  0  0  0  0  0  0  0  0  0  0
   20.3897  -15.3827  -17.6622 C   0  0  2  0  0  0  0  0  0  0  0  0
   20.6223  -16.1797  -18.8307 N   0  0  0  0  0  0  0  0  0  0  0  0
   20.7739  -13.9761  -17.8099 C   0  0  0  0  0  0  0  0  0  0  0  0
   21.8899  -13.7039  -18.3244 O   0  0  0  0  0  0  0  0  0  0  0  0
   19.9747  -12.8686  -17.4123 N   0  0  0  0  0  0  0  0  0  0  0  0
   20.3803  -11.5018  -17.6719 C   0  0  1  0  0  0  0  0  0  0  0  0
   19.3842  -10.7839  -18.5633 C   0  0  0  0  0  0  0  0  0  0  0  0
   19.5180  -11.2860  -19.9555 C   0  0  0  0  0  0  0  0  0  0  0  0
   20.4541  -10.9305  -20.8814 C   0  0  0  0  0  0  0  0  0  0  0  0
   20.1987  -11.6363  -22.0157 N   0  0  0  0  0  0  0  0  0  0  0  0
   19.1302  -12.4070  -21.7905 C   0  0  0  0  0  0  0  0  0  0  0  0
   18.7054  -12.1959  -20.5220 N   0  0  0  0  0  0  0  0  0  0  0  0
   20.5290  -10.8067  -16.3625 C   0  0  0  0  0  0  0  0  0  0  0  0
   19.6660  -10.9352  -15.4588 O   0  0  0  0  0  0  0  0  0  0  0  0
   23.1320  -11.3642  -13.8580 C   0  0  0  0  0  0  0  0  0  0  0  0
   23.0837   -9.8837  -14.0910 C   0  0  1  0  0  0  0  0  0  0  0  0
   24.2907   -9.3871  -14.8184 C   0  0  0  0  0  0  0  0  0  0  0  0
   21.7796   -9.4517  -14.7329 C   0  0  2  0  0  0  0  0  0  0  0  0
   21.6395   -9.9740  -16.0730 N   0  0  0  0  0  0  0  0  0  0  0  0
   21.6686   -7.9838  -14.7995 C   0  0  0  0  0  0  0  0  0  0  0  0
   21.4260   -7.2472  -13.6496 O   0  0  0  0  0  0  0  0  0  0  0  0
   21.7883   -7.3475  -15.8902 O   0  0  0  0  0  0  0  0  0  0  0  0
  2  1  1  1
  2  3  1  0
  4  2  1  0
  4  5  1  6
  6  7  2  0
  6  4  1  0
  8  6  1  0
  9 16  1  0
  9  8  1  0
  9 10  1  6
 11 12  2  0
 11 10  1  0
 13 12  1  0
 14 15  2  0
 14 13  1  0
 15 11  1  0
 16 22  1  0
 17 16  2  0
 19 18  1  6
 19 20  1  0
 21 19  1  0
 21 23  1  0
 21 22  1  6
 23 25  2  0
 23 24  1  0
M  END
$$$$
