THV.pdb
     RDKit          3D

 25 25  0  0  1  0  0  0  0  0999 V2000
   17.9323   -7.1981  -20.3852 C   0  0  0  0  0  0  0  0  0  0  0  0
   18.5224   -8.5904  -20.4823 C   0  0  1  0  0  0  0  0  0  0  0  0
   18.7196   -8.8960  -21.8315 O   0  0  0  0  0  0  0  0  0  0  0  0
   19.8780   -8.5310  -19.8158 C   0  0  2  0  0  0  0  0  0  0  0  0
   20.6197   -9.6877  -20.2241 N   0  0  0  0  0  0  0  0  0  0  0  0
   19.8013   -8.3501  -18.3634 C   0  0  0  0  0  0  0  0  0  0  0  0
   18.8934   -7.6171  -17.8915 O   0  0  0  0  0  0  0  0  0  0  0  0
   20.6854   -8.9460  -17.4218 N   0  0  0  0  0  0  0  0  0  0  0  0
   20.5023   -8.7834  -15.9934 C   0  0  1  0  0  0  0  0  0  0  0  0
   20.6975  -10.0936  -15.2533 C   0  0  0  0  0  0  0  0  0  0  0  0
   19.5430  -10.9890  -15.5243 C   0  0  0  0  0  0  0  0  0  0  0  0
   19.5067  -12.0715  -16.3531 C   0  0  0  0  0  0  0  0  0  0  0  0
   18.2513  -12.5917  -16.2948 N   0  0  0  0  0  0  0  0  0  0  0  0
   17.5341  -11.8452  -15.4495 C   0  0  0  0  0  0  0  0  0  0  0  0
   18.3245  -10.8551  -14.9707 N   0  0  0  0  0  0  0  0  0  0  0  0
   21.4635   -7.7489  -15.5185 C   0  0  0  0  0  0  0  0  0  0  0  0
   22.6843   -7.8177  -15.8063 O   0  0  0  0  0  0  0  0  0  0  0  0
   21.7415   -4.2861  -16.4678 C   0  0  0  0  0  0  0  0  0  0  0  0
   21.6786   -4.2859  -14.9697 C   0  0  1  0  0  0  0  0  0  0  0  0
   20.3824   -3.7458  -14.4592 C   0  0  0  0  0  0  0  0  0  0  0  0
   22.0330   -5.6397  -14.3858 C   0  0  2  0  0  0  0  0  0  0  0  0
   21.0539   -6.6465  -14.7264 N   0  0  0  0  0  0  0  0  0  0  0  0
   22.1418   -5.5848  -12.9173 C   0  0  0  0  0  0  0  0  0  0  0  0
   23.1818   -4.8897  -12.3179 O   0  0  0  0  0  0  0  0  0  0  0  0
   21.3050   -6.1600  -12.1573 O   0  0  0  0  0  0  0  0  0  0  0  0
  2  1  1  6
  2  3  1  0
  4  2  1  0
  4  5  1  1
  6  7  2  0
  6  4  1  0
  8  6  1  0
  9 16  1  0
  9  8  1  0
  9 10  1  1
 11 12  2  0
 11 10  1  0
 13 12  1  0
 14 15  2  0
 14 13  1  0
 15 11  1  0
 16 22  1  0
 17 16  2  0
 19 18  1  6
 19 20  1  0
 21 19  1  0
 21 23  1  0
 21 22  1  1
 23 25  2  0
 23 24  1  0
M  END
$$$$
