THV.pdb
     RDKit          3D

 25 25  0  0  1  0  0  0  0  0999 V2000
   28.8455  -23.1032  -16.0574 C   0  0  0  0  0  0  0  0  0  0  0  0
   29.4844  -22.4345  -17.2577 C   0  0  1  0  0  0  0  0  0  0  0  0
   29.9474  -23.4274  -18.1251 O   0  0  0  0  0  0  0  0  0  0  0  0
   28.3843  -21.6756  -17.9641 C   0  0  2  0  0  0  0  0  0  0  0  0
   28.9537  -21.0533  -19.1231 N   0  0  0  0  0  0  0  0  0  0  0  0
   27.6596  -20.7543  -17.0842 C   0  0  0  0  0  0  0  0  0  0  0  0
   28.2162  -19.6780  -16.7439 O   0  0  0  0  0  0  0  0  0  0  0  0
   26.3520  -20.9790  -16.5713 N   0  0  0  0  0  0  0  0  0  0  0  0
   25.7285  -20.0599  -15.6404 C   0  0  1  0  0  0  0  0  0  0  0  0
   24.5392  -19.3544  -16.2650 C   0  0  0  0  0  0  0  0  0  0  0  0
   25.0234  -18.2800  -17.1700 C   0  0  0  0  0  0  0  0  0  0  0  0
   25.1019  -18.3117  -18.5313 C   0  0  0  0  0  0  0  0  0  0  0  0
   25.6012  -17.1151  -18.9420 N   0  0  0  0  0  0  0  0  0  0  0  0
   25.8239  -16.3665  -17.8574 C   0  0  0  0  0  0  0  0  0  0  0  0
   25.4698  -17.0788  -16.7612 N   0  0  0  0  0  0  0  0  0  0  0  0
   25.3230  -20.8301  -14.4312 C   0  0  0  0  0  0  0  0  0  0  0  0
   24.8116  -21.9730  -14.5322 O   0  0  0  0  0  0  0  0  0  0  0  0
   25.9810  -19.4227  -10.4246 C   0  0  0  0  0  0  0  0  0  0  0  0
   25.8708  -20.8797  -10.7612 C   0  0  1  0  0  0  0  0  0  0  0  0
   25.4291  -21.6974   -9.5913 C   0  0  0  0  0  0  0  0  0  0  0  0
   25.0341  -21.1142  -12.0039 C   0  0  2  0  0  0  0  0  0  0  0  0
   25.4917  -20.3181  -13.1198 N   0  0  0  0  0  0  0  0  0  0  0  0
   23.6140  -20.7993  -11.7685 C   0  0  0  0  0  0  0  0  0  0  0  0
   23.0281  -19.7041  -12.3858 O   0  0  0  0  0  0  0  0  0  0  0  0
   22.8846  -21.5037  -11.0064 O   0  0  0  0  0  0  0  0  0  0  0  0
  2  1  1  1
  2  3  1  0
  4  2  1  0
  4  5  1  6
  6  7  2  0
  6  4  1  0
  8  6  1  0
  9 16  1  0
  9  8  1  0
  9 10  1  6
 11 12  2  0
 11 10  1  0
 13 12  1  0
 14 15  2  0
 14 13  1  0
 15 11  1  0
 16 22  1  0
 17 16  2  0
 19 18  1  1
 19 20  1  0
 21 19  1  0
 21 23  1  0
 21 22  1  6
 23 25  2  0
 23 24  1  0
M  END
$$$$
