LLS.pdb
     RDKit          3D

 23 22  0  0  1  0  0  0  0  0999 V2000
   26.8556  -17.5775  -18.1175 C   0  0  0  0  0  0  0  0  0  0  0  0
   27.5133  -17.3977  -16.7859 C   0  0  2  0  0  0  0  0  0  0  0  0
   29.0084  -17.5261  -16.9873 C   0  0  0  0  0  0  0  0  0  0  0  0
   27.0788  -18.3733  -15.7466 C   0  0  0  0  0  0  0  0  0  0  0  0
   25.5784  -18.4243  -15.5709 C   0  0  2  0  0  0  0  0  0  0  0  0
   25.1554  -17.2157  -14.9036 N   0  0  0  0  0  0  0  0  0  0  0  0
   25.1754  -19.5803  -14.7337 C   0  0  0  0  0  0  0  0  0  0  0  0
   25.3989  -20.7744  -15.0776 O   0  0  0  0  0  0  0  0  0  0  0  0
   26.6405  -21.7259  -11.0990 C   0  0  0  0  0  0  0  0  0  0  0  0
   25.9354  -20.4120  -10.8831 C   0  0  2  0  0  0  0  0  0  0  0  0
   26.0343  -20.1168   -9.3745 C   0  0  0  0  0  0  0  0  0  0  0  0
   24.5056  -20.4177  -11.2425 C   0  0  0  0  0  0  0  0  0  0  0  0
   24.1191  -20.5300  -12.6717 C   0  0  2  0  0  0  0  0  0  0  0  0
   24.5051  -19.4161  -13.4779 N   0  0  0  0  0  0  0  0  0  0  0  0
   22.6831  -20.8953  -12.8550 C   0  0  0  0  0  0  0  0  0  0  0  0
   22.1669  -21.8792  -12.2637 O   0  0  0  0  0  0  0  0  0  0  0  0
   19.9398  -18.2135  -13.9258 O   0  0  0  0  0  0  0  0  0  0  0  0
   19.4988  -19.4729  -13.5259 C   0  0  0  0  0  0  0  0  0  0  0  0
   20.4482  -20.5554  -13.9894 C   0  0  2  0  0  0  0  0  0  0  0  0
   21.8322  -20.1467  -13.7073 N   0  0  0  0  0  0  0  0  0  0  0  0
   20.2634  -20.9146  -15.3931 C   0  0  0  0  0  0  0  0  0  0  0  0
   19.0971  -21.5108  -15.8250 O   0  0  0  0  0  0  0  0  0  0  0  0
   21.1626  -20.6880  -16.2362 O   0  0  0  0  0  0  0  0  0  0  0  0
  2  1  1  6
  2  3  1  0
  4  5  1  0
  4  2  1  0
  5  7  1  0
  5  6  1  1
  7  8  2  0
 10  9  1  1
 11 10  1  0
 12 10  1  0
 13 12  1  1
 14 13  1  0
 14  7  1  0
 15 13  1  0
 15 16  2  0
 17 18  1  0
 19 18  1  6
 19 20  1  0
 19 21  1  0
 20 15  1  0
 21 22  1  0
 23 21  2  0
M  END
$$$$
