LLS.pdb
     RDKit          3D

 23 22  0  0  1  0  0  0  0  0999 V2000
   19.3700  -11.2929  -13.8131 C   0  0  0  0  0  0  0  0  0  0  0  0
   18.3000  -10.7066  -14.6786 C   0  0  2  0  0  0  0  0  0  0  0  0
   18.9726  -10.0542  -15.8679 C   0  0  0  0  0  0  0  0  0  0  0  0
   17.4380   -9.7000  -13.9970 C   0  0  0  0  0  0  0  0  0  0  0  0
   16.7461  -10.2455  -12.7689 C   0  0  2  0  0  0  0  0  0  0  0  0
   15.8653  -11.3140  -13.1778 N   0  0  0  0  0  0  0  0  0  0  0  0
   15.9290   -9.2007  -12.1051 C   0  0  0  0  0  0  0  0  0  0  0  0
   14.8292   -8.8005  -12.5786 O   0  0  0  0  0  0  0  0  0  0  0  0
   14.8794   -6.5897   -6.5880 C   0  0  0  0  0  0  0  0  0  0  0  0
   14.8186   -6.4789   -8.0893 C   0  0  2  0  0  0  0  0  0  0  0  0
   13.3244   -6.5259   -8.4610 C   0  0  0  0  0  0  0  0  0  0  0  0
   15.4915   -7.5735   -8.8122 C   0  0  0  0  0  0  0  0  0  0  0  0
   15.5971   -7.5064  -10.2916 C   0  0  2  0  0  0  0  0  0  0  0  0
   16.3361   -8.5771  -10.8809 N   0  0  0  0  0  0  0  0  0  0  0  0
   16.0464   -6.1685  -10.7788 C   0  0  0  0  0  0  0  0  0  0  0  0
   17.2232   -5.7581  -10.6034 O   0  0  0  0  0  0  0  0  0  0  0  0
   13.7845   -4.0638  -13.5438 O   0  0  0  0  0  0  0  0  0  0  0  0
   15.1520   -3.8336  -13.4119 C   0  0  0  0  0  0  0  0  0  0  0  0
   15.5941   -3.9855  -11.9734 C   0  0  2  0  0  0  0  0  0  0  0  0
   15.1635   -5.2961  -11.4645 N   0  0  0  0  0  0  0  0  0  0  0  0
   15.1376   -2.8936  -11.1173 C   0  0  0  0  0  0  0  0  0  0  0  0
   15.6046   -1.6084  -11.2972 O   0  0  0  0  0  0  0  0  0  0  0  0
   14.3102   -3.1022  -10.1993 O   0  0  0  0  0  0  0  0  0  0  0  0
  2  1  1  1
  2  3  1  0
  4  5  1  0
  4  2  1  0
  5  7  1  0
  5  6  1  6
  7  8  2  0
 10  9  1  1
 11 10  1  0
 12 10  1  0
 13 12  1  1
 14 13  1  0
 14  7  1  0
 15 13  1  0
 15 16  2  0
 17 18  1  0
 19 18  1  6
 19 20  1  0
 19 21  1  0
 20 15  1  0
 21 22  1  0
 23 21  2  0
M  END
$$$$
