LLS.pdb
     RDKit          3D

 23 22  0  0  1  0  0  0  0  0999 V2000
   25.5882  -16.1549  -18.2391 C   0  0  0  0  0  0  0  0  0  0  0  0
   24.9533  -17.3687  -18.8403 C   0  0  2  0  0  0  0  0  0  0  0  0
   23.7260  -16.9187  -19.6041 C   0  0  0  0  0  0  0  0  0  0  0  0
   24.5540  -18.4097  -17.8515 C   0  0  0  0  0  0  0  0  0  0  0  0
   25.7158  -18.9320  -17.0378 C   0  0  2  0  0  0  0  0  0  0  0  0
   26.5870  -19.6797  -17.9135 N   0  0  0  0  0  0  0  0  0  0  0  0
   25.2513  -19.8403  -15.9613 C   0  0  0  0  0  0  0  0  0  0  0  0
   24.8975  -21.0310  -16.1874 O   0  0  0  0  0  0  0  0  0  0  0  0
   25.3582  -20.4925   -9.7635 C   0  0  0  0  0  0  0  0  0  0  0  0
   24.8584  -20.9395  -11.1127 C   0  0  2  0  0  0  0  0  0  0  0  0
   25.4422  -22.3468  -11.3399 C   0  0  0  0  0  0  0  0  0  0  0  0
   25.2910  -20.0913  -12.2383 C   0  0  0  0  0  0  0  0  0  0  0  0
   24.6565  -20.2743  -13.5681 C   0  0  2  0  0  0  0  0  0  0  0  0
   25.1742  -19.4242  -14.5923 N   0  0  0  0  0  0  0  0  0  0  0  0
   23.1650  -20.2474  -13.5054 C   0  0  0  0  0  0  0  0  0  0  0  0
   22.5302  -19.1959  -13.2303 O   0  0  0  0  0  0  0  0  0  0  0  0
   19.0120  -22.8147  -14.0082 O   0  0  0  0  0  0  0  0  0  0  0  0
   20.3895  -22.7236  -14.1943 C   0  0  0  0  0  0  0  0  0  0  0  0
   20.9251  -21.4110  -13.6669 C   0  0  2  0  0  0  0  0  0  0  0  0
   22.3930  -21.4104  -13.7543 N   0  0  0  0  0  0  0  0  0  0  0  0
   20.4614  -21.1065  -12.3157 C   0  0  0  0  0  0  0  0  0  0  0  0
   19.3461  -20.3220  -12.1085 O   0  0  0  0  0  0  0  0  0  0  0  0
   21.0685  -21.5526  -11.3142 O   0  0  0  0  0  0  0  0  0  0  0  0
  2  1  1  1
  2  3  1  0
  4  5  1  0
  4  2  1  0
  5  7  1  0
  5  6  1  6
  7  8  2  0
 10  9  1  1
 11 10  1  0
 12 10  1  0
 13 12  1  1
 14 13  1  0
 14  7  1  0
 15 13  1  0
 15 16  2  0
 17 18  1  0
 19 18  1  1
 19 20  1  0
 19 21  1  0
 20 15  1  0
 21 22  1  0
 23 21  2  0
M  END
$$$$
