LLS.pdb
     RDKit          3D

 23 22  0  0  1  0  0  0  0  0999 V2000
   26.9436  -19.7004   -4.4558 C   0  0  0  0  0  0  0  0  0  0  0  0
   27.9062  -20.0164   -5.5564 C   0  0  2  0  0  0  0  0  0  0  0  0
   29.2926  -19.6351   -5.0821 C   0  0  0  0  0  0  0  0  0  0  0  0
   27.6244  -19.3171   -6.8419 C   0  0  0  0  0  0  0  0  0  0  0  0
   26.3721  -19.8151   -7.5262 C   0  0  2  0  0  0  0  0  0  0  0  0
   26.1584  -21.1906   -7.1427 N   0  0  0  0  0  0  0  0  0  0  0  0
   26.5101  -19.7622   -9.0019 C   0  0  0  0  0  0  0  0  0  0  0  0
   26.5094  -18.6741   -9.6423 O   0  0  0  0  0  0  0  0  0  0  0  0
   29.9794  -20.1409  -12.0099 C   0  0  0  0  0  0  0  0  0  0  0  0
   29.4758  -21.3433  -11.2546 C   0  0  2  0  0  0  0  0  0  0  0  0
   30.4152  -22.5060  -11.6269 C   0  0  0  0  0  0  0  0  0  0  0  0
   28.1024  -21.7529  -11.6001 C   0  0  0  0  0  0  0  0  0  0  0  0
   26.9653  -20.8905  -11.1904 C   0  0  2  0  0  0  0  0  0  0  0  0
   26.6536  -20.9452   -9.7977 N   0  0  0  0  0  0  0  0  0  0  0  0
   25.7598  -21.0759  -12.0516 C   0  0  0  0  0  0  0  0  0  0  0  0
   25.8476  -21.1921  -13.3017 O   0  0  0  0  0  0  0  0  0  0  0  0
   21.7797  -20.5363  -10.6276 O   0  0  0  0  0  0  0  0  0  0  0  0
   22.0749  -21.6379  -11.4274 C   0  0  0  0  0  0  0  0  0  0  0  0
   23.2612  -21.3589  -12.3233 C   0  0  2  0  0  0  0  0  0  0  0  0
   24.4558  -21.1298  -11.4971 N   0  0  0  0  0  0  0  0  0  0  0  0
   23.0266  -20.2591  -13.2556 C   0  0  0  0  0  0  0  0  0  0  0  0
   22.0675  -20.3577  -14.2418 O   0  0  0  0  0  0  0  0  0  0  0  0
   23.6933  -19.2007  -13.1787 O   0  0  0  0  0  0  0  0  0  0  0  0
  2  1  1  1
  2  3  1  0
  4  5  1  0
  4  2  1  0
  5  7  1  0
  5  6  1  1
  7  8  2  0
 10  9  1  6
 11 10  1  0
 12 10  1  0
 13 12  1  6
 14 13  1  0
 14  7  1  0
 15 13  1  0
 15 16  2  0
 17 18  1  0
 19 18  1  1
 19 20  1  0
 19 21  1  0
 20 15  1  0
 21 22  1  0
 23 21  2  0
M  END
$$$$
