LLS.pdb
     RDKit          3D

 23 22  0  0  1  0  0  0  0  0999 V2000
   19.3173  -11.4411  -13.8446 C   0  0  0  0  0  0  0  0  0  0  0  0
   18.2136  -10.8904  -14.6911 C   0  0  2  0  0  0  0  0  0  0  0  0
   18.8355  -10.3181  -15.9473 C   0  0  0  0  0  0  0  0  0  0  0  0
   17.3976   -9.8334  -14.0294 C   0  0  0  0  0  0  0  0  0  0  0  0
   16.7142  -10.3130  -12.7695 C   0  0  2  0  0  0  0  0  0  0  0  0
   15.7745  -11.3498  -13.1261 N   0  0  0  0  0  0  0  0  0  0  0  0
   15.9640   -9.2140  -12.1146 C   0  0  0  0  0  0  0  0  0  0  0  0
   14.8434   -8.8147  -12.5375 O   0  0  0  0  0  0  0  0  0  0  0  0
   15.0932   -6.5308   -6.6395 C   0  0  0  0  0  0  0  0  0  0  0  0
   14.9787   -6.4451   -8.1393 C   0  0  2  0  0  0  0  0  0  0  0  0
   13.4795   -6.5889   -8.4623 C   0  0  0  0  0  0  0  0  0  0  0  0
   15.6952   -7.5063   -8.8701 C   0  0  0  0  0  0  0  0  0  0  0  0
   15.7607   -7.4469  -10.3522 C   0  0  2  0  0  0  0  0  0  0  0  0
   16.4637   -8.5330  -10.9570 N   0  0  0  0  0  0  0  0  0  0  0  0
   16.2199   -6.1192  -10.8577 C   0  0  0  0  0  0  0  0  0  0  0  0
   17.3891   -5.6994  -10.6557 O   0  0  0  0  0  0  0  0  0  0  0  0
   13.9121   -4.0267  -13.6087 O   0  0  0  0  0  0  0  0  0  0  0  0
   15.2885   -3.8207  -13.5495 C   0  0  0  0  0  0  0  0  0  0  0  0
   15.8027   -3.9768  -12.1356 C   0  0  2  0  0  0  0  0  0  0  0  0
   15.3556   -5.2677  -11.5916 N   0  0  0  0  0  0  0  0  0  0  0  0
   15.4310   -2.8632  -11.2665 C   0  0  0  0  0  0  0  0  0  0  0  0
   16.0175   -1.6234  -11.4121 O   0  0  0  0  0  0  0  0  0  0  0  0
   14.5695   -3.0113  -10.3683 O   0  0  0  0  0  0  0  0  0  0  0  0
  2  1  1  1
  2  3  1  0
  4  5  1  0
  4  2  1  0
  5  7  1  0
  5  6  1  6
  7  8  2  0
 10  9  1  1
 11 10  1  0
 12 10  1  0
 13 12  1  1
 14 13  1  0
 14  7  1  0
 15 13  1  0
 15 16  2  0
 17 18  1  0
 19 18  1  6
 19 20  1  0
 19 21  1  0
 20 15  1  0
 21 22  1  0
 23 21  2  0
M  END
$$$$
