LLS.pdb
     RDKit          3D

 23 22  0  0  1  0  0  0  0  0999 V2000
   23.0063  -16.6697  -18.6803 C   0  0  0  0  0  0  0  0  0  0  0  0
   24.2924  -17.2054  -18.1356 C   0  0  2  0  0  0  0  0  0  0  0  0
   25.3335  -17.1119  -19.2309 C   0  0  0  0  0  0  0  0  0  0  0  0
   24.2195  -18.6143  -17.6553 C   0  0  0  0  0  0  0  0  0  0  0  0
   23.1851  -18.8194  -16.5725 C   0  0  2  0  0  0  0  0  0  0  0  0
   22.9953  -17.5671  -15.8792 N   0  0  0  0  0  0  0  0  0  0  0  0
   23.6350  -19.8311  -15.5857 C   0  0  0  0  0  0  0  0  0  0  0  0
   24.0260  -20.9818  -15.9277 O   0  0  0  0  0  0  0  0  0  0  0  0
   25.2530  -20.5358   -9.6392 C   0  0  0  0  0  0  0  0  0  0  0  0
   25.0505  -21.1424  -11.0033 C   0  0  2  0  0  0  0  0  0  0  0  0
   26.3815  -21.8261  -11.3689 C   0  0  0  0  0  0  0  0  0  0  0  0
   24.7433  -20.1691  -12.0672 C   0  0  0  0  0  0  0  0  0  0  0  0
   23.9034  -20.5934  -13.2157 C   0  0  2  0  0  0  0  0  0  0  0  0
   23.6547  -19.5671  -14.1774 N   0  0  0  0  0  0  0  0  0  0  0  0
   22.6534  -21.2909  -12.7911 C   0  0  0  0  0  0  0  0  0  0  0  0
   22.6816  -22.3717  -12.1468 O   0  0  0  0  0  0  0  0  0  0  0  0
   18.4191  -21.1726  -10.9539 O   0  0  0  0  0  0  0  0  0  0  0  0
   19.6422  -20.6638  -11.3848 C   0  0  0  0  0  0  0  0  0  0  0  0
   20.1323  -21.3924  -12.6163 C   0  0  2  0  0  0  0  0  0  0  0  0
   21.3725  -20.7646  -13.0958 N   0  0  0  0  0  0  0  0  0  0  0  0
   19.1236  -21.4763  -13.6695 C   0  0  0  0  0  0  0  0  0  0  0  0
   17.9781  -22.2247  -13.4965 O   0  0  0  0  0  0  0  0  0  0  0  0
   19.2784  -20.8689  -14.7548 O   0  0  0  0  0  0  0  0  0  0  0  0
  2  1  1  6
  2  3  1  0
  4  5  1  0
  4  2  1  0
  5  7  1  0
  5  6  1  1
  7  8  2  0
 10  9  1  1
 11 10  1  0
 12 10  1  0
 13 12  1  1
 14 13  1  0
 14  7  1  0
 15 13  1  0
 15 16  2  0
 17 18  1  0
 19 18  1  1
 19 20  1  0
 19 21  1  0
 20 15  1  0
 21 22  1  0
 23 21  2  0
M  END
$$$$
