LLS.pdb
     RDKit          3D

 23 22  0  0  1  0  0  0  0  0999 V2000
   27.0994  -17.0604  -17.5933 C   0  0  0  0  0  0  0  0  0  0  0  0
   27.8039  -17.2345  -16.2852 C   0  0  2  0  0  0  0  0  0  0  0  0
   29.2725  -17.4590  -16.5767 C   0  0  0  0  0  0  0  0  0  0  0  0
   27.2960  -18.3644  -15.4568 C   0  0  0  0  0  0  0  0  0  0  0  0
   25.7966  -18.3352  -15.2685 C   0  0  2  0  0  0  0  0  0  0  0  0
   25.4581  -17.1747  -14.4787 N   0  0  0  0  0  0  0  0  0  0  0  0
   25.3231  -19.5407  -14.5459 C   0  0  0  0  0  0  0  0  0  0  0  0
   25.4094  -20.7006  -15.0372 O   0  0  0  0  0  0  0  0  0  0  0  0
   26.7793  -21.6880  -10.9757 C   0  0  0  0  0  0  0  0  0  0  0  0
   25.8717  -20.5233  -10.6761 C   0  0  2  0  0  0  0  0  0  0  0  0
   25.8395  -20.3904   -9.1417 C   0  0  0  0  0  0  0  0  0  0  0  0
   24.4819  -20.6952  -11.1370 C   0  0  0  0  0  0  0  0  0  0  0  0
   24.1856  -20.6123  -12.5895 C   0  0  2  0  0  0  0  0  0  0  0  0
   24.7361  -19.4667  -13.2409 N   0  0  0  0  0  0  0  0  0  0  0  0
   22.7363  -20.7998  -12.8954 C   0  0  0  0  0  0  0  0  0  0  0  0
   22.0752  -21.7589  -12.4188 O   0  0  0  0  0  0  0  0  0  0  0  0
   20.7409  -17.9714  -15.2003 O   0  0  0  0  0  0  0  0  0  0  0  0
   19.9791  -18.7318  -14.3161 C   0  0  0  0  0  0  0  0  0  0  0  0
   20.6149  -20.0822  -14.0708 C   0  0  2  0  0  0  0  0  0  0  0  0
   22.0363  -19.9015  -13.7402 N   0  0  0  0  0  0  0  0  0  0  0  0
   20.4298  -21.0111  -15.1828 C   0  0  0  0  0  0  0  0  0  0  0  0
   19.1809  -21.5087  -15.4909 O   0  0  0  0  0  0  0  0  0  0  0  0
   21.4040  -21.3760  -15.8818 O   0  0  0  0  0  0  0  0  0  0  0  0
  2  1  1  6
  2  3  1  0
  4  5  1  0
  4  2  1  0
  5  7  1  0
  5  6  1  1
  7  8  2  0
 10  9  1  1
 11 10  1  0
 12 10  1  0
 13 12  1  1
 14 13  1  0
 14  7  1  0
 15 13  1  0
 15 16  2  0
 17 18  1  0
 19 18  1  6
 19 20  1  0
 19 21  1  0
 20 15  1  0
 21 22  1  0
 23 21  2  0
M  END
$$$$
