LLS.pdb
     RDKit          3D

 23 22  0  0  1  0  0  0  0  0999 V2000
   17.8378  -12.6110  -10.9785 C   0  0  0  0  0  0  0  0  0  0  0  0
   17.0740  -12.1418  -12.1761 C   0  0  2  0  0  0  0  0  0  0  0  0
   17.9757  -12.2821  -13.3842 C   0  0  0  0  0  0  0  0  0  0  0  0
   16.5955  -10.7331  -12.0894 C   0  0  0  0  0  0  0  0  0  0  0  0
   15.6619  -10.4940  -10.9251 C   0  0  2  0  0  0  0  0  0  0  0  0
   14.4713  -11.2863  -11.1243 N   0  0  0  0  0  0  0  0  0  0  0  0
   15.2607   -9.0685  -10.8432 C   0  0  0  0  0  0  0  0  0  0  0  0
   14.4256   -8.5546  -11.6385 O   0  0  0  0  0  0  0  0  0  0  0  0
   12.7754   -6.0282   -8.3105 C   0  0  0  0  0  0  0  0  0  0  0  0
   14.0407   -6.5741   -7.7013 C   0  0  2  0  0  0  0  0  0  0  0  0
   14.1562   -5.9296   -6.3070 C   0  0  0  0  0  0  0  0  0  0  0  0
   15.2702   -6.2466   -8.4461 C   0  0  0  0  0  0  0  0  0  0  0  0
   15.4556   -6.7944   -9.8135 C   0  0  2  0  0  0  0  0  0  0  0  0
   15.7962   -8.1808   -9.8540 N   0  0  0  0  0  0  0  0  0  0  0  0
   16.3662   -5.9595  -10.6520 C   0  0  0  0  0  0  0  0  0  0  0  0
   17.6165   -5.9943  -10.5123 O   0  0  0  0  0  0  0  0  0  0  0  0
   17.2964   -3.8432  -14.7908 O   0  0  0  0  0  0  0  0  0  0  0  0
   16.5240   -4.6401  -13.9489 C   0  0  0  0  0  0  0  0  0  0  0  0
   16.7427   -4.2723  -12.4982 C   0  0  2  0  0  0  0  0  0  0  0  0
   15.8609   -5.0860  -11.6482 N   0  0  0  0  0  0  0  0  0  0  0  0
   16.5789   -2.8439  -12.2402 C   0  0  0  0  0  0  0  0  0  0  0  0
   17.6127   -1.9592  -12.4658 O   0  0  0  0  0  0  0  0  0  0  0  0
   15.4932   -2.3914  -11.8076 O   0  0  0  0  0  0  0  0  0  0  0  0
  2  1  1  1
  2  3  1  0
  4  5  1  0
  4  2  1  0
  5  7  1  0
  5  6  1  6
  7  8  2  0
 10  9  1  6
 11 10  1  0
 12 10  1  0
 13 12  1  1
 14 13  1  0
 14  7  1  0
 15 13  1  0
 15 16  2  0
 17 18  1  0
 19 18  1  6
 19 20  1  0
 19 21  1  0
 20 15  1  0
 21 22  1  0
 23 21  2  0
M  END
$$$$
