LLS.pdb
     RDKit          3D

 23 22  0  0  1  0  0  0  0  0999 V2000
   27.6085  -18.2723  -17.5255 C   0  0  0  0  0  0  0  0  0  0  0  0
   28.2731  -19.4933  -16.9729 C   0  0  2  0  0  0  0  0  0  0  0  0
   28.6778  -20.3682  -18.1404 C   0  0  0  0  0  0  0  0  0  0  0  0
   27.4244  -20.2896  -16.0420 C   0  0  0  0  0  0  0  0  0  0  0  0
   26.8046  -19.4561  -14.9440 C   0  0  2  0  0  0  0  0  0  0  0  0
   27.8589  -18.9879  -14.0756 N   0  0  0  0  0  0  0  0  0  0  0  0
   25.8577  -20.2578  -14.1315 C   0  0  0  0  0  0  0  0  0  0  0  0
   25.3571  -21.3393  -14.5483 O   0  0  0  0  0  0  0  0  0  0  0  0
   26.5048  -22.0300  -10.0731 C   0  0  0  0  0  0  0  0  0  0  0  0
   25.9478  -20.6326   -9.9893 C   0  0  2  0  0  0  0  0  0  0  0  0
   25.8164  -20.3143   -8.4878 C   0  0  0  0  0  0  0  0  0  0  0  0
   24.6151  -20.4667  -10.5976 C   0  0  0  0  0  0  0  0  0  0  0  0
   24.4726  -20.5822  -12.0709 C   0  0  2  0  0  0  0  0  0  0  0  0
   25.4491  -19.8558  -12.8182 N   0  0  0  0  0  0  0  0  0  0  0  0
   23.0808  -20.3133  -12.5397 C   0  0  0  0  0  0  0  0  0  0  0  0
   22.5548  -19.1741  -12.4413 O   0  0  0  0  0  0  0  0  0  0  0  0
   20.9474  -23.1105  -14.8901 O   0  0  0  0  0  0  0  0  0  0  0  0
   20.7494  -21.7338  -14.9672 C   0  0  0  0  0  0  0  0  0  0  0  0
   20.9236  -21.0814  -13.6137 C   0  0  2  0  0  0  0  0  0  0  0  0
   22.2854  -21.3338  -13.1199 N   0  0  0  0  0  0  0  0  0  0  0  0
   19.9099  -21.4939  -12.6462 C   0  0  0  0  0  0  0  0  0  0  0  0
   18.5707  -21.2608  -12.8791 O   0  0  0  0  0  0  0  0  0  0  0  0
   20.2367  -22.0695  -11.5819 O   0  0  0  0  0  0  0  0  0  0  0  0
  2  1  1  6
  2  3  1  0
  4  5  1  0
  4  2  1  0
  5  7  1  0
  5  6  1  1
  7  8  2  0
 10  9  1  1
 11 10  1  0
 12 10  1  0
 13 12  1  1
 14 13  1  0
 14  7  1  0
 15 13  1  0
 15 16  2  0
 17 18  1  0
 19 18  1  6
 19 20  1  0
 19 21  1  0
 20 15  1  0
 21 22  1  0
 23 21  2  0
M  END
$$$$
