LLS.pdb
     RDKit          3D

 23 22  0  0  1  0  0  0  0  0999 V2000
   16.7725   -9.5277  -20.3989 C   0  0  0  0  0  0  0  0  0  0  0  0
   15.9185   -8.8417  -19.3801 C   0  0  2  0  0  0  0  0  0  0  0  0
   15.4475   -7.5325  -19.9771 C   0  0  0  0  0  0  0  0  0  0  0  0
   16.6038   -8.5655  -18.0859 C   0  0  0  0  0  0  0  0  0  0  0  0
   17.1820   -9.8057  -17.4440 C   0  0  2  0  0  0  0  0  0  0  0  0
   16.1126  -10.5219  -16.7894 N   0  0  0  0  0  0  0  0  0  0  0  0
   18.1985   -9.4566  -16.4220 C   0  0  0  0  0  0  0  0  0  0  0  0
   17.8857   -9.0313  -15.2752 O   0  0  0  0  0  0  0  0  0  0  0  0
   23.9536  -10.7647  -14.6188 C   0  0  0  0  0  0  0  0  0  0  0  0
   22.7889   -9.8093  -14.5950 C   0  0  2  0  0  0  0  0  0  0  0  0
   22.1746   -9.9194  -13.1867 C   0  0  0  0  0  0  0  0  0  0  0  0
   21.7256  -10.1150  -15.5694 C   0  0  0  0  0  0  0  0  0  0  0  0
   20.5835   -9.1772  -15.7125 C   0  0  2  0  0  0  0  0  0  0  0  0
   19.6043   -9.5798  -16.6710 N   0  0  0  0  0  0  0  0  0  0  0  0
   21.0185   -7.7616  -15.9028 C   0  0  0  0  0  0  0  0  0  0  0  0
   21.6059   -7.3818  -16.9491 O   0  0  0  0  0  0  0  0  0  0  0  0
   20.1554   -3.1691  -15.1213 O   0  0  0  0  0  0  0  0  0  0  0  0
   19.8629   -4.5303  -15.0780 C   0  0  0  0  0  0  0  0  0  0  0  0
   21.1266   -5.3608  -15.1144 C   0  0  2  0  0  0  0  0  0  0  0  0
   20.7881   -6.7769  -14.9088 N   0  0  0  0  0  0  0  0  0  0  0  0
   22.1394   -4.9015  -14.1674 C   0  0  0  0  0  0  0  0  0  0  0  0
   22.9475   -3.8230  -14.4608 O   0  0  0  0  0  0  0  0  0  0  0  0
   22.2956   -5.4790  -13.0661 O   0  0  0  0  0  0  0  0  0  0  0  0
  2  1  1  6
  2  3  1  0
  4  5  1  0
  4  2  1  0
  5  7  1  0
  5  6  1  1
  7  8  2  0
 10  9  1  1
 11 10  1  0
 12 10  1  0
 13 12  1  6
 14 13  1  0
 14  7  1  0
 15 13  1  0
 15 16  2  0
 17 18  1  0
 19 18  1  1
 19 20  1  0
 19 21  1  0
 20 15  1  0
 21 22  1  0
 23 21  2  0
M  END
$$$$
