LLS.pdb
     RDKit          3D

 23 22  0  0  1  0  0  0  0  0999 V2000
   17.0235  -12.8499  -16.5505 C   0  0  0  0  0  0  0  0  0  0  0  0
   18.4502  -12.9208  -16.1063 C   0  0  2  0  0  0  0  0  0  0  0  0
   18.4677  -13.4517  -14.6885 C   0  0  0  0  0  0  0  0  0  0  0  0
   19.1738  -11.6186  -16.1452 C   0  0  0  0  0  0  0  0  0  0  0  0
   19.2088  -11.0000  -17.5238 C   0  0  2  0  0  0  0  0  0  0  0  0
   20.2430  -11.6529  -18.2912 N   0  0  0  0  0  0  0  0  0  0  0  0
   19.5275   -9.5531  -17.4545 C   0  0  0  0  0  0  0  0  0  0  0  0
   20.7133   -9.1247  -17.3896 O   0  0  0  0  0  0  0  0  0  0  0  0
   16.7944   -4.0425  -18.6066 C   0  0  0  0  0  0  0  0  0  0  0  0
   17.9879   -4.8392  -18.1475 C   0  0  2  0  0  0  0  0  0  0  0  0
   19.0582   -4.6753  -19.2431 C   0  0  0  0  0  0  0  0  0  0  0  0
   17.7352   -6.2826  -17.9848 C   0  0  0  0  0  0  0  0  0  0  0  0
   18.8175   -7.1520  -17.4582 C   0  0  2  0  0  0  0  0  0  0  0  0
   18.5080   -8.5463  -17.4569 N   0  0  0  0  0  0  0  0  0  0  0  0
   19.3455   -6.6845  -16.1422 C   0  0  0  0  0  0  0  0  0  0  0  0
   18.9357   -7.1645  -15.0533 O   0  0  0  0  0  0  0  0  0  0  0  0
   22.2153   -6.1998  -12.9483 O   0  0  0  0  0  0  0  0  0  0  0  0
   21.5730   -6.5246  -14.1409 C   0  0  0  0  0  0  0  0  0  0  0  0
   20.9686   -5.2974  -14.7863 C   0  0  2  0  0  0  0  0  0  0  0  0
   20.3372   -5.6744  -16.0596 N   0  0  0  0  0  0  0  0  0  0  0  0
   21.9291   -4.2103  -14.9572 C   0  0  0  0  0  0  0  0  0  0  0  0
   22.2951   -3.4134  -13.8927 O   0  0  0  0  0  0  0  0  0  0  0  0
   22.4418   -3.9784  -16.0770 O   0  0  0  0  0  0  0  0  0  0  0  0
  2  1  1  1
  2  3  1  0
  4  5  1  0
  4  2  1  0
  5  7  1  0
  5  6  1  6
  7  8  2  0
 10  9  1  6
 11 10  1  0
 12 10  1  0
 13 12  1  1
 14 13  1  0
 14  7  1  0
 15 13  1  0
 15 16  2  0
 17 18  1  0
 19 18  1  6
 19 20  1  0
 19 21  1  0
 20 15  1  0
 21 22  1  0
 23 21  2  0
M  END
$$$$
