LLS.pdb
     RDKit          3D

 23 22  0  0  1  0  0  0  0  0999 V2000
   18.0818  -10.0182  -21.6494 C   0  0  0  0  0  0  0  0  0  0  0  0
   16.9737  -10.0969  -20.6475 C   0  0  2  0  0  0  0  0  0  0  0  0
   15.9696   -9.0143  -20.9822 C   0  0  0  0  0  0  0  0  0  0  0  0
   17.4094   -9.9328  -19.2319 C   0  0  0  0  0  0  0  0  0  0  0  0
   18.5422  -10.8572  -18.8486 C   0  0  2  0  0  0  0  0  0  0  0  0
   18.0110  -12.1910  -18.6945 N   0  0  0  0  0  0  0  0  0  0  0  0
   19.1535  -10.4508  -17.5599 C   0  0  0  0  0  0  0  0  0  0  0  0
   18.6299  -10.7302  -16.4456 O   0  0  0  0  0  0  0  0  0  0  0  0
   23.9829  -10.7255  -14.2506 C   0  0  0  0  0  0  0  0  0  0  0  0
   22.8309   -9.8133  -14.5831 C   0  0  2  0  0  0  0  0  0  0  0  0
   21.8314   -9.9453  -13.4183 C   0  0  0  0  0  0  0  0  0  0  0  0
   22.1150  -10.1580  -15.8249 C   0  0  0  0  0  0  0  0  0  0  0  0
   20.9670   -9.3204  -16.2549 C   0  0  2  0  0  0  0  0  0  0  0  0
   20.3805   -9.7134  -17.4964 N   0  0  0  0  0  0  0  0  0  0  0  0
   21.2670   -7.8587  -16.2041 C   0  0  0  0  0  0  0  0  0  0  0  0
   22.0568   -7.3137  -17.0185 O   0  0  0  0  0  0  0  0  0  0  0  0
   19.7813   -3.4712  -14.8711 O   0  0  0  0  0  0  0  0  0  0  0  0
   19.5932   -4.8486  -14.9603 C   0  0  0  0  0  0  0  0  0  0  0  0
   20.9035   -5.5628  -15.2071 C   0  0  2  0  0  0  0  0  0  0  0  0
   20.6728   -7.0149  -15.2317 N   0  0  0  0  0  0  0  0  0  0  0  0
   21.9439   -5.1943  -14.2503 C   0  0  0  0  0  0  0  0  0  0  0  0
   22.8100   -4.1530  -14.5104 O   0  0  0  0  0  0  0  0  0  0  0  0
   22.0716   -5.8181  -13.1708 O   0  0  0  0  0  0  0  0  0  0  0  0
  2  1  1  6
  2  3  1  0
  4  5  1  0
  4  2  1  0
  5  7  1  0
  5  6  1  1
  7  8  2  0
 10  9  1  1
 11 10  1  0
 12 10  1  0
 13 12  1  6
 14 13  1  0
 14  7  1  0
 15 13  1  0
 15 16  2  0
 17 18  1  0
 19 18  1  1
 19 20  1  0
 19 21  1  0
 20 15  1  0
 21 22  1  0
 23 21  2  0
M  END
$$$$
