LLS.pdb
     RDKit          3D

 23 22  0  0  1  0  0  0  0  0999 V2000
   15.1503   -9.9926  -18.6644 C   0  0  0  0  0  0  0  0  0  0  0  0
   14.5188   -9.2006  -17.5637 C   0  0  2  0  0  0  0  0  0  0  0  0
   13.8464   -7.9959  -18.1874 C   0  0  0  0  0  0  0  0  0  0  0  0
   15.4696   -8.7357  -16.5145 C   0  0  0  0  0  0  0  0  0  0  0  0
   16.2580   -9.8622  -15.8869 C   0  0  2  0  0  0  0  0  0  0  0  0
   15.3970  -10.5634  -14.9640 N   0  0  0  0  0  0  0  0  0  0  0  0
   17.4236   -9.3444  -15.1300 C   0  0  0  0  0  0  0  0  0  0  0  0
   17.3037   -8.7794  -14.0073 O   0  0  0  0  0  0  0  0  0  0  0  0
   23.4156  -10.4565  -14.2593 C   0  0  0  0  0  0  0  0  0  0  0  0
   22.2671   -9.4897  -14.1319 C   0  0  2  0  0  0  0  0  0  0  0  0
   21.9387   -9.4120  -12.6289 C   0  0  0  0  0  0  0  0  0  0  0  0
   21.0385   -9.9018  -14.8350 C   0  0  0  0  0  0  0  0  0  0  0  0
   19.8871   -8.9660  -14.8891 C   0  0  2  0  0  0  0  0  0  0  0  0
   18.7639   -9.4523  -15.6252 N   0  0  0  0  0  0  0  0  0  0  0  0
   20.2827   -7.5859  -15.2992 C   0  0  0  0  0  0  0  0  0  0  0  0
   20.5563   -7.3005  -16.4941 O   0  0  0  0  0  0  0  0  0  0  0  0
   19.7713   -2.9339  -14.7985 O   0  0  0  0  0  0  0  0  0  0  0  0
   19.4907   -4.2615  -14.4835 C   0  0  0  0  0  0  0  0  0  0  0  0
   20.6853   -5.1497  -14.7521 C   0  0  2  0  0  0  0  0  0  0  0  0
   20.3681   -6.5300  -14.3568 N   0  0  0  0  0  0  0  0  0  0  0  0
   21.9087   -4.6695  -14.1146 C   0  0  0  0  0  0  0  0  0  0  0  0
   22.5976   -3.5893  -14.6252 O   0  0  0  0  0  0  0  0  0  0  0  0
   22.3589   -5.2304  -13.0882 O   0  0  0  0  0  0  0  0  0  0  0  0
  2  1  1  6
  2  3  1  0
  4  5  1  0
  4  2  1  0
  5  7  1  0
  5  6  1  1
  7  8  2  0
 10  9  1  1
 11 10  1  0
 12 10  1  0
 13 12  1  6
 14 13  1  0
 14  7  1  0
 15 13  1  0
 15 16  2  0
 17 18  1  0
 19 18  1  1
 19 20  1  0
 19 21  1  0
 20 15  1  0
 21 22  1  0
 23 21  2  0
M  END
$$$$
