LLS.pdb
     RDKit          3D

 23 22  0  0  1  0  0  0  0  0999 V2000
   36.7567   -6.1723  -12.3752 C   0  0  0  0  0  0  0  0  0  0  0  0
   37.1750   -5.4897  -13.6390 C   0  0  2  0  0  0  0  0  0  0  0  0
   37.0711   -3.9961  -13.4143 C   0  0  0  0  0  0  0  0  0  0  0  0
   36.3660   -5.8573  -14.8353 C   0  0  0  0  0  0  0  0  0  0  0  0
   36.2720   -7.3501  -15.0524 C   0  0  2  0  0  0  0  0  0  0  0  0
   37.5834   -7.8445  -15.4000 N   0  0  0  0  0  0  0  0  0  0  0  0
   35.3459   -7.6731  -16.1649 C   0  0  0  0  0  0  0  0  0  0  0  0
   35.6349   -7.4456  -17.3726 O   0  0  0  0  0  0  0  0  0  0  0  0
   34.1116  -11.0032  -18.7772 C   0  0  0  0  0  0  0  0  0  0  0  0
   33.5811  -11.0151  -17.3671 C   0  0  2  0  0  0  0  0  0  0  0  0
   32.8165  -12.3431  -17.2094 C   0  0  0  0  0  0  0  0  0  0  0  0
   32.6424   -9.9216  -17.0564 C   0  0  0  0  0  0  0  0  0  0  0  0
   33.1475   -8.5263  -17.0069 C   0  0  2  0  0  0  0  0  0  0  0  0
   34.0606   -8.2656  -15.9401 N   0  0  0  0  0  0  0  0  0  0  0  0
   32.0537   -7.5127  -17.0809 C   0  0  0  0  0  0  0  0  0  0  0  0
   31.3955   -7.1698  -16.0644 O   0  0  0  0  0  0  0  0  0  0  0  0
   32.2135   -4.0096  -18.6697 O   0  0  0  0  0  0  0  0  0  0  0  0
   31.1798   -4.7179  -19.2781 C   0  0  0  0  0  0  0  0  0  0  0  0
   30.6840   -5.8335  -18.3851 C   0  0  2  0  0  0  0  0  0  0  0  0
   31.7058   -6.8878  -18.3053 N   0  0  0  0  0  0  0  0  0  0  0  0
   29.3876   -6.3637  -18.7999 C   0  0  0  0  0  0  0  0  0  0  0  0
   28.2513   -5.5843  -18.7425 O   0  0  0  0  0  0  0  0  0  0  0  0
   29.2807   -7.5405  -19.2176 O   0  0  0  0  0  0  0  0  0  0  0  0
  2  1  1  1
  2  3  1  0
  4  5  1  0
  4  2  1  0
  5  7  1  0
  5  6  1  6
  7  8  2  0
 10  9  1  6
 11 10  1  0
 12 10  1  0
 13 12  1  1
 14 13  1  0
 14  7  1  0
 15 13  1  0
 15 16  2  0
 17 18  1  0
 19 18  1  6
 19 20  1  0
 19 21  1  0
 20 15  1  0
 21 22  1  0
 23 21  2  0
M  END
$$$$
