WQH.pdb
     RDKit          3D

 34 36  0  0  1  0  0  0  0  0999 V2000
   24.3702  -18.7662  -17.1291 N   0  0  0  0  0  0  0  0  0  0  0  0
   24.5729  -18.7456  -15.6771 C   0  0  1  0  0  0  0  0  0  0  0  0
   24.6419  -17.2882  -15.2779 C   0  0  0  0  0  0  0  0  0  0  0  0
   25.8652  -16.6654  -15.8347 C   0  0  0  0  0  0  0  0  0  0  0  0
   25.9411  -15.4817  -16.5445 C   0  0  0  0  0  0  0  0  0  0  0  0
   27.2475  -15.2704  -16.8720 N   0  0  0  0  0  0  0  0  0  0  0  0
   28.0081  -16.2564  -16.4085 C   0  0  0  0  0  0  0  0  0  0  0  0
   29.3530  -16.5311  -16.4560 C   0  0  0  0  0  0  0  0  0  0  0  0
   29.8178  -17.6765  -15.8532 C   0  0  0  0  0  0  0  0  0  0  0  0
   28.9774  -18.5660  -15.1983 C   0  0  0  0  0  0  0  0  0  0  0  0
   27.6259  -18.2833  -15.1545 C   0  0  0  0  0  0  0  0  0  0  0  0
   27.1493  -17.1389  -15.7547 C   0  0  0  0  0  0  0  0  0  0  0  0
   23.4659  -19.4520  -14.9899 C   0  0  0  0  0  0  0  0  0  0  0  0
   22.4426  -19.8525  -15.6390 O   0  0  0  0  0  0  0  0  0  0  0  0
   25.4141  -20.2855  -10.2488 N   0  0  0  0  0  0  0  0  0  0  0  0
   25.7413  -21.2140  -11.2591 C   0  0  0  0  0  0  0  0  0  0  0  0
   26.9478  -21.5097  -11.3973 O   0  0  0  0  0  0  0  0  0  0  0  0
   24.7046  -21.8021  -12.1081 C   0  0  0  0  0  0  0  0  0  0  0  0
   23.3025  -21.3670  -11.8018 C   0  0  0  0  0  0  0  0  0  0  0  0
   22.6193  -20.7672  -12.9919 C   0  0  2  0  0  0  0  0  0  0  0  0
   23.4639  -19.7263  -13.5993 N   0  0  0  0  0  0  0  0  0  0  0  0
   21.2618  -20.2343  -12.7335 C   0  0  0  0  0  0  0  0  0  0  0  0
   20.9295  -19.5679  -11.7228 O   0  0  0  0  0  0  0  0  0  0  0  0
   20.1781  -20.4469  -13.6552 N   0  0  0  0  0  0  0  0  0  0  0  0
   18.8217  -20.0408  -13.4117 C   0  0  1  0  0  0  0  0  0  0  0  0
   18.4717  -18.9754  -14.4295 C   0  0  0  0  0  0  0  0  0  0  0  0
   19.2396  -17.7359  -14.1824 C   0  0  0  0  0  0  0  0  0  0  0  0
   20.2306  -17.2373  -15.0163 C   0  0  0  0  0  0  0  0  0  0  0  0
   20.6993  -16.0978  -14.4621 N   0  0  0  0  0  0  0  0  0  0  0  0
   20.0261  -15.8780  -13.3097 C   0  0  0  0  0  0  0  0  0  0  0  0
   19.1508  -16.8778  -13.1603 N   0  0  0  0  0  0  0  0  0  0  0  0
   17.8619  -21.1135  -13.2821 C   0  0  0  0  0  0  0  0  0  0  0  0
   18.1896  -22.3021  -13.4789 O   0  0  0  0  0  0  0  0  0  0  0  0
   16.5551  -20.8617  -12.9369 O   0  0  0  0  0  0  0  0  0  0  0  0
  2  3  1  0
  2  1  1  6
  3  4  1  0
  4  5  2  0
  5  6  1  0
  7  8  2  0
  7  6  1  0
  9  8  1  0
 10  9  2  0
 11 10  1  0
 11 12  2  0
 12  4  1  0
 12  7  1  0
 13 21  1  0
 13  2  1  0
 14 13  2  0
 16 15  1  0
 17 16  2  0
 18 16  1  0
 19 18  1  0
 20 19  1  1
 20 21  1  0
 22 20  1  0
 22 23  2  0
 24 22  1  0
 25 24  1  0
 25 32  1  0
 25 26  1  6
 27 26  1  0
 28 27  2  0
 29 30  1  0
 29 28  1  0
 30 31  2  0
 31 27  1  0
 32 34  1  0
 33 32  2  0
M  END
$$$$
