WQH.pdb
     RDKit          3D

 34 36  0  0  1  0  0  0  0  0999 V2000
   16.0333  -14.9692    6.9756 N   0  0  0  0  0  0  0  0  0  0  0  0
   16.5898  -16.2565    6.5478 C   0  0  1  0  0  0  0  0  0  0  0  0
   17.9726  -15.9640    6.0088 C   0  0  0  0  0  0  0  0  0  0  0  0
   17.8746  -15.3181    4.6793 C   0  0  0  0  0  0  0  0  0  0  0  0
   17.8595  -13.9607    4.4184 C   0  0  0  0  0  0  0  0  0  0  0  0
   17.7581  -13.7928    3.0693 N   0  0  0  0  0  0  0  0  0  0  0  0
   17.7078  -14.9708    2.4568 C   0  0  0  0  0  0  0  0  0  0  0  0
   17.6067  -15.3637    1.1445 C   0  0  0  0  0  0  0  0  0  0  0  0
   17.5797  -16.7079    0.8548 C   0  0  0  0  0  0  0  0  0  0  0  0
   17.6509  -17.6828    1.8402 C   0  0  0  0  0  0  0  0  0  0  0  0
   17.7524  -17.2802    3.1577 C   0  0  0  0  0  0  0  0  0  0  0  0
   17.7804  -15.9367    3.4595 C   0  0  0  0  0  0  0  0  0  0  0  0
   16.6324  -17.2057    7.6852 C   0  0  0  0  0  0  0  0  0  0  0  0
   17.2842  -16.9263    8.7464 O   0  0  0  0  0  0  0  0  0  0  0  0
   12.2455  -18.8269    9.2494 N   0  0  0  0  0  0  0  0  0  0  0  0
   13.1045  -18.1143   10.1121 C   0  0  0  0  0  0  0  0  0  0  0  0
   12.6173  -17.1468   10.7357 O   0  0  0  0  0  0  0  0  0  0  0  0
   14.5085  -18.4974   10.2647 C   0  0  0  0  0  0  0  0  0  0  0  0
   14.9289  -19.7118    9.4918 C   0  0  0  0  0  0  0  0  0  0  0  0
   16.1862  -19.4832    8.7110 C   0  0  2  0  0  0  0  0  0  0  0  0
   15.9702  -18.4588    7.6767 N   0  0  0  0  0  0  0  0  0  0  0  0
   16.7796  -20.6985    8.1074 C   0  0  0  0  0  0  0  0  0  0  0  0
   17.1018  -20.8199    6.9001 O   0  0  0  0  0  0  0  0  0  0  0  0
   17.0429  -21.8784    8.8868 N   0  0  0  0  0  0  0  0  0  0  0  0
   17.6241  -23.0810    8.3575 C   0  0  1  0  0  0  0  0  0  0  0  0
   18.9017  -22.6965    7.6409 C   0  0  0  0  0  0  0  0  0  0  0  0
   18.8333  -23.0574    6.2084 C   0  0  0  0  0  0  0  0  0  0  0  0
   17.7291  -23.6205    5.5842 C   0  0  0  0  0  0  0  0  0  0  0  0
   18.0431  -23.8074    4.2835 N   0  0  0  0  0  0  0  0  0  0  0  0
   19.3097  -23.3759    4.0862 C   0  0  0  0  0  0  0  0  0  0  0  0
   19.7674  -22.9277    5.2599 N   0  0  0  0  0  0  0  0  0  0  0  0
   17.7419  -24.1803    9.2882 C   0  0  0  0  0  0  0  0  0  0  0  0
   17.3482  -24.0739   10.4682 O   0  0  0  0  0  0  0  0  0  0  0  0
   18.2912  -25.3812    8.9056 O   0  0  0  0  0  0  0  0  0  0  0  0
  2  3  1  0
  2  1  1  1
  3  4  1  0
  4  5  2  0
  5  6  1  0
  7  8  2  0
  7  6  1  0
  9  8  1  0
 10  9  2  0
 11 10  1  0
 11 12  2  0
 12  4  1  0
 12  7  1  0
 13 21  1  0
 13  2  1  0
 14 13  2  0
 16 15  1  0
 17 16  2  0
 18 16  1  0
 19 18  1  0
 20 19  1  6
 20 21  1  0
 22 20  1  0
 22 23  2  0
 24 22  1  0
 25 24  1  0
 25 32  1  0
 25 26  1  1
 27 26  1  0
 28 27  2  0
 29 30  1  0
 29 28  1  0
 30 31  2  0
 31 27  1  0
 32 34  1  0
 33 32  2  0
M  END
$$$$
