WQH.pdb
     RDKit          3D

 34 36  0  0  1  0  0  0  0  0999 V2000
   29.0849   -9.9759  -20.2162 N   0  0  0  0  0  0  0  0  0  0  0  0
   28.1231  -10.1687  -19.1265 C   0  0  1  0  0  0  0  0  0  0  0  0
   28.8098   -9.6959  -17.8644 C   0  0  0  0  0  0  0  0  0  0  0  0
   29.8444  -10.6723  -17.4514 C   0  0  0  0  0  0  0  0  0  0  0  0
   31.2147  -10.5068  -17.5261 C   0  0  0  0  0  0  0  0  0  0  0  0
   31.8021  -11.6393  -17.0456 N   0  0  0  0  0  0  0  0  0  0  0  0
   30.8790  -12.5176  -16.6687 C   0  0  0  0  0  0  0  0  0  0  0  0
   30.9227  -13.7810  -16.1314 C   0  0  0  0  0  0  0  0  0  0  0  0
   29.7397  -14.4251  -15.8540 C   0  0  0  0  0  0  0  0  0  0  0  0
   28.5023  -13.8452  -16.0971 C   0  0  0  0  0  0  0  0  0  0  0  0
   28.4660  -12.5745  -16.6376 C   0  0  0  0  0  0  0  0  0  0  0  0
   29.6447  -11.9200  -16.9193 C   0  0  0  0  0  0  0  0  0  0  0  0
   26.8791   -9.4086  -19.3935 C   0  0  0  0  0  0  0  0  0  0  0  0
   26.9077   -8.3201  -20.0593 O   0  0  0  0  0  0  0  0  0  0  0  0
   21.5337  -11.7976  -21.1282 N   0  0  0  0  0  0  0  0  0  0  0  0
   21.9557  -12.0165  -19.8001 C   0  0  0  0  0  0  0  0  0  0  0  0
   21.4337  -12.9693  -19.1822 O   0  0  0  0  0  0  0  0  0  0  0  0
   22.9636  -11.1578  -19.1772 C   0  0  0  0  0  0  0  0  0  0  0  0
   23.4156   -9.9939  -20.0079 C   0  0  0  0  0  0  0  0  0  0  0  0
   24.3636   -9.1005  -19.2690 C   0  0  2  0  0  0  0  0  0  0  0  0
   25.6021   -9.8244  -18.9406 N   0  0  0  0  0  0  0  0  0  0  0  0
   23.8076   -8.4652  -18.0521 C   0  0  0  0  0  0  0  0  0  0  0  0
   23.8811   -8.9413  -16.8928 O   0  0  0  0  0  0  0  0  0  0  0  0
   23.1142   -7.2061  -18.1062 N   0  0  0  0  0  0  0  0  0  0  0  0
   22.5105   -6.5691  -16.9687 C   0  0  1  0  0  0  0  0  0  0  0  0
   22.9278   -5.1133  -16.9827 C   0  0  0  0  0  0  0  0  0  0  0  0
   22.3780   -4.3946  -15.8130 C   0  0  0  0  0  0  0  0  0  0  0  0
   22.0828   -4.9795  -14.5896 C   0  0  0  0  0  0  0  0  0  0  0  0
   21.6018   -4.0131  -13.7773 N   0  0  0  0  0  0  0  0  0  0  0  0
   21.5914   -2.8478  -14.4638 C   0  0  0  0  0  0  0  0  0  0  0  0
   22.0634   -3.1005  -15.6890 N   0  0  0  0  0  0  0  0  0  0  0  0
   21.0954   -6.8068  -16.7974 C   0  0  0  0  0  0  0  0  0  0  0  0
   20.4638   -6.2966  -15.8488 O   0  0  0  0  0  0  0  0  0  0  0  0
   20.3959   -7.6025  -17.6737 O   0  0  0  0  0  0  0  0  0  0  0  0
  2  3  1  0
  2  1  1  6
  3  4  1  0
  4  5  2  0
  5  6  1  0
  7  8  2  0
  7  6  1  0
  9  8  1  0
 10  9  2  0
 11 10  1  0
 11 12  2  0
 12  4  1  0
 12  7  1  0
 13 21  1  0
 13  2  1  0
 14 13  2  0
 16 15  1  0
 17 16  2  0
 18 16  1  0
 19 18  1  0
 20 19  1  1
 20 21  1  0
 22 20  1  0
 22 23  2  0
 24 22  1  0
 25 24  1  0
 25 32  1  0
 25 26  1  6
 27 26  1  0
 28 27  2  0
 29 30  1  0
 29 28  1  0
 30 31  2  0
 31 27  1  0
 32 34  1  0
 33 32  2  0
M  END
$$$$
