WQH.pdb
     RDKit          3D

 34 36  0  0  1  0  0  0  0  0999 V2000
   18.4868  -14.4380  -20.8364 N   0  0  0  0  0  0  0  0  0  0  0  0
   18.7184  -13.0661  -20.3736 C   0  0  1  0  0  0  0  0  0  0  0  0
   18.0362  -12.1591  -21.3736 C   0  0  0  0  0  0  0  0  0  0  0  0
   19.0206  -11.6580  -22.3607 C   0  0  0  0  0  0  0  0  0  0  0  0
   19.9698  -12.4040  -23.0339 C   0  0  0  0  0  0  0  0  0  0  0  0
   20.6694  -11.5610  -23.8453 N   0  0  0  0  0  0  0  0  0  0  0  0
   20.2165  -10.3177  -23.7250 C   0  0  0  0  0  0  0  0  0  0  0  0
   20.5557   -9.1158  -24.2971 C   0  0  0  0  0  0  0  0  0  0  0  0
   19.8584   -7.9877  -23.9331 C   0  0  0  0  0  0  0  0  0  0  0  0
   18.8238   -8.0187  -23.0083 C   0  0  0  0  0  0  0  0  0  0  0  0
   18.4882   -9.2309  -22.4370 C   0  0  0  0  0  0  0  0  0  0  0  0
   19.1798  -10.3672  -22.7941 C   0  0  0  0  0  0  0  0  0  0  0  0
   18.1770  -12.8828  -19.0062 C   0  0  0  0  0  0  0  0  0  0  0  0
   17.0512  -13.3849  -18.6755 O   0  0  0  0  0  0  0  0  0  0  0  0
   15.7517  -14.1643  -15.3276 N   0  0  0  0  0  0  0  0  0  0  0  0
   16.3364  -13.3828  -14.3092 C   0  0  0  0  0  0  0  0  0  0  0  0
   15.6570  -13.1810  -13.2797 O   0  0  0  0  0  0  0  0  0  0  0  0
   17.6840  -12.8327  -14.4596 C   0  0  0  0  0  0  0  0  0  0  0  0
   18.3267  -13.0679  -15.7940 C   0  0  0  0  0  0  0  0  0  0  0  0
   18.2506  -11.8651  -16.6830 C   0  0  2  0  0  0  0  0  0  0  0  0
   18.8524  -12.1558  -17.9941 N   0  0  0  0  0  0  0  0  0  0  0  0
   18.8368  -10.6285  -16.1169 C   0  0  0  0  0  0  0  0  0  0  0  0
   19.9045  -10.5728  -15.4588 O   0  0  0  0  0  0  0  0  0  0  0  0
   18.2048   -9.3472  -16.2835 N   0  0  0  0  0  0  0  0  0  0  0  0
   18.8897   -8.0895  -16.1677 C   0  0  1  0  0  0  0  0  0  0  0  0
   20.1273   -8.3166  -15.3249 C   0  0  0  0  0  0  0  0  0  0  0  0
   20.8561   -7.0490  -15.1038 C   0  0  0  0  0  0  0  0  0  0  0  0
   21.9424   -6.6177  -15.8520 C   0  0  0  0  0  0  0  0  0  0  0  0
   22.3362   -5.4246  -15.3552 N   0  0  0  0  0  0  0  0  0  0  0  0
   21.5241   -5.1064  -14.3214 C   0  0  0  0  0  0  0  0  0  0  0  0
   20.6389   -6.0995  -14.1871 N   0  0  0  0  0  0  0  0  0  0  0  0
   19.1056   -7.3791  -17.4075 C   0  0  0  0  0  0  0  0  0  0  0  0
   19.5970   -7.9500  -18.4031 O   0  0  0  0  0  0  0  0  0  0  0  0
   18.7765   -6.0500  -17.5331 O   0  0  0  0  0  0  0  0  0  0  0  0
  2  3  1  0
  2  1  1  6
  3  4  1  0
  4  5  2  0
  5  6  1  0
  7  8  2  0
  7  6  1  0
  9  8  1  0
 10  9  2  0
 11 10  1  0
 11 12  2  0
 12  4  1  0
 12  7  1  0
 13 21  1  0
 13  2  1  0
 14 13  2  0
 16 15  1  0
 17 16  2  0
 18 16  1  0
 19 18  1  0
 20 19  1  1
 20 21  1  0
 22 20  1  0
 22 23  2  0
 24 22  1  0
 25 24  1  0
 25 32  1  0
 25 26  1  6
 27 26  1  0
 28 27  2  0
 29 30  1  0
 29 28  1  0
 30 31  2  0
 31 27  1  0
 32 34  1  0
 33 32  2  0
M  END
$$$$
