WQH.pdb
     RDKit          3D

 34 36  0  0  1  0  0  0  0  0999 V2000
   28.2703  -21.2651  -17.4045 N   0  0  0  0  0  0  0  0  0  0  0  0
   27.5684  -20.3065  -16.5453 C   0  0  1  0  0  0  0  0  0  0  0  0
   26.4539  -19.7207  -17.3837 C   0  0  0  0  0  0  0  0  0  0  0  0
   26.9887  -18.6668  -18.2768 C   0  0  0  0  0  0  0  0  0  0  0  0
   28.2512  -18.6203  -18.8375 C   0  0  0  0  0  0  0  0  0  0  0  0
   28.3355  -17.4871  -19.5908 N   0  0  0  0  0  0  0  0  0  0  0  0
   27.1938  -16.8092  -19.5399 C   0  0  0  0  0  0  0  0  0  0  0  0
   26.7526  -15.6342  -20.0978 C   0  0  0  0  0  0  0  0  0  0  0  0
   25.4725  -15.2107  -19.8267 C   0  0  0  0  0  0  0  0  0  0  0  0
   24.6094  -15.9274  -19.0095 C   0  0  0  0  0  0  0  0  0  0  0  0
   25.0599  -17.1082  -18.4518 C   0  0  0  0  0  0  0  0  0  0  0  0
   26.3401  -17.5419  -18.7165 C   0  0  0  0  0  0  0  0  0  0  0  0
   27.0478  -20.9823  -15.3333 C   0  0  0  0  0  0  0  0  0  0  0  0
   26.5241  -22.1439  -15.4059 O   0  0  0  0  0  0  0  0  0  0  0  0
   29.2499  -21.1668   -9.5578 N   0  0  0  0  0  0  0  0  0  0  0  0
   29.6454  -21.6156  -10.8352 C   0  0  0  0  0  0  0  0  0  0  0  0
   30.7941  -22.0960  -10.9440 O   0  0  0  0  0  0  0  0  0  0  0  0
   28.7424  -21.5180  -11.9825 C   0  0  0  0  0  0  0  0  0  0  0  0
   27.3847  -20.9556  -11.6832 C   0  0  0  0  0  0  0  0  0  0  0  0
   26.4661  -21.0256  -12.8639 C   0  0  2  0  0  0  0  0  0  0  0  0
   27.0928  -20.4026  -14.0407 N   0  0  0  0  0  0  0  0  0  0  0  0
   25.1171  -20.4553  -12.6439 C   0  0  0  0  0  0  0  0  0  0  0  0
   24.8231  -19.2392  -12.7477 O   0  0  0  0  0  0  0  0  0  0  0  0
   23.9970  -21.2814  -12.2807 N   0  0  0  0  0  0  0  0  0  0  0  0
   22.6917  -20.7739  -11.9600 C   0  0  1  0  0  0  0  0  0  0  0  0
   21.6717  -21.7331  -12.5371 C   0  0  0  0  0  0  0  0  0  0  0  0
   21.5808  -21.5872  -14.0059 C   0  0  0  0  0  0  0  0  0  0  0  0
   22.2281  -20.6087  -14.7473 C   0  0  0  0  0  0  0  0  0  0  0  0
   21.9045  -20.7953  -16.0457 N   0  0  0  0  0  0  0  0  0  0  0  0
   21.0759  -21.8612  -16.1277 C   0  0  0  0  0  0  0  0  0  0  0  0
   20.8939  -22.3235  -14.8863 N   0  0  0  0  0  0  0  0  0  0  0  0
   22.4859  -20.4082  -10.5771 C   0  0  0  0  0  0  0  0  0  0  0  0
   23.3088  -20.7274   -9.6941 O   0  0  0  0  0  0  0  0  0  0  0  0
   21.3768  -19.6954  -10.1867 O   0  0  0  0  0  0  0  0  0  0  0  0
  2  3  1  0
  2  1  1  6
  3  4  1  0
  4  5  2  0
  5  6  1  0
  7  8  2  0
  7  6  1  0
  9  8  1  0
 10  9  2  0
 11 10  1  0
 11 12  2  0
 12  4  1  0
 12  7  1  0
 13 21  1  0
 13  2  1  0
 14 13  2  0
 16 15  1  0
 17 16  2  0
 18 16  1  0
 19 18  1  0
 20 19  1  1
 20 21  1  0
 22 20  1  0
 22 23  2  0
 24 22  1  0
 25 24  1  0
 25 32  1  0
 25 26  1  1
 27 26  1  0
 28 27  2  0
 29 30  1  0
 29 28  1  0
 30 31  2  0
 31 27  1  0
 32 34  1  0
 33 32  2  0
M  END
$$$$
