WQH.pdb
     RDKit          3D

 34 36  0  0  1  0  0  0  0  0999 V2000
   27.6755  -18.7819  -11.2416 N   0  0  0  0  0  0  0  0  0  0  0  0
   27.6545  -19.9694  -12.1013 C   0  0  1  0  0  0  0  0  0  0  0  0
   27.2059  -21.1195  -11.2271 C   0  0  0  0  0  0  0  0  0  0  0  0
   28.1041  -21.2495  -10.0564 C   0  0  0  0  0  0  0  0  0  0  0  0
   27.7787  -21.0128   -8.7340 C   0  0  0  0  0  0  0  0  0  0  0  0
   28.8891  -21.2482   -7.9788 N   0  0  0  0  0  0  0  0  0  0  0  0
   29.9046  -21.6224   -8.7497 C   0  0  0  0  0  0  0  0  0  0  0  0
   31.2117  -21.9693   -8.5093 C   0  0  0  0  0  0  0  0  0  0  0  0
   32.0130  -22.3135   -9.5727 C   0  0  0  0  0  0  0  0  0  0  0  0
   31.5495  -22.3230  -10.8809 C   0  0  0  0  0  0  0  0  0  0  0  0
   30.2339  -21.9729  -11.1152 C   0  0  0  0  0  0  0  0  0  0  0  0
   29.4222  -21.6265  -10.0578 C   0  0  0  0  0  0  0  0  0  0  0  0
   26.7398  -19.7615  -13.2488 C   0  0  0  0  0  0  0  0  0  0  0  0
   25.7195  -19.0021  -13.1429 O   0  0  0  0  0  0  0  0  0  0  0  0
   27.2231  -18.8686  -18.6665 N   0  0  0  0  0  0  0  0  0  0  0  0
   26.0403  -19.5924  -18.9249 C   0  0  0  0  0  0  0  0  0  0  0  0
   25.3719  -19.2599  -19.9274 O   0  0  0  0  0  0  0  0  0  0  0  0
   25.6184  -20.6864  -18.0494 C   0  0  0  0  0  0  0  0  0  0  0  0
   26.4876  -20.9182  -16.8495 C   0  0  0  0  0  0  0  0  0  0  0  0
   26.0589  -20.1021  -15.6692 C   0  0  2  0  0  0  0  0  0  0  0  0
   26.9270  -20.3750  -14.5127 N   0  0  0  0  0  0  0  0  0  0  0  0
   24.6366  -20.2536  -15.2850 C   0  0  0  0  0  0  0  0  0  0  0  0
   24.1592  -21.2325  -14.6606 O   0  0  0  0  0  0  0  0  0  0  0  0
   23.6551  -19.2534  -15.6095 N   0  0  0  0  0  0  0  0  0  0  0  0
   22.2733  -19.3249  -15.2227 C   0  0  1  0  0  0  0  0  0  0  0  0
   21.7385  -17.9091  -15.1664 C   0  0  0  0  0  0  0  0  0  0  0  0
   20.3115  -17.8983  -14.7785 C   0  0  0  0  0  0  0  0  0  0  0  0
   19.5711  -19.0243  -14.4470 C   0  0  0  0  0  0  0  0  0  0  0  0
   18.3162  -18.6193  -14.1527 N   0  0  0  0  0  0  0  0  0  0  0  0
   18.2602  -17.2752  -14.2928 C   0  0  0  0  0  0  0  0  0  0  0  0
   19.4740  -16.8609  -14.6707 N   0  0  0  0  0  0  0  0  0  0  0  0
   21.4643  -20.2641  -15.9656 C   0  0  0  0  0  0  0  0  0  0  0  0
   20.3877  -20.6970  -15.5046 O   0  0  0  0  0  0  0  0  0  0  0  0
   21.8524  -20.7127  -17.2060 O   0  0  0  0  0  0  0  0  0  0  0  0
  2  3  1  0
  2  1  1  1
  3  4  1  0
  4  5  2  0
  5  6  1  0
  7  8  2  0
  7  6  1  0
  9  8  1  0
 10  9  2  0
 11 10  1  0
 11 12  2  0
 12  4  1  0
 12  7  1  0
 13 21  1  0
 13  2  1  0
 14 13  2  0
 16 15  1  0
 17 16  2  0
 18 16  1  0
 19 18  1  0
 20 19  1  6
 20 21  1  0
 22 20  1  0
 22 23  2  0
 24 22  1  0
 25 24  1  0
 25 32  1  0
 25 26  1  6
 27 26  1  0
 28 27  2  0
 29 30  1  0
 29 28  1  0
 30 31  2  0
 31 27  1  0
 32 34  1  0
 33 32  2  0
M  END
$$$$
