WQH.pdb
     RDKit          3D

 34 36  0  0  1  0  0  0  0  0999 V2000
   28.1719  -20.9810   -9.4937 N   0  0  0  0  0  0  0  0  0  0  0  0
   26.7913  -21.4548   -9.6318 C   0  0  1  0  0  0  0  0  0  0  0  0
   26.0941  -21.1181   -8.3323 C   0  0  0  0  0  0  0  0  0  0  0  0
   26.9222  -20.1811   -7.5382 C   0  0  0  0  0  0  0  0  0  0  0  0
   27.4691  -18.9885   -7.9731 C   0  0  0  0  0  0  0  0  0  0  0  0
   28.1575  -18.4374   -6.9333 N   0  0  0  0  0  0  0  0  0  0  0  0
   28.0783  -19.2155   -5.8592 C   0  0  0  0  0  0  0  0  0  0  0  0
   28.5747  -19.1359   -4.5809 C   0  0  0  0  0  0  0  0  0  0  0  0
   28.2919  -20.1493   -3.6952 C   0  0  0  0  0  0  0  0  0  0  0  0
   27.5230  -21.2504   -4.0456 C   0  0  0  0  0  0  0  0  0  0  0  0
   27.0271  -21.3238   -5.3329 C   0  0  0  0  0  0  0  0  0  0  0  0
   27.3040  -20.3146   -6.2282 C   0  0  0  0  0  0  0  0  0  0  0  0
   26.1351  -20.8065  -10.7918 C   0  0  0  0  0  0  0  0  0  0  0  0
   25.9624  -19.5424  -10.8235 O   0  0  0  0  0  0  0  0  0  0  0  0
   26.6812  -18.6509  -15.8141 N   0  0  0  0  0  0  0  0  0  0  0  0
   27.5592  -19.0727  -14.7938 C   0  0  0  0  0  0  0  0  0  0  0  0
   28.5927  -18.3944  -14.6099 O   0  0  0  0  0  0  0  0  0  0  0  0
   27.2658  -20.2585  -13.9881 C   0  0  0  0  0  0  0  0  0  0  0  0
   25.9426  -20.9086  -14.2631 C   0  0  0  0  0  0  0  0  0  0  0  0
   25.0311  -20.8701  -13.0755 C   0  0  2  0  0  0  0  0  0  0  0  0
   25.6646  -21.5245  -11.9196 N   0  0  0  0  0  0  0  0  0  0  0  0
   23.6806  -21.4342  -13.3027 C   0  0  0  0  0  0  0  0  0  0  0  0
   23.3747  -22.6451  -13.1757 O   0  0  0  0  0  0  0  0  0  0  0  0
   22.5732  -20.6073  -13.7013 N   0  0  0  0  0  0  0  0  0  0  0  0
   21.1973  -20.9148  -13.4247 C   0  0  1  0  0  0  0  0  0  0  0  0
   21.0928  -21.2718  -11.9566 C   0  0  0  0  0  0  0  0  0  0  0  0
   19.7078  -21.6500  -11.6020 C   0  0  0  0  0  0  0  0  0  0  0  0
   18.6099  -21.5172  -12.4405 C   0  0  0  0  0  0  0  0  0  0  0  0
   17.5248  -21.9635  -11.7708 N   0  0  0  0  0  0  0  0  0  0  0  0
   17.9208  -22.3684  -10.5426 C   0  0  0  0  0  0  0  0  0  0  0  0
   19.2407  -22.1706  -10.4619 N   0  0  0  0  0  0  0  0  0  0  0  0
   20.2335  -19.9473  -13.8976 C   0  0  0  0  0  0  0  0  0  0  0  0
   20.4605  -18.7215  -13.8296 O   0  0  0  0  0  0  0  0  0  0  0  0
   19.0337  -20.3439  -14.4394 O   0  0  0  0  0  0  0  0  0  0  0  0
  2  3  1  0
  2  1  1  1
  3  4  1  0
  4  5  2  0
  5  6  1  0
  7  8  2  0
  7  6  1  0
  9  8  1  0
 10  9  2  0
 11 10  1  0
 11 12  2  0
 12  4  1  0
 12  7  1  0
 13 21  1  0
 13  2  1  0
 14 13  2  0
 16 15  1  0
 17 16  2  0
 18 16  1  0
 19 18  1  0
 20 19  1  6
 20 21  1  0
 22 20  1  0
 22 23  2  0
 24 22  1  0
 25 24  1  0
 25 32  1  0
 25 26  1  1
 27 26  1  0
 28 27  2  0
 29 30  1  0
 29 28  1  0
 30 31  2  0
 31 27  1  0
 32 34  1  0
 33 32  2  0
M  END
$$$$
