WQH.pdb
     RDKit          3D

 34 36  0  0  1  0  0  0  0  0999 V2000
   17.6892  -13.0960    3.8802 N   0  0  0  0  0  0  0  0  0  0  0  0
   17.6407  -14.3038    4.7100 C   0  0  1  0  0  0  0  0  0  0  0  0
   18.4557  -15.3514    3.9844 C   0  0  0  0  0  0  0  0  0  0  0  0
   17.6057  -16.0710    3.0076 C   0  0  0  0  0  0  0  0  0  0  0  0
   16.2418  -15.9281    2.8349 C   0  0  0  0  0  0  0  0  0  0  0  0
   15.8535  -16.7712    1.8364 N   0  0  0  0  0  0  0  0  0  0  0  0
   16.8975  -17.4437    1.3637 C   0  0  0  0  0  0  0  0  0  0  0  0
   17.0610  -18.3927    0.3843 C   0  0  0  0  0  0  0  0  0  0  0  0
   18.3203  -18.8929    0.1489 C   0  0  0  0  0  0  0  0  0  0  0  0
   19.4329  -18.4739    0.8651 C   0  0  0  0  0  0  0  0  0  0  0  0
   19.2610  -17.5193    1.8486 C   0  0  0  0  0  0  0  0  0  0  0  0
   18.0043  -17.0113    2.0929 C   0  0  0  0  0  0  0  0  0  0  0  0
   18.1815  -14.0253    6.0615 C   0  0  0  0  0  0  0  0  0  0  0  0
   19.2676  -13.3717    6.2097 O   0  0  0  0  0  0  0  0  0  0  0  0
   15.2452  -13.9173   11.7749 N   0  0  0  0  0  0  0  0  0  0  0  0
   16.6224  -13.7966   12.0553 C   0  0  0  0  0  0  0  0  0  0  0  0
   16.9459  -13.5105   13.2282 O   0  0  0  0  0  0  0  0  0  0  0  0
   17.6261  -13.9982   11.0097 C   0  0  0  0  0  0  0  0  0  0  0  0
   17.0788  -14.2804    9.6422 C   0  0  0  0  0  0  0  0  0  0  0  0
   18.1420  -14.2599    8.5877 C   0  0  2  0  0  0  0  0  0  0  0  0
   17.5484  -14.4535    7.2551 N   0  0  0  0  0  0  0  0  0  0  0  0
   19.2503  -15.2202    8.7955 C   0  0  0  0  0  0  0  0  0  0  0  0
   19.2346  -16.4256    8.4450 O   0  0  0  0  0  0  0  0  0  0  0  0
   20.4765  -14.8317    9.4392 N   0  0  0  0  0  0  0  0  0  0  0  0
   21.5523  -15.7364    9.7368 C   0  0  1  0  0  0  0  0  0  0  0  0
   22.7618  -14.9046   10.1094 C   0  0  0  0  0  0  0  0  0  0  0  0
   23.9295  -15.7670   10.3920 C   0  0  0  0  0  0  0  0  0  0  0  0
   24.0473  -17.0945   10.0049 C   0  0  0  0  0  0  0  0  0  0  0  0
   25.2439  -17.5452   10.4410 N   0  0  0  0  0  0  0  0  0  0  0  0
   25.8688  -16.5342   11.0864 C   0  0  0  0  0  0  0  0  0  0  0  0
   25.0586  -15.4713   11.0451 N   0  0  0  0  0  0  0  0  0  0  0  0
   21.2319  -16.8089   10.6509 C   0  0  0  0  0  0  0  0  0  0  0  0
   20.4562  -16.6294   11.6125 O   0  0  0  0  0  0  0  0  0  0  0  0
   21.7703  -18.0641   10.4923 O   0  0  0  0  0  0  0  0  0  0  0  0
  2  3  1  0
  2  1  1  6
  3  4  1  0
  4  5  2  0
  5  6  1  0
  7  8  2  0
  7  6  1  0
  9  8  1  0
 10  9  2  0
 11 10  1  0
 11 12  2  0
 12  4  1  0
 12  7  1  0
 13 21  1  0
 13  2  1  0
 14 13  2  0
 16 15  1  0
 17 16  2  0
 18 16  1  0
 19 18  1  0
 20 19  1  1
 20 21  1  0
 22 20  1  0
 22 23  2  0
 24 22  1  0
 25 24  1  0
 25 32  1  0
 25 26  1  1
 27 26  1  0
 28 27  2  0
 29 30  1  0
 29 28  1  0
 30 31  2  0
 31 27  1  0
 32 34  1  0
 33 32  2  0
M  END
$$$$
