WQH.pdb
     RDKit          3D

 34 36  0  0  1  0  0  0  0  0999 V2000
   28.5200  -20.7807  -16.2858 N   0  0  0  0  0  0  0  0  0  0  0  0
   27.4993  -20.0852  -15.4957 C   0  0  1  0  0  0  0  0  0  0  0  0
   26.6178  -19.3570  -16.4861 C   0  0  0  0  0  0  0  0  0  0  0  0
   27.3296  -18.1768  -17.0292 C   0  0  0  0  0  0  0  0  0  0  0  0
   27.9356  -18.0740  -18.2673 C   0  0  0  0  0  0  0  0  0  0  0  0
   28.4734  -16.8254  -18.3700 N   0  0  0  0  0  0  0  0  0  0  0  0
   28.2423  -16.1274  -17.2633 C   0  0  0  0  0  0  0  0  0  0  0  0
   28.5551  -14.8549  -16.8515 C   0  0  0  0  0  0  0  0  0  0  0  0
   28.1481  -14.4425  -15.6042 C   0  0  0  0  0  0  0  0  0  0  0  0
   27.4324  -15.2653  -14.7455 C   0  0  0  0  0  0  0  0  0  0  0  0
   27.1213  -16.5438  -15.1664 C   0  0  0  0  0  0  0  0  0  0  0  0
   27.5238  -16.9674  -16.4136 C   0  0  0  0  0  0  0  0  0  0  0  0
   26.7275  -21.0529  -14.6805 C   0  0  0  0  0  0  0  0  0  0  0  0
   27.2078  -22.2015  -14.3997 O   0  0  0  0  0  0  0  0  0  0  0  0
   24.7576  -20.8889   -9.4899 N   0  0  0  0  0  0  0  0  0  0  0  0
   25.7531  -20.2009  -10.2148 C   0  0  0  0  0  0  0  0  0  0  0  0
   26.2407  -19.1771   -9.6892 O   0  0  0  0  0  0  0  0  0  0  0  0
   26.1911  -20.6720  -11.5291 C   0  0  0  0  0  0  0  0  0  0  0  0
   25.5245  -21.9241  -12.0157 C   0  0  0  0  0  0  0  0  0  0  0  0
   24.7250  -21.6967  -13.2615 C   0  0  2  0  0  0  0  0  0  0  0  0
   25.4347  -20.7798  -14.1678 N   0  0  0  0  0  0  0  0  0  0  0  0
   23.3396  -21.2222  -13.0400 C   0  0  0  0  0  0  0  0  0  0  0  0
   23.0289  -20.1128  -12.5414 O   0  0  0  0  0  0  0  0  0  0  0  0
   22.1998  -22.0259  -13.3921 N   0  0  0  0  0  0  0  0  0  0  0  0
   20.8358  -21.6230  -13.1888 C   0  0  1  0  0  0  0  0  0  0  0  0
   20.0622  -21.9717  -14.4432 C   0  0  0  0  0  0  0  0  0  0  0  0
   20.4550  -21.0949  -15.5673 C   0  0  0  0  0  0  0  0  0  0  0  0
   21.4114  -20.0918  -15.4940 C   0  0  0  0  0  0  0  0  0  0  0  0
   21.4928  -19.5117  -16.7115 N   0  0  0  0  0  0  0  0  0  0  0  0
   20.6141  -20.1277  -17.5348 C   0  0  0  0  0  0  0  0  0  0  0  0
   19.9989  -21.0790  -16.8246 N   0  0  0  0  0  0  0  0  0  0  0  0
   20.2343  -22.0572  -11.9485 C   0  0  0  0  0  0  0  0  0  0  0  0
   20.6894  -23.0323  -11.3153 O   0  0  0  0  0  0  0  0  0  0  0  0
   19.1405  -21.4107  -11.4231 O   0  0  0  0  0  0  0  0  0  0  0  0
  2  3  1  0
  2  1  1  6
  3  4  1  0
  4  5  2  0
  5  6  1  0
  7  8  2  0
  7  6  1  0
  9  8  1  0
 10  9  2  0
 11 10  1  0
 11 12  2  0
 12  4  1  0
 12  7  1  0
 13 21  1  0
 13  2  1  0
 14 13  2  0
 16 15  1  0
 17 16  2  0
 18 16  1  0
 19 18  1  0
 20 19  1  1
 20 21  1  0
 22 20  1  0
 22 23  2  0
 24 22  1  0
 25 24  1  0
 25 32  1  0
 25 26  1  6
 27 26  1  0
 28 27  2  0
 29 30  1  0
 29 28  1  0
 30 31  2  0
 31 27  1  0
 32 34  1  0
 33 32  2  0
M  END
$$$$
