WQH.pdb
     RDKit          3D

 34 36  0  0  1  0  0  0  0  0999 V2000
   26.8486  -19.8113  -11.1907 N   0  0  0  0  0  0  0  0  0  0  0  0
   26.6115  -21.2408  -11.4145 C   0  0  1  0  0  0  0  0  0  0  0  0
   26.1573  -21.8093  -10.0884 C   0  0  0  0  0  0  0  0  0  0  0  0
   26.5406  -20.8975   -8.9856 C   0  0  0  0  0  0  0  0  0  0  0  0
   25.7125  -20.0179   -8.3140 C   0  0  0  0  0  0  0  0  0  0  0  0
   26.4595  -19.3700   -7.3755 N   0  0  0  0  0  0  0  0  0  0  0  0
   27.7195  -19.7901   -7.4133 C   0  0  0  0  0  0  0  0  0  0  0  0
   28.8547  -19.4763   -6.7066 C   0  0  0  0  0  0  0  0  0  0  0  0
   30.0285  -20.1228   -7.0158 C   0  0  0  0  0  0  0  0  0  0  0  0
   30.1085  -21.0812   -8.0166 C   0  0  0  0  0  0  0  0  0  0  0  0
   28.9629  -21.3917   -8.7232 C   0  0  0  0  0  0  0  0  0  0  0  0
   27.7817  -20.7506   -8.4219 C   0  0  0  0  0  0  0  0  0  0  0  0
   25.5942  -21.4371  -12.4743 C   0  0  0  0  0  0  0  0  0  0  0  0
   24.9654  -20.4431  -12.9697 O   0  0  0  0  0  0  0  0  0  0  0  0
   26.5885  -23.7980  -17.4346 N   0  0  0  0  0  0  0  0  0  0  0  0
   25.1881  -23.8920  -17.5755 C   0  0  0  0  0  0  0  0  0  0  0  0
   24.7230  -23.8324  -18.7340 O   0  0  0  0  0  0  0  0  0  0  0  0
   24.3211  -24.0513  -16.4075 C   0  0  0  0  0  0  0  0  0  0  0  0
   25.0118  -23.9598  -15.0795 C   0  0  0  0  0  0  0  0  0  0  0  0
   24.4402  -22.8802  -14.2132 C   0  0  2  0  0  0  0  0  0  0  0  0
   25.2552  -22.7090  -12.9998 N   0  0  0  0  0  0  0  0  0  0  0  0
   23.0156  -23.0569  -13.8486 C   0  0  0  0  0  0  0  0  0  0  0  0
   22.2405  -23.9020  -14.3594 O   0  0  0  0  0  0  0  0  0  0  0  0
   22.3860  -22.2433  -12.8432 N   0  0  0  0  0  0  0  0  0  0  0  0
   21.5176  -21.1354  -13.1304 C   0  0  1  0  0  0  0  0  0  0  0  0
   22.3742  -20.0079  -13.6677 C   0  0  0  0  0  0  0  0  0  0  0  0
   21.5569  -18.8050  -13.9360 C   0  0  0  0  0  0  0  0  0  0  0  0
   21.1602  -18.3806  -15.1964 C   0  0  0  0  0  0  0  0  0  0  0  0
   20.4332  -17.2527  -15.0404 N   0  0  0  0  0  0  0  0  0  0  0  0
   20.3693  -16.9680  -13.7197 C   0  0  0  0  0  0  0  0  0  0  0  0
   21.0536  -17.9167  -13.0720 N   0  0  0  0  0  0  0  0  0  0  0  0
   20.3431  -21.4484  -13.9122 C   0  0  0  0  0  0  0  0  0  0  0  0
   20.4375  -21.9897  -15.0333 O   0  0  0  0  0  0  0  0  0  0  0  0
   19.0813  -21.1612  -13.4476 O   0  0  0  0  0  0  0  0  0  0  0  0
  2  3  1  0
  2  1  1  1
  3  4  1  0
  4  5  2  0
  5  6  1  0
  7  8  2  0
  7  6  1  0
  9  8  1  0
 10  9  2  0
 11 10  1  0
 11 12  2  0
 12  4  1  0
 12  7  1  0
 13 21  1  0
 13  2  1  0
 14 13  2  0
 16 15  1  0
 17 16  2  0
 18 16  1  0
 19 18  1  0
 20 19  1  1
 20 21  1  0
 22 20  1  0
 22 23  2  0
 24 22  1  0
 25 24  1  0
 25 32  1  0
 25 26  1  6
 27 26  1  0
 28 27  2  0
 29 30  1  0
 29 28  1  0
 30 31  2  0
 31 27  1  0
 32 34  1  0
 33 32  2  0
M  END
$$$$
