WQH.pdb
     RDKit          3D

 34 36  0  0  1  0  0  0  0  0999 V2000
   28.3777  -21.3584  -11.1595 N   0  0  0  0  0  0  0  0  0  0  0  0
   27.1048  -21.3361  -10.4323 C   0  0  1  0  0  0  0  0  0  0  0  0
   27.2060  -20.2055   -9.4324 C   0  0  0  0  0  0  0  0  0  0  0  0
   28.2803  -20.4874   -8.4522 C   0  0  0  0  0  0  0  0  0  0  0  0
   29.4940  -21.0975   -8.7081 C   0  0  0  0  0  0  0  0  0  0  0  0
   30.1867  -21.1642   -7.5358 N   0  0  0  0  0  0  0  0  0  0  0  0
   29.4791  -20.6290   -6.5467 C   0  0  0  0  0  0  0  0  0  0  0  0
   29.6993  -20.4435   -5.2036 C   0  0  0  0  0  0  0  0  0  0  0  0
   28.7231  -19.8360   -4.4491 C   0  0  0  0  0  0  0  0  0  0  0  0
   27.5226  -19.4032   -4.9949 C   0  0  0  0  0  0  0  0  0  0  0  0
   27.3080  -19.5931   -6.3463 C   0  0  0  0  0  0  0  0  0  0  0  0
   28.2788  -20.2003   -7.1117 C   0  0  0  0  0  0  0  0  0  0  0  0
   25.9753  -21.1399  -11.3716 C   0  0  0  0  0  0  0  0  0  0  0  0
   25.9684  -20.1615  -12.1911 O   0  0  0  0  0  0  0  0  0  0  0  0
   23.9880  -25.6501  -14.9019 N   0  0  0  0  0  0  0  0  0  0  0  0
   23.1600  -24.5758  -15.2895 C   0  0  0  0  0  0  0  0  0  0  0  0
   22.4635  -24.7298  -16.3158 O   0  0  0  0  0  0  0  0  0  0  0  0
   23.1244  -23.3336  -14.5168 C   0  0  0  0  0  0  0  0  0  0  0  0
   23.9984  -23.3116  -13.2984 C   0  0  0  0  0  0  0  0  0  0  0  0
   23.9087  -22.0140  -12.5561 C   0  0  2  0  0  0  0  0  0  0  0  0
   24.8514  -22.0017  -11.4261 N   0  0  0  0  0  0  0  0  0  0  0  0
   22.5507  -21.6506  -12.0899 C   0  0  0  0  0  0  0  0  0  0  0  0
   22.1977  -21.5754  -10.8875 O   0  0  0  0  0  0  0  0  0  0  0  0
   21.4912  -21.3440  -13.0132 N   0  0  0  0  0  0  0  0  0  0  0  0
   20.1699  -20.9409  -12.6186 C   0  0  1  0  0  0  0  0  0  0  0  0
   19.8931  -21.5443  -11.2574 C   0  0  0  0  0  0  0  0  0  0  0  0
   19.6378  -22.9969  -11.3652 C   0  0  0  0  0  0  0  0  0  0  0  0
   19.7173  -23.7311  -12.5402 C   0  0  0  0  0  0  0  0  0  0  0  0
   19.4176  -25.0147  -12.2441 N   0  0  0  0  0  0  0  0  0  0  0  0
   19.1552  -25.0946  -10.9196 C   0  0  0  0  0  0  0  0  0  0  0  0
   19.2937  -23.8666  -10.4091 N   0  0  0  0  0  0  0  0  0  0  0  0
   19.8847  -19.5294  -12.7407 C   0  0  0  0  0  0  0  0  0  0  0  0
   20.6683  -18.7600  -13.3346 O   0  0  0  0  0  0  0  0  0  0  0  0
   18.7400  -18.9856  -12.2073 O   0  0  0  0  0  0  0  0  0  0  0  0
  2  3  1  0
  2  1  1  6
  3  4  1  0
  4  5  2  0
  5  6  1  0
  7  8  2  0
  7  6  1  0
  9  8  1  0
 10  9  2  0
 11 10  1  0
 11 12  2  0
 12  4  1  0
 12  7  1  0
 13 21  1  0
 13  2  1  0
 14 13  2  0
 16 15  1  0
 17 16  2  0
 18 16  1  0
 19 18  1  0
 20 19  1  1
 20 21  1  0
 22 20  1  0
 22 23  2  0
 24 22  1  0
 25 24  1  0
 25 32  1  0
 25 26  1  1
 27 26  1  0
 28 27  2  0
 29 30  1  0
 29 28  1  0
 30 31  2  0
 31 27  1  0
 32 34  1  0
 33 32  2  0
M  END
$$$$
