WQH.pdb
     RDKit          3D

 34 36  0  0  1  0  0  0  0  0999 V2000
   25.5889  -19.4725  -11.6830 N   0  0  0  0  0  0  0  0  0  0  0  0
   25.8404  -20.9153  -11.7540 C   0  0  1  0  0  0  0  0  0  0  0  0
   25.3130  -21.5030  -10.4638 C   0  0  0  0  0  0  0  0  0  0  0  0
   25.9901  -20.8763   -9.3048 C   0  0  0  0  0  0  0  0  0  0  0  0
   25.4037  -20.0922   -8.3291 C   0  0  0  0  0  0  0  0  0  0  0  0
   26.3758  -19.7179   -7.4496 N   0  0  0  0  0  0  0  0  0  0  0  0
   27.5503  -20.2220   -7.8129 C   0  0  0  0  0  0  0  0  0  0  0  0
   28.8212  -20.1564   -7.2960 C   0  0  0  0  0  0  0  0  0  0  0  0
   29.8368  -20.8172   -7.9466 C   0  0  0  0  0  0  0  0  0  0  0  0
   29.6249  -21.5484   -9.1072 C   0  0  0  0  0  0  0  0  0  0  0  0
   28.3442  -21.6099   -9.6213 C   0  0  0  0  0  0  0  0  0  0  0  0
   27.3194  -20.9520   -8.9780 C   0  0  0  0  0  0  0  0  0  0  0  0
   25.1695  -21.4999  -12.9392 C   0  0  0  0  0  0  0  0  0  0  0  0
   23.9642  -21.1937  -13.2261 O   0  0  0  0  0  0  0  0  0  0  0  0
   27.6264  -25.5721  -17.4059 N   0  0  0  0  0  0  0  0  0  0  0  0
   26.3843  -25.1236  -17.9018 C   0  0  0  0  0  0  0  0  0  0  0  0
   26.0614  -25.4874  -19.0532 O   0  0  0  0  0  0  0  0  0  0  0  0
   25.5149  -24.2660  -17.0956 C   0  0  0  0  0  0  0  0  0  0  0  0
   26.0728  -23.8586  -15.7645 C   0  0  0  0  0  0  0  0  0  0  0  0
   25.1282  -22.9897  -14.9927 C   0  0  2  0  0  0  0  0  0  0  0  0
   25.8013  -22.4169  -13.8161 N   0  0  0  0  0  0  0  0  0  0  0  0
   23.8631  -23.6441  -14.5870 C   0  0  0  0  0  0  0  0  0  0  0  0
   23.6303  -24.1191  -13.4484 O   0  0  0  0  0  0  0  0  0  0  0  0
   22.7615  -23.7916  -15.5001 N   0  0  0  0  0  0  0  0  0  0  0  0
   21.5351  -23.0487  -15.4102 C   0  0  1  0  0  0  0  0  0  0  0  0
   21.6679  -22.0818  -14.2521 C   0  0  0  0  0  0  0  0  0  0  0  0
   20.9931  -22.6068  -13.0454 C   0  0  0  0  0  0  0  0  0  0  0  0
   20.3795  -23.8484  -12.9567 C   0  0  0  0  0  0  0  0  0  0  0  0
   19.8774  -23.9706  -11.7084 N   0  0  0  0  0  0  0  0  0  0  0  0
   20.1633  -22.8400  -11.0233 C   0  0  0  0  0  0  0  0  0  0  0  0
   20.8364  -22.0311  -11.8483 N   0  0  0  0  0  0  0  0  0  0  0  0
   21.0617  -22.4722  -16.6480 C   0  0  0  0  0  0  0  0  0  0  0  0
   21.8101  -21.7768  -17.3658 O   0  0  0  0  0  0  0  0  0  0  0  0
   19.7707  -22.6704  -17.0778 O   0  0  0  0  0  0  0  0  0  0  0  0
  2  3  1  0
  2  1  1  1
  3  4  1  0
  4  5  2  0
  5  6  1  0
  7  8  2  0
  7  6  1  0
  9  8  1  0
 10  9  2  0
 11 10  1  0
 11 12  2  0
 12  4  1  0
 12  7  1  0
 13 21  1  0
 13  2  1  0
 14 13  2  0
 16 15  1  0
 17 16  2  0
 18 16  1  0
 19 18  1  0
 20 19  1  1
 20 21  1  0
 22 20  1  0
 22 23  2  0
 24 22  1  0
 25 24  1  0
 25 32  1  0
 25 26  1  1
 27 26  1  0
 28 27  2  0
 29 30  1  0
 29 28  1  0
 30 31  2  0
 31 27  1  0
 32 34  1  0
 33 32  2  0
M  END
$$$$
