EYW.pdb
     RDKit          3D

 36 38  0  0  1  0  0  0  0  0999 V2000
   22.1756  -25.1558  -14.3369 N   0  0  0  0  0  0  0  0  0  0  0  0
   20.9618  -25.9760  -14.3077 C   0  0  1  0  0  0  0  0  0  0  0  0
   21.3332  -27.2439  -15.0528 C   0  0  0  0  0  0  0  0  0  0  0  0
   21.3970  -27.0712  -16.5294 C   0  0  0  0  0  0  0  0  0  0  0  0
   20.0351  -26.8568  -17.0743 C   0  0  0  0  0  0  0  0  0  0  0  0
   19.7808  -25.7431  -17.6159 O   0  0  0  0  0  0  0  0  0  0  0  0
   20.6291  -26.2504  -12.8988 C   0  0  0  0  0  0  0  0  0  0  0  0
   21.5748  -26.3269  -12.0597 O   0  0  0  0  0  0  0  0  0  0  0  0
   19.0141  -27.7899  -17.0345 O   0  0  0  0  0  0  0  0  0  0  0  0
   16.8479  -23.9852   -5.3015 O   0  0  0  0  0  0  0  0  0  0  0  0
   17.4062  -24.2591   -6.5636 C   0  0  0  0  0  0  0  0  0  0  0  0
   16.6872  -24.0251   -7.7132 C   0  0  0  0  0  0  0  0  0  0  0  0
   17.2287  -24.2921   -8.9414 C   0  0  0  0  0  0  0  0  0  0  0  0
   18.4971  -24.7989   -9.1099 C   0  0  0  0  0  0  0  0  0  0  0  0
   19.0638  -25.0702  -10.4206 C   0  0  0  0  0  0  0  0  0  0  0  0
   19.0921  -26.4875  -10.8994 C   0  0  2  0  0  0  0  0  0  0  0  0
   19.3270  -26.4374  -12.3804 N   0  0  0  0  0  0  0  0  0  0  0  0
   17.8852  -27.2885  -10.6514 C   0  0  0  0  0  0  0  0  0  0  0  0
   16.8410  -27.1403  -11.3903 O   0  0  0  0  0  0  0  0  0  0  0  0
   19.2225  -25.0334   -7.9387 C   0  0  0  0  0  0  0  0  0  0  0  0
   18.6800  -24.7661   -6.6915 C   0  0  0  0  0  0  0  0  0  0  0  0
   17.7232  -28.2673   -9.6406 N   0  0  0  0  0  0  0  0  0  0  0  0
   16.4856  -28.9714   -9.4191 C   0  0  1  0  0  0  0  0  0  0  0  0
   16.6631  -30.1820   -8.5349 C   0  0  0  0  0  0  0  0  0  0  0  0
   17.6504  -31.0764   -9.1803 C   0  0  0  0  0  0  0  0  0  0  0  0
   17.8141  -31.1912  -10.5582 C   0  0  0  0  0  0  0  0  0  0  0  0
   18.7655  -32.0684  -10.8622 N   0  0  0  0  0  0  0  0  0  0  0  0
   19.2536  -32.5556   -9.7001 C   0  0  0  0  0  0  0  0  0  0  0  0
   20.2576  -33.4871   -9.4269 C   0  0  0  0  0  0  0  0  0  0  0  0
   20.5496  -33.7865   -8.1130 C   0  0  0  0  0  0  0  0  0  0  0  0
   19.8590  -33.1741   -7.0784 C   0  0  0  0  0  0  0  0  0  0  0  0
   18.8508  -32.2387   -7.3392 C   0  0  0  0  0  0  0  0  0  0  0  0
   18.5684  -31.9472   -8.6477 C   0  0  0  0  0  0  0  0  0  0  0  0
   15.4259  -28.0870   -8.9348 C   0  0  0  0  0  0  0  0  0  0  0  0
   15.5874  -26.8645   -8.8570 O   0  0  0  0  0  0  0  0  0  0  0  0
   14.1902  -28.5934   -8.5444 O   0  0  0  0  0  0  0  0  0  0  0  0
  2  1  1  1
  3  2  1  0
  4  5  1  0
  4  3  1  0
  5  6  2  0
  7  2  1  0
  8  7  2  0
  9  5  1  0
 10 11  1  0
 11 12  2  0
 12 13  1  0
 14 15  1  0
 14 13  2  0
 16 15  1  6
 16 17  1  0
 17  7  1  0
 18 19  2  0
 18 16  1  0
 20 14  1  0
 21 20  2  0
 21 11  1  0
 22 18  1  0
 23 22  1  0
 23 24  1  1
 24 25  1  0
 25 26  2  0
 25 33  1  0
 26 27  1  0
 27 28  1  0
 28 29  2  0
 29 30  1  0
 31 30  2  0
 32 31  1  0
 33 32  2  0
 33 28  1  0
 34 23  1  0
 35 34  2  0
 36 34  1  0
M  END
$$$$
