EYW.pdb
     RDKit          3D

 36 38  0  0  1  0  0  0  0  0999 V2000
   17.4493  -12.3356  -20.3262 N   0  0  0  0  0  0  0  0  0  0  0  0
   17.6557  -12.4040  -18.8772 C   0  0  1  0  0  0  0  0  0  0  0  0
   19.0413  -12.9983  -18.7110 C   0  0  0  0  0  0  0  0  0  0  0  0
   19.1224  -14.4364  -19.0845 C   0  0  0  0  0  0  0  0  0  0  0  0
   20.4627  -14.9730  -18.7480 C   0  0  0  0  0  0  0  0  0  0  0  0
   21.3701  -14.8972  -19.6251 O   0  0  0  0  0  0  0  0  0  0  0  0
   17.5831  -11.0339  -18.3398 C   0  0  0  0  0  0  0  0  0  0  0  0
   18.0762  -10.0902  -19.0257 O   0  0  0  0  0  0  0  0  0  0  0  0
   20.7980  -15.5547  -17.5380 O   0  0  0  0  0  0  0  0  0  0  0  0
   12.6706   -8.6153  -21.6252 O   0  0  0  0  0  0  0  0  0  0  0  0
   13.3613   -8.6884  -20.4016 C   0  0  0  0  0  0  0  0  0  0  0  0
   13.9521   -7.5684  -19.8629 C   0  0  0  0  0  0  0  0  0  0  0  0
   14.6251   -7.6384  -18.6733 C   0  0  0  0  0  0  0  0  0  0  0  0
   14.7545   -8.8020  -17.9499 C   0  0  0  0  0  0  0  0  0  0  0  0
   15.4648   -8.8611  -16.6831 C   0  0  0  0  0  0  0  0  0  0  0  0
   16.9175   -9.2192  -16.7027 C   0  0  2  0  0  0  0  0  0  0  0  0
   17.0002  -10.6619  -17.1065 N   0  0  0  0  0  0  0  0  0  0  0  0
   17.6522   -9.0512  -15.4412 C   0  0  0  0  0  0  0  0  0  0  0  0
   17.4774   -9.8782  -14.4696 O   0  0  0  0  0  0  0  0  0  0  0  0
   14.1515   -9.9355  -18.5017 C   0  0  0  0  0  0  0  0  0  0  0  0
   13.4690   -9.8721  -19.7065 C   0  0  0  0  0  0  0  0  0  0  0  0
   18.5908   -8.0317  -15.1484 N   0  0  0  0  0  0  0  0  0  0  0  0
   19.2455   -7.9091  -13.8706 C   0  0  1  0  0  0  0  0  0  0  0  0
   20.4652   -7.0218  -13.9323 C   0  0  0  0  0  0  0  0  0  0  0  0
   21.1637   -7.1168  -12.6307 C   0  0  0  0  0  0  0  0  0  0  0  0
   22.1805   -8.0277  -12.3566 C   0  0  0  0  0  0  0  0  0  0  0  0
   22.6255   -7.8973  -11.1108 N   0  0  0  0  0  0  0  0  0  0  0  0
   21.9186   -6.9030  -10.5300 C   0  0  0  0  0  0  0  0  0  0  0  0
   21.9710   -6.3442   -9.2511 C   0  0  0  0  0  0  0  0  0  0  0  0
   21.1126   -5.3111   -8.9393 C   0  0  0  0  0  0  0  0  0  0  0  0
   20.2114   -4.8333   -9.8785 C   0  0  0  0  0  0  0  0  0  0  0  0
   20.1494   -5.3847  -11.1635 C   0  0  0  0  0  0  0  0  0  0  0  0
   21.0066   -6.4102  -11.4641 C   0  0  0  0  0  0  0  0  0  0  0  0
   18.3209   -7.5008  -12.8131 C   0  0  0  0  0  0  0  0  0  0  0  0
   18.2736   -8.0927  -11.7297 O   0  0  0  0  0  0  0  0  0  0  0  0
   17.4583   -6.4235  -12.9897 O   0  0  0  0  0  0  0  0  0  0  0  0
  2  1  1  6
  3  2  1  0
  4  5  1  0
  4  3  1  0
  5  6  2  0
  7  2  1  0
  8  7  2  0
  9  5  1  0
 10 11  1  0
 11 12  2  0
 12 13  1  0
 14 15  1  0
 14 13  2  0
 16 15  1  1
 16 17  1  0
 17  7  1  0
 18 19  2  0
 18 16  1  0
 20 14  1  0
 21 20  2  0
 21 11  1  0
 22 18  1  0
 23 22  1  0
 23 24  1  6
 24 25  1  0
 25 26  2  0
 25 33  1  0
 26 27  1  0
 27 28  1  0
 28 29  2  0
 29 30  1  0
 31 30  2  0
 32 31  1  0
 33 32  2  0
 33 28  1  0
 34 23  1  0
 35 34  2  0
 36 34  1  0
M  END
$$$$
