EYW.pdb
     RDKit          3D

 36 38  0  0  1  0  0  0  0  0999 V2000
   27.1429  -27.1303  -20.5239 N   0  0  0  0  0  0  0  0  0  0  0  0
   26.3574  -26.1682  -19.7466 C   0  0  1  0  0  0  0  0  0  0  0  0
   25.6608  -25.3089  -20.7844 C   0  0  0  0  0  0  0  0  0  0  0  0
   26.5140  -24.2156  -21.3239 C   0  0  0  0  0  0  0  0  0  0  0  0
   27.4845  -24.7648  -22.3007 C   0  0  0  0  0  0  0  0  0  0  0  0
   27.1024  -25.7071  -23.0520 O   0  0  0  0  0  0  0  0  0  0  0  0
   25.3922  -26.9219  -18.9272 C   0  0  0  0  0  0  0  0  0  0  0  0
   24.8184  -27.9265  -19.4427 O   0  0  0  0  0  0  0  0  0  0  0  0
   28.7863  -24.3210  -22.4532 O   0  0  0  0  0  0  0  0  0  0  0  0
   28.5934  -32.1638  -16.1662 O   0  0  0  0  0  0  0  0  0  0  0  0
   27.6595  -31.1198  -16.0342 C   0  0  0  0  0  0  0  0  0  0  0  0
   26.3387  -31.3920  -15.7605 C   0  0  0  0  0  0  0  0  0  0  0  0
   25.4292  -30.3773  -15.6329 C   0  0  0  0  0  0  0  0  0  0  0  0
   25.7617  -29.0484  -15.7646 C   0  0  0  0  0  0  0  0  0  0  0  0
   24.7875  -27.9796  -15.6182 C   0  0  0  0  0  0  0  0  0  0  0  0
   24.0740  -27.5004  -16.8431 C   0  0  2  0  0  0  0  0  0  0  0  0
   25.0390  -26.6277  -17.5901 N   0  0  0  0  0  0  0  0  0  0  0  0
   22.8365  -26.7381  -16.6260 C   0  0  0  0  0  0  0  0  0  0  0  0
   22.8792  -25.5580  -16.1123 O   0  0  0  0  0  0  0  0  0  0  0  0
   27.1046  -28.7786  -16.0415 C   0  0  0  0  0  0  0  0  0  0  0  0
   28.0310  -29.8012  -16.1729 C   0  0  0  0  0  0  0  0  0  0  0  0
   21.5232  -27.1674  -16.9376 N   0  0  0  0  0  0  0  0  0  0  0  0
   20.3439  -26.4377  -16.5460 C   0  0  1  0  0  0  0  0  0  0  0  0
   19.5105  -26.0133  -17.7309 C   0  0  0  0  0  0  0  0  0  0  0  0
   18.3582  -25.2360  -17.2221 C   0  0  0  0  0  0  0  0  0  0  0  0
   18.4096  -23.8798  -16.9107 C   0  0  0  0  0  0  0  0  0  0  0  0
   17.2353  -23.4384  -16.4710 N   0  0  0  0  0  0  0  0  0  0  0  0
   16.3804  -24.4847  -16.4787 C   0  0  0  0  0  0  0  0  0  0  0  0
   15.0324  -24.5915  -16.1296 C   0  0  0  0  0  0  0  0  0  0  0  0
   14.4067  -25.8141  -16.2521 C   0  0  0  0  0  0  0  0  0  0  0  0
   15.1026  -26.9208  -16.7141 C   0  0  0  0  0  0  0  0  0  0  0  0
   16.4536  -26.8267  -17.0675 C   0  0  0  0  0  0  0  0  0  0  0  0
   17.0664  -25.6077  -16.9430 C   0  0  0  0  0  0  0  0  0  0  0  0
   19.5543  -27.1588  -15.5479 C   0  0  0  0  0  0  0  0  0  0  0  0
   18.8125  -26.5664  -14.7571 O   0  0  0  0  0  0  0  0  0  0  0  0
   19.6088  -28.5459  -15.4542 O   0  0  0  0  0  0  0  0  0  0  0  0
  2  1  1  6
  3  2  1  0
  4  5  1  0
  4  3  1  0
  5  6  2  0
  7  2  1  0
  8  7  2  0
  9  5  1  0
 10 11  1  0
 11 12  2  0
 12 13  1  0
 14 15  1  0
 14 13  2  0
 16 15  1  1
 16 17  1  0
 17  7  1  0
 18 19  2  0
 18 16  1  0
 20 14  1  0
 21 20  2  0
 21 11  1  0
 22 18  1  0
 23 22  1  0
 23 24  1  6
 24 25  1  0
 25 26  2  0
 25 33  1  0
 26 27  1  0
 27 28  1  0
 28 29  2  0
 29 30  1  0
 31 30  2  0
 32 31  1  0
 33 32  2  0
 33 28  1  0
 34 23  1  0
 35 34  2  0
 36 34  1  0
M  END
$$$$
