EYW.pdb
     RDKit          3D

 36 38  0  0  1  0  0  0  0  0999 V2000
   28.1786  -21.0327  -17.2651 N   0  0  0  0  0  0  0  0  0  0  0  0
   27.9278  -21.8107  -16.0491 C   0  0  1  0  0  0  0  0  0  0  0  0
   29.3029  -22.2381  -15.5724 C   0  0  0  0  0  0  0  0  0  0  0  0
   29.8604  -23.3968  -16.3212 C   0  0  0  0  0  0  0  0  0  0  0  0
   28.8456  -24.4730  -16.4194 C   0  0  0  0  0  0  0  0  0  0  0  0
   28.2078  -24.5905  -17.5047 O   0  0  0  0  0  0  0  0  0  0  0  0
   27.2623  -20.9308  -15.0723 C   0  0  0  0  0  0  0  0  0  0  0  0
   27.4998  -19.6877  -15.1208 O   0  0  0  0  0  0  0  0  0  0  0  0
   28.5414  -25.3647  -15.4059 O   0  0  0  0  0  0  0  0  0  0  0  0
   20.5102  -24.3547  -13.9403 O   0  0  0  0  0  0  0  0  0  0  0  0
   21.4526  -23.3100  -13.9532 C   0  0  0  0  0  0  0  0  0  0  0  0
   21.4127  -22.3191  -12.9992 C   0  0  0  0  0  0  0  0  0  0  0  0
   22.3282  -21.3018  -13.0112 C   0  0  0  0  0  0  0  0  0  0  0  0
   23.3275  -21.2006  -13.9520 C   0  0  0  0  0  0  0  0  0  0  0  0
   24.2990  -20.1194  -13.9487 C   0  0  0  0  0  0  0  0  0  0  0  0
   25.6035  -20.3428  -13.2506 C   0  0  2  0  0  0  0  0  0  0  0  0
   26.3616  -21.3488  -14.0658 N   0  0  0  0  0  0  0  0  0  0  0  0
   25.5322  -20.8313  -11.8665 C   0  0  0  0  0  0  0  0  0  0  0  0
   25.3348  -22.0808  -11.6252 O   0  0  0  0  0  0  0  0  0  0  0  0
   23.3631  -22.2103  -14.9175 C   0  0  0  0  0  0  0  0  0  0  0  0
   22.4387  -23.2432  -14.9118 C   0  0  0  0  0  0  0  0  0  0  0  0
   25.6685  -20.0481  -10.6943 N   0  0  0  0  0  0  0  0  0  0  0  0
   25.3091  -20.5260   -9.3832 C   0  0  1  0  0  0  0  0  0  0  0  0
   25.9908  -19.7507   -8.2818 C   0  0  0  0  0  0  0  0  0  0  0  0
   27.3311  -20.3423   -8.0707 C   0  0  0  0  0  0  0  0  0  0  0  0
   27.9344  -21.2386   -8.9490 C   0  0  0  0  0  0  0  0  0  0  0  0
   29.1326  -21.6136   -8.5121 N   0  0  0  0  0  0  0  0  0  0  0  0
   29.3527  -20.9798   -7.3392 C   0  0  0  0  0  0  0  0  0  0  0  0
   30.4364  -20.9962   -6.4583 C   0  0  0  0  0  0  0  0  0  0  0  0
   30.3803  -20.2231   -5.3179 C   0  0  0  0  0  0  0  0  0  0  0  0
   29.2672  -19.4416   -5.0481 C   0  0  0  0  0  0  0  0  0  0  0  0
   28.1750  -19.4164   -5.9231 C   0  0  0  0  0  0  0  0  0  0  0  0
   28.2403  -20.1872   -7.0538 C   0  0  0  0  0  0  0  0  0  0  0  0
   23.8597  -20.5887   -9.1962 C   0  0  0  0  0  0  0  0  0  0  0  0
   23.0845  -19.9621   -9.9262 O   0  0  0  0  0  0  0  0  0  0  0  0
   23.2988  -21.3624   -8.1850 O   0  0  0  0  0  0  0  0  0  0  0  0
  2  1  1  6
  3  2  1  0
  4  5  1  0
  4  3  1  0
  5  6  2  0
  7  2  1  0
  8  7  2  0
  9  5  1  0
 10 11  1  0
 11 12  2  0
 12 13  1  0
 14 15  1  0
 14 13  2  0
 16 15  1  6
 16 17  1  0
 17  7  1  0
 18 19  2  0
 18 16  1  0
 20 14  1  0
 21 20  2  0
 21 11  1  0
 22 18  1  0
 23 22  1  0
 23 24  1  1
 24 25  1  0
 25 26  2  0
 25 33  1  0
 26 27  1  0
 27 28  1  0
 28 29  2  0
 29 30  1  0
 31 30  2  0
 32 31  1  0
 33 32  2  0
 33 28  1  0
 34 23  1  0
 35 34  2  0
 36 34  1  0
M  END
$$$$
