EYW.pdb
     RDKit          3D

 36 38  0  0  1  0  0  0  0  0999 V2000
   29.5952  -23.5696  -17.4735 N   0  0  0  0  0  0  0  0  0  0  0  0
   29.0550  -22.2115  -17.3697 C   0  0  1  0  0  0  0  0  0  0  0  0
   28.8114  -21.7811  -18.8036 C   0  0  0  0  0  0  0  0  0  0  0  0
   30.0610  -21.5582  -19.5802 C   0  0  0  0  0  0  0  0  0  0  0  0
   30.2720  -22.6743  -20.5328 C   0  0  0  0  0  0  0  0  0  0  0  0
   31.2348  -22.5858  -21.3473 O   0  0  0  0  0  0  0  0  0  0  0  0
   27.8001  -22.2761  -16.6002 C   0  0  0  0  0  0  0  0  0  0  0  0
   27.4344  -23.3964  -16.1360 O   0  0  0  0  0  0  0  0  0  0  0  0
   29.4892  -23.8135  -20.5983 O   0  0  0  0  0  0  0  0  0  0  0  0
   23.0364  -21.5750   -9.4604 O   0  0  0  0  0  0  0  0  0  0  0  0
   23.8777  -21.5975  -10.5880 C   0  0  0  0  0  0  0  0  0  0  0  0
   23.6660  -22.5037  -11.6017 C   0  0  0  0  0  0  0  0  0  0  0  0
   24.4843  -22.5274  -12.6985 C   0  0  0  0  0  0  0  0  0  0  0  0
   25.5475  -21.6691  -12.8621 C   0  0  0  0  0  0  0  0  0  0  0  0
   26.4040  -21.6989  -14.0361 C   0  0  0  0  0  0  0  0  0  0  0  0
   25.8063  -21.3295  -15.3573 C   0  0  2  0  0  0  0  0  0  0  0  0
   26.9473  -21.1836  -16.3206 N   0  0  0  0  0  0  0  0  0  0  0  0
   25.0103  -20.0948  -15.3956 C   0  0  0  0  0  0  0  0  0  0  0  0
   25.5428  -18.9657  -15.0794 O   0  0  0  0  0  0  0  0  0  0  0  0
   25.7565  -20.7506  -11.8298 C   0  0  0  0  0  0  0  0  0  0  0  0
   24.9323  -20.7216  -10.7157 C   0  0  0  0  0  0  0  0  0  0  0  0
   23.6475  -19.9886  -15.7662 N   0  0  0  0  0  0  0  0  0  0  0  0
   22.8288  -18.8501  -15.4340 C   0  0  1  0  0  0  0  0  0  0  0  0
   22.6298  -17.9228  -16.6084 C   0  0  0  0  0  0  0  0  0  0  0  0
   22.0693  -18.7163  -17.7252 C   0  0  0  0  0  0  0  0  0  0  0  0
   20.7397  -19.1225  -17.8023 C   0  0  0  0  0  0  0  0  0  0  0  0
   20.5105  -19.8251  -18.9073 N   0  0  0  0  0  0  0  0  0  0  0  0
   21.6758  -19.9030  -19.5868 C   0  0  0  0  0  0  0  0  0  0  0  0
   22.0098  -20.5067  -20.8011 C   0  0  0  0  0  0  0  0  0  0  0  0
   23.3072  -20.4118  -21.2584 C   0  0  0  0  0  0  0  0  0  0  0  0
   24.2661  -19.7286  -20.5261 C   0  0  0  0  0  0  0  0  0  0  0  0
   23.9440  -19.1191  -19.3080 C   0  0  0  0  0  0  0  0  0  0  0  0
   22.6523  -19.2182  -18.8623 C   0  0  0  0  0  0  0  0  0  0  0  0
   21.5598  -19.2423  -14.8213 C   0  0  0  0  0  0  0  0  0  0  0  0
   20.8000  -18.4097  -14.3152 O   0  0  0  0  0  0  0  0  0  0  0  0
   21.1594  -20.5744  -14.7884 O   0  0  0  0  0  0  0  0  0  0  0  0
  2  1  1  6
  3  2  1  0
  4  5  1  0
  4  3  1  0
  5  6  2  0
  7  2  1  0
  8  7  2  0
  9  5  1  0
 10 11  1  0
 11 12  2  0
 12 13  1  0
 14 15  1  0
 14 13  2  0
 16 15  1  1
 16 17  1  0
 17  7  1  0
 18 19  2  0
 18 16  1  0
 20 14  1  0
 21 20  2  0
 21 11  1  0
 22 18  1  0
 23 22  1  0
 23 24  1  6
 24 25  1  0
 25 26  2  0
 25 33  1  0
 26 27  1  0
 27 28  1  0
 28 29  2  0
 29 30  1  0
 31 30  2  0
 32 31  1  0
 33 32  2  0
 33 28  1  0
 34 23  1  0
 35 34  2  0
 36 34  1  0
M  END
$$$$
