EYW.pdb
     RDKit          3D

 36 38  0  0  1  0  0  0  0  0999 V2000
   27.3261  -17.5631  -17.4503 N   0  0  0  0  0  0  0  0  0  0  0  0
   27.8361  -18.6362  -16.5928 C   0  0  1  0  0  0  0  0  0  0  0  0
   29.2327  -18.1905  -16.2037 C   0  0  0  0  0  0  0  0  0  0  0  0
   30.2264  -18.3127  -17.3046 C   0  0  0  0  0  0  0  0  0  0  0  0
   30.1896  -19.6821  -17.8713 C   0  0  0  0  0  0  0  0  0  0  0  0
   30.3638  -20.6556  -17.0837 O   0  0  0  0  0  0  0  0  0  0  0  0
   26.9519  -18.7427  -15.4189 C   0  0  0  0  0  0  0  0  0  0  0  0
   26.5980  -17.6776  -14.8320 O   0  0  0  0  0  0  0  0  0  0  0  0
   29.9776  -19.9773  -19.2064 O   0  0  0  0  0  0  0  0  0  0  0  0
   19.9745  -21.2290  -10.4863 O   0  0  0  0  0  0  0  0  0  0  0  0
   21.0137  -21.0147  -11.4103 C   0  0  0  0  0  0  0  0  0  0  0  0
   21.8493  -22.0450  -11.7760 C   0  0  0  0  0  0  0  0  0  0  0  0
   22.8612  -21.8376  -12.6738 C   0  0  0  0  0  0  0  0  0  0  0  0
   23.1079  -20.6171  -13.2600 C   0  0  0  0  0  0  0  0  0  0  0  0
   24.1808  -20.4120  -14.2188 C   0  0  0  0  0  0  0  0  0  0  0  0
   25.4995  -19.9205  -13.7103 C   0  0  2  0  0  0  0  0  0  0  0  0
   26.4464  -19.9454  -14.8738 N   0  0  0  0  0  0  0  0  0  0  0  0
   26.1036  -20.6825  -12.6085 C   0  0  0  0  0  0  0  0  0  0  0  0
   26.5966  -21.8535  -12.8189 O   0  0  0  0  0  0  0  0  0  0  0  0
   22.2553  -19.5752  -12.8853 C   0  0  0  0  0  0  0  0  0  0  0  0
   21.2290  -19.7779  -11.9759 C   0  0  0  0  0  0  0  0  0  0  0  0
   26.2219  -20.2573  -11.2627 N   0  0  0  0  0  0  0  0  0  0  0  0
   26.1941  -21.1669  -10.1454 C   0  0  1  0  0  0  0  0  0  0  0  0
   27.5289  -21.2601   -9.4465 C   0  0  0  0  0  0  0  0  0  0  0  0
   27.5429  -20.2592   -8.3561 C   0  0  0  0  0  0  0  0  0  0  0  0
   26.6921  -19.1585   -8.2977 C   0  0  0  0  0  0  0  0  0  0  0  0
   26.9240  -18.4232   -7.2149 N   0  0  0  0  0  0  0  0  0  0  0  0
   27.9294  -19.0137   -6.5319 C   0  0  0  0  0  0  0  0  0  0  0  0
   28.5656  -18.6810   -5.3340 C   0  0  0  0  0  0  0  0  0  0  0  0
   29.5764  -19.4947   -4.8676 C   0  0  0  0  0  0  0  0  0  0  0  0
   29.9564  -20.6252   -5.5747 C   0  0  0  0  0  0  0  0  0  0  0  0
   29.3264  -20.9695   -6.7762 C   0  0  0  0  0  0  0  0  0  0  0  0
   28.3229  -20.1553   -7.2312 C   0  0  0  0  0  0  0  0  0  0  0  0
   25.1058  -20.8663   -9.2153 C   0  0  0  0  0  0  0  0  0  0  0  0
   24.5354  -19.7704   -9.2180 O   0  0  0  0  0  0  0  0  0  0  0  0
   24.6701  -21.8101   -8.2905 O   0  0  0  0  0  0  0  0  0  0  0  0
  2  1  1  6
  3  2  1  0
  4  5  1  0
  4  3  1  0
  5  6  2  0
  7  2  1  0
  8  7  2  0
  9  5  1  0
 10 11  1  0
 11 12  2  0
 12 13  1  0
 14 15  1  0
 14 13  2  0
 16 15  1  6
 16 17  1  0
 17  7  1  0
 18 19  2  0
 18 16  1  0
 20 14  1  0
 21 20  2  0
 21 11  1  0
 22 18  1  0
 23 22  1  0
 23 24  1  1
 24 25  1  0
 25 26  2  0
 25 33  1  0
 26 27  1  0
 27 28  1  0
 28 29  2  0
 29 30  1  0
 31 30  2  0
 32 31  1  0
 33 32  2  0
 33 28  1  0
 34 23  1  0
 35 34  2  0
 36 34  1  0
M  END
$$$$
