LLG.pdb
     RDKit          3D

 21 20  0  0  1  0  0  0  0  0999 V2000
    8.4302  -14.7067   18.6481 C   0  0  0  0  0  0  0  0  0  0  0  0
    7.7534  -13.7197   19.5619 C   0  0  2  0  0  0  0  0  0  0  0  0
    7.6603  -12.4086   18.8028 C   0  0  0  0  0  0  0  0  0  0  0  0
    8.4463  -13.5217   20.8764 C   0  0  0  0  0  0  0  0  0  0  0  0
    8.4639  -14.7939   21.6583 C   0  0  2  0  0  0  0  0  0  0  0  0
    7.1633  -15.4066   21.6248 N   0  0  0  0  0  0  0  0  0  0  0  0
    8.9061  -14.5986   23.0613 C   0  0  0  0  0  0  0  0  0  0  0  0
   10.0702  -14.1808   23.2708 O   0  0  0  0  0  0  0  0  0  0  0  0
    5.5637  -12.2771   26.7546 C   0  0  0  0  0  0  0  0  0  0  0  0
    6.8558  -12.6116   25.9403 C   0  0  1  0  0  0  0  0  0  0  0  0
    7.8958  -11.7204   26.6483 C   0  0  0  0  0  0  0  0  0  0  0  0
    7.2023  -14.0378   26.1403 C   0  0  0  0  0  0  0  0  0  0  0  0
    8.4370  -14.5950   25.5612 C   0  0  2  0  0  0  0  0  0  0  0  0
    8.0602  -14.8683   24.1317 N   0  0  0  0  0  0  0  0  0  0  0  0
    8.9422  -15.8755   26.0496 C   0  0  0  0  0  0  0  0  0  0  0  0
    9.0854  -16.0831   27.3048 O   0  0  0  0  0  0  0  0  0  0  0  0
    9.3027  -16.9763   25.2107 N   0  0  0  0  0  0  0  0  0  0  0  0
    9.7316  -18.2085   25.8197 C   0  0  0  0  0  0  0  0  0  0  0  0
   11.1553  -18.5066   25.5577 C   0  0  0  0  0  0  0  0  0  0  0  0
   11.6401  -19.7836   25.7634 O   0  0  0  0  0  0  0  0  0  0  0  0
   11.9505  -17.6305   25.1497 O   0  0  0  0  0  0  0  0  0  0  0  0
  2  1  1  6
  3  2  1  0
  4  2  1  0
  5  4  1  0
  5  7  1  0
  5  6  1  1
  7  8  2  0
  7 14  1  0
 10  9  1  1
 10 12  1  0
 11 10  1  0
 13 12  1  1
 13 15  1  0
 14 13  1  0
 15 16  2  0
 17 15  1  0
 17 18  1  0
 19 18  1  0
 19 20  1  0
 21 19  2  0
M  END
$$$$
