LLG.pdb
     RDKit          3D

 21 20  0  0  1  0  0  0  0  0999 V2000
    8.3877  -14.4603   18.6859 C   0  0  0  0  0  0  0  0  0  0  0  0
    7.6517  -13.5394   19.6228 C   0  0  2  0  0  0  0  0  0  0  0  0
    7.4955  -12.2120   18.9035 C   0  0  0  0  0  0  0  0  0  0  0  0
    8.3221  -13.3463   20.9496 C   0  0  0  0  0  0  0  0  0  0  0  0
    8.3931  -14.6380   21.6958 C   0  0  2  0  0  0  0  0  0  0  0  0
    7.1197  -15.3041   21.6428 N   0  0  0  0  0  0  0  0  0  0  0  0
    8.8257  -14.4634   23.1045 C   0  0  0  0  0  0  0  0  0  0  0  0
    9.9101  -13.8749   23.3305 O   0  0  0  0  0  0  0  0  0  0  0  0
    5.6388  -12.2411   26.7216 C   0  0  0  0  0  0  0  0  0  0  0  0
    6.9484  -12.6371   25.9651 C   0  0  1  0  0  0  0  0  0  0  0  0
    7.9995  -11.8090   26.7309 C   0  0  0  0  0  0  0  0  0  0  0  0
    7.2090  -14.0815   26.1650 C   0  0  0  0  0  0  0  0  0  0  0  0
    8.4186  -14.7073   25.6033 C   0  0  2  0  0  0  0  0  0  0  0  0
    8.0567  -14.9364   24.1623 N   0  0  0  0  0  0  0  0  0  0  0  0
    8.8319  -16.0237   26.0826 C   0  0  0  0  0  0  0  0  0  0  0  0
    8.2486  -16.5640   27.0862 O   0  0  0  0  0  0  0  0  0  0  0  0
    9.8767  -16.8063   25.4984 N   0  0  0  0  0  0  0  0  0  0  0  0
   10.1808  -18.0971   26.0594 C   0  0  0  0  0  0  0  0  0  0  0  0
   11.2263  -18.8147   25.3001 C   0  0  0  0  0  0  0  0  0  0  0  0
   11.6697  -20.0478   25.7369 O   0  0  0  0  0  0  0  0  0  0  0  0
   11.7326  -18.3386   24.2593 O   0  0  0  0  0  0  0  0  0  0  0  0
  2  1  1  6
  3  2  1  0
  4  2  1  0
  5  4  1  0
  5  7  1  0
  5  6  1  1
  7  8  2  0
  7 14  1  0
 10  9  1  1
 10 12  1  0
 11 10  1  0
 13 12  1  1
 13 15  1  0
 14 13  1  0
 15 16  2  0
 17 15  1  0
 17 18  1  0
 19 18  1  0
 19 20  1  0
 21 19  2  0
M  END
$$$$
