LLG.pdb
     RDKit          3D

 21 20  0  0  1  0  0  0  0  0999 V2000
    6.1725  -17.7200   20.1134 C   0  0  0  0  0  0  0  0  0  0  0  0
    7.6777  -17.7475   20.1468 C   0  0  2  0  0  0  0  0  0  0  0  0
    8.0922  -19.2076   20.1274 C   0  0  0  0  0  0  0  0  0  0  0  0
    8.2807  -17.0422   21.3241 C   0  0  0  0  0  0  0  0  0  0  0  0
    7.8064  -15.6276   21.3890 C   0  0  2  0  0  0  0  0  0  0  0  0
    8.1230  -14.9488   20.1613 N   0  0  0  0  0  0  0  0  0  0  0  0
    8.3665  -14.8875   22.5468 C   0  0  0  0  0  0  0  0  0  0  0  0
    9.4056  -14.2057   22.3772 O   0  0  0  0  0  0  0  0  0  0  0  0
    5.2703  -12.2869   26.6196 C   0  0  0  0  0  0  0  0  0  0  0  0
    6.3666  -12.4766   25.5213 C   0  0  1  0  0  0  0  0  0  0  0  0
    7.3655  -11.3645   25.8991 C   0  0  0  0  0  0  0  0  0  0  0  0
    7.0061  -13.8014   25.6945 C   0  0  0  0  0  0  0  0  0  0  0  0
    8.2469  -14.1323   24.9727 C   0  0  2  0  0  0  0  0  0  0  0  0
    7.7642  -14.9386   23.7993 N   0  0  0  0  0  0  0  0  0  0  0  0
    9.2403  -14.9907   25.6129 C   0  0  0  0  0  0  0  0  0  0  0  0
    9.7204  -14.6874   26.7604 O   0  0  0  0  0  0  0  0  0  0  0  0
    9.7452  -16.2041   25.0489 N   0  0  0  0  0  0  0  0  0  0  0  0
   10.6594  -17.0062   25.8196 C   0  0  0  0  0  0  0  0  0  0  0  0
   11.0204  -18.2681   25.1400 C   0  0  0  0  0  0  0  0  0  0  0  0
   11.3838  -19.3721   25.8864 O   0  0  0  0  0  0  0  0  0  0  0  0
   11.0087  -18.3748   23.8931 O   0  0  0  0  0  0  0  0  0  0  0  0
  2  1  1  1
  3  2  1  0
  4  2  1  0
  5  4  1  0
  5  7  1  0
  5  6  1  6
  7  8  2  0
  7 14  1  0
 10  9  1  1
 10 12  1  0
 11 10  1  0
 13 12  1  1
 13 15  1  0
 14 13  1  0
 15 16  2  0
 17 15  1  0
 17 18  1  0
 19 18  1  0
 19 20  1  0
 21 19  2  0
M  END
$$$$
