LLG.pdb
     RDKit          3D

 21 20  0  0  1  0  0  0  0  0999 V2000
    8.7156  -14.7141   18.6051 C   0  0  0  0  0  0  0  0  0  0  0  0
    7.8632  -13.7618   19.4014 C   0  0  2  0  0  0  0  0  0  0  0  0
    7.8014  -12.4641   18.6166 C   0  0  0  0  0  0  0  0  0  0  0  0
    8.3547  -13.5138   20.7957 C   0  0  0  0  0  0  0  0  0  0  0  0
    8.3933  -14.7877   21.5740 C   0  0  2  0  0  0  0  0  0  0  0  0
    7.0926  -15.4012   21.5729 N   0  0  0  0  0  0  0  0  0  0  0  0
    8.8717  -14.5953   22.9655 C   0  0  0  0  0  0  0  0  0  0  0  0
   10.0473  -14.1969   23.1461 O   0  0  0  0  0  0  0  0  0  0  0  0
    5.6231  -12.1786   26.6596 C   0  0  0  0  0  0  0  0  0  0  0  0
    6.9077  -12.5410   25.8456 C   0  0  1  0  0  0  0  0  0  0  0  0
    7.9616  -11.6530   26.5371 C   0  0  0  0  0  0  0  0  0  0  0  0
    7.2370  -13.9685   26.0647 C   0  0  0  0  0  0  0  0  0  0  0  0
    8.4529  -14.5541   25.4740 C   0  0  2  0  0  0  0  0  0  0  0  0
    8.0467  -14.8468   24.0565 N   0  0  0  0  0  0  0  0  0  0  0  0
    8.9482  -15.8332   25.9761 C   0  0  0  0  0  0  0  0  0  0  0  0
    9.1072  -16.0221   27.2324 O   0  0  0  0  0  0  0  0  0  0  0  0
    9.2814  -16.9524   25.1504 N   0  0  0  0  0  0  0  0  0  0  0  0
    9.7396  -18.1679   25.7716 C   0  0  0  0  0  0  0  0  0  0  0  0
   11.1839  -18.4028   25.5637 C   0  0  0  0  0  0  0  0  0  0  0  0
   11.7568  -19.5857   25.9889 O   0  0  0  0  0  0  0  0  0  0  0  0
   11.9188  -17.5560   25.0078 O   0  0  0  0  0  0  0  0  0  0  0  0
  2  1  1  6
  3  2  1  0
  4  2  1  0
  5  4  1  0
  5  7  1  0
  5  6  1  1
  7  8  2  0
  7 14  1  0
 10  9  1  1
 10 12  1  0
 11 10  1  0
 13 12  1  1
 13 15  1  0
 14 13  1  0
 15 16  2  0
 17 15  1  0
 17 18  1  0
 19 18  1  0
 19 20  1  0
 21 19  2  0
M  END
$$$$
