LLG.pdb
     RDKit          3D

 21 20  0  0  1  0  0  0  0  0999 V2000
    8.4115  -14.6958   18.6808 C   0  0  0  0  0  0  0  0  0  0  0  0
    7.7270  -13.7172   19.5979 C   0  0  2  0  0  0  0  0  0  0  0  0
    7.6275  -12.4031   18.8449 C   0  0  0  0  0  0  0  0  0  0  0  0
    8.4163  -13.5213   20.9146 C   0  0  0  0  0  0  0  0  0  0  0  0
    8.4384  -14.7966   21.6914 C   0  0  2  0  0  0  0  0  0  0  0  0
    7.1373  -15.4085   21.6640 N   0  0  0  0  0  0  0  0  0  0  0  0
    8.8899  -14.6070   23.0922 C   0  0  0  0  0  0  0  0  0  0  0  0
   10.0224  -14.1073   23.2952 O   0  0  0  0  0  0  0  0  0  0  0  0
    5.6180  -12.2701   26.6649 C   0  0  0  0  0  0  0  0  0  0  0  0
    6.9229  -12.6569   25.8956 C   0  0  1  0  0  0  0  0  0  0  0  0
    7.9621  -11.7597   26.5972 C   0  0  0  0  0  0  0  0  0  0  0  0
    7.2375  -14.0810   26.1547 C   0  0  0  0  0  0  0  0  0  0  0  0
    8.4575  -14.6902   25.5973 C   0  0  2  0  0  0  0  0  0  0  0  0
    8.0865  -14.9704   24.1677 N   0  0  0  0  0  0  0  0  0  0  0  0
    8.9114  -15.9807   26.1092 C   0  0  0  0  0  0  0  0  0  0  0  0
    9.1008  -16.1536   27.3636 O   0  0  0  0  0  0  0  0  0  0  0  0
    9.1693  -17.1285   25.2960 N   0  0  0  0  0  0  0  0  0  0  0  0
    9.5073  -18.3750   25.9325 C   0  0  0  0  0  0  0  0  0  0  0  0
   10.9343  -18.7256   25.7738 C   0  0  0  0  0  0  0  0  0  0  0  0
   11.8911  -18.0729   26.5267 O   0  0  0  0  0  0  0  0  0  0  0  0
   11.3138  -19.6062   24.9696 O   0  0  0  0  0  0  0  0  0  0  0  0
  2  1  1  6
  3  2  1  0
  4  2  1  0
  5  4  1  0
  5  7  1  0
  5  6  1  1
  7  8  2  0
  7 14  1  0
 10  9  1  1
 10 12  1  0
 11 10  1  0
 13 12  1  1
 13 15  1  0
 14 13  1  0
 15 16  2  0
 17 15  1  0
 17 18  1  0
 19 18  1  0
 19 20  1  0
 21 19  2  0
M  END
$$$$
