LLG.pdb
     RDKit          3D

 21 20  0  0  1  0  0  0  0  0999 V2000
    8.8782  -14.5550   18.9098 C   0  0  0  0  0  0  0  0  0  0  0  0
    7.6544  -13.9440   19.5394 C   0  0  2  0  0  0  0  0  0  0  0  0
    7.3499  -12.6729   18.7676 C   0  0  0  0  0  0  0  0  0  0  0  0
    7.7948  -13.6531   21.0032 C   0  0  0  0  0  0  0  0  0  0  0  0
    8.1997  -14.8830   21.7472 C   0  0  2  0  0  0  0  0  0  0  0  0
    7.0586  -15.7372   21.9380 N   0  0  0  0  0  0  0  0  0  0  0  0
    8.8407  -14.5797   23.0508 C   0  0  0  0  0  0  0  0  0  0  0  0
    9.9535  -14.0008   23.0519 O   0  0  0  0  0  0  0  0  0  0  0  0
    5.6377  -12.6581   27.0227 C   0  0  0  0  0  0  0  0  0  0  0  0
    6.8708  -12.8012   26.0723 C   0  0  1  0  0  0  0  0  0  0  0  0
    7.7703  -11.6534   26.5729 C   0  0  0  0  0  0  0  0  0  0  0  0
    7.5336  -14.1013   26.3262 C   0  0  0  0  0  0  0  0  0  0  0  0
    8.7544  -14.4739   25.5906 C   0  0  2  0  0  0  0  0  0  0  0  0
    8.2336  -14.9232   24.2539 N   0  0  0  0  0  0  0  0  0  0  0  0
    9.5569  -15.6007   26.0596 C   0  0  0  0  0  0  0  0  0  0  0  0
   10.1340  -15.5585   27.2017 O   0  0  0  0  0  0  0  0  0  0  0  0
    9.7606  -16.8105   25.3247 N   0  0  0  0  0  0  0  0  0  0  0  0
   10.6541  -17.8081   25.8536 C   0  0  0  0  0  0  0  0  0  0  0  0
   10.0380  -18.6081   26.9328 C   0  0  0  0  0  0  0  0  0  0  0  0
   10.5551  -19.8490   27.2505 O   0  0  0  0  0  0  0  0  0  0  0  0
    9.0491  -18.1961   27.5798 O   0  0  0  0  0  0  0  0  0  0  0  0
  2  1  1  6
  3  2  1  0
  4  2  1  0
  5  4  1  0
  5  7  1  0
  5  6  1  1
  7  8  2  0
  7 14  1  0
 10  9  1  1
 10 12  1  0
 11 10  1  0
 13 12  1  1
 13 15  1  0
 14 13  1  0
 15 16  2  0
 17 15  1  0
 17 18  1  0
 19 18  1  0
 19 20  1  0
 21 19  2  0
M  END
$$$$
