LLG.pdb
     RDKit          3D

 21 20  0  0  1  0  0  0  0  0999 V2000
    8.1024  -12.7055   18.8596 C   0  0  0  0  0  0  0  0  0  0  0  0
    7.8085  -13.6629   19.9841 C   0  0  2  0  0  0  0  0  0  0  0  0
    7.1960  -12.8474   21.1083 C   0  0  0  0  0  0  0  0  0  0  0  0
    9.0036  -14.4241   20.4734 C   0  0  0  0  0  0  0  0  0  0  0  0
    8.6051  -15.4133   21.5188 C   0  0  2  0  0  0  0  0  0  0  0  0
    7.1861  -15.6398   21.4622 N   0  0  0  0  0  0  0  0  0  0  0  0
    9.0069  -14.9967   22.8852 C   0  0  0  0  0  0  0  0  0  0  0  0
   10.1655  -14.5487   23.0596 O   0  0  0  0  0  0  0  0  0  0  0  0
    5.5456  -12.3108   26.3260 C   0  0  0  0  0  0  0  0  0  0  0  0
    6.8621  -12.6725   25.5644 C   0  0  1  0  0  0  0  0  0  0  0  0
    7.8707  -11.7224   26.2405 C   0  0  0  0  0  0  0  0  0  0  0  0
    7.2256  -14.0778   25.8596 C   0  0  0  0  0  0  0  0  0  0  0  0
    8.4854  -14.6467   25.3500 C   0  0  2  0  0  0  0  0  0  0  0  0
    8.1294  -15.0945   23.9598 N   0  0  0  0  0  0  0  0  0  0  0  0
    9.0378  -15.8425   25.9811 C   0  0  0  0  0  0  0  0  0  0  0  0
    9.3065  -15.8531   27.2329 O   0  0  0  0  0  0  0  0  0  0  0  0
    9.3128  -17.0664   25.2943 N   0  0  0  0  0  0  0  0  0  0  0  0
    9.7388  -18.2136   26.0530 C   0  0  0  0  0  0  0  0  0  0  0  0
   11.1759  -18.5103   25.8761 C   0  0  0  0  0  0  0  0  0  0  0  0
   11.6828  -19.7277   26.2873 O   0  0  0  0  0  0  0  0  0  0  0  0
   11.9630  -17.6859   25.3593 O   0  0  0  0  0  0  0  0  0  0  0  0
  2  1  1  6
  3  2  1  0
  4  2  1  0
  5  4  1  0
  5  7  1  0
  5  6  1  1
  7  8  2  0
  7 14  1  0
 10  9  1  1
 10 12  1  0
 11 10  1  0
 13 12  1  1
 13 15  1  0
 14 13  1  0
 15 16  2  0
 17 15  1  0
 17 18  1  0
 19 18  1  0
 19 20  1  0
 21 19  2  0
M  END
$$$$
