LLG.pdb
     RDKit          3D

 21 20  0  0  1  0  0  0  0  0999 V2000
    7.2450  -18.9813   20.7952 C   0  0  0  0  0  0  0  0  0  0  0  0
    8.0143  -17.8920   20.0959 C   0  0  2  0  0  0  0  0  0  0  0  0
    9.0236  -18.5761   19.1920 C   0  0  0  0  0  0  0  0  0  0  0  0
    8.6985  -16.9304   21.0202 C   0  0  0  0  0  0  0  0  0  0  0  0
    7.7197  -16.3351   21.9783 C   0  0  2  0  0  0  0  0  0  0  0  0
    6.6793  -15.6550   21.2550 N   0  0  0  0  0  0  0  0  0  0  0  0
    8.3576  -15.4147   22.9519 C   0  0  0  0  0  0  0  0  0  0  0  0
    9.3949  -14.8002   22.6058 O   0  0  0  0  0  0  0  0  0  0  0  0
    5.4529  -12.2442   26.7406 C   0  0  0  0  0  0  0  0  0  0  0  0
    6.4625  -12.6027   25.6021 C   0  0  1  0  0  0  0  0  0  0  0  0
    7.3980  -11.3775   25.6338 C   0  0  0  0  0  0  0  0  0  0  0  0
    7.2184  -13.8174   25.9855 C   0  0  0  0  0  0  0  0  0  0  0  0
    8.3959  -14.2413   25.2082 C   0  0  2  0  0  0  0  0  0  0  0  0
    7.8290  -15.2265   24.2244 N   0  0  0  0  0  0  0  0  0  0  0  0
    9.4670  -14.9769   25.8753 C   0  0  0  0  0  0  0  0  0  0  0  0
   10.2177  -14.3971   26.7353 O   0  0  0  0  0  0  0  0  0  0  0  0
    9.7635  -16.3575   25.6487 N   0  0  0  0  0  0  0  0  0  0  0  0
   10.8244  -16.9774   26.3993 C   0  0  0  0  0  0  0  0  0  0  0  0
   10.9306  -18.4287   26.1409 C   0  0  0  0  0  0  0  0  0  0  0  0
   11.0819  -19.3063   27.1969 O   0  0  0  0  0  0  0  0  0  0  0  0
   10.8878  -18.8993   24.9820 O   0  0  0  0  0  0  0  0  0  0  0  0
  2  1  1  1
  3  2  1  0
  4  2  1  0
  5  4  1  0
  5  7  1  0
  5  6  1  6
  7  8  2  0
  7 14  1  0
 10  9  1  1
 10 12  1  0
 11 10  1  0
 13 12  1  1
 13 15  1  0
 14 13  1  0
 15 16  2  0
 17 15  1  0
 17 18  1  0
 19 18  1  0
 19 20  1  0
 21 19  2  0
M  END
$$$$
