LLG.pdb
     RDKit          3D

 21 20  0  0  1  0  0  0  0  0999 V2000
    8.1336  -14.4385   18.7392 C   0  0  0  0  0  0  0  0  0  0  0  0
    7.7321  -13.6790   19.9759 C   0  0  2  0  0  0  0  0  0  0  0  0
    7.5700  -12.2261   19.5676 C   0  0  0  0  0  0  0  0  0  0  0  0
    8.6977  -13.8034   21.1158 C   0  0  0  0  0  0  0  0  0  0  0  0
    8.4316  -15.0482   21.8969 C   0  0  2  0  0  0  0  0  0  0  0  0
    7.0983  -15.5168   21.6308 N   0  0  0  0  0  0  0  0  0  0  0  0
    8.6320  -14.8636   23.3556 C   0  0  0  0  0  0  0  0  0  0  0  0
    9.7160  -14.3749   23.7551 O   0  0  0  0  0  0  0  0  0  0  0  0
    5.4377  -12.0016   26.3624 C   0  0  0  0  0  0  0  0  0  0  0  0
    6.7383  -12.6857   25.8290 C   0  0  1  0  0  0  0  0  0  0  0  0
    7.8089  -12.0398   26.7311 C   0  0  0  0  0  0  0  0  0  0  0  0
    6.6699  -14.1405   26.0992 C   0  0  0  0  0  0  0  0  0  0  0  0
    7.8014  -15.0186   25.7547 C   0  0  2  0  0  0  0  0  0  0  0  0
    7.6491  -15.2198   24.2727 N   0  0  0  0  0  0  0  0  0  0  0  0
    7.8469  -16.3739   26.2974 C   0  0  0  0  0  0  0  0  0  0  0  0
    7.6783  -16.5799   27.5497 O   0  0  0  0  0  0  0  0  0  0  0  0
    8.0666  -17.5515   25.5162 N   0  0  0  0  0  0  0  0  0  0  0  0
    7.9271  -18.8413   26.1408 C   0  0  0  0  0  0  0  0  0  0  0  0
    9.1786  -19.3029   26.7773 C   0  0  0  0  0  0  0  0  0  0  0  0
    9.2154  -20.5283   27.4139 O   0  0  0  0  0  0  0  0  0  0  0  0
   10.2229  -18.6134   26.7605 O   0  0  0  0  0  0  0  0  0  0  0  0
  2  1  1  6
  3  2  1  0
  4  2  1  0
  5  4  1  0
  5  7  1  0
  5  6  1  1
  7  8  2  0
  7 14  1  0
 10  9  1  1
 10 12  1  0
 11 10  1  0
 13 12  1  1
 13 15  1  0
 14 13  1  0
 15 16  2  0
 17 15  1  0
 17 18  1  0
 19 18  1  0
 19 20  1  0
 21 19  2  0
M  END
$$$$
