TNW.pdb
     RDKit          3D

 30 31  0  0  1  0  0  0  0  0999 V2000
   29.0986  -24.6776  -19.2168 C   0  0  0  0  0  0  0  0  0  0  0  0
   28.3776  -23.9580  -18.0954 C   0  0  1  0  0  0  0  0  0  0  0  0
   28.4583  -24.6400  -16.9013 O   0  0  0  0  0  0  0  0  0  0  0  0
   28.8923  -22.5256  -17.9487 C   0  0  2  0  0  0  0  0  0  0  0  0
   30.2783  -22.6473  -17.5382 N   0  0  0  0  0  0  0  0  0  0  0  0
   28.1271  -21.7933  -16.8992 C   0  0  0  0  0  0  0  0  0  0  0  0
   28.7713  -21.1454  -16.0051 O   0  0  0  0  0  0  0  0  0  0  0  0
   24.5873  -18.8905  -14.4906 N   0  0  0  0  0  0  0  0  0  0  0  0
   24.0740  -19.3339  -15.7487 C   0  0  0  0  0  0  0  0  0  0  0  0
   22.9687  -18.8516  -16.0981 O   0  0  0  0  0  0  0  0  0  0  0  0
   24.7988  -20.3024  -16.5905 C   0  0  0  0  0  0  0  0  0  0  0  0
   26.0694  -20.8390  -15.9455 C   0  0  2  0  0  0  0  0  0  0  0  0
   26.7296  -21.7743  -16.8371 N   0  0  0  0  0  0  0  0  0  0  0  0
   25.6965  -21.4824  -14.6627 C   0  0  0  0  0  0  0  0  0  0  0  0
   25.1582  -22.6035  -14.6389 O   0  0  0  0  0  0  0  0  0  0  0  0
   25.9331  -20.8544  -13.3842 N   0  0  0  0  0  0  0  0  0  0  0  0
   25.6766  -21.5102  -12.1392 C   0  0  1  0  0  0  0  0  0  0  0  0
   26.8933  -21.5678  -11.2420 C   0  0  0  0  0  0  0  0  0  0  0  0
   26.6693  -20.8384   -9.9674 C   0  0  0  0  0  0  0  0  0  0  0  0
   25.5251  -20.1608   -9.6095 C   0  0  0  0  0  0  0  0  0  0  0  0
   25.7077  -19.6373   -8.3934 N   0  0  0  0  0  0  0  0  0  0  0  0
   26.9230  -19.9309   -7.9145 C   0  0  0  0  0  0  0  0  0  0  0  0
   27.5983  -19.6471   -6.7467 C   0  0  0  0  0  0  0  0  0  0  0  0
   28.8780  -20.0871   -6.5055 C   0  0  0  0  0  0  0  0  0  0  0  0
   29.4882  -20.8459   -7.4974 C   0  0  0  0  0  0  0  0  0  0  0  0
   28.8036  -21.1252   -8.6643 C   0  0  0  0  0  0  0  0  0  0  0  0
   27.5348  -20.6914   -8.9082 C   0  0  0  0  0  0  0  0  0  0  0  0
   24.5900  -20.7911  -11.4283 C   0  0  0  0  0  0  0  0  0  0  0  0
   23.7619  -21.4310  -10.5081 O   0  0  0  0  0  0  0  0  0  0  0  0
   24.4306  -19.5690  -11.6797 O   0  0  0  0  0  0  0  0  0  0  0  0
  2  1  1  6
  2  4  1  0
  3  2  1  0
  4  6  1  0
  4  5  1  1
  6  7  2  0
  9  8  1  0
 10  9  2  0
 11  9  1  0
 12 11  1  6
 12 14  1  0
 13  6  1  0
 13 12  1  0
 14 15  2  0
 16 17  1  0
 16 14  1  0
 17 28  1  0
 17 18  1  1
 19 27  1  0
 19 18  1  0
 20 19  2  0
 21 20  1  0
 21 22  1  0
 22 27  2  0
 23 22  1  0
 23 24  2  0
 24 25  1  0
 25 26  2  0
 27 26  1  0
 28 30  2  0
 28 29  1  0
M  END
$$$$
