TNW.pdb
     RDKit          3D

 30 31  0  0  1  0  0  0  0  0999 V2000
   18.7641  -14.2508  -17.5713 C   0  0  0  0  0  0  0  0  0  0  0  0
   19.4800  -12.9277  -17.3920 C   0  0  1  0  0  0  0  0  0  0  0  0
   20.0917  -12.8283  -16.1619 O   0  0  0  0  0  0  0  0  0  0  0  0
   20.4785  -12.6913  -18.5257 C   0  0  2  0  0  0  0  0  0  0  0  0
   21.5593  -13.6317  -18.2984 N   0  0  0  0  0  0  0  0  0  0  0  0
   21.0135  -11.3003  -18.4781 C   0  0  0  0  0  0  0  0  0  0  0  0
   22.2070  -11.1124  -18.0605 O   0  0  0  0  0  0  0  0  0  0  0  0
   22.0879   -6.3169  -19.3044 N   0  0  0  0  0  0  0  0  0  0  0  0
   20.9318   -6.6687  -20.0677 C   0  0  0  0  0  0  0  0  0  0  0  0
   20.5123   -5.8001  -20.8716 O   0  0  0  0  0  0  0  0  0  0  0  0
   20.2675   -7.9761  -19.9218 C   0  0  0  0  0  0  0  0  0  0  0  0
   20.9137   -8.8742  -18.8758 C   0  0  2  0  0  0  0  0  0  0  0  0
   20.2760  -10.1777  -18.8691 N   0  0  0  0  0  0  0  0  0  0  0  0
   20.7940   -8.2042  -17.5585 C   0  0  0  0  0  0  0  0  0  0  0  0
   19.7010   -8.1380  -16.9684 O   0  0  0  0  0  0  0  0  0  0  0  0
   21.9229   -7.5983  -16.8929 N   0  0  0  0  0  0  0  0  0  0  0  0
   21.8501   -7.0761  -15.5632 C   0  0  1  0  0  0  0  0  0  0  0  0
   23.0569   -7.4323  -14.7234 C   0  0  0  0  0  0  0  0  0  0  0  0
   24.2990   -7.4703  -15.5373 C   0  0  0  0  0  0  0  0  0  0  0  0
   24.8329   -6.4227  -16.2541 C   0  0  0  0  0  0  0  0  0  0  0  0
   25.9502   -6.8469  -16.8526 N   0  0  0  0  0  0  0  0  0  0  0  0
   26.1944   -8.1330  -16.5721 C   0  0  0  0  0  0  0  0  0  0  0  0
   27.1817   -9.0297  -16.9207 C   0  0  0  0  0  0  0  0  0  0  0  0
   27.1905  -10.3309  -16.4777 C   0  0  0  0  0  0  0  0  0  0  0  0
   26.1492  -10.7279  -15.6470 C   0  0  0  0  0  0  0  0  0  0  0  0
   25.1644   -9.8223  -15.3030 C   0  0  0  0  0  0  0  0  0  0  0  0
   25.1512   -8.5312  -15.7395 C   0  0  0  0  0  0  0  0  0  0  0  0
   21.7311   -5.5980  -15.6296 C   0  0  0  0  0  0  0  0  0  0  0  0
   21.5376   -4.8223  -14.4881 O   0  0  0  0  0  0  0  0  0  0  0  0
   21.8104   -5.0516  -16.7597 O   0  0  0  0  0  0  0  0  0  0  0  0
  2  1  1  6
  2  4  1  0
  3  2  1  0
  4  6  1  0
  4  5  1  1
  6  7  2  0
  9  8  1  0
 10  9  2  0
 11  9  1  0
 12 11  1  6
 12 14  1  0
 13  6  1  0
 13 12  1  0
 14 15  2  0
 16 17  1  0
 16 14  1  0
 17 28  1  0
 17 18  1  1
 19 27  1  0
 19 18  1  0
 20 19  2  0
 21 20  1  0
 21 22  1  0
 22 27  2  0
 23 22  1  0
 23 24  2  0
 24 25  1  0
 25 26  2  0
 27 26  1  0
 28 30  2  0
 28 29  1  0
M  END
$$$$
