TNW.pdb
     RDKit          3D

 30 31  0  0  1  0  0  0  0  0999 V2000
   27.8944  -22.4918  -16.8895 C   0  0  0  0  0  0  0  0  0  0  0  0
   27.4367  -21.9463  -15.5523 C   0  0  1  0  0  0  0  0  0  0  0  0
   28.4013  -21.1707  -14.9478 O   0  0  0  0  0  0  0  0  0  0  0  0
   26.1228  -21.1781  -15.6990 C   0  0  2  0  0  0  0  0  0  0  0  0
   26.4052  -20.0902  -16.6161 N   0  0  0  0  0  0  0  0  0  0  0  0
   25.6869  -20.6197  -14.3870 C   0  0  0  0  0  0  0  0  0  0  0  0
   26.0038  -19.4168  -14.0926 O   0  0  0  0  0  0  0  0  0  0  0  0
   22.2089  -19.1009  -13.3651 N   0  0  0  0  0  0  0  0  0  0  0  0
   22.1221  -20.4583  -12.9261 C   0  0  0  0  0  0  0  0  0  0  0  0
   21.2027  -21.1475  -13.4324 O   0  0  0  0  0  0  0  0  0  0  0  0
   23.0573  -21.0203  -11.9354 C   0  0  0  0  0  0  0  0  0  0  0  0
   24.5169  -20.6969  -12.2238 C   0  0  2  0  0  0  0  0  0  0  0  0
   24.9427  -21.3450  -13.4504 N   0  0  0  0  0  0  0  0  0  0  0  0
   25.3243  -21.1457  -11.0639 C   0  0  0  0  0  0  0  0  0  0  0  0
   25.6490  -22.3390  -10.9304 O   0  0  0  0  0  0  0  0  0  0  0  0
   25.7746  -20.2369  -10.0363 N   0  0  0  0  0  0  0  0  0  0  0  0
   26.5955  -20.6511   -8.9406 C   0  0  1  0  0  0  0  0  0  0  0  0
   27.5910  -19.5935   -8.5174 C   0  0  0  0  0  0  0  0  0  0  0  0
   28.4362  -20.0574   -7.3873 C   0  0  0  0  0  0  0  0  0  0  0  0
   29.3794  -21.0597   -7.4364 C   0  0  0  0  0  0  0  0  0  0  0  0
   29.9270  -21.1835   -6.2234 N   0  0  0  0  0  0  0  0  0  0  0  0
   29.3962  -20.3104   -5.3583 C   0  0  0  0  0  0  0  0  0  0  0  0
   29.5957  -20.0258   -4.0243 C   0  0  0  0  0  0  0  0  0  0  0  0
   28.8926  -19.0475   -3.3624 C   0  0  0  0  0  0  0  0  0  0  0  0
   27.9504  -18.3345   -4.0944 C   0  0  0  0  0  0  0  0  0  0  0  0
   27.7575  -18.6268   -5.4308 C   0  0  0  0  0  0  0  0  0  0  0  0
   28.4520  -19.5956   -6.0915 C   0  0  0  0  0  0  0  0  0  0  0  0
   25.7270  -20.9828   -7.7835 C   0  0  0  0  0  0  0  0  0  0  0  0
   26.0504  -21.9996   -6.8870 O   0  0  0  0  0  0  0  0  0  0  0  0
   24.6737  -20.3133   -7.6275 O   0  0  0  0  0  0  0  0  0  0  0  0
  2  1  1  6
  2  4  1  0
  3  2  1  0
  4  6  1  0
  4  5  1  6
  6  7  2  0
  9  8  1  0
 10  9  2  0
 11  9  1  0
 12 11  1  1
 12 14  1  0
 13  6  1  0
 13 12  1  0
 14 15  2  0
 16 17  1  0
 16 14  1  0
 17 28  1  0
 17 18  1  1
 19 27  1  0
 19 18  1  0
 20 19  2  0
 21 20  1  0
 21 22  1  0
 22 27  2  0
 23 22  1  0
 23 24  2  0
 24 25  1  0
 25 26  2  0
 27 26  1  0
 28 30  2  0
 28 29  1  0
M  END
$$$$
