TNW.pdb
     RDKit          3D

 30 31  0  0  1  0  0  0  0  0999 V2000
   21.0336  -17.8984  -11.8324 C   0  0  0  0  0  0  0  0  0  0  0  0
   19.8615  -18.8561  -11.7681 C   0  0  1  0  0  0  0  0  0  0  0  0
   18.6553  -18.2172  -11.9533 O   0  0  0  0  0  0  0  0  0  0  0  0
   20.0387  -20.0007  -12.7664 C   0  0  2  0  0  0  0  0  0  0  0  0
   18.8817  -20.8576  -12.5895 N   0  0  0  0  0  0  0  0  0  0  0  0
   21.2784  -20.7742  -12.4699 C   0  0  0  0  0  0  0  0  0  0  0  0
   21.3216  -21.4879  -11.4102 O   0  0  0  0  0  0  0  0  0  0  0  0
   25.4781  -24.0954  -13.3327 N   0  0  0  0  0  0  0  0  0  0  0  0
   25.5680  -22.7503  -13.8073 C   0  0  0  0  0  0  0  0  0  0  0  0
   26.7265  -22.2840  -13.9376 O   0  0  0  0  0  0  0  0  0  0  0  0
   24.3703  -21.9530  -14.1265 C   0  0  0  0  0  0  0  0  0  0  0  0
   23.5861  -21.5132  -12.8978 C   0  0  2  0  0  0  0  0  0  0  0  0
   22.4085  -20.7636  -13.2945 N   0  0  0  0  0  0  0  0  0  0  0  0
   24.4863  -20.6994  -12.0457 C   0  0  0  0  0  0  0  0  0  0  0  0
   24.7489  -19.5181  -12.3333 O   0  0  0  0  0  0  0  0  0  0  0  0
   25.1020  -21.2230  -10.8492 N   0  0  0  0  0  0  0  0  0  0  0  0
   26.0447  -20.4783  -10.0730 C   0  0  1  0  0  0  0  0  0  0  0  0
   25.8515  -20.6549   -8.5830 C   0  0  0  0  0  0  0  0  0  0  0  0
   26.7676  -19.7824   -7.8044 C   0  0  0  0  0  0  0  0  0  0  0  0
   26.9877  -18.4399   -8.0179 C   0  0  0  0  0  0  0  0  0  0  0  0
   27.8763  -18.0095   -7.1169 N   0  0  0  0  0  0  0  0  0  0  0  0
   28.2655  -19.0005   -6.3053 C   0  0  0  0  0  0  0  0  0  0  0  0
   29.1357  -19.0947   -5.2402 C   0  0  0  0  0  0  0  0  0  0  0  0
   29.3546  -20.2716   -4.5645 C   0  0  0  0  0  0  0  0  0  0  0  0
   28.6561  -21.3932   -4.9961 C   0  0  0  0  0  0  0  0  0  0  0  0
   27.7863  -21.2890   -6.0642 C   0  0  0  0  0  0  0  0  0  0  0  0
   27.5658  -20.1246   -6.7373 C   0  0  0  0  0  0  0  0  0  0  0  0
   27.4179  -20.9115  -10.4333 C   0  0  0  0  0  0  0  0  0  0  0  0
   28.5214  -20.0766  -10.2674 O   0  0  0  0  0  0  0  0  0  0  0  0
   27.5658  -22.0700  -10.9002 O   0  0  0  0  0  0  0  0  0  0  0  0
  2  1  1  6
  2  4  1  0
  3  2  1  0
  4  6  1  0
  4  5  1  1
  6  7  2  0
  9  8  1  0
 10  9  2  0
 11  9  1  0
 12 11  1  6
 12 14  1  0
 13  6  1  0
 13 12  1  0
 14 15  2  0
 16 17  1  0
 16 14  1  0
 17 28  1  0
 17 18  1  1
 19 27  1  0
 19 18  1  0
 20 19  2  0
 21 20  1  0
 21 22  1  0
 22 27  2  0
 23 22  1  0
 23 24  2  0
 24 25  1  0
 25 26  2  0
 27 26  1  0
 28 30  2  0
 28 29  1  0
M  END
$$$$
