TNW.pdb
     RDKit          3D

 30 31  0  0  1  0  0  0  0  0999 V2000
   18.6853  -19.4587  -15.5350 C   0  0  0  0  0  0  0  0  0  0  0  0
   19.9884  -19.9977  -14.9813 C   0  0  1  0  0  0  0  0  0  0  0  0
   20.3721  -19.3506  -13.8275 O   0  0  0  0  0  0  0  0  0  0  0  0
   19.9037  -21.5090  -14.7644 C   0  0  2  0  0  0  0  0  0  0  0  0
   18.8922  -21.7021  -13.7427 N   0  0  0  0  0  0  0  0  0  0  0  0
   21.2068  -22.0479  -14.2799 C   0  0  0  0  0  0  0  0  0  0  0  0
   21.3664  -22.2419  -13.0265 O   0  0  0  0  0  0  0  0  0  0  0  0
   25.0184  -25.7640  -15.0810 N   0  0  0  0  0  0  0  0  0  0  0  0
   24.2322  -24.7931  -15.7753 C   0  0  0  0  0  0  0  0  0  0  0  0
   23.3399  -25.2426  -16.5358 O   0  0  0  0  0  0  0  0  0  0  0  0
   24.4540  -23.3455  -15.6102 C   0  0  0  0  0  0  0  0  0  0  0  0
   23.5609  -22.7091  -14.5540 C   0  0  2  0  0  0  0  0  0  0  0  0
   22.2756  -22.3569  -15.1280 N   0  0  0  0  0  0  0  0  0  0  0  0
   24.2615  -21.5171  -14.0182 C   0  0  0  0  0  0  0  0  0  0  0  0
   23.6503  -20.4551  -13.8040 O   0  0  0  0  0  0  0  0  0  0  0  0
   25.6738  -21.5192  -13.7179 N   0  0  0  0  0  0  0  0  0  0  0  0
   26.2161  -20.9208  -12.5374 C   0  0  1  0  0  0  0  0  0  0  0  0
   26.0493  -21.7866  -11.3080 C   0  0  0  0  0  0  0  0  0  0  0  0
   26.4146  -21.0541  -10.0683 C   0  0  0  0  0  0  0  0  0  0  0  0
   25.5417  -20.4205   -9.2121 C   0  0  0  0  0  0  0  0  0  0  0  0
   26.2478  -19.8776   -8.2155 N   0  0  0  0  0  0  0  0  0  0  0  0
   27.5571  -20.1162   -8.3603 C   0  0  0  0  0  0  0  0  0  0  0  0
   28.6861  -19.7930   -7.6382 C   0  0  0  0  0  0  0  0  0  0  0  0
   29.9479  -20.1776   -8.0249 C   0  0  0  0  0  0  0  0  0  0  0  0
   30.0569  -20.9207   -9.1945 C   0  0  0  0  0  0  0  0  0  0  0  0
   28.9199  -21.2397   -9.9114 C   0  0  0  0  0  0  0  0  0  0  0  0
   27.6668  -20.8609   -9.5322 C   0  0  0  0  0  0  0  0  0  0  0  0
   27.6620  -20.6597  -12.7476 C   0  0  0  0  0  0  0  0  0  0  0  0
   28.2212  -19.4001  -12.5401 O   0  0  0  0  0  0  0  0  0  0  0  0
   28.3843  -21.6182  -13.1240 O   0  0  0  0  0  0  0  0  0  0  0  0
  2  1  1  1
  2  4  1  0
  3  2  1  0
  4  6  1  0
  4  5  1  1
  6  7  2  0
  9  8  1  0
 10  9  2  0
 11  9  1  0
 12 11  1  6
 12 14  1  0
 13  6  1  0
 13 12  1  0
 14 15  2  0
 16 17  1  0
 16 14  1  0
 17 28  1  0
 17 18  1  1
 19 27  1  0
 19 18  1  0
 20 19  2  0
 21 20  1  0
 21 22  1  0
 22 27  2  0
 23 22  1  0
 23 24  2  0
 24 25  1  0
 25 26  2  0
 27 26  1  0
 28 30  2  0
 28 29  1  0
M  END
$$$$
