TNW.pdb
     RDKit          3D

 30 31  0  0  1  0  0  0  0  0999 V2000
   28.4117  -24.6026  -19.3861 C   0  0  0  0  0  0  0  0  0  0  0  0
   28.0869  -23.8668  -18.1022 C   0  0  1  0  0  0  0  0  0  0  0  0
   27.7857  -24.7274  -17.0698 O   0  0  0  0  0  0  0  0  0  0  0  0
   29.2225  -22.9182  -17.7166 C   0  0  2  0  0  0  0  0  0  0  0  0
   30.3334  -23.7705  -17.3375 N   0  0  0  0  0  0  0  0  0  0  0  0
   28.8310  -22.0686  -16.5555 C   0  0  0  0  0  0  0  0  0  0  0  0
   29.4947  -22.1671  -15.4674 O   0  0  0  0  0  0  0  0  0  0  0  0
   27.5194  -17.2954  -14.1236 N   0  0  0  0  0  0  0  0  0  0  0  0
   26.5297  -18.1162  -14.7476 C   0  0  0  0  0  0  0  0  0  0  0  0
   25.3652  -18.0294  -14.2858 O   0  0  0  0  0  0  0  0  0  0  0  0
   26.8542  -19.0146  -15.8698 C   0  0  0  0  0  0  0  0  0  0  0  0
   27.5152  -20.3160  -15.4367 C   0  0  2  0  0  0  0  0  0  0  0  0
   27.7678  -21.1600  -16.5898 N   0  0  0  0  0  0  0  0  0  0  0  0
   26.6199  -20.9831  -14.4610 C   0  0  0  0  0  0  0  0  0  0  0  0
   25.7382  -21.7763  -14.8362 O   0  0  0  0  0  0  0  0  0  0  0  0
   26.7175  -20.7544  -13.0387 N   0  0  0  0  0  0  0  0  0  0  0  0
   26.0230  -21.5523  -12.0759 C   0  0  1  0  0  0  0  0  0  0  0  0
   26.8925  -21.9515  -10.9041 C   0  0  0  0  0  0  0  0  0  0  0  0
   26.7224  -21.0255   -9.7550 C   0  0  0  0  0  0  0  0  0  0  0  0
   25.5826  -20.3183   -9.4434 C   0  0  0  0  0  0  0  0  0  0  0  0
   25.8206  -19.5979   -8.3430 N   0  0  0  0  0  0  0  0  0  0  0  0
   27.0690  -19.7870   -7.8980 C   0  0  0  0  0  0  0  0  0  0  0  0
   27.8025  -19.3023   -6.8362 C   0  0  0  0  0  0  0  0  0  0  0  0
   29.1056  -19.6738   -6.6051 C   0  0  0  0  0  0  0  0  0  0  0  0
   29.6782  -20.5752   -7.4949 C   0  0  0  0  0  0  0  0  0  0  0  0
   28.9354  -21.0555   -8.5560 C   0  0  0  0  0  0  0  0  0  0  0  0
   27.6432  -20.6903   -8.7893 C   0  0  0  0  0  0  0  0  0  0  0  0
   24.8545  -20.7904  -11.5685 C   0  0  0  0  0  0  0  0  0  0  0  0
   23.7497  -21.4251  -11.0039 O   0  0  0  0  0  0  0  0  0  0  0  0
   24.8845  -19.5364  -11.6613 O   0  0  0  0  0  0  0  0  0  0  0  0
  2  1  1  6
  2  4  1  0
  3  2  1  0
  4  6  1  0
  4  5  1  1
  6  7  2  0
  9  8  1  0
 10  9  2  0
 11  9  1  0
 12 11  1  6
 12 14  1  0
 13  6  1  0
 13 12  1  0
 14 15  2  0
 16 17  1  0
 16 14  1  0
 17 28  1  0
 17 18  1  1
 19 27  1  0
 19 18  1  0
 20 19  2  0
 21 20  1  0
 21 22  1  0
 22 27  2  0
 23 22  1  0
 23 24  2  0
 24 25  1  0
 25 26  2  0
 27 26  1  0
 28 30  2  0
 28 29  1  0
M  END
$$$$
