TNW.pdb
     RDKit          3D

 30 31  0  0  1  0  0  0  0  0999 V2000
   28.7811  -19.7739  -13.5083 C   0  0  0  0  0  0  0  0  0  0  0  0
   28.4642  -18.6483  -14.4715 C   0  0  1  0  0  0  0  0  0  0  0  0
   29.5925  -17.9581  -14.8562 O   0  0  0  0  0  0  0  0  0  0  0  0
   27.6964  -19.1714  -15.6859 C   0  0  2  0  0  0  0  0  0  0  0  0
   27.3797  -18.0016  -16.4831 N   0  0  0  0  0  0  0  0  0  0  0  0
   26.4324  -19.8410  -15.2646 C   0  0  0  0  0  0  0  0  0  0  0  0
   25.3776  -19.1333  -15.1211 O   0  0  0  0  0  0  0  0  0  0  0  0
   27.0915  -22.6937  -16.3843 N   0  0  0  0  0  0  0  0  0  0  0  0
   25.9562  -23.5333  -16.1630 C   0  0  0  0  0  0  0  0  0  0  0  0
   25.9566  -24.6366  -16.7626 O   0  0  0  0  0  0  0  0  0  0  0  0
   24.8462  -23.1298  -15.2816 C   0  0  0  0  0  0  0  0  0  0  0  0
   25.0568  -21.7758  -14.6178 C   0  0  2  0  0  0  0  0  0  0  0  0
   26.3344  -21.2141  -15.0154 N   0  0  0  0  0  0  0  0  0  0  0  0
   24.9813  -21.9677  -13.1494 C   0  0  0  0  0  0  0  0  0  0  0  0
   25.1846  -23.0822  -12.6360 O   0  0  0  0  0  0  0  0  0  0  0  0
   24.6718  -20.8876  -12.2426 N   0  0  0  0  0  0  0  0  0  0  0  0
   24.3633  -21.0990  -10.8620 C   0  0  1  0  0  0  0  0  0  0  0  0
   25.0783  -20.1325   -9.9438 C   0  0  0  0  0  0  0  0  0  0  0  0
   26.4698  -20.5705   -9.6634 C   0  0  0  0  0  0  0  0  0  0  0  0
   27.2225  -21.4279  -10.4346 C   0  0  0  0  0  0  0  0  0  0  0  0
   28.4177  -21.5774   -9.8553 N   0  0  0  0  0  0  0  0  0  0  0  0
   28.5057  -20.8598   -8.7285 C   0  0  0  0  0  0  0  0  0  0  0  0
   29.4860  -20.6636   -7.7794 C   0  0  0  0  0  0  0  0  0  0  0  0
   29.3068  -19.8485   -6.6871 C   0  0  0  0  0  0  0  0  0  0  0  0
   28.0778  -19.2111   -6.5628 C   0  0  0  0  0  0  0  0  0  0  0  0
   27.1016  -19.4139   -7.5190 C   0  0  0  0  0  0  0  0  0  0  0  0
   27.2744  -20.2208   -8.6036 C   0  0  0  0  0  0  0  0  0  0  0  0
   22.8993  -20.9536  -10.6654 C   0  0  0  0  0  0  0  0  0  0  0  0
   22.0523  -20.5605  -11.6999 O   0  0  0  0  0  0  0  0  0  0  0  0
   22.4319  -21.1975   -9.5234 O   0  0  0  0  0  0  0  0  0  0  0  0
  2  1  1  1
  2  4  1  0
  3  2  1  0
  4  6  1  0
  4  5  1  6
  6  7  2  0
  9  8  1  0
 10  9  2  0
 11  9  1  0
 12 11  1  6
 12 14  1  0
 13  6  1  0
 13 12  1  0
 14 15  2  0
 16 17  1  0
 16 14  1  0
 17 28  1  0
 17 18  1  1
 19 27  1  0
 19 18  1  0
 20 19  2  0
 21 20  1  0
 21 22  1  0
 22 27  2  0
 23 22  1  0
 23 24  2  0
 24 25  1  0
 25 26  2  0
 27 26  1  0
 28 30  2  0
 28 29  1  0
M  END
$$$$
