TNW.pdb
     RDKit          3D

 30 31  0  0  1  0  0  0  0  0999 V2000
   25.6551  -17.5155  -14.3234 C   0  0  0  0  0  0  0  0  0  0  0  0
   25.5640  -16.3376  -15.2719 C   0  0  1  0  0  0  0  0  0  0  0  0
   26.8021  -15.8158  -15.5756 O   0  0  0  0  0  0  0  0  0  0  0  0
   24.7993  -16.7182  -16.5401 C   0  0  2  0  0  0  0  0  0  0  0  0
   25.7297  -17.4898  -17.3421 N   0  0  0  0  0  0  0  0  0  0  0  0
   24.3864  -15.5002  -17.2946 C   0  0  0  0  0  0  0  0  0  0  0  0
   25.2643  -14.8705  -17.9777 O   0  0  0  0  0  0  0  0  0  0  0  0
   23.6175  -14.9018  -20.5406 N   0  0  0  0  0  0  0  0  0  0  0  0
   22.2222  -14.6648  -20.3415 C   0  0  0  0  0  0  0  0  0  0  0  0
   21.4652  -14.9756  -21.2939 O   0  0  0  0  0  0  0  0  0  0  0  0
   21.6984  -14.0884  -19.0904 C   0  0  0  0  0  0  0  0  0  0  0  0
   22.7762  -13.8016  -18.0539 C   0  0  2  0  0  0  0  0  0  0  0  0
   23.0789  -15.0025  -17.2976 N   0  0  0  0  0  0  0  0  0  0  0  0
   22.2877  -12.7136  -17.1728 C   0  0  0  0  0  0  0  0  0  0  0  0
   21.3321  -12.8950  -16.3975 O   0  0  0  0  0  0  0  0  0  0  0  0
   22.8842  -11.3987  -17.1631 N   0  0  0  0  0  0  0  0  0  0  0  0
   22.4631  -10.3631  -16.2710 C   0  0  1  0  0  0  0  0  0  0  0  0
   23.6093   -9.7503  -15.4967 C   0  0  0  0  0  0  0  0  0  0  0  0
   23.1748   -8.5551  -14.7288 C   0  0  0  0  0  0  0  0  0  0  0  0
   22.5058   -8.5619  -13.5252 C   0  0  0  0  0  0  0  0  0  0  0  0
   22.2909   -7.2958  -13.1547 N   0  0  0  0  0  0  0  0  0  0  0  0
   22.7846   -6.4352  -14.0536 C   0  0  0  0  0  0  0  0  0  0  0  0
   22.8315   -5.0611  -14.1547 C   0  0  0  0  0  0  0  0  0  0  0  0
   23.4181   -4.4163  -15.2176 C   0  0  0  0  0  0  0  0  0  0  0  0
   23.9772   -5.2085  -16.2134 C   0  0  0  0  0  0  0  0  0  0  0  0
   23.9254   -6.5846  -16.1034 C   0  0  0  0  0  0  0  0  0  0  0  0
   23.3451   -7.2286  -15.0517 C   0  0  0  0  0  0  0  0  0  0  0  0
   21.7874   -9.2968  -17.0518 C   0  0  0  0  0  0  0  0  0  0  0  0
   20.7033   -8.5847  -16.5420 O   0  0  0  0  0  0  0  0  0  0  0  0
   22.2231   -9.0459  -18.2047 O   0  0  0  0  0  0  0  0  0  0  0  0
  2  1  1  1
  2  4  1  0
  3  2  1  0
  4  6  1  0
  4  5  1  6
  6  7  2  0
  9  8  1  0
 10  9  2  0
 11  9  1  0
 12 11  1  6
 12 14  1  0
 13  6  1  0
 13 12  1  0
 14 15  2  0
 16 17  1  0
 16 14  1  0
 17 28  1  0
 17 18  1  6
 19 27  1  0
 19 18  1  0
 20 19  2  0
 21 20  1  0
 21 22  1  0
 22 27  2  0
 23 22  1  0
 23 24  2  0
 24 25  1  0
 25 26  2  0
 27 26  1  0
 28 30  2  0
 28 29  1  0
M  END
$$$$
