TNW.pdb
     RDKit          3D

 30 31  0  0  1  0  0  0  0  0999 V2000
   28.5294  -22.9656  -20.4229 C   0  0  0  0  0  0  0  0  0  0  0  0
   27.9710  -22.7004  -19.0398 C   0  0  1  0  0  0  0  0  0  0  0  0
   27.5764  -23.8579  -18.4060 O   0  0  0  0  0  0  0  0  0  0  0  0
   28.9731  -21.9194  -18.1889 C   0  0  2  0  0  0  0  0  0  0  0  0
   30.1469  -22.7661  -18.0900 N   0  0  0  0  0  0  0  0  0  0  0  0
   28.4266  -21.6686  -16.8245 C   0  0  0  0  0  0  0  0  0  0  0  0
   29.2152  -21.7415  -15.8211 O   0  0  0  0  0  0  0  0  0  0  0  0
   24.0323  -18.5368  -14.2945 N   0  0  0  0  0  0  0  0  0  0  0  0
   25.3800  -18.5240  -14.7702 C   0  0  0  0  0  0  0  0  0  0  0  0
   26.1664  -17.7368  -14.1882 O   0  0  0  0  0  0  0  0  0  0  0  0
   25.8247  -19.3847  -15.8807 C   0  0  0  0  0  0  0  0  0  0  0  0
   26.7491  -20.5131  -15.4442 C   0  0  2  0  0  0  0  0  0  0  0  0
   27.0859  -21.3542  -16.5777 N   0  0  0  0  0  0  0  0  0  0  0  0
   26.0614  -21.2844  -14.3808 C   0  0  0  0  0  0  0  0  0  0  0  0
   25.2982  -22.2257  -14.6614 O   0  0  0  0  0  0  0  0  0  0  0  0
   26.2350  -20.9925  -12.9775 N   0  0  0  0  0  0  0  0  0  0  0  0
   25.6852  -21.8114  -11.9416 C   0  0  1  0  0  0  0  0  0  0  0  0
   26.6435  -22.0290  -10.7914 C   0  0  0  0  0  0  0  0  0  0  0  0
   26.5461  -20.9418   -9.7838 C   0  0  0  0  0  0  0  0  0  0  0  0
   25.4575  -20.1252   -9.5725 C   0  0  0  0  0  0  0  0  0  0  0  0
   25.7535  -19.2744   -8.5851 N   0  0  0  0  0  0  0  0  0  0  0  0
   26.9922  -19.4799   -8.1206 C   0  0  0  0  0  0  0  0  0  0  0  0
   27.7672  -18.8995   -7.1392 C   0  0  0  0  0  0  0  0  0  0  0  0
   29.0464  -19.3188   -6.8610 C   0  0  0  0  0  0  0  0  0  0  0  0
   29.5500  -20.3715   -7.6161 C   0  0  0  0  0  0  0  0  0  0  0  0
   28.7660  -20.9468   -8.5974 C   0  0  0  0  0  0  0  0  0  0  0  0
   27.4973  -20.5348   -8.8770 C   0  0  0  0  0  0  0  0  0  0  0  0
   24.4506  -21.1715  -11.4228 C   0  0  0  0  0  0  0  0  0  0  0  0
   23.4774  -21.8959  -10.7370 O   0  0  0  0  0  0  0  0  0  0  0  0
   24.2997  -19.9383  -11.6196 O   0  0  0  0  0  0  0  0  0  0  0  0
  2  1  1  6
  2  4  1  0
  3  2  1  0
  4  6  1  0
  4  5  1  1
  6  7  2  0
  9  8  1  0
 10  9  2  0
 11  9  1  0
 12 11  1  6
 12 14  1  0
 13  6  1  0
 13 12  1  0
 14 15  2  0
 16 17  1  0
 16 14  1  0
 17 28  1  0
 17 18  1  1
 19 27  1  0
 19 18  1  0
 20 19  2  0
 21 20  1  0
 21 22  1  0
 22 27  2  0
 23 22  1  0
 23 24  2  0
 24 25  1  0
 25 26  2  0
 27 26  1  0
 28 30  2  0
 28 29  1  0
M  END
$$$$
