TNW.pdb
     RDKit          3D

 30 31  0  0  1  0  0  0  0  0999 V2000
   28.7720  -18.4364  -15.8961 C   0  0  0  0  0  0  0  0  0  0  0  0
   27.3909  -18.9589  -15.5572 C   0  0  1  0  0  0  0  0  0  0  0  0
   26.5823  -19.0545  -16.6682 O   0  0  0  0  0  0  0  0  0  0  0  0
   27.4806  -20.2972  -14.8231 C   0  0  2  0  0  0  0  0  0  0  0  0
   27.9565  -21.2522  -15.8059 N   0  0  0  0  0  0  0  0  0  0  0  0
   26.1389  -20.7210  -14.3296 C   0  0  0  0  0  0  0  0  0  0  0  0
   25.4648  -21.5603  -15.0189 O   0  0  0  0  0  0  0  0  0  0  0  0
   26.0336  -22.2254  -11.2533 N   0  0  0  0  0  0  0  0  0  0  0  0
   25.0240  -21.4865  -10.5622 C   0  0  0  0  0  0  0  0  0  0  0  0
   25.0130  -21.5979   -9.3116 O   0  0  0  0  0  0  0  0  0  0  0  0
   24.0497  -20.6408  -11.2744 C   0  0  0  0  0  0  0  0  0  0  0  0
   24.2231  -20.6534  -12.7871 C   0  0  2  0  0  0  0  0  0  0  0  0
   25.5703  -20.2477  -13.1422 N   0  0  0  0  0  0  0  0  0  0  0  0
   23.2095  -19.7434  -13.3729 C   0  0  0  0  0  0  0  0  0  0  0  0
   23.1175  -18.5599  -13.0012 O   0  0  0  0  0  0  0  0  0  0  0  0
   22.2834  -20.1714  -14.3945 N   0  0  0  0  0  0  0  0  0  0  0  0
   21.3264  -19.2916  -14.9911 C   0  0  1  0  0  0  0  0  0  0  0  0
   21.7308  -18.8318  -16.3745 C   0  0  0  0  0  0  0  0  0  0  0  0
   22.8543  -17.8612  -16.3227 C   0  0  0  0  0  0  0  0  0  0  0  0
   24.1721  -18.1274  -16.6207 C   0  0  0  0  0  0  0  0  0  0  0  0
   24.8772  -17.0038  -16.4561 N   0  0  0  0  0  0  0  0  0  0  0  0
   24.0950  -15.9918  -16.0607 C   0  0  0  0  0  0  0  0  0  0  0  0
   24.3083  -14.6639  -15.7583 C   0  0  0  0  0  0  0  0  0  0  0  0
   23.2953  -13.8215  -15.3663 C   0  0  0  0  0  0  0  0  0  0  0  0
   22.0166  -14.3597  -15.2810 C   0  0  0  0  0  0  0  0  0  0  0  0
   21.8125  -15.6915  -15.5860 C   0  0  0  0  0  0  0  0  0  0  0  0
   22.8134  -16.5307  -15.9751 C   0  0  0  0  0  0  0  0  0  0  0  0
   20.0185  -19.9877  -15.0803 C   0  0  0  0  0  0  0  0  0  0  0  0
   18.8390  -19.3055  -15.3725 O   0  0  0  0  0  0  0  0  0  0  0  0
   19.9985  -21.2297  -14.8826 O   0  0  0  0  0  0  0  0  0  0  0  0
  2  1  1  6
  2  4  1  0
  3  2  1  0
  4  6  1  0
  4  5  1  6
  6  7  2  0
  9  8  1  0
 10  9  2  0
 11  9  1  0
 12 11  1  1
 12 14  1  0
 13  6  1  0
 13 12  1  0
 14 15  2  0
 16 17  1  0
 16 14  1  0
 17 28  1  0
 17 18  1  6
 19 27  1  0
 19 18  1  0
 20 19  2  0
 21 20  1  0
 21 22  1  0
 22 27  2  0
 23 22  1  0
 23 24  2  0
 24 25  1  0
 25 26  2  0
 27 26  1  0
 28 30  2  0
 28 29  1  0
M  END
$$$$
