TNW.pdb
     RDKit          3D

 30 31  0  0  1  0  0  0  0  0999 V2000
   21.8688  -13.2528  -19.5871 C   0  0  0  0  0  0  0  0  0  0  0  0
   22.1151  -11.9699  -18.8197 C   0  0  1  0  0  0  0  0  0  0  0  0
   22.9527  -12.1592  -17.7427 O   0  0  0  0  0  0  0  0  0  0  0  0
   22.6458  -10.8752  -19.7460 C   0  0  2  0  0  0  0  0  0  0  0  0
   24.0047  -11.2634  -20.0732 N   0  0  0  0  0  0  0  0  0  0  0  0
   22.6609   -9.5558  -19.0515 C   0  0  0  0  0  0  0  0  0  0  0  0
   23.7422   -9.1652  -18.4927 O   0  0  0  0  0  0  0  0  0  0  0  0
   21.0355   -5.7933  -21.5012 N   0  0  0  0  0  0  0  0  0  0  0  0
   21.6517   -5.8705  -20.2139 C   0  0  0  0  0  0  0  0  0  0  0  0
   22.8507   -5.5033  -20.1497 O   0  0  0  0  0  0  0  0  0  0  0  0
   20.9237   -6.3534  -19.0270 C   0  0  0  0  0  0  0  0  0  0  0  0
   21.6567   -7.4508  -18.2676 C   0  0  2  0  0  0  0  0  0  0  0  0
   21.5475   -8.7122  -18.9765 N   0  0  0  0  0  0  0  0  0  0  0  0
   21.0701   -7.5389  -16.9086 C   0  0  0  0  0  0  0  0  0  0  0  0
   20.0321   -8.1910  -16.6980 O   0  0  0  0  0  0  0  0  0  0  0  0
   21.6611   -6.8825  -15.7664 N   0  0  0  0  0  0  0  0  0  0  0  0
   21.1438   -7.0200  -14.4400 C   0  0  1  0  0  0  0  0  0  0  0  0
   22.0003   -6.3327  -13.3994 C   0  0  0  0  0  0  0  0  0  0  0  0
   21.3222   -6.2811  -12.0787 C   0  0  0  0  0  0  0  0  0  0  0  0
   21.3277   -7.2730  -11.1234 C   0  0  0  0  0  0  0  0  0  0  0  0
   20.6082   -6.8554  -10.0773 N   0  0  0  0  0  0  0  0  0  0  0  0
   20.1175   -5.6270  -10.2833 C   0  0  0  0  0  0  0  0  0  0  0  0
   19.3361   -4.7605   -9.5491 C   0  0  0  0  0  0  0  0  0  0  0  0
   18.9681   -3.5203  -10.0137 C   0  0  0  0  0  0  0  0  0  0  0  0
   19.4172   -3.1544  -11.2772 C   0  0  0  0  0  0  0  0  0  0  0  0
   20.1998   -4.0294  -12.0056 C   0  0  0  0  0  0  0  0  0  0  0  0
   20.5674   -5.2599  -11.5494 C   0  0  0  0  0  0  0  0  0  0  0  0
   19.7764   -6.4448  -14.3918 C   0  0  0  0  0  0  0  0  0  0  0  0
   19.4412   -5.2820  -15.0830 O   0  0  0  0  0  0  0  0  0  0  0  0
   18.9112   -7.0413  -13.7005 O   0  0  0  0  0  0  0  0  0  0  0  0
  2  1  1  6
  2  4  1  0
  3  2  1  0
  4  6  1  0
  4  5  1  1
  6  7  2  0
  9  8  1  0
 10  9  2  0
 11  9  1  0
 12 11  1  6
 12 14  1  0
 13  6  1  0
 13 12  1  0
 14 15  2  0
 16 17  1  0
 16 14  1  0
 17 28  1  0
 17 18  1  1
 19 27  1  0
 19 18  1  0
 20 19  2  0
 21 20  1  0
 21 22  1  0
 22 27  2  0
 23 22  1  0
 23 24  2  0
 24 25  1  0
 25 26  2  0
 27 26  1  0
 28 30  2  0
 28 29  1  0
M  END
$$$$
