TNW.pdb
     RDKit          3D

 30 31  0  0  1  0  0  0  0  0999 V2000
   28.1677  -17.5318  -17.6442 C   0  0  0  0  0  0  0  0  0  0  0  0
   27.4044  -18.2977  -16.5831 C   0  0  1  0  0  0  0  0  0  0  0  0
   26.1840  -18.7449  -17.0392 O   0  0  0  0  0  0  0  0  0  0  0  0
   28.2448  -19.4512  -16.0343 C   0  0  2  0  0  0  0  0  0  0  0  0
   28.4361  -20.3611  -17.1478 N   0  0  0  0  0  0  0  0  0  0  0  0
   27.5230  -20.1563  -14.9365 C   0  0  0  0  0  0  0  0  0  0  0  0
   26.8761  -21.2244  -15.2098 O   0  0  0  0  0  0  0  0  0  0  0  0
   25.2716  -21.6330  -10.5191 N   0  0  0  0  0  0  0  0  0  0  0  0
   26.1444  -20.5442  -10.2102 C   0  0  0  0  0  0  0  0  0  0  0  0
   26.2524  -20.2472   -8.9950 O   0  0  0  0  0  0  0  0  0  0  0  0
   26.8775  -19.8096  -11.2565 C   0  0  0  0  0  0  0  0  0  0  0  0
   26.5851  -20.3042  -12.6665 C   0  0  2  0  0  0  0  0  0  0  0  0
   27.5139  -19.7107  -13.6104 N   0  0  0  0  0  0  0  0  0  0  0  0
   25.1815  -19.9556  -12.9934 C   0  0  0  0  0  0  0  0  0  0  0  0
   24.9028  -18.8933  -13.5774 O   0  0  0  0  0  0  0  0  0  0  0  0
   24.0719  -20.8164  -12.6580 N   0  0  0  0  0  0  0  0  0  0  0  0
   23.3174  -21.5279  -13.6431 C   0  0  1  0  0  0  0  0  0  0  0  0
   24.1722  -22.4422  -14.4929 C   0  0  0  0  0  0  0  0  0  0  0  0
   23.3640  -23.1522  -15.5173 C   0  0  0  0  0  0  0  0  0  0  0  0
   22.5934  -22.5637  -16.4952 C   0  0  0  0  0  0  0  0  0  0  0  0
   22.0207  -23.5301  -17.2196 N   0  0  0  0  0  0  0  0  0  0  0  0
   22.3700  -24.7436  -16.7750 C   0  0  0  0  0  0  0  0  0  0  0  0
   22.0717  -26.0358  -17.1515 C   0  0  0  0  0  0  0  0  0  0  0  0
   22.5835  -27.1335  -16.5013 C   0  0  0  0  0  0  0  0  0  0  0  0
   23.4321  -26.8985  -15.4259 C   0  0  0  0  0  0  0  0  0  0  0  0
   23.7252  -25.6001  -15.0560 C   0  0  0  0  0  0  0  0  0  0  0  0
   23.2205  -24.5086  -15.6973 C   0  0  0  0  0  0  0  0  0  0  0  0
   22.2769  -22.3390  -12.9631 C   0  0  0  0  0  0  0  0  0  0  0  0
   21.0739  -22.6664  -13.5858 O   0  0  0  0  0  0  0  0  0  0  0  0
   22.5096  -22.7313  -11.7909 O   0  0  0  0  0  0  0  0  0  0  0  0
  2  1  1  6
  2  4  1  0
  3  2  1  0
  4  6  1  0
  4  5  1  6
  6  7  2  0
  9  8  1  0
 10  9  2  0
 11  9  1  0
 12 11  1  1
 12 14  1  0
 13  6  1  0
 13 12  1  0
 14 15  2  0
 16 17  1  0
 16 14  1  0
 17 28  1  0
 17 18  1  1
 19 27  1  0
 19 18  1  0
 20 19  2  0
 21 20  1  0
 21 22  1  0
 22 27  2  0
 23 22  1  0
 23 24  2  0
 24 25  1  0
 25 26  2  0
 27 26  1  0
 28 30  2  0
 28 29  1  0
M  END
$$$$
