TNW.pdb
     RDKit          3D

 30 31  0  0  1  0  0  0  0  0999 V2000
   17.7910  -18.9864    3.1798 C   0  0  0  0  0  0  0  0  0  0  0  0
   16.4593  -19.0175    2.4581 C   0  0  1  0  0  0  0  0  0  0  0  0
   16.5412  -19.6548    1.2397 O   0  0  0  0  0  0  0  0  0  0  0  0
   15.3782  -19.6459    3.3381 C   0  0  2  0  0  0  0  0  0  0  0  0
   14.1360  -19.4882    2.6055 N   0  0  0  0  0  0  0  0  0  0  0  0
   15.2776  -18.9324    4.6435 C   0  0  0  0  0  0  0  0  0  0  0  0
   14.6969  -17.7943    4.6814 O   0  0  0  0  0  0  0  0  0  0  0  0
   16.7457  -21.2362    9.6520 N   0  0  0  0  0  0  0  0  0  0  0  0
   16.4423  -20.6379    8.3899 C   0  0  0  0  0  0  0  0  0  0  0  0
   17.0856  -21.0703    7.4020 O   0  0  0  0  0  0  0  0  0  0  0  0
   15.4323  -19.5736    8.2526 C   0  0  0  0  0  0  0  0  0  0  0  0
   15.6685  -18.6603    7.0575 C   0  0  2  0  0  0  0  0  0  0  0  0
   15.7876  -19.4435    5.8417 N   0  0  0  0  0  0  0  0  0  0  0  0
   16.8969  -17.8717    7.3181 C   0  0  0  0  0  0  0  0  0  0  0  0
   18.0064  -18.2570    6.9087 O   0  0  0  0  0  0  0  0  0  0  0  0
   16.8773  -16.6282    8.0515 N   0  0  0  0  0  0  0  0  0  0  0  0
   18.0640  -15.8916    8.3602 C   0  0  1  0  0  0  0  0  0  0  0  0
   17.8073  -14.4126    8.5480 C   0  0  0  0  0  0  0  0  0  0  0  0
   17.9809  -13.6608    7.2786 C   0  0  0  0  0  0  0  0  0  0  0  0
   17.0362  -13.5098    6.2881 C   0  0  0  0  0  0  0  0  0  0  0  0
   17.5662  -12.7709    5.3085 N   0  0  0  0  0  0  0  0  0  0  0  0
   18.8254  -12.4164    5.5931 C   0  0  0  0  0  0  0  0  0  0  0  0
   19.7937  -11.6789    4.9458 C   0  0  0  0  0  0  0  0  0  0  0  0
   21.0414  -11.4631    5.4808 C   0  0  0  0  0  0  0  0  0  0  0  0
   21.3067  -12.0237    6.7247 C   0  0  0  0  0  0  0  0  0  0  0  0
   20.3301  -12.7612    7.3657 C   0  0  0  0  0  0  0  0  0  0  0  0
   19.0917  -12.9779    6.8396 C   0  0  0  0  0  0  0  0  0  0  0  0
   18.6618  -16.4365    9.6047 C   0  0  0  0  0  0  0  0  0  0  0  0
   19.8888  -15.9884   10.0904 O   0  0  0  0  0  0  0  0  0  0  0  0
   18.0245  -17.3279   10.2222 O   0  0  0  0  0  0  0  0  0  0  0  0
  2  1  1  1
  2  4  1  0
  3  2  1  0
  4  6  1  0
  4  5  1  6
  6  7  2  0
  9  8  1  0
 10  9  2  0
 11  9  1  0
 12 11  1  1
 12 14  1  0
 13  6  1  0
 13 12  1  0
 14 15  2  0
 16 17  1  0
 16 14  1  0
 17 28  1  0
 17 18  1  1
 19 27  1  0
 19 18  1  0
 20 19  2  0
 21 20  1  0
 21 22  1  0
 22 27  2  0
 23 22  1  0
 23 24  2  0
 24 25  1  0
 25 26  2  0
 27 26  1  0
 28 30  2  0
 28 29  1  0
M  END
$$$$
