LKH.pdb
     RDKit          3D

 28 28  0  0  1  0  0  0  0  0999 V2000
   29.0642  -17.0731  -19.7362 C   0  0  0  0  0  0  0  0  0  0  0  0
   29.3844  -18.4403  -20.2696 C   0  0  2  0  0  0  0  0  0  0  0  0
   30.1318  -18.3709  -21.6009 C   0  0  0  0  0  0  0  0  0  0  0  0
   28.1087  -19.2816  -20.4237 C   0  0  0  0  0  0  0  0  0  0  0  0
   27.4615  -19.3130  -19.0640 C   0  0  2  0  0  0  0  0  0  0  0  0
   28.4229  -19.7599  -18.1038 N   0  0  0  0  0  0  0  0  0  0  0  0
   26.2127  -20.1131  -19.0444 C   0  0  0  0  0  0  0  0  0  0  0  0
   25.2763  -19.9632  -19.8392 O   0  0  0  0  0  0  0  0  0  0  0  0
   26.0952  -21.1072  -18.0506 N   0  0  0  0  0  0  0  0  0  0  0  0
   24.9309  -21.9648  -17.8836 C   0  0  1  0  0  0  0  0  0  0  0  0
   25.1822  -23.0958  -16.9654 C   0  0  0  0  0  0  0  0  0  0  0  0
   26.1326  -24.0754  -17.5768 C   0  0  0  0  0  0  0  0  0  0  0  0
   26.4124  -25.2851  -16.7031 C   0  0  0  0  0  0  0  0  0  0  0  0
   27.4112  -26.1614  -17.3995 C   0  0  0  0  0  0  0  0  0  0  0  0
   27.8177  -27.2761  -16.5387 N   0  0  0  0  0  0  0  0  0  0  0  0
   23.8035  -21.1291  -17.5039 C   0  0  0  0  0  0  0  0  0  0  0  0
   23.7583  -20.2855  -16.5663 O   0  0  0  0  0  0  0  0  0  0  0  0
   22.5742  -21.2451  -18.2592 N   0  0  0  0  0  0  0  0  0  0  0  0
   21.4125  -20.4507  -17.8835 C   0  0  1  0  0  0  0  0  0  0  0  0
   20.7663  -20.0292  -19.1880 C   0  0  0  0  0  0  0  0  0  0  0  0
   19.5755  -19.2087  -18.8514 C   0  0  0  0  0  0  0  0  0  0  0  0
   19.1841  -18.8139  -17.5665 C   0  0  0  0  0  0  0  0  0  0  0  0
   18.0616  -18.0814  -17.6327 N   0  0  0  0  0  0  0  0  0  0  0  0
   17.7446  -18.0114  -18.9350 C   0  0  0  0  0  0  0  0  0  0  0  0
   18.6421  -18.6806  -19.6654 N   0  0  0  0  0  0  0  0  0  0  0  0
   20.5140  -21.3145  -17.0839 C   0  0  0  0  0  0  0  0  0  0  0  0
   20.4686  -22.5506  -17.2496 O   0  0  0  0  0  0  0  0  0  0  0  0
   19.6857  -20.7713  -16.1154 O   0  0  0  0  0  0  0  0  0  0  0  0
  2  1  1  6
  3  2  1  0
  4  2  1  0
  5  4  1  0
  5  6  1  1
  7  5  1  0
  7  8  2  0
  9  7  1  0
 10  9  1  0
 10 11  1  1
 11 12  1  0
 12 13  1  0
 13 14  1  0
 14 15  1  0
 16 10  1  0
 17 16  2  0
 18 16  1  0
 19 18  1  0
 19 20  1  6
 20 21  1  0
 21 22  2  0
 22 23  1  0
 24 23  1  0
 25 21  1  0
 25 24  2  0
 26 28  1  0
 26 19  1  0
 27 26  2  0
M  END
$$$$
