LKH.pdb
     RDKit          3D

 28 28  0  0  1  0  0  0  0  0999 V2000
   27.6806  -16.0857  -18.1490 C   0  0  0  0  0  0  0  0  0  0  0  0
   27.8721  -17.3446  -18.9459 C   0  0  2  0  0  0  0  0  0  0  0  0
   28.1724  -17.0479  -20.4148 C   0  0  0  0  0  0  0  0  0  0  0  0
   26.6425  -18.2579  -18.8325 C   0  0  0  0  0  0  0  0  0  0  0  0
   26.3484  -18.3827  -17.3606 C   0  0  2  0  0  0  0  0  0  0  0  0
   27.4668  -18.9986  -16.7155 N   0  0  0  0  0  0  0  0  0  0  0  0
   25.0697  -19.0844  -17.0913 C   0  0  0  0  0  0  0  0  0  0  0  0
   24.0033  -18.8358  -17.6677 O   0  0  0  0  0  0  0  0  0  0  0  0
   25.0811  -20.0998  -16.1123 N   0  0  0  0  0  0  0  0  0  0  0  0
   23.9532  -20.9747  -15.8265 C   0  0  1  0  0  0  0  0  0  0  0  0
   24.3697  -22.2788  -15.2685 C   0  0  0  0  0  0  0  0  0  0  0  0
   24.9705  -23.1435  -16.3305 C   0  0  0  0  0  0  0  0  0  0  0  0
   25.5604  -24.4398  -15.8045 C   0  0  0  0  0  0  0  0  0  0  0  0
   26.2337  -25.1570  -16.9372 C   0  0  0  0  0  0  0  0  0  0  0  0
   26.8514  -26.4027  -16.4728 N   0  0  0  0  0  0  0  0  0  0  0  0
   23.0127  -20.2437  -14.9930 C   0  0  0  0  0  0  0  0  0  0  0  0
   23.2399  -19.7062  -13.8739 O   0  0  0  0  0  0  0  0  0  0  0  0
   21.6514  -20.0911  -15.4605 N   0  0  0  0  0  0  0  0  0  0  0  0
   20.6783  -19.3773  -14.6448 C   0  0  1  0  0  0  0  0  0  0  0  0
   19.8064  -18.6147  -15.6220 C   0  0  0  0  0  0  0  0  0  0  0  0
   20.5212  -17.3620  -15.9743 C   0  0  0  0  0  0  0  0  0  0  0  0
   21.7245  -16.9155  -15.4151 C   0  0  0  0  0  0  0  0  0  0  0  0
   22.0821  -15.7460  -15.9675 N   0  0  0  0  0  0  0  0  0  0  0  0
   21.1245  -15.4537  -16.8615 C   0  0  0  0  0  0  0  0  0  0  0  0
   20.1927  -16.4120  -16.8700 N   0  0  0  0  0  0  0  0  0  0  0  0
   19.8984  -20.3834  -13.8882 C   0  0  0  0  0  0  0  0  0  0  0  0
   19.9340  -21.5973  -14.1756 O   0  0  0  0  0  0  0  0  0  0  0  0
   19.0952  -20.0044  -12.8250 O   0  0  0  0  0  0  0  0  0  0  0  0
  2  1  1  1
  3  2  1  0
  4  2  1  0
  5  4  1  0
  5  6  1  1
  7  5  1  0
  7  8  2  0
  9  7  1  0
 10  9  1  0
 10 11  1  1
 11 12  1  0
 12 13  1  0
 13 14  1  0
 14 15  1  0
 16 10  1  0
 17 16  2  0
 18 16  1  0
 19 18  1  0
 19 20  1  6
 20 21  1  0
 21 22  2  0
 22 23  1  0
 24 23  1  0
 25 21  1  0
 25 24  2  0
 26 28  1  0
 26 19  1  0
 27 26  2  0
M  END
$$$$
