LKH.pdb
     RDKit          3D

 28 28  0  0  1  0  0  0  0  0999 V2000
   34.2154  -32.9077  -13.6814 C   0  0  0  0  0  0  0  0  0  0  0  0
   34.9303  -34.1688  -14.0748 C   0  0  2  0  0  0  0  0  0  0  0  0
   34.5006  -34.6589  -15.4572 C   0  0  0  0  0  0  0  0  0  0  0  0
   34.7087  -35.2733  -13.0308 C   0  0  0  0  0  0  0  0  0  0  0  0
   35.0650  -34.6674  -11.6987 C   0  0  2  0  0  0  0  0  0  0  0  0
   36.4823  -34.4842  -11.6376 N   0  0  0  0  0  0  0  0  0  0  0  0
   34.5354  -35.4501  -10.5555 C   0  0  0  0  0  0  0  0  0  0  0  0
   33.3590  -35.8184  -10.4482 O   0  0  0  0  0  0  0  0  0  0  0  0
   35.4404  -35.7915   -9.5288 N   0  0  0  0  0  0  0  0  0  0  0  0
   35.0721  -36.5106   -8.3179 C   0  0  1  0  0  0  0  0  0  0  0  0
   36.2428  -36.8748   -7.4920 C   0  0  0  0  0  0  0  0  0  0  0  0
   35.9328  -38.0496   -6.6199 C   0  0  0  0  0  0  0  0  0  0  0  0
   37.0836  -38.4668   -5.7217 C   0  0  0  0  0  0  0  0  0  0  0  0
   36.6350  -39.6147   -4.8663 C   0  0  0  0  0  0  0  0  0  0  0  0
   37.7404  -40.1168   -4.0448 N   0  0  0  0  0  0  0  0  0  0  0  0
   34.0677  -35.7292   -7.6148 C   0  0  0  0  0  0  0  0  0  0  0  0
   34.0254  -34.4741   -7.4886 O   0  0  0  0  0  0  0  0  0  0  0  0
   32.9753  -36.4285   -6.9725 N   0  0  0  0  0  0  0  0  0  0  0  0
   31.9715  -35.6808   -6.2274 C   0  0  1  0  0  0  0  0  0  0  0  0
   30.8587  -35.3937   -7.2154 C   0  0  0  0  0  0  0  0  0  0  0  0
   29.7109  -34.8475   -6.4483 C   0  0  0  0  0  0  0  0  0  0  0  0
   29.7897  -34.1194   -5.2551 C   0  0  0  0  0  0  0  0  0  0  0  0
   28.5588  -33.7837   -4.8393 N   0  0  0  0  0  0  0  0  0  0  0  0
   27.7125  -34.2885   -5.7506 C   0  0  0  0  0  0  0  0  0  0  0  0
   28.3925  -34.9229   -6.7108 N   0  0  0  0  0  0  0  0  0  0  0  0
   31.5044  -36.5378   -5.1137 C   0  0  0  0  0  0  0  0  0  0  0  0
   31.7962  -37.7493   -5.0472 O   0  0  0  0  0  0  0  0  0  0  0  0
   30.7195  -36.0154   -4.0987 O   0  0  0  0  0  0  0  0  0  0  0  0
  2  1  1  1
  3  2  1  0
  4  2  1  0
  5  4  1  0
  5  6  1  1
  7  5  1  0
  7  8  2  0
  9  7  1  0
 10  9  1  0
 10 11  1  1
 11 12  1  0
 12 13  1  0
 13 14  1  0
 14 15  1  0
 16 10  1  0
 17 16  2  0
 18 16  1  0
 19 18  1  0
 19 20  1  6
 20 21  1  0
 21 22  2  0
 22 23  1  0
 24 23  1  0
 25 21  1  0
 25 24  2  0
 26 28  1  0
 26 19  1  0
 27 26  2  0
M  END
$$$$
