LKH.pdb
     RDKit          3D

 28 28  0  0  1  0  0  0  0  0999 V2000
   24.7411  -21.3735   -9.3579 C   0  0  0  0  0  0  0  0  0  0  0  0
   26.1225  -21.3631   -9.9479 C   0  0  2  0  0  0  0  0  0  0  0  0
   27.1824  -21.0009   -8.9081 C   0  0  0  0  0  0  0  0  0  0  0  0
   26.2021  -20.3989  -11.1408 C   0  0  0  0  0  0  0  0  0  0  0  0
   25.0873  -20.7941  -12.0732 C   0  0  2  0  0  0  0  0  0  0  0  0
   25.4923  -21.9469  -12.8169 N   0  0  0  0  0  0  0  0  0  0  0  0
   24.6446  -19.6752  -12.9405 C   0  0  0  0  0  0  0  0  0  0  0  0
   24.2818  -18.5692  -12.5207 O   0  0  0  0  0  0  0  0  0  0  0  0
   24.6409  -19.8970  -14.3335 N   0  0  0  0  0  0  0  0  0  0  0  0
   24.2808  -18.8911  -15.3222 C   0  0  1  0  0  0  0  0  0  0  0  0
   24.8210  -19.1916  -16.6650 C   0  0  0  0  0  0  0  0  0  0  0  0
   25.6964  -18.0787  -17.1466 C   0  0  0  0  0  0  0  0  0  0  0  0
   26.2288  -18.2828  -18.5538 C   0  0  0  0  0  0  0  0  0  0  0  0
   26.9961  -17.0594  -18.9604 C   0  0  0  0  0  0  0  0  0  0  0  0
   27.6639  -17.2662  -20.2489 N   0  0  0  0  0  0  0  0  0  0  0  0
   22.8378  -18.7169  -15.2864 C   0  0  0  0  0  0  0  0  0  0  0  0
   21.9590  -19.6219  -15.2470 O   0  0  0  0  0  0  0  0  0  0  0  0
   22.3054  -17.3711  -15.2957 N   0  0  0  0  0  0  0  0  0  0  0  0
   20.8799  -17.1518  -15.0917 C   0  0  1  0  0  0  0  0  0  0  0  0
   20.7512  -15.7210  -14.6090 C   0  0  0  0  0  0  0  0  0  0  0  0
   19.3100  -15.4600  -14.3658 C   0  0  0  0  0  0  0  0  0  0  0  0
   18.5172  -16.0677  -13.3849 C   0  0  0  0  0  0  0  0  0  0  0  0
   17.2628  -15.5953  -13.4499 N   0  0  0  0  0  0  0  0  0  0  0  0
   17.2574  -14.7037  -14.4532 C   0  0  0  0  0  0  0  0  0  0  0  0
   18.4732  -14.6188  -15.0022 N   0  0  0  0  0  0  0  0  0  0  0  0
   20.2014  -17.3515  -16.3928 C   0  0  0  0  0  0  0  0  0  0  0  0
   20.7539  -17.0665  -17.4749 O   0  0  0  0  0  0  0  0  0  0  0  0
   18.9170  -17.8672  -16.4504 O   0  0  0  0  0  0  0  0  0  0  0  0
  2  1  1  1
  3  2  1  0
  4  2  1  0
  5  4  1  0
  5  6  1  6
  7  5  1  0
  7  8  2  0
  9  7  1  0
 10  9  1  0
 10 11  1  6
 11 12  1  0
 12 13  1  0
 13 14  1  0
 14 15  1  0
 16 10  1  0
 17 16  2  0
 18 16  1  0
 19 18  1  0
 19 20  1  6
 20 21  1  0
 21 22  2  0
 22 23  1  0
 24 23  1  0
 25 21  1  0
 25 24  2  0
 26 28  1  0
 26 19  1  0
 27 26  2  0
M  END
$$$$
