LKH.pdb
     RDKit          3D

 28 28  0  0  1  0  0  0  0  0999 V2000
   24.8381  -15.7458  -20.3713 C   0  0  0  0  0  0  0  0  0  0  0  0
   25.9460  -16.6460  -20.8386 C   0  0  2  0  0  0  0  0  0  0  0  0
   26.1313  -16.5804  -22.3543 C   0  0  0  0  0  0  0  0  0  0  0  0
   25.6961  -18.0965  -20.3996 C   0  0  0  0  0  0  0  0  0  0  0  0
   25.6308  -18.0729  -18.8951 C   0  0  2  0  0  0  0  0  0  0  0  0
   26.8802  -17.5991  -18.3847 N   0  0  0  0  0  0  0  0  0  0  0  0
   25.2324  -19.3809  -18.3203 C   0  0  0  0  0  0  0  0  0  0  0  0
   24.1975  -19.9886  -18.6217 O   0  0  0  0  0  0  0  0  0  0  0  0
   26.0969  -19.9613  -17.3687 N   0  0  0  0  0  0  0  0  0  0  0  0
   25.9108  -21.2852  -16.7929 C   0  0  1  0  0  0  0  0  0  0  0  0
   27.1393  -21.8103  -16.1603 C   0  0  0  0  0  0  0  0  0  0  0  0
   27.6140  -23.0421  -16.8631 C   0  0  0  0  0  0  0  0  0  0  0  0
   28.8168  -23.6969  -16.2075 C   0  0  0  0  0  0  0  0  0  0  0  0
   29.2660  -24.8446  -17.0628 C   0  0  0  0  0  0  0  0  0  0  0  0
   30.4851  -25.4530  -16.5221 N   0  0  0  0  0  0  0  0  0  0  0  0
   24.7593  -21.2360  -15.9067 C   0  0  0  0  0  0  0  0  0  0  0  0
   24.5823  -20.4629  -14.9250 O   0  0  0  0  0  0  0  0  0  0  0  0
   23.6698  -22.1600  -16.1400 N   0  0  0  0  0  0  0  0  0  0  0  0
   22.5335  -22.1889  -15.2290 C   0  0  1  0  0  0  0  0  0  0  0  0
   21.3746  -21.5918  -16.0019 C   0  0  0  0  0  0  0  0  0  0  0  0
   20.1750  -21.6587  -15.1296 C   0  0  0  0  0  0  0  0  0  0  0  0
   20.1716  -21.9063  -13.7517 C   0  0  0  0  0  0  0  0  0  0  0  0
   18.9131  -21.8957  -13.2859 N   0  0  0  0  0  0  0  0  0  0  0  0
   18.1304  -21.6460  -14.3473 C   0  0  0  0  0  0  0  0  0  0  0  0
   18.8759  -21.5040  -15.4476 N   0  0  0  0  0  0  0  0  0  0  0  0
   22.2786  -23.6028  -14.8697 C   0  0  0  0  0  0  0  0  0  0  0  0
   21.9820  -24.4580  -15.7287 O   0  0  0  0  0  0  0  0  0  0  0  0
   22.3624  -24.0254  -13.5531 O   0  0  0  0  0  0  0  0  0  0  0  0
  2  1  1  6
  3  2  1  0
  4  2  1  0
  5  4  1  0
  5  6  1  1
  7  5  1  0
  7  8  2  0
  9  7  1  0
 10  9  1  0
 10 11  1  1
 11 12  1  0
 12 13  1  0
 13 14  1  0
 14 15  1  0
 16 10  1  0
 17 16  2  0
 18 16  1  0
 19 18  1  0
 19 20  1  6
 20 21  1  0
 21 22  2  0
 22 23  1  0
 24 23  1  0
 25 21  1  0
 25 24  2  0
 26 28  1  0
 26 19  1  0
 27 26  2  0
M  END
$$$$
