LKH.pdb
     RDKit          3D

 28 28  0  0  1  0  0  0  0  0999 V2000
   27.1569  -20.1602   -5.2568 C   0  0  0  0  0  0  0  0  0  0  0  0
   28.0770  -19.7105   -6.3557 C   0  0  2  0  0  0  0  0  0  0  0  0
   29.0337  -18.6158   -5.8843 C   0  0  0  0  0  0  0  0  0  0  0  0
   27.2789  -19.2250   -7.5749 C   0  0  0  0  0  0  0  0  0  0  0  0
   26.5627  -20.4348   -8.1149 C   0  0  2  0  0  0  0  0  0  0  0  0
   27.4963  -21.5124   -8.2305 N   0  0  0  0  0  0  0  0  0  0  0  0
   25.8457  -20.1552   -9.3829 C   0  0  0  0  0  0  0  0  0  0  0  0
   25.1044  -19.1812   -9.5644 O   0  0  0  0  0  0  0  0  0  0  0  0
   26.0278  -21.0655  -10.4450 N   0  0  0  0  0  0  0  0  0  0  0  0
   25.5911  -20.8261  -11.8128 C   0  0  1  0  0  0  0  0  0  0  0  0
   26.3750  -21.5924  -12.8046 C   0  0  0  0  0  0  0  0  0  0  0  0
   26.0192  -21.1789  -14.1971 C   0  0  0  0  0  0  0  0  0  0  0  0
   26.7001  -22.0042  -15.2744 C   0  0  0  0  0  0  0  0  0  0  0  0
   26.3277  -21.4458  -16.6161 C   0  0  0  0  0  0  0  0  0  0  0  0
   27.0393  -22.1466  -17.6891 N   0  0  0  0  0  0  0  0  0  0  0  0
   24.1576  -21.0598  -11.8782 C   0  0  0  0  0  0  0  0  0  0  0  0
   23.5027  -21.9647  -11.2906 O   0  0  0  0  0  0  0  0  0  0  0  0
   23.3522  -20.1796  -12.6976 N   0  0  0  0  0  0  0  0  0  0  0  0
   21.9075  -20.3570  -12.7522 C   0  0  1  0  0  0  0  0  0  0  0  0
   21.3294  -18.9632  -12.8937 C   0  0  0  0  0  0  0  0  0  0  0  0
   19.8519  -19.0967  -12.9527 C   0  0  0  0  0  0  0  0  0  0  0  0
   19.1231  -20.2755  -12.7547 C   0  0  0  0  0  0  0  0  0  0  0  0
   17.8098  -20.0308  -12.8813 N   0  0  0  0  0  0  0  0  0  0  0  0
   17.7047  -18.7209  -13.1548 C   0  0  0  0  0  0  0  0  0  0  0  0
   18.9170  -18.1596  -13.1986 N   0  0  0  0  0  0  0  0  0  0  0  0
   21.5998  -21.1973  -13.9322 C   0  0  0  0  0  0  0  0  0  0  0  0
   22.1926  -21.0480  -15.0202 O   0  0  0  0  0  0  0  0  0  0  0  0
   20.6330  -22.1871  -13.8646 O   0  0  0  0  0  0  0  0  0  0  0  0
  2  1  1  1
  3  2  1  0
  4  2  1  0
  5  4  1  0
  5  6  1  6
  7  5  1  0
  7  8  2  0
  9  7  1  0
 10  9  1  0
 10 11  1  6
 11 12  1  0
 12 13  1  0
 13 14  1  0
 14 15  1  0
 16 10  1  0
 17 16  2  0
 18 16  1  0
 19 18  1  0
 19 20  1  6
 20 21  1  0
 21 22  2  0
 22 23  1  0
 24 23  1  0
 25 21  1  0
 25 24  2  0
 26 28  1  0
 26 19  1  0
 27 26  2  0
M  END
$$$$
