LKH.pdb
     RDKit          3D

 28 28  0  0  1  0  0  0  0  0999 V2000
   24.5962  -21.5875   -9.1855 C   0  0  0  0  0  0  0  0  0  0  0  0
   25.9347  -20.9118   -9.2757 C   0  0  2  0  0  0  0  0  0  0  0  0
   26.1934  -19.9997   -8.0770 C   0  0  0  0  0  0  0  0  0  0  0  0
   26.0596  -20.1145  -10.5824 C   0  0  0  0  0  0  0  0  0  0  0  0
   25.8760  -21.1089  -11.6985 C   0  0  2  0  0  0  0  0  0  0  0  0
   27.0855  -21.8561  -11.8567 N   0  0  0  0  0  0  0  0  0  0  0  0
   25.4216  -20.4743  -12.9598 C   0  0  0  0  0  0  0  0  0  0  0  0
   25.6574  -19.3009  -13.2741 O   0  0  0  0  0  0  0  0  0  0  0  0
   24.6724  -21.2692  -13.8523 N   0  0  0  0  0  0  0  0  0  0  0  0
   24.1761  -20.8082  -15.1408 C   0  0  1  0  0  0  0  0  0  0  0  0
   24.3760  -21.8009  -16.2178 C   0  0  0  0  0  0  0  0  0  0  0  0
   25.8057  -21.8287  -16.6558 C   0  0  0  0  0  0  0  0  0  0  0  0
   26.1220  -22.9355  -17.6459 C   0  0  0  0  0  0  0  0  0  0  0  0
   27.5795  -22.8673  -17.9948 C   0  0  0  0  0  0  0  0  0  0  0  0
   27.9497  -23.9543  -18.9059 N   0  0  0  0  0  0  0  0  0  0  0  0
   22.7955  -20.3857  -14.9696 C   0  0  0  0  0  0  0  0  0  0  0  0
   21.9726  -20.7937  -14.1040 O   0  0  0  0  0  0  0  0  0  0  0  0
   22.2634  -19.3865  -15.8715 N   0  0  0  0  0  0  0  0  0  0  0  0
   20.9827  -18.7553  -15.5833 C   0  0  1  0  0  0  0  0  0  0  0  0
   21.1922  -17.9707  -14.3038 C   0  0  0  0  0  0  0  0  0  0  0  0
   19.9173  -17.2767  -13.9920 C   0  0  0  0  0  0  0  0  0  0  0  0
   18.7471  -17.3202  -14.7593 C   0  0  0  0  0  0  0  0  0  0  0  0
   17.7905  -16.5774  -14.1814 N   0  0  0  0  0  0  0  0  0  0  0  0
   18.3415  -16.0707  -13.0672 C   0  0  0  0  0  0  0  0  0  0  0  0
   19.6073  -16.4835  -12.9491 N   0  0  0  0  0  0  0  0  0  0  0  0
   20.6513  -17.8662  -16.7203 C   0  0  0  0  0  0  0  0  0  0  0  0
   21.5081  -17.5233  -17.5603 O   0  0  0  0  0  0  0  0  0  0  0  0
   19.3646  -17.3815  -16.8891 O   0  0  0  0  0  0  0  0  0  0  0  0
  2  1  1  1
  3  2  1  0
  4  2  1  0
  5  4  1  0
  5  6  1  6
  7  5  1  0
  7  8  2  0
  9  7  1  0
 10  9  1  0
 10 11  1  6
 11 12  1  0
 12 13  1  0
 13 14  1  0
 14 15  1  0
 16 10  1  0
 17 16  2  0
 18 16  1  0
 19 18  1  0
 19 20  1  1
 20 21  1  0
 21 22  2  0
 22 23  1  0
 24 23  1  0
 25 21  1  0
 25 24  2  0
 26 28  1  0
 26 19  1  0
 27 26  2  0
M  END
$$$$
