LKH.pdb
     RDKit          3D

 28 28  0  0  1  0  0  0  0  0999 V2000
   32.3231  -12.0153  -17.3538 C   0  0  0  0  0  0  0  0  0  0  0  0
   32.8671  -12.0541  -18.7535 C   0  0  2  0  0  0  0  0  0  0  0  0
   33.5202  -10.7295  -19.1469 C   0  0  0  0  0  0  0  0  0  0  0  0
   31.7659  -12.4191  -19.7599 C   0  0  0  0  0  0  0  0  0  0  0  0
   31.0723  -13.6328  -19.1993 C   0  0  2  0  0  0  0  0  0  0  0  0
   31.9481  -14.7584  -19.3084 N   0  0  0  0  0  0  0  0  0  0  0  0
   29.7471  -13.8714  -19.8214 C   0  0  0  0  0  0  0  0  0  0  0  0
   29.3728  -13.3578  -20.8831 O   0  0  0  0  0  0  0  0  0  0  0  0
   28.8634  -14.7426  -19.1506 N   0  0  0  0  0  0  0  0  0  0  0  0
   27.5624  -15.1451  -19.6649 C   0  0  1  0  0  0  0  0  0  0  0  0
   27.2042  -16.5296  -19.2904 C   0  0  0  0  0  0  0  0  0  0  0  0
   27.9792  -17.5171  -20.1034 C   0  0  0  0  0  0  0  0  0  0  0  0
   27.6377  -18.9647  -19.7980 C   0  0  0  0  0  0  0  0  0  0  0  0
   28.4704  -19.8513  -20.6761 C   0  0  0  0  0  0  0  0  0  0  0  0
   28.3478  -21.2540  -20.2681 N   0  0  0  0  0  0  0  0  0  0  0  0
   26.5863  -14.1472  -19.2587 C   0  0  0  0  0  0  0  0  0  0  0  0
   26.4095  -13.6771  -18.1008 O   0  0  0  0  0  0  0  0  0  0  0  0
   25.6965  -13.6044  -20.2630 N   0  0  0  0  0  0  0  0  0  0  0  0
   24.6468  -12.6714  -19.8764 C   0  0  1  0  0  0  0  0  0  0  0  0
   24.1638  -12.0415  -21.1675 C   0  0  0  0  0  0  0  0  0  0  0  0
   23.1656  -11.0020  -20.8107 C   0  0  0  0  0  0  0  0  0  0  0  0
   22.8373  -10.5859  -19.5149 C   0  0  0  0  0  0  0  0  0  0  0  0
   21.8963   -9.6304  -19.5635 N   0  0  0  0  0  0  0  0  0  0  0  0
   21.6307   -9.4419  -20.8656 C   0  0  0  0  0  0  0  0  0  0  0  0
   22.3832  -10.2556  -21.6129 N   0  0  0  0  0  0  0  0  0  0  0  0
   23.5739  -13.4479  -19.2138 C   0  0  0  0  0  0  0  0  0  0  0  0
   22.8679  -12.9573  -18.3091 O   0  0  0  0  0  0  0  0  0  0  0  0
   23.3172  -14.7585  -19.5815 O   0  0  0  0  0  0  0  0  0  0  0  0
  2  1  1  1
  3  2  1  0
  4  2  1  0
  5  4  1  0
  5  6  1  6
  7  5  1  0
  7  8  2  0
  9  7  1  0
 10  9  1  0
 10 11  1  1
 11 12  1  0
 12 13  1  0
 13 14  1  0
 14 15  1  0
 16 10  1  0
 17 16  2  0
 18 16  1  0
 19 18  1  0
 19 20  1  6
 20 21  1  0
 21 22  2  0
 22 23  1  0
 24 23  1  0
 25 21  1  0
 25 24  2  0
 26 28  1  0
 26 19  1  0
 27 26  2  0
M  END
$$$$
