LKH.pdb
     RDKit          3D

 28 28  0  0  1  0  0  0  0  0999 V2000
   28.0966  -20.6439   -4.6879 C   0  0  0  0  0  0  0  0  0  0  0  0
   28.5850  -19.6340   -5.6869 C   0  0  2  0  0  0  0  0  0  0  0  0
   29.1881  -18.4059   -5.0060 C   0  0  0  0  0  0  0  0  0  0  0  0
   27.4540  -19.2096   -6.6354 C   0  0  0  0  0  0  0  0  0  0  0  0
   27.0707  -20.4442   -7.4082 C   0  0  2  0  0  0  0  0  0  0  0  0
   28.2095  -21.3047   -7.5011 N   0  0  0  0  0  0  0  0  0  0  0  0
   26.4774  -20.1289   -8.7305 C   0  0  0  0  0  0  0  0  0  0  0  0
   25.5952  -19.2809   -8.9144 O   0  0  0  0  0  0  0  0  0  0  0  0
   26.9575  -20.8485   -9.8447 N   0  0  0  0  0  0  0  0  0  0  0  0
   26.5295  -20.6156  -11.2165 C   0  0  1  0  0  0  0  0  0  0  0  0
   27.5036  -21.1138  -12.2106 C   0  0  0  0  0  0  0  0  0  0  0  0
   27.1015  -20.7144  -13.5946 C   0  0  0  0  0  0  0  0  0  0  0  0
   28.0466  -21.2101  -14.6745 C   0  0  0  0  0  0  0  0  0  0  0  0
   27.6229  -20.6266  -15.9901 C   0  0  0  0  0  0  0  0  0  0  0  0
   28.4977  -21.0882  -17.0720 N   0  0  0  0  0  0  0  0  0  0  0  0
   25.1901  -21.1593  -11.3716 C   0  0  0  0  0  0  0  0  0  0  0  0
   24.7034  -22.1703  -10.7938 O   0  0  0  0  0  0  0  0  0  0  0  0
   24.2787  -20.4981  -12.2810 N   0  0  0  0  0  0  0  0  0  0  0  0
   22.8915  -20.9345  -12.3652 C   0  0  1  0  0  0  0  0  0  0  0  0
   22.1037  -19.9597  -11.5132 C   0  0  0  0  0  0  0  0  0  0  0  0
   20.6663  -20.3024  -11.6565 C   0  0  0  0  0  0  0  0  0  0  0  0
   20.1522  -21.5152  -12.1306 C   0  0  0  0  0  0  0  0  0  0  0  0
   18.8107  -21.4789  -12.1263 N   0  0  0  0  0  0  0  0  0  0  0  0
   18.4773  -20.2659  -11.6583 C   0  0  0  0  0  0  0  0  0  0  0  0
   19.5776  -19.5611  -11.3769 N   0  0  0  0  0  0  0  0  0  0  0  0
   22.4831  -20.8696  -13.7872 C   0  0  0  0  0  0  0  0  0  0  0  0
   22.9328  -20.0018  -14.5631 O   0  0  0  0  0  0  0  0  0  0  0  0
   21.5784  -21.7809  -14.3069 O   0  0  0  0  0  0  0  0  0  0  0  0
  2  1  1  1
  3  2  1  0
  4  2  1  0
  5  4  1  0
  5  6  1  6
  7  5  1  0
  7  8  2  0
  9  7  1  0
 10  9  1  0
 10 11  1  6
 11 12  1  0
 12 13  1  0
 13 14  1  0
 14 15  1  0
 16 10  1  0
 17 16  2  0
 18 16  1  0
 19 18  1  0
 19 20  1  1
 20 21  1  0
 21 22  2  0
 22 23  1  0
 24 23  1  0
 25 21  1  0
 25 24  2  0
 26 28  1  0
 26 19  1  0
 27 26  2  0
M  END
$$$$
