LKH.pdb
     RDKit          3D

 28 28  0  0  1  0  0  0  0  0999 V2000
   24.3361  -23.4691  -13.9944 C   0  0  0  0  0  0  0  0  0  0  0  0
   23.3699  -24.1249  -14.9393 C   0  0  2  0  0  0  0  0  0  0  0  0
   22.1285  -24.6437  -14.2143 C   0  0  0  0  0  0  0  0  0  0  0  0
   24.0470  -25.2676  -15.7105 C   0  0  0  0  0  0  0  0  0  0  0  0
   25.2204  -24.6517  -16.4261 C   0  0  2  0  0  0  0  0  0  0  0  0
   24.7458  -23.6062  -17.2792 N   0  0  0  0  0  0  0  0  0  0  0  0
   26.0408  -25.6556  -17.1466 C   0  0  0  0  0  0  0  0  0  0  0  0
   25.6565  -26.2875  -18.1387 O   0  0  0  0  0  0  0  0  0  0  0  0
   27.3427  -25.8981  -16.6609 N   0  0  0  0  0  0  0  0  0  0  0  0
   28.2405  -26.9119  -17.1950 C   0  0  1  0  0  0  0  0  0  0  0  0
   29.6658  -26.5756  -16.9930 C   0  0  0  0  0  0  0  0  0  0  0  0
   30.5482  -27.5637  -17.6871 C   0  0  0  0  0  0  0  0  0  0  0  0
   32.0310  -27.2767  -17.5311 C   0  0  0  0  0  0  0  0  0  0  0  0
   32.7962  -28.1847  -18.4480 C   0  0  0  0  0  0  0  0  0  0  0  0
   34.2301  -27.8836  -18.4039 N   0  0  0  0  0  0  0  0  0  0  0  0
   27.8489  -28.1992  -16.6445 C   0  0  0  0  0  0  0  0  0  0  0  0
   27.7665  -28.5167  -15.4257 O   0  0  0  0  0  0  0  0  0  0  0  0
   27.5067  -29.2658  -17.5611 N   0  0  0  0  0  0  0  0  0  0  0  0
   27.0778  -30.5586  -17.0447 C   0  0  1  0  0  0  0  0  0  0  0  0
   25.6321  -30.7109  -17.4733 C   0  0  0  0  0  0  0  0  0  0  0  0
   25.1616  -32.0347  -16.9934 C   0  0  0  0  0  0  0  0  0  0  0  0
   25.9084  -32.9523  -16.2448 C   0  0  0  0  0  0  0  0  0  0  0  0
   25.1705  -34.0427  -15.9854 N   0  0  0  0  0  0  0  0  0  0  0  0
   23.9765  -33.8233  -16.5581 C   0  0  0  0  0  0  0  0  0  0  0  0
   23.9652  -32.6297  -17.1597 N   0  0  0  0  0  0  0  0  0  0  0  0
   27.9397  -31.5970  -17.6545 C   0  0  0  0  0  0  0  0  0  0  0  0
   28.4524  -31.4490  -18.7826 O   0  0  0  0  0  0  0  0  0  0  0  0
   28.2072  -32.7793  -16.9839 O   0  0  0  0  0  0  0  0  0  0  0  0
  2  1  1  1
  3  2  1  0
  4  2  1  0
  5  4  1  0
  5  6  1  6
  7  5  1  0
  7  8  2  0
  9  7  1  0
 10  9  1  0
 10 11  1  1
 11 12  1  0
 12 13  1  0
 13 14  1  0
 14 15  1  0
 16 10  1  0
 17 16  2  0
 18 16  1  0
 19 18  1  0
 19 20  1  6
 20 21  1  0
 21 22  2  0
 22 23  1  0
 24 23  1  0
 25 21  1  0
 25 24  2  0
 26 28  1  0
 26 19  1  0
 27 26  2  0
M  END
$$$$
