LKH.pdb
     RDKit          3D

 28 28  0  0  1  0  0  0  0  0999 V2000
   32.2355  -30.7199  -22.4330 C   0  0  0  0  0  0  0  0  0  0  0  0
   32.5036  -32.0227  -21.7350 C   0  0  2  0  0  0  0  0  0  0  0  0
   32.2477  -33.2209  -22.6486 C   0  0  0  0  0  0  0  0  0  0  0  0
   31.6603  -32.1438  -20.4570 C   0  0  0  0  0  0  0  0  0  0  0  0
   32.0907  -31.0108  -19.5629 C   0  0  2  0  0  0  0  0  0  0  0  0
   33.3744  -31.3177  -19.0116 N   0  0  0  0  0  0  0  0  0  0  0  0
   31.0809  -30.6865  -18.5260 C   0  0  0  0  0  0  0  0  0  0  0  0
   30.8972  -31.3526  -17.4995 O   0  0  0  0  0  0  0  0  0  0  0  0
   30.2832  -29.5418  -18.7334 N   0  0  0  0  0  0  0  0  0  0  0  0
   29.2116  -29.1181  -17.8438 C   0  0  1  0  0  0  0  0  0  0  0  0
   29.0127  -27.6532  -17.8474 C   0  0  0  0  0  0  0  0  0  0  0  0
   30.0826  -26.9699  -17.0568 C   0  0  0  0  0  0  0  0  0  0  0  0
   29.8952  -25.4676  -16.9422 C   0  0  0  0  0  0  0  0  0  0  0  0
   31.0821  -24.8872  -16.2315 C   0  0  0  0  0  0  0  0  0  0  0  0
   30.8864  -23.4583  -15.9694 N   0  0  0  0  0  0  0  0  0  0  0  0
   28.0194  -29.8814  -18.1750 C   0  0  0  0  0  0  0  0  0  0  0  0
   27.5662  -30.1308  -19.3262 O   0  0  0  0  0  0  0  0  0  0  0  0
   27.2336  -30.4363  -17.0936 N   0  0  0  0  0  0  0  0  0  0  0  0
   26.0335  -31.2074  -17.3883 C   0  0  1  0  0  0  0  0  0  0  0  0
   26.0939  -32.4203  -16.4817 C   0  0  0  0  0  0  0  0  0  0  0  0
   24.8992  -33.2532  -16.7705 C   0  0  0  0  0  0  0  0  0  0  0  0
   24.5688  -33.8178  -18.0083 C   0  0  0  0  0  0  0  0  0  0  0  0
   23.4223  -34.5079  -17.9073 N   0  0  0  0  0  0  0  0  0  0  0  0
   23.0304  -34.3849  -16.6295 C   0  0  0  0  0  0  0  0  0  0  0  0
   23.9056  -33.6391  -15.9479 N   0  0  0  0  0  0  0  0  0  0  0  0
   24.8621  -30.3549  -17.0814 C   0  0  0  0  0  0  0  0  0  0  0  0
   23.8633  -30.3133  -17.8284 O   0  0  0  0  0  0  0  0  0  0  0  0
   24.8379  -29.5674  -15.9419 O   0  0  0  0  0  0  0  0  0  0  0  0
  2  1  1  6
  3  2  1  0
  4  2  1  0
  5  4  1  0
  5  6  1  1
  7  5  1  0
  7  8  2  0
  9  7  1  0
 10  9  1  0
 10 11  1  6
 11 12  1  0
 12 13  1  0
 13 14  1  0
 14 15  1  0
 16 10  1  0
 17 16  2  0
 18 16  1  0
 19 18  1  0
 19 20  1  1
 20 21  1  0
 21 22  2  0
 22 23  1  0
 24 23  1  0
 25 21  1  0
 25 24  2  0
 26 28  1  0
 26 19  1  0
 27 26  2  0
M  END
$$$$
