LKH.pdb
     RDKit          3D

 28 28  0  0  1  0  0  0  0  0999 V2000
   24.6597  -15.7776  -16.0706 C   0  0  0  0  0  0  0  0  0  0  0  0
   25.9089  -15.0110  -16.3995 C   0  0  2  0  0  0  0  0  0  0  0  0
   27.0095  -15.2460  -15.3654 C   0  0  0  0  0  0  0  0  0  0  0  0
   25.6137  -13.5089  -16.5241 C   0  0  0  0  0  0  0  0  0  0  0  0
   24.5372  -13.3794  -17.5695 C   0  0  2  0  0  0  0  0  0  0  0  0
   24.9886  -13.9970  -18.7781 N   0  0  0  0  0  0  0  0  0  0  0  0
   24.1000  -11.9760  -17.7681 C   0  0  0  0  0  0  0  0  0  0  0  0
   23.7488  -11.2193  -16.8542 O   0  0  0  0  0  0  0  0  0  0  0  0
   24.0875  -11.4816  -19.0891 N   0  0  0  0  0  0  0  0  0  0  0  0
   23.7554  -10.1103  -19.4473 C   0  0  1  0  0  0  0  0  0  0  0  0
   24.2885   -9.7209  -20.7700 C   0  0  0  0  0  0  0  0  0  0  0  0
   25.7404   -9.3747  -20.6766 C   0  0  0  0  0  0  0  0  0  0  0  0
   26.3673   -8.9967  -22.0068 C   0  0  0  0  0  0  0  0  0  0  0  0
   27.8244   -8.7137  -21.7893 C   0  0  0  0  0  0  0  0  0  0  0  0
   28.4535   -8.2358  -23.0241 N   0  0  0  0  0  0  0  0  0  0  0  0
   22.3177   -9.9423  -19.3122 C   0  0  0  0  0  0  0  0  0  0  0  0
   21.4125  -10.6415  -19.8456 O   0  0  0  0  0  0  0  0  0  0  0  0
   21.8246   -8.8642  -18.4818 N   0  0  0  0  0  0  0  0  0  0  0  0
   20.3902   -8.6556  -18.3373 C   0  0  1  0  0  0  0  0  0  0  0  0
   20.0630   -9.0403  -16.9084 C   0  0  0  0  0  0  0  0  0  0  0  0
   18.6134   -8.7955  -16.7012 C   0  0  0  0  0  0  0  0  0  0  0  0
   17.7074   -8.3465  -17.6695 C   0  0  0  0  0  0  0  0  0  0  0  0
   16.4812   -8.2360  -17.1357 N   0  0  0  0  0  0  0  0  0  0  0  0
   16.6044   -8.6076  -15.8518 C   0  0  0  0  0  0  0  0  0  0  0  0
   17.8713   -8.9418  -15.5873 N   0  0  0  0  0  0  0  0  0  0  0  0
   20.1140   -7.2234  -18.5933 C   0  0  0  0  0  0  0  0  0  0  0  0
   20.9623   -6.3372  -18.3638 O   0  0  0  0  0  0  0  0  0  0  0  0
   18.8910   -6.8174  -19.1017 O   0  0  0  0  0  0  0  0  0  0  0  0
  2  1  1  1
  3  2  1  0
  4  2  1  0
  5  4  1  0
  5  6  1  6
  7  5  1  0
  7  8  2  0
  9  7  1  0
 10  9  1  0
 10 11  1  6
 11 12  1  0
 12 13  1  0
 13 14  1  0
 14 15  1  0
 16 10  1  0
 17 16  2  0
 18 16  1  0
 19 18  1  0
 19 20  1  1
 20 21  1  0
 21 22  2  0
 22 23  1  0
 24 23  1  0
 25 21  1  0
 25 24  2  0
 26 28  1  0
 26 19  1  0
 27 26  2  0
M  END
$$$$
