LKH.pdb
     RDKit          3D

 28 28  0  0  1  0  0  0  0  0999 V2000
   11.0949  -11.7157  -12.1350 C   0  0  0  0  0  0  0  0  0  0  0  0
   12.3384  -12.4764  -11.7724 C   0  0  2  0  0  0  0  0  0  0  0  0
   12.4745  -12.6569  -10.2609 C   0  0  0  0  0  0  0  0  0  0  0  0
   13.5884  -11.7846  -12.3362 C   0  0  0  0  0  0  0  0  0  0  0  0
   13.5167  -11.9451  -13.8320 C   0  0  2  0  0  0  0  0  0  0  0  0
   13.7023  -13.3252  -14.1592 N   0  0  0  0  0  0  0  0  0  0  0  0
   14.4594  -11.0514  -14.5480 C   0  0  0  0  0  0  0  0  0  0  0  0
   15.4647  -11.4412  -15.1551 O   0  0  0  0  0  0  0  0  0  0  0  0
   14.1825   -9.6684  -14.5294 N   0  0  0  0  0  0  0  0  0  0  0  0
   14.9935   -8.6616  -15.1985 C   0  0  1  0  0  0  0  0  0  0  0  0
   14.2699   -7.3886  -15.4017 C   0  0  0  0  0  0  0  0  0  0  0  0
   15.1077   -6.4186  -16.1723 C   0  0  0  0  0  0  0  0  0  0  0  0
   14.4629   -5.0551  -16.3466 C   0  0  0  0  0  0  0  0  0  0  0  0
   15.3956   -4.1778  -17.1283 C   0  0  0  0  0  0  0  0  0  0  0  0
   14.7589   -2.8983  -17.4541 N   0  0  0  0  0  0  0  0  0  0  0  0
   16.2423   -8.5261  -14.4664 C   0  0  0  0  0  0  0  0  0  0  0  0
   16.3896   -8.4308  -13.2165 O   0  0  0  0  0  0  0  0  0  0  0  0
   17.4803   -8.4921  -15.2154 N   0  0  0  0  0  0  0  0  0  0  0  0
   18.7524   -8.3918  -14.5130 C   0  0  1  0  0  0  0  0  0  0  0  0
   19.6281   -9.4832  -15.0951 C   0  0  0  0  0  0  0  0  0  0  0  0
   20.9703   -9.3578  -14.4729 C   0  0  0  0  0  0  0  0  0  0  0  0
   21.3334   -8.4450  -13.4754 C   0  0  0  0  0  0  0  0  0  0  0  0
   22.6241   -8.6115  -13.1478 N   0  0  0  0  0  0  0  0  0  0  0  0
   23.0739   -9.6113  -13.9221 C   0  0  0  0  0  0  0  0  0  0  0  0
   22.0939  -10.0596  -14.7130 N   0  0  0  0  0  0  0  0  0  0  0  0
   19.3099   -7.0457  -14.7781 C   0  0  0  0  0  0  0  0  0  0  0  0
   19.0699   -6.4297  -15.8366 O   0  0  0  0  0  0  0  0  0  0  0  0
   20.1249   -6.4206  -13.8486 O   0  0  0  0  0  0  0  0  0  0  0  0
  2  1  1  1
  3  2  1  0
  4  2  1  0
  5  4  1  0
  5  6  1  1
  7  5  1  0
  7  8  2  0
  9  7  1  0
 10  9  1  0
 10 11  1  1
 11 12  1  0
 12 13  1  0
 13 14  1  0
 14 15  1  0
 16 10  1  0
 17 16  2  0
 18 16  1  0
 19 18  1  0
 19 20  1  6
 20 21  1  0
 21 22  2  0
 22 23  1  0
 24 23  1  0
 25 21  1  0
 25 24  2  0
 26 28  1  0
 26 19  1  0
 27 26  2  0
M  END
$$$$
