HGY.pdb
     RDKit          3D

 27 28  0  0  1  0  0  0  0  0999 V2000
   26.7969  -22.2673  -17.0261 N   0  0  0  0  0  0  0  0  0  0  0  0
   27.8882  -21.3854  -16.7612 C   0  0  1  0  0  0  0  0  0  0  0  0
   28.0342  -20.4438  -17.9575 C   0  0  0  0  0  0  0  0  0  0  0  0
   28.3033  -21.2380  -19.1845 C   0  0  0  0  0  0  0  0  0  0  0  0
   27.5015  -21.4566  -20.2850 C   0  0  0  0  0  0  0  0  0  0  0  0
   28.1489  -22.2494  -21.1797 N   0  0  0  0  0  0  0  0  0  0  0  0
   29.3576  -22.5259  -20.6355 C   0  0  0  0  0  0  0  0  0  0  0  0
   29.4475  -21.9173  -19.4376 N   0  0  0  0  0  0  0  0  0  0  0  0
   27.7381  -20.6286  -15.5011 C   0  0  0  0  0  0  0  0  0  0  0  0
   28.6211  -19.8388  -15.0861 O   0  0  0  0  0  0  0  0  0  0  0  0
   26.5558  -20.7887  -14.7166 N   0  0  0  0  0  0  0  0  0  0  0  0
   26.4287  -20.0234  -13.5143 C   0  0  0  0  0  0  0  0  0  0  0  0
   25.6948  -20.6904  -12.4198 C   0  0  0  0  0  0  0  0  0  0  0  0
   25.3505  -21.9132  -12.5476 O   0  0  0  0  0  0  0  0  0  0  0  0
   29.4904  -19.8901   -6.6005 O   0  0  0  0  0  0  0  0  0  0  0  0
   28.2360  -19.8859   -7.1874 C   0  0  0  0  0  0  0  0  0  0  0  0
   27.6902  -18.7256   -7.6723 C   0  0  0  0  0  0  0  0  0  0  0  0
   26.4495  -18.7578   -8.2456 C   0  0  0  0  0  0  0  0  0  0  0  0
   25.7050  -19.9243   -8.3619 C   0  0  0  0  0  0  0  0  0  0  0  0
   24.3641  -19.9939   -8.9649 C   0  0  0  0  0  0  0  0  0  0  0  0
   24.3824  -20.7342  -10.2631 C   0  0  2  0  0  0  0  0  0  0  0  0
   25.3185  -20.0912  -11.1953 N   0  0  0  0  0  0  0  0  0  0  0  0
   23.0445  -20.8523  -10.8780 C   0  0  0  0  0  0  0  0  0  0  0  0
   22.1463  -21.7602  -10.3752 O   0  0  0  0  0  0  0  0  0  0  0  0
   26.2739  -21.1006   -7.8632 C   0  0  0  0  0  0  0  0  0  0  0  0
   27.5169  -21.0527   -7.2922 C   0  0  0  0  0  0  0  0  0  0  0  0
   22.7076  -20.1356  -11.8614 O   0  0  0  0  0  0  0  0  0  0  0  0
  2  1  1  6
  2  3  1  0
  4  3  1  0
  4  8  1  0
  5  4  2  0
  6  5  1  0
  6  7  1  0
  7  8  2  0
  9  2  1  0
 10  9  2  0
 11  9  1  0
 12 11  1  0
 13 22  1  0
 13 12  1  0
 14 13  2  0
 16 15  1  0
 17 16  2  0
 18 17  1  0
 19 25  1  0
 19 18  2  0
 21 20  1  1
 20 19  1  0
 21 23  1  0
 21 22  1  0
 23 24  1  0
 25 26  2  0
 26 16  1  0
 27 23  2  0
M  END
$$$$
