HGY.pdb
     RDKit          3D

 27 28  0  0  1  0  0  0  0  0999 V2000
   42.6467   -6.9371   -8.0006 N   0  0  0  0  0  0  0  0  0  0  0  0
   42.0193   -6.7308   -6.7347 C   0  0  1  0  0  0  0  0  0  0  0  0
   42.8589   -7.4403   -5.6714 C   0  0  0  0  0  0  0  0  0  0  0  0
   43.0852   -8.8518   -6.0781 C   0  0  0  0  0  0  0  0  0  0  0  0
   44.2331   -9.4619   -6.5384 C   0  0  0  0  0  0  0  0  0  0  0  0
   43.9894  -10.7747   -6.7936 N   0  0  0  0  0  0  0  0  0  0  0  0
   42.6862  -10.9837   -6.4916 C   0  0  0  0  0  0  0  0  0  0  0  0
   42.1457   -9.8274   -6.0622 N   0  0  0  0  0  0  0  0  0  0  0  0
   41.8287   -5.3042   -6.4003 C   0  0  0  0  0  0  0  0  0  0  0  0
   42.5484   -4.4004   -6.8908 O   0  0  0  0  0  0  0  0  0  0  0  0
   40.7962   -4.9230   -5.4906 N   0  0  0  0  0  0  0  0  0  0  0  0
   40.6358   -3.5339   -5.1874 C   0  0  0  0  0  0  0  0  0  0  0  0
   39.4912   -3.2101   -4.3119 C   0  0  0  0  0  0  0  0  0  0  0  0
   38.7396   -4.1504   -3.8864 O   0  0  0  0  0  0  0  0  0  0  0  0
   33.9553   -1.4778    1.9385 O   0  0  0  0  0  0  0  0  0  0  0  0
   34.9586   -1.7331    1.0186 C   0  0  0  0  0  0  0  0  0  0  0  0
   34.6973   -2.4321   -0.1314 C   0  0  0  0  0  0  0  0  0  0  0  0
   35.7115   -2.6660   -1.0177 C   0  0  0  0  0  0  0  0  0  0  0  0
   37.0111   -2.2245   -0.8069 C   0  0  0  0  0  0  0  0  0  0  0  0
   38.1281   -2.4656   -1.7346 C   0  0  0  0  0  0  0  0  0  0  0  0
   37.9757   -1.6782   -2.9957 C   0  0  2  0  0  0  0  0  0  0  0  0
   39.1264   -1.9144   -3.8782 N   0  0  0  0  0  0  0  0  0  0  0  0
   37.8017   -0.2313   -2.7542 C   0  0  0  0  0  0  0  0  0  0  0  0
   38.7882    0.6423   -3.1381 O   0  0  0  0  0  0  0  0  0  0  0  0
   37.2636   -1.5126    0.3702 C   0  0  0  0  0  0  0  0  0  0  0  0
   36.2381   -1.2860    1.2479 C   0  0  0  0  0  0  0  0  0  0  0  0
   36.7626    0.2219   -2.1981 O   0  0  0  0  0  0  0  0  0  0  0  0
  2  1  1  6
  2  3  1  0
  4  3  1  0
  4  8  1  0
  5  4  2  0
  6  5  1  0
  6  7  1  0
  7  8  2  0
  9  2  1  0
 10  9  2  0
 11  9  1  0
 12 11  1  0
 13 22  1  0
 13 12  1  0
 14 13  2  0
 16 15  1  0
 17 16  2  0
 18 17  1  0
 19 25  1  0
 19 18  2  0
 21 20  1  1
 20 19  1  0
 21 23  1  0
 21 22  1  0
 23 24  1  0
 25 26  2  0
 26 16  1  0
 27 23  2  0
M  END
$$$$
