HGY.pdb
     RDKit          3D

 27 28  0  0  1  0  0  0  0  0999 V2000
   25.6590  -19.2314  -17.9293 N   0  0  0  0  0  0  0  0  0  0  0  0
   27.0381  -19.0291  -17.6198 C   0  0  1  0  0  0  0  0  0  0  0  0
   27.4704  -17.6999  -18.2406 C   0  0  0  0  0  0  0  0  0  0  0  0
   27.0950  -17.6783  -19.6784 C   0  0  0  0  0  0  0  0  0  0  0  0
   27.5760  -18.4364  -20.7252 C   0  0  0  0  0  0  0  0  0  0  0  0
   26.9486  -18.0844  -21.8787 N   0  0  0  0  0  0  0  0  0  0  0  0
   26.0741  -17.1042  -21.5502 C   0  0  0  0  0  0  0  0  0  0  0  0
   26.1641  -16.8624  -20.2285 N   0  0  0  0  0  0  0  0  0  0  0  0
   27.3244  -19.0597  -16.1705 C   0  0  0  0  0  0  0  0  0  0  0  0
   26.7779  -18.2683  -15.3640 O   0  0  0  0  0  0  0  0  0  0  0  0
   28.2511  -20.0148  -15.6528 N   0  0  0  0  0  0  0  0  0  0  0  0
   28.4214  -20.0974  -14.2345 C   0  0  0  0  0  0  0  0  0  0  0  0
   27.2540  -20.6121  -13.4905 C   0  0  0  0  0  0  0  0  0  0  0  0
   26.7495  -21.7395  -13.8143 O   0  0  0  0  0  0  0  0  0  0  0  0
   21.3123  -22.2583   -7.2041 O   0  0  0  0  0  0  0  0  0  0  0  0
   22.2340  -21.6277   -8.0231 C   0  0  0  0  0  0  0  0  0  0  0  0
   21.8257  -20.8905   -9.1045 C   0  0  0  0  0  0  0  0  0  0  0  0
   22.7627  -20.2813   -9.8917 C   0  0  0  0  0  0  0  0  0  0  0  0
   24.1264  -20.3743   -9.6463 C   0  0  0  0  0  0  0  0  0  0  0  0
   25.1623  -19.7392  -10.4770 C   0  0  0  0  0  0  0  0  0  0  0  0
   25.5250  -20.5908  -11.6504 C   0  0  2  0  0  0  0  0  0  0  0  0
   26.6107  -19.9598  -12.4132 N   0  0  0  0  0  0  0  0  0  0  0  0
   24.3752  -20.8759  -12.5329 C   0  0  0  0  0  0  0  0  0  0  0  0
   23.6979  -22.0622  -12.4001 O   0  0  0  0  0  0  0  0  0  0  0  0
   24.5289  -21.1292   -8.5399 C   0  0  0  0  0  0  0  0  0  0  0  0
   23.5792  -21.7332   -7.7609 C   0  0  0  0  0  0  0  0  0  0  0  0
   24.0010  -20.0504  -13.4121 O   0  0  0  0  0  0  0  0  0  0  0  0
  2  1  1  1
  2  3  1  0
  4  3  1  0
  4  8  1  0
  5  4  2  0
  6  5  1  0
  6  7  1  0
  7  8  2  0
  9  2  1  0
 10  9  2  0
 11  9  1  0
 12 11  1  0
 13 22  1  0
 13 12  1  0
 14 13  2  0
 16 15  1  0
 17 16  2  0
 18 17  1  0
 19 25  1  0
 19 18  2  0
 21 20  1  1
 20 19  1  0
 21 23  1  0
 21 22  1  0
 23 24  1  0
 25 26  2  0
 26 16  1  0
 27 23  2  0
M  END
$$$$
