HGY.pdb
     RDKit          3D

 27 28  0  0  1  0  0  0  0  0999 V2000
   28.2332    3.1918  -13.0755 N   0  0  0  0  0  0  0  0  0  0  0  0
   29.5752    2.7125  -12.9850 C   0  0  1  0  0  0  0  0  0  0  0  0
   30.4433    3.5637  -13.9129 C   0  0  0  0  0  0  0  0  0  0  0  0
   30.0463    3.3215  -15.3245 C   0  0  0  0  0  0  0  0  0  0  0  0
   29.3069    4.1121  -16.1788 C   0  0  0  0  0  0  0  0  0  0  0  0
   29.1833    3.4996  -17.3862 N   0  0  0  0  0  0  0  0  0  0  0  0
   29.8474    2.3240  -17.2843 C   0  0  0  0  0  0  0  0  0  0  0  0
   30.3646    2.2197  -16.0453 N   0  0  0  0  0  0  0  0  0  0  0  0
   30.1067    2.7140  -11.6063 C   0  0  0  0  0  0  0  0  0  0  0  0
   31.2633    2.3088  -11.3350 O   0  0  0  0  0  0  0  0  0  0  0  0
   29.2912    3.1886  -10.5346 N   0  0  0  0  0  0  0  0  0  0  0  0
   29.8711    3.2853   -9.2301 C   0  0  0  0  0  0  0  0  0  0  0  0
   28.9415    3.0376   -8.1094 C   0  0  0  0  0  0  0  0  0  0  0  0
   27.6996    2.8639   -8.3496 O   0  0  0  0  0  0  0  0  0  0  0  0
   24.8472    0.8603   -0.7114 O   0  0  0  0  0  0  0  0  0  0  0  0
   25.7241    1.0120   -1.7726 C   0  0  0  0  0  0  0  0  0  0  0  0
   25.3918    0.5724   -3.0279 C   0  0  0  0  0  0  0  0  0  0  0  0
   26.2816    0.7382   -4.0526 C   0  0  0  0  0  0  0  0  0  0  0  0
   27.5223    1.3381   -3.8814 C   0  0  0  0  0  0  0  0  0  0  0  0
   28.5072    1.5251   -4.9590 C   0  0  0  0  0  0  0  0  0  0  0  0
   28.2973    2.8185   -5.6778 C   0  0  2  0  0  0  0  0  0  0  0  0
   29.2983    2.9702   -6.7426 N   0  0  0  0  0  0  0  0  0  0  0  0
   28.3238    3.9891   -4.7772 C   0  0  0  0  0  0  0  0  0  0  0  0
   27.1503    4.4564   -4.2401 O   0  0  0  0  0  0  0  0  0  0  0  0
   27.8481    1.7819   -2.5957 C   0  0  0  0  0  0  0  0  0  0  0  0
   26.9471    1.6091   -1.5800 C   0  0  0  0  0  0  0  0  0  0  0  0
   29.4057    4.5737   -4.4907 O   0  0  0  0  0  0  0  0  0  0  0  0
  2  1  1  1
  2  3  1  0
  4  3  1  0
  4  8  1  0
  5  4  2  0
  6  5  1  0
  6  7  1  0
  7  8  2  0
  9  2  1  0
 10  9  2  0
 11  9  1  0
 12 11  1  0
 13 22  1  0
 13 12  1  0
 14 13  2  0
 16 15  1  0
 17 16  2  0
 18 17  1  0
 19 25  1  0
 19 18  2  0
 21 20  1  1
 20 19  1  0
 21 23  1  0
 21 22  1  0
 23 24  1  0
 25 26  2  0
 26 16  1  0
 27 23  2  0
M  END
$$$$
