HGY.pdb
     RDKit          3D

 27 28  0  0  1  0  0  0  0  0999 V2000
   22.0943  -22.3291  -14.9193 N   0  0  0  0  0  0  0  0  0  0  0  0
   22.0218  -21.1918  -14.0590 C   0  0  1  0  0  0  0  0  0  0  0  0
   21.0891  -21.5382  -12.8975 C   0  0  0  0  0  0  0  0  0  0  0  0
   19.7111  -21.7481  -13.4132 C   0  0  0  0  0  0  0  0  0  0  0  0
   18.9879  -22.9152  -13.5422 C   0  0  0  0  0  0  0  0  0  0  0  0
   17.7613  -22.6449  -14.0624 N   0  0  0  0  0  0  0  0  0  0  0  0
   17.7197  -21.3058  -14.2582 C   0  0  0  0  0  0  0  0  0  0  0  0
   18.8917  -20.7699  -13.8675 N   0  0  0  0  0  0  0  0  0  0  0  0
   23.3412  -20.7425  -13.5685 C   0  0  0  0  0  0  0  0  0  0  0  0
   23.4838  -19.6873  -12.9039 O   0  0  0  0  0  0  0  0  0  0  0  0
   24.5036  -21.5224  -13.8507 N   0  0  0  0  0  0  0  0  0  0  0  0
   25.7705  -21.0479  -13.3847 C   0  0  0  0  0  0  0  0  0  0  0  0
   26.0564  -21.3158  -11.9606 C   0  0  0  0  0  0  0  0  0  0  0  0
   25.4881  -22.3006  -11.3799 O   0  0  0  0  0  0  0  0  0  0  0  0
   28.2760  -20.4213   -3.4873 O   0  0  0  0  0  0  0  0  0  0  0  0
   28.1690  -20.2271   -4.8544 C   0  0  0  0  0  0  0  0  0  0  0  0
   27.4090  -19.2054   -5.3623 C   0  0  0  0  0  0  0  0  0  0  0  0
   27.3256  -19.0427   -6.7172 C   0  0  0  0  0  0  0  0  0  0  0  0
   27.9818  -19.8733   -7.6160 C   0  0  0  0  0  0  0  0  0  0  0  0
   27.9074  -19.7327   -9.0793 C   0  0  0  0  0  0  0  0  0  0  0  0
   26.9672  -20.7268   -9.6804 C   0  0  2  0  0  0  0  0  0  0  0  0
   26.9296  -20.5645  -11.1402 N   0  0  0  0  0  0  0  0  0  0  0  0
   25.6035  -20.6430   -9.1188 C   0  0  0  0  0  0  0  0  0  0  0  0
   24.7222  -19.7162   -9.6169 O   0  0  0  0  0  0  0  0  0  0  0  0
   28.7536  -20.9113   -7.0842 C   0  0  0  0  0  0  0  0  0  0  0  0
   28.8277  -21.0616   -5.7257 C   0  0  0  0  0  0  0  0  0  0  0  0
   25.2292  -21.4063   -8.1851 O   0  0  0  0  0  0  0  0  0  0  0  0
  2  1  1  6
  2  3  1  0
  4  3  1  0
  4  8  1  0
  5  4  2  0
  6  5  1  0
  6  7  1  0
  7  8  2  0
  9  2  1  0
 10  9  2  0
 11  9  1  0
 12 11  1  0
 13 22  1  0
 13 12  1  0
 14 13  2  0
 16 15  1  0
 17 16  2  0
 18 17  1  0
 19 25  1  0
 19 18  2  0
 21 20  1  1
 20 19  1  0
 21 23  1  0
 21 22  1  0
 23 24  1  0
 25 26  2  0
 26 16  1  0
 27 23  2  0
M  END
$$$$
