HGY.pdb
     RDKit          3D

 27 28  0  0  1  0  0  0  0  0999 V2000
   26.5622  -19.8516  -19.8613 N   0  0  0  0  0  0  0  0  0  0  0  0
   26.1209  -19.6738  -18.5151 C   0  0  1  0  0  0  0  0  0  0  0  0
   24.7710  -18.9559  -18.5526 C   0  0  0  0  0  0  0  0  0  0  0  0
   24.9746  -17.5359  -18.9411 C   0  0  0  0  0  0  0  0  0  0  0  0
   25.7372  -17.0025  -19.9587 C   0  0  0  0  0  0  0  0  0  0  0  0
   25.6348  -15.6469  -19.9526 N   0  0  0  0  0  0  0  0  0  0  0  0
   24.8061  -15.3344  -18.9283 C   0  0  0  0  0  0  0  0  0  0  0  0
   24.4113  -16.4705  -18.3228 N   0  0  0  0  0  0  0  0  0  0  0  0
   26.0325  -20.9379  -17.7551 C   0  0  0  0  0  0  0  0  0  0  0  0
   25.3277  -21.9023  -18.1410 O   0  0  0  0  0  0  0  0  0  0  0  0
   26.7666  -21.0848  -16.5392 N   0  0  0  0  0  0  0  0  0  0  0  0
   26.5492  -22.2592  -15.7513 C   0  0  0  0  0  0  0  0  0  0  0  0
   25.6448  -22.0828  -14.5970 C   0  0  0  0  0  0  0  0  0  0  0  0
   25.4263  -23.0669  -13.8135 O   0  0  0  0  0  0  0  0  0  0  0  0
   29.9236  -21.4364  -10.4103 O   0  0  0  0  0  0  0  0  0  0  0  0
   28.6791  -21.0191  -10.8520 C   0  0  0  0  0  0  0  0  0  0  0  0
   28.5420  -20.3549  -12.0435 C   0  0  0  0  0  0  0  0  0  0  0  0
   27.2984  -19.9573  -12.4490 C   0  0  0  0  0  0  0  0  0  0  0  0
   26.1520  -20.1963  -11.7027 C   0  0  0  0  0  0  0  0  0  0  0  0
   24.8000  -19.7754  -12.1044 C   0  0  0  0  0  0  0  0  0  0  0  0
   24.1680  -20.7644  -13.0296 C   0  0  2  0  0  0  0  0  0  0  0  0
   24.9682  -20.8888  -14.2555 N   0  0  0  0  0  0  0  0  0  0  0  0
   22.7679  -20.4301  -13.3615 C   0  0  0  0  0  0  0  0  0  0  0  0
   21.8069  -20.4933  -12.3836 O   0  0  0  0  0  0  0  0  0  0  0  0
   26.3064  -20.8750  -10.4896 C   0  0  0  0  0  0  0  0  0  0  0  0
   27.5576  -21.2669  -10.0969 C   0  0  0  0  0  0  0  0  0  0  0  0
   22.4332  -20.0882  -14.5300 O   0  0  0  0  0  0  0  0  0  0  0  0
  2  1  1  6
  2  3  1  0
  4  3  1  0
  4  8  1  0
  5  4  2  0
  6  5  1  0
  6  7  1  0
  7  8  2  0
  9  2  1  0
 10  9  2  0
 11  9  1  0
 12 11  1  0
 13 22  1  0
 13 12  1  0
 14 13  2  0
 16 15  1  0
 17 16  2  0
 18 17  1  0
 19 25  1  0
 19 18  2  0
 21 20  1  1
 20 19  1  0
 21 23  1  0
 21 22  1  0
 23 24  1  0
 25 26  2  0
 26 16  1  0
 27 23  2  0
M  END
$$$$
