HGY.pdb
     RDKit          3D

 27 28  0  0  1  0  0  0  0  0999 V2000
   26.6023  -20.1521  -16.6451 N   0  0  0  0  0  0  0  0  0  0  0  0
   25.6994  -19.1722  -16.1319 C   0  0  1  0  0  0  0  0  0  0  0  0
   25.0298  -18.4802  -17.3201 C   0  0  0  0  0  0  0  0  0  0  0  0
   26.0613  -17.7925  -18.1397 C   0  0  0  0  0  0  0  0  0  0  0  0
   26.6382  -16.5517  -17.9685 C   0  0  0  0  0  0  0  0  0  0  0  0
   27.5410  -16.3201  -18.9582 N   0  0  0  0  0  0  0  0  0  0  0  0
   27.5269  -17.4194  -19.7485 C   0  0  0  0  0  0  0  0  0  0  0  0
   26.6375  -18.3018  -19.2547 N   0  0  0  0  0  0  0  0  0  0  0  0
   24.6946  -19.7299  -15.2031 C   0  0  0  0  0  0  0  0  0  0  0  0
   23.8797  -19.0030  -14.5842 O   0  0  0  0  0  0  0  0  0  0  0  0
   24.6342  -21.1406  -14.9906 N   0  0  0  0  0  0  0  0  0  0  0  0
   23.6911  -21.6454  -14.0404 C   0  0  0  0  0  0  0  0  0  0  0  0
   24.1746  -21.7046  -12.6460 C   0  0  0  0  0  0  0  0  0  0  0  0
   23.3950  -22.1281  -11.7279 O   0  0  0  0  0  0  0  0  0  0  0  0
   28.4023  -19.5579   -5.2130 O   0  0  0  0  0  0  0  0  0  0  0  0
   28.0465  -19.7303   -6.5403 C   0  0  0  0  0  0  0  0  0  0  0  0
   27.0001  -19.0315   -7.0844 C   0  0  0  0  0  0  0  0  0  0  0  0
   26.6762  -19.2263   -8.3982 C   0  0  0  0  0  0  0  0  0  0  0  0
   27.3646  -20.1096   -9.2194 C   0  0  0  0  0  0  0  0  0  0  0  0
   27.0380  -20.3502  -10.6343 C   0  0  0  0  0  0  0  0  0  0  0  0
   25.7841  -21.1501  -10.7812 C   0  0  2  0  0  0  0  0  0  0  0  0
   25.4634  -21.3256  -12.2042 N   0  0  0  0  0  0  0  0  0  0  0  0
   24.6358  -20.5582  -10.0648 C   0  0  0  0  0  0  0  0  0  0  0  0
   24.3160  -21.0098   -8.8088 O   0  0  0  0  0  0  0  0  0  0  0  0
   28.4298  -20.8157   -8.6514 C   0  0  0  0  0  0  0  0  0  0  0  0
   28.7424  -20.6100   -7.3348 C   0  0  0  0  0  0  0  0  0  0  0  0
   23.9372  -19.6439  -10.5848 O   0  0  0  0  0  0  0  0  0  0  0  0
  2  1  1  6
  2  3  1  0
  4  3  1  0
  4  8  1  0
  5  4  2  0
  6  5  1  0
  6  7  1  0
  7  8  2  0
  9  2  1  0
 10  9  2  0
 11  9  1  0
 12 11  1  0
 13 22  1  0
 13 12  1  0
 14 13  2  0
 16 15  1  0
 17 16  2  0
 18 17  1  0
 19 25  1  0
 19 18  2  0
 21 20  1  6
 20 19  1  0
 21 23  1  0
 21 22  1  0
 23 24  1  0
 25 26  2  0
 26 16  1  0
 27 23  2  0
M  END
$$$$
