HGY.pdb
     RDKit          3D

 27 28  0  0  1  0  0  0  0  0999 V2000
   22.3758  -21.0041  -13.2307 N   0  0  0  0  0  0  0  0  0  0  0  0
   23.0312  -20.6141  -14.4378 C   0  0  1  0  0  0  0  0  0  0  0  0
   22.5549  -19.2064  -14.7992 C   0  0  0  0  0  0  0  0  0  0  0  0
   21.0692  -19.1674  -14.7893 C   0  0  0  0  0  0  0  0  0  0  0  0
   20.2035  -18.8678  -13.7584 C   0  0  0  0  0  0  0  0  0  0  0  0
   18.9183  -18.9537  -14.1932 N   0  0  0  0  0  0  0  0  0  0  0  0
   18.9829  -19.3078  -15.4985 C   0  0  0  0  0  0  0  0  0  0  0  0
   20.2756  -19.4354  -15.8537 N   0  0  0  0  0  0  0  0  0  0  0  0
   24.5050  -20.6731  -14.3503 C   0  0  0  0  0  0  0  0  0  0  0  0
   25.2441  -20.4154  -15.3316 O   0  0  0  0  0  0  0  0  0  0  0  0
   25.1262  -21.0334  -13.1162 N   0  0  0  0  0  0  0  0  0  0  0  0
   26.5554  -21.0738  -13.0606 C   0  0  0  0  0  0  0  0  0  0  0  0
   27.1277  -21.2155  -11.7064 C   0  0  0  0  0  0  0  0  0  0  0  0
   27.4963  -22.3674  -11.2971 O   0  0  0  0  0  0  0  0  0  0  0  0
   28.8284  -20.2655   -3.2183 O   0  0  0  0  0  0  0  0  0  0  0  0
   28.4906  -19.9730   -4.5291 C   0  0  0  0  0  0  0  0  0  0  0  0
   27.2610  -19.4517   -4.8390 C   0  0  0  0  0  0  0  0  0  0  0  0
   26.9608  -19.1748   -6.1437 C   0  0  0  0  0  0  0  0  0  0  0  0
   27.8525  -19.3990   -7.1844 C   0  0  0  0  0  0  0  0  0  0  0  0
   27.5598  -19.1209   -8.5998 C   0  0  0  0  0  0  0  0  0  0  0  0
   27.1531  -20.3593   -9.3311 C   0  0  2  0  0  0  0  0  0  0  0  0
   27.3176  -20.1655  -10.7782 N   0  0  0  0  0  0  0  0  0  0  0  0
   25.7720  -20.7831   -9.0230 C   0  0  0  0  0  0  0  0  0  0  0  0
   25.5611  -21.8153   -8.1434 O   0  0  0  0  0  0  0  0  0  0  0  0
   29.1031  -19.9309   -6.8540 C   0  0  0  0  0  0  0  0  0  0  0  0
   29.3893  -20.2029   -5.5434 C   0  0  0  0  0  0  0  0  0  0  0  0
   24.7766  -20.2164   -9.5546 O   0  0  0  0  0  0  0  0  0  0  0  0
  2  1  1  1
  2  3  1  0
  4  3  1  0
  4  8  1  0
  5  4  2  0
  6  5  1  0
  6  7  1  0
  7  8  2  0
  9  2  1  0
 10  9  2  0
 11  9  1  0
 12 11  1  0
 13 22  1  0
 13 12  1  0
 14 13  2  0
 16 15  1  0
 17 16  2  0
 18 17  1  0
 19 25  1  0
 19 18  2  0
 21 20  1  1
 20 19  1  0
 21 23  1  0
 21 22  1  0
 23 24  1  0
 25 26  2  0
 26 16  1  0
 27 23  2  0
M  END
$$$$
