HGY.pdb
     RDKit          3D

 27 28  0  0  1  0  0  0  0  0999 V2000
   25.1869  -20.5636  -17.4720 N   0  0  0  0  0  0  0  0  0  0  0  0
   26.6065  -20.5422  -17.6237 C   0  0  1  0  0  0  0  0  0  0  0  0
   26.9859  -19.2371  -18.3250 C   0  0  0  0  0  0  0  0  0  0  0  0
   26.2877  -19.1562  -19.6345 C   0  0  0  0  0  0  0  0  0  0  0  0
   26.5996  -19.7556  -20.8367 C   0  0  0  0  0  0  0  0  0  0  0  0
   25.6848  -19.4060  -21.7796 N   0  0  0  0  0  0  0  0  0  0  0  0
   24.8003  -18.5864  -21.1637 C   0  0  0  0  0  0  0  0  0  0  0  0
   25.1648  -18.4382  -19.8758 N   0  0  0  0  0  0  0  0  0  0  0  0
   27.3350  -20.6937  -16.3471 C   0  0  0  0  0  0  0  0  0  0  0  0
   28.5809  -20.5626  -16.2685 O   0  0  0  0  0  0  0  0  0  0  0  0
   26.6137  -20.9995  -15.1534 N   0  0  0  0  0  0  0  0  0  0  0  0
   27.0055  -20.3541  -13.9379 C   0  0  0  0  0  0  0  0  0  0  0  0
   26.1628  -20.6601  -12.7642 C   0  0  0  0  0  0  0  0  0  0  0  0
   24.8941  -20.5482  -12.8550 O   0  0  0  0  0  0  0  0  0  0  0  0
   29.0131  -17.8674   -6.2246 O   0  0  0  0  0  0  0  0  0  0  0  0
   28.3691  -18.8538   -6.9527 C   0  0  0  0  0  0  0  0  0  0  0  0
   27.0052  -18.9851   -6.9064 C   0  0  0  0  0  0  0  0  0  0  0  0
   26.4022  -19.9701   -7.6379 C   0  0  0  0  0  0  0  0  0  0  0  0
   27.1135  -20.8563   -8.4361 C   0  0  0  0  0  0  0  0  0  0  0  0
   26.4983  -21.9328   -9.2293 C   0  0  0  0  0  0  0  0  0  0  0  0
   25.7246  -21.3899  -10.3870 C   0  0  2  0  0  0  0  0  0  0  0  0
   26.6339  -21.0813  -11.4990 N   0  0  0  0  0  0  0  0  0  0  0  0
   24.9202  -20.2017  -10.0361 C   0  0  0  0  0  0  0  0  0  0  0  0
   23.6620  -20.3666   -9.5131 O   0  0  0  0  0  0  0  0  0  0  0  0
   28.5040  -20.7110   -8.4742 C   0  0  0  0  0  0  0  0  0  0  0  0
   29.0934  -19.7201   -7.7365 C   0  0  0  0  0  0  0  0  0  0  0  0
   25.3647  -19.0326  -10.2091 O   0  0  0  0  0  0  0  0  0  0  0  0
  2  1  1  1
  2  3  1  0
  4  3  1  0
  4  8  1  0
  5  4  2  0
  6  5  1  0
  6  7  1  0
  7  8  2  0
  9  2  1  0
 10  9  2  0
 11  9  1  0
 12 11  1  0
 13 22  1  0
 13 12  1  0
 14 13  2  0
 16 15  1  0
 17 16  2  0
 18 17  1  0
 19 25  1  0
 19 18  2  0
 21 20  1  1
 20 19  1  0
 21 23  1  0
 21 22  1  0
 23 24  1  0
 25 26  2  0
 26 16  1  0
 27 23  2  0
M  END
$$$$
