HGY.pdb
     RDKit          3D

 27 28  0  0  1  0  0  0  0  0999 V2000
   24.0772  -19.3189  -14.9392 N   0  0  0  0  0  0  0  0  0  0  0  0
   22.9437  -19.4207  -14.0769 C   0  0  1  0  0  0  0  0  0  0  0  0
   21.7472  -19.8616  -14.9213 C   0  0  0  0  0  0  0  0  0  0  0  0
   21.4906  -18.8537  -15.9829 C   0  0  0  0  0  0  0  0  0  0  0  0
   21.5103  -18.9954  -17.3545 C   0  0  0  0  0  0  0  0  0  0  0  0
   21.2151  -17.8081  -17.9472 N   0  0  0  0  0  0  0  0  0  0  0  0
   21.0107  -16.9238  -16.9424 C   0  0  0  0  0  0  0  0  0  0  0  0
   21.1768  -17.5543  -15.7641 N   0  0  0  0  0  0  0  0  0  0  0  0
   23.1561  -20.3333  -12.9344 C   0  0  0  0  0  0  0  0  0  0  0  0
   22.2540  -20.5769  -12.0963 O   0  0  0  0  0  0  0  0  0  0  0  0
   24.4237  -20.9678  -12.7624 N   0  0  0  0  0  0  0  0  0  0  0  0
   24.6910  -21.6276  -11.5212 C   0  0  0  0  0  0  0  0  0  0  0  0
   25.6136  -20.9131  -10.6159 C   0  0  0  0  0  0  0  0  0  0  0  0
   25.1970  -19.8929   -9.9711 O   0  0  0  0  0  0  0  0  0  0  0  0
   29.9112  -18.8641   -3.6005 O   0  0  0  0  0  0  0  0  0  0  0  0
   29.1813  -19.3713   -4.6626 C   0  0  0  0  0  0  0  0  0  0  0  0
   27.8522  -19.0697   -4.8104 C   0  0  0  0  0  0  0  0  0  0  0  0
   27.1621  -19.5878   -5.8708 C   0  0  0  0  0  0  0  0  0  0  0  0
   27.7496  -20.4160   -6.8180 C   0  0  0  0  0  0  0  0  0  0  0  0
   27.0355  -20.9978   -7.9660 C   0  0  0  0  0  0  0  0  0  0  0  0
   27.7297  -20.6979   -9.2551 C   0  0  2  0  0  0  0  0  0  0  0  0
   26.9653  -21.2552  -10.3793 N   0  0  0  0  0  0  0  0  0  0  0  0
   29.1226  -21.1887   -9.2873 C   0  0  0  0  0  0  0  0  0  0  0  0
   30.1543  -20.3124   -9.0607 O   0  0  0  0  0  0  0  0  0  0  0  0
   29.1060  -20.7154   -6.6550 C   0  0  0  0  0  0  0  0  0  0  0  0
   29.7838  -20.1892   -5.5886 C   0  0  0  0  0  0  0  0  0  0  0  0
   29.3870  -22.4009   -9.5218 O   0  0  0  0  0  0  0  0  0  0  0  0
  2  1  1  6
  2  3  1  0
  4  3  1  0
  4  8  1  0
  5  4  2  0
  6  5  1  0
  6  7  1  0
  7  8  2  0
  9  2  1  0
 10  9  2  0
 11  9  1  0
 12 11  1  0
 13 22  1  0
 13 12  1  0
 14 13  2  0
 16 15  1  0
 17 16  2  0
 18 17  1  0
 19 25  1  0
 19 18  2  0
 21 20  1  1
 20 19  1  0
 21 23  1  0
 21 22  1  0
 23 24  1  0
 25 26  2  0
 26 16  1  0
 27 23  2  0
M  END
$$$$
