HGY.pdb
     RDKit          3D

 27 28  0  0  1  0  0  0  0  0999 V2000
   20.5743  -18.7423  -14.9068 N   0  0  0  0  0  0  0  0  0  0  0  0
   19.9681  -19.3896  -13.7877 C   0  0  1  0  0  0  0  0  0  0  0  0
   18.7180  -20.1172  -14.2844 C   0  0  0  0  0  0  0  0  0  0  0  0
   17.8007  -19.1430  -14.9312 C   0  0  0  0  0  0  0  0  0  0  0  0
   17.5674  -18.9089  -16.2700 C   0  0  0  0  0  0  0  0  0  0  0  0
   16.6436  -17.9219  -16.4135 N   0  0  0  0  0  0  0  0  0  0  0  0
   16.3001  -17.5396  -15.1608 C   0  0  0  0  0  0  0  0  0  0  0  0
   16.9964  -18.2745  -14.2727 N   0  0  0  0  0  0  0  0  0  0  0  0
   20.8787  -20.3141  -13.0810 C   0  0  0  0  0  0  0  0  0  0  0  0
   20.4918  -21.0384  -12.1316 O   0  0  0  0  0  0  0  0  0  0  0  0
   22.2476  -20.3994  -13.4780 N   0  0  0  0  0  0  0  0  0  0  0  0
   23.1242  -21.2394  -12.7208 C   0  0  0  0  0  0  0  0  0  0  0  0
   24.5450  -20.8361  -12.7312 C   0  0  0  0  0  0  0  0  0  0  0  0
   24.8705  -19.6928  -13.1970 O   0  0  0  0  0  0  0  0  0  0  0  0
   26.8139  -19.3663   -6.1767 O   0  0  0  0  0  0  0  0  0  0  0  0
   27.0838  -19.9584   -7.3993 C   0  0  0  0  0  0  0  0  0  0  0  0
   28.3631  -20.0077   -7.8896 C   0  0  0  0  0  0  0  0  0  0  0  0
   28.5937  -20.5998   -9.1001 C   0  0  0  0  0  0  0  0  0  0  0  0
   27.5815  -21.1610   -9.8677 C   0  0  0  0  0  0  0  0  0  0  0  0
   27.7922  -21.7981  -11.1777 C   0  0  0  0  0  0  0  0  0  0  0  0
   27.0083  -21.1176  -12.2528 C   0  0  2  0  0  0  0  0  0  0  0  0
   25.6263  -21.6163  -12.2598 N   0  0  0  0  0  0  0  0  0  0  0  0
   27.6154  -21.2672  -13.5912 C   0  0  0  0  0  0  0  0  0  0  0  0
   28.5567  -20.3615  -14.0124 O   0  0  0  0  0  0  0  0  0  0  0  0
   26.2814  -21.1037   -9.3553 C   0  0  0  0  0  0  0  0  0  0  0  0
   26.0661  -20.5079   -8.1420 C   0  0  0  0  0  0  0  0  0  0  0  0
   27.2850  -22.2121  -14.3608 O   0  0  0  0  0  0  0  0  0  0  0  0
  2  1  1  6
  2  3  1  0
  4  3  1  0
  4  8  1  0
  5  4  2  0
  6  5  1  0
  6  7  1  0
  7  8  2  0
  9  2  1  0
 10  9  2  0
 11  9  1  0
 12 11  1  0
 13 22  1  0
 13 12  1  0
 14 13  2  0
 16 15  1  0
 17 16  2  0
 18 17  1  0
 19 25  1  0
 19 18  2  0
 21 20  1  1
 20 19  1  0
 21 23  1  0
 21 22  1  0
 23 24  1  0
 25 26  2  0
 26 16  1  0
 27 23  2  0
M  END
$$$$
