HGY.pdb
     RDKit          3D

 27 28  0  0  1  0  0  0  0  0999 V2000
   27.6745  -33.3215  -21.3194 N   0  0  0  0  0  0  0  0  0  0  0  0
   28.2542  -33.0790  -20.0373 C   0  0  1  0  0  0  0  0  0  0  0  0
   29.4116  -32.0963  -20.2216 C   0  0  0  0  0  0  0  0  0  0  0  0
   30.4386  -32.7001  -21.1100 C   0  0  0  0  0  0  0  0  0  0  0  0
   31.1497  -33.8725  -20.9636 C   0  0  0  0  0  0  0  0  0  0  0  0
   31.9895  -34.0399  -22.0195 N   0  0  0  0  0  0  0  0  0  0  0  0
   31.8015  -32.9689  -22.8264 C   0  0  0  0  0  0  0  0  0  0  0  0
   30.8698  -32.1661  -22.2779 N   0  0  0  0  0  0  0  0  0  0  0  0
   27.2845  -32.5809  -19.0399 C   0  0  0  0  0  0  0  0  0  0  0  0
   26.2998  -31.8717  -19.3608 O   0  0  0  0  0  0  0  0  0  0  0  0
   27.4578  -32.9075  -17.6607 N   0  0  0  0  0  0  0  0  0  0  0  0
   26.4800  -32.4445  -16.7242 C   0  0  0  0  0  0  0  0  0  0  0  0
   26.6443  -32.9463  -15.3448 C   0  0  0  0  0  0  0  0  0  0  0  0
   27.5768  -33.7792  -15.0858 O   0  0  0  0  0  0  0  0  0  0  0  0
   26.3138  -34.2662   -6.6583 O   0  0  0  0  0  0  0  0  0  0  0  0
   26.0582  -33.7988   -7.9367 C   0  0  0  0  0  0  0  0  0  0  0  0
   24.9299  -34.1835   -8.6137 C   0  0  0  0  0  0  0  0  0  0  0  0
   24.7090  -33.7027   -9.8743 C   0  0  0  0  0  0  0  0  0  0  0  0
   25.5838  -32.8322  -10.5111 C   0  0  0  0  0  0  0  0  0  0  0  0
   25.3820  -32.3023  -11.8693 C   0  0  0  0  0  0  0  0  0  0  0  0
   26.0595  -33.1501  -12.8969 C   0  0  2  0  0  0  0  0  0  0  0  0
   25.8439  -32.5855  -14.2361 N   0  0  0  0  0  0  0  0  0  0  0  0
   25.6242  -34.5611  -12.8579 C   0  0  0  0  0  0  0  0  0  0  0  0
   26.4275  -35.5009  -12.2620 O   0  0  0  0  0  0  0  0  0  0  0  0
   26.7306  -32.4480   -9.8088 C   0  0  0  0  0  0  0  0  0  0  0  0
   26.9381  -32.9374   -8.5475 C   0  0  0  0  0  0  0  0  0  0  0  0
   24.5261  -34.9244  -13.3645 O   0  0  0  0  0  0  0  0  0  0  0  0
  2  1  1  6
  2  3  1  0
  4  3  1  0
  4  8  1  0
  5  4  2  0
  6  5  1  0
  6  7  1  0
  7  8  2  0
  9  2  1  0
 10  9  2  0
 11  9  1  0
 12 11  1  0
 13 22  1  0
 13 12  1  0
 14 13  2  0
 16 15  1  0
 17 16  2  0
 18 17  1  0
 19 25  1  0
 19 18  2  0
 21 20  1  1
 20 19  1  0
 21 23  1  0
 21 22  1  0
 23 24  1  0
 25 26  2  0
 26 16  1  0
 27 23  2  0
M  END
$$$$
