GDY.pdb
     RDKit          3D

 25 25  0  0  1  0  0  0  0  0999 V2000
   26.2734  -35.1420    2.4880 N   0  0  0  0  0  0  0  0  0  0  0  0
   26.1517  -36.2697    1.6169 C   0  0  0  0  0  0  0  0  0  0  0  0
   27.4239  -36.4973    0.8621 C   0  0  0  0  0  0  0  0  0  0  0  0
   28.5469  -36.1751    1.3203 O   0  0  0  0  0  0  0  0  0  0  0  0
   27.4376  -37.0955   -0.4266 N   0  0  0  0  0  0  0  0  0  0  0  0
   28.5703  -37.3331   -1.2266 C   0  0  1  0  0  0  0  0  0  0  0  0
   29.0702  -38.7202   -1.3405 C   0  0  0  0  0  0  0  0  0  0  0  0
   30.3883  -38.8019   -2.0526 C   0  0  0  0  0  0  0  0  0  0  0  0
   31.0642  -37.7760   -2.3379 O   0  0  0  0  0  0  0  0  0  0  0  0
   28.3748  -36.8115   -2.6117 C   0  0  0  0  0  0  0  0  0  0  0  0
   27.3532  -37.1740   -3.2848 O   0  0  0  0  0  0  0  0  0  0  0  0
   30.9348  -40.0189   -2.4363 O   0  0  0  0  0  0  0  0  0  0  0  0
   23.1674  -32.8968   -3.5659 O   0  0  0  0  0  0  0  0  0  0  0  0
   24.5161  -33.1553   -3.8129 C   0  0  0  0  0  0  0  0  0  0  0  0
   25.3496  -33.4292   -2.7519 C   0  0  0  0  0  0  0  0  0  0  0  0
   26.6801  -33.6838   -3.0001 C   0  0  0  0  0  0  0  0  0  0  0  0
   27.2206  -33.6777   -4.2657 C   0  0  0  0  0  0  0  0  0  0  0  0
   28.6479  -33.9570   -4.4411 C   0  0  0  0  0  0  0  0  0  0  0  0
   28.9964  -35.4067   -4.6047 C   0  0  2  0  0  0  0  0  0  0  0  0
   29.2592  -35.9224   -3.2517 N   0  0  0  0  0  0  0  0  0  0  0  0
   30.2426  -35.5860   -5.3759 C   0  0  0  0  0  0  0  0  0  0  0  0
   30.2935  -35.2438   -6.7296 O   0  0  0  0  0  0  0  0  0  0  0  0
   26.3837  -33.4034   -5.3231 C   0  0  0  0  0  0  0  0  0  0  0  0
   25.0502  -33.1467   -5.0904 C   0  0  0  0  0  0  0  0  0  0  0  0
   31.3049  -36.0468   -4.8701 O   0  0  0  0  0  0  0  0  0  0  0  0
  1  2  1  0
  3  5  1  0
  3  2  1  0
  4  3  2  0
  6  5  1  0
  6 10  1  0
  6  7  1  6
  8  7  1  0
  8  9  2  0
 10 20  1  0
 11 10  2  0
 12  8  1  0
 13 14  1  0
 14 24  2  0
 14 15  1  0
 15 16  2  0
 16 17  1  0
 17 18  1  0
 19 18  1  1
 19 21  1  0
 20 19  1  0
 21 22  1  0
 23 17  2  0
 24 23  1  0
 25 21  2  0
M  END
$$$$
