GDY.pdb
     RDKit          3D

 25 25  0  0  1  0  0  0  0  0999 V2000
   20.2573  -10.7112  -19.9735 N   0  0  0  0  0  0  0  0  0  0  0  0
   20.0182  -10.5130  -18.5774 C   0  0  0  0  0  0  0  0  0  0  0  0
   20.8359   -9.3734  -18.0551 C   0  0  0  0  0  0  0  0  0  0  0  0
   21.5372   -9.4658  -17.0185 O   0  0  0  0  0  0  0  0  0  0  0  0
   20.8681   -8.1104  -18.7050 N   0  0  0  0  0  0  0  0  0  0  0  0
   21.6085   -6.9827  -18.3055 C   0  0  1  0  0  0  0  0  0  0  0  0
   21.8284   -5.9026  -19.2915 C   0  0  0  0  0  0  0  0  0  0  0  0
   22.7489   -4.8336  -18.7806 C   0  0  0  0  0  0  0  0  0  0  0  0
   22.4531   -3.6087  -18.8334 O   0  0  0  0  0  0  0  0  0  0  0  0
   21.0280   -6.3596  -17.0794 C   0  0  0  0  0  0  0  0  0  0  0  0
   19.7934   -6.0377  -17.0584 O   0  0  0  0  0  0  0  0  0  0  0  0
   23.9813   -5.1402  -18.2201 O   0  0  0  0  0  0  0  0  0  0  0  0
   18.4728   -5.5538   -8.8480 O   0  0  0  0  0  0  0  0  0  0  0  0
   19.1438   -5.8497  -10.0350 C   0  0  0  0  0  0  0  0  0  0  0  0
   18.4716   -5.7309  -11.2307 C   0  0  0  0  0  0  0  0  0  0  0  0
   19.1376   -6.0239  -12.3999 C   0  0  0  0  0  0  0  0  0  0  0  0
   20.4513   -6.4325  -12.4315 C   0  0  0  0  0  0  0  0  0  0  0  0
   21.0839   -6.7265  -13.7197 C   0  0  0  0  0  0  0  0  0  0  0  0
   21.1160   -5.5815  -14.6880 C   0  0  2  0  0  0  0  0  0  0  0  0
   21.7617   -6.0917  -15.9080 N   0  0  0  0  0  0  0  0  0  0  0  0
   21.9570   -4.4722  -14.1957 C   0  0  0  0  0  0  0  0  0  0  0  0
   21.3869   -3.4116  -13.4868 O   0  0  0  0  0  0  0  0  0  0  0  0
   21.1192   -6.5499  -11.2340 C   0  0  0  0  0  0  0  0  0  0  0  0
   20.4660   -6.2601  -10.0560 C   0  0  0  0  0  0  0  0  0  0  0  0
   23.2056   -4.4198  -14.3823 O   0  0  0  0  0  0  0  0  0  0  0  0
  1  2  1  0
  3  5  1  0
  3  2  1  0
  4  3  2  0
  6  5  1  0
  6 10  1  0
  6  7  1  6
  8  7  1  0
  8  9  2  0
 10 20  1  0
 11 10  2  0
 12  8  1  0
 13 14  1  0
 14 24  2  0
 14 15  1  0
 15 16  2  0
 16 17  1  0
 17 18  1  0
 19 18  1  1
 19 21  1  0
 20 19  1  0
 21 22  1  0
 23 17  2  0
 24 23  1  0
 25 21  2  0
M  END
$$$$
