GDY.pdb
     RDKit          3D

 25 25  0  0  1  0  0  0  0  0999 V2000
   26.8899  -19.5521  -20.5346 N   0  0  0  0  0  0  0  0  0  0  0  0
   25.5786  -20.1164  -20.4468 C   0  0  0  0  0  0  0  0  0  0  0  0
   24.8132  -19.5074  -19.3140 C   0  0  0  0  0  0  0  0  0  0  0  0
   25.3468  -18.7449  -18.4721 O   0  0  0  0  0  0  0  0  0  0  0  0
   23.4277  -19.7569  -19.1218 N   0  0  0  0  0  0  0  0  0  0  0  0
   22.6222  -19.2496  -18.0859 C   0  0  1  0  0  0  0  0  0  0  0  0
   21.1713  -19.1047  -18.3323 C   0  0  0  0  0  0  0  0  0  0  0  0
   20.8638  -18.0750  -19.3794 C   0  0  0  0  0  0  0  0  0  0  0  0
   21.3578  -16.9149  -19.3485 O   0  0  0  0  0  0  0  0  0  0  0  0
   22.7873  -20.0437  -16.8325 C   0  0  0  0  0  0  0  0  0  0  0  0
   22.7537  -21.3183  -16.8832 O   0  0  0  0  0  0  0  0  0  0  0  0
   20.0144  -18.3485  -20.4428 O   0  0  0  0  0  0  0  0  0  0  0  0
   24.8451  -21.7427   -8.3191 O   0  0  0  0  0  0  0  0  0  0  0  0
   24.6747  -21.1931   -9.5903 C   0  0  0  0  0  0  0  0  0  0  0  0
   23.5289  -20.4798   -9.8622 C   0  0  0  0  0  0  0  0  0  0  0  0
   23.3646  -19.9391  -11.1181 C   0  0  0  0  0  0  0  0  0  0  0  0
   24.2964  -20.0780  -12.1212 C   0  0  0  0  0  0  0  0  0  0  0  0
   24.0416  -19.4722  -13.4305 C   0  0  0  0  0  0  0  0  0  0  0  0
   23.2192  -20.3063  -14.3674 C   0  0  2  0  0  0  0  0  0  0  0  0
   22.9832  -19.4758  -15.5591 N   0  0  0  0  0  0  0  0  0  0  0  0
   21.8926  -20.6194  -13.7998 C   0  0  0  0  0  0  0  0  0  0  0  0
   20.8297  -19.7247  -13.9475 O   0  0  0  0  0  0  0  0  0  0  0  0
   25.4401  -20.7918  -11.8449 C   0  0  0  0  0  0  0  0  0  0  0  0
   25.6184  -21.3387  -10.5929 C   0  0  0  0  0  0  0  0  0  0  0  0
   21.6494  -21.6848  -13.1654 O   0  0  0  0  0  0  0  0  0  0  0  0
  1  2  1  0
  3  5  1  0
  3  2  1  0
  4  3  2  0
  6  5  1  0
  6 10  1  0
  6  7  1  6
  8  7  1  0
  8  9  2  0
 10 20  1  0
 11 10  2  0
 12  8  1  0
 13 14  1  0
 14 24  2  0
 14 15  1  0
 15 16  2  0
 16 17  1  0
 17 18  1  0
 19 18  1  1
 19 21  1  0
 20 19  1  0
 21 22  1  0
 23 17  2  0
 24 23  1  0
 25 21  2  0
M  END
$$$$
