GDY.pdb
     RDKit          3D

 25 25  0  0  1  0  0  0  0  0999 V2000
   30.5504  -22.7202  -14.6236 N   0  0  0  0  0  0  0  0  0  0  0  0
   29.5461  -22.4603  -15.6082 C   0  0  0  0  0  0  0  0  0  0  0  0
   28.5277  -21.4958  -15.0862 C   0  0  0  0  0  0  0  0  0  0  0  0
   28.8355  -20.3600  -14.6504 O   0  0  0  0  0  0  0  0  0  0  0  0
   27.1424  -21.8094  -15.0521 N   0  0  0  0  0  0  0  0  0  0  0  0
   26.0927  -20.9280  -14.7351 C   0  0  1  0  0  0  0  0  0  0  0  0
   25.0869  -20.6310  -15.7778 C   0  0  0  0  0  0  0  0  0  0  0  0
   24.0340  -19.6712  -15.3073 C   0  0  0  0  0  0  0  0  0  0  0  0
   22.8052  -19.9541  -15.3330 O   0  0  0  0  0  0  0  0  0  0  0  0
   25.3564  -21.3778  -13.5167 C   0  0  0  0  0  0  0  0  0  0  0  0
   24.8868  -22.5631  -13.4640 O   0  0  0  0  0  0  0  0  0  0  0  0
   24.3608  -18.4146  -14.8163 O   0  0  0  0  0  0  0  0  0  0  0  0
   29.6531  -20.7736   -7.4473 O   0  0  0  0  0  0  0  0  0  0  0  0
   28.4367  -20.6366   -8.1169 C   0  0  0  0  0  0  0  0  0  0  0  0
   27.6376  -19.5510   -7.8365 C   0  0  0  0  0  0  0  0  0  0  0  0
   26.4378  -19.4195   -8.4996 C   0  0  0  0  0  0  0  0  0  0  0  0
   25.9958  -20.3267   -9.4353 C   0  0  0  0  0  0  0  0  0  0  0  0
   24.7044  -20.1124  -10.0930 C   0  0  0  0  0  0  0  0  0  0  0  0
   24.3960  -21.0620  -11.2123 C   0  0  2  0  0  0  0  0  0  0  0  0
   25.1337  -20.5686  -12.3862 N   0  0  0  0  0  0  0  0  0  0  0  0
   22.9640  -21.0382  -11.5710 C   0  0  0  0  0  0  0  0  0  0  0  0
   22.0389  -21.7921  -10.8443 O   0  0  0  0  0  0  0  0  0  0  0  0
   26.7977  -21.4102   -9.7123 C   0  0  0  0  0  0  0  0  0  0  0  0
   28.0009  -21.5552   -9.0568 C   0  0  0  0  0  0  0  0  0  0  0  0
   22.5057  -20.3538  -12.5293 O   0  0  0  0  0  0  0  0  0  0  0  0
  1  2  1  0
  3  5  1  0
  3  2  1  0
  4  3  2  0
  6  5  1  0
  6 10  1  0
  6  7  1  6
  8  7  1  0
  8  9  2  0
 10 20  1  0
 11 10  2  0
 12  8  1  0
 13 14  1  0
 14 24  2  0
 14 15  1  0
 15 16  2  0
 16 17  1  0
 17 18  1  0
 19 18  1  1
 19 21  1  0
 20 19  1  0
 21 22  1  0
 23 17  2  0
 24 23  1  0
 25 21  2  0
M  END
$$$$
