GDY.pdb
     RDKit          3D

 25 25  0  0  1  0  0  0  0  0999 V2000
   24.1312  -11.0312  -20.6627 N   0  0  0  0  0  0  0  0  0  0  0  0
   23.8016  -10.7244  -19.3053 C   0  0  0  0  0  0  0  0  0  0  0  0
   23.4492   -9.2772  -19.1585 C   0  0  0  0  0  0  0  0  0  0  0  0
   24.2973   -8.4041  -18.8529 O   0  0  0  0  0  0  0  0  0  0  0  0
   22.1255   -8.8011  -19.3573 N   0  0  0  0  0  0  0  0  0  0  0  0
   21.6927   -7.4661  -19.2573 C   0  0  1  0  0  0  0  0  0  0  0  0
   20.5379   -7.0398  -20.0769 C   0  0  0  0  0  0  0  0  0  0  0  0
   20.3617   -5.5499  -20.0947 C   0  0  0  0  0  0  0  0  0  0  0  0
   21.3103   -4.7566  -19.8468 O   0  0  0  0  0  0  0  0  0  0  0  0
   21.3987   -7.0962  -17.8411 C   0  0  0  0  0  0  0  0  0  0  0  0
   20.5663   -7.7897  -17.1669 O   0  0  0  0  0  0  0  0  0  0  0  0
   19.1373   -4.9647  -20.3869 O   0  0  0  0  0  0  0  0  0  0  0  0
   25.5729  -10.8843  -15.0207 O   0  0  0  0  0  0  0  0  0  0  0  0
   24.9899   -9.6173  -15.0600 C   0  0  0  0  0  0  0  0  0  0  0  0
   23.8969   -9.3592  -14.2635 C   0  0  0  0  0  0  0  0  0  0  0  0
   23.3245   -8.1073  -14.3052 C   0  0  0  0  0  0  0  0  0  0  0  0
   23.7951   -7.0950  -15.1099 C   0  0  0  0  0  0  0  0  0  0  0  0
   23.1251   -5.7923  -15.0953 C   0  0  0  0  0  0  0  0  0  0  0  0
   21.7694   -5.7677  -15.7365 C   0  0  2  0  0  0  0  0  0  0  0  0
   21.9882   -6.0067  -17.1720 N   0  0  0  0  0  0  0  0  0  0  0  0
   21.1333   -4.4403  -15.6202 C   0  0  0  0  0  0  0  0  0  0  0  0
   20.8128   -3.7056  -16.7646 O   0  0  0  0  0  0  0  0  0  0  0  0
   24.8876   -7.3575  -15.9044 C   0  0  0  0  0  0  0  0  0  0  0  0
   25.4710   -8.6053  -15.8734 C   0  0  0  0  0  0  0  0  0  0  0  0
   20.8505   -3.9074  -14.5099 O   0  0  0  0  0  0  0  0  0  0  0  0
  1  2  1  0
  3  5  1  0
  3  2  1  0
  4  3  2  0
  6  5  1  0
  6 10  1  0
  6  7  1  6
  8  7  1  0
  8  9  2  0
 10 20  1  0
 11 10  2  0
 12  8  1  0
 13 14  1  0
 14 24  2  0
 14 15  1  0
 15 16  2  0
 16 17  1  0
 17 18  1  0
 19 18  1  1
 19 21  1  0
 20 19  1  0
 21 22  1  0
 23 17  2  0
 24 23  1  0
 25 21  2  0
M  END
$$$$
