GDY.pdb
     RDKit          3D

 25 25  0  0  1  0  0  0  0  0999 V2000
   20.7464  -14.9513  -16.9395 N   0  0  0  0  0  0  0  0  0  0  0  0
   21.9708  -15.4093  -17.5197 C   0  0  0  0  0  0  0  0  0  0  0  0
   22.2076  -16.8502  -17.1914 C   0  0  0  0  0  0  0  0  0  0  0  0
   21.3273  -17.7310  -17.3468 O   0  0  0  0  0  0  0  0  0  0  0  0
   23.4508  -17.3112  -16.6809 N   0  0  0  0  0  0  0  0  0  0  0  0
   23.7743  -18.6366  -16.3372 C   0  0  1  0  0  0  0  0  0  0  0  0
   25.2022  -19.0158  -16.2719 C   0  0  0  0  0  0  0  0  0  0  0  0
   25.8911  -18.9012  -17.5999 C   0  0  0  0  0  0  0  0  0  0  0  0
   26.9256  -18.1986  -17.7633 O   0  0  0  0  0  0  0  0  0  0  0  0
   23.1460  -19.0294  -15.0412 C   0  0  0  0  0  0  0  0  0  0  0  0
   23.5000  -18.4433  -13.9643 O   0  0  0  0  0  0  0  0  0  0  0  0
   25.4217  -19.5671  -18.7238 O   0  0  0  0  0  0  0  0  0  0  0  0
   15.8525  -18.5331  -16.2987 O   0  0  0  0  0  0  0  0  0  0  0  0
   17.0550  -18.6498  -15.6006 C   0  0  0  0  0  0  0  0  0  0  0  0
   17.0228  -18.9734  -14.2628 C   0  0  0  0  0  0  0  0  0  0  0  0
   18.2119  -19.0876  -13.5775 C   0  0  0  0  0  0  0  0  0  0  0  0
   19.4391  -18.8928  -14.1690 C   0  0  0  0  0  0  0  0  0  0  0  0
   20.6564  -19.0317  -13.3660 C   0  0  0  0  0  0  0  0  0  0  0  0
   21.4613  -20.2673  -13.6407 C   0  0  2  0  0  0  0  0  0  0  0  0
   22.1620  -20.0282  -14.9125 N   0  0  0  0  0  0  0  0  0  0  0  0
   20.5985  -21.4473  -13.8477 C   0  0  0  0  0  0  0  0  0  0  0  0
   20.6114  -22.1293  -15.0672 O   0  0  0  0  0  0  0  0  0  0  0  0
   19.4664  -18.5696  -15.5064 C   0  0  0  0  0  0  0  0  0  0  0  0
   18.2848  -18.4518  -16.2052 C   0  0  0  0  0  0  0  0  0  0  0  0
   19.8202  -21.8956  -12.9588 O   0  0  0  0  0  0  0  0  0  0  0  0
  1  2  1  0
  3  5  1  0
  3  2  1  0
  4  3  2  0
  6  5  1  0
  6 10  1  0
  6  7  1  1
  8  7  1  0
  8  9  2  0
 10 20  1  0
 11 10  2  0
 12  8  1  0
 13 14  1  0
 14 24  2  0
 14 15  1  0
 15 16  2  0
 16 17  1  0
 17 18  1  0
 19 18  1  6
 19 21  1  0
 20 19  1  0
 21 22  1  0
 23 17  2  0
 24 23  1  0
 25 21  2  0
M  END
$$$$
