GDY.pdb
     RDKit          3D

 25 25  0  0  1  0  0  0  0  0999 V2000
   18.2513  -25.4043   -8.7346 N   0  0  0  0  0  0  0  0  0  0  0  0
   17.7691  -24.0892   -9.0233 C   0  0  0  0  0  0  0  0  0  0  0  0
   17.7504  -23.8426  -10.4994 C   0  0  0  0  0  0  0  0  0  0  0  0
   18.1408  -24.6975  -11.3310 O   0  0  0  0  0  0  0  0  0  0  0  0
   17.2867  -22.6186  -11.0520 N   0  0  0  0  0  0  0  0  0  0  0  0
   17.2189  -22.2902  -12.4184 C   0  0  1  0  0  0  0  0  0  0  0  0
   16.2027  -21.3081  -12.8542 C   0  0  0  0  0  0  0  0  0  0  0  0
   14.8077  -21.7184  -12.4843 C   0  0  0  0  0  0  0  0  0  0  0  0
   14.4494  -22.9270  -12.4452 O   0  0  0  0  0  0  0  0  0  0  0  0
   18.5417  -21.8243  -12.9303 C   0  0  0  0  0  0  0  0  0  0  0  0
   19.0822  -20.7831  -12.4282 O   0  0  0  0  0  0  0  0  0  0  0  0
   13.8339  -20.7825  -12.1641 O   0  0  0  0  0  0  0  0  0  0  0  0
   26.7537  -22.1116  -16.0997 O   0  0  0  0  0  0  0  0  0  0  0  0
   25.4779  -22.3202  -15.5748 C   0  0  0  0  0  0  0  0  0  0  0  0
   25.0112  -21.4729  -14.5950 C   0  0  0  0  0  0  0  0  0  0  0  0
   23.7515  -21.6822  -14.0796 C   0  0  0  0  0  0  0  0  0  0  0  0
   22.9308  -22.7041  -14.4991 C   0  0  0  0  0  0  0  0  0  0  0  0
   21.6046  -22.8573  -13.8959 C   0  0  0  0  0  0  0  0  0  0  0  0
   20.5476  -21.9455  -14.4447 C   0  0  2  0  0  0  0  0  0  0  0  0
   19.2606  -22.4661  -13.9567 N   0  0  0  0  0  0  0  0  0  0  0  0
   20.4934  -21.9961  -15.9193 C   0  0  0  0  0  0  0  0  0  0  0  0
   21.1995  -21.0660  -16.6865 O   0  0  0  0  0  0  0  0  0  0  0  0
   23.4014  -23.5486  -15.4786 C   0  0  0  0  0  0  0  0  0  0  0  0
   24.6598  -23.3516  -16.0038 C   0  0  0  0  0  0  0  0  0  0  0  0
   19.8237  -22.8592  -16.5543 O   0  0  0  0  0  0  0  0  0  0  0  0
  1  2  1  0
  3  5  1  0
  3  2  1  0
  4  3  2  0
  6  5  1  0
  6 10  1  0
  6  7  1  1
  8  7  1  0
  8  9  2  0
 10 20  1  0
 11 10  2  0
 12  8  1  0
 13 14  1  0
 14 24  2  0
 14 15  1  0
 15 16  2  0
 16 17  1  0
 17 18  1  0
 19 18  1  1
 19 21  1  0
 20 19  1  0
 21 22  1  0
 23 17  2  0
 24 23  1  0
 25 21  2  0
M  END
$$$$
