GDY.pdb
     RDKit          3D

 25 25  0  0  1  0  0  0  0  0999 V2000
   13.0407  -11.9582  -12.4533 N   0  0  0  0  0  0  0  0  0  0  0  0
   13.9153  -11.4999  -13.4880 C   0  0  0  0  0  0  0  0  0  0  0  0
   15.0187  -10.6639  -12.9191 C   0  0  0  0  0  0  0  0  0  0  0  0
   15.7312  -11.0490  -11.9605 O   0  0  0  0  0  0  0  0  0  0  0  0
   15.3282   -9.3759  -13.4326 N   0  0  0  0  0  0  0  0  0  0  0  0
   16.3334   -8.5088  -12.9665 C   0  0  1  0  0  0  0  0  0  0  0  0
   17.1557   -7.7884  -13.9623 C   0  0  0  0  0  0  0  0  0  0  0  0
   18.2518   -6.9817  -13.3306 C   0  0  0  0  0  0  0  0  0  0  0  0
   18.2577   -5.7206  -13.3521 O   0  0  0  0  0  0  0  0  0  0  0  0
   15.7786   -7.4930  -12.0235 C   0  0  0  0  0  0  0  0  0  0  0  0
   14.7739   -6.7885  -12.3735 O   0  0  0  0  0  0  0  0  0  0  0  0
   19.3223   -7.5862  -12.6860 O   0  0  0  0  0  0  0  0  0  0  0  0
   10.5760   -9.5678   -7.8550 O   0  0  0  0  0  0  0  0  0  0  0  0
   11.7840   -8.8858   -8.0049 C   0  0  0  0  0  0  0  0  0  0  0  0
   12.8419   -9.5249   -8.6116 C   0  0  0  0  0  0  0  0  0  0  0  0
   14.0324   -8.8482   -8.7576 C   0  0  0  0  0  0  0  0  0  0  0  0
   14.2172   -7.5554   -8.3235 C   0  0  0  0  0  0  0  0  0  0  0  0
   15.5179   -6.9095   -8.5162 C   0  0  0  0  0  0  0  0  0  0  0  0
   15.7030   -6.2372   -9.8442 C   0  0  2  0  0  0  0  0  0  0  0  0
   16.2955   -7.2456  -10.7374 N   0  0  0  0  0  0  0  0  0  0  0  0
   16.6686   -5.1231   -9.7634 C   0  0  0  0  0  0  0  0  0  0  0  0
   16.3501   -3.9592   -9.0592 O   0  0  0  0  0  0  0  0  0  0  0  0
   13.1572   -6.9206   -7.7176 C   0  0  0  0  0  0  0  0  0  0  0  0
   11.9598   -7.5849   -7.5646 C   0  0  0  0  0  0  0  0  0  0  0  0
   17.8066   -5.1574  -10.3116 O   0  0  0  0  0  0  0  0  0  0  0  0
  1  2  1  0
  3  5  1  0
  3  2  1  0
  4  3  2  0
  6  5  1  0
  6 10  1  0
  6  7  1  6
  8  7  1  0
  8  9  2  0
 10 20  1  0
 11 10  2  0
 12  8  1  0
 13 14  1  0
 14 24  2  0
 14 15  1  0
 15 16  2  0
 16 17  1  0
 17 18  1  0
 19 18  1  1
 19 21  1  0
 20 19  1  0
 21 22  1  0
 23 17  2  0
 24 23  1  0
 25 21  2  0
M  END
$$$$
