GDY.pdb
     RDKit          3D

 25 25  0  0  1  0  0  0  0  0999 V2000
   25.9916  -18.9850  -20.9271 N   0  0  0  0  0  0  0  0  0  0  0  0
   26.3322  -19.5785  -19.6713 C   0  0  0  0  0  0  0  0  0  0  0  0
   25.2754  -19.3006  -18.6485 C   0  0  0  0  0  0  0  0  0  0  0  0
   25.4468  -18.4923  -17.7040 O   0  0  0  0  0  0  0  0  0  0  0  0
   24.0065  -19.9387  -18.6851 N   0  0  0  0  0  0  0  0  0  0  0  0
   22.9321  -19.7154  -17.8047 C   0  0  1  0  0  0  0  0  0  0  0  0
   21.5664  -20.0443  -18.2668 C   0  0  0  0  0  0  0  0  0  0  0  0
   20.5075  -19.5969  -17.3026 C   0  0  0  0  0  0  0  0  0  0  0  0
   20.6194  -18.5410  -16.6219 O   0  0  0  0  0  0  0  0  0  0  0  0
   23.1450  -20.4125  -16.5018 C   0  0  0  0  0  0  0  0  0  0  0  0
   23.4825  -21.6431  -16.4916 O   0  0  0  0  0  0  0  0  0  0  0  0
   19.3429  -20.3271  -17.1093 O   0  0  0  0  0  0  0  0  0  0  0  0
   25.7649  -21.5009   -8.1286 O   0  0  0  0  0  0  0  0  0  0  0  0
   25.3625  -21.0178   -9.3743 C   0  0  0  0  0  0  0  0  0  0  0  0
   26.1147  -21.3257  -10.4856 C   0  0  0  0  0  0  0  0  0  0  0  0
   25.7141  -20.8469  -11.7132 C   0  0  0  0  0  0  0  0  0  0  0  0
   24.5909  -20.0704  -11.8841 C   0  0  0  0  0  0  0  0  0  0  0  0
   24.2371  -19.6002  -13.2257 C   0  0  0  0  0  0  0  0  0  0  0  0
   23.3161  -20.5019  -13.9928 C   0  0  2  0  0  0  0  0  0  0  0  0
   22.9971  -19.7965  -15.2444 N   0  0  0  0  0  0  0  0  0  0  0  0
   22.0371  -20.7078  -13.2847 C   0  0  0  0  0  0  0  0  0  0  0  0
   20.9047  -19.9696  -13.6382 O   0  0  0  0  0  0  0  0  0  0  0  0
   23.8421  -19.7652  -10.7705 C   0  0  0  0  0  0  0  0  0  0  0  0
   24.2304  -20.2371   -9.5357 C   0  0  0  0  0  0  0  0  0  0  0  0
   21.8971  -21.5402  -12.3443 O   0  0  0  0  0  0  0  0  0  0  0  0
  1  2  1  0
  3  5  1  0
  3  2  1  0
  4  3  2  0
  6  5  1  0
  6 10  1  0
  6  7  1  6
  8  7  1  0
  8  9  2  0
 10 20  1  0
 11 10  2  0
 12  8  1  0
 13 14  1  0
 14 24  2  0
 14 15  1  0
 15 16  2  0
 16 17  1  0
 17 18  1  0
 19 18  1  1
 19 21  1  0
 20 19  1  0
 21 22  1  0
 23 17  2  0
 24 23  1  0
 25 21  2  0
M  END
$$$$
