GDY.pdb
     RDKit          3D

 25 25  0  0  1  0  0  0  0  0999 V2000
   19.0645  -12.6256  -16.0737 N   0  0  0  0  0  0  0  0  0  0  0  0
   20.1900  -12.1936  -16.8432 C   0  0  0  0  0  0  0  0  0  0  0  0
   20.2666  -10.6993  -16.8792 C   0  0  0  0  0  0  0  0  0  0  0  0
   21.2560  -10.0857  -17.3477 O   0  0  0  0  0  0  0  0  0  0  0  0
   19.2178   -9.8798  -16.3821 N   0  0  0  0  0  0  0  0  0  0  0  0
   19.1461   -8.4767  -16.4555 C   0  0  1  0  0  0  0  0  0  0  0  0
   17.8151   -7.8490  -16.6023 C   0  0  0  0  0  0  0  0  0  0  0  0
   17.1538   -8.1961  -17.9037 C   0  0  0  0  0  0  0  0  0  0  0  0
   16.0455   -8.7956  -17.9569 O   0  0  0  0  0  0  0  0  0  0  0  0
   19.8168   -7.8376  -15.2849 C   0  0  0  0  0  0  0  0  0  0  0  0
   19.3191   -7.9767  -14.1181 O   0  0  0  0  0  0  0  0  0  0  0  0
   17.7320   -7.8729  -19.1236 O   0  0  0  0  0  0  0  0  0  0  0  0
   26.5959   -9.8402  -16.6599 O   0  0  0  0  0  0  0  0  0  0  0  0
   25.5653   -9.2665  -15.9147 C   0  0  0  0  0  0  0  0  0  0  0  0
   25.1571   -9.8825  -14.7530 C   0  0  0  0  0  0  0  0  0  0  0  0
   24.1395   -9.3129  -14.0204 C   0  0  0  0  0  0  0  0  0  0  0  0
   23.5066   -8.1500  -14.3957 C   0  0  0  0  0  0  0  0  0  0  0  0
   22.4307   -7.6127  -13.5590 C   0  0  0  0  0  0  0  0  0  0  0  0
   21.6389   -6.4999  -14.1791 C   0  0  2  0  0  0  0  0  0  0  0  0
   20.9933   -7.0692  -15.3728 N   0  0  0  0  0  0  0  0  0  0  0  0
   22.5103   -5.4051  -14.6502 C   0  0  0  0  0  0  0  0  0  0  0  0
   22.6373   -5.1384  -16.0159 O   0  0  0  0  0  0  0  0  0  0  0  0
   23.9178   -7.5377  -15.5575 C   0  0  0  0  0  0  0  0  0  0  0  0
   24.9347   -8.0958  -16.3010 C   0  0  0  0  0  0  0  0  0  0  0  0
   23.1730   -4.6672  -13.8671 O   0  0  0  0  0  0  0  0  0  0  0  0
  1  2  1  0
  3  5  1  0
  3  2  1  0
  4  3  2  0
  6  5  1  0
  6 10  1  0
  6  7  1  1
  8  7  1  0
  8  9  2  0
 10 20  1  0
 11 10  2  0
 12  8  1  0
 13 14  1  0
 14 24  2  0
 14 15  1  0
 15 16  2  0
 16 17  1  0
 17 18  1  0
 19 18  1  6
 19 21  1  0
 20 19  1  0
 21 22  1  0
 23 17  2  0
 24 23  1  0
 25 21  2  0
M  END
$$$$
