GDY.pdb
     RDKit          3D

 25 25  0  0  1  0  0  0  0  0999 V2000
   16.2057  -12.3352  -15.9931 N   0  0  0  0  0  0  0  0  0  0  0  0
   17.5917  -12.6016  -15.7621 C   0  0  0  0  0  0  0  0  0  0  0  0
   18.4238  -11.3988  -16.0798 C   0  0  0  0  0  0  0  0  0  0  0  0
   19.6361  -11.3154  -15.7665 O   0  0  0  0  0  0  0  0  0  0  0  0
   17.8886  -10.2717  -16.7593 N   0  0  0  0  0  0  0  0  0  0  0  0
   18.5959   -9.1242  -17.1621 C   0  0  1  0  0  0  0  0  0  0  0  0
   18.0962   -8.3659  -18.3293 C   0  0  0  0  0  0  0  0  0  0  0  0
   19.0482   -7.2938  -18.7715 C   0  0  0  0  0  0  0  0  0  0  0  0
   18.6671   -6.1198  -19.0305 O   0  0  0  0  0  0  0  0  0  0  0  0
   18.7517   -8.1594  -16.0335 C   0  0  0  0  0  0  0  0  0  0  0  0
   17.7156   -7.7053  -15.4431 O   0  0  0  0  0  0  0  0  0  0  0  0
   20.4062   -7.5411  -18.9191 O   0  0  0  0  0  0  0  0  0  0  0  0
   20.3851   -5.4215   -8.1509 O   0  0  0  0  0  0  0  0  0  0  0  0
   20.5530   -5.9125   -9.4460 C   0  0  0  0  0  0  0  0  0  0  0  0
   19.5080   -6.5738  -10.0512 C   0  0  0  0  0  0  0  0  0  0  0  0
   19.6779   -7.0569  -11.3296 C   0  0  0  0  0  0  0  0  0  0  0  0
   20.8495   -6.9097  -12.0364 C   0  0  0  0  0  0  0  0  0  0  0  0
   20.9469   -7.4564  -13.3920 C   0  0  0  0  0  0  0  0  0  0  0  0
   20.0906   -6.7725  -14.4161 C   0  0  2  0  0  0  0  0  0  0  0  0
   19.9933   -7.6981  -15.5562 N   0  0  0  0  0  0  0  0  0  0  0  0
   20.7247   -5.5398  -14.9242 C   0  0  0  0  0  0  0  0  0  0  0  0
   20.5005   -4.3148  -14.2907 O   0  0  0  0  0  0  0  0  0  0  0  0
   21.8913   -6.2481  -11.4276 C   0  0  0  0  0  0  0  0  0  0  0  0
   21.7361   -5.7592  -10.1488 C   0  0  0  0  0  0  0  0  0  0  0  0
   21.4851   -5.5223  -15.9333 O   0  0  0  0  0  0  0  0  0  0  0  0
  1  2  1  0
  3  5  1  0
  3  2  1  0
  4  3  2  0
  6  5  1  0
  6 10  1  0
  6  7  1  6
  8  7  1  0
  8  9  2  0
 10 20  1  0
 11 10  2  0
 12  8  1  0
 13 14  1  0
 14 24  2  0
 14 15  1  0
 15 16  2  0
 16 17  1  0
 17 18  1  0
 19 18  1  1
 19 21  1  0
 20 19  1  0
 21 22  1  0
 23 17  2  0
 24 23  1  0
 25 21  2  0
M  END
$$$$
