GDY.pdb
     RDKit          3D

 25 25  0  0  1  0  0  0  0  0999 V2000
   16.8907  -13.0363  -16.3359 N   0  0  0  0  0  0  0  0  0  0  0  0
   16.9233  -11.6533  -15.9730 C   0  0  0  0  0  0  0  0  0  0  0  0
   18.1571  -10.9937  -16.5049 C   0  0  0  0  0  0  0  0  0  0  0  0
   19.3122  -11.3694  -16.1895 O   0  0  0  0  0  0  0  0  0  0  0  0
   18.0951   -9.8957  -17.4045 N   0  0  0  0  0  0  0  0  0  0  0  0
   19.1795   -9.3028  -18.0768 C   0  0  1  0  0  0  0  0  0  0  0  0
   19.0766   -9.1084  -19.5392 C   0  0  0  0  0  0  0  0  0  0  0  0
   20.3606   -8.6282  -20.1492 C   0  0  0  0  0  0  0  0  0  0  0  0
   21.4427   -9.2648  -20.0287 O   0  0  0  0  0  0  0  0  0  0  0  0
   19.5367   -7.9851  -17.4730 C   0  0  0  0  0  0  0  0  0  0  0  0
   18.6123   -7.1664  -17.1510 O   0  0  0  0  0  0  0  0  0  0  0  0
   20.4233   -7.4510  -20.8822 O   0  0  0  0  0  0  0  0  0  0  0  0
   19.0417   -8.9602  -11.1066 O   0  0  0  0  0  0  0  0  0  0  0  0
   19.7830   -8.4143  -12.1551 C   0  0  0  0  0  0  0  0  0  0  0  0
   19.5339   -7.1179  -12.5460 C   0  0  0  0  0  0  0  0  0  0  0  0
   20.2677   -6.5828  -13.5812 C   0  0  0  0  0  0  0  0  0  0  0  0
   21.2447   -7.2858  -14.2485 C   0  0  0  0  0  0  0  0  0  0  0  0
   21.9774   -6.6414  -15.3411 C   0  0  0  0  0  0  0  0  0  0  0  0
   21.1498   -6.2926  -16.5424 C   0  0  2  0  0  0  0  0  0  0  0  0
   20.8568   -7.5636  -17.2240 N   0  0  0  0  0  0  0  0  0  0  0  0
   21.9024   -5.4608  -17.5024 C   0  0  0  0  0  0  0  0  0  0  0  0
   22.3055   -4.1685  -17.1563 O   0  0  0  0  0  0  0  0  0  0  0  0
   21.4902   -8.5813  -13.8543 C   0  0  0  0  0  0  0  0  0  0  0  0
   20.7640   -9.1302  -12.8201 C   0  0  0  0  0  0  0  0  0  0  0  0
   22.2161   -5.8587  -18.6600 O   0  0  0  0  0  0  0  0  0  0  0  0
  1  2  1  0
  3  5  1  0
  3  2  1  0
  4  3  2  0
  6  5  1  0
  6 10  1  0
  6  7  1  6
  8  7  1  0
  8  9  2  0
 10 20  1  0
 11 10  2  0
 12  8  1  0
 13 14  1  0
 14 24  2  0
 14 15  1  0
 15 16  2  0
 16 17  1  0
 17 18  1  0
 19 18  1  1
 19 21  1  0
 20 19  1  0
 21 22  1  0
 23 17  2  0
 24 23  1  0
 25 21  2  0
M  END
$$$$
