GDY.pdb
     RDKit          3D

 25 25  0  0  1  0  0  0  0  0999 V2000
   46.5554  -11.8504   -6.3329 N   0  0  0  0  0  0  0  0  0  0  0  0
   45.4615  -11.7959   -7.2526 C   0  0  0  0  0  0  0  0  0  0  0  0
   44.5963  -10.6058   -6.9788 C   0  0  0  0  0  0  0  0  0  0  0  0
   44.7293   -9.8972   -5.9515 O   0  0  0  0  0  0  0  0  0  0  0  0
   43.5658  -10.2035   -7.8703 N   0  0  0  0  0  0  0  0  0  0  0  0
   42.7670   -9.0506   -7.7600 C   0  0  1  0  0  0  0  0  0  0  0  0
   43.4398   -7.7363   -7.6777 C   0  0  0  0  0  0  0  0  0  0  0  0
   42.4782   -6.6097   -7.4382 C   0  0  0  0  0  0  0  0  0  0  0  0
   42.2369   -5.7331   -8.3123 O   0  0  0  0  0  0  0  0  0  0  0  0
   41.7685   -8.9750   -8.8672 C   0  0  0  0  0  0  0  0  0  0  0  0
   42.1558   -9.0989  -10.0767 O   0  0  0  0  0  0  0  0  0  0  0  0
   41.8005   -6.4739   -6.2344 O   0  0  0  0  0  0  0  0  0  0  0  0
   36.3042   -6.5752   -4.6324 O   0  0  0  0  0  0  0  0  0  0  0  0
   36.7676   -7.2615   -5.7554 C   0  0  0  0  0  0  0  0  0  0  0  0
   36.5975   -6.6987   -7.0004 C   0  0  0  0  0  0  0  0  0  0  0  0
   37.0563   -7.3793   -8.1062 C   0  0  0  0  0  0  0  0  0  0  0  0
   37.6807   -8.6031   -8.0267 C   0  0  0  0  0  0  0  0  0  0  0  0
   38.1366   -9.2607   -9.2538 C   0  0  0  0  0  0  0  0  0  0  0  0
   39.4406   -8.7572   -9.7977 C   0  0  2  0  0  0  0  0  0  0  0  0
   40.3890   -8.7709   -8.6725 N   0  0  0  0  0  0  0  0  0  0  0  0
   39.3400   -7.3553  -10.2499 C   0  0  0  0  0  0  0  0  0  0  0  0
   39.9682   -6.3331   -9.5340 O   0  0  0  0  0  0  0  0  0  0  0  0
   37.8485   -9.1619   -6.7803 C   0  0  0  0  0  0  0  0  0  0  0  0
   37.3947   -8.4927   -5.6647 C   0  0  0  0  0  0  0  0  0  0  0  0
   38.6975   -7.0092  -11.2816 O   0  0  0  0  0  0  0  0  0  0  0  0
  1  2  1  0
  3  5  1  0
  3  2  1  0
  4  3  2  0
  6  5  1  0
  6 10  1  0
  6  7  1  6
  8  7  1  0
  8  9  2  0
 10 20  1  0
 11 10  2  0
 12  8  1  0
 13 14  1  0
 14 24  2  0
 14 15  1  0
 15 16  2  0
 16 17  1  0
 17 18  1  0
 19 18  1  1
 19 21  1  0
 20 19  1  0
 21 22  1  0
 23 17  2  0
 24 23  1  0
 25 21  2  0
M  END
$$$$
