DKN.pdb
     RDKit          3D

 26 25  0  0  1  0  0  0  0  0999 V2000
   11.0679  -15.5283   11.5028 N   0  0  0  0  0  0  0  0  0  0  0  0
   11.0783  -16.9017   11.9178 C   0  0  1  0  0  0  0  0  0  0  0  0
   12.3309  -17.6309   11.4704 C   0  0  0  0  0  0  0  0  0  0  0  0
   12.4447  -17.5499    9.9845 C   0  0  0  0  0  0  0  0  0  0  0  0
   13.4015  -16.9638    9.4565 O   0  0  0  0  0  0  0  0  0  0  0  0
   10.9789  -16.9619   13.3888 C   0  0  0  0  0  0  0  0  0  0  0  0
   11.7061  -16.1430   14.0355 O   0  0  0  0  0  0  0  0  0  0  0  0
   11.4954  -18.1208    9.1603 O   0  0  0  0  0  0  0  0  0  0  0  0
   10.1180  -17.8853   14.0174 N   0  0  0  0  0  0  0  0  0  0  0  0
    9.9927  -17.8764   15.4738 C   0  0  1  0  0  0  0  0  0  0  0  0
    8.6076  -18.3085   15.8029 C   0  0  0  0  0  0  0  0  0  0  0  0
    8.2915  -18.4094   17.2725 C   0  0  0  0  0  0  0  0  0  0  0  0
    6.8036  -18.6743   17.3852 C   0  0  0  0  0  0  0  0  0  0  0  0
    6.2960  -18.6521   18.7888 C   0  0  0  0  0  0  0  0  0  0  0  0
    4.8837  -18.8604   18.9180 N   0  0  0  0  0  0  0  0  0  0  0  0
   11.0717  -18.7120   16.0591 C   0  0  0  0  0  0  0  0  0  0  0  0
   11.6099  -19.5689   15.3133 O   0  0  0  0  0  0  0  0  0  0  0  0
   15.8647  -19.9209   17.1112 N   0  0  0  0  0  0  0  0  0  0  0  0
   15.2775  -18.6481   17.3931 C   0  0  0  0  0  0  0  0  0  0  0  0
   16.0236  -17.8374   17.9898 O   0  0  0  0  0  0  0  0  0  0  0  0
   13.8938  -18.3911   16.9788 C   0  0  0  0  0  0  0  0  0  0  0  0
   12.8323  -18.9746   17.8597 C   0  0  2  0  0  0  0  0  0  0  0  0
   11.5016  -18.5740   17.4033 N   0  0  0  0  0  0  0  0  0  0  0  0
   12.9489  -18.5913   19.2841 C   0  0  0  0  0  0  0  0  0  0  0  0
   12.2883  -17.5801   19.6725 O   0  0  0  0  0  0  0  0  0  0  0  0
   13.7015  -19.2188   20.2388 O   0  0  0  0  0  0  0  0  0  0  0  0
  2  1  1  1
  3  2  1  0
  3  4  1  0
  4  5  2  0
  6  2  1  0
  6  7  2  0
  8  4  1  0
  9  6  1  0
 10  9  1  0
 10 11  1  6
 11 12  1  0
 13 12  1  0
 13 14  1  0
 14 15  1  0
 16 10  1  0
 17 16  2  0
 18 19  1  0
 19 20  2  0
 21 19  1  0
 22 21  1  6
 22 23  1  0
 22 24  1  0
 23 16  1  0
 24 26  1  0
 25 24  2  0
M  END
$$$$
