DKN.pdb
     RDKit          3D

 26 25  0  0  1  0  0  0  0  0999 V2000
    9.4861  -18.2246   18.2873 N   0  0  0  0  0  0  0  0  0  0  0  0
    9.6145  -19.4885   18.9542 C   0  0  1  0  0  0  0  0  0  0  0  0
   11.0519  -19.8043   19.3220 C   0  0  0  0  0  0  0  0  0  0  0  0
   11.8317  -20.0726   18.0781 C   0  0  0  0  0  0  0  0  0  0  0  0
   11.3091  -19.9284   16.9629 O   0  0  0  0  0  0  0  0  0  0  0  0
    8.7906  -19.4739   20.1783 C   0  0  0  0  0  0  0  0  0  0  0  0
    8.9481  -18.4753   20.9502 O   0  0  0  0  0  0  0  0  0  0  0  0
   13.1479  -20.4862   18.1320 O   0  0  0  0  0  0  0  0  0  0  0  0
    7.8869  -20.5211   20.4533 N   0  0  0  0  0  0  0  0  0  0  0  0
    7.1278  -20.5073   21.7025 C   0  0  1  0  0  0  0  0  0  0  0  0
    5.9165  -21.3459   21.4953 C   0  0  0  0  0  0  0  0  0  0  0  0
    5.0412  -21.5320   22.7073 C   0  0  0  0  0  0  0  0  0  0  0  0
    3.8655  -22.3846   22.2741 C   0  0  0  0  0  0  0  0  0  0  0  0
    2.9132  -22.6977   23.3801 C   0  0  0  0  0  0  0  0  0  0  0  0
    1.7264  -23.3893   22.9702 N   0  0  0  0  0  0  0  0  0  0  0  0
    8.0133  -20.9392   22.8136 C   0  0  0  0  0  0  0  0  0  0  0  0
    8.7937  -21.8997   22.5925 O   0  0  0  0  0  0  0  0  0  0  0  0
   12.2005  -20.3519   26.2418 N   0  0  0  0  0  0  0  0  0  0  0  0
   10.8593  -19.9506   26.5323 C   0  0  0  0  0  0  0  0  0  0  0  0
   10.5807  -19.8652   27.7510 O   0  0  0  0  0  0  0  0  0  0  0  0
    9.9383  -19.6773   25.4236 C   0  0  0  0  0  0  0  0  0  0  0  0
    8.8883  -20.7170   25.1791 C   0  0  2  0  0  0  0  0  0  0  0  0
    8.0038  -20.3138   24.0861 N   0  0  0  0  0  0  0  0  0  0  0  0
    8.0390  -21.0085   26.3552 C   0  0  0  0  0  0  0  0  0  0  0  0
    6.9089  -20.4351   26.4157 O   0  0  0  0  0  0  0  0  0  0  0  0
    8.3456  -21.8410   27.3966 O   0  0  0  0  0  0  0  0  0  0  0  0
  2  1  1  1
  3  2  1  0
  3  4  1  0
  4  5  2  0
  6  2  1  0
  6  7  2  0
  8  4  1  0
  9  6  1  0
 10  9  1  0
 10 11  1  6
 11 12  1  0
 13 12  1  0
 13 14  1  0
 14 15  1  0
 16 10  1  0
 17 16  2  0
 18 19  1  0
 19 20  2  0
 21 19  1  0
 22 21  1  1
 22 23  1  0
 22 24  1  0
 23 16  1  0
 24 26  1  0
 25 24  2  0
M  END
$$$$
