DKN.pdb
     RDKit          3D

 26 25  0  0  1  0  0  0  0  0999 V2000
    7.5288  -20.7636   18.1973 N   0  0  0  0  0  0  0  0  0  0  0  0
    7.6881  -19.5062   18.8696 C   0  0  1  0  0  0  0  0  0  0  0  0
    6.8438  -18.4088   18.2500 C   0  0  0  0  0  0  0  0  0  0  0  0
    7.3143  -18.1513   16.8573 C   0  0  0  0  0  0  0  0  0  0  0  0
    8.2612  -18.7960   16.3824 O   0  0  0  0  0  0  0  0  0  0  0  0
    7.3135  -19.6667   20.2878 C   0  0  0  0  0  0  0  0  0  0  0  0
    7.5292  -18.6663   21.0430 O   0  0  0  0  0  0  0  0  0  0  0  0
    6.7140  -17.1950   16.0626 O   0  0  0  0  0  0  0  0  0  0  0  0
    6.7496  -20.8724   20.7539 N   0  0  0  0  0  0  0  0  0  0  0  0
    6.4322  -21.0170   22.1735 C   0  0  1  0  0  0  0  0  0  0  0  0
    5.3320  -22.0125   22.2833 C   0  0  0  0  0  0  0  0  0  0  0  0
    4.8491  -22.2941   23.6823 C   0  0  0  0  0  0  0  0  0  0  0  0
    3.6764  -23.2461   23.5596 C   0  0  0  0  0  0  0  0  0  0  0  0
    2.9887  -23.5194   24.8560 C   0  0  0  0  0  0  0  0  0  0  0  0
    1.8245  -24.3493   24.7528 N   0  0  0  0  0  0  0  0  0  0  0  0
    7.6717  -21.3600   22.9158 C   0  0  0  0  0  0  0  0  0  0  0  0
    8.5400  -22.0389   22.3111 O   0  0  0  0  0  0  0  0  0  0  0  0
   11.8753  -20.8683   23.9362 N   0  0  0  0  0  0  0  0  0  0  0  0
   11.1705  -19.7620   23.3671 C   0  0  0  0  0  0  0  0  0  0  0  0
   11.8142  -19.0980   22.5217 O   0  0  0  0  0  0  0  0  0  0  0  0
    9.7942  -19.4929   23.7977 C   0  0  0  0  0  0  0  0  0  0  0  0
    9.1999  -20.4944   24.7396 C   0  0  2  0  0  0  0  0  0  0  0  0
    7.8982  -20.9531   24.2551 N   0  0  0  0  0  0  0  0  0  0  0  0
    9.0102  -19.9913   26.1181 C   0  0  0  0  0  0  0  0  0  0  0  0
    9.8993  -20.2851   26.9743 O   0  0  0  0  0  0  0  0  0  0  0  0
    7.9663  -19.2333   26.5735 O   0  0  0  0  0  0  0  0  0  0  0  0
  2  1  1  6
  3  2  1  0
  3  4  1  0
  4  5  2  0
  6  2  1  0
  6  7  2  0
  8  4  1  0
  9  6  1  0
 10  9  1  0
 10 11  1  6
 11 12  1  0
 13 12  1  0
 13 14  1  0
 14 15  1  0
 16 10  1  0
 17 16  2  0
 18 19  1  0
 19 20  2  0
 21 19  1  0
 22 21  1  6
 22 23  1  0
 22 24  1  0
 23 16  1  0
 24 26  1  0
 25 24  2  0
M  END
$$$$
