DKN.pdb
     RDKit          3D

 26 25  0  0  1  0  0  0  0  0999 V2000
    9.9941  -16.2971   18.8945 N   0  0  0  0  0  0  0  0  0  0  0  0
    9.1425  -16.8360   19.9159 C   0  0  1  0  0  0  0  0  0  0  0  0
    9.2696  -18.3426   20.0385 C   0  0  0  0  0  0  0  0  0  0  0  0
    8.7097  -18.9861   18.8138 C   0  0  0  0  0  0  0  0  0  0  0  0
    8.3373  -18.2961   17.8531 O   0  0  0  0  0  0  0  0  0  0  0  0
    9.4849  -16.2117   21.2083 C   0  0  0  0  0  0  0  0  0  0  0  0
   10.7250  -16.0810   21.4587 O   0  0  0  0  0  0  0  0  0  0  0  0
    8.5906  -20.3582   18.7151 O   0  0  0  0  0  0  0  0  0  0  0  0
    8.4742  -15.7924   22.0981 N   0  0  0  0  0  0  0  0  0  0  0  0
    8.8452  -15.1482   23.3567 C   0  0  1  0  0  0  0  0  0  0  0  0
    7.6333  -14.4598   23.8773 C   0  0  0  0  0  0  0  0  0  0  0  0
    7.7759  -13.8392   25.2427 C   0  0  0  0  0  0  0  0  0  0  0  0
    6.4607  -13.1536   25.5538 C   0  0  0  0  0  0  0  0  0  0  0  0
    6.4308  -12.4951   26.8931 C   0  0  0  0  0  0  0  0  0  0  0  0
    5.2093  -11.8083   27.1952 N   0  0  0  0  0  0  0  0  0  0  0  0
    9.4357  -16.1629   24.2660 C   0  0  0  0  0  0  0  0  0  0  0  0
    8.8269  -17.2561   24.3874 O   0  0  0  0  0  0  0  0  0  0  0  0
   12.6338  -19.4296   25.5787 N   0  0  0  0  0  0  0  0  0  0  0  0
   13.4286  -18.2423   25.5231 C   0  0  0  0  0  0  0  0  0  0  0  0
   14.6606  -18.4313   25.3949 O   0  0  0  0  0  0  0  0  0  0  0  0
   12.7693  -16.9352   25.6167 C   0  0  0  0  0  0  0  0  0  0  0  0
   11.2831  -16.9681   25.7988 C   0  0  2  0  0  0  0  0  0  0  0  0
   10.6378  -15.9390   24.9839 N   0  0  0  0  0  0  0  0  0  0  0  0
   10.8396  -16.7724   27.1969 C   0  0  0  0  0  0  0  0  0  0  0  0
   11.2556  -17.6012   28.0628 O   0  0  0  0  0  0  0  0  0  0  0  0
   10.0195  -15.7807   27.6613 O   0  0  0  0  0  0  0  0  0  0  0  0
  2  1  1  6
  3  2  1  0
  3  4  1  0
  4  5  2  0
  6  2  1  0
  6  7  2  0
  8  4  1  0
  9  6  1  0
 10  9  1  0
 10 11  1  1
 11 12  1  0
 13 12  1  0
 13 14  1  0
 14 15  1  0
 16 10  1  0
 17 16  2  0
 18 19  1  0
 19 20  2  0
 21 19  1  0
 22 21  1  1
 22 23  1  0
 22 24  1  0
 23 16  1  0
 24 26  1  0
 25 24  2  0
M  END
$$$$
