DKN.pdb
     RDKit          3D

 26 25  0  0  1  0  0  0  0  0999 V2000
   10.4673  -18.0507   16.0130 N   0  0  0  0  0  0  0  0  0  0  0  0
   10.2623  -19.2087   16.8351 C   0  0  1  0  0  0  0  0  0  0  0  0
   11.4611  -20.1383   16.8329 C   0  0  0  0  0  0  0  0  0  0  0  0
   12.0590  -20.1688   15.4658 C   0  0  0  0  0  0  0  0  0  0  0  0
   11.3641  -20.4572   14.4800 O   0  0  0  0  0  0  0  0  0  0  0  0
    9.9848  -18.7753   18.2180 C   0  0  0  0  0  0  0  0  0  0  0  0
   10.1162  -17.5327   18.4550 O   0  0  0  0  0  0  0  0  0  0  0  0
   13.3932  -19.8791   15.2598 O   0  0  0  0  0  0  0  0  0  0  0  0
    9.5973  -19.7074   19.2030 N   0  0  0  0  0  0  0  0  0  0  0  0
    9.2404  -19.2355   20.5397 C   0  0  1  0  0  0  0  0  0  0  0  0
    8.0215  -19.9771   20.9616 C   0  0  0  0  0  0  0  0  0  0  0  0
    6.7664  -19.6526   20.1939 C   0  0  0  0  0  0  0  0  0  0  0  0
    5.7120  -20.6483   20.6335 C   0  0  0  0  0  0  0  0  0  0  0  0
    4.4169  -20.5101   19.9043 C   0  0  0  0  0  0  0  0  0  0  0  0
    3.4542  -21.5317   20.1952 N   0  0  0  0  0  0  0  0  0  0  0  0
   10.4140  -19.3855   21.4370 C   0  0  0  0  0  0  0  0  0  0  0  0
   10.3101  -18.9366   22.6067 O   0  0  0  0  0  0  0  0  0  0  0  0
   12.9440  -23.5003   20.5496 N   0  0  0  0  0  0  0  0  0  0  0  0
   12.9347  -22.5926   21.6543 C   0  0  0  0  0  0  0  0  0  0  0  0
   12.3201  -22.9949   22.6694 O   0  0  0  0  0  0  0  0  0  0  0  0
   13.6202  -21.3020   21.5254 C   0  0  0  0  0  0  0  0  0  0  0  0
   12.8048  -20.0950   21.8743 C   0  0  2  0  0  0  0  0  0  0  0  0
   11.6196  -20.0058   21.0218 N   0  0  0  0  0  0  0  0  0  0  0  0
   13.5367  -18.8145   21.7553 C   0  0  0  0  0  0  0  0  0  0  0  0
   14.3788  -18.5369   22.6628 O   0  0  0  0  0  0  0  0  0  0  0  0
   13.4013  -17.8871   20.7587 O   0  0  0  0  0  0  0  0  0  0  0  0
  2  1  1  6
  3  2  1  0
  3  4  1  0
  4  5  2  0
  6  2  1  0
  6  7  2  0
  8  4  1  0
  9  6  1  0
 10  9  1  0
 10 11  1  1
 11 12  1  0
 13 12  1  0
 13 14  1  0
 14 15  1  0
 16 10  1  0
 17 16  2  0
 18 19  1  0
 19 20  2  0
 21 19  1  0
 22 21  1  6
 22 23  1  0
 22 24  1  0
 23 16  1  0
 24 26  1  0
 25 24  2  0
M  END
$$$$
