DKN.pdb
     RDKit          3D

 26 25  0  0  1  0  0  0  0  0999 V2000
    8.7943  -18.6550   17.6967 N   0  0  0  0  0  0  0  0  0  0  0  0
    9.6850  -17.5379   17.8288 C   0  0  1  0  0  0  0  0  0  0  0  0
    9.2061  -16.3229   17.0570 C   0  0  0  0  0  0  0  0  0  0  0  0
    8.8336  -16.7340   15.6715 C   0  0  0  0  0  0  0  0  0  0  0  0
    8.9321  -17.9183   15.3172 O   0  0  0  0  0  0  0  0  0  0  0  0
    9.8122  -17.1886   19.2567 C   0  0  0  0  0  0  0  0  0  0  0  0
   10.3915  -16.0866   19.5166 O   0  0  0  0  0  0  0  0  0  0  0  0
    8.3720  -15.8149   14.7503 O   0  0  0  0  0  0  0  0  0  0  0  0
    9.3109  -18.0465   20.2576 N   0  0  0  0  0  0  0  0  0  0  0  0
    9.7141  -17.8433   21.6479 C   0  0  1  0  0  0  0  0  0  0  0  0
    8.9932  -18.8514   22.4712 C   0  0  0  0  0  0  0  0  0  0  0  0
    9.3110  -18.8336   23.9438 C   0  0  0  0  0  0  0  0  0  0  0  0
    8.5710  -19.9997   24.5676 C   0  0  0  0  0  0  0  0  0  0  0  0
    8.7126  -20.0737   26.0517 C   0  0  0  0  0  0  0  0  0  0  0  0
    8.0471  -21.1873   26.6617 N   0  0  0  0  0  0  0  0  0  0  0  0
   11.1955  -17.8970   21.7367 C   0  0  0  0  0  0  0  0  0  0  0  0
   11.8294  -18.1662   20.6851 O   0  0  0  0  0  0  0  0  0  0  0  0
   15.9890  -16.3162   21.0849 N   0  0  0  0  0  0  0  0  0  0  0  0
   15.0910  -15.8334   22.0874 C   0  0  0  0  0  0  0  0  0  0  0  0
   15.6000  -15.0580   22.9299 O   0  0  0  0  0  0  0  0  0  0  0  0
   13.6890  -16.2644   22.0595 C   0  0  0  0  0  0  0  0  0  0  0  0
   13.3337  -17.3820   22.9912 C   0  0  2  0  0  0  0  0  0  0  0  0
   11.8981  -17.6589   22.9451 N   0  0  0  0  0  0  0  0  0  0  0  0
   13.6938  -17.1304   24.4041 C   0  0  0  0  0  0  0  0  0  0  0  0
   14.9245  -16.9851   24.6759 O   0  0  0  0  0  0  0  0  0  0  0  0
   12.8309  -17.0358   25.4615 O   0  0  0  0  0  0  0  0  0  0  0  0
  2  1  1  1
  3  2  1  0
  3  4  1  0
  4  5  2  0
  6  2  1  0
  6  7  2  0
  8  4  1  0
  9  6  1  0
 10  9  1  0
 10 11  1  1
 11 12  1  0
 13 12  1  0
 13 14  1  0
 14 15  1  0
 16 10  1  0
 17 16  2  0
 18 19  1  0
 19 20  2  0
 21 19  1  0
 22 21  1  6
 22 23  1  0
 22 24  1  0
 23 16  1  0
 24 26  1  0
 25 24  2  0
M  END
$$$$
