DKN.pdb
     RDKit          3D

 26 25  0  0  1  0  0  0  0  0999 V2000
   10.7738  -18.3714   20.4905 N   0  0  0  0  0  0  0  0  0  0  0  0
   11.3576  -17.3237   21.2779 C   0  0  1  0  0  0  0  0  0  0  0  0
   11.6305  -16.0730   20.4640 C   0  0  0  0  0  0  0  0  0  0  0  0
   12.7358  -16.3443   19.4985 C   0  0  0  0  0  0  0  0  0  0  0  0
   13.6635  -17.1096   19.8010 O   0  0  0  0  0  0  0  0  0  0  0  0
   10.4467  -16.9915   22.3903 C   0  0  0  0  0  0  0  0  0  0  0  0
    9.7410  -15.9434   22.2454 O   0  0  0  0  0  0  0  0  0  0  0  0
   12.7579  -15.7557   18.2497 O   0  0  0  0  0  0  0  0  0  0  0  0
   10.3817  -17.8075   23.5388 N   0  0  0  0  0  0  0  0  0  0  0  0
    9.4242  -17.4872   24.5959 C   0  0  1  0  0  0  0  0  0  0  0  0
    8.6892  -18.7387   24.9233 C   0  0  0  0  0  0  0  0  0  0  0  0
    7.6407  -19.1554   23.9248 C   0  0  0  0  0  0  0  0  0  0  0  0
    7.1229  -20.5084   24.3694 C   0  0  0  0  0  0  0  0  0  0  0  0
    5.9826  -21.0124   23.5485 C   0  0  0  0  0  0  0  0  0  0  0  0
    5.5546  -22.3420   23.8709 N   0  0  0  0  0  0  0  0  0  0  0  0
   10.1470  -16.8627   25.7328 C   0  0  0  0  0  0  0  0  0  0  0  0
   11.2053  -17.4184   26.1219 O   0  0  0  0  0  0  0  0  0  0  0  0
    8.7827  -11.8180   28.0318 N   0  0  0  0  0  0  0  0  0  0  0  0
    8.8678  -13.1216   27.4505 C   0  0  0  0  0  0  0  0  0  0  0  0
    8.6152  -13.1758   26.2244 O   0  0  0  0  0  0  0  0  0  0  0  0
    9.2314  -14.2612   28.2997 C   0  0  0  0  0  0  0  0  0  0  0  0
   10.1710  -15.2542   27.6881 C   0  0  2  0  0  0  0  0  0  0  0  0
    9.6881  -15.6854   26.3765 N   0  0  0  0  0  0  0  0  0  0  0  0
   10.3850  -16.4689   28.5056 C   0  0  0  0  0  0  0  0  0  0  0  0
   11.4772  -16.5571   29.1453 O   0  0  0  0  0  0  0  0  0  0  0  0
    9.5202  -17.5194   28.6476 O   0  0  0  0  0  0  0  0  0  0  0  0
  2  1  1  6
  3  2  1  0
  3  4  1  0
  4  5  2  0
  6  2  1  0
  6  7  2  0
  8  4  1  0
  9  6  1  0
 10  9  1  0
 10 11  1  1
 11 12  1  0
 13 12  1  0
 13 14  1  0
 14 15  1  0
 16 10  1  0
 17 16  2  0
 18 19  1  0
 19 20  2  0
 21 19  1  0
 22 21  1  1
 22 23  1  0
 22 24  1  0
 23 16  1  0
 24 26  1  0
 25 24  2  0
M  END
$$$$
