DKN.pdb
     RDKit          3D

 26 25  0  0  1  0  0  0  0  0999 V2000
    9.3216  -16.7068   17.7673 N   0  0  0  0  0  0  0  0  0  0  0  0
    9.0905  -17.4603   18.9662 C   0  0  1  0  0  0  0  0  0  0  0  0
    9.8149  -18.7931   18.9595 C   0  0  0  0  0  0  0  0  0  0  0  0
    9.2255  -19.6696   17.9051 C   0  0  0  0  0  0  0  0  0  0  0  0
    9.8361  -19.8801   16.8465 O   0  0  0  0  0  0  0  0  0  0  0  0
    9.5389  -16.6683   20.1277 C   0  0  0  0  0  0  0  0  0  0  0  0
   10.7440  -16.2626   20.1002 O   0  0  0  0  0  0  0  0  0  0  0  0
    7.9926  -20.2672   18.0758 O   0  0  0  0  0  0  0  0  0  0  0  0
    8.6602  -16.3909   21.1953 N   0  0  0  0  0  0  0  0  0  0  0  0
    9.1081  -15.5349   22.2923 C   0  0  1  0  0  0  0  0  0  0  0  0
    7.8930  -15.0391   22.9933 C   0  0  0  0  0  0  0  0  0  0  0  0
    8.1477  -14.1992   24.2178 C   0  0  0  0  0  0  0  0  0  0  0  0
    6.7972  -13.7217   24.7125 C   0  0  0  0  0  0  0  0  0  0  0  0
    6.8706  -12.9071   25.9611 C   0  0  0  0  0  0  0  0  0  0  0  0
    5.6164  -12.3688   26.3993 N   0  0  0  0  0  0  0  0  0  0  0  0
   10.0626  -16.2925   23.1409 C   0  0  0  0  0  0  0  0  0  0  0  0
    9.8404  -17.5182   23.3102 O   0  0  0  0  0  0  0  0  0  0  0  0
   15.5510  -17.2027   23.1715 N   0  0  0  0  0  0  0  0  0  0  0  0
   14.9010  -16.3101   24.0800 C   0  0  0  0  0  0  0  0  0  0  0  0
   15.4996  -16.1249   25.1650 O   0  0  0  0  0  0  0  0  0  0  0  0
   13.6261  -15.6971   23.6913 C   0  0  0  0  0  0  0  0  0  0  0  0
   12.3937  -16.4327   24.1192 C   0  0  2  0  0  0  0  0  0  0  0  0
   11.1905  -15.6871   23.7508 N   0  0  0  0  0  0  0  0  0  0  0  0
   12.3232  -16.7026   25.5724 C   0  0  0  0  0  0  0  0  0  0  0  0
   11.5556  -15.9680   26.2659 O   0  0  0  0  0  0  0  0  0  0  0  0
   13.0049  -17.6717   26.2562 O   0  0  0  0  0  0  0  0  0  0  0  0
  2  1  1  6
  3  2  1  0
  3  4  1  0
  4  5  2  0
  6  2  1  0
  6  7  2  0
  8  4  1  0
  9  6  1  0
 10  9  1  0
 10 11  1  1
 11 12  1  0
 13 12  1  0
 13 14  1  0
 14 15  1  0
 16 10  1  0
 17 16  2  0
 18 19  1  0
 19 20  2  0
 21 19  1  0
 22 21  1  1
 22 23  1  0
 22 24  1  0
 23 16  1  0
 24 26  1  0
 25 24  2  0
M  END
$$$$
