DKN.pdb
     RDKit          3D

 26 25  0  0  1  0  0  0  0  0999 V2000
   11.2756  -16.4612   15.3336 N   0  0  0  0  0  0  0  0  0  0  0  0
   12.6369  -16.2575   15.7387 C   0  0  1  0  0  0  0  0  0  0  0  0
   13.3542  -15.2455   14.8656 C   0  0  0  0  0  0  0  0  0  0  0  0
   13.5788  -15.8331   13.5122 C   0  0  0  0  0  0  0  0  0  0  0  0
   13.0357  -16.9004   13.1902 O   0  0  0  0  0  0  0  0  0  0  0  0
   12.6590  -15.7944   17.1396 C   0  0  0  0  0  0  0  0  0  0  0  0
   13.8057  -15.5532   17.6340 O   0  0  0  0  0  0  0  0  0  0  0  0
   14.3917  -15.2106   12.5859 O   0  0  0  0  0  0  0  0  0  0  0  0
   11.4612  -15.6365   17.8671 N   0  0  0  0  0  0  0  0  0  0  0  0
   11.5184  -15.2076   19.2634 C   0  0  1  0  0  0  0  0  0  0  0  0
   10.1541  -14.7523   19.6443 C   0  0  0  0  0  0  0  0  0  0  0  0
    9.6787  -13.4921   18.9693 C   0  0  0  0  0  0  0  0  0  0  0  0
    8.1638  -13.5288   18.9858 C   0  0  0  0  0  0  0  0  0  0  0  0
    7.5290  -12.3407   18.3428 C   0  0  0  0  0  0  0  0  0  0  0  0
    6.1112  -12.2444   18.5310 N   0  0  0  0  0  0  0  0  0  0  0  0
   12.0696  -16.3123   20.0885 C   0  0  0  0  0  0  0  0  0  0  0  0
   12.3352  -17.3939   19.5056 O   0  0  0  0  0  0  0  0  0  0  0  0
   16.6099  -14.7739   22.8158 N   0  0  0  0  0  0  0  0  0  0  0  0
   16.0157  -15.8341   22.0626 C   0  0  0  0  0  0  0  0  0  0  0  0
   16.7179  -16.8657   21.9492 O   0  0  0  0  0  0  0  0  0  0  0  0
   14.6755  -15.6457   21.4967 C   0  0  0  0  0  0  0  0  0  0  0  0
   13.5891  -16.4766   22.1072 C   0  0  2  0  0  0  0  0  0  0  0  0
   12.2994  -16.1846   21.4819 N   0  0  0  0  0  0  0  0  0  0  0  0
   13.4298  -16.2882   23.5662 C   0  0  0  0  0  0  0  0  0  0  0  0
   14.4028  -16.6242   24.3079 O   0  0  0  0  0  0  0  0  0  0  0  0
   12.3323  -15.7837   24.2085 O   0  0  0  0  0  0  0  0  0  0  0  0
  2  1  1  6
  3  2  1  0
  3  4  1  0
  4  5  2  0
  6  2  1  0
  6  7  2  0
  8  4  1  0
  9  6  1  0
 10  9  1  0
 10 11  1  1
 11 12  1  0
 13 12  1  0
 13 14  1  0
 14 15  1  0
 16 10  1  0
 17 16  2  0
 18 19  1  0
 19 20  2  0
 21 19  1  0
 22 21  1  6
 22 23  1  0
 22 24  1  0
 23 16  1  0
 24 26  1  0
 25 24  2  0
M  END
$$$$
