DKN.pdb
     RDKit          3D

 26 25  0  0  1  0  0  0  0  0999 V2000
   11.4959  -19.2566   19.6964 N   0  0  0  0  0  0  0  0  0  0  0  0
   12.5280  -18.3163   20.0265 C   0  0  1  0  0  0  0  0  0  0  0  0
   13.0401  -17.5696   18.8094 C   0  0  0  0  0  0  0  0  0  0  0  0
   13.9004  -18.4801   17.9980 C   0  0  0  0  0  0  0  0  0  0  0  0
   13.8314  -18.4755   16.7599 O   0  0  0  0  0  0  0  0  0  0  0  0
   12.0019  -17.3469   21.0067 C   0  0  0  0  0  0  0  0  0  0  0  0
   12.8307  -16.4907   21.4513 O   0  0  0  0  0  0  0  0  0  0  0  0
   14.7918  -19.3477   18.5974 O   0  0  0  0  0  0  0  0  0  0  0  0
   10.6514  -17.3893   21.4110 N   0  0  0  0  0  0  0  0  0  0  0  0
   10.1654  -16.4277   22.3989 C   0  0  1  0  0  0  0  0  0  0  0  0
    8.7279  -16.1791   22.1066 C   0  0  0  0  0  0  0  0  0  0  0  0
    8.2817  -14.7445   22.2191 C   0  0  0  0  0  0  0  0  0  0  0  0
    7.9737  -14.2681   20.8138 C   0  0  0  0  0  0  0  0  0  0  0  0
    7.5044  -12.8525   20.7507 C   0  0  0  0  0  0  0  0  0  0  0  0
    7.2632  -12.3603   19.4262 N   0  0  0  0  0  0  0  0  0  0  0  0
   10.4536  -16.9434   23.7613 C   0  0  0  0  0  0  0  0  0  0  0  0
   10.6549  -18.1783   23.8826 O   0  0  0  0  0  0  0  0  0  0  0  0
   11.9687  -15.4991   29.4063 N   0  0  0  0  0  0  0  0  0  0  0  0
   10.8188  -15.9018   28.6580 C   0  0  0  0  0  0  0  0  0  0  0  0
    9.9850  -16.5900   29.2913 O   0  0  0  0  0  0  0  0  0  0  0  0
   10.7012  -15.4954   27.2533 C   0  0  0  0  0  0  0  0  0  0  0  0
   10.7939  -16.6006   26.2467 C   0  0  2  0  0  0  0  0  0  0  0  0
   10.5069  -16.1025   24.9017 N   0  0  0  0  0  0  0  0  0  0  0  0
    9.8796  -17.7347   26.5064 C   0  0  0  0  0  0  0  0  0  0  0  0
   10.3634  -18.7530   27.0884 O   0  0  0  0  0  0  0  0  0  0  0  0
    8.5522  -17.8030   26.1826 O   0  0  0  0  0  0  0  0  0  0  0  0
  2  1  1  6
  3  2  1  0
  3  4  1  0
  4  5  2  0
  6  2  1  0
  6  7  2  0
  8  4  1  0
  9  6  1  0
 10  9  1  0
 10 11  1  1
 11 12  1  0
 13 12  1  0
 13 14  1  0
 14 15  1  0
 16 10  1  0
 17 16  2  0
 18 19  1  0
 19 20  2  0
 21 19  1  0
 22 21  1  1
 22 23  1  0
 22 24  1  0
 23 16  1  0
 24 26  1  0
 25 24  2  0
M  END
$$$$
