DKN.pdb
     RDKit          3D

 26 25  0  0  1  0  0  0  0  0999 V2000
    9.9903  -17.3286   20.0559 N   0  0  0  0  0  0  0  0  0  0  0  0
    8.9730  -16.3168   20.0637 C   0  0  1  0  0  0  0  0  0  0  0  0
    7.9768  -16.4904   18.9330 C   0  0  0  0  0  0  0  0  0  0  0  0
    8.7118  -16.5764   17.6369 C   0  0  0  0  0  0  0  0  0  0  0  0
    9.9516  -16.5725   17.6138 O   0  0  0  0  0  0  0  0  0  0  0  0
    8.2580  -16.3616   21.3537 C   0  0  0  0  0  0  0  0  0  0  0  0
    7.2303  -15.6190   21.4531 O   0  0  0  0  0  0  0  0  0  0  0  0
    8.0382  -16.6620   16.4347 O   0  0  0  0  0  0  0  0  0  0  0  0
    8.7100  -17.1901   22.4017 N   0  0  0  0  0  0  0  0  0  0  0  0
    8.0471  -17.1307   23.7032 C   0  0  1  0  0  0  0  0  0  0  0  0
    8.0156  -18.5145   24.2489 C   0  0  0  0  0  0  0  0  0  0  0  0
    7.4059  -18.6577   25.6192 C   0  0  0  0  0  0  0  0  0  0  0  0
    7.5513  -20.1132   26.0154 C   0  0  0  0  0  0  0  0  0  0  0  0
    6.9459  -20.4362   27.3411 C   0  0  0  0  0  0  0  0  0  0  0  0
    7.0806  -21.8057   27.7429 N   0  0  0  0  0  0  0  0  0  0  0  0
    8.7390  -16.1306   24.5553 C   0  0  0  0  0  0  0  0  0  0  0  0
    9.9189  -16.3856   24.9061 O   0  0  0  0  0  0  0  0  0  0  0  0
    5.7592  -11.5871   25.9600 N   0  0  0  0  0  0  0  0  0  0  0  0
    7.0340  -12.2178   25.8130 C   0  0  0  0  0  0  0  0  0  0  0  0
    7.7718  -11.7279   24.9267 O   0  0  0  0  0  0  0  0  0  0  0  0
    7.3750  -13.3520   26.6788 C   0  0  0  0  0  0  0  0  0  0  0  0
    8.4971  -14.2209   26.2002 C   0  0  2  0  0  0  0  0  0  0  0  0
    8.1211  -14.9251   24.9744 N   0  0  0  0  0  0  0  0  0  0  0  0
    8.9367  -15.2378   27.1812 C   0  0  0  0  0  0  0  0  0  0  0  0
    8.1954  -16.2553   27.3392 O   0  0  0  0  0  0  0  0  0  0  0  0
   10.0711  -15.1978   27.9447 O   0  0  0  0  0  0  0  0  0  0  0  0
  2  1  1  1
  3  2  1  0
  3  4  1  0
  4  5  2  0
  6  2  1  0
  6  7  2  0
  8  4  1  0
  9  6  1  0
 10  9  1  0
 10 11  1  1
 11 12  1  0
 13 12  1  0
 13 14  1  0
 14 15  1  0
 16 10  1  0
 17 16  2  0
 18 19  1  0
 19 20  2  0
 21 19  1  0
 22 21  1  1
 22 23  1  0
 22 24  1  0
 23 16  1  0
 24 26  1  0
 25 24  2  0
M  END
$$$$
