SAV.pdb
     RDKit          3D

 19 18  0  0  1  0  0  0  0  0999 V2000
   27.7023  -19.0686  -15.2979 O   0  0  0  0  0  0  0  0  0  0  0  0
   28.2380  -18.8753  -14.0156 C   0  0  0  0  0  0  0  0  0  0  0  0
   28.5258  -20.2799  -13.4775 C   0  0  2  0  0  0  0  0  0  0  0  0
   29.1334  -21.0670  -14.5237 N   0  0  0  0  0  0  0  0  0  0  0  0
   27.2183  -20.8457  -13.0613 C   0  0  0  0  0  0  0  0  0  0  0  0
   26.6570  -21.6608  -13.8204 O   0  0  0  0  0  0  0  0  0  0  0  0
   25.1052  -20.3750  -10.0154 C   0  0  0  0  0  0  0  0  0  0  0  0
   25.3453  -20.9765  -11.3856 C   0  0  2  0  0  0  0  0  0  0  0  0
   26.6446  -20.4566  -11.8341 N   0  0  0  0  0  0  0  0  0  0  0  0
   24.3235  -20.5374  -12.3389 C   0  0  0  0  0  0  0  0  0  0  0  0
   24.3950  -19.4356  -12.9370 O   0  0  0  0  0  0  0  0  0  0  0  0
   21.5330  -23.3129  -13.9749 C   0  0  0  0  0  0  0  0  0  0  0  0
   21.9587  -22.0282  -14.6576 C   0  0  2  0  0  0  0  0  0  0  0  0
   23.2656  -22.3460  -15.3875 C   0  0  0  0  0  0  0  0  0  0  0  0
   22.1898  -20.9942  -13.6006 C   0  0  2  0  0  0  0  0  0  0  0  0
   23.1922  -21.3408  -12.6375 N   0  0  0  0  0  0  0  0  0  0  0  0
   20.9101  -20.6136  -12.9554 C   0  0  0  0  0  0  0  0  0  0  0  0
   20.6918  -20.9723  -11.7727 O   0  0  0  0  0  0  0  0  0  0  0  0
   19.9307  -19.8740  -13.5966 O   0  0  0  0  0  0  0  0  0  0  0  0
  1  2  1  0
  2  3  1  0
  3  5  1  0
  3  4  1  6
  5  6  2  0
  8  7  1  1
  8 10  1  0
  9  8  1  0
  9  5  1  0
 10 11  2  0
 13 12  1  1
 13 15  1  0
 14 13  1  0
 15 17  1  0
 15 16  1  1
 16 10  1  0
 17 18  2  0
 17 19  1  0
M  END
$$$$
