SAV.pdb
     RDKit          3D

 19 18  0  0  1  0  0  0  0  0999 V2000
   18.8225  -10.4238  -20.3367 O   0  0  0  0  0  0  0  0  0  0  0  0
   18.8687   -9.6431  -19.1718 C   0  0  0  0  0  0  0  0  0  0  0  0
   19.0181  -10.6395  -18.0184 C   0  0  2  0  0  0  0  0  0  0  0  0
   17.7289  -11.2225  -17.7331 N   0  0  0  0  0  0  0  0  0  0  0  0
   19.5335   -9.8669  -16.8607 C   0  0  0  0  0  0  0  0  0  0  0  0
   18.7424   -9.1258  -16.2437 O   0  0  0  0  0  0  0  0  0  0  0  0
   22.7218  -10.0261  -14.9643 C   0  0  0  0  0  0  0  0  0  0  0  0
   21.4216   -9.3187  -15.2898 C   0  0  2  0  0  0  0  0  0  0  0  0
   20.8872   -9.9839  -16.4863 N   0  0  0  0  0  0  0  0  0  0  0  0
   21.6568   -7.9103  -15.6164 C   0  0  0  0  0  0  0  0  0  0  0  0
   22.1222   -7.5486  -16.7251 O   0  0  0  0  0  0  0  0  0  0  0  0
   19.3094   -4.9513  -14.0566 C   0  0  0  0  0  0  0  0  0  0  0  0
   20.2188   -4.7694  -15.2556 C   0  0  2  0  0  0  0  0  0  0  0  0
   19.4999   -5.4209  -16.4389 C   0  0  0  0  0  0  0  0  0  0  0  0
   21.5070   -5.4775  -14.9740 C   0  0  2  0  0  0  0  0  0  0  0  0
   21.3687   -6.8748  -14.6895 N   0  0  0  0  0  0  0  0  0  0  0  0
   22.2703   -4.7702  -13.9177 C   0  0  0  0  0  0  0  0  0  0  0  0
   22.3110   -5.2588  -12.7624 O   0  0  0  0  0  0  0  0  0  0  0  0
   22.9491   -3.5842  -14.1410 O   0  0  0  0  0  0  0  0  0  0  0  0
  1  2  1  0
  2  3  1  0
  3  5  1  0
  3  4  1  1
  5  6  2  0
  8  7  1  6
  8 10  1  0
  9  8  1  0
  9  5  1  0
 10 11  2  0
 13 12  1  1
 13 15  1  0
 14 13  1  0
 15 17  1  0
 15 16  1  1
 16 10  1  0
 17 18  2  0
 17 19  1  0
M  END
$$$$
