SAV.pdb
     RDKit          3D

 19 18  0  0  1  0  0  0  0  0999 V2000
   17.2691  -12.7682  -14.2812 O   0  0  0  0  0  0  0  0  0  0  0  0
   17.9566  -11.5918  -14.6162 C   0  0  0  0  0  0  0  0  0  0  0  0
   17.1269  -10.9354  -15.7236 C   0  0  2  0  0  0  0  0  0  0  0  0
   17.1337  -11.7929  -16.8846 N   0  0  0  0  0  0  0  0  0  0  0  0
   17.7686   -9.6281  -16.0096 C   0  0  0  0  0  0  0  0  0  0  0  0
   18.8032   -9.6158  -16.7061 O   0  0  0  0  0  0  0  0  0  0  0  0
   16.7452   -6.1103  -15.3166 C   0  0  0  0  0  0  0  0  0  0  0  0
   17.7647   -7.1199  -15.8049 C   0  0  2  0  0  0  0  0  0  0  0  0
   17.2046   -8.4429  -15.4960 N   0  0  0  0  0  0  0  0  0  0  0  0
   19.0311   -6.9796  -15.0823 C   0  0  0  0  0  0  0  0  0  0  0  0
   19.2132   -7.4824  -13.9463 O   0  0  0  0  0  0  0  0  0  0  0  0
   22.4788   -7.8269  -16.4387 C   0  0  0  0  0  0  0  0  0  0  0  0
   22.5675   -6.3995  -15.9363 C   0  0  2  0  0  0  0  0  0  0  0  0
   23.8897   -6.2975  -15.1727 C   0  0  0  0  0  0  0  0  0  0  0  0
   21.4132   -6.1580  -15.0148 C   0  0  2  0  0  0  0  0  0  0  0  0
   20.1252   -6.2628  -15.6335 N   0  0  0  0  0  0  0  0  0  0  0  0
   21.5797   -4.8712  -14.2972 C   0  0  0  0  0  0  0  0  0  0  0  0
   21.0063   -3.8463  -14.7398 O   0  0  0  0  0  0  0  0  0  0  0  0
   22.3439   -4.7385  -13.1502 O   0  0  0  0  0  0  0  0  0  0  0  0
  1  2  1  0
  2  3  1  0
  3  5  1  0
  3  4  1  6
  5  6  2  0
  8  7  1  1
  8 10  1  0
  9  8  1  0
  9  5  1  0
 10 11  2  0
 13 12  1  1
 13 15  1  0
 14 13  1  0
 15 17  1  0
 15 16  1  6
 16 10  1  0
 17 18  2  0
 17 19  1  0
M  END
$$$$
