SAV.pdb
     RDKit          3D

 19 18  0  0  1  0  0  0  0  0999 V2000
   18.7777  -10.8751  -19.5937 O   0  0  0  0  0  0  0  0  0  0  0  0
   18.7221  -10.1872  -18.3722 C   0  0  0  0  0  0  0  0  0  0  0  0
   19.3271  -11.1415  -17.3384 C   0  0  2  0  0  0  0  0  0  0  0  0
   18.3076  -12.0642  -16.8996 N   0  0  0  0  0  0  0  0  0  0  0  0
   19.8122  -10.2953  -16.2198 C   0  0  0  0  0  0  0  0  0  0  0  0
   18.9736   -9.6559  -15.5537 O   0  0  0  0  0  0  0  0  0  0  0  0
   23.1673   -9.8455  -14.6589 C   0  0  0  0  0  0  0  0  0  0  0  0
   21.7174   -9.4343  -14.8189 C   0  0  2  0  0  0  0  0  0  0  0  0
   21.1913  -10.2316  -15.9357 N   0  0  0  0  0  0  0  0  0  0  0  0
   21.6091   -8.0182  -15.1773 C   0  0  0  0  0  0  0  0  0  0  0  0
   21.7719   -7.6108  -16.3538 O   0  0  0  0  0  0  0  0  0  0  0  0
   19.0056   -5.6242  -15.4102 C   0  0  0  0  0  0  0  0  0  0  0  0
   19.8987   -5.0128  -14.3490 C   0  0  2  0  0  0  0  0  0  0  0  0
   19.9541   -3.5135  -14.6503 C   0  0  0  0  0  0  0  0  0  0  0  0
   21.2598   -5.6215  -14.4792 C   0  0  2  0  0  0  0  0  0  0  0  0
   21.3123   -7.0268  -14.2059 N   0  0  0  0  0  0  0  0  0  0  0  0
   22.2486   -4.8636  -13.6751 C   0  0  0  0  0  0  0  0  0  0  0  0
   22.7380   -3.8080  -14.1455 O   0  0  0  0  0  0  0  0  0  0  0  0
   22.6659   -5.2637  -12.4170 O   0  0  0  0  0  0  0  0  0  0  0  0
  1  2  1  0
  2  3  1  0
  3  5  1  0
  3  4  1  1
  5  6  2  0
  8  7  1  6
  8 10  1  0
  9  8  1  0
  9  5  1  0
 10 11  2  0
 13 12  1  6
 13 15  1  0
 14 13  1  0
 15 17  1  0
 15 16  1  1
 16 10  1  0
 17 18  2  0
 17 19  1  0
M  END
$$$$
