SAV.pdb
     RDKit          3D

 19 18  0  0  1  0  0  0  0  0999 V2000
   34.7445  -27.4284  -17.4171 O   0  0  0  0  0  0  0  0  0  0  0  0
   33.4260  -27.9042  -17.4777 C   0  0  0  0  0  0  0  0  0  0  0  0
   33.2330  -28.3893  -18.9175 C   0  0  2  0  0  0  0  0  0  0  0  0
   33.1259  -27.2427  -19.7876 N   0  0  0  0  0  0  0  0  0  0  0  0
   31.9870  -29.1956  -18.9249 C   0  0  0  0  0  0  0  0  0  0  0  0
   30.9048  -28.6117  -19.1343 O   0  0  0  0  0  0  0  0  0  0  0  0
   31.3385  -32.8553  -18.5384 C   0  0  0  0  0  0  0  0  0  0  0  0
   30.8551  -31.4381  -18.7727 C   0  0  2  0  0  0  0  0  0  0  0  0
   32.0496  -30.5853  -18.6987 N   0  0  0  0  0  0  0  0  0  0  0  0
   29.9276  -31.0182  -17.7197 C   0  0  0  0  0  0  0  0  0  0  0  0
   30.3201  -30.6930  -16.5721 O   0  0  0  0  0  0  0  0  0  0  0  0
   26.0272  -29.7114  -18.6915 C   0  0  0  0  0  0  0  0  0  0  0  0
   26.7584  -29.3219  -17.4221 C   0  0  2  0  0  0  0  0  0  0  0  0
   27.6670  -28.1488  -17.7960 C   0  0  0  0  0  0  0  0  0  0  0  0
   27.5763  -30.4941  -16.9780 C   0  0  2  0  0  0  0  0  0  0  0  0
   28.5275  -30.9568  -17.9442 N   0  0  0  0  0  0  0  0  0  0  0  0
   26.6995  -31.5885  -16.4960 C   0  0  0  0  0  0  0  0  0  0  0  0
   26.4992  -32.5818  -17.2365 O   0  0  0  0  0  0  0  0  0  0  0  0
   26.0824  -31.5726  -15.2566 O   0  0  0  0  0  0  0  0  0  0  0  0
  1  2  1  0
  2  3  1  0
  3  5  1  0
  3  4  1  6
  5  6  2  0
  8  7  1  1
  8 10  1  0
  9  8  1  0
  9  5  1  0
 10 11  2  0
 13 12  1  6
 13 15  1  0
 14 13  1  0
 15 17  1  0
 15 16  1  6
 16 10  1  0
 17 18  2  0
 17 19  1  0
M  END
$$$$
