SAV.pdb
     RDKit          3D

 19 18  0  0  1  0  0  0  0  0999 V2000
   17.4707  -11.8159  -16.2646 O   0  0  0  0  0  0  0  0  0  0  0  0
   17.5034  -11.0509  -15.0890 C   0  0  0  0  0  0  0  0  0  0  0  0
   18.4797   -9.9059  -15.3741 C   0  0  2  0  0  0  0  0  0  0  0  0
   19.8194  -10.4387  -15.4425 N   0  0  0  0  0  0  0  0  0  0  0  0
   18.3345   -8.9422  -14.2548 C   0  0  0  0  0  0  0  0  0  0  0  0
   18.7472   -9.2780  -13.1267 O   0  0  0  0  0  0  0  0  0  0  0  0
   17.2505   -5.3823  -14.1064 C   0  0  0  0  0  0  0  0  0  0  0  0
   17.6029   -6.6849  -13.4165 C   0  0  2  0  0  0  0  0  0  0  0  0
   17.7416   -7.6844  -14.4849 N   0  0  0  0  0  0  0  0  0  0  0  0
   16.5239   -7.1161  -12.5246 C   0  0  0  0  0  0  0  0  0  0  0  0
   15.5373   -7.7744  -12.9366 O   0  0  0  0  0  0  0  0  0  0  0  0
   14.7787   -7.6242   -7.9288 C   0  0  0  0  0  0  0  0  0  0  0  0
   15.8627   -6.9868   -8.7752 C   0  0  2  0  0  0  0  0  0  0  0  0
   15.8396   -5.4931   -8.4438 C   0  0  0  0  0  0  0  0  0  0  0  0
   15.5184   -7.2070  -10.2150 C   0  0  2  0  0  0  0  0  0  0  0  0
   16.5387   -6.8094  -11.1388 N   0  0  0  0  0  0  0  0  0  0  0  0
   14.2087   -6.5910  -10.5376 C   0  0  0  0  0  0  0  0  0  0  0  0
   14.1784   -5.4175  -10.9816 O   0  0  0  0  0  0  0  0  0  0  0  0
   13.0022   -7.2501  -10.3730 O   0  0  0  0  0  0  0  0  0  0  0  0
  1  2  1  0
  2  3  1  0
  3  5  1  0
  3  4  1  1
  5  6  2  0
  8  7  1  6
  8 10  1  0
  9  8  1  0
  9  5  1  0
 10 11  2  0
 13 12  1  1
 13 15  1  0
 14 13  1  0
 15 17  1  0
 15 16  1  6
 16 10  1  0
 17 18  2  0
 17 19  1  0
M  END
$$$$
