SAV.pdb
     RDKit          3D

 19 18  0  0  1  0  0  0  0  0999 V2000
   22.0189   -9.8066  -17.6731 O   0  0  0  0  0  0  0  0  0  0  0  0
   20.8557  -10.3640  -18.2254 C   0  0  0  0  0  0  0  0  0  0  0  0
   20.0488  -10.8880  -17.0339 C   0  0  2  0  0  0  0  0  0  0  0  0
   18.9105  -11.6257  -17.5273 N   0  0  0  0  0  0  0  0  0  0  0  0
   19.6283   -9.6964  -16.2555 C   0  0  0  0  0  0  0  0  0  0  0  0
   18.8216   -8.9017  -16.7783 O   0  0  0  0  0  0  0  0  0  0  0  0
   20.0287   -8.6398  -12.7342 C   0  0  0  0  0  0  0  0  0  0  0  0
   19.8431   -8.2711  -14.1925 C   0  0  2  0  0  0  0  0  0  0  0  0
   20.1412   -9.4889  -14.9592 N   0  0  0  0  0  0  0  0  0  0  0  0
   20.7930   -7.2322  -14.5971 C   0  0  0  0  0  0  0  0  0  0  0  0
   21.9114   -7.5058  -15.0982 O   0  0  0  0  0  0  0  0  0  0  0  0
   21.6908   -2.7084  -16.1098 C   0  0  0  0  0  0  0  0  0  0  0  0
   20.6775   -3.7823  -15.7670 C   0  0  2  0  0  0  0  0  0  0  0  0
   19.5500   -3.0785  -15.0087 C   0  0  0  0  0  0  0  0  0  0  0  0
   21.3477   -4.7905  -14.8870 C   0  0  2  0  0  0  0  0  0  0  0  0
   20.4957   -5.8530  -14.4424 N   0  0  0  0  0  0  0  0  0  0  0  0
   22.0338   -4.1207  -13.7559 C   0  0  0  0  0  0  0  0  0  0  0  0
   21.4308   -3.9979  -12.6621 O   0  0  0  0  0  0  0  0  0  0  0  0
   23.3206   -3.6170  -13.8435 O   0  0  0  0  0  0  0  0  0  0  0  0
  1  2  1  0
  2  3  1  0
  3  5  1  0
  3  4  1  6
  5  6  2  0
  8  7  1  1
  8 10  1  0
  9  8  1  0
  9  5  1  0
 10 11  2  0
 13 12  1  1
 13 15  1  0
 14 13  1  0
 15 17  1  0
 15 16  1  1
 16 10  1  0
 17 18  2  0
 17 19  1  0
M  END
$$$$
