SAV.pdb
     RDKit          3D

 19 18  0  0  1  0  0  0  0  0999 V2000
   24.1227  -12.6316  -16.5186 O   0  0  0  0  0  0  0  0  0  0  0  0
   23.5826  -11.3472  -16.6839 C   0  0  0  0  0  0  0  0  0  0  0  0
   22.0634  -11.5405  -16.6867 C   0  0  2  0  0  0  0  0  0  0  0  0
   21.6516  -11.9964  -17.9928 N   0  0  0  0  0  0  0  0  0  0  0  0
   21.4718  -10.2190  -16.3608 C   0  0  0  0  0  0  0  0  0  0  0  0
   21.5116   -9.3223  -17.2268 O   0  0  0  0  0  0  0  0  0  0  0  0
   19.4849   -9.0035  -13.4481 C   0  0  0  0  0  0  0  0  0  0  0  0
   20.1929   -8.7528  -14.7645 C   0  0  2  0  0  0  0  0  0  0  0  0
   20.8847  -10.0059  -15.0972 N   0  0  0  0  0  0  0  0  0  0  0  0
   21.1993   -7.6974  -14.6275 C   0  0  0  0  0  0  0  0  0  0  0  0
   22.3649   -7.9319  -14.2239 O   0  0  0  0  0  0  0  0  0  0  0  0
   20.3731   -3.7329  -16.0808 C   0  0  0  0  0  0  0  0  0  0  0  0
   21.7560   -4.3524  -16.1208 C   0  0  2  0  0  0  0  0  0  0  0  0
   21.8418   -5.1190  -17.4424 C   0  0  0  0  0  0  0  0  0  0  0  0
   21.8779   -5.2932  -14.9633 C   0  0  2  0  0  0  0  0  0  0  0  0
   20.9062   -6.3458  -14.9464 N   0  0  0  0  0  0  0  0  0  0  0  0
   21.9053   -4.5443  -13.6838 C   0  0  0  0  0  0  0  0  0  0  0  0
   22.9345   -3.8941  -13.3785 O   0  0  0  0  0  0  0  0  0  0  0  0
   20.8424   -4.5239  -12.7967 O   0  0  0  0  0  0  0  0  0  0  0  0
  1  2  1  0
  2  3  1  0
  3  5  1  0
  3  4  1  6
  5  6  2  0
  8  7  1  1
  8 10  1  0
  9  8  1  0
  9  5  1  0
 10 11  2  0
 13 12  1  1
 13 15  1  0
 14 13  1  0
 15 17  1  0
 15 16  1  1
 16 10  1  0
 17 18  2  0
 17 19  1  0
M  END
$$$$
