SAV.pdb
     RDKit          3D

 19 18  0  0  1  0  0  0  0  0999 V2000
   13.5130   -8.6510  -14.2059 O   0  0  0  0  0  0  0  0  0  0  0  0
   14.8973   -8.8115  -14.3694 C   0  0  0  0  0  0  0  0  0  0  0  0
   15.1005   -9.1106  -15.8576 C   0  0  2  0  0  0  0  0  0  0  0  0
   14.6503  -10.4544  -16.1310 N   0  0  0  0  0  0  0  0  0  0  0  0
   16.5533   -8.9600  -16.1211 C   0  0  0  0  0  0  0  0  0  0  0  0
   17.2991   -9.9358  -15.9036 O   0  0  0  0  0  0  0  0  0  0  0  0
   18.5659   -6.2288  -17.6692 C   0  0  0  0  0  0  0  0  0  0  0  0
   18.4731   -7.5582  -16.9474 C   0  0  2  0  0  0  0  0  0  0  0  0
   17.0549   -7.7350  -16.6051 N   0  0  0  0  0  0  0  0  0  0  0  0
   19.2445   -7.5355  -15.7025 C   0  0  0  0  0  0  0  0  0  0  0  0
   18.7550   -7.1325  -14.6187 O   0  0  0  0  0  0  0  0  0  0  0  0
   22.9082   -9.1937  -12.9694 C   0  0  0  0  0  0  0  0  0  0  0  0
   22.2698   -9.2138  -14.3441 C   0  0  2  0  0  0  0  0  0  0  0  0
   23.4204   -9.1363  -15.3499 C   0  0  0  0  0  0  0  0  0  0  0  0
   21.3889   -8.0099  -14.4657 C   0  0  2  0  0  0  0  0  0  0  0  0
   20.5946   -7.9710  -15.6573 N   0  0  0  0  0  0  0  0  0  0  0  0
   22.1773   -6.7671  -14.2848 C   0  0  0  0  0  0  0  0  0  0  0  0
   22.5173   -6.1068  -15.2965 O   0  0  0  0  0  0  0  0  0  0  0  0
   22.5632   -6.2904  -13.0435 O   0  0  0  0  0  0  0  0  0  0  0  0
  1  2  1  0
  2  3  1  0
  3  5  1  0
  3  4  1  1
  5  6  2  0
  8  7  1  1
  8 10  1  0
  9  8  1  0
  9  5  1  0
 10 11  2  0
 13 12  1  1
 13 15  1  0
 14 13  1  0
 15 17  1  0
 15 16  1  6
 16 10  1  0
 17 18  2  0
 17 19  1  0
M  END
$$$$
