SAV.pdb
     RDKit          3D

 19 18  0  0  1  0  0  0  0  0999 V2000
   21.2055  -10.3651  -20.5803 O   0  0  0  0  0  0  0  0  0  0  0  0
   20.3833   -9.3789  -20.0144 C   0  0  0  0  0  0  0  0  0  0  0  0
   20.0945   -9.8573  -18.5885 C   0  0  2  0  0  0  0  0  0  0  0  0
   18.9798  -10.7738  -18.6187 N   0  0  0  0  0  0  0  0  0  0  0  0
   19.7788   -8.6436  -17.7948 C   0  0  0  0  0  0  0  0  0  0  0  0
   18.7160   -8.0373  -18.0368 O   0  0  0  0  0  0  0  0  0  0  0  0
   21.4096   -7.0333  -14.8564 C   0  0  0  0  0  0  0  0  0  0  0  0
   20.4163   -6.9980  -16.0006 C   0  0  2  0  0  0  0  0  0  0  0  0
   20.6732   -8.2059  -16.7973 N   0  0  0  0  0  0  0  0  0  0  0  0
   20.6406   -5.8301  -16.8557 C   0  0  0  0  0  0  0  0  0  0  0  0
   21.5968   -5.7680  -17.6671 O   0  0  0  0  0  0  0  0  0  0  0  0
   17.5177   -3.3527  -17.9739 C   0  0  0  0  0  0  0  0  0  0  0  0
   18.8579   -3.3888  -18.6812 C   0  0  2  0  0  0  0  0  0  0  0  0
   18.8225   -4.6121  -19.5998 C   0  0  0  0  0  0  0  0  0  0  0  0
   19.9266   -3.5453  -17.6452 C   0  0  2  0  0  0  0  0  0  0  0  0
   19.7822   -4.7007  -16.8105 N   0  0  0  0  0  0  0  0  0  0  0  0
   20.0675   -2.3017  -16.8500 C   0  0  0  0  0  0  0  0  0  0  0  0
   19.5408   -2.2411  -15.7124 O   0  0  0  0  0  0  0  0  0  0  0  0
   20.7580   -1.1897  -17.3015 O   0  0  0  0  0  0  0  0  0  0  0  0
  1  2  1  0
  2  3  1  0
  3  5  1  0
  3  4  1  6
  5  6  2  0
  8  7  1  1
  8 10  1  0
  9  8  1  0
  9  5  1  0
 10 11  2  0
 13 12  1  1
 13 15  1  0
 14 13  1  0
 15 17  1  0
 15 16  1  1
 16 10  1  0
 17 18  2  0
 17 19  1  0
M  END
$$$$
