SAV.pdb
     RDKit          3D

 19 18  0  0  1  0  0  0  0  0999 V2000
   14.3569  -13.0815  -15.0146 O   0  0  0  0  0  0  0  0  0  0  0  0
   15.6084  -12.4501  -15.0756 C   0  0  0  0  0  0  0  0  0  0  0  0
   16.0150  -12.4915  -16.5516 C   0  0  2  0  0  0  0  0  0  0  0  0
   16.3609  -13.8477  -16.9042 N   0  0  0  0  0  0  0  0  0  0  0  0
   17.1777  -11.5800  -16.6922 C   0  0  0  0  0  0  0  0  0  0  0  0
   18.3156  -12.0296  -16.4500 O   0  0  0  0  0  0  0  0  0  0  0  0
   17.4772   -8.0668  -17.9256 C   0  0  0  0  0  0  0  0  0  0  0  0
   18.0988   -9.3581  -17.4326 C   0  0  2  0  0  0  0  0  0  0  0  0
   16.9765  -10.2431  -17.0910 N   0  0  0  0  0  0  0  0  0  0  0  0
   18.8882   -9.1319  -16.2196 C   0  0  0  0  0  0  0  0  0  0  0  0
   18.3668   -9.0984  -15.0779 O   0  0  0  0  0  0  0  0  0  0  0  0
   23.0104   -9.8735  -13.8611 C   0  0  0  0  0  0  0  0  0  0  0  0
   22.2941   -9.8929  -15.1968 C   0  0  2  0  0  0  0  0  0  0  0  0
   23.3169   -9.4285  -16.2360 C   0  0  0  0  0  0  0  0  0  0  0  0
   21.1499   -8.9309  -15.1251 C   0  0  2  0  0  0  0  0  0  0  0  0
   20.2932   -8.9378  -16.2734 N   0  0  0  0  0  0  0  0  0  0  0  0
   21.6352   -7.5669  -14.8045 C   0  0  0  0  0  0  0  0  0  0  0  0
   21.6949   -6.7092  -15.7187 O   0  0  0  0  0  0  0  0  0  0  0  0
   22.0310   -7.1845  -13.5340 O   0  0  0  0  0  0  0  0  0  0  0  0
  1  2  1  0
  2  3  1  0
  3  5  1  0
  3  4  1  1
  5  6  2  0
  8  7  1  1
  8 10  1  0
  9  8  1  0
  9  5  1  0
 10 11  2  0
 13 12  1  1
 13 15  1  0
 14 13  1  0
 15 17  1  0
 15 16  1  6
 16 10  1  0
 17 18  2  0
 17 19  1  0
M  END
$$$$
