SAV.pdb
     RDKit          3D

 19 18  0  0  1  0  0  0  0  0999 V2000
   16.6238  -15.0042  -13.8440 O   0  0  0  0  0  0  0  0  0  0  0  0
   17.4593  -14.0711  -14.4763 C   0  0  0  0  0  0  0  0  0  0  0  0
   16.6216  -13.4772  -15.6125 C   0  0  2  0  0  0  0  0  0  0  0  0
   16.6878  -14.3587  -16.7534 N   0  0  0  0  0  0  0  0  0  0  0  0
   17.2094  -12.1489  -15.9170 C   0  0  0  0  0  0  0  0  0  0  0  0
   18.2313  -12.1029  -16.6308 O   0  0  0  0  0  0  0  0  0  0  0  0
   15.9970   -8.6803  -15.3022 C   0  0  0  0  0  0  0  0  0  0  0  0
   17.0630   -9.6397  -15.7923 C   0  0  2  0  0  0  0  0  0  0  0  0
   16.6104  -10.9820  -15.4013 N   0  0  0  0  0  0  0  0  0  0  0  0
   18.3460   -9.3803  -15.1350 C   0  0  0  0  0  0  0  0  0  0  0  0
   18.5986   -9.7884  -13.9747 O   0  0  0  0  0  0  0  0  0  0  0  0
   21.6411   -7.5976  -17.2969 C   0  0  0  0  0  0  0  0  0  0  0  0
   21.8118   -8.5825  -16.1574 C   0  0  2  0  0  0  0  0  0  0  0  0
   21.7663   -9.9761  -16.7877 C   0  0  0  0  0  0  0  0  0  0  0  0
   20.6673   -8.4010  -15.2102 C   0  0  2  0  0  0  0  0  0  0  0  0
   19.3769   -8.6491  -15.7808 N   0  0  0  0  0  0  0  0  0  0  0  0
   20.7376   -7.0717  -14.5568 C   0  0  0  0  0  0  0  0  0  0  0  0
   21.6868   -6.8256  -13.7734 O   0  0  0  0  0  0  0  0  0  0  0  0
   19.7999   -6.0750  -14.7676 O   0  0  0  0  0  0  0  0  0  0  0  0
  1  2  1  0
  2  3  1  0
  3  5  1  0
  3  4  1  6
  5  6  2  0
  8  7  1  1
  8 10  1  0
  9  8  1  0
  9  5  1  0
 10 11  2  0
 13 12  1  6
 13 15  1  0
 14 13  1  0
 15 17  1  0
 15 16  1  6
 16 10  1  0
 17 18  2  0
 17 19  1  0
M  END
$$$$
