WAQ.pdb
     RDKit          3D

 29 30  0  0  1  0  0  0  0  0999 V2000
   23.9920  -21.0070   -9.3101 N   0  0  0  0  0  0  0  0  0  0  0  0
   25.1161  -20.2210   -9.8550 C   0  0  1  0  0  0  0  0  0  0  0  0
   26.3401  -20.8375   -9.2674 C   0  0  0  0  0  0  0  0  0  0  0  0
   26.4349  -20.7651   -7.7999 C   0  0  0  0  0  0  0  0  0  0  0  0
   25.6696  -21.5364   -6.9175 C   0  0  0  0  0  0  0  0  0  0  0  0
   26.0162  -21.2345   -5.6659 N   0  0  0  0  0  0  0  0  0  0  0  0
   26.9844  -20.2901   -5.6743 C   0  0  0  0  0  0  0  0  0  0  0  0
   27.6851  -19.6310   -4.6770 C   0  0  0  0  0  0  0  0  0  0  0  0
   28.6347  -18.6915   -4.9593 C   0  0  0  0  0  0  0  0  0  0  0  0
   28.9081  -18.3858   -6.2740 C   0  0  0  0  0  0  0  0  0  0  0  0
   28.2156  -19.0373   -7.2661 C   0  0  0  0  0  0  0  0  0  0  0  0
   27.2514  -19.9910   -7.0159 C   0  0  0  0  0  0  0  0  0  0  0  0
   24.9857  -20.1809  -11.2909 C   0  0  0  0  0  0  0  0  0  0  0  0
   24.7678  -21.2430  -11.9660 O   0  0  0  0  0  0  0  0  0  0  0  0
   25.1345  -17.6039  -14.0987 C   0  0  0  0  0  0  0  0  0  0  0  0
   25.0440  -19.0160  -13.5202 C   0  0  2  0  0  0  0  0  0  0  0  0
   25.0820  -18.9734  -12.0751 N   0  0  0  0  0  0  0  0  0  0  0  0
   26.1439  -19.8513  -14.0779 C   0  0  0  0  0  0  0  0  0  0  0  0
   26.9869  -20.3948  -13.2823 O   0  0  0  0  0  0  0  0  0  0  0  0
   24.7916  -24.9201  -14.7516 N   0  0  0  0  0  0  0  0  0  0  0  0
   26.0125  -25.0023  -15.4633 C   0  0  0  0  0  0  0  0  0  0  0  0
   26.4384  -26.1714  -15.7676 O   0  0  0  0  0  0  0  0  0  0  0  0
   26.7824  -23.8190  -15.8599 C   0  0  0  0  0  0  0  0  0  0  0  0
   26.2853  -22.5043  -15.4049 C   0  0  0  0  0  0  0  0  0  0  0  0
   27.0262  -21.3271  -15.9281 C   0  0  2  0  0  0  0  0  0  0  0  0
   26.3279  -20.0960  -15.4557 N   0  0  0  0  0  0  0  0  0  0  0  0
   27.1882  -21.2587  -17.3578 C   0  0  0  0  0  0  0  0  0  0  0  0
   28.3096  -21.6976  -18.0358 O   0  0  0  0  0  0  0  0  0  0  0  0
   26.2604  -20.7579  -18.0766 O   0  0  0  0  0  0  0  0  0  0  0  0
  2  1  1  1
  2  3  1  0
  2 13  1  0
  3  4  1  0
  4 12  1  0
  5  4  2  0
  5  6  1  0
  6  7  1  0
  7  8  1  0
  8  9  2  0
 10  9  1  0
 11 10  2  0
 12  7  2  0
 12 11  1  0
 13 17  1  0
 13 14  2  0
 16 15  1  6
 17 16  1  0
 18 16  1  0
 18 26  1  0
 19 18  2  0
 21 20  1  0
 22 21  2  0
 23 21  1  0
 25 24  1  6
 24 23  1  0
 25 26  1  0
 27 25  1  0
 28 27  1  0
 29 27  2  0
M  END
$$$$
