WAQ.pdb
     RDKit          3D

 29 30  0  0  1  0  0  0  0  0999 V2000
   14.0090  -10.2810  -10.2562 N   0  0  0  0  0  0  0  0  0  0  0  0
   15.3237   -9.6112  -10.2933 C   0  0  1  0  0  0  0  0  0  0  0  0
   16.0034  -10.1597  -11.5018 C   0  0  0  0  0  0  0  0  0  0  0  0
   16.3536  -11.5880  -11.4292 C   0  0  0  0  0  0  0  0  0  0  0  0
   17.2121  -12.1455  -10.4746 C   0  0  0  0  0  0  0  0  0  0  0  0
   17.2980  -13.4595  -10.6841 N   0  0  0  0  0  0  0  0  0  0  0  0
   16.5303  -13.8052  -11.7427 C   0  0  0  0  0  0  0  0  0  0  0  0
   16.2639  -15.0075  -12.3778 C   0  0  0  0  0  0  0  0  0  0  0  0
   15.4331  -15.0868  -13.4583 C   0  0  0  0  0  0  0  0  0  0  0  0
   14.8394  -13.9396  -13.9356 C   0  0  0  0  0  0  0  0  0  0  0  0
   15.1008  -12.7451  -13.3085 C   0  0  0  0  0  0  0  0  0  0  0  0
   15.9337  -12.6299  -12.2155 C   0  0  0  0  0  0  0  0  0  0  0  0
   15.1081   -8.1874  -10.2101 C   0  0  0  0  0  0  0  0  0  0  0  0
   14.2464   -7.6036  -10.9503 O   0  0  0  0  0  0  0  0  0  0  0  0
   16.2453   -5.2232   -8.1189 C   0  0  0  0  0  0  0  0  0  0  0  0
   15.6520   -5.8810   -9.3647 C   0  0  2  0  0  0  0  0  0  0  0  0
   15.8211   -7.3161   -9.3074 N   0  0  0  0  0  0  0  0  0  0  0  0
   16.2836   -5.2980  -10.5811 C   0  0  0  0  0  0  0  0  0  0  0  0
   17.4092   -5.7541  -10.9860 O   0  0  0  0  0  0  0  0  0  0  0  0
   13.3319   -2.5998  -15.4763 N   0  0  0  0  0  0  0  0  0  0  0  0
   13.5186   -3.9405  -15.0624 C   0  0  0  0  0  0  0  0  0  0  0  0
   12.7434   -4.8258  -15.5686 O   0  0  0  0  0  0  0  0  0  0  0  0
   14.5516   -4.3390  -14.1009 C   0  0  0  0  0  0  0  0  0  0  0  0
   15.3793   -3.2656  -13.5131 C   0  0  0  0  0  0  0  0  0  0  0  0
   16.4136   -3.7159  -12.5458 C   0  0  2  0  0  0  0  0  0  0  0  0
   15.7154   -4.2536  -11.3417 N   0  0  0  0  0  0  0  0  0  0  0  0
   17.3742   -2.7257  -12.1315 C   0  0  0  0  0  0  0  0  0  0  0  0
   18.4943   -2.3749  -12.8612 O   0  0  0  0  0  0  0  0  0  0  0  0
   17.2185   -2.1191  -11.0198 O   0  0  0  0  0  0  0  0  0  0  0  0
  2  1  1  6
  2  3  1  0
  2 13  1  0
  3  4  1  0
  4 12  1  0
  5  4  2  0
  5  6  1  0
  6  7  1  0
  7  8  1  0
  8  9  2  0
 10  9  1  0
 11 10  2  0
 12  7  2  0
 12 11  1  0
 13 17  1  0
 13 14  2  0
 16 15  1  1
 17 16  1  0
 18 16  1  0
 18 26  1  0
 19 18  2  0
 21 20  1  0
 22 21  2  0
 23 21  1  0
 25 24  1  6
 24 23  1  0
 25 26  1  0
 27 25  1  0
 28 27  1  0
 29 27  2  0
M  END
$$$$
