WAQ.pdb
     RDKit          3D

 29 30  0  0  1  0  0  0  0  0999 V2000
   28.4445  -21.4216  -10.2026 N   0  0  0  0  0  0  0  0  0  0  0  0
   27.0077  -21.2119   -9.9377 C   0  0  1  0  0  0  0  0  0  0  0  0
   26.9602  -20.2280   -8.8183 C   0  0  0  0  0  0  0  0  0  0  0  0
   28.0284  -20.3691   -7.8149 C   0  0  0  0  0  0  0  0  0  0  0  0
   29.2573  -20.9968   -8.0489 C   0  0  0  0  0  0  0  0  0  0  0  0
   29.9937  -20.9351   -6.9390 N   0  0  0  0  0  0  0  0  0  0  0  0
   29.3060  -20.2904   -5.9690 C   0  0  0  0  0  0  0  0  0  0  0  0
   29.5912  -19.9603   -4.6538 C   0  0  0  0  0  0  0  0  0  0  0  0
   28.6988  -19.2926   -3.8653 C   0  0  0  0  0  0  0  0  0  0  0  0
   27.4763  -18.9340   -4.3883 C   0  0  0  0  0  0  0  0  0  0  0  0
   27.1896  -19.2593   -5.6922 C   0  0  0  0  0  0  0  0  0  0  0  0
   28.0676  -19.9321   -6.5156 C   0  0  0  0  0  0  0  0  0  0  0  0
   26.3634  -20.8717  -11.1826 C   0  0  0  0  0  0  0  0  0  0  0  0
   27.0245  -20.3764  -12.1567 O   0  0  0  0  0  0  0  0  0  0  0  0
   25.0202  -21.5867  -13.8229 C   0  0  0  0  0  0  0  0  0  0  0  0
   24.3808  -20.7358  -12.7256 C   0  0  2  0  0  0  0  0  0  0  0  0
   24.9553  -21.0571  -11.4379 N   0  0  0  0  0  0  0  0  0  0  0  0
   22.9052  -20.9379  -12.7386 C   0  0  0  0  0  0  0  0  0  0  0  0
   22.3167  -21.3484  -11.6783 O   0  0  0  0  0  0  0  0  0  0  0  0
   18.7911  -19.4377  -11.4711 N   0  0  0  0  0  0  0  0  0  0  0  0
   18.8121  -18.1820  -12.1242 C   0  0  0  0  0  0  0  0  0  0  0  0
   17.7984  -17.4163  -11.9595 O   0  0  0  0  0  0  0  0  0  0  0  0
   19.9343  -17.7380  -12.9572 C   0  0  0  0  0  0  0  0  0  0  0  0
   21.0880  -18.6524  -13.0818 C   0  0  0  0  0  0  0  0  0  0  0  0
   20.7992  -19.9578  -13.7305 C   0  0  2  0  0  0  0  0  0  0  0  0
   22.0862  -20.7009  -13.8634 N   0  0  0  0  0  0  0  0  0  0  0  0
   20.1513  -19.9023  -15.0159 C   0  0  0  0  0  0  0  0  0  0  0  0
   20.7483  -19.4279  -16.1685 O   0  0  0  0  0  0  0  0  0  0  0  0
   18.9446  -20.2998  -15.1339 O   0  0  0  0  0  0  0  0  0  0  0  0
  2  1  1  6
  2  3  1  0
  2 13  1  0
  3  4  1  0
  4 12  1  0
  5  4  2  0
  5  6  1  0
  6  7  1  0
  7  8  1  0
  8  9  2  0
 10  9  1  0
 11 10  2  0
 12  7  2  0
 12 11  1  0
 13 17  1  0
 13 14  2  0
 16 15  1  6
 17 16  1  0
 18 16  1  0
 18 26  1  0
 19 18  2  0
 21 20  1  0
 22 21  2  0
 23 21  1  0
 25 24  1  6
 24 23  1  0
 25 26  1  0
 27 25  1  0
 28 27  1  0
 29 27  2  0
M  END
$$$$
