WAQ.pdb
     RDKit          3D

 29 30  0  0  1  0  0  0  0  0999 V2000
   24.5509  -17.3967  -19.0027 N   0  0  0  0  0  0  0  0  0  0  0  0
   24.3851  -17.9354  -17.6386 C   0  0  1  0  0  0  0  0  0  0  0  0
   23.2676  -18.9170  -17.7435 C   0  0  0  0  0  0  0  0  0  0  0  0
   21.9326  -18.3275  -17.9387 C   0  0  0  0  0  0  0  0  0  0  0  0
   21.2037  -18.3946  -19.1317 C   0  0  0  0  0  0  0  0  0  0  0  0
   20.0351  -17.7755  -18.9608 N   0  0  0  0  0  0  0  0  0  0  0  0
   19.9520  -17.2953  -17.6992 C   0  0  0  0  0  0  0  0  0  0  0  0
   18.9822  -16.5862  -17.0086 C   0  0  0  0  0  0  0  0  0  0  0  0
   19.1509  -16.2082  -15.7075 C   0  0  0  0  0  0  0  0  0  0  0  0
   20.3187  -16.5393  -15.0572 C   0  0  0  0  0  0  0  0  0  0  0  0
   21.2829  -17.2426  -15.7383 C   0  0  0  0  0  0  0  0  0  0  0  0
   21.1446  -17.6401  -17.0515 C   0  0  0  0  0  0  0  0  0  0  0  0
   25.6701  -18.4003  -17.1768 C   0  0  0  0  0  0  0  0  0  0  0  0
   26.3521  -19.2420  -17.8533 O   0  0  0  0  0  0  0  0  0  0  0  0
   28.3339  -17.6053  -14.6590 C   0  0  0  0  0  0  0  0  0  0  0  0
   27.4892  -18.6036  -15.4507 C   0  0  2  0  0  0  0  0  0  0  0  0
   26.2886  -17.9681  -15.9468 N   0  0  0  0  0  0  0  0  0  0  0  0
   27.1777  -19.7798  -14.5916 C   0  0  0  0  0  0  0  0  0  0  0  0
   28.1359  -20.4794  -14.1107 O   0  0  0  0  0  0  0  0  0  0  0  0
   25.4285  -19.6427   -9.4490 N   0  0  0  0  0  0  0  0  0  0  0  0
   25.6454  -21.0379   -9.5507 C   0  0  0  0  0  0  0  0  0  0  0  0
   25.4837  -21.7372   -8.4896 O   0  0  0  0  0  0  0  0  0  0  0  0
   26.0330  -21.6927  -10.8042 C   0  0  0  0  0  0  0  0  0  0  0  0
   26.2857  -20.8235  -11.9718 C   0  0  0  0  0  0  0  0  0  0  0  0
   25.6351  -21.2516  -13.2374 C   0  0  2  0  0  0  0  0  0  0  0  0
   25.8686  -20.1885  -14.2580 N   0  0  0  0  0  0  0  0  0  0  0  0
   24.2246  -21.5355  -13.1657 C   0  0  0  0  0  0  0  0  0  0  0  0
   23.2385  -20.5693  -13.1025 O   0  0  0  0  0  0  0  0  0  0  0  0
   23.8230  -22.7465  -13.1480 O   0  0  0  0  0  0  0  0  0  0  0  0
  2  1  1  6
  2  3  1  0
  2 13  1  0
  3  4  1  0
  4 12  1  0
  5  4  2  0
  5  6  1  0
  6  7  1  0
  7  8  1  0
  8  9  2  0
 10  9  1  0
 11 10  2  0
 12  7  2  0
 12 11  1  0
 13 17  1  0
 13 14  2  0
 16 15  1  1
 17 16  1  0
 18 16  1  0
 18 26  1  0
 19 18  2  0
 21 20  1  0
 22 21  2  0
 23 21  1  0
 25 24  1  1
 24 23  1  0
 25 26  1  0
 27 25  1  0
 28 27  1  0
 29 27  2  0
M  END
$$$$
