WAQ.pdb
     RDKit          3D

 29 30  0  0  1  0  0  0  0  0999 V2000
   25.5715  -22.5000  -10.4264 N   0  0  0  0  0  0  0  0  0  0  0  0
   25.2922  -21.1254  -10.8853 C   0  0  1  0  0  0  0  0  0  0  0  0
   26.6130  -20.5866  -11.3196 C   0  0  0  0  0  0  0  0  0  0  0  0
   27.6825  -20.6619  -10.3105 C   0  0  0  0  0  0  0  0  0  0  0  0
   28.9451  -21.2228  -10.5348 C   0  0  0  0  0  0  0  0  0  0  0  0
   29.6717  -21.1132   -9.4221 N   0  0  0  0  0  0  0  0  0  0  0  0
   28.9451  -20.5006   -8.4598 C   0  0  0  0  0  0  0  0  0  0  0  0
   29.2054  -20.1465   -7.1457 C   0  0  0  0  0  0  0  0  0  0  0  0
   28.2739  -19.5235   -6.3658 C   0  0  0  0  0  0  0  0  0  0  0  0
   27.0361  -19.2362   -6.8966 C   0  0  0  0  0  0  0  0  0  0  0  0
   26.7739  -19.5856   -8.1995 C   0  0  0  0  0  0  0  0  0  0  0  0
   27.6915  -20.2147   -9.0143 C   0  0  0  0  0  0  0  0  0  0  0  0
   24.2193  -21.1793  -11.8479 C   0  0  0  0  0  0  0  0  0  0  0  0
   24.3867  -20.7797  -13.0493 O   0  0  0  0  0  0  0  0  0  0  0  0
   20.6124  -22.3947  -12.0413 C   0  0  0  0  0  0  0  0  0  0  0  0
   21.8552  -21.6687  -12.5562 C   0  0  2  0  0  0  0  0  0  0  0  0
   22.8976  -21.6784  -11.5538 N   0  0  0  0  0  0  0  0  0  0  0  0
   21.4880  -20.2824  -12.9587 C   0  0  0  0  0  0  0  0  0  0  0  0
   21.3495  -19.3818  -12.0594 O   0  0  0  0  0  0  0  0  0  0  0  0
   23.7637  -16.8884  -17.6190 N   0  0  0  0  0  0  0  0  0  0  0  0
   22.6897  -16.1111  -17.1232 C   0  0  0  0  0  0  0  0  0  0  0  0
   22.5483  -14.9308  -17.6006 O   0  0  0  0  0  0  0  0  0  0  0  0
   21.7521  -16.6055  -16.1098 C   0  0  0  0  0  0  0  0  0  0  0  0
   21.9781  -17.9684  -15.5864 C   0  0  0  0  0  0  0  0  0  0  0  0
   20.9579  -18.4584  -14.6234 C   0  0  2  0  0  0  0  0  0  0  0  0
   21.2788  -19.8779  -14.2945 N   0  0  0  0  0  0  0  0  0  0  0  0
   19.5845  -18.3713  -15.0491 C   0  0  0  0  0  0  0  0  0  0  0  0
   18.8244  -17.2183  -14.9949 O   0  0  0  0  0  0  0  0  0  0  0  0
   18.9956  -19.4085  -15.5028 O   0  0  0  0  0  0  0  0  0  0  0  0
  2  1  1  6
  2  3  1  0
  2 13  1  0
  3  4  1  0
  4 12  1  0
  5  4  2  0
  5  6  1  0
  6  7  1  0
  7  8  1  0
  8  9  2  0
 10  9  1  0
 11 10  2  0
 12  7  2  0
 12 11  1  0
 13 17  1  0
 13 14  2  0
 16 15  1  1
 17 16  1  0
 18 16  1  0
 18 26  1  0
 19 18  2  0
 21 20  1  0
 22 21  2  0
 23 21  1  0
 25 24  1  6
 24 23  1  0
 25 26  1  0
 27 25  1  0
 28 27  1  0
 29 27  2  0
M  END
$$$$
