WAQ.pdb
     RDKit          3D

 29 30  0  0  1  0  0  0  0  0999 V2000
   26.2642  -18.6683   -8.9483 N   0  0  0  0  0  0  0  0  0  0  0  0
   26.6781  -19.9911   -9.4553 C   0  0  1  0  0  0  0  0  0  0  0  0
   26.4190  -20.9350   -8.3304 C   0  0  0  0  0  0  0  0  0  0  0  0
   26.9281  -20.5009   -7.0189 C   0  0  0  0  0  0  0  0  0  0  0  0
   26.1333  -19.9682   -5.9973 C   0  0  0  0  0  0  0  0  0  0  0  0
   26.9052  -19.6969   -4.9445 N   0  0  0  0  0  0  0  0  0  0  0  0
   28.1876  -20.0267   -5.2204 C   0  0  0  0  0  0  0  0  0  0  0  0
   29.3695  -19.9518   -4.5009 C   0  0  0  0  0  0  0  0  0  0  0  0
   30.5630  -20.3577   -5.0252 C   0  0  0  0  0  0  0  0  0  0  0  0
   30.5987  -20.8575   -6.3079 C   0  0  0  0  0  0  0  0  0  0  0  0
   29.4288  -20.9337   -7.0248 C   0  0  0  0  0  0  0  0  0  0  0  0
   28.2073  -20.5333   -6.5257 C   0  0  0  0  0  0  0  0  0  0  0  0
   26.0137  -20.2207  -10.7149 C   0  0  0  0  0  0  0  0  0  0  0  0
   24.7787  -19.9364  -10.8737 O   0  0  0  0  0  0  0  0  0  0  0  0
   26.9273  -21.3366  -14.2426 C   0  0  0  0  0  0  0  0  0  0  0  0
   25.9710  -20.8689  -13.1455 C   0  0  2  0  0  0  0  0  0  0  0  0
   26.6632  -20.7723  -11.8794 N   0  0  0  0  0  0  0  0  0  0  0  0
   24.8096  -21.7984  -13.0713 C   0  0  0  0  0  0  0  0  0  0  0  0
   24.7677  -22.6805  -12.1444 O   0  0  0  0  0  0  0  0  0  0  0  0
   21.6642  -22.2449   -9.8911 N   0  0  0  0  0  0  0  0  0  0  0  0
   20.5802  -21.6439  -10.5749 C   0  0  0  0  0  0  0  0  0  0  0  0
   19.4154  -21.7698  -10.0567 O   0  0  0  0  0  0  0  0  0  0  0  0
   20.7461  -20.8935  -11.8238 C   0  0  0  0  0  0  0  0  0  0  0  0
   22.0906  -20.8873  -12.4360 C   0  0  0  0  0  0  0  0  0  0  0  0
   22.3201  -21.9196  -13.4800 C   0  0  2  0  0  0  0  0  0  0  0  0
   23.7219  -21.7754  -13.9703 N   0  0  0  0  0  0  0  0  0  0  0  0
   21.4217  -21.8996  -14.6059 C   0  0  0  0  0  0  0  0  0  0  0  0
   20.2962  -22.6937  -14.7177 O   0  0  0  0  0  0  0  0  0  0  0  0
   21.6536  -21.1169  -15.5866 O   0  0  0  0  0  0  0  0  0  0  0  0
  2  1  1  1
  2  3  1  0
  2 13  1  0
  3  4  1  0
  4 12  1  0
  5  4  2  0
  5  6  1  0
  6  7  1  0
  7  8  1  0
  8  9  2  0
 10  9  1  0
 11 10  2  0
 12  7  2  0
 12 11  1  0
 13 17  1  0
 13 14  2  0
 16 15  1  6
 17 16  1  0
 18 16  1  0
 18 26  1  0
 19 18  2  0
 21 20  1  0
 22 21  2  0
 23 21  1  0
 25 24  1  1
 24 23  1  0
 25 26  1  0
 27 25  1  0
 28 27  1  0
 29 27  2  0
M  END
$$$$
