WAQ.pdb
     RDKit          3D

 29 30  0  0  1  0  0  0  0  0999 V2000
   25.2121  -21.3578   -7.7616 N   0  0  0  0  0  0  0  0  0  0  0  0
   25.4365  -20.4005   -8.8623 C   0  0  1  0  0  0  0  0  0  0  0  0
   26.9070  -20.1536   -8.8666 C   0  0  0  0  0  0  0  0  0  0  0  0
   27.4479  -19.5718   -7.6269 C   0  0  0  0  0  0  0  0  0  0  0  0
   26.9917  -18.3837   -7.0445 C   0  0  0  0  0  0  0  0  0  0  0  0
   27.6836  -18.1549   -5.9279 N   0  0  0  0  0  0  0  0  0  0  0  0
   28.5868  -19.1438   -5.7388 C   0  0  0  0  0  0  0  0  0  0  0  0
   29.5396  -19.3941   -4.7643 C   0  0  0  0  0  0  0  0  0  0  0  0
   30.3501  -20.4919   -4.8094 C   0  0  0  0  0  0  0  0  0  0  0  0
   30.2207  -21.3806   -5.8533 C   0  0  0  0  0  0  0  0  0  0  0  0
   29.2769  -21.1362   -6.8217 C   0  0  0  0  0  0  0  0  0  0  0  0
   28.4425  -20.0384   -6.8062 C   0  0  0  0  0  0  0  0  0  0  0  0
   24.8229  -20.9310  -10.0551 C   0  0  0  0  0  0  0  0  0  0  0  0
   25.2166  -22.0322  -10.5686 O   0  0  0  0  0  0  0  0  0  0  0  0
   21.8430  -20.3727  -12.2983 C   0  0  0  0  0  0  0  0  0  0  0  0
   23.3001  -20.7630  -12.0508 C   0  0  2  0  0  0  0  0  0  0  0  0
   23.7373  -20.2892  -10.7562 N   0  0  0  0  0  0  0  0  0  0  0  0
   24.1499  -20.2285  -13.1511 C   0  0  0  0  0  0  0  0  0  0  0  0
   25.3165  -19.7751  -12.8818 O   0  0  0  0  0  0  0  0  0  0  0  0
   26.6278  -24.4117  -14.8444 N   0  0  0  0  0  0  0  0  0  0  0  0
   26.9115  -23.6507  -16.0038 C   0  0  0  0  0  0  0  0  0  0  0  0
   27.7727  -24.1269  -16.8239 O   0  0  0  0  0  0  0  0  0  0  0  0
   26.2605  -22.3687  -16.2921 C   0  0  0  0  0  0  0  0  0  0  0  0
   25.3014  -21.8566  -15.2918 C   0  0  0  0  0  0  0  0  0  0  0  0
   24.7144  -20.5256  -15.5950 C   0  0  2  0  0  0  0  0  0  0  0  0
   23.7536  -20.1866  -14.5050 N   0  0  0  0  0  0  0  0  0  0  0  0
   24.0507  -20.3954  -16.8668 C   0  0  0  0  0  0  0  0  0  0  0  0
   22.8078  -20.9269  -17.1540 O   0  0  0  0  0  0  0  0  0  0  0  0
   24.6214  -19.7627  -17.8166 O   0  0  0  0  0  0  0  0  0  0  0  0
  2  1  1  1
  2  3  1  0
  2 13  1  0
  3  4  1  0
  4 12  1  0
  5  4  2  0
  5  6  1  0
  6  7  1  0
  7  8  1  0
  8  9  2  0
 10  9  1  0
 11 10  2  0
 12  7  2  0
 12 11  1  0
 13 17  1  0
 13 14  2  0
 16 15  1  6
 17 16  1  0
 18 16  1  0
 18 26  1  0
 19 18  2  0
 21 20  1  0
 22 21  2  0
 23 21  1  0
 25 24  1  1
 24 23  1  0
 25 26  1  0
 27 25  1  0
 28 27  1  0
 29 27  2  0
M  END
$$$$
