WAQ.pdb
     RDKit          3D

 29 30  0  0  1  0  0  0  0  0999 V2000
   21.8640  -18.7997  -14.9011 N   0  0  0  0  0  0  0  0  0  0  0  0
   22.6749  -17.9243  -15.7698 C   0  0  1  0  0  0  0  0  0  0  0  0
   21.9982  -16.5965  -15.7207 C   0  0  0  0  0  0  0  0  0  0  0  0
   20.9092  -16.4123  -16.6944 C   0  0  0  0  0  0  0  0  0  0  0  0
   19.5498  -16.3702  -16.3640 C   0  0  0  0  0  0  0  0  0  0  0  0
   18.8396  -16.1756  -17.4755 N   0  0  0  0  0  0  0  0  0  0  0  0
   19.6701  -16.0857  -18.5393 C   0  0  0  0  0  0  0  0  0  0  0  0
   19.4672  -15.8938  -19.8965 C   0  0  0  0  0  0  0  0  0  0  0  0
   20.5040  -15.8447  -20.7835 C   0  0  0  0  0  0  0  0  0  0  0  0
   21.7926  -15.9901  -20.3203 C   0  0  0  0  0  0  0  0  0  0  0  0
   21.9983  -16.1804  -18.9750 C   0  0  0  0  0  0  0  0  0  0  0  0
   20.9746  -16.2344  -18.0526 C   0  0  0  0  0  0  0  0  0  0  0  0
   24.0502  -18.0135  -15.3440 C   0  0  0  0  0  0  0  0  0  0  0  0
   24.3645  -17.9700  -14.1068 O   0  0  0  0  0  0  0  0  0  0  0  0
   26.8230  -16.9181  -14.9504 C   0  0  0  0  0  0  0  0  0  0  0  0
   26.5261  -18.1814  -15.7584 C   0  0  2  0  0  0  0  0  0  0  0  0
   25.1654  -18.1599  -16.2479 N   0  0  0  0  0  0  0  0  0  0  0  0
   26.7921  -19.3814  -14.9172 C   0  0  0  0  0  0  0  0  0  0  0  0
   27.9958  -19.6613  -14.5827 O   0  0  0  0  0  0  0  0  0  0  0  0
   24.7340  -20.5398   -9.5989 N   0  0  0  0  0  0  0  0  0  0  0  0
   23.9862  -20.1831  -10.7467 C   0  0  0  0  0  0  0  0  0  0  0  0
   22.8851  -19.5558  -10.5599 O   0  0  0  0  0  0  0  0  0  0  0  0
   24.4259  -20.4954  -12.1104 C   0  0  0  0  0  0  0  0  0  0  0  0
   25.6840  -21.2555  -12.2586 C   0  0  0  0  0  0  0  0  0  0  0  0
   26.1377  -21.4704  -13.6572 C   0  0  2  0  0  0  0  0  0  0  0  0
   25.7873  -20.2541  -14.4472 N   0  0  0  0  0  0  0  0  0  0  0  0
   25.6152  -22.6343  -14.3260 C   0  0  0  0  0  0  0  0  0  0  0  0
   24.7790  -22.5904  -15.4254 O   0  0  0  0  0  0  0  0  0  0  0  0
   25.9152  -23.7982  -13.8976 O   0  0  0  0  0  0  0  0  0  0  0  0
  2  1  1  1
  2  3  1  0
  2 13  1  0
  3  4  1  0
  4 12  1  0
  5  4  2  0
  5  6  1  0
  6  7  1  0
  7  8  1  0
  8  9  2  0
 10  9  1  0
 11 10  2  0
 12  7  2  0
 12 11  1  0
 13 17  1  0
 13 14  2  0
 16 15  1  1
 17 16  1  0
 18 16  1  0
 18 26  1  0
 19 18  2  0
 21 20  1  0
 22 21  2  0
 23 21  1  0
 25 24  1  1
 24 23  1  0
 25 26  1  0
 27 25  1  0
 28 27  1  0
 29 27  2  0
M  END
$$$$
