WAQ.pdb
     RDKit          3D

 29 30  0  0  1  0  0  0  0  0999 V2000
   27.4215  -21.9125  -14.3958 N   0  0  0  0  0  0  0  0  0  0  0  0
   26.3294  -22.0832  -13.4178 C   0  0  1  0  0  0  0  0  0  0  0  0
   26.3811  -20.8625  -12.5631 C   0  0  0  0  0  0  0  0  0  0  0  0
   27.4667  -20.8398  -11.5687 C   0  0  0  0  0  0  0  0  0  0  0  0
   28.8269  -20.7402  -11.8831 C   0  0  0  0  0  0  0  0  0  0  0  0
   29.5334  -20.7310  -10.7523 N   0  0  0  0  0  0  0  0  0  0  0  0
   28.6996  -20.8209   -9.6912 C   0  0  0  0  0  0  0  0  0  0  0  0
   28.8980  -20.8563   -8.3203 C   0  0  0  0  0  0  0  0  0  0  0  0
   27.8586  -20.9575   -7.4409 C   0  0  0  0  0  0  0  0  0  0  0  0
   26.5717  -21.0271   -7.9260 C   0  0  0  0  0  0  0  0  0  0  0  0
   26.3705  -20.9921   -9.2849 C   0  0  0  0  0  0  0  0  0  0  0  0
   27.3969  -20.8899  -10.2001 C   0  0  0  0  0  0  0  0  0  0  0  0
   25.1145  -22.3672  -14.1418 C   0  0  0  0  0  0  0  0  0  0  0  0
   24.6161  -21.5199  -14.9572 O   0  0  0  0  0  0  0  0  0  0  0  0
   22.7150  -25.2334  -14.7627 C   0  0  0  0  0  0  0  0  0  0  0  0
   23.0731  -23.7529  -14.6340 C   0  0  2  0  0  0  0  0  0  0  0  0
   24.3732  -23.5991  -14.0195 N   0  0  0  0  0  0  0  0  0  0  0  0
   22.0101  -23.0514  -13.8619 C   0  0  0  0  0  0  0  0  0  0  0  0
   22.2706  -22.6127  -12.6877 O   0  0  0  0  0  0  0  0  0  0  0  0
   22.5372  -18.8538  -13.8386 N   0  0  0  0  0  0  0  0  0  0  0  0
   21.5122  -18.9686  -14.8082 C   0  0  0  0  0  0  0  0  0  0  0  0
   21.6340  -18.2744  -15.8779 O   0  0  0  0  0  0  0  0  0  0  0  0
   20.3472  -19.8418  -14.6336 C   0  0  0  0  0  0  0  0  0  0  0  0
   20.2862  -20.6501  -13.3985 C   0  0  0  0  0  0  0  0  0  0  0  0
   19.7258  -22.0171  -13.5587 C   0  0  2  0  0  0  0  0  0  0  0  0
   20.7028  -22.8265  -14.3439 N   0  0  0  0  0  0  0  0  0  0  0  0
   18.4300  -22.1067  -14.1815 C   0  0  0  0  0  0  0  0  0  0  0  0
   17.2541  -21.6764  -13.5968 O   0  0  0  0  0  0  0  0  0  0  0  0
   18.3211  -22.6196  -15.3448 O   0  0  0  0  0  0  0  0  0  0  0  0
  2  1  1  6
  2  3  1  0
  2 13  1  0
  3  4  1  0
  4 12  1  0
  5  4  2  0
  5  6  1  0
  6  7  1  0
  7  8  1  0
  8  9  2  0
 10  9  1  0
 11 10  2  0
 12  7  2  0
 12 11  1  0
 13 17  1  0
 13 14  2  0
 16 15  1  1
 17 16  1  0
 18 16  1  0
 18 26  1  0
 19 18  2  0
 21 20  1  0
 22 21  2  0
 23 21  1  0
 25 24  1  6
 24 23  1  0
 25 26  1  0
 27 25  1  0
 28 27  1  0
 29 27  2  0
M  END
$$$$
