WAQ.pdb
     RDKit          3D

 29 30  0  0  1  0  0  0  0  0999 V2000
   26.9150  -22.2659   -9.5228 N   0  0  0  0  0  0  0  0  0  0  0  0
   26.1033  -21.0617   -9.7864 C   0  0  1  0  0  0  0  0  0  0  0  0
   26.2256  -20.2348   -8.5516 C   0  0  0  0  0  0  0  0  0  0  0  0
   27.5445  -20.2761   -7.8983 C   0  0  0  0  0  0  0  0  0  0  0  0
   28.7350  -20.6382   -8.5392 C   0  0  0  0  0  0  0  0  0  0  0  0
   29.7397  -20.5536   -7.6668 N   0  0  0  0  0  0  0  0  0  0  0  0
   29.2692  -20.1490   -6.4650 C   0  0  0  0  0  0  0  0  0  0  0  0
   29.8654  -19.9065   -5.2378 C   0  0  0  0  0  0  0  0  0  0  0  0
   29.1457  -19.4991   -4.1515 C   0  0  0  0  0  0  0  0  0  0  0  0
   27.7855  -19.3224   -4.2738 C   0  0  0  0  0  0  0  0  0  0  0  0
   27.1904  -19.5616   -5.4890 C   0  0  0  0  0  0  0  0  0  0  0  0
   27.8872  -19.9732   -6.6056 C   0  0  0  0  0  0  0  0  0  0  0  0
   26.5310  -20.4941  -11.0415 C   0  0  0  0  0  0  0  0  0  0  0  0
   27.7443  -20.1428  -11.2303 O   0  0  0  0  0  0  0  0  0  0  0  0
   26.3383  -22.1188  -13.6270 C   0  0  0  0  0  0  0  0  0  0  0  0
   26.0715  -20.6180  -13.5121 C   0  0  2  0  0  0  0  0  0  0  0  0
   25.6558  -20.2802  -12.1687 N   0  0  0  0  0  0  0  0  0  0  0  0
   25.0539  -20.2169  -14.5231 C   0  0  0  0  0  0  0  0  0  0  0  0
   25.3306  -20.3179  -15.7689 O   0  0  0  0  0  0  0  0  0  0  0  0
   24.1836  -24.7877  -13.5342 N   0  0  0  0  0  0  0  0  0  0  0  0
   23.0130  -24.3538  -14.2016 C   0  0  0  0  0  0  0  0  0  0  0  0
   22.0456  -25.1883  -14.2949 O   0  0  0  0  0  0  0  0  0  0  0  0
   22.8740  -23.0089  -14.7693 C   0  0  0  0  0  0  0  0  0  0  0  0
   22.7703  -21.8812  -13.8205 C   0  0  0  0  0  0  0  0  0  0  0  0
   22.5512  -20.5474  -14.4378 C   0  0  2  0  0  0  0  0  0  0  0  0
   23.7719  -19.7232  -14.1993 N   0  0  0  0  0  0  0  0  0  0  0  0
   21.3937  -19.8179  -13.9872 C   0  0  0  0  0  0  0  0  0  0  0  0
   20.1141  -20.0122  -14.4719 O   0  0  0  0  0  0  0  0  0  0  0  0
   21.5214  -18.9197  -13.0900 O   0  0  0  0  0  0  0  0  0  0  0  0
  2  1  1  1
  2  3  1  0
  2 13  1  0
  3  4  1  0
  4 12  1  0
  5  4  2  0
  5  6  1  0
  6  7  1  0
  7  8  1  0
  8  9  2  0
 10  9  1  0
 11 10  2  0
 12  7  2  0
 12 11  1  0
 13 17  1  0
 13 14  2  0
 16 15  1  1
 17 16  1  0
 18 16  1  0
 18 26  1  0
 19 18  2  0
 21 20  1  0
 22 21  2  0
 23 21  1  0
 25 24  1  1
 24 23  1  0
 25 26  1  0
 27 25  1  0
 28 27  1  0
 29 27  2  0
M  END
$$$$
