WAQ.pdb
     RDKit          3D

 29 30  0  0  1  0  0  0  0  0999 V2000
   24.9056  -19.8185   -9.0816 N   0  0  0  0  0  0  0  0  0  0  0  0
   26.2897  -20.0413   -9.5429 C   0  0  1  0  0  0  0  0  0  0  0  0
   26.7591  -21.2414   -8.7925 C   0  0  0  0  0  0  0  0  0  0  0  0
   26.8652  -21.0662   -7.3344 C   0  0  0  0  0  0  0  0  0  0  0  0
   25.9223  -21.5305   -6.4101 C   0  0  0  0  0  0  0  0  0  0  0  0
   26.3319  -21.2194   -5.1799 N   0  0  0  0  0  0  0  0  0  0  0  0
   27.5133  -20.5638   -5.2432 C   0  0  0  0  0  0  0  0  0  0  0  0
   28.3589  -20.0239   -4.2875 C   0  0  0  0  0  0  0  0  0  0  0  0
   29.5218  -19.3925   -4.6237 C   0  0  0  0  0  0  0  0  0  0  0  0
   29.8695  -19.2863   -5.9519 C   0  0  0  0  0  0  0  0  0  0  0  0
   29.0338  -19.8206   -6.9029 C   0  0  0  0  0  0  0  0  0  0  0  0
   27.8532  -20.4647   -6.5980 C   0  0  0  0  0  0  0  0  0  0  0  0
   26.2838  -20.0884  -10.9845 C   0  0  0  0  0  0  0  0  0  0  0  0
   25.2028  -20.2825  -11.6364 O   0  0  0  0  0  0  0  0  0  0  0  0
   28.7547  -19.6734  -13.8600 C   0  0  0  0  0  0  0  0  0  0  0  0
   27.3638  -19.7980  -13.2383 C   0  0  2  0  0  0  0  0  0  0  0  0
   27.4621  -19.9216  -11.8007 N   0  0  0  0  0  0  0  0  0  0  0  0
   26.6517  -20.9567  -13.8455 C   0  0  0  0  0  0  0  0  0  0  0  0
   27.0857  -22.1426  -13.6352 O   0  0  0  0  0  0  0  0  0  0  0  0
   20.1055  -22.8262  -16.2898 N   0  0  0  0  0  0  0  0  0  0  0  0
   21.0264  -22.8085  -15.2149 C   0  0  0  0  0  0  0  0  0  0  0  0
   20.5507  -22.6570  -14.0352 O   0  0  0  0  0  0  0  0  0  0  0  0
   22.4724  -22.9618  -15.4044 C   0  0  0  0  0  0  0  0  0  0  0  0
   23.3381  -21.8656  -14.9234 C   0  0  0  0  0  0  0  0  0  0  0  0
   24.7934  -22.0528  -15.1588 C   0  0  2  0  0  0  0  0  0  0  0  0
   25.5014  -20.8400  -14.6549 N   0  0  0  0  0  0  0  0  0  0  0  0
   25.1929  -22.3012  -16.5203 C   0  0  0  0  0  0  0  0  0  0  0  0
   25.3727  -21.3143  -17.4709 O   0  0  0  0  0  0  0  0  0  0  0  0
   25.3939  -23.4987  -16.9124 O   0  0  0  0  0  0  0  0  0  0  0  0
  2  1  1  1
  2  3  1  0
  2 13  1  0
  3  4  1  0
  4 12  1  0
  5  4  2  0
  5  6  1  0
  6  7  1  0
  7  8  1  0
  8  9  2  0
 10  9  1  0
 11 10  2  0
 12  7  2  0
 12 11  1  0
 13 17  1  0
 13 14  2  0
 16 15  1  6
 17 16  1  0
 18 16  1  0
 18 26  1  0
 19 18  2  0
 21 20  1  0
 22 21  2  0
 23 21  1  0
 25 24  1  6
 24 23  1  0
 25 26  1  0
 27 25  1  0
 28 27  1  0
 29 27  2  0
M  END
$$$$
