WAQ.pdb
     RDKit          3D

 29 30  0  0  1  0  0  0  0  0999 V2000
   26.5418  -21.7474  -12.9306 N   0  0  0  0  0  0  0  0  0  0  0  0
   25.5894  -21.1294  -11.9877 C   0  0  1  0  0  0  0  0  0  0  0  0
   26.3074  -19.9466  -11.4320 C   0  0  0  0  0  0  0  0  0  0  0  0
   27.5019  -20.2591  -10.6299 C   0  0  0  0  0  0  0  0  0  0  0  0
   28.7867  -20.4335  -11.1570 C   0  0  0  0  0  0  0  0  0  0  0  0
   29.6335  -20.6883  -10.1590 N   0  0  0  0  0  0  0  0  0  0  0  0
   28.9663  -20.6919   -8.9825 C   0  0  0  0  0  0  0  0  0  0  0  0
   29.3494  -20.9003   -7.6673 C   0  0  0  0  0  0  0  0  0  0  0  0
   28.4553  -20.8522   -6.6366 C   0  0  0  0  0  0  0  0  0  0  0  0
   27.1309  -20.5890   -6.9071 C   0  0  0  0  0  0  0  0  0  0  0  0
   26.7468  -20.3815   -8.2100 C   0  0  0  0  0  0  0  0  0  0  0  0
   27.6234  -20.4223   -9.2737 C   0  0  0  0  0  0  0  0  0  0  0  0
   24.3419  -20.9162  -12.6798 C   0  0  0  0  0  0  0  0  0  0  0  0
   24.3038  -20.7796  -13.9491 O   0  0  0  0  0  0  0  0  0  0  0  0
   20.6546  -20.4425  -11.8448 C   0  0  0  0  0  0  0  0  0  0  0  0
   21.8402  -20.6696  -12.7827 C   0  0  2  0  0  0  0  0  0  0  0  0
   23.0588  -20.8435  -12.0236 N   0  0  0  0  0  0  0  0  0  0  0  0
   21.9414  -19.5312  -13.7378 C   0  0  0  0  0  0  0  0  0  0  0  0
   22.4639  -18.4287  -13.3499 O   0  0  0  0  0  0  0  0  0  0  0  0
   25.0629  -17.9515  -17.7975 N   0  0  0  0  0  0  0  0  0  0  0  0
   23.9429  -17.4327  -18.4905 C   0  0  0  0  0  0  0  0  0  0  0  0
   24.1551  -16.4840  -19.3248 O   0  0  0  0  0  0  0  0  0  0  0  0
   22.5813  -17.9401  -18.2933 C   0  0  0  0  0  0  0  0  0  0  0  0
   22.3789  -18.9363  -17.2214 C   0  0  0  0  0  0  0  0  0  0  0  0
   21.7064  -18.4278  -15.9977 C   0  0  2  0  0  0  0  0  0  0  0  0
   21.4941  -19.5813  -15.0755 N   0  0  0  0  0  0  0  0  0  0  0  0
   20.4538  -17.7443  -16.1950 C   0  0  0  0  0  0  0  0  0  0  0  0
   20.3404  -16.4066  -16.5230 O   0  0  0  0  0  0  0  0  0  0  0  0
   19.3568  -18.3813  -16.0571 O   0  0  0  0  0  0  0  0  0  0  0  0
  2  1  1  6
  2  3  1  0
  2 13  1  0
  3  4  1  0
  4 12  1  0
  5  4  2  0
  5  6  1  0
  6  7  1  0
  7  8  1  0
  8  9  2  0
 10  9  1  0
 11 10  2  0
 12  7  2  0
 12 11  1  0
 13 17  1  0
 13 14  2  0
 16 15  1  1
 17 16  1  0
 18 16  1  0
 18 26  1  0
 19 18  2  0
 21 20  1  0
 22 21  2  0
 23 21  1  0
 25 24  1  6
 24 23  1  0
 25 26  1  0
 27 25  1  0
 28 27  1  0
 29 27  2  0
M  END
$$$$
