QEW.pdb
     RDKit          3D

 33 34  0  0  1  0  0  0  0  0999 V2000
   27.6147  -35.7736   -7.6616 N   0  0  0  0  0  0  0  0  0  0  0  0
   26.7139  -34.8772   -8.3112 C   0  0  0  0  0  0  0  0  0  0  0  0
   26.8703  -34.7461   -9.5734 O   0  0  0  0  0  0  0  0  0  0  0  0
   25.6541  -34.1332   -7.5883 C   0  0  0  0  0  0  0  0  0  0  0  0
   25.7122  -34.5465   -6.1338 C   0  0  0  0  0  0  0  0  0  0  0  0
   25.0900  -35.9094   -5.9197 C   0  0  2  0  0  0  0  0  0  0  0  0
   23.6562  -35.7380   -6.0353 N   0  0  0  0  0  0  0  0  0  0  0  0
   25.4750  -36.3525   -4.5462 C   0  0  0  0  0  0  0  0  0  0  0  0
   24.9306  -35.8460   -3.5340 O   0  0  0  0  0  0  0  0  0  0  0  0
   26.4606  -37.3519   -4.3220 N   0  0  0  0  0  0  0  0  0  0  0  0
   26.9294  -37.7883   -3.0364 C   0  0  1  0  0  0  0  0  0  0  0  0
   27.6029  -39.1148   -3.0617 C   0  0  0  0  0  0  0  0  0  0  0  0
   28.0120  -39.7419   -1.8008 C   0  0  0  0  0  0  0  0  0  0  0  0
   29.4107  -40.0505   -1.5608 C   0  0  0  0  0  0  0  0  0  0  0  0
   29.7333  -40.6476   -0.4493 O   0  0  0  0  0  0  0  0  0  0  0  0
   27.6474  -36.8008   -2.2294 C   0  0  0  0  0  0  0  0  0  0  0  0
   28.6406  -36.1749   -2.7415 O   0  0  0  0  0  0  0  0  0  0  0  0
   30.4773  -39.7930   -2.3668 O   0  0  0  0  0  0  0  0  0  0  0  0
   27.3146  -36.4804   -0.8802 N   0  0  0  0  0  0  0  0  0  0  0  0
   28.0198  -35.4437   -0.1298 C   0  0  1  0  0  0  0  0  0  0  0  0
   27.9679  -34.1305   -0.8196 C   0  0  0  0  0  0  0  0  0  0  0  0
   27.1102  -33.1019   -0.2136 C   0  0  0  0  0  0  0  0  0  0  0  0
   26.9601  -32.8918    1.1626 C   0  0  0  0  0  0  0  0  0  0  0  0
   26.1457  -31.8572    1.3288 N   0  0  0  0  0  0  0  0  0  0  0  0
   25.7404  -31.3622    0.1350 C   0  0  0  0  0  0  0  0  0  0  0  0
   24.9060  -30.3223   -0.2163 C   0  0  0  0  0  0  0  0  0  0  0  0
   24.6361  -30.0162   -1.5436 C   0  0  0  0  0  0  0  0  0  0  0  0
   25.2377  -30.7969   -2.5111 C   0  0  0  0  0  0  0  0  0  0  0  0
   26.0689  -31.8323   -2.1546 C   0  0  0  0  0  0  0  0  0  0  0  0
   26.3436  -32.1419   -0.8299 C   0  0  0  0  0  0  0  0  0  0  0  0
   27.5655  -35.5035    1.2629 C   0  0  0  0  0  0  0  0  0  0  0  0
   28.2064  -34.7173    2.2119 O   0  0  0  0  0  0  0  0  0  0  0  0
   26.6231  -36.2186    1.6958 O   0  0  0  0  0  0  0  0  0  0  0  0
  2  1  1  0
  2  3  2  0
  4  2  1  0
  5  4  1  0
  5  6  1  0
  6  7  1  1
  8  6  1  0
  8  9  2  0
 10  8  1  0
 11 10  1  0
 11 12  1  6
 13 12  1  0
 13 14  1  0
 14 15  2  0
 16 11  1  0
 17 16  2  0
 18 14  1  0
 19 16  1  0
 20 21  1  6
 20 19  1  0
 21 22  1  0
 22 30  1  0
 23 22  2  0
 23 24  1  0
 24 25  1  0
 25 26  1  0
 26 27  2  0
 28 27  1  0
 29 28  2  0
 30 25  2  0
 30 29  1  0
 31 20  1  0
 32 31  1  0
 33 31  2  0
M  END
$$$$
