QEW.pdb
     RDKit          3D

 33 34  0  0  1  0  0  0  0  0999 V2000
   28.4862  -18.5346  -20.0720 N   0  0  0  0  0  0  0  0  0  0  0  0
   29.8404  -18.2494  -19.7232 C   0  0  0  0  0  0  0  0  0  0  0  0
   30.7059  -18.4386  -20.6451 O   0  0  0  0  0  0  0  0  0  0  0  0
   30.2429  -17.7626  -18.3815 C   0  0  0  0  0  0  0  0  0  0  0  0
   28.9932  -17.6628  -17.5341 C   0  0  0  0  0  0  0  0  0  0  0  0
   28.8932  -18.8138  -16.5565 C   0  0  2  0  0  0  0  0  0  0  0  0
   28.9287  -20.0322  -17.3391 N   0  0  0  0  0  0  0  0  0  0  0  0
   27.5902  -18.6653  -15.8416 C   0  0  0  0  0  0  0  0  0  0  0  0
   27.3936  -17.6995  -15.0629 O   0  0  0  0  0  0  0  0  0  0  0  0
   26.5273  -19.5950  -16.0046 N   0  0  0  0  0  0  0  0  0  0  0  0
   25.2465  -19.5201  -15.3590 C   0  0  1  0  0  0  0  0  0  0  0  0
   24.0978  -19.5048  -16.3045 C   0  0  0  0  0  0  0  0  0  0  0  0
   22.7317  -19.4050  -15.7806 C   0  0  0  0  0  0  0  0  0  0  0  0
   21.7177  -20.3542  -16.2046 C   0  0  0  0  0  0  0  0  0  0  0  0
   21.5945  -20.6050  -17.4766 O   0  0  0  0  0  0  0  0  0  0  0  0
   25.0329  -20.4120  -14.2184 C   0  0  0  0  0  0  0  0  0  0  0  0
   25.8321  -21.3956  -14.0330 O   0  0  0  0  0  0  0  0  0  0  0  0
   20.8405  -21.0481  -15.4282 O   0  0  0  0  0  0  0  0  0  0  0  0
   23.9713  -20.2627  -13.2780 N   0  0  0  0  0  0  0  0  0  0  0  0
   24.1016  -20.6814  -11.8841 C   0  0  1  0  0  0  0  0  0  0  0  0
   25.3946  -20.2506  -11.2965 C   0  0  0  0  0  0  0  0  0  0  0  0
   25.5744  -20.4859   -9.8566 C   0  0  0  0  0  0  0  0  0  0  0  0
   24.9280  -21.4866   -9.1207 C   0  0  0  0  0  0  0  0  0  0  0  0
   25.3691  -21.4204   -7.8708 N   0  0  0  0  0  0  0  0  0  0  0  0
   26.2779  -20.4261   -7.7292 C   0  0  0  0  0  0  0  0  0  0  0  0
   27.0022  -19.9620   -6.6516 C   0  0  0  0  0  0  0  0  0  0  0  0
   27.8830  -18.8947   -6.7664 C   0  0  0  0  0  0  0  0  0  0  0  0
   28.0108  -18.3065   -8.0094 C   0  0  0  0  0  0  0  0  0  0  0  0
   27.2860  -18.7739   -9.0801 C   0  0  0  0  0  0  0  0  0  0  0  0
   26.4055  -19.8411   -8.9719 C   0  0  0  0  0  0  0  0  0  0  0  0
   22.8713  -20.3056  -11.1808 C   0  0  0  0  0  0  0  0  0  0  0  0
   22.1935  -21.2738  -10.4508 O   0  0  0  0  0  0  0  0  0  0  0  0
   22.3536  -19.1572  -11.1730 O   0  0  0  0  0  0  0  0  0  0  0  0
  2  1  1  0
  2  3  2  0
  4  2  1  0
  5  4  1  0
  5  6  1  0
  6  7  1  6
  8  6  1  0
  8  9  2  0
 10  8  1  0
 11 10  1  0
 11 12  1  6
 13 12  1  0
 13 14  1  0
 14 15  2  0
 16 11  1  0
 17 16  2  0
 18 14  1  0
 19 16  1  0
 20 21  1  1
 20 19  1  0
 21 22  1  0
 22 30  1  0
 23 22  2  0
 23 24  1  0
 24 25  1  0
 25 26  1  0
 26 27  2  0
 28 27  1  0
 29 28  2  0
 30 25  2  0
 30 29  1  0
 31 20  1  0
 32 31  1  0
 33 31  2  0
M  END
$$$$
