QEW.pdb
     RDKit          3D

 33 34  0  0  1  0  0  0  0  0999 V2000
   30.6078  -27.9163  -14.6407 N   0  0  0  0  0  0  0  0  0  0  0  0
   31.4298  -27.2773  -15.6168 C   0  0  0  0  0  0  0  0  0  0  0  0
   32.6508  -27.6551  -15.6517 O   0  0  0  0  0  0  0  0  0  0  0  0
   30.9218  -26.2375  -16.5441 C   0  0  0  0  0  0  0  0  0  0  0  0
   29.5284  -25.8587  -16.0918 C   0  0  0  0  0  0  0  0  0  0  0  0
   28.4875  -26.8026  -16.6539 C   0  0  2  0  0  0  0  0  0  0  0  0
   29.2026  -27.9403  -17.1950 N   0  0  0  0  0  0  0  0  0  0  0  0
   27.7593  -26.0591  -17.7254 C   0  0  0  0  0  0  0  0  0  0  0  0
   27.1141  -25.0159  -17.4554 O   0  0  0  0  0  0  0  0  0  0  0  0
   27.7607  -26.4898  -19.0800 N   0  0  0  0  0  0  0  0  0  0  0  0
   26.9688  -25.9243  -20.1364 C   0  0  1  0  0  0  0  0  0  0  0  0
   27.7264  -25.6908  -21.3954 C   0  0  0  0  0  0  0  0  0  0  0  0
   28.9131  -24.8294  -21.3758 C   0  0  0  0  0  0  0  0  0  0  0  0
   29.0456  -23.7497  -22.3379 C   0  0  0  0  0  0  0  0  0  0  0  0
   29.2109  -24.0533  -23.5935 O   0  0  0  0  0  0  0  0  0  0  0  0
   25.6547  -26.5263  -20.3664 C   0  0  0  0  0  0  0  0  0  0  0  0
   25.4961  -27.7814  -20.1667 O   0  0  0  0  0  0  0  0  0  0  0  0
   29.0208  -22.4088  -22.1036 O   0  0  0  0  0  0  0  0  0  0  0  0
   24.5116  -25.7985  -20.8108 N   0  0  0  0  0  0  0  0  0  0  0  0
   23.1871  -25.9970  -20.2264 C   0  0  1  0  0  0  0  0  0  0  0  0
   23.2183  -25.9109  -18.7450 C   0  0  0  0  0  0  0  0  0  0  0  0
   21.9333  -26.0696  -18.0490 C   0  0  0  0  0  0  0  0  0  0  0  0
   21.5305  -27.2211  -17.3615 C   0  0  0  0  0  0  0  0  0  0  0  0
   20.3388  -26.9801  -16.8294 N   0  0  0  0  0  0  0  0  0  0  0  0
   19.9202  -25.7263  -17.1248 C   0  0  0  0  0  0  0  0  0  0  0  0
   18.7756  -25.0215  -16.8180 C   0  0  0  0  0  0  0  0  0  0  0  0
   18.5760  -23.7205  -17.2605 C   0  0  0  0  0  0  0  0  0  0  0  0
   19.5731  -23.1495  -18.0269 C   0  0  0  0  0  0  0  0  0  0  0  0
   20.7122  -23.8574  -18.3294 C   0  0  0  0  0  0  0  0  0  0  0  0
   20.9180  -25.1572  -17.8887 C   0  0  0  0  0  0  0  0  0  0  0  0
   22.2418  -25.1347  -20.9422 C   0  0  0  0  0  0  0  0  0  0  0  0
   22.7030  -23.9458  -21.4930 O   0  0  0  0  0  0  0  0  0  0  0  0
   21.0166  -25.3735  -21.1120 O   0  0  0  0  0  0  0  0  0  0  0  0
  2  1  1  0
  2  3  2  0
  4  2  1  0
  5  4  1  0
  5  6  1  0
  6  7  1  6
  8  6  1  0
  8  9  2  0
 10  8  1  0
 11 10  1  0
 11 12  1  6
 13 12  1  0
 13 14  1  0
 14 15  2  0
 16 11  1  0
 17 16  2  0
 18 14  1  0
 19 16  1  0
 20 21  1  1
 20 19  1  0
 21 22  1  0
 22 30  1  0
 23 22  2  0
 23 24  1  0
 24 25  1  0
 25 26  1  0
 26 27  2  0
 28 27  1  0
 29 28  2  0
 30 25  2  0
 30 29  1  0
 31 20  1  0
 32 31  1  0
 33 31  2  0
M  END
$$$$
