QEW.pdb
     RDKit          3D

 33 34  0  0  1  0  0  0  0  0999 V2000
   12.7830  -13.7515    5.0122 N   0  0  0  0  0  0  0  0  0  0  0  0
   12.1317  -14.5002    3.9865 C   0  0  0  0  0  0  0  0  0  0  0  0
   11.5826  -13.8140    3.0579 O   0  0  0  0  0  0  0  0  0  0  0  0
   12.0822  -15.9823    3.9767 C   0  0  0  0  0  0  0  0  0  0  0  0
   13.0570  -16.4823    5.0205 C   0  0  0  0  0  0  0  0  0  0  0  0
   13.0151  -17.9903    5.1408 C   0  0  2  0  0  0  0  0  0  0  0  0
   11.7509  -18.3257    5.7635 N   0  0  0  0  0  0  0  0  0  0  0  0
   14.1679  -18.3902    6.0022 C   0  0  0  0  0  0  0  0  0  0  0  0
   14.3018  -17.9111    7.1555 O   0  0  0  0  0  0  0  0  0  0  0  0
   15.1535  -19.3166    5.5653 N   0  0  0  0  0  0  0  0  0  0  0  0
   16.3253  -19.6985    6.3028 C   0  0  1  0  0  0  0  0  0  0  0  0
   16.7630  -21.0982    6.0517 C   0  0  0  0  0  0  0  0  0  0  0  0
   17.9171  -21.6362    6.7791 C   0  0  0  0  0  0  0  0  0  0  0  0
   18.3822  -22.9857    6.5116 C   0  0  0  0  0  0  0  0  0  0  0  0
   19.3809  -23.4481    7.2079 O   0  0  0  0  0  0  0  0  0  0  0  0
   17.4372  -18.7468    6.3077 C   0  0  0  0  0  0  0  0  0  0  0  0
   17.9725  -18.4019    5.1964 O   0  0  0  0  0  0  0  0  0  0  0  0
   17.9024  -23.8732    5.5974 O   0  0  0  0  0  0  0  0  0  0  0  0
   17.9826  -18.1646    7.4898 N   0  0  0  0  0  0  0  0  0  0  0  0
   19.1100  -17.2358    7.4511 C   0  0  1  0  0  0  0  0  0  0  0  0
   18.7162  -15.8709    7.8810 C   0  0  0  0  0  0  0  0  0  0  0  0
   18.4824  -14.8866    6.8145 C   0  0  0  0  0  0  0  0  0  0  0  0
   17.3627  -14.8657    5.9739 C   0  0  0  0  0  0  0  0  0  0  0  0
   17.4776  -13.8155    5.1707 N   0  0  0  0  0  0  0  0  0  0  0  0
   18.6173  -13.1304    5.4281 C   0  0  0  0  0  0  0  0  0  0  0  0
   19.1792  -11.9998    4.8738 C   0  0  0  0  0  0  0  0  0  0  0  0
   20.3919  -11.4910    5.3194 C   0  0  0  0  0  0  0  0  0  0  0  0
   21.0239  -12.1625    6.3476 C   0  0  0  0  0  0  0  0  0  0  0  0
   20.4585  -13.2892    6.8964 C   0  0  0  0  0  0  0  0  0  0  0  0
   19.2461  -13.8015    6.4563 C   0  0  0  0  0  0  0  0  0  0  0  0
   20.2424  -17.8684    8.1345 C   0  0  0  0  0  0  0  0  0  0  0  0
   20.0592  -19.1118    8.7262 O   0  0  0  0  0  0  0  0  0  0  0  0
   21.3992  -17.3810    8.2403 O   0  0  0  0  0  0  0  0  0  0  0  0
  2  1  1  0
  2  3  2  0
  4  2  1  0
  5  4  1  0
  5  6  1  0
  6  7  1  1
  8  6  1  0
  8  9  2  0
 10  8  1  0
 11 10  1  0
 11 12  1  6
 13 12  1  0
 13 14  1  0
 14 15  2  0
 16 11  1  0
 17 16  2  0
 18 14  1  0
 19 16  1  0
 20 21  1  1
 20 19  1  0
 21 22  1  0
 22 30  1  0
 23 22  2  0
 23 24  1  0
 24 25  1  0
 25 26  1  0
 26 27  2  0
 28 27  1  0
 29 28  2  0
 30 25  2  0
 30 29  1  0
 31 20  1  0
 32 31  1  0
 33 31  2  0
M  END
$$$$
