QEW.pdb
     RDKit          3D

 33 34  0  0  1  0  0  0  0  0999 V2000
   29.8035  -15.8352  -16.6337 N   0  0  0  0  0  0  0  0  0  0  0  0
   29.3127  -16.7105  -17.6485 C   0  0  0  0  0  0  0  0  0  0  0  0
   29.4202  -16.2872  -18.8502 O   0  0  0  0  0  0  0  0  0  0  0  0
   28.7117  -18.0334  -17.3521 C   0  0  0  0  0  0  0  0  0  0  0  0
   28.7873  -18.2483  -15.8561 C   0  0  0  0  0  0  0  0  0  0  0  0
   28.2275  -19.5978  -15.4611 C   0  0  2  0  0  0  0  0  0  0  0  0
   27.6109  -20.1584  -16.6461 N   0  0  0  0  0  0  0  0  0  0  0  0
   27.2181  -19.3528  -14.3878 C   0  0  0  0  0  0  0  0  0  0  0  0
   27.0864  -18.2110  -13.8813 O   0  0  0  0  0  0  0  0  0  0  0  0
   26.3722  -20.3834  -13.8951 N   0  0  0  0  0  0  0  0  0  0  0  0
   25.3726  -20.2268  -12.8757 C   0  0  1  0  0  0  0  0  0  0  0  0
   23.9867  -20.4908  -13.3483 C   0  0  0  0  0  0  0  0  0  0  0  0
   23.4426  -19.7106  -14.4644 C   0  0  0  0  0  0  0  0  0  0  0  0
   22.0617  -19.8925  -14.8756 C   0  0  0  0  0  0  0  0  0  0  0  0
   21.6246  -21.1045  -15.0654 O   0  0  0  0  0  0  0  0  0  0  0  0
   25.6573  -20.8390  -11.5772 C   0  0  0  0  0  0  0  0  0  0  0  0
   26.0017  -22.0716  -11.5269 O   0  0  0  0  0  0  0  0  0  0  0  0
   21.1198  -18.9355  -15.1006 O   0  0  0  0  0  0  0  0  0  0  0  0
   25.5735  -20.1458  -10.3338 N   0  0  0  0  0  0  0  0  0  0  0  0
   25.9145  -20.7822   -9.0634 C   0  0  1  0  0  0  0  0  0  0  0  0
   27.0221  -20.0768   -8.3718 C   0  0  0  0  0  0  0  0  0  0  0  0
   27.2943  -20.4791   -6.9844 C   0  0  0  0  0  0  0  0  0  0  0  0
   26.9439  -21.7135   -6.4239 C   0  0  0  0  0  0  0  0  0  0  0  0
   27.3869  -21.7318   -5.1730 N   0  0  0  0  0  0  0  0  0  0  0  0
   28.0160  -20.5728   -4.8643 C   0  0  0  0  0  0  0  0  0  0  0  0
   28.6269  -20.1123   -3.7172 C   0  0  0  0  0  0  0  0  0  0  0  0
   29.2035  -18.8508   -3.6504 C   0  0  0  0  0  0  0  0  0  0  0  0
   29.1440  -18.0638   -4.7838 C   0  0  0  0  0  0  0  0  0  0  0  0
   28.5338  -18.5286   -5.9247 C   0  0  0  0  0  0  0  0  0  0  0  0
   27.9571  -19.7889   -5.9978 C   0  0  0  0  0  0  0  0  0  0  0  0
   24.6712  -21.0009   -8.3177 C   0  0  0  0  0  0  0  0  0  0  0  0
   24.6938  -21.8321   -7.2049 O   0  0  0  0  0  0  0  0  0  0  0  0
   23.5518  -20.4939   -8.5951 O   0  0  0  0  0  0  0  0  0  0  0  0
  2  1  1  0
  2  3  2  0
  4  2  1  0
  5  4  1  0
  5  6  1  0
  6  7  1  6
  8  6  1  0
  8  9  2  0
 10  8  1  0
 11 10  1  0
 11 12  1  6
 13 12  1  0
 13 14  1  0
 14 15  2  0
 16 11  1  0
 17 16  2  0
 18 14  1  0
 19 16  1  0
 20 21  1  1
 20 19  1  0
 21 22  1  0
 22 30  1  0
 23 22  2  0
 23 24  1  0
 24 25  1  0
 25 26  1  0
 26 27  2  0
 28 27  1  0
 29 28  2  0
 30 25  2  0
 30 29  1  0
 31 20  1  0
 32 31  1  0
 33 31  2  0
M  END
$$$$
