QEW.pdb
     RDKit          3D

 33 34  0  0  1  0  0  0  0  0999 V2000
   17.1537  -22.5309    3.6374 N   0  0  0  0  0  0  0  0  0  0  0  0
   16.2454  -22.5978    2.5387 C   0  0  0  0  0  0  0  0  0  0  0  0
   16.3054  -23.6597    1.8290 O   0  0  0  0  0  0  0  0  0  0  0  0
   15.2825  -21.5158    2.2203 C   0  0  0  0  0  0  0  0  0  0  0  0
   15.4730  -20.4152    3.2411 C   0  0  0  0  0  0  0  0  0  0  0  0
   14.6527  -20.6675    4.4876 C   0  0  2  0  0  0  0  0  0  0  0  0
   13.2997  -20.2427    4.1916 N   0  0  0  0  0  0  0  0  0  0  0  0
   15.2542  -19.8433    5.5785 C   0  0  0  0  0  0  0  0  0  0  0  0
   14.7888  -18.7101    5.8555 O   0  0  0  0  0  0  0  0  0  0  0  0
   16.3648  -20.2940    6.3427 N   0  0  0  0  0  0  0  0  0  0  0  0
   16.9889  -19.5704    7.4149 C   0  0  1  0  0  0  0  0  0  0  0  0
   17.5382  -20.4426    8.4879 C   0  0  0  0  0  0  0  0  0  0  0  0
   18.2002  -19.8339    9.6462 C   0  0  0  0  0  0  0  0  0  0  0  0
   18.6804  -20.6691   10.7329 C   0  0  0  0  0  0  0  0  0  0  0  0
   18.4768  -21.9537   10.6659 O   0  0  0  0  0  0  0  0  0  0  0  0
   17.9022  -18.4918    7.0350 C   0  0  0  0  0  0  0  0  0  0  0  0
   18.8446  -18.7322    6.2016 O   0  0  0  0  0  0  0  0  0  0  0  0
   19.3406  -20.2834   11.8594 O   0  0  0  0  0  0  0  0  0  0  0  0
   17.8182  -17.1611    7.5410 N   0  0  0  0  0  0  0  0  0  0  0  0
   18.8321  -16.1509    7.2463 C   0  0  1  0  0  0  0  0  0  0  0  0
   18.3093  -14.7739    7.4286 C   0  0  0  0  0  0  0  0  0  0  0  0
   19.1744  -13.6757    6.9745 C   0  0  0  0  0  0  0  0  0  0  0  0
   18.9307  -12.8743    5.8523 C   0  0  0  0  0  0  0  0  0  0  0  0
   19.8977  -11.9680    5.7830 N   0  0  0  0  0  0  0  0  0  0  0  0
   20.7788  -12.1200    6.8003 C   0  0  0  0  0  0  0  0  0  0  0  0
   21.9298  -11.4484    7.1544 C   0  0  0  0  0  0  0  0  0  0  0  0
   22.6792  -11.8146    8.2646 C   0  0  0  0  0  0  0  0  0  0  0  0
   22.2287  -12.8860    9.0106 C   0  0  0  0  0  0  0  0  0  0  0  0
   21.0802  -13.5516    8.6526 C   0  0  0  0  0  0  0  0  0  0  0  0
   20.3262  -13.1892    7.5452 C   0  0  0  0  0  0  0  0  0  0  0  0
   20.0586  -16.5175    7.9611 C   0  0  0  0  0  0  0  0  0  0  0  0
   19.9849  -16.7983    9.3195 O   0  0  0  0  0  0  0  0  0  0  0  0
   21.2062  -16.6057    7.4491 O   0  0  0  0  0  0  0  0  0  0  0  0
  2  1  1  0
  2  3  2  0
  4  2  1  0
  5  4  1  0
  5  6  1  0
  6  7  1  6
  8  6  1  0
  8  9  2  0
 10  8  1  0
 11 10  1  0
 11 12  1  6
 13 12  1  0
 13 14  1  0
 14 15  2  0
 16 11  1  0
 17 16  2  0
 18 14  1  0
 19 16  1  0
 20 21  1  1
 20 19  1  0
 21 22  1  0
 22 30  1  0
 23 22  2  0
 23 24  1  0
 24 25  1  0
 25 26  1  0
 26 27  2  0
 28 27  1  0
 29 28  2  0
 30 25  2  0
 30 29  1  0
 31 20  1  0
 32 31  1  0
 33 31  2  0
M  END
$$$$
