QEW.pdb
     RDKit          3D

 33 34  0  0  1  0  0  0  0  0999 V2000
   29.2647  -26.6993  -16.0884 N   0  0  0  0  0  0  0  0  0  0  0  0
   29.0088  -25.6690  -17.0423 C   0  0  0  0  0  0  0  0  0  0  0  0
   28.0093  -25.8609  -17.8163 O   0  0  0  0  0  0  0  0  0  0  0  0
   29.8365  -24.4431  -17.1479 C   0  0  0  0  0  0  0  0  0  0  0  0
   29.1094  -23.3329  -16.4209 C   0  0  0  0  0  0  0  0  0  0  0  0
   27.9325  -22.8224  -17.2238 C   0  0  2  0  0  0  0  0  0  0  0  0
   28.4722  -21.9626  -18.2573 N   0  0  0  0  0  0  0  0  0  0  0  0
   27.0617  -22.0580  -16.2814 C   0  0  0  0  0  0  0  0  0  0  0  0
   27.5037  -21.0503  -15.6756 O   0  0  0  0  0  0  0  0  0  0  0  0
   25.7129  -22.4283  -16.0280 N   0  0  0  0  0  0  0  0  0  0  0  0
   24.7843  -21.6939  -15.2148 C   0  0  1  0  0  0  0  0  0  0  0  0
   23.3620  -21.8814  -15.6094 C   0  0  0  0  0  0  0  0  0  0  0  0
   22.6966  -20.8586  -16.4227 C   0  0  0  0  0  0  0  0  0  0  0  0
   21.6975  -21.2441  -17.4036 C   0  0  0  0  0  0  0  0  0  0  0  0
   22.0947  -21.5662  -18.6013 O   0  0  0  0  0  0  0  0  0  0  0  0
   24.9863  -21.7577  -13.7667 C   0  0  0  0  0  0  0  0  0  0  0  0
   25.2737  -22.8809  -13.2224 O   0  0  0  0  0  0  0  0  0  0  0  0
   20.3477  -21.3194  -17.2420 O   0  0  0  0  0  0  0  0  0  0  0  0
   24.8802  -20.6326  -12.8970 N   0  0  0  0  0  0  0  0  0  0  0  0
   24.9510  -20.7632  -11.4433 C   0  0  1  0  0  0  0  0  0  0  0  0
   26.0189  -19.9111  -10.8634 C   0  0  0  0  0  0  0  0  0  0  0  0
   27.3920  -20.4294  -10.9454 C   0  0  0  0  0  0  0  0  0  0  0  0
   28.0891  -20.6689  -12.1360 C   0  0  0  0  0  0  0  0  0  0  0  0
   29.3064  -21.0897  -11.8161 N   0  0  0  0  0  0  0  0  0  0  0  0
   29.4625  -21.1460  -10.4719 C   0  0  0  0  0  0  0  0  0  0  0  0
   30.5152  -21.5188   -9.6633 C   0  0  0  0  0  0  0  0  0  0  0  0
   30.4180  -21.4978   -8.2782 C   0  0  0  0  0  0  0  0  0  0  0  0
   29.2183  -21.0867   -7.7313 C   0  0  0  0  0  0  0  0  0  0  0  0
   28.1722  -20.7160   -8.5427 C   0  0  0  0  0  0  0  0  0  0  0  0
   28.2640  -20.7335   -9.9274 C   0  0  0  0  0  0  0  0  0  0  0  0
   23.5936  -20.6181  -10.9083 C   0  0  0  0  0  0  0  0  0  0  0  0
   23.3857  -20.8025   -9.5473 O   0  0  0  0  0  0  0  0  0  0  0  0
   22.5675  -20.3339  -11.5816 O   0  0  0  0  0  0  0  0  0  0  0  0
  2  1  1  0
  2  3  2  0
  4  2  1  0
  5  4  1  0
  5  6  1  0
  6  7  1  6
  8  6  1  0
  8  9  2  0
 10  8  1  0
 11 10  1  0
 11 12  1  1
 13 12  1  0
 13 14  1  0
 14 15  2  0
 16 11  1  0
 17 16  2  0
 18 14  1  0
 19 16  1  0
 20 21  1  1
 20 19  1  0
 21 22  1  0
 22 30  1  0
 23 22  2  0
 23 24  1  0
 24 25  1  0
 25 26  1  0
 26 27  2  0
 28 27  1  0
 29 28  2  0
 30 25  2  0
 30 29  1  0
 31 20  1  0
 32 31  1  0
 33 31  2  0
M  END
$$$$
