QEW.pdb
     RDKit          3D

 33 34  0  0  1  0  0  0  0  0999 V2000
   30.4845  -21.2672  -19.5468 N   0  0  0  0  0  0  0  0  0  0  0  0
   31.3916  -21.9811  -18.7076 C   0  0  0  0  0  0  0  0  0  0  0  0
   32.6342  -21.7675  -18.9201 O   0  0  0  0  0  0  0  0  0  0  0  0
   30.9445  -22.9175  -17.6482 C   0  0  0  0  0  0  0  0  0  0  0  0
   29.4393  -22.8055  -17.5403 C   0  0  0  0  0  0  0  0  0  0  0  0
   28.7921  -24.1649  -17.3864 C   0  0  2  0  0  0  0  0  0  0  0  0
   29.0545  -24.8945  -18.6101 N   0  0  0  0  0  0  0  0  0  0  0  0
   27.3291  -23.9311  -17.1966 C   0  0  0  0  0  0  0  0  0  0  0  0
   26.6709  -23.2740  -18.0407 O   0  0  0  0  0  0  0  0  0  0  0  0
   26.6227  -24.4322  -16.0695 N   0  0  0  0  0  0  0  0  0  0  0  0
   25.2273  -24.2255  -15.7995 C   0  0  1  0  0  0  0  0  0  0  0  0
   24.4175  -25.4732  -15.8362 C   0  0  0  0  0  0  0  0  0  0  0  0
   24.1836  -26.1457  -17.1182 C   0  0  0  0  0  0  0  0  0  0  0  0
   23.2676  -25.5695  -18.0866 C   0  0  0  0  0  0  0  0  0  0  0  0
   22.1510  -25.0555  -17.6563 O   0  0  0  0  0  0  0  0  0  0  0  0
   24.8989  -23.3674  -14.6603 C   0  0  0  0  0  0  0  0  0  0  0  0
   25.6985  -23.3182  -13.6610 O   0  0  0  0  0  0  0  0  0  0  0  0
   23.4165  -25.4871  -19.4374 O   0  0  0  0  0  0  0  0  0  0  0  0
   23.7224  -22.5654  -14.5799 N   0  0  0  0  0  0  0  0  0  0  0  0
   23.5076  -21.6050  -13.4997 C   0  0  1  0  0  0  0  0  0  0  0  0
   24.6520  -20.6710  -13.3552 C   0  0  0  0  0  0  0  0  0  0  0  0
   24.8423  -19.6909  -14.4341 C   0  0  0  0  0  0  0  0  0  0  0  0
   23.8400  -18.8586  -14.9475 C   0  0  0  0  0  0  0  0  0  0  0  0
   24.3905  -18.0841  -15.8740 N   0  0  0  0  0  0  0  0  0  0  0  0
   25.7108  -18.3540  -16.0099 C   0  0  0  0  0  0  0  0  0  0  0  0
   26.6959  -17.8383  -16.8251 C   0  0  0  0  0  0  0  0  0  0  0  0
   28.0032  -18.3041  -16.7786 C   0  0  0  0  0  0  0  0  0  0  0  0
   28.2872  -19.3126  -15.8788 C   0  0  0  0  0  0  0  0  0  0  0  0
   27.3007  -19.8227  -15.0683 C   0  0  0  0  0  0  0  0  0  0  0  0
   25.9929  -19.3601  -15.1092 C   0  0  0  0  0  0  0  0  0  0  0  0
   22.1700  -21.0279  -13.6654 C   0  0  0  0  0  0  0  0  0  0  0  0
   21.6442  -20.2489  -12.6425 O   0  0  0  0  0  0  0  0  0  0  0  0
   21.4293  -21.1732  -14.6739 O   0  0  0  0  0  0  0  0  0  0  0  0
  2  1  1  0
  2  3  2  0
  4  2  1  0
  5  4  1  0
  5  6  1  0
  6  7  1  6
  8  6  1  0
  8  9  2  0
 10  8  1  0
 11 10  1  0
 11 12  1  1
 13 12  1  0
 13 14  1  0
 14 15  2  0
 16 11  1  0
 17 16  2  0
 18 14  1  0
 19 16  1  0
 20 21  1  6
 20 19  1  0
 21 22  1  0
 22 30  1  0
 23 22  2  0
 23 24  1  0
 24 25  1  0
 25 26  1  0
 26 27  2  0
 28 27  1  0
 29 28  2  0
 30 25  2  0
 30 29  1  0
 31 20  1  0
 32 31  1  0
 33 31  2  0
M  END
$$$$
