QEW.pdb
     RDKit          3D

 33 34  0  0  1  0  0  0  0  0999 V2000
   17.7829  -17.5372    3.6714 N   0  0  0  0  0  0  0  0  0  0  0  0
   17.0904  -18.4357    2.8055 C   0  0  0  0  0  0  0  0  0  0  0  0
   17.8252  -19.2091    2.1007 O   0  0  0  0  0  0  0  0  0  0  0  0
   15.6113  -18.4878    2.7120 C   0  0  0  0  0  0  0  0  0  0  0  0
   15.0581  -17.3377    3.5250 C   0  0  0  0  0  0  0  0  0  0  0  0
   14.2079  -17.8309    4.6758 C   0  0  2  0  0  0  0  0  0  0  0  0
   13.1419  -16.8661    4.8524 N   0  0  0  0  0  0  0  0  0  0  0  0
   15.0932  -17.8882    5.8774 C   0  0  0  0  0  0  0  0  0  0  0  0
   15.1249  -16.9354    6.6952 O   0  0  0  0  0  0  0  0  0  0  0  0
   15.9295  -19.0051    6.1486 N   0  0  0  0  0  0  0  0  0  0  0  0
   16.8415  -19.1163    7.2526 C   0  0  1  0  0  0  0  0  0  0  0  0
   17.1043  -20.5185    7.6752 C   0  0  0  0  0  0  0  0  0  0  0  0
   17.8965  -20.7732    8.8827 C   0  0  0  0  0  0  0  0  0  0  0  0
   18.1532  -22.1368    9.3113 C   0  0  0  0  0  0  0  0  0  0  0  0
   17.7873  -23.1128    8.5305 O   0  0  0  0  0  0  0  0  0  0  0  0
   18.0579  -18.3053    7.1838 C   0  0  0  0  0  0  0  0  0  0  0  0
   18.7884  -18.3582    6.1331 O   0  0  0  0  0  0  0  0  0  0  0  0
   18.7468  -22.5573   10.4622 O   0  0  0  0  0  0  0  0  0  0  0  0
   18.5004  -17.4423    8.2293 N   0  0  0  0  0  0  0  0  0  0  0  0
   19.7466  -16.6848    8.1381 C   0  0  1  0  0  0  0  0  0  0  0  0
   19.5613  -15.2665    8.5342 C   0  0  0  0  0  0  0  0  0  0  0  0
   19.3325  -14.3038    7.4471 C   0  0  0  0  0  0  0  0  0  0  0  0
   18.1305  -14.1594    6.7435 C   0  0  0  0  0  0  0  0  0  0  0  0
   18.2861  -13.1700    5.8727 N   0  0  0  0  0  0  0  0  0  0  0  0
   19.5311  -12.6430    5.9548 C   0  0  0  0  0  0  0  0  0  0  0  0
   20.1679  -11.6271    5.2739 C   0  0  0  0  0  0  0  0  0  0  0  0
   21.4841  -11.2770    5.5443 C   0  0  0  0  0  0  0  0  0  0  0  0
   22.1419  -11.9882    6.5287 C   0  0  0  0  0  0  0  0  0  0  0  0
   21.5015  -13.0000    7.2043 C   0  0  0  0  0  0  0  0  0  0  0  0
   20.1858  -13.3533    6.9396 C   0  0  0  0  0  0  0  0  0  0  0  0
   20.7951  -17.4532    8.8161 C   0  0  0  0  0  0  0  0  0  0  0  0
   22.1246  -17.1812    8.5191 O   0  0  0  0  0  0  0  0  0  0  0  0
   20.6030  -18.3623    9.6668 O   0  0  0  0  0  0  0  0  0  0  0  0
  2  1  1  0
  2  3  2  0
  4  2  1  0
  5  4  1  0
  5  6  1  0
  6  7  1  1
  8  6  1  0
  8  9  2  0
 10  8  1  0
 11 10  1  0
 11 12  1  6
 13 12  1  0
 13 14  1  0
 14 15  2  0
 16 11  1  0
 17 16  2  0
 18 14  1  0
 19 16  1  0
 20 21  1  1
 20 19  1  0
 21 22  1  0
 22 30  1  0
 23 22  2  0
 23 24  1  0
 24 25  1  0
 25 26  1  0
 26 27  2  0
 28 27  1  0
 29 28  2  0
 30 25  2  0
 30 29  1  0
 31 20  1  0
 32 31  1  0
 33 31  2  0
M  END
$$$$
