KGC.pdb
     RDKit          3D

 20 19  0  0  1  0  0  0  0  0999 V2000
   15.2533  -14.0010  -13.2506 N   0  0  0  0  0  0  0  0  0  0  0  0
   14.5946  -12.8721  -12.6744 C   0  0  1  0  0  0  0  0  0  0  0  0
   13.8079  -13.1445  -11.4397 C   0  0  0  0  0  0  0  0  0  0  0  0
   12.7283  -14.1562  -11.5452 C   0  0  0  0  0  0  0  0  0  0  0  0
   11.7807  -14.2508  -10.4005 C   0  0  0  0  0  0  0  0  0  0  0  0
   10.8074  -15.3902  -10.7363 C   0  0  0  0  0  0  0  0  0  0  0  0
    9.8287  -15.5402   -9.6653 N   0  0  0  0  0  0  0  0  0  0  0  0
   15.6197  -11.8331  -12.3468 C   0  0  0  0  0  0  0  0  0  0  0  0
   16.8264  -12.1045  -12.4983 O   0  0  0  0  0  0  0  0  0  0  0  0
   15.2532  -10.5302  -11.8627 N   0  0  0  0  0  0  0  0  0  0  0  0
   16.1641   -9.4486  -11.7088 C   0  0  0  0  0  0  0  0  0  0  0  0
   15.5524   -8.2158  -11.1713 C   0  0  0  0  0  0  0  0  0  0  0  0
   14.3509   -8.1844  -10.7728 O   0  0  0  0  0  0  0  0  0  0  0  0
   16.2689   -7.0199  -11.0712 N   0  0  0  0  0  0  0  0  0  0  0  0
   15.7507   -5.8218  -10.4289 C   0  0  1  0  0  0  0  0  0  0  0  0
   15.6871   -6.1513   -8.9323 C   0  0  0  0  0  0  0  0  0  0  0  0
   17.1800   -7.0053   -8.3959 S   0  0  0  0  0  0  0  0  0  0  0  0
   16.5627   -4.6406  -10.6796 C   0  0  0  0  0  0  0  0  0  0  0  0
   17.7274   -4.7460  -11.4049 O   0  0  0  0  0  0  0  0  0  0  0  0
   16.2138   -3.5272  -10.2424 O   0  0  0  0  0  0  0  0  0  0  0  0
  2  1  1  1
  3  2  1  0
  4  3  1  0
  5  4  1  0
  6  5  1  0
  7  6  1  0
  8  9  2  0
  8  2  1  0
 10  8  1  0
 11 12  1  0
 11 10  1  0
 12 14  1  0
 13 12  2  0
 14 15  1  0
 15 18  1  0
 15 16  1  1
 16 17  1  0
 18 20  2  0
 18 19  1  0
M  END
$$$$
