KGC.pdb
     RDKit          3D

 20 19  0  0  1  0  0  0  0  0999 V2000
   17.2608  -13.1275  -15.2388 N   0  0  0  0  0  0  0  0  0  0  0  0
   18.4997  -12.6780  -15.7895 C   0  0  1  0  0  0  0  0  0  0  0  0
   18.9210  -13.3392  -17.0556 C   0  0  0  0  0  0  0  0  0  0  0  0
   18.2863  -14.6418  -17.3723 C   0  0  0  0  0  0  0  0  0  0  0  0
   18.6513  -15.2699  -18.6721 C   0  0  0  0  0  0  0  0  0  0  0  0
   17.8080  -16.5479  -18.7881 C   0  0  0  0  0  0  0  0  0  0  0  0
   18.1759  -17.2787  -19.9957 N   0  0  0  0  0  0  0  0  0  0  0  0
   18.4056  -11.2076  -16.0476 C   0  0  0  0  0  0  0  0  0  0  0  0
   17.3816  -10.7532  -16.5932 O   0  0  0  0  0  0  0  0  0  0  0  0
   19.4622  -10.3032  -15.6842 N   0  0  0  0  0  0  0  0  0  0  0  0
   19.4201   -8.8974  -15.8968 C   0  0  0  0  0  0  0  0  0  0  0  0
   20.5206   -8.1554  -15.2478 C   0  0  0  0  0  0  0  0  0  0  0  0
   21.3522   -8.7268  -14.4825 O   0  0  0  0  0  0  0  0  0  0  0  0
   20.7041   -6.7842  -15.4471 N   0  0  0  0  0  0  0  0  0  0  0  0
   21.7212   -5.9999  -14.7639 C   0  0  1  0  0  0  0  0  0  0  0  0
   21.7905   -4.6671  -15.5196 C   0  0  0  0  0  0  0  0  0  0  0  0
   22.8912   -3.5096  -14.6862 S   0  0  0  0  0  0  0  0  0  0  0  0
   21.4352   -5.7965  -13.3517 C   0  0  0  0  0  0  0  0  0  0  0  0
   22.4441   -5.9023  -12.4219 O   0  0  0  0  0  0  0  0  0  0  0  0
   20.2798   -5.5258  -12.9716 O   0  0  0  0  0  0  0  0  0  0  0  0
  2  1  1  6
  3  2  1  0
  4  3  1  0
  5  4  1  0
  6  5  1  0
  7  6  1  0
  8  9  2  0
  8  2  1  0
 10  8  1  0
 11 12  1  0
 11 10  1  0
 12 14  1  0
 13 12  2  0
 14 15  1  0
 15 18  1  0
 15 16  1  6
 16 17  1  0
 18 20  2  0
 18 19  1  0
M  END
$$$$
