KGC.pdb
     RDKit          3D

 20 19  0  0  1  0  0  0  0  0999 V2000
   20.3319  -27.0889  -10.8466 N   0  0  0  0  0  0  0  0  0  0  0  0
   19.2235  -27.0116  -11.7443 C   0  0  1  0  0  0  0  0  0  0  0  0
   19.1654  -28.0695  -12.7907 C   0  0  0  0  0  0  0  0  0  0  0  0
   20.2949  -28.1225  -13.7505 C   0  0  0  0  0  0  0  0  0  0  0  0
   20.6404  -26.8563  -14.4539 C   0  0  0  0  0  0  0  0  0  0  0  0
   21.7448  -27.2073  -15.4614 C   0  0  0  0  0  0  0  0  0  0  0  0
   22.1566  -26.0098  -16.1852 N   0  0  0  0  0  0  0  0  0  0  0  0
   17.9570  -27.0789  -10.9512 C   0  0  0  0  0  0  0  0  0  0  0  0
   16.8690  -27.1569  -11.5537 O   0  0  0  0  0  0  0  0  0  0  0  0
   17.9583  -27.0565   -9.5139 N   0  0  0  0  0  0  0  0  0  0  0  0
   16.8103  -27.2966   -8.7091 C   0  0  0  0  0  0  0  0  0  0  0  0
   17.0741  -27.2638   -7.2558 C   0  0  0  0  0  0  0  0  0  0  0  0
   17.7950  -28.1360   -6.6873 O   0  0  0  0  0  0  0  0  0  0  0  0
   16.5447  -26.2663   -6.4323 N   0  0  0  0  0  0  0  0  0  0  0  0
   16.7892  -26.1902   -5.0002 C   0  0  1  0  0  0  0  0  0  0  0  0
   18.3039  -26.0013   -4.8503 C   0  0  0  0  0  0  0  0  0  0  0  0
   18.8663  -24.5522   -5.7612 S   0  0  0  0  0  0  0  0  0  0  0  0
   16.0523  -25.1174   -4.3494 C   0  0  0  0  0  0  0  0  0  0  0  0
   15.2824  -24.2571   -5.0982 O   0  0  0  0  0  0  0  0  0  0  0  0
   16.1104  -24.9673   -3.1138 O   0  0  0  0  0  0  0  0  0  0  0  0
  2  1  1  1
  3  2  1  0
  4  3  1  0
  5  4  1  0
  6  5  1  0
  7  6  1  0
  8  9  2  0
  8  2  1  0
 10  8  1  0
 11 12  1  0
 11 10  1  0
 12 14  1  0
 13 12  2  0
 14 15  1  0
 15 18  1  0
 15 16  1  6
 16 17  1  0
 18 20  2  0
 18 19  1  0
M  END
$$$$
