KGC.pdb
     RDKit          3D

 20 19  0  0  1  0  0  0  0  0999 V2000
   26.0685  -22.9541  -12.7585 N   0  0  0  0  0  0  0  0  0  0  0  0
   26.3267  -21.5807  -13.0541 C   0  0  1  0  0  0  0  0  0  0  0  0
   26.1812  -21.1897  -14.4837 C   0  0  0  0  0  0  0  0  0  0  0  0
   27.0185  -21.9217  -15.4650 C   0  0  0  0  0  0  0  0  0  0  0  0
   26.6149  -23.3190  -15.7842 C   0  0  0  0  0  0  0  0  0  0  0  0
   27.6321  -23.8407  -16.8095 C   0  0  0  0  0  0  0  0  0  0  0  0
   27.2545  -25.1797  -17.2477 N   0  0  0  0  0  0  0  0  0  0  0  0
   25.3951  -20.7321  -12.2480 C   0  0  0  0  0  0  0  0  0  0  0  0
   25.2950  -19.5196  -12.5171 O   0  0  0  0  0  0  0  0  0  0  0  0
   24.6116  -21.2750  -11.1721 N   0  0  0  0  0  0  0  0  0  0  0  0
   23.6745  -20.5258  -10.4080 C   0  0  0  0  0  0  0  0  0  0  0  0
   22.3771  -20.3143  -11.0824 C   0  0  0  0  0  0  0  0  0  0  0  0
   21.3920  -19.7869  -10.4865 O   0  0  0  0  0  0  0  0  0  0  0  0
   22.1698  -20.6817  -12.4148 N   0  0  0  0  0  0  0  0  0  0  0  0
   20.8627  -20.6923  -13.0535 C   0  0  1  0  0  0  0  0  0  0  0  0
   20.9971  -19.7846  -14.2824 C   0  0  0  0  0  0  0  0  0  0  0  0
   22.6736  -19.8339  -14.9403 S   0  0  0  0  0  0  0  0  0  0  0  0
   20.4169  -22.0269  -13.4241 C   0  0  0  0  0  0  0  0  0  0  0  0
   21.2890  -23.0891  -13.3542 O   0  0  0  0  0  0  0  0  0  0  0  0
   19.2470  -22.2211  -13.8067 O   0  0  0  0  0  0  0  0  0  0  0  0
  2  1  1  6
  3  2  1  0
  4  3  1  0
  5  4  1  0
  6  5  1  0
  7  6  1  0
  8  9  2  0
  8  2  1  0
 10  8  1  0
 11 12  1  0
 11 10  1  0
 12 14  1  0
 13 12  2  0
 14 15  1  0
 15 18  1  0
 15 16  1  6
 16 17  1  0
 18 20  2  0
 18 19  1  0
M  END
$$$$
