KGC.pdb
     RDKit          3D

 20 19  0  0  1  0  0  0  0  0999 V2000
   18.3678  -12.9251  -15.0698 N   0  0  0  0  0  0  0  0  0  0  0  0
   19.0029  -12.3965  -16.2349 C   0  0  1  0  0  0  0  0  0  0  0  0
   18.4806  -12.8954  -17.5372 C   0  0  0  0  0  0  0  0  0  0  0  0
   18.5244  -14.3616  -17.7569 C   0  0  0  0  0  0  0  0  0  0  0  0
   18.1818  -14.8481  -19.1219 C   0  0  0  0  0  0  0  0  0  0  0  0
   18.3838  -16.3702  -19.1033 C   0  0  0  0  0  0  0  0  0  0  0  0
   18.1194  -16.9234  -20.4267 N   0  0  0  0  0  0  0  0  0  0  0  0
   18.8644  -10.9071  -16.2240 C   0  0  0  0  0  0  0  0  0  0  0  0
   17.8450  -10.3904  -16.7206 O   0  0  0  0  0  0  0  0  0  0  0  0
   19.8730  -10.0543  -15.6568 N   0  0  0  0  0  0  0  0  0  0  0  0
   19.8167   -8.6331  -15.6664 C   0  0  0  0  0  0  0  0  0  0  0  0
   20.9917   -7.9781  -15.0555 C   0  0  0  0  0  0  0  0  0  0  0  0
   21.8922   -8.6403  -14.4603 O   0  0  0  0  0  0  0  0  0  0  0  0
   21.1732   -6.5931  -15.1053 N   0  0  0  0  0  0  0  0  0  0  0  0
   22.3417   -5.9139  -14.5670 C   0  0  1  0  0  0  0  0  0  0  0  0
   22.5895   -4.7201  -15.4975 C   0  0  0  0  0  0  0  0  0  0  0  0
   22.5907   -5.2371  -17.2234 S   0  0  0  0  0  0  0  0  0  0  0  0
   22.1703   -5.4860  -13.1868 C   0  0  0  0  0  0  0  0  0  0  0  0
   23.2711   -5.2825  -12.3865 O   0  0  0  0  0  0  0  0  0  0  0  0
   21.0310   -5.3004  -12.7175 O   0  0  0  0  0  0  0  0  0  0  0  0
  2  1  1  1
  3  2  1  0
  4  3  1  0
  5  4  1  0
  6  5  1  0
  7  6  1  0
  8  9  2  0
  8  2  1  0
 10  8  1  0
 11 12  1  0
 11 10  1  0
 12 14  1  0
 13 12  2  0
 14 15  1  0
 15 18  1  0
 15 16  1  6
 16 17  1  0
 18 20  2  0
 18 19  1  0
M  END
$$$$
