KGC.pdb
     RDKit          3D

 20 19  0  0  1  0  0  0  0  0999 V2000
   25.5796  -22.6921  -13.0702 N   0  0  0  0  0  0  0  0  0  0  0  0
   24.9681  -21.4027  -13.0080 C   0  0  1  0  0  0  0  0  0  0  0  0
   25.5985  -20.4340  -12.0688 C   0  0  0  0  0  0  0  0  0  0  0  0
   25.4442  -20.7113  -10.6200 C   0  0  0  0  0  0  0  0  0  0  0  0
   24.0726  -21.0345  -10.1390 C   0  0  0  0  0  0  0  0  0  0  0  0
   24.1696  -21.1731   -8.6127 C   0  0  0  0  0  0  0  0  0  0  0  0
   22.8418  -21.3836   -8.0470 N   0  0  0  0  0  0  0  0  0  0  0  0
   24.9857  -20.7959  -14.3751 C   0  0  0  0  0  0  0  0  0  0  0  0
   26.0123  -20.9058  -15.0729 O   0  0  0  0  0  0  0  0  0  0  0  0
   23.8525  -20.0898  -14.9077 N   0  0  0  0  0  0  0  0  0  0  0  0
   23.8367  -19.4418  -16.1738 C   0  0  0  0  0  0  0  0  0  0  0  0
   24.4260  -18.0870  -16.1661 C   0  0  0  0  0  0  0  0  0  0  0  0
   23.8715  -17.1201  -15.5651 O   0  0  0  0  0  0  0  0  0  0  0  0
   25.6286  -17.8018  -16.8188 N   0  0  0  0  0  0  0  0  0  0  0  0
   26.1856  -16.4627  -16.9324 C   0  0  1  0  0  0  0  0  0  0  0  0
   27.6217  -16.5676  -16.4042 C   0  0  0  0  0  0  0  0  0  0  0  0
   27.6667  -17.4368  -14.8267 S   0  0  0  0  0  0  0  0  0  0  0  0
   26.1552  -15.9429  -18.2912 C   0  0  0  0  0  0  0  0  0  0  0  0
   26.4971  -14.6326  -18.5358 O   0  0  0  0  0  0  0  0  0  0  0  0
   25.8210  -16.6750  -19.2425 O   0  0  0  0  0  0  0  0  0  0  0  0
  2  1  1  6
  3  2  1  0
  4  3  1  0
  5  4  1  0
  6  5  1  0
  7  6  1  0
  8  9  2  0
  8  2  1  0
 10  8  1  0
 11 12  1  0
 11 10  1  0
 12 14  1  0
 13 12  2  0
 14 15  1  0
 15 18  1  0
 15 16  1  6
 16 17  1  0
 18 20  2  0
 18 19  1  0
M  END
$$$$
