KGC.pdb
     RDKit          3D

 20 19  0  0  1  0  0  0  0  0999 V2000
   26.9059  -21.3920  -12.4255 N   0  0  0  0  0  0  0  0  0  0  0  0
   25.6445  -21.2236  -11.7768 C   0  0  1  0  0  0  0  0  0  0  0  0
   25.5938  -20.1674  -10.7282 C   0  0  0  0  0  0  0  0  0  0  0  0
   24.3674  -20.1106   -9.8960 C   0  0  0  0  0  0  0  0  0  0  0  0
   24.1882  -21.1908   -8.8869 C   0  0  0  0  0  0  0  0  0  0  0  0
   22.8228  -20.9468   -8.2281 C   0  0  0  0  0  0  0  0  0  0  0  0
   22.5931  -21.9338   -7.1791 N   0  0  0  0  0  0  0  0  0  0  0  0
   24.6128  -20.8964  -12.8094 C   0  0  0  0  0  0  0  0  0  0  0  0
   24.6222  -19.7681  -13.3380 O   0  0  0  0  0  0  0  0  0  0  0  0
   23.6109  -21.8462  -13.2101 N   0  0  0  0  0  0  0  0  0  0  0  0
   22.6063  -21.5865  -14.1829 C   0  0  0  0  0  0  0  0  0  0  0  0
   23.1136  -21.5063  -15.5682 C   0  0  0  0  0  0  0  0  0  0  0  0
   24.0171  -22.2840  -15.9955 O   0  0  0  0  0  0  0  0  0  0  0  0
   22.6205  -20.5701  -16.4814 N   0  0  0  0  0  0  0  0  0  0  0  0
   23.0627  -20.4837  -17.8646 C   0  0  1  0  0  0  0  0  0  0  0  0
   21.9025  -19.8335  -18.6284 C   0  0  0  0  0  0  0  0  0  0  0  0
   22.3256  -19.5953  -20.3633 S   0  0  0  0  0  0  0  0  0  0  0  0
   24.2956  -19.7277  -18.0257 C   0  0  0  0  0  0  0  0  0  0  0  0
   25.2911  -20.2002  -18.8499 O   0  0  0  0  0  0  0  0  0  0  0  0
   24.4619  -18.6503  -17.4222 O   0  0  0  0  0  0  0  0  0  0  0  0
  2  1  1  6
  3  2  1  0
  4  3  1  0
  5  4  1  0
  6  5  1  0
  7  6  1  0
  8  9  2  0
  8  2  1  0
 10  8  1  0
 11 12  1  0
 11 10  1  0
 12 14  1  0
 13 12  2  0
 14 15  1  0
 15 18  1  0
 15 16  1  6
 16 17  1  0
 18 20  2  0
 18 19  1  0
M  END
$$$$
