KGC.pdb
     RDKit          3D

 20 19  0  0  1  0  0  0  0  0999 V2000
   20.1443  -22.7032  -14.5856 N   0  0  0  0  0  0  0  0  0  0  0  0
   20.3452  -21.5131  -13.8217 C   0  0  1  0  0  0  0  0  0  0  0  0
   20.0558  -21.6244  -12.3652 C   0  0  0  0  0  0  0  0  0  0  0  0
   19.1118  -22.6908  -11.9512 C   0  0  0  0  0  0  0  0  0  0  0  0
   18.6993  -22.7063  -10.5205 C   0  0  0  0  0  0  0  0  0  0  0  0
   17.8539  -23.9735  -10.3266 C   0  0  0  0  0  0  0  0  0  0  0  0
   17.3552  -24.0340   -8.9573 N   0  0  0  0  0  0  0  0  0  0  0  0
   21.7678  -21.0771  -13.9761 C   0  0  0  0  0  0  0  0  0  0  0  0
   22.6795  -21.8546  -13.6340 O   0  0  0  0  0  0  0  0  0  0  0  0
   22.1138  -19.7874  -14.5082 N   0  0  0  0  0  0  0  0  0  0  0  0
   23.4474  -19.3174  -14.6625 C   0  0  0  0  0  0  0  0  0  0  0  0
   23.5446  -17.9214  -15.1363 C   0  0  0  0  0  0  0  0  0  0  0  0
   22.5196  -17.2530  -15.4624 O   0  0  0  0  0  0  0  0  0  0  0  0
   24.7728  -17.2635  -15.2463 N   0  0  0  0  0  0  0  0  0  0  0  0
   24.9376  -15.9662  -15.8839 C   0  0  1  0  0  0  0  0  0  0  0  0
   26.4055  -15.5813  -15.6617 C   0  0  0  0  0  0  0  0  0  0  0  0
   26.8528  -15.7219  -13.9222 S   0  0  0  0  0  0  0  0  0  0  0  0
   24.5986  -15.9762  -17.2989 C   0  0  0  0  0  0  0  0  0  0  0  0
   24.2193  -14.8110  -17.9251 O   0  0  0  0  0  0  0  0  0  0  0  0
   24.6479  -17.0344  -17.9551 O   0  0  0  0  0  0  0  0  0  0  0  0
  2  1  1  6
  3  2  1  0
  4  3  1  0
  5  4  1  0
  6  5  1  0
  7  6  1  0
  8  9  2  0
  8  2  1  0
 10  8  1  0
 11 12  1  0
 11 10  1  0
 12 14  1  0
 13 12  2  0
 14 15  1  0
 15 18  1  0
 15 16  1  6
 16 17  1  0
 18 20  2  0
 18 19  1  0
M  END
$$$$
