KGC.pdb
     RDKit          3D

 20 19  0  0  1  0  0  0  0  0999 V2000
   16.5242  -11.6840  -16.4754 N   0  0  0  0  0  0  0  0  0  0  0  0
   17.7337  -12.4377  -16.5710 C   0  0  1  0  0  0  0  0  0  0  0  0
   17.7942  -13.4224  -17.6865 C   0  0  0  0  0  0  0  0  0  0  0  0
   17.7422  -14.8573  -17.3146 C   0  0  0  0  0  0  0  0  0  0  0  0
   17.6835  -15.8403  -18.4315 C   0  0  0  0  0  0  0  0  0  0  0  0
   17.8265  -17.2300  -17.7941 C   0  0  0  0  0  0  0  0  0  0  0  0
   19.2292  -17.5000  -17.4993 N   0  0  0  0  0  0  0  0  0  0  0  0
   18.8796  -11.4896  -16.7316 C   0  0  0  0  0  0  0  0  0  0  0  0
   20.0433  -11.9267  -16.6454 O   0  0  0  0  0  0  0  0  0  0  0  0
   18.6773  -10.0888  -16.9829 N   0  0  0  0  0  0  0  0  0  0  0  0
   19.7291   -9.1447  -17.1423 C   0  0  0  0  0  0  0  0  0  0  0  0
   19.7872   -8.1202  -16.0794 C   0  0  0  0  0  0  0  0  0  0  0  0
   18.7434   -7.6986  -15.4994 O   0  0  0  0  0  0  0  0  0  0  0  0
   20.9977   -7.5648  -15.6555 N   0  0  0  0  0  0  0  0  0  0  0  0
   21.1005   -6.5639  -14.6047 C   0  0  1  0  0  0  0  0  0  0  0  0
   22.2572   -7.0244  -13.7089 C   0  0  0  0  0  0  0  0  0  0  0  0
   21.8224   -8.5275  -12.8158 S   0  0  0  0  0  0  0  0  0  0  0  0
   21.3248   -5.2195  -15.1140 C   0  0  0  0  0  0  0  0  0  0  0  0
   21.1568   -4.1323  -14.2873 O   0  0  0  0  0  0  0  0  0  0  0  0
   21.6694   -5.0394  -16.2978 O   0  0  0  0  0  0  0  0  0  0  0  0
  2  1  1  6
  3  2  1  0
  4  3  1  0
  5  4  1  0
  6  5  1  0
  7  6  1  0
  8  9  2  0
  8  2  1  0
 10  8  1  0
 11 12  1  0
 11 10  1  0
 12 14  1  0
 13 12  2  0
 14 15  1  0
 15 18  1  0
 15 16  1  1
 16 17  1  0
 18 20  2  0
 18 19  1  0
M  END
$$$$
