KGC.pdb
     RDKit          3D

 20 19  0  0  1  0  0  0  0  0999 V2000
   18.6647  -15.6788  -16.2975 N   0  0  0  0  0  0  0  0  0  0  0  0
   19.8042  -15.8465  -17.1423 C   0  0  1  0  0  0  0  0  0  0  0  0
   19.5786  -16.6437  -18.3797 C   0  0  0  0  0  0  0  0  0  0  0  0
   19.4986  -18.1162  -18.2205 C   0  0  0  0  0  0  0  0  0  0  0  0
   18.3161  -18.6509  -17.4906 C   0  0  0  0  0  0  0  0  0  0  0  0
   18.4920  -20.1754  -17.4376 C   0  0  0  0  0  0  0  0  0  0  0  0
   17.3761  -20.7802  -16.7190 N   0  0  0  0  0  0  0  0  0  0  0  0
   20.3036  -14.4965  -17.5494 C   0  0  0  0  0  0  0  0  0  0  0  0
   21.3960  -14.4089  -18.1425 O   0  0  0  0  0  0  0  0  0  0  0  0
   19.5597  -13.2971  -17.2767 N   0  0  0  0  0  0  0  0  0  0  0  0
   19.9791  -11.9921  -17.6565 C   0  0  0  0  0  0  0  0  0  0  0  0
   20.1847  -11.0696  -16.5209 C   0  0  0  0  0  0  0  0  0  0  0  0
   20.0499  -11.4473  -15.3197 O   0  0  0  0  0  0  0  0  0  0  0  0
   20.5424   -9.7321  -16.7124 N   0  0  0  0  0  0  0  0  0  0  0  0
   20.6823   -8.7725  -15.6279 C   0  0  1  0  0  0  0  0  0  0  0  0
   21.8159   -9.3100  -14.7456 C   0  0  0  0  0  0  0  0  0  0  0  0
   22.0763   -8.2492  -13.3129 S   0  0  0  0  0  0  0  0  0  0  0  0
   20.9632   -7.4218  -16.0908 C   0  0  0  0  0  0  0  0  0  0  0  0
   20.4706   -6.3395  -15.3984 O   0  0  0  0  0  0  0  0  0  0  0  0
   21.6492   -7.2321  -17.1136 O   0  0  0  0  0  0  0  0  0  0  0  0
  2  1  1  6
  3  2  1  0
  4  3  1  0
  5  4  1  0
  6  5  1  0
  7  6  1  0
  8  9  2  0
  8  2  1  0
 10  8  1  0
 11 12  1  0
 11 10  1  0
 12 14  1  0
 13 12  2  0
 14 15  1  0
 15 18  1  0
 15 16  1  1
 16 17  1  0
 18 20  2  0
 18 19  1  0
M  END
$$$$
