KGC.pdb
     RDKit          3D

 20 19  0  0  1  0  0  0  0  0999 V2000
   24.4904  -21.5863  -14.5310 N   0  0  0  0  0  0  0  0  0  0  0  0
   25.9022  -21.4074  -14.6532 C   0  0  1  0  0  0  0  0  0  0  0  0
   26.3398  -20.3801  -15.6385 C   0  0  0  0  0  0  0  0  0  0  0  0
   25.2750  -19.7178  -16.4306 C   0  0  0  0  0  0  0  0  0  0  0  0
   24.0965  -19.2055  -15.6782 C   0  0  0  0  0  0  0  0  0  0  0  0
   23.1870  -18.5222  -16.7096 C   0  0  0  0  0  0  0  0  0  0  0  0
   21.9304  -18.1295  -16.0819 N   0  0  0  0  0  0  0  0  0  0  0  0
   26.4562  -21.0281  -13.3164 C   0  0  0  0  0  0  0  0  0  0  0  0
   27.6850  -21.1086  -13.1256 O   0  0  0  0  0  0  0  0  0  0  0  0
   25.6122  -20.5731  -12.2455 N   0  0  0  0  0  0  0  0  0  0  0  0
   26.0610  -20.3453  -10.9151 C   0  0  0  0  0  0  0  0  0  0  0  0
   25.3874  -21.1802   -9.8993 C   0  0  0  0  0  0  0  0  0  0  0  0
   25.6348  -22.4163   -9.7788 O   0  0  0  0  0  0  0  0  0  0  0  0
   24.4440  -20.6491   -9.0153 N   0  0  0  0  0  0  0  0  0  0  0  0
   23.6225  -21.4608   -8.1306 C   0  0  1  0  0  0  0  0  0  0  0  0
   23.8012  -20.8563   -6.7324 C   0  0  0  0  0  0  0  0  0  0  0  0
   22.2224  -20.7441   -5.8717 S   0  0  0  0  0  0  0  0  0  0  0  0
   22.2210  -21.4942   -8.5206 C   0  0  0  0  0  0  0  0  0  0  0  0
   21.4317  -22.5637   -8.1645 O   0  0  0  0  0  0  0  0  0  0  0  0
   21.7235  -20.5597   -9.1777 O   0  0  0  0  0  0  0  0  0  0  0  0
  2  1  1  1
  3  2  1  0
  4  3  1  0
  5  4  1  0
  6  5  1  0
  7  6  1  0
  8  9  2  0
  8  2  1  0
 10  8  1  0
 11 12  1  0
 11 10  1  0
 12 14  1  0
 13 12  2  0
 14 15  1  0
 15 18  1  0
 15 16  1  1
 16 17  1  0
 18 20  2  0
 18 19  1  0
M  END
$$$$
