KGC.pdb
     RDKit          3D

 20 19  0  0  1  0  0  0  0  0999 V2000
   23.9182  -23.0991  -15.7811 N   0  0  0  0  0  0  0  0  0  0  0  0
   25.1014  -22.3488  -15.5032 C   0  0  1  0  0  0  0  0  0  0  0  0
   26.0420  -22.1802  -16.6454 C   0  0  0  0  0  0  0  0  0  0  0  0
   26.5415  -23.4201  -17.2881 C   0  0  0  0  0  0  0  0  0  0  0  0
   27.5795  -24.1902  -16.5487 C   0  0  0  0  0  0  0  0  0  0  0  0
   27.9736  -25.3665  -17.4538 C   0  0  0  0  0  0  0  0  0  0  0  0
   28.9885  -26.1819  -16.7961 N   0  0  0  0  0  0  0  0  0  0  0  0
   24.7064  -20.9867  -15.0276 C   0  0  0  0  0  0  0  0  0  0  0  0
   25.5965  -20.1765  -14.7049 O   0  0  0  0  0  0  0  0  0  0  0  0
   23.3295  -20.5848  -14.9324 N   0  0  0  0  0  0  0  0  0  0  0  0
   22.9012  -19.2741  -14.5833 C   0  0  0  0  0  0  0  0  0  0  0  0
   21.4336  -19.1126  -14.5305 C   0  0  0  0  0  0  0  0  0  0  0  0
   20.8926  -18.0592  -14.0816 O   0  0  0  0  0  0  0  0  0  0  0  0
   20.5647  -20.1124  -14.9765 N   0  0  0  0  0  0  0  0  0  0  0  0
   19.1161  -20.0253  -14.8745 C   0  0  1  0  0  0  0  0  0  0  0  0
   18.6091  -19.8877  -16.3154 C   0  0  0  0  0  0  0  0  0  0  0  0
   19.3218  -21.1593  -17.3741 S   0  0  0  0  0  0  0  0  0  0  0  0
   18.5188  -21.1723  -14.2075 C   0  0  0  0  0  0  0  0  0  0  0  0
   17.1626  -21.2064  -13.9769 O   0  0  0  0  0  0  0  0  0  0  0  0
   19.2253  -22.1308  -13.8402 O   0  0  0  0  0  0  0  0  0  0  0  0
  2  1  1  6
  3  2  1  0
  4  3  1  0
  5  4  1  0
  6  5  1  0
  7  6  1  0
  8  9  2  0
  8  2  1  0
 10  8  1  0
 11 12  1  0
 11 10  1  0
 12 14  1  0
 13 12  2  0
 14 15  1  0
 15 18  1  0
 15 16  1  6
 16 17  1  0
 18 20  2  0
 18 19  1  0
M  END
$$$$
