KGC.pdb
     RDKit          3D

 20 19  0  0  1  0  0  0  0  0999 V2000
   24.5270  -24.8054  -14.4709 N   0  0  0  0  0  0  0  0  0  0  0  0
   23.9549  -23.4974  -14.4244 C   0  0  1  0  0  0  0  0  0  0  0  0
   24.4549  -22.5374  -15.4472 C   0  0  0  0  0  0  0  0  0  0  0  0
   25.9201  -22.3115  -15.4916 C   0  0  0  0  0  0  0  0  0  0  0  0
   26.6930  -23.1018  -16.4893 C   0  0  0  0  0  0  0  0  0  0  0  0
   28.1598  -22.6727  -16.3402 C   0  0  0  0  0  0  0  0  0  0  0  0
   29.0118  -23.5169  -17.1702 N   0  0  0  0  0  0  0  0  0  0  0  0
   22.4728  -23.6149  -14.5894 C   0  0  0  0  0  0  0  0  0  0  0  0
   21.7708  -22.5892  -14.5005 O   0  0  0  0  0  0  0  0  0  0  0  0
   21.8347  -24.8767  -14.8479 N   0  0  0  0  0  0  0  0  0  0  0  0
   20.4374  -25.0379  -15.0595 C   0  0  0  0  0  0  0  0  0  0  0  0
   19.7381  -25.7418  -13.9649 C   0  0  0  0  0  0  0  0  0  0  0  0
   18.4838  -25.9156  -13.9755 O   0  0  0  0  0  0  0  0  0  0  0  0
   20.4246  -26.2564  -12.8615 N   0  0  0  0  0  0  0  0  0  0  0  0
   19.7761  -26.9598  -11.7655 C   0  0  1  0  0  0  0  0  0  0  0  0
   20.8797  -27.7899  -11.0982 C   0  0  0  0  0  0  0  0  0  0  0  0
   21.5612  -28.9989  -12.2470 S   0  0  0  0  0  0  0  0  0  0  0  0
   19.1321  -26.0675  -10.8134 C   0  0  0  0  0  0  0  0  0  0  0  0
   18.3631  -26.5842   -9.7959 O   0  0  0  0  0  0  0  0  0  0  0  0
   19.2695  -24.8328  -10.9090 O   0  0  0  0  0  0  0  0  0  0  0  0
  2  1  1  6
  3  2  1  0
  4  3  1  0
  5  4  1  0
  6  5  1  0
  7  6  1  0
  8  9  2  0
  8  2  1  0
 10  8  1  0
 11 12  1  0
 11 10  1  0
 12 14  1  0
 13 12  2  0
 14 15  1  0
 15 18  1  0
 15 16  1  1
 16 17  1  0
 18 20  2  0
 18 19  1  0
M  END
$$$$
