DMY.pdb
     RDKit          3D

 29 29  0  0  1  0  0  0  0  0999 V2000
   19.5159  -13.6285  -17.3303 N   0  0  0  0  0  0  0  0  0  0  0  0
   19.8191  -12.4027  -18.0419 C   0  0  1  0  0  0  0  0  0  0  0  0
   18.6003  -11.4944  -18.1241 C   0  0  0  0  0  0  0  0  0  0  0  0
   17.5827  -12.2253  -18.9019 C   0  0  0  0  0  0  0  0  0  0  0  0
   17.9196  -12.8044  -19.9492 O   0  0  0  0  0  0  0  0  0  0  0  0
   20.9758  -11.7438  -17.3946 C   0  0  0  0  0  0  0  0  0  0  0  0
   20.9451  -11.4144  -16.1832 O   0  0  0  0  0  0  0  0  0  0  0  0
   16.2682  -12.2761  -18.4793 O   0  0  0  0  0  0  0  0  0  0  0  0
   27.4847  -10.5521  -15.1959 C   0  0  0  0  0  0  0  0  0  0  0  0
   26.0721  -11.3891  -16.0026 S   0  0  0  0  0  0  0  0  0  0  0  0
   25.7798  -10.5503  -17.6088 C   0  0  0  0  0  0  0  0  0  0  0  0
   24.5550  -11.1621  -18.2661 C   0  0  0  0  0  0  0  0  0  0  0  0
   23.3013  -10.7494  -17.5299 C   0  0  2  0  0  0  0  0  0  0  0  0
   22.1774  -11.4511  -18.1028 N   0  0  0  0  0  0  0  0  0  0  0  0
   23.1012   -9.2768  -17.6013 C   0  0  0  0  0  0  0  0  0  0  0  0
   22.7027   -8.8117  -18.6998 O   0  0  0  0  0  0  0  0  0  0  0  0
   22.0682   -0.7653  -15.7667 O   0  0  0  0  0  0  0  0  0  0  0  0
   22.4023   -2.0987  -15.6732 C   0  0  0  0  0  0  0  0  0  0  0  0
   21.3716   -3.0215  -15.6207 C   0  0  0  0  0  0  0  0  0  0  0  0
   21.6680   -4.3628  -15.5287 C   0  0  0  0  0  0  0  0  0  0  0  0
   22.9579   -4.8459  -15.4847 C   0  0  0  0  0  0  0  0  0  0  0  0
   23.2565   -6.2876  -15.3671 C   0  0  0  0  0  0  0  0  0  0  0  0
   23.1659   -6.9519  -16.7106 C   0  0  2  0  0  0  0  0  0  0  0  0
   23.3306   -8.4074  -16.5313 N   0  0  0  0  0  0  0  0  0  0  0  0
   24.2221   -6.4409  -17.6201 C   0  0  0  0  0  0  0  0  0  0  0  0
   25.3881   -6.9051  -17.4942 O   0  0  0  0  0  0  0  0  0  0  0  0
   23.9670   -3.8885  -15.5399 C   0  0  0  0  0  0  0  0  0  0  0  0
   23.7004   -2.5512  -15.6313 C   0  0  0  0  0  0  0  0  0  0  0  0
   24.0207   -5.4922  -18.6020 O   0  0  0  0  0  0  0  0  0  0  0  0
  2  1  1  1
  3  4  1  0
  3  2  1  0
  4  5  2  0
  6  2  1  0
  6  7  2  0
  8  4  1  0
 10  9  1  0
 11 10  1  0
 12 11  1  0
 13 14  1  0
 13 12  1  6
 14  6  1  0
 15 24  1  0
 15 13  1  0
 16 15  2  0
 18 19  2  0
 18 17  1  0
 20 19  1  0
 21 20  2  0
 22 21  1  0
 23 24  1  0
 23 22  1  1
 25 23  1  0
 26 25  2  0
 27 21  1  0
 27 28  2  0
 28 18  1  0
 29 25  1  0
M  END
$$$$
