DMY.pdb
     RDKit          3D

 29 29  0  0  1  0  0  0  0  0999 V2000
   20.6638  -12.1854  -18.1571 N   0  0  0  0  0  0  0  0  0  0  0  0
   19.8762  -11.3556  -17.2671 C   0  0  1  0  0  0  0  0  0  0  0  0
   19.5487  -12.0874  -15.9731 C   0  0  0  0  0  0  0  0  0  0  0  0
   18.3879  -12.9505  -16.2602 C   0  0  0  0  0  0  0  0  0  0  0  0
   17.5341  -13.1336  -15.3753 O   0  0  0  0  0  0  0  0  0  0  0  0
   20.5951  -10.0830  -17.0334 C   0  0  0  0  0  0  0  0  0  0  0  0
   21.2999   -9.9104  -16.0086 O   0  0  0  0  0  0  0  0  0  0  0  0
   18.2385  -13.5506  -17.4958 O   0  0  0  0  0  0  0  0  0  0  0  0
   22.5176   -3.0726  -20.2537 C   0  0  0  0  0  0  0  0  0  0  0  0
   21.5951   -4.6404  -20.4480 S   0  0  0  0  0  0  0  0  0  0  0  0
   21.8348   -5.6139  -18.9105 C   0  0  0  0  0  0  0  0  0  0  0  0
   21.0833   -6.9273  -19.0392 C   0  0  0  0  0  0  0  0  0  0  0  0
   21.2549   -7.7568  -17.7876 C   0  0  2  0  0  0  0  0  0  0  0  0
   20.5293   -8.9940  -17.9505 N   0  0  0  0  0  0  0  0  0  0  0  0
   20.7802   -7.0161  -16.5877 C   0  0  0  0  0  0  0  0  0  0  0  0
   19.5453   -7.0506  -16.3523 O   0  0  0  0  0  0  0  0  0  0  0  0
   18.6294   -4.9938   -8.6741 O   0  0  0  0  0  0  0  0  0  0  0  0
   19.1621   -5.4390   -9.8643 C   0  0  0  0  0  0  0  0  0  0  0  0
   20.3888   -6.0795   -9.8244 C   0  0  0  0  0  0  0  0  0  0  0  0
   20.9507   -6.5391  -10.9942 C   0  0  0  0  0  0  0  0  0  0  0  0
   20.3484   -6.3934  -12.2250 C   0  0  0  0  0  0  0  0  0  0  0  0
   20.9753   -6.8765  -13.4720 C   0  0  0  0  0  0  0  0  0  0  0  0
   21.0991   -5.7556  -14.4635 C   0  0  2  0  0  0  0  0  0  0  0  0
   21.6218   -6.3005  -15.7315 N   0  0  0  0  0  0  0  0  0  0  0  0
   22.0196   -4.7070  -13.9567 C   0  0  0  0  0  0  0  0  0  0  0  0
   23.2504   -4.8292  -14.2034 O   0  0  0  0  0  0  0  0  0  0  0  0
   19.1166   -5.7449  -12.2251 C   0  0  0  0  0  0  0  0  0  0  0  0
   18.5367   -5.2790  -11.0786 C   0  0  0  0  0  0  0  0  0  0  0  0
   21.6254   -3.5991  -13.2342 O   0  0  0  0  0  0  0  0  0  0  0  0
  2  1  1  6
  3  4  1  0
  3  2  1  0
  4  5  2  0
  6  2  1  0
  6  7  2  0
  8  4  1  0
 10  9  1  0
 11 10  1  0
 12 11  1  0
 13 14  1  0
 13 12  1  6
 14  6  1  0
 15 24  1  0
 15 13  1  0
 16 15  2  0
 18 19  2  0
 18 17  1  0
 20 19  1  0
 21 20  2  0
 22 21  1  0
 23 24  1  0
 23 22  1  1
 25 23  1  0
 26 25  2  0
 27 21  1  0
 27 28  2  0
 28 18  1  0
 29 25  1  0
M  END
$$$$
