DMY.pdb
     RDKit          3D

 29 29  0  0  1  0  0  0  0  0999 V2000
   20.7636  -12.9750   13.1095 N   0  0  0  0  0  0  0  0  0  0  0  0
   21.2272  -13.6782   11.9299 C   0  0  1  0  0  0  0  0  0  0  0  0
   21.6049  -15.1165   12.2554 C   0  0  0  0  0  0  0  0  0  0  0  0
   22.9002  -15.0623   12.9583 C   0  0  0  0  0  0  0  0  0  0  0  0
   23.6064  -14.0447   12.8520 O   0  0  0  0  0  0  0  0  0  0  0  0
   20.1907  -13.5877   10.8770 C   0  0  0  0  0  0  0  0  0  0  0  0
   18.9782  -13.7863   11.1364 O   0  0  0  0  0  0  0  0  0  0  0  0
   23.3324  -16.1225   13.7319 O   0  0  0  0  0  0  0  0  0  0  0  0
   18.4955  -11.1424    3.5496 C   0  0  0  0  0  0  0  0  0  0  0  0
   19.7831  -11.3163    4.8374 S   0  0  0  0  0  0  0  0  0  0  0  0
   19.0583  -12.2934    6.2117 C   0  0  0  0  0  0  0  0  0  0  0  0
   20.0999  -12.4488    7.3059 C   0  0  0  0  0  0  0  0  0  0  0  0
   19.5444  -13.2662    8.4493 C   0  0  2  0  0  0  0  0  0  0  0  0
   20.5080  -13.2716    9.5240 N   0  0  0  0  0  0  0  0  0  0  0  0
   19.2299  -14.6526    8.0102 C   0  0  0  0  0  0  0  0  0  0  0  0
   20.2073  -15.4140    7.7944 O   0  0  0  0  0  0  0  0  0  0  0  0
   15.8752  -22.5954    7.0992 O   0  0  0  0  0  0  0  0  0  0  0  0
   16.1663  -21.3016    7.4732 C   0  0  0  0  0  0  0  0  0  0  0  0
   15.2890  -20.3034    7.0854 C   0  0  0  0  0  0  0  0  0  0  0  0
   15.5472  -18.9991    7.4426 C   0  0  0  0  0  0  0  0  0  0  0  0
   16.6512  -18.6259    8.1780 C   0  0  0  0  0  0  0  0  0  0  0  0
   16.9216  -17.2187    8.5360 C   0  0  0  0  0  0  0  0  0  0  0  0
   17.7108  -16.5452    7.4506 C   0  0  2  0  0  0  0  0  0  0  0  0
   17.9310  -15.1361    7.8299 N   0  0  0  0  0  0  0  0  0  0  0  0
   16.9813  -16.6036    6.1590 C   0  0  0  0  0  0  0  0  0  0  0  0
   16.2338  -15.6339    5.8562 O   0  0  0  0  0  0  0  0  0  0  0  0
   17.5098  -19.6567    8.5496 C   0  0  0  0  0  0  0  0  0  0  0  0
   17.2772  -20.9595    8.2083 C   0  0  0  0  0  0  0  0  0  0  0  0
   17.0639  -17.6453    5.2574 O   0  0  0  0  0  0  0  0  0  0  0  0
  2  1  1  1
  3  4  1  0
  3  2  1  0
  4  5  2  0
  6  2  1  0
  6  7  2  0
  8  4  1  0
 10  9  1  0
 11 10  1  0
 12 11  1  0
 13 14  1  0
 13 12  1  6
 14  6  1  0
 15 24  1  0
 15 13  1  0
 16 15  2  0
 18 19  2  0
 18 17  1  0
 20 19  1  0
 21 20  2  0
 22 21  1  0
 23 24  1  0
 23 22  1  1
 25 23  1  0
 26 25  2  0
 27 21  1  0
 27 28  2  0
 28 18  1  0
 29 25  1  0
M  END
$$$$
