DMY.pdb
     RDKit          3D

 29 29  0  0  1  0  0  0  0  0999 V2000
   28.6978  -21.4896  -16.6228 N   0  0  0  0  0  0  0  0  0  0  0  0
   27.8705  -20.5261  -15.9241 C   0  0  1  0  0  0  0  0  0  0  0  0
   27.1229  -19.6279  -16.8995 C   0  0  0  0  0  0  0  0  0  0  0  0
   28.1406  -18.8022  -17.5756 C   0  0  0  0  0  0  0  0  0  0  0  0
   28.1234  -18.7122  -18.8155 O   0  0  0  0  0  0  0  0  0  0  0  0
   26.9613  -21.2484  -15.0060 C   0  0  0  0  0  0  0  0  0  0  0  0
   26.4542  -22.3520  -15.3247 O   0  0  0  0  0  0  0  0  0  0  0  0
   29.1045  -18.1289  -16.8498 O   0  0  0  0  0  0  0  0  0  0  0  0
   26.0411  -19.3875   -8.7504 C   0  0  0  0  0  0  0  0  0  0  0  0
   25.6283  -21.1692   -8.7078 S   0  0  0  0  0  0  0  0  0  0  0  0
   25.1326  -21.6599  -10.4056 C   0  0  0  0  0  0  0  0  0  0  0  0
   26.0245  -20.9426  -11.4037 C   0  0  0  0  0  0  0  0  0  0  0  0
   25.7046  -21.3895  -12.8116 C   0  0  2  0  0  0  0  0  0  0  0  0
   26.6157  -20.7370  -13.7214 N   0  0  0  0  0  0  0  0  0  0  0  0
   24.2918  -21.0804  -13.1611 C   0  0  0  0  0  0  0  0  0  0  0  0
   23.9674  -19.8656  -13.1874 O   0  0  0  0  0  0  0  0  0  0  0  0
   16.0170  -21.2784  -15.9651 O   0  0  0  0  0  0  0  0  0  0  0  0
   17.3071  -21.6280  -15.6308 C   0  0  0  0  0  0  0  0  0  0  0  0
   17.4910  -22.4419  -14.5261 C   0  0  0  0  0  0  0  0  0  0  0  0
   18.7663  -22.8128  -14.1634 C   0  0  0  0  0  0  0  0  0  0  0  0
   19.8902  -22.4106  -14.8520 C   0  0  0  0  0  0  0  0  0  0  0  0
   21.2521  -22.8034  -14.4368 C   0  0  0  0  0  0  0  0  0  0  0  0
   21.9435  -21.6560  -13.7585 C   0  0  2  0  0  0  0  0  0  0  0  0
   23.3317  -22.0531  -13.4536 N   0  0  0  0  0  0  0  0  0  0  0  0
   21.2435  -21.2919  -12.5011 C   0  0  0  0  0  0  0  0  0  0  0  0
   21.4055  -22.0361  -11.4957 O   0  0  0  0  0  0  0  0  0  0  0  0
   19.6655  -21.5937  -15.9565 C   0  0  0  0  0  0  0  0  0  0  0  0
   18.4103  -21.2107  -16.3381 C   0  0  0  0  0  0  0  0  0  0  0  0
   20.4263  -20.1903  -12.3484 O   0  0  0  0  0  0  0  0  0  0  0  0
  2  1  1  6
  3  4  1  0
  3  2  1  0
  4  5  2  0
  6  2  1  0
  6  7  2  0
  8  4  1  0
 10  9  1  0
 11 10  1  0
 12 11  1  0
 13 14  1  0
 13 12  1  1
 14  6  1  0
 15 24  1  0
 15 13  1  0
 16 15  2  0
 18 19  2  0
 18 17  1  0
 20 19  1  0
 21 20  2  0
 22 21  1  0
 23 24  1  0
 23 22  1  1
 25 23  1  0
 26 25  2  0
 27 21  1  0
 27 28  2  0
 28 18  1  0
 29 25  1  0
M  END
$$$$
