DMY.pdb
     RDKit          3D

 29 29  0  0  1  0  0  0  0  0999 V2000
   19.3717  -11.8264  -19.3287 N   0  0  0  0  0  0  0  0  0  0  0  0
   19.9957  -10.5737  -19.7057 C   0  0  1  0  0  0  0  0  0  0  0  0
   18.9543   -9.5154  -20.0415 C   0  0  0  0  0  0  0  0  0  0  0  0
   18.3473   -9.9149  -21.3248 C   0  0  0  0  0  0  0  0  0  0  0  0
   17.1362  -10.1929  -21.3629 O   0  0  0  0  0  0  0  0  0  0  0  0
   20.9107  -10.1467  -18.6234 C   0  0  0  0  0  0  0  0  0  0  0  0
   20.5937  -10.2699  -17.4146 O   0  0  0  0  0  0  0  0  0  0  0  0
   19.1051   -9.9793  -22.4784 O   0  0  0  0  0  0  0  0  0  0  0  0
   26.5170  -10.7407  -14.7933 C   0  0  0  0  0  0  0  0  0  0  0  0
   25.4146  -10.9384  -16.2398 S   0  0  0  0  0  0  0  0  0  0  0  0
   25.5356   -9.4026  -17.2377 C   0  0  0  0  0  0  0  0  0  0  0  0
   24.5332   -9.4770  -18.3762 C   0  0  0  0  0  0  0  0  0  0  0  0
   23.1367   -9.2048  -17.8666 C   0  0  2  0  0  0  0  0  0  0  0  0
   22.1904   -9.5791  -18.8904 N   0  0  0  0  0  0  0  0  0  0  0  0
   22.9755   -7.7741  -17.4911 C   0  0  0  0  0  0  0  0  0  0  0  0
   23.0352   -6.9332  -18.4243 O   0  0  0  0  0  0  0  0  0  0  0  0
   16.3390   -6.4323  -17.2738 O   0  0  0  0  0  0  0  0  0  0  0  0
   17.5822   -6.2326  -16.7144 C   0  0  0  0  0  0  0  0  0  0  0  0
   18.1289   -7.2628  -15.9685 C   0  0  0  0  0  0  0  0  0  0  0  0
   19.3702   -7.0992  -15.3960 C   0  0  0  0  0  0  0  0  0  0  0  0
   20.1116   -5.9449  -15.5265 C   0  0  0  0  0  0  0  0  0  0  0  0
   21.4338   -5.7805  -14.8892 C   0  0  0  0  0  0  0  0  0  0  0  0
   22.5262   -5.9010  -15.9124 C   0  0  2  0  0  0  0  0  0  0  0  0
   22.7669   -7.3318  -16.1818 N   0  0  0  0  0  0  0  0  0  0  0  0
   23.7770   -5.2710  -15.4201 C   0  0  0  0  0  0  0  0  0  0  0  0
   23.7505   -4.0418  -15.1388 O   0  0  0  0  0  0  0  0  0  0  0  0
   19.5295   -4.9319  -16.2833 C   0  0  0  0  0  0  0  0  0  0  0  0
   18.2991   -5.0682  -16.8624 C   0  0  0  0  0  0  0  0  0  0  0  0
   24.9734   -5.9357  -15.2425 O   0  0  0  0  0  0  0  0  0  0  0  0
  2  1  1  1
  3  4  1  0
  3  2  1  0
  4  5  2  0
  6  2  1  0
  6  7  2  0
  8  4  1  0
 10  9  1  0
 11 10  1  0
 12 11  1  0
 13 14  1  0
 13 12  1  6
 14  6  1  0
 15 24  1  0
 15 13  1  0
 16 15  2  0
 18 19  2  0
 18 17  1  0
 20 19  1  0
 21 20  2  0
 22 21  1  0
 23 24  1  0
 23 22  1  1
 25 23  1  0
 26 25  2  0
 27 21  1  0
 27 28  2  0
 28 18  1  0
 29 25  1  0
M  END
$$$$
