DMY.pdb
     RDKit          3D

 29 29  0  0  1  0  0  0  0  0999 V2000
   19.1339  -13.1438  -16.6114 N   0  0  0  0  0  0  0  0  0  0  0  0
   18.8210  -11.8108  -16.1359 C   0  0  1  0  0  0  0  0  0  0  0  0
   18.0331  -11.8580  -14.8343 C   0  0  0  0  0  0  0  0  0  0  0  0
   16.6270  -12.1069  -15.2027 C   0  0  0  0  0  0  0  0  0  0  0  0
   16.3248  -12.2188  -16.4034 O   0  0  0  0  0  0  0  0  0  0  0  0
   20.0767  -11.0368  -16.0118 C   0  0  0  0  0  0  0  0  0  0  0  0
   20.7342  -11.0274  -14.9420 O   0  0  0  0  0  0  0  0  0  0  0  0
   15.6490  -12.2203  -14.2331 O   0  0  0  0  0  0  0  0  0  0  0  0
   22.8884  -11.2421  -21.2671 C   0  0  0  0  0  0  0  0  0  0  0  0
   24.1666  -10.9773  -19.9854 S   0  0  0  0  0  0  0  0  0  0  0  0
   23.3085  -10.8718  -18.3663 C   0  0  0  0  0  0  0  0  0  0  0  0
   22.5545   -9.5554  -18.2955 C   0  0  0  0  0  0  0  0  0  0  0  0
   21.7931   -9.4543  -16.9939 C   0  0  2  0  0  0  0  0  0  0  0  0
   20.6049  -10.2683  -17.0895 N   0  0  0  0  0  0  0  0  0  0  0  0
   21.4457   -8.0403  -16.6877 C   0  0  0  0  0  0  0  0  0  0  0  0
   20.4222   -7.5738  -17.2502 O   0  0  0  0  0  0  0  0  0  0  0  0
   20.9562    0.0986  -13.5376 O   0  0  0  0  0  0  0  0  0  0  0  0
   21.2327   -1.2421  -13.6947 C   0  0  0  0  0  0  0  0  0  0  0  0
   22.4158   -1.5890  -14.3243 C   0  0  0  0  0  0  0  0  0  0  0  0
   22.7258   -2.9191  -14.4972 C   0  0  0  0  0  0  0  0  0  0  0  0
   21.9078   -3.9429  -14.0706 C   0  0  0  0  0  0  0  0  0  0  0  0
   22.2482   -5.3645  -14.2817 C   0  0  0  0  0  0  0  0  0  0  0  0
   21.8208   -5.8069  -15.6514 C   0  0  2  0  0  0  0  0  0  0  0  0
   22.1860   -7.2260  -15.8261 N   0  0  0  0  0  0  0  0  0  0  0  0
   22.4866   -4.9904  -16.6973 C   0  0  0  0  0  0  0  0  0  0  0  0
   23.6599   -5.3046  -17.0368 O   0  0  0  0  0  0  0  0  0  0  0  0
   20.7277   -3.5552  -13.4422 C   0  0  0  0  0  0  0  0  0  0  0  0
   20.3959   -2.2423  -13.2578 C   0  0  0  0  0  0  0  0  0  0  0  0
   21.9118   -3.9084  -17.3325 O   0  0  0  0  0  0  0  0  0  0  0  0
  2  1  1  1
  3  4  1  0
  3  2  1  0
  4  5  2  0
  6  2  1  0
  6  7  2  0
  8  4  1  0
 10  9  1  0
 11 10  1  0
 12 11  1  0
 13 14  1  0
 13 12  1  6
 14  6  1  0
 15 24  1  0
 15 13  1  0
 16 15  2  0
 18 19  2  0
 18 17  1  0
 20 19  1  0
 21 20  2  0
 22 21  1  0
 23 24  1  0
 23 22  1  1
 25 23  1  0
 26 25  2  0
 27 21  1  0
 27 28  2  0
 28 18  1  0
 29 25  1  0
M  END
$$$$
