DMY.pdb
     RDKit          3D

 29 29  0  0  1  0  0  0  0  0999 V2000
   18.9461  -11.2516  -17.5575 N   0  0  0  0  0  0  0  0  0  0  0  0
   18.5321   -9.9716  -17.0178 C   0  0  1  0  0  0  0  0  0  0  0  0
   18.3464  -10.0411  -15.5085 C   0  0  0  0  0  0  0  0  0  0  0  0
   16.9809   -9.5587  -15.2302 C   0  0  0  0  0  0  0  0  0  0  0  0
   16.8198   -8.6216  -14.4292 O   0  0  0  0  0  0  0  0  0  0  0  0
   19.5123   -8.9388  -17.4224 C   0  0  0  0  0  0  0  0  0  0  0  0
   20.7470   -9.1663  -17.3985 O   0  0  0  0  0  0  0  0  0  0  0  0
   15.8863  -10.1312  -15.8493 O   0  0  0  0  0  0  0  0  0  0  0  0
   18.9065   -6.9301  -23.6547 C   0  0  0  0  0  0  0  0  0  0  0  0
   18.7558   -5.8695  -22.1718 S   0  0  0  0  0  0  0  0  0  0  0  0
   19.4897   -6.7875  -20.7619 C   0  0  0  0  0  0  0  0  0  0  0  0
   19.3965   -5.9267  -19.5142 C   0  0  0  0  0  0  0  0  0  0  0  0
   20.0288   -6.6345  -18.3380 C   0  0  2  0  0  0  0  0  0  0  0  0
   19.1130   -7.6422  -17.8587 N   0  0  0  0  0  0  0  0  0  0  0  0
   20.3721   -5.6710  -17.2575 C   0  0  0  0  0  0  0  0  0  0  0  0
   19.4295   -5.2909  -16.5168 O   0  0  0  0  0  0  0  0  0  0  0  0
   20.4321   -8.8134  -11.9201 O   0  0  0  0  0  0  0  0  0  0  0  0
   21.0559   -7.8547  -12.6884 C   0  0  0  0  0  0  0  0  0  0  0  0
   20.7296   -6.5290  -12.4590 C   0  0  0  0  0  0  0  0  0  0  0  0
   21.3344   -5.5439  -13.2068 C   0  0  0  0  0  0  0  0  0  0  0  0
   22.2634   -5.8100  -14.1893 C   0  0  0  0  0  0  0  0  0  0  0  0
   22.8881   -4.7410  -14.9944 C   0  0  0  0  0  0  0  0  0  0  0  0
   21.8995   -4.1792  -15.9751 C   0  0  2  0  0  0  0  0  0  0  0  0
   21.6613   -5.1800  -17.0333 N   0  0  0  0  0  0  0  0  0  0  0  0
   22.4175   -2.9277  -16.5827 C   0  0  0  0  0  0  0  0  0  0  0  0
   22.6237   -2.9142  -17.8269 O   0  0  0  0  0  0  0  0  0  0  0  0
   22.5659   -7.1538  -14.3908 C   0  0  0  0  0  0  0  0  0  0  0  0
   21.9802   -8.1512  -13.6627 C   0  0  0  0  0  0  0  0  0  0  0  0
   22.6882   -1.7692  -15.8832 O   0  0  0  0  0  0  0  0  0  0  0  0
  2  1  1  1
  3  4  1  0
  3  2  1  0
  4  5  2  0
  6  2  1  0
  6  7  2  0
  8  4  1  0
 10  9  1  0
 11 10  1  0
 12 11  1  0
 13 14  1  0
 13 12  1  6
 14  6  1  0
 15 24  1  0
 15 13  1  0
 16 15  2  0
 18 19  2  0
 18 17  1  0
 20 19  1  0
 21 20  2  0
 22 21  1  0
 23 24  1  0
 23 22  1  1
 25 23  1  0
 26 25  2  0
 27 21  1  0
 27 28  2  0
 28 18  1  0
 29 25  1  0
M  END
$$$$
