DMY.pdb
     RDKit          3D

 29 29  0  0  1  0  0  0  0  0999 V2000
   14.9334  -18.2399    1.3208 N   0  0  0  0  0  0  0  0  0  0  0  0
   15.3655  -19.4151    2.0509 C   0  0  1  0  0  0  0  0  0  0  0  0
   15.3835  -20.6469    1.1566 C   0  0  0  0  0  0  0  0  0  0  0  0
   13.9767  -20.9618    0.8461 C   0  0  0  0  0  0  0  0  0  0  0  0
   13.0739  -20.2809    1.3628 O   0  0  0  0  0  0  0  0  0  0  0  0
   16.6832  -19.1416    2.6673 C   0  0  0  0  0  0  0  0  0  0  0  0
   17.6893  -19.8413    2.3937 O   0  0  0  0  0  0  0  0  0  0  0  0
   13.6538  -21.9968   -0.0105 O   0  0  0  0  0  0  0  0  0  0  0  0
   18.5408  -12.4493    3.2105 C   0  0  0  0  0  0  0  0  0  0  0  0
   18.1433  -13.6804    4.5040 S   0  0  0  0  0  0  0  0  0  0  0  0
   18.3266  -15.3455    3.7537 C   0  0  0  0  0  0  0  0  0  0  0  0
   18.0759  -16.3953    4.8220 C   0  0  0  0  0  0  0  0  0  0  0  0
   18.1464  -17.7817    4.2244 C   0  0  2  0  0  0  0  0  0  0  0  0
   16.8815  -18.0781    3.5951 N   0  0  0  0  0  0  0  0  0  0  0  0
   18.4733  -18.7946    5.2641 C   0  0  0  0  0  0  0  0  0  0  0  0
   17.5026  -19.3676    5.8219 O   0  0  0  0  0  0  0  0  0  0  0  0
   21.4117  -25.5156    9.7910 O   0  0  0  0  0  0  0  0  0  0  0  0
   21.2803  -24.4761    8.8961 C   0  0  0  0  0  0  0  0  0  0  0  0
   20.1432  -24.4419    8.1071 C   0  0  0  0  0  0  0  0  0  0  0  0
   19.9775  -23.4171    7.2028 C   0  0  0  0  0  0  0  0  0  0  0  0
   20.8983  -22.4054    7.0366 C   0  0  0  0  0  0  0  0  0  0  0  0
   20.7122  -21.3241    6.0479 C   0  0  0  0  0  0  0  0  0  0  0  0
   20.0076  -20.1564    6.6762 C   0  0  2  0  0  0  0  0  0  0  0  0
   19.7766  -19.1300    5.6413 N   0  0  0  0  0  0  0  0  0  0  0  0
   20.8245  -19.5801    7.7736 C   0  0  0  0  0  0  0  0  0  0  0  0
   21.6765  -18.6984    7.4780 O   0  0  0  0  0  0  0  0  0  0  0  0
   22.0279  -22.4736    7.8473 C   0  0  0  0  0  0  0  0  0  0  0  0
   22.2172  -23.4796    8.7527 C   0  0  0  0  0  0  0  0  0  0  0  0
   20.7174  -19.9371    9.1025 O   0  0  0  0  0  0  0  0  0  0  0  0
  2  1  1  6
  3  4  1  0
  3  2  1  0
  4  5  2  0
  6  2  1  0
  6  7  2  0
  8  4  1  0
 10  9  1  0
 11 10  1  0
 12 11  1  0
 13 14  1  0
 13 12  1  1
 14  6  1  0
 15 24  1  0
 15 13  1  0
 16 15  2  0
 18 19  2  0
 18 17  1  0
 20 19  1  0
 21 20  2  0
 22 21  1  0
 23 24  1  0
 23 22  1  6
 25 23  1  0
 26 25  2  0
 27 21  1  0
 27 28  2  0
 28 18  1  0
 29 25  1  0
M  END
$$$$
