DMY.pdb
     RDKit          3D

 29 29  0  0  1  0  0  0  0  0999 V2000
   21.4232  -13.5304  -18.6357 N   0  0  0  0  0  0  0  0  0  0  0  0
   20.3745  -12.5459  -18.4571 C   0  0  1  0  0  0  0  0  0  0  0  0
   19.2471  -13.0890  -17.5903 C   0  0  0  0  0  0  0  0  0  0  0  0
   18.6240  -14.1881  -18.3507 C   0  0  0  0  0  0  0  0  0  0  0  0
   18.0962  -15.1299  -17.7342 O   0  0  0  0  0  0  0  0  0  0  0  0
   20.9668  -11.3059  -17.9070 C   0  0  0  0  0  0  0  0  0  0  0  0
   21.3830  -11.2509  -16.7236 O   0  0  0  0  0  0  0  0  0  0  0  0
   18.6174  -14.1803  -19.7325 O   0  0  0  0  0  0  0  0  0  0  0  0
   20.9819   -4.3564  -19.9478 C   0  0  0  0  0  0  0  0  0  0  0  0
   22.4299   -5.4260  -20.2734 S   0  0  0  0  0  0  0  0  0  0  0  0
   22.5205   -6.6576  -18.9155 C   0  0  0  0  0  0  0  0  0  0  0  0
   21.8115   -7.9264  -19.3558 C   0  0  0  0  0  0  0  0  0  0  0  0
   21.7466   -8.9159  -18.2153 C   0  0  2  0  0  0  0  0  0  0  0  0
   21.0980  -10.1177  -18.6830 N   0  0  0  0  0  0  0  0  0  0  0  0
   21.0224   -8.3399  -17.0501 C   0  0  0  0  0  0  0  0  0  0  0  0
   19.7658   -8.3615  -17.0969 O   0  0  0  0  0  0  0  0  0  0  0  0
   18.3186   -6.0526   -9.1384 O   0  0  0  0  0  0  0  0  0  0  0  0
   19.0868   -6.4803  -10.1992 C   0  0  0  0  0  0  0  0  0  0  0  0
   19.9184   -5.5568  -10.8093 C   0  0  0  0  0  0  0  0  0  0  0  0
   20.7016   -5.9491  -11.8714 C   0  0  0  0  0  0  0  0  0  0  0  0
   20.7029   -7.2339  -12.3699 C   0  0  0  0  0  0  0  0  0  0  0  0
   21.5363   -7.6319  -13.5224 C   0  0  0  0  0  0  0  0  0  0  0  0
   20.8582   -7.2631  -14.8104 C   0  0  2  0  0  0  0  0  0  0  0  0
   21.6578   -7.7887  -15.9339 N   0  0  0  0  0  0  0  0  0  0  0  0
   20.7358   -5.7889  -14.9347 C   0  0  0  0  0  0  0  0  0  0  0  0
   19.5935   -5.2746  -14.7883 O   0  0  0  0  0  0  0  0  0  0  0  0
   19.8545   -8.1338  -11.7309 C   0  0  0  0  0  0  0  0  0  0  0  0
   19.0667   -7.7706  -10.6748 C   0  0  0  0  0  0  0  0  0  0  0  0
   21.7867   -4.9335  -15.1965 O   0  0  0  0  0  0  0  0  0  0  0  0
  2  1  1  1
  3  4  1  0
  3  2  1  0
  4  5  2  0
  6  2  1  0
  6  7  2  0
  8  4  1  0
 10  9  1  0
 11 10  1  0
 12 11  1  0
 13 14  1  0
 13 12  1  6
 14  6  1  0
 15 24  1  0
 15 13  1  0
 16 15  2  0
 18 19  2  0
 18 17  1  0
 20 19  1  0
 21 20  2  0
 22 21  1  0
 23 24  1  0
 23 22  1  1
 25 23  1  0
 26 25  2  0
 27 21  1  0
 27 28  2  0
 28 18  1  0
 29 25  1  0
M  END
$$$$
