DMY.pdb
     RDKit          3D

 29 29  0  0  1  0  0  0  0  0999 V2000
   27.7482  -22.0618  -15.9694 N   0  0  0  0  0  0  0  0  0  0  0  0
   27.3699  -20.9504  -15.1194 C   0  0  1  0  0  0  0  0  0  0  0  0
   26.6299  -19.8781  -15.9067 C   0  0  0  0  0  0  0  0  0  0  0  0
   27.6253  -19.2428  -16.7901 C   0  0  0  0  0  0  0  0  0  0  0  0
   27.2346  -18.5330  -17.7330 O   0  0  0  0  0  0  0  0  0  0  0  0
   26.5794  -21.4644  -13.9783 C   0  0  0  0  0  0  0  0  0  0  0  0
   25.7113  -22.3579  -14.1359 O   0  0  0  0  0  0  0  0  0  0  0  0
   28.9788  -19.4242  -16.5797 O   0  0  0  0  0  0  0  0  0  0  0  0
   27.8462  -20.7616   -7.4571 C   0  0  0  0  0  0  0  0  0  0  0  0
   26.1605  -20.0746   -7.6394 S   0  0  0  0  0  0  0  0  0  0  0  0
   25.4273  -20.8101   -9.1528 C   0  0  0  0  0  0  0  0  0  0  0  0
   26.3416  -20.5222  -10.3307 C   0  0  0  0  0  0  0  0  0  0  0  0
   25.8024  -21.1687  -11.5859 C   0  0  2  0  0  0  0  0  0  0  0  0
   26.7590  -20.9795  -12.6502 N   0  0  0  0  0  0  0  0  0  0  0  0
   24.4784  -20.5979  -11.9533 C   0  0  0  0  0  0  0  0  0  0  0  0
   24.4592  -19.3894  -12.3012 O   0  0  0  0  0  0  0  0  0  0  0  0
   16.5487  -19.2771  -15.2244 O   0  0  0  0  0  0  0  0  0  0  0  0
   17.7851  -19.7586  -14.8530 C   0  0  0  0  0  0  0  0  0  0  0  0
   17.8327  -20.9663  -14.1779 C   0  0  0  0  0  0  0  0  0  0  0  0
   19.0510  -21.4789  -13.7926 C   0  0  0  0  0  0  0  0  0  0  0  0
   20.2474  -20.8439  -14.0463 C   0  0  0  0  0  0  0  0  0  0  0  0
   21.5438  -21.3999  -13.6087 C   0  0  0  0  0  0  0  0  0  0  0  0
   22.0255  -20.6944  -12.3739 C   0  0  2  0  0  0  0  0  0  0  0  0
   23.2843  -21.3237  -11.9295 N   0  0  0  0  0  0  0  0  0  0  0  0
   21.0150  -20.7858  -11.2903 C   0  0  0  0  0  0  0  0  0  0  0  0
   21.0159  -21.8174  -10.5646 O   0  0  0  0  0  0  0  0  0  0  0  0
   20.1595  -19.6327  -14.7269 C   0  0  0  0  0  0  0  0  0  0  0  0
   18.9633  -19.1016  -15.1205 C   0  0  0  0  0  0  0  0  0  0  0  0
   20.0710  -19.8178  -11.0137 O   0  0  0  0  0  0  0  0  0  0  0  0
  2  1  1  6
  3  4  1  0
  3  2  1  0
  4  5  2  0
  6  2  1  0
  6  7  2  0
  8  4  1  0
 10  9  1  0
 11 10  1  0
 12 11  1  0
 13 14  1  0
 13 12  1  1
 14  6  1  0
 15 24  1  0
 15 13  1  0
 16 15  2  0
 18 19  2  0
 18 17  1  0
 20 19  1  0
 21 20  2  0
 22 21  1  0
 23 24  1  0
 23 22  1  6
 25 23  1  0
 26 25  2  0
 27 21  1  0
 27 28  2  0
 28 18  1  0
 29 25  1  0
M  END
$$$$
