DMY.pdb
     RDKit          3D

 29 29  0  0  1  0  0  0  0  0999 V2000
   17.2885  -14.5377  -17.3067 N   0  0  0  0  0  0  0  0  0  0  0  0
   16.6317  -13.6210  -16.3961 C   0  0  1  0  0  0  0  0  0  0  0  0
   17.1351  -13.8008  -14.9707 C   0  0  0  0  0  0  0  0  0  0  0  0
   16.7220  -15.1512  -14.5460 C   0  0  0  0  0  0  0  0  0  0  0  0
   15.5204  -15.4649  -14.6047 O   0  0  0  0  0  0  0  0  0  0  0  0
   16.8122  -12.2380  -16.8918 C   0  0  0  0  0  0  0  0  0  0  0  0
   17.9049  -11.8570  -17.3792 O   0  0  0  0  0  0  0  0  0  0  0  0
   17.6510  -16.0667  -14.0900 O   0  0  0  0  0  0  0  0  0  0  0  0
   13.0405   -5.4710  -18.6422 C   0  0  0  0  0  0  0  0  0  0  0  0
   12.8908   -7.2233  -18.1386 S   0  0  0  0  0  0  0  0  0  0  0  0
   14.5910   -7.8911  -17.9585 C   0  0  0  0  0  0  0  0  0  0  0  0
   14.5046   -9.3329  -17.4891 C   0  0  0  0  0  0  0  0  0  0  0  0
   15.8883   -9.9243  -17.3481 C   0  0  2  0  0  0  0  0  0  0  0  0
   15.7654  -11.2719  -16.8455 N   0  0  0  0  0  0  0  0  0  0  0  0
   16.7331   -9.0955  -16.4464 C   0  0  0  0  0  0  0  0  0  0  0  0
   16.5566   -9.2436  -15.2100 O   0  0  0  0  0  0  0  0  0  0  0  0
   22.9165   -3.7747  -13.1876 O   0  0  0  0  0  0  0  0  0  0  0  0
   22.1758   -4.6456  -13.9566 C   0  0  0  0  0  0  0  0  0  0  0  0
   21.9660   -5.9231  -13.4664 C   0  0  0  0  0  0  0  0  0  0  0  0
   21.2292   -6.8198  -14.2071 C   0  0  0  0  0  0  0  0  0  0  0  0
   20.6795   -6.5098  -15.4322 C   0  0  0  0  0  0  0  0  0  0  0  0
   19.9075   -7.4909  -16.2213 C   0  0  0  0  0  0  0  0  0  0  0  0
   18.4402   -7.3565  -15.9320 C   0  0  2  0  0  0  0  0  0  0  0  0
   17.6895   -8.1819  -16.8980 N   0  0  0  0  0  0  0  0  0  0  0  0
   18.0106   -5.9404  -16.0492 C   0  0  0  0  0  0  0  0  0  0  0  0
   17.6383   -5.5258  -17.1807 O   0  0  0  0  0  0  0  0  0  0  0  0
   20.9115   -5.2164  -15.8919 C   0  0  0  0  0  0  0  0  0  0  0  0
   21.6392   -4.3070  -15.1769 C   0  0  0  0  0  0  0  0  0  0  0  0
   17.9844   -5.0391  -15.0044 O   0  0  0  0  0  0  0  0  0  0  0  0
  2  1  1  6
  3  4  1  0
  3  2  1  0
  4  5  2  0
  6  2  1  0
  6  7  2  0
  8  4  1  0
 10  9  1  0
 11 10  1  0
 12 11  1  0
 13 14  1  0
 13 12  1  1
 14  6  1  0
 15 24  1  0
 15 13  1  0
 16 15  2  0
 18 19  2  0
 18 17  1  0
 20 19  1  0
 21 20  2  0
 22 21  1  0
 23 24  1  0
 23 22  1  6
 25 23  1  0
 26 25  2  0
 27 21  1  0
 27 28  2  0
 28 18  1  0
 29 25  1  0
M  END
$$$$
