YMM.pdb
     RDKit          3D

 29 29  0  0  1  0  0  0  0  0999 V2000
   30.9728  -17.1697  -19.5071 O   0  0  0  0  0  0  0  0  0  0  0  0
   29.9762  -17.7362  -18.7001 C   0  0  0  0  0  0  0  0  0  0  0  0
   30.1229  -17.8507  -17.3363 C   0  0  0  0  0  0  0  0  0  0  0  0
   29.1337  -18.4099  -16.5564 C   0  0  0  0  0  0  0  0  0  0  0  0
   27.9492  -18.8822  -17.1015 C   0  0  0  0  0  0  0  0  0  0  0  0
   26.8707  -19.4877  -16.2817 C   0  0  0  0  0  0  0  0  0  0  0  0
   27.4461  -20.6998  -15.5910 C   0  0  2  0  0  0  0  0  0  0  0  0
   27.6871  -21.7073  -16.6027 N   0  0  0  0  0  0  0  0  0  0  0  0
   26.5592  -21.1976  -14.5107 C   0  0  0  0  0  0  0  0  0  0  0  0
   25.6500  -22.0251  -14.7179 O   0  0  0  0  0  0  0  0  0  0  0  0
   27.8007  -18.7687  -18.4664 C   0  0  0  0  0  0  0  0  0  0  0  0
   28.8040  -18.2012  -19.2592 C   0  0  0  0  0  0  0  0  0  0  0  0
   23.9136  -21.7092   -7.7666 C   0  0  0  0  0  0  0  0  0  0  0  0
   25.0849  -21.8490   -9.1352 S   0  0  0  0  0  0  0  0  0  0  0  0
   25.3427  -20.1552   -9.8045 C   0  0  0  0  0  0  0  0  0  0  0  0
   26.3229  -20.2818  -10.9328 C   0  0  0  0  0  0  0  0  0  0  0  0
   25.7482  -20.9778  -12.1637 C   0  0  2  0  0  0  0  0  0  0  0  0
   26.7789  -20.6943  -13.2009 N   0  0  0  0  0  0  0  0  0  0  0  0
   24.4992  -20.3428  -12.6503 C   0  0  0  0  0  0  0  0  0  0  0  0
   24.5638  -19.2216  -13.2738 O   0  0  0  0  0  0  0  0  0  0  0  0
   19.6617  -19.6574  -17.7585 C   0  0  0  0  0  0  0  0  0  0  0  0
   20.8949  -20.4950  -16.7153 S   0  0  0  0  0  0  0  0  0  0  0  0
   21.2608  -19.3811  -15.3019 C   0  0  0  0  0  0  0  0  0  0  0  0
   22.3845  -20.0144  -14.5500 C   0  0  0  0  0  0  0  0  0  0  0  0
   22.0606  -20.1906  -13.1012 C   0  0  2  0  0  0  0  0  0  0  0  0
   23.2132  -20.8655  -12.4945 N   0  0  0  0  0  0  0  0  0  0  0  0
   20.8702  -20.9848  -12.8093 C   0  0  0  0  0  0  0  0  0  0  0  0
   20.9517  -22.2137  -12.6081 O   0  0  0  0  0  0  0  0  0  0  0  0
   19.6244  -20.3917  -12.7478 O   0  0  0  0  0  0  0  0  0  0  0  0
  2 12  2  0
  2  1  1  0
  3  2  1  0
  4  5  1  0
  4  3  2  0
  5 11  2  0
  6  5  1  0
  6  7  1  0
  7  9  1  0
  7  8  1  6
  9 18  1  0
 10  9  2  0
 11 12  1  0
 13 14  1  0
 14 15  1  0
 16 15  1  0
 17 16  1  1
 18 17  1  0
 19 17  1  0
 19 20  2  0
 22 21  1  0
 22 23  1  0
 23 24  1  0
 25 24  1  6
 25 27  1  0
 26 25  1  0
 26 19  1  0
 27 28  2  0
 27 29  1  0
M  END
$$$$
