YMM.pdb
     RDKit          3D

 29 29  0  0  1  0  0  0  0  0999 V2000
   19.7592  -17.7341  -16.2461 O   0  0  0  0  0  0  0  0  0  0  0  0
   20.5216  -18.5556  -15.4037 C   0  0  0  0  0  0  0  0  0  0  0  0
   20.6518  -19.9071  -15.6295 C   0  0  0  0  0  0  0  0  0  0  0  0
   21.4051  -20.7014  -14.7921 C   0  0  0  0  0  0  0  0  0  0  0  0
   22.0654  -20.1837  -13.6880 C   0  0  0  0  0  0  0  0  0  0  0  0
   22.8818  -21.0194  -12.7731 C   0  0  0  0  0  0  0  0  0  0  0  0
   24.3335  -20.7866  -13.1132 C   0  0  2  0  0  0  0  0  0  0  0  0
   24.5679  -21.3354  -14.4325 N   0  0  0  0  0  0  0  0  0  0  0  0
   25.2433  -21.3720  -12.0978 C   0  0  0  0  0  0  0  0  0  0  0  0
   25.2658  -22.5920  -11.8421 O   0  0  0  0  0  0  0  0  0  0  0  0
   21.9360  -18.8312  -13.4603 C   0  0  0  0  0  0  0  0  0  0  0  0
   21.1717  -18.0237  -14.3094 C   0  0  0  0  0  0  0  0  0  0  0  0
   31.4780  -21.1958  -10.4448 C   0  0  0  0  0  0  0  0  0  0  0  0
   30.6716  -21.2807  -12.0594 S   0  0  0  0  0  0  0  0  0  0  0  0
   28.9122  -21.7291  -11.7648 C   0  0  0  0  0  0  0  0  0  0  0  0
   28.3668  -20.7220  -10.7963 C   0  0  0  0  0  0  0  0  0  0  0  0
   26.9542  -21.0426  -10.3149 C   0  0  2  0  0  0  0  0  0  0  0  0
   26.1102  -20.4836  -11.4076 N   0  0  0  0  0  0  0  0  0  0  0  0
   26.5814  -20.2916   -9.0913 C   0  0  0  0  0  0  0  0  0  0  0  0
   26.1519  -19.0857   -9.1984 O   0  0  0  0  0  0  0  0  0  0  0  0
   27.3079  -20.1470   -1.2649 C   0  0  0  0  0  0  0  0  0  0  0  0
   27.0892  -21.1055   -2.7959 S   0  0  0  0  0  0  0  0  0  0  0  0
   27.0439  -19.9080   -4.1875 C   0  0  0  0  0  0  0  0  0  0  0  0
   26.7563  -20.7054   -5.4166 C   0  0  0  0  0  0  0  0  0  0  0  0
   26.8164  -19.8691   -6.6543 C   0  0  2  0  0  0  0  0  0  0  0  0
   26.6508  -20.7866   -7.7869 N   0  0  0  0  0  0  0  0  0  0  0  0
   28.0561  -19.1243   -6.8571 C   0  0  0  0  0  0  0  0  0  0  0  0
   29.0161  -19.6308   -7.4730 O   0  0  0  0  0  0  0  0  0  0  0  0
   28.1939  -17.8385   -6.3718 O   0  0  0  0  0  0  0  0  0  0  0  0
  2 12  2  0
  2  1  1  0
  3  2  1  0
  4  5  1  0
  4  3  2  0
  5 11  2  0
  6  5  1  0
  6  7  1  0
  7  9  1  0
  7  8  1  6
  9 18  1  0
 10  9  2  0
 11 12  1  0
 13 14  1  0
 14 15  1  0
 16 15  1  0
 17 16  1  6
 18 17  1  0
 19 17  1  0
 19 20  2  0
 22 21  1  0
 22 23  1  0
 23 24  1  0
 25 24  1  1
 25 27  1  0
 26 25  1  0
 26 19  1  0
 27 28  2  0
 27 29  1  0
M  END
$$$$
