YMM.pdb
     RDKit          3D

 29 29  0  0  1  0  0  0  0  0999 V2000
   31.2438  -22.2536  -18.9924 O   0  0  0  0  0  0  0  0  0  0  0  0
   30.4483  -21.5381  -18.0863 C   0  0  0  0  0  0  0  0  0  0  0  0
   30.0844  -20.2302  -18.3137 C   0  0  0  0  0  0  0  0  0  0  0  0
   29.3016  -19.5403  -17.4133 C   0  0  0  0  0  0  0  0  0  0  0  0
   28.8441  -20.1238  -16.2414 C   0  0  0  0  0  0  0  0  0  0  0  0
   28.0004  -19.4007  -15.2580 C   0  0  0  0  0  0  0  0  0  0  0  0
   26.6517  -20.0770  -15.2267 C   0  0  2  0  0  0  0  0  0  0  0  0
   25.9673  -19.7468  -16.4593 N   0  0  0  0  0  0  0  0  0  0  0  0
   25.8627  -19.6891  -14.0315 C   0  0  0  0  0  0  0  0  0  0  0  0
   25.3747  -18.5504  -13.8912 O   0  0  0  0  0  0  0  0  0  0  0  0
   29.2075  -21.4327  -16.0121 C   0  0  0  0  0  0  0  0  0  0  0  0
   30.0020  -22.1342  -16.9252 C   0  0  0  0  0  0  0  0  0  0  0  0
   21.3611  -22.6533  -12.3103 C   0  0  0  0  0  0  0  0  0  0  0  0
   21.0228  -20.9611  -12.8453 S   0  0  0  0  0  0  0  0  0  0  0  0
   22.6010  -20.0252  -12.7167 C   0  0  0  0  0  0  0  0  0  0  0  0
   23.5726  -20.9145  -11.9991 C   0  0  0  0  0  0  0  0  0  0  0  0
   24.9432  -20.2759  -11.7900 C   0  0  2  0  0  0  0  0  0  0  0  0
   25.6727  -20.6740  -13.0261 N   0  0  0  0  0  0  0  0  0  0  0  0
   25.6931  -20.8842  -10.6640 C   0  0  0  0  0  0  0  0  0  0  0  0
   25.8685  -22.1565  -10.6381 O   0  0  0  0  0  0  0  0  0  0  0  0
   30.4410  -19.6299   -6.6007 C   0  0  0  0  0  0  0  0  0  0  0  0
   29.0314  -19.4901   -5.4588 S   0  0  0  0  0  0  0  0  0  0  0  0
   27.6603  -20.4909   -6.1595 C   0  0  0  0  0  0  0  0  0  0  0  0
   27.4722  -20.0183   -7.5632 C   0  0  0  0  0  0  0  0  0  0  0  0
   26.4814  -20.8539   -8.3081 C   0  0  2  0  0  0  0  0  0  0  0  0
   26.2505  -20.1831   -9.5921 N   0  0  0  0  0  0  0  0  0  0  0  0
   25.1869  -21.0348   -7.6566 C   0  0  0  0  0  0  0  0  0  0  0  0
   25.0168  -21.9296   -6.8036 O   0  0  0  0  0  0  0  0  0  0  0  0
   24.1193  -20.2163   -7.9697 O   0  0  0  0  0  0  0  0  0  0  0  0
  2 12  2  0
  2  1  1  0
  3  2  1  0
  4  5  1  0
  4  3  2  0
  5 11  2  0
  6  5  1  0
  6  7  1  0
  7  9  1  0
  7  8  1  6
  9 18  1  0
 10  9  2  0
 11 12  1  0
 13 14  1  0
 14 15  1  0
 16 15  1  0
 17 16  1  6
 18 17  1  0
 19 17  1  0
 19 20  2  0
 22 21  1  0
 22 23  1  0
 23 24  1  0
 25 24  1  1
 25 27  1  0
 26 25  1  0
 26 19  1  0
 27 28  2  0
 27 29  1  0
M  END
$$$$
