YMM.pdb
     RDKit          3D

 29 29  0  0  1  0  0  0  0  0999 V2000
   30.1178  -16.3994  -19.0972 O   0  0  0  0  0  0  0  0  0  0  0  0
   29.2564  -17.1543  -18.2885 C   0  0  0  0  0  0  0  0  0  0  0  0
   29.2042  -16.9831  -16.9238 C   0  0  0  0  0  0  0  0  0  0  0  0
   28.3518  -17.7330  -16.1424 C   0  0  0  0  0  0  0  0  0  0  0  0
   27.5097  -18.6909  -16.6869 C   0  0  0  0  0  0  0  0  0  0  0  0
   26.5839  -19.5095  -15.8655 C   0  0  0  0  0  0  0  0  0  0  0  0
   27.4187  -20.4717  -15.0563 C   0  0  2  0  0  0  0  0  0  0  0  0
   27.9946  -21.4316  -15.9749 N   0  0  0  0  0  0  0  0  0  0  0  0
   26.6285  -21.1303  -13.9871 C   0  0  0  0  0  0  0  0  0  0  0  0
   25.9123  -22.1282  -14.2010 O   0  0  0  0  0  0  0  0  0  0  0  0
   27.5607  -18.8637  -18.0527 C   0  0  0  0  0  0  0  0  0  0  0  0
   28.4254  -18.1033  -18.8470 C   0  0  0  0  0  0  0  0  0  0  0  0
   28.0638  -20.6966   -7.7209 C   0  0  0  0  0  0  0  0  0  0  0  0
   26.3805  -20.0402   -7.7140 S   0  0  0  0  0  0  0  0  0  0  0  0
   25.5017  -20.7837   -9.1487 C   0  0  0  0  0  0  0  0  0  0  0  0
   26.3257  -20.4787  -10.3644 C   0  0  0  0  0  0  0  0  0  0  0  0
   25.7745  -21.0993  -11.6454 C   0  0  2  0  0  0  0  0  0  0  0  0
   26.7116  -20.5805  -12.6802 N   0  0  0  0  0  0  0  0  0  0  0  0
   24.4372  -20.5706  -12.0089 C   0  0  0  0  0  0  0  0  0  0  0  0
   24.3518  -19.4655  -12.6582 O   0  0  0  0  0  0  0  0  0  0  0  0
   22.5270  -22.3341  -16.3813 C   0  0  0  0  0  0  0  0  0  0  0  0
   20.7608  -22.1533  -15.9834 S   0  0  0  0  0  0  0  0  0  0  0  0
   20.6497  -21.2200  -14.4057 C   0  0  0  0  0  0  0  0  0  0  0  0
   21.9306  -21.4701  -13.6805 C   0  0  0  0  0  0  0  0  0  0  0  0
   21.9859  -20.7455  -12.3741 C   0  0  2  0  0  0  0  0  0  0  0  0
   23.2175  -21.1807  -11.7066 N   0  0  0  0  0  0  0  0  0  0  0  0
   20.8706  -20.9922  -11.4641 C   0  0  0  0  0  0  0  0  0  0  0  0
   19.7752  -20.4149  -11.6196 O   0  0  0  0  0  0  0  0  0  0  0  0
   21.0029  -21.8734  -10.4088 O   0  0  0  0  0  0  0  0  0  0  0  0
  2 12  2  0
  2  1  1  0
  3  2  1  0
  4  5  1  0
  4  3  2  0
  5 11  2  0
  6  5  1  0
  6  7  1  0
  7  9  1  0
  7  8  1  6
  9 18  1  0
 10  9  2  0
 11 12  1  0
 13 14  1  0
 14 15  1  0
 16 15  1  0
 17 16  1  1
 18 17  1  0
 19 17  1  0
 19 20  2  0
 22 21  1  0
 22 23  1  0
 23 24  1  0
 25 24  1  6
 25 27  1  0
 26 25  1  0
 26 19  1  0
 27 28  2  0
 27 29  1  0
M  END
$$$$
