YMM.pdb
     RDKit          3D

 29 29  0  0  1  0  0  0  0  0999 V2000
   19.2552  -10.9999    4.0665 O   0  0  0  0  0  0  0  0  0  0  0  0
   19.2398  -12.2586    4.6838 C   0  0  0  0  0  0  0  0  0  0  0  0
   19.0994  -13.4213    3.9606 C   0  0  0  0  0  0  0  0  0  0  0  0
   19.0863  -14.6513    4.5823 C   0  0  0  0  0  0  0  0  0  0  0  0
   19.2130  -14.7795    5.9573 C   0  0  0  0  0  0  0  0  0  0  0  0
   19.2018  -16.0928    6.6479 C   0  0  0  0  0  0  0  0  0  0  0  0
   17.8092  -16.6615    6.5278 C   0  0  2  0  0  0  0  0  0  0  0  0
   16.9204  -15.8080    7.2883 N   0  0  0  0  0  0  0  0  0  0  0  0
   17.7444  -18.0737    6.9784 C   0  0  0  0  0  0  0  0  0  0  0  0
   17.3193  -18.3991    8.1043 O   0  0  0  0  0  0  0  0  0  0  0  0
   19.3535  -13.6167    6.6827 C   0  0  0  0  0  0  0  0  0  0  0  0
   19.3669  -12.3676    6.0531 C   0  0  0  0  0  0  0  0  0  0  0  0
   18.5663  -25.3228    4.0794 C   0  0  0  0  0  0  0  0  0  0  0  0
   18.5262  -23.5340    3.8287 S   0  0  0  0  0  0  0  0  0  0  0  0
   18.4906  -22.7529    5.4937 C   0  0  0  0  0  0  0  0  0  0  0  0
   18.3657  -21.2744    5.2739 C   0  0  0  0  0  0  0  0  0  0  0  0
   18.2975  -20.4697    6.5692 C   0  0  2  0  0  0  0  0  0  0  0  0
   18.1904  -19.0704    6.0702 N   0  0  0  0  0  0  0  0  0  0  0  0
   19.5596  -20.5266    7.3464 C   0  0  0  0  0  0  0  0  0  0  0  0
   20.5736  -19.8437    6.9523 O   0  0  0  0  0  0  0  0  0  0  0  0
   22.8124  -16.9688   10.4964 C   0  0  0  0  0  0  0  0  0  0  0  0
   22.0586  -18.1229   11.6839 S   0  0  0  0  0  0  0  0  0  0  0  0
   22.1560  -19.8030   10.9488 C   0  0  0  0  0  0  0  0  0  0  0  0
   20.9996  -19.9172   10.0113 C   0  0  0  0  0  0  0  0  0  0  0  0
   21.0329  -21.1929    9.2327 C   0  0  2  0  0  0  0  0  0  0  0  0
   19.7593  -21.2744    8.5093 N   0  0  0  0  0  0  0  0  0  0  0  0
   21.1805  -22.4135   10.0209 C   0  0  0  0  0  0  0  0  0  0  0  0
   20.1815  -23.0200   10.4586 O   0  0  0  0  0  0  0  0  0  0  0  0
   22.4325  -22.9262   10.2994 O   0  0  0  0  0  0  0  0  0  0  0  0
  2 12  2  0
  2  1  1  0
  3  2  1  0
  4  5  1  0
  4  3  2  0
  5 11  2  0
  6  5  1  0
  6  7  1  0
  7  9  1  0
  7  8  1  1
  9 18  1  0
 10  9  2  0
 11 12  1  0
 13 14  1  0
 14 15  1  0
 16 15  1  0
 17 16  1  6
 18 17  1  0
 19 17  1  0
 19 20  2  0
 22 21  1  0
 22 23  1  0
 23 24  1  0
 25 24  1  1
 25 27  1  0
 26 25  1  0
 26 19  1  0
 27 28  2  0
 27 29  1  0
M  END
$$$$
