YMM.pdb
     RDKit          3D

 29 29  0  0  1  0  0  0  0  0999 V2000
   27.0991  -12.0124  -17.8824 O   0  0  0  0  0  0  0  0  0  0  0  0
   26.8319  -13.3093  -17.4217 C   0  0  0  0  0  0  0  0  0  0  0  0
   26.3062  -14.2792  -18.2448 C   0  0  0  0  0  0  0  0  0  0  0  0
   26.0492  -15.5499  -17.7769 C   0  0  0  0  0  0  0  0  0  0  0  0
   26.3053  -15.9134  -16.4633 C   0  0  0  0  0  0  0  0  0  0  0  0
   26.0369  -17.2749  -15.9378 C   0  0  0  0  0  0  0  0  0  0  0  0
   27.3613  -17.9882  -15.8164 C   0  0  2  0  0  0  0  0  0  0  0  0
   27.8565  -18.2237  -17.1566 N   0  0  0  0  0  0  0  0  0  0  0  0
   27.2462  -19.2457  -15.0373 C   0  0  0  0  0  0  0  0  0  0  0  0
   26.7431  -20.2836  -15.5104 O   0  0  0  0  0  0  0  0  0  0  0  0
   26.8313  -14.9438  -15.6381 C   0  0  0  0  0  0  0  0  0  0  0  0
   27.0926  -13.6537  -16.1116 C   0  0  0  0  0  0  0  0  0  0  0  0
   31.6028  -21.2013  -11.0253 C   0  0  0  0  0  0  0  0  0  0  0  0
   30.2127  -21.2895   -9.8746 S   0  0  0  0  0  0  0  0  0  0  0  0
   28.6863  -21.4896  -10.8813 C   0  0  0  0  0  0  0  0  0  0  0  0
   28.7405  -20.4472  -11.9586 C   0  0  0  0  0  0  0  0  0  0  0  0
   27.5179  -20.4516  -12.8725 C   0  0  2  0  0  0  0  0  0  0  0  0
   27.7371  -19.2358  -13.7046 N   0  0  0  0  0  0  0  0  0  0  0  0
   26.2517  -20.2155  -12.1369 C   0  0  0  0  0  0  0  0  0  0  0  0
   25.7032  -19.0549  -12.1830 O   0  0  0  0  0  0  0  0  0  0  0  0
   20.8388  -20.5043  -14.1691 C   0  0  0  0  0  0  0  0  0  0  0  0
   20.8247  -21.8097  -12.9018 S   0  0  0  0  0  0  0  0  0  0  0  0
   21.8466  -21.2164  -11.4960 C   0  0  0  0  0  0  0  0  0  0  0  0
   23.2694  -21.3407  -11.9311 C   0  0  0  0  0  0  0  0  0  0  0  0
   24.2214  -20.8866  -10.8717 C   0  0  2  0  0  0  0  0  0  0  0  0
   25.5707  -21.1673  -11.3742 N   0  0  0  0  0  0  0  0  0  0  0  0
   24.0818  -21.5376   -9.5719 C   0  0  0  0  0  0  0  0  0  0  0  0
   24.8811  -22.4245   -9.2088 O   0  0  0  0  0  0  0  0  0  0  0  0
   23.0599  -21.1844   -8.7123 O   0  0  0  0  0  0  0  0  0  0  0  0
  2 12  2  0
  2  1  1  0
  3  2  1  0
  4  5  1  0
  4  3  2  0
  5 11  2  0
  6  5  1  0
  6  7  1  0
  7  9  1  0
  7  8  1  6
  9 18  1  0
 10  9  2  0
 11 12  1  0
 13 14  1  0
 14 15  1  0
 16 15  1  0
 17 16  1  1
 18 17  1  0
 19 17  1  0
 19 20  2  0
 22 21  1  0
 22 23  1  0
 23 24  1  0
 25 24  1  6
 25 27  1  0
 26 25  1  0
 26 19  1  0
 27 28  2  0
 27 29  1  0
M  END
$$$$
