YMM.pdb
     RDKit          3D

 29 29  0  0  1  0  0  0  0  0999 V2000
   15.1720  -23.2845  -15.4638 O   0  0  0  0  0  0  0  0  0  0  0  0
   16.3209  -22.8327  -14.7994 C   0  0  0  0  0  0  0  0  0  0  0  0
   16.5720  -21.4926  -14.6108 C   0  0  0  0  0  0  0  0  0  0  0  0
   17.7061  -21.0642  -13.9552 C   0  0  0  0  0  0  0  0  0  0  0  0
   18.6450  -21.9544  -13.4560 C   0  0  0  0  0  0  0  0  0  0  0  0
   19.8727  -21.5162  -12.7471 C   0  0  0  0  0  0  0  0  0  0  0  0
   20.8849  -21.1125  -13.7910 C   0  0  2  0  0  0  0  0  0  0  0  0
   21.2833  -22.3099  -14.5011 N   0  0  0  0  0  0  0  0  0  0  0  0
   22.0464  -20.4067  -13.1958 C   0  0  0  0  0  0  0  0  0  0  0  0
   21.9672  -19.7679  -12.1280 O   0  0  0  0  0  0  0  0  0  0  0  0
   18.3954  -23.2961  -13.6440 C   0  0  0  0  0  0  0  0  0  0  0  0
   17.2446  -23.7324  -14.3092 C   0  0  0  0  0  0  0  0  0  0  0  0
   24.1903  -20.7162   -8.7650 C   0  0  0  0  0  0  0  0  0  0  0  0
   25.6975  -21.2888   -9.5802 S   0  0  0  0  0  0  0  0  0  0  0  0
   25.8386  -20.3709  -11.1679 C   0  0  0  0  0  0  0  0  0  0  0  0
   24.6076  -20.6919  -11.9626 C   0  0  0  0  0  0  0  0  0  0  0  0
   24.4816  -19.8765  -13.2468 C   0  0  2  0  0  0  0  0  0  0  0  0
   23.2823  -20.4801  -13.8916 N   0  0  0  0  0  0  0  0  0  0  0  0
   25.6060  -20.1091  -14.1859 C   0  0  0  0  0  0  0  0  0  0  0  0
   26.7782  -19.6791  -13.8841 O   0  0  0  0  0  0  0  0  0  0  0  0
   30.5146  -24.3371  -17.7724 C   0  0  0  0  0  0  0  0  0  0  0  0
   29.2430  -23.9490  -16.5302 S   0  0  0  0  0  0  0  0  0  0  0  0
   28.5016  -22.3343  -16.9945 C   0  0  0  0  0  0  0  0  0  0  0  0
   27.3929  -22.0888  -16.0251 C   0  0  0  0  0  0  0  0  0  0  0  0
   26.6610  -20.8191  -16.3203 C   0  0  2  0  0  0  0  0  0  0  0  0
   25.5122  -20.7774  -15.4089 N   0  0  0  0  0  0  0  0  0  0  0  0
   26.1576  -20.6794  -17.6841 C   0  0  0  0  0  0  0  0  0  0  0  0
   26.9287  -20.4163  -18.6294 O   0  0  0  0  0  0  0  0  0  0  0  0
   24.8133  -20.8372  -17.9594 O   0  0  0  0  0  0  0  0  0  0  0  0
  2 12  2  0
  2  1  1  0
  3  2  1  0
  4  5  1  0
  4  3  2  0
  5 11  2  0
  6  5  1  0
  6  7  1  0
  7  9  1  0
  7  8  1  1
  9 18  1  0
 10  9  2  0
 11 12  1  0
 13 14  1  0
 14 15  1  0
 16 15  1  0
 17 16  1  1
 18 17  1  0
 19 17  1  0
 19 20  2  0
 22 21  1  0
 22 23  1  0
 23 24  1  0
 25 24  1  6
 25 27  1  0
 26 25  1  0
 26 19  1  0
 27 28  2  0
 27 29  1  0
M  END
$$$$
