YMM.pdb
     RDKit          3D

 29 29  0  0  1  0  0  0  0  0999 V2000
   17.8987  -25.5597  -15.0659 O   0  0  0  0  0  0  0  0  0  0  0  0
   18.9498  -24.6372  -14.9670 C   0  0  0  0  0  0  0  0  0  0  0  0
   18.8321  -23.3480  -15.4347 C   0  0  0  0  0  0  0  0  0  0  0  0
   19.8746  -22.4527  -15.3300 C   0  0  0  0  0  0  0  0  0  0  0  0
   21.0861  -22.8021  -14.7526 C   0  0  0  0  0  0  0  0  0  0  0  0
   22.2219  -21.8552  -14.6290 C   0  0  0  0  0  0  0  0  0  0  0  0
   22.3014  -21.4213  -13.1857 C   0  0  2  0  0  0  0  0  0  0  0  0
   21.0906  -20.6876  -12.8816 N   0  0  0  0  0  0  0  0  0  0  0  0
   23.5202  -20.6206  -12.9122 C   0  0  0  0  0  0  0  0  0  0  0  0
   23.5536  -19.3821  -13.0509 O   0  0  0  0  0  0  0  0  0  0  0  0
   21.2058  -24.0921  -14.2841 C   0  0  0  0  0  0  0  0  0  0  0  0
   20.1484  -25.0019  -14.3897 C   0  0  0  0  0  0  0  0  0  0  0  0
   27.4027  -20.0884   -7.8138 C   0  0  0  0  0  0  0  0  0  0  0  0
   25.8807  -21.0067   -8.1374 S   0  0  0  0  0  0  0  0  0  0  0  0
   25.2602  -20.4671   -9.7827 C   0  0  0  0  0  0  0  0  0  0  0  0
   26.2695  -20.9220  -10.7948 C   0  0  0  0  0  0  0  0  0  0  0  0
   25.9153  -20.5304  -12.2270 C   0  0  2  0  0  0  0  0  0  0  0  0
   24.6772  -21.3198  -12.4766 N   0  0  0  0  0  0  0  0  0  0  0  0
   26.9096  -21.0138  -13.2158 C   0  0  0  0  0  0  0  0  0  0  0  0
   27.1003  -22.2768  -13.3519 O   0  0  0  0  0  0  0  0  0  0  0  0
   24.0682  -21.2427  -17.1473 C   0  0  0  0  0  0  0  0  0  0  0  0
   25.3364  -22.2314  -17.9985 S   0  0  0  0  0  0  0  0  0  0  0  0
   26.9733  -21.6437  -17.4088 C   0  0  0  0  0  0  0  0  0  0  0  0
   26.7789  -21.2170  -15.9914 C   0  0  0  0  0  0  0  0  0  0  0  0
   28.0264  -20.6399  -15.4035 C   0  0  2  0  0  0  0  0  0  0  0  0
   27.6844  -20.2006  -14.0463 N   0  0  0  0  0  0  0  0  0  0  0  0
   28.5941  -19.4981  -16.1155 C   0  0  0  0  0  0  0  0  0  0  0  0
   28.1506  -18.3453  -15.9374 O   0  0  0  0  0  0  0  0  0  0  0  0
   29.6382  -19.6688  -17.0034 O   0  0  0  0  0  0  0  0  0  0  0  0
  2 12  2  0
  2  1  1  0
  3  2  1  0
  4  5  1  0
  4  3  2  0
  5 11  2  0
  6  5  1  0
  6  7  1  0
  7  9  1  0
  7  8  1  6
  9 18  1  0
 10  9  2  0
 11 12  1  0
 13 14  1  0
 14 15  1  0
 16 15  1  0
 17 16  1  1
 18 17  1  0
 19 17  1  0
 19 20  2  0
 22 21  1  0
 22 23  1  0
 23 24  1  0
 25 24  1  6
 25 27  1  0
 26 25  1  0
 26 19  1  0
 27 28  2  0
 27 29  1  0
M  END
$$$$
