YMM.pdb
     RDKit          3D

 29 29  0  0  1  0  0  0  0  0999 V2000
   17.4557  -19.1382  -13.8795 O   0  0  0  0  0  0  0  0  0  0  0  0
   18.6978  -19.7378  -13.6280 C   0  0  0  0  0  0  0  0  0  0  0  0
   18.8397  -21.1035  -13.5315 C   0  0  0  0  0  0  0  0  0  0  0  0
   20.0678  -21.6779  -13.2840 C   0  0  0  0  0  0  0  0  0  0  0  0
   21.2146  -20.9152  -13.1209 C   0  0  0  0  0  0  0  0  0  0  0  0
   22.5468  -21.5116  -12.8540 C   0  0  0  0  0  0  0  0  0  0  0  0
   23.5023  -20.9826  -13.8955 C   0  0  2  0  0  0  0  0  0  0  0  0
   23.0315  -21.4301  -15.1896 N   0  0  0  0  0  0  0  0  0  0  0  0
   24.8998  -21.4075  -13.6349 C   0  0  0  0  0  0  0  0  0  0  0  0
   25.3472  -22.5082  -14.0126 O   0  0  0  0  0  0  0  0  0  0  0  0
   21.0744  -19.5481  -13.2170 C   0  0  0  0  0  0  0  0  0  0  0  0
   19.8284  -18.9638  -13.4682 C   0  0  0  0  0  0  0  0  0  0  0  0
   27.1579  -16.7258  -14.6136 C   0  0  0  0  0  0  0  0  0  0  0  0
   28.4034  -17.8278  -15.3199 S   0  0  0  0  0  0  0  0  0  0  0  0
   27.9356  -19.5448  -14.8548 C   0  0  0  0  0  0  0  0  0  0  0  0
   27.8526  -19.5787  -13.3576 C   0  0  0  0  0  0  0  0  0  0  0  0
   27.1832  -20.8378  -12.8129 C   0  0  2  0  0  0  0  0  0  0  0  0
   25.7360  -20.5043  -12.9262 N   0  0  0  0  0  0  0  0  0  0  0  0
   27.4391  -21.0427  -11.3662 C   0  0  0  0  0  0  0  0  0  0  0  0
   28.0288  -22.1152  -10.9764 O   0  0  0  0  0  0  0  0  0  0  0  0
   29.8660  -19.2517   -5.5479 C   0  0  0  0  0  0  0  0  0  0  0  0
   28.1343  -18.7029   -5.6494 S   0  0  0  0  0  0  0  0  0  0  0  0
   27.2211  -19.9572   -6.6319 C   0  0  0  0  0  0  0  0  0  0  0  0
   27.5160  -19.6617   -8.0654 C   0  0  0  0  0  0  0  0  0  0  0  0
   26.8533  -20.6351   -8.9864 C   0  0  2  0  0  0  0  0  0  0  0  0
   27.0921  -20.1494  -10.3499 N   0  0  0  0  0  0  0  0  0  0  0  0
   25.4120  -20.7933   -8.8119 C   0  0  0  0  0  0  0  0  0  0  0  0
   24.6104  -20.3550   -9.6619 O   0  0  0  0  0  0  0  0  0  0  0  0
   24.9023  -21.4345   -7.6997 O   0  0  0  0  0  0  0  0  0  0  0  0
  2 12  2  0
  2  1  1  0
  3  2  1  0
  4  5  1  0
  4  3  2  0
  5 11  2  0
  6  5  1  0
  6  7  1  0
  7  9  1  0
  7  8  1  6
  9 18  1  0
 10  9  2  0
 11 12  1  0
 13 14  1  0
 14 15  1  0
 16 15  1  0
 17 16  1  1
 18 17  1  0
 19 17  1  0
 19 20  2  0
 22 21  1  0
 22 23  1  0
 23 24  1  0
 25 24  1  1
 25 27  1  0
 26 25  1  0
 26 19  1  0
 27 28  2  0
 27 29  1  0
M  END
$$$$
