YMM.pdb
     RDKit          3D

 29 29  0  0  1  0  0  0  0  0999 V2000
   17.2817  -25.1491  -15.3939 O   0  0  0  0  0  0  0  0  0  0  0  0
   18.3405  -24.2694  -15.1282 C   0  0  0  0  0  0  0  0  0  0  0  0
   19.3984  -24.6271  -14.3235 C   0  0  0  0  0  0  0  0  0  0  0  0
   20.4321  -23.7509  -14.0720 C   0  0  0  0  0  0  0  0  0  0  0  0
   20.4591  -22.4740  -14.6126 C   0  0  0  0  0  0  0  0  0  0  0  0
   21.5612  -21.5142  -14.3558 C   0  0  0  0  0  0  0  0  0  0  0  0
   21.5881  -21.2337  -12.8732 C   0  0  2  0  0  0  0  0  0  0  0  0
   20.3933  -20.4832  -12.5476 N   0  0  0  0  0  0  0  0  0  0  0  0
   22.8224  -20.5187  -12.4648 C   0  0  0  0  0  0  0  0  0  0  0  0
   22.9500  -19.2837  -12.5779 O   0  0  0  0  0  0  0  0  0  0  0  0
   19.4010  -22.1143  -15.4181 C   0  0  0  0  0  0  0  0  0  0  0  0
   18.3511  -23.0026  -15.6743 C   0  0  0  0  0  0  0  0  0  0  0  0
   26.4701  -19.3461   -7.7396 C   0  0  0  0  0  0  0  0  0  0  0  0
   27.1250  -20.9648   -8.2035 S   0  0  0  0  0  0  0  0  0  0  0  0
   27.0932  -21.0573  -10.0403 C   0  0  0  0  0  0  0  0  0  0  0  0
   25.6888  -21.4118  -10.4300 C   0  0  0  0  0  0  0  0  0  0  0  0
   25.1652  -20.6089  -11.6180 C   0  0  2  0  0  0  0  0  0  0  0  0
   23.8815  -21.2978  -11.9277 N   0  0  0  0  0  0  0  0  0  0  0  0
   26.0084  -20.7611  -12.8288 C   0  0  0  0  0  0  0  0  0  0  0  0
   26.0553  -21.8978  -13.4252 O   0  0  0  0  0  0  0  0  0  0  0  0
   29.4993  -16.9973  -18.7403 C   0  0  0  0  0  0  0  0  0  0  0  0
   28.6018  -16.9435  -17.1586 S   0  0  0  0  0  0  0  0  0  0  0  0
   28.4362  -18.6739  -16.5661 C   0  0  0  0  0  0  0  0  0  0  0  0
   27.6551  -18.6082  -15.2954 C   0  0  0  0  0  0  0  0  0  0  0  0
   27.4229  -19.9637  -14.7093 C   0  0  2  0  0  0  0  0  0  0  0  0
   26.7816  -19.7516  -13.4071 N   0  0  0  0  0  0  0  0  0  0  0  0
   28.6180  -20.7752  -14.4946 C   0  0  0  0  0  0  0  0  0  0  0  0
   29.1933  -20.7906  -13.3873 O   0  0  0  0  0  0  0  0  0  0  0  0
   29.1389  -21.5472  -15.5146 O   0  0  0  0  0  0  0  0  0  0  0  0
  2 12  2  0
  2  1  1  0
  3  2  1  0
  4  5  1  0
  4  3  2  0
  5 11  2  0
  6  5  1  0
  6  7  1  0
  7  9  1  0
  7  8  1  6
  9 18  1  0
 10  9  2  0
 11 12  1  0
 13 14  1  0
 14 15  1  0
 16 15  1  0
 17 16  1  1
 18 17  1  0
 19 17  1  0
 19 20  2  0
 22 21  1  0
 22 23  1  0
 23 24  1  0
 25 24  1  1
 25 27  1  0
 26 25  1  0
 26 19  1  0
 27 28  2  0
 27 29  1  0
M  END
$$$$
