YMM.pdb
     RDKit          3D

 29 29  0  0  1  0  0  0  0  0999 V2000
   21.6753  -25.5542  -14.1102 O   0  0  0  0  0  0  0  0  0  0  0  0
   22.7976  -25.8781  -14.8856 C   0  0  0  0  0  0  0  0  0  0  0  0
   22.7222  -26.0123  -16.2534 C   0  0  0  0  0  0  0  0  0  0  0  0
   23.8348  -26.3309  -17.0018 C   0  0  0  0  0  0  0  0  0  0  0  0
   25.0775  -26.5309  -16.4197 C   0  0  0  0  0  0  0  0  0  0  0  0
   26.2886  -26.8743  -17.2052 C   0  0  0  0  0  0  0  0  0  0  0  0
   27.1540  -25.6400  -17.2757 C   0  0  2  0  0  0  0  0  0  0  0  0
   26.3611  -24.5823  -17.8669 N   0  0  0  0  0  0  0  0  0  0  0  0
   28.4083  -25.8826  -18.0302 C   0  0  0  0  0  0  0  0  0  0  0  0
   28.4651  -25.8198  -19.2740 O   0  0  0  0  0  0  0  0  0  0  0  0
   25.1548  -26.3971  -15.0507 C   0  0  0  0  0  0  0  0  0  0  0  0
   24.0263  -26.0738  -14.2898 C   0  0  0  0  0  0  0  0  0  0  0  0
   33.9435  -22.2641  -19.0271 C   0  0  0  0  0  0  0  0  0  0  0  0
   33.1501  -23.8581  -19.3339 S   0  0  0  0  0  0  0  0  0  0  0  0
   31.5581  -23.8586  -18.4126 C   0  0  0  0  0  0  0  0  0  0  0  0
   31.6026  -25.0287  -17.4753 C   0  0  0  0  0  0  0  0  0  0  0  0
   30.8722  -26.2606  -18.0036 C   0  0  2  0  0  0  0  0  0  0  0  0
   29.5724  -26.1960  -17.2792 N   0  0  0  0  0  0  0  0  0  0  0  0
   31.5095  -27.5308  -17.5786 C   0  0  0  0  0  0  0  0  0  0  0  0
   31.5958  -27.8044  -16.3266 O   0  0  0  0  0  0  0  0  0  0  0  0
   28.7267  -33.4736  -16.6184 C   0  0  0  0  0  0  0  0  0  0  0  0
   29.1275  -31.7001  -16.6848 S   0  0  0  0  0  0  0  0  0  0  0  0
   29.6025  -31.3125  -18.4159 C   0  0  0  0  0  0  0  0  0  0  0  0
   30.1429  -29.9208  -18.4000 C   0  0  0  0  0  0  0  0  0  0  0  0
   31.6353  -29.8998  -18.3169 C   0  0  2  0  0  0  0  0  0  0  0  0
   32.0409  -28.4952  -18.4382 N   0  0  0  0  0  0  0  0  0  0  0  0
   32.3388  -30.6609  -19.3458 C   0  0  0  0  0  0  0  0  0  0  0  0
   32.6537  -30.1334  -20.4321 O   0  0  0  0  0  0  0  0  0  0  0  0
   32.6736  -31.9848  -19.1388 O   0  0  0  0  0  0  0  0  0  0  0  0
  2 12  2  0
  2  1  1  0
  3  2  1  0
  4  5  1  0
  4  3  2  0
  5 11  2  0
  6  5  1  0
  6  7  1  0
  7  9  1  0
  7  8  1  6
  9 18  1  0
 10  9  2  0
 11 12  1  0
 13 14  1  0
 14 15  1  0
 16 15  1  0
 17 16  1  1
 18 17  1  0
 19 17  1  0
 19 20  2  0
 22 21  1  0
 22 23  1  0
 23 24  1  0
 25 24  1  6
 25 27  1  0
 26 25  1  0
 26 19  1  0
 27 28  2  0
 27 29  1  0
M  END
$$$$
