YMM.pdb
     RDKit          3D

 29 29  0  0  1  0  0  0  0  0999 V2000
   17.9682  -13.7069  -18.7521 O   0  0  0  0  0  0  0  0  0  0  0  0
   18.1328  -12.8373  -17.6648 C   0  0  0  0  0  0  0  0  0  0  0  0
   17.9811  -11.4754  -17.7936 C   0  0  0  0  0  0  0  0  0  0  0  0
   18.1460  -10.6335  -16.7149 C   0  0  0  0  0  0  0  0  0  0  0  0
   18.4707  -11.1119  -15.4543 C   0  0  0  0  0  0  0  0  0  0  0  0
   18.6529  -10.2247  -14.2789 C   0  0  0  0  0  0  0  0  0  0  0  0
   19.8127   -9.3055  -14.5744 C   0  0  2  0  0  0  0  0  0  0  0  0
   21.0092  -10.1182  -14.6440 N   0  0  0  0  0  0  0  0  0  0  0  0
   19.9342   -8.2222  -13.5678 C   0  0  0  0  0  0  0  0  0  0  0  0
   20.3954   -8.4169  -12.4260 O   0  0  0  0  0  0  0  0  0  0  0  0
   18.6231  -12.4748  -15.3235 C   0  0  0  0  0  0  0  0  0  0  0  0
   18.4560  -13.3304  -16.4176 C   0  0  0  0  0  0  0  0  0  0  0  0
   21.8935   -1.9144  -14.0498 C   0  0  0  0  0  0  0  0  0  0  0  0
   22.1337   -3.3418  -15.1311 S   0  0  0  0  0  0  0  0  0  0  0  0
   21.6577   -4.8367  -14.1708 C   0  0  0  0  0  0  0  0  0  0  0  0
   20.2049   -4.6857  -13.8297 C   0  0  0  0  0  0  0  0  0  0  0  0
   19.6614   -5.8191  -12.9637 C   0  0  2  0  0  0  0  0  0  0  0  0
   19.5006   -6.9245  -13.9489 N   0  0  0  0  0  0  0  0  0  0  0  0
   18.3009   -5.5404  -12.4426 C   0  0  0  0  0  0  0  0  0  0  0  0
   17.3011   -5.5601  -13.2489 O   0  0  0  0  0  0  0  0  0  0  0  0
   13.2993   -5.8691   -6.5351 C   0  0  0  0  0  0  0  0  0  0  0  0
   14.9564   -6.1706   -7.2233 S   0  0  0  0  0  0  0  0  0  0  0  0
   15.0497   -5.2846   -8.8292 C   0  0  0  0  0  0  0  0  0  0  0  0
   16.3474   -5.6819   -9.4515 C   0  0  0  0  0  0  0  0  0  0  0  0
   16.6076   -4.9437  -10.7252 C   0  0  2  0  0  0  0  0  0  0  0  0
   17.9887   -5.2518  -11.1120 N   0  0  0  0  0  0  0  0  0  0  0  0
   16.4742   -3.4910  -10.6551 C   0  0  0  0  0  0  0  0  0  0  0  0
   17.4783   -2.7588  -10.5416 O   0  0  0  0  0  0  0  0  0  0  0  0
   15.2305   -2.8933  -10.7144 O   0  0  0  0  0  0  0  0  0  0  0  0
  2 12  2  0
  2  1  1  0
  3  2  1  0
  4  5  1  0
  4  3  2  0
  5 11  2  0
  6  5  1  0
  6  7  1  0
  7  9  1  0
  7  8  1  1
  9 18  1  0
 10  9  2  0
 11 12  1  0
 13 14  1  0
 14 15  1  0
 16 15  1  0
 17 16  1  6
 18 17  1  0
 19 17  1  0
 19 20  2  0
 22 21  1  0
 22 23  1  0
 23 24  1  0
 25 24  1  1
 25 27  1  0
 26 25  1  0
 26 19  1  0
 27 28  2  0
 27 29  1  0
M  END
$$$$
