YMM.pdb
     RDKit          3D

 29 29  0  0  1  0  0  0  0  0999 V2000
   28.2115  -12.6058  -17.2935 O   0  0  0  0  0  0  0  0  0  0  0  0
   27.5796  -13.8216  -16.9967 C   0  0  0  0  0  0  0  0  0  0  0  0
   27.0093  -14.6026  -17.9762 C   0  0  0  0  0  0  0  0  0  0  0  0
   26.3918  -15.7957  -17.6684 C   0  0  0  0  0  0  0  0  0  0  0  0
   26.3140  -16.2667  -16.3664 C   0  0  0  0  0  0  0  0  0  0  0  0
   25.6545  -17.5477  -16.0116 C   0  0  0  0  0  0  0  0  0  0  0  0
   26.7335  -18.5206  -15.6036 C   0  0  2  0  0  0  0  0  0  0  0  0
   27.4856  -18.8646  -16.7922 N   0  0  0  0  0  0  0  0  0  0  0  0
   26.1756  -19.7204  -14.9322 C   0  0  0  0  0  0  0  0  0  0  0  0
   25.8901  -20.7635  -15.5523 O   0  0  0  0  0  0  0  0  0  0  0  0
   26.8841  -15.4861  -15.3847 C   0  0  0  0  0  0  0  0  0  0  0  0
   27.5112  -14.2749  -15.6957 C   0  0  0  0  0  0  0  0  0  0  0  0
   25.8724  -19.5468   -8.4815 C   0  0  0  0  0  0  0  0  0  0  0  0
   26.1656  -21.2983   -8.8142 S   0  0  0  0  0  0  0  0  0  0  0  0
   25.4067  -21.6754  -10.4467 C   0  0  0  0  0  0  0  0  0  0  0  0
   25.9868  -20.7001  -11.4276 C   0  0  0  0  0  0  0  0  0  0  0  0
   25.4293  -20.8525  -12.8404 C   0  0  2  0  0  0  0  0  0  0  0  0
   25.9703  -19.6475  -13.5287 N   0  0  0  0  0  0  0  0  0  0  0  0
   23.9529  -20.7188  -12.8913 C   0  0  0  0  0  0  0  0  0  0  0  0
   23.4185  -19.5637  -12.7179 O   0  0  0  0  0  0  0  0  0  0  0  0
   17.0945  -24.0243  -14.7854 C   0  0  0  0  0  0  0  0  0  0  0  0
   18.9134  -24.0606  -14.8121 S   0  0  0  0  0  0  0  0  0  0  0  0
   19.5021  -22.5754  -13.9066 C   0  0  0  0  0  0  0  0  0  0  0  0
   20.9900  -22.6836  -13.8479 C   0  0  0  0  0  0  0  0  0  0  0  0
   21.6121  -21.5012  -13.1773 C   0  0  2  0  0  0  0  0  0  0  0  0
   23.0544  -21.7634  -13.1214 N   0  0  0  0  0  0  0  0  0  0  0  0
   21.1524  -21.2279  -11.8183 C   0  0  0  0  0  0  0  0  0  0  0  0
   21.6629  -21.8086  -10.8388 O   0  0  0  0  0  0  0  0  0  0  0  0
   20.1404  -20.3171  -11.5858 O   0  0  0  0  0  0  0  0  0  0  0  0
  2 12  2  0
  2  1  1  0
  3  2  1  0
  4  5  1  0
  4  3  2  0
  5 11  2  0
  6  5  1  0
  6  7  1  0
  7  9  1  0
  7  8  1  6
  9 18  1  0
 10  9  2  0
 11 12  1  0
 13 14  1  0
 14 15  1  0
 16 15  1  0
 17 16  1  1
 18 17  1  0
 19 17  1  0
 19 20  2  0
 22 21  1  0
 22 23  1  0
 23 24  1  0
 25 24  1  1
 25 27  1  0
 26 25  1  0
 26 19  1  0
 27 28  2  0
 27 29  1  0
M  END
$$$$
