YMM.pdb
     RDKit          3D

 29 29  0  0  1  0  0  0  0  0999 V2000
   28.2822  -13.3586  -18.3915 O   0  0  0  0  0  0  0  0  0  0  0  0
   27.8666  -14.5002  -17.6917 C   0  0  0  0  0  0  0  0  0  0  0  0
   28.1767  -14.6923  -16.3645 C   0  0  0  0  0  0  0  0  0  0  0  0
   27.7606  -15.8200  -15.6902 C   0  0  0  0  0  0  0  0  0  0  0  0
   27.0138  -16.8110  -16.3095 C   0  0  0  0  0  0  0  0  0  0  0  0
   26.5549  -18.0329  -15.6037 C   0  0  0  0  0  0  0  0  0  0  0  0
   27.7317  -18.9721  -15.5017 C   0  0  2  0  0  0  0  0  0  0  0  0
   28.0277  -19.4501  -16.8361 N   0  0  0  0  0  0  0  0  0  0  0  0
   27.4736  -20.0864  -14.5566 C   0  0  0  0  0  0  0  0  0  0  0  0
   26.8263  -21.1020  -14.8786 O   0  0  0  0  0  0  0  0  0  0  0  0
   26.7026  -16.6204  -17.6380 C   0  0  0  0  0  0  0  0  0  0  0  0
   27.1244  -15.4763  -18.3236 C   0  0  0  0  0  0  0  0  0  0  0  0
   30.9023  -20.2581   -9.4114 C   0  0  0  0  0  0  0  0  0  0  0  0
   31.4188  -21.5079  -10.6095 S   0  0  0  0  0  0  0  0  0  0  0  0
   30.1280  -21.5717  -11.9184 C   0  0  0  0  0  0  0  0  0  0  0  0
   28.8802  -20.9906  -11.3223 C   0  0  0  0  0  0  0  0  0  0  0  0
   27.6777  -21.0371  -12.2612 C   0  0  2  0  0  0  0  0  0  0  0  0
   27.9969  -19.9626  -13.2420 N   0  0  0  0  0  0  0  0  0  0  0  0
   26.4175  -20.6195  -11.5996 C   0  0  0  0  0  0  0  0  0  0  0  0
   26.1259  -19.3704  -11.5306 O   0  0  0  0  0  0  0  0  0  0  0  0
   21.5442  -22.8295  -13.2848 C   0  0  0  0  0  0  0  0  0  0  0  0
   20.5786  -21.9245  -12.0363 S   0  0  0  0  0  0  0  0  0  0  0  0
   21.7752  -21.1009  -10.9127 C   0  0  0  0  0  0  0  0  0  0  0  0
   23.1346  -21.4955  -11.3873 C   0  0  0  0  0  0  0  0  0  0  0  0
   24.2145  -20.9606  -10.5026 C   0  0  2  0  0  0  0  0  0  0  0  0
   25.4811  -21.4833  -11.0265 N   0  0  0  0  0  0  0  0  0  0  0  0
   24.1231  -21.3337   -9.0936 C   0  0  0  0  0  0  0  0  0  0  0  0
   24.9836  -22.0681   -8.5667 O   0  0  0  0  0  0  0  0  0  0  0  0
   23.0803  -20.8797   -8.3099 O   0  0  0  0  0  0  0  0  0  0  0  0
  2 12  2  0
  2  1  1  0
  3  2  1  0
  4  5  1  0
  4  3  2  0
  5 11  2  0
  6  5  1  0
  6  7  1  0
  7  9  1  0
  7  8  1  6
  9 18  1  0
 10  9  2  0
 11 12  1  0
 13 14  1  0
 14 15  1  0
 16 15  1  0
 17 16  1  1
 18 17  1  0
 19 17  1  0
 19 20  2  0
 22 21  1  0
 22 23  1  0
 23 24  1  0
 25 24  1  6
 25 27  1  0
 26 25  1  0
 26 19  1  0
 27 28  2  0
 27 29  1  0
M  END
$$$$
