YMM.pdb
     RDKit          3D

 29 29  0  0  1  0  0  0  0  0999 V2000
   23.3093  -21.5509   -7.9523 O   0  0  0  0  0  0  0  0  0  0  0  0
   24.0014  -21.1337   -9.0980 C   0  0  0  0  0  0  0  0  0  0  0  0
   25.3536  -20.8775   -9.0774 C   0  0  0  0  0  0  0  0  0  0  0  0
   26.0199  -20.4682  -10.2123 C   0  0  0  0  0  0  0  0  0  0  0  0
   25.3672  -20.2950  -11.4236 C   0  0  0  0  0  0  0  0  0  0  0  0
   26.0637  -19.8555  -12.6579 C   0  0  0  0  0  0  0  0  0  0  0  0
   25.7205  -20.8370  -13.7516 C   0  0  2  0  0  0  0  0  0  0  0  0
   26.6555  -21.9389  -13.6607 N   0  0  0  0  0  0  0  0  0  0  0  0
   25.7370  -20.2030  -15.0930 C   0  0  0  0  0  0  0  0  0  0  0  0
   26.7822  -19.7698  -15.6167 O   0  0  0  0  0  0  0  0  0  0  0  0
   24.0137  -20.5508  -11.4460 C   0  0  0  0  0  0  0  0  0  0  0  0
   23.3361  -20.9663  -10.2947 C   0  0  0  0  0  0  0  0  0  0  0  0
   23.7338  -23.0568  -19.4852 C   0  0  0  0  0  0  0  0  0  0  0  0
   24.5178  -21.7820  -20.4975 S   0  0  0  0  0  0  0  0  0  0  0  0
   24.4983  -20.2241  -19.5199 C   0  0  0  0  0  0  0  0  0  0  0  0
   24.5081  -20.6221  -18.0737 C   0  0  0  0  0  0  0  0  0  0  0  0
   24.4978  -19.4345  -17.1149 C   0  0  2  0  0  0  0  0  0  0  0  0
   24.4996  -20.1002  -15.7824 N   0  0  0  0  0  0  0  0  0  0  0  0
   23.2354  -18.6583  -17.1776 C   0  0  0  0  0  0  0  0  0  0  0  0
   22.9327  -18.0339  -18.2586 O   0  0  0  0  0  0  0  0  0  0  0  0
   18.9700  -12.8798  -16.6604 C   0  0  0  0  0  0  0  0  0  0  0  0
   20.4720  -13.8644  -16.3689 S   0  0  0  0  0  0  0  0  0  0  0  0
   20.0118  -15.6318  -16.5619 C   0  0  0  0  0  0  0  0  0  0  0  0
   21.2625  -16.4164  -16.3406 C   0  0  0  0  0  0  0  0  0  0  0  0
   21.0133  -17.8900  -16.3744 C   0  0  2  0  0  0  0  0  0  0  0  0
   22.3081  -18.5384  -16.1398 N   0  0  0  0  0  0  0  0  0  0  0  0
   20.4693  -18.4129  -17.6249 C   0  0  0  0  0  0  0  0  0  0  0  0
   19.2380  -18.5314  -17.7896 O   0  0  0  0  0  0  0  0  0  0  0  0
   21.3076  -18.7876  -18.6567 O   0  0  0  0  0  0  0  0  0  0  0  0
  2 12  2  0
  2  1  1  0
  3  2  1  0
  4  5  1  0
  4  3  2  0
  5 11  2  0
  6  5  1  0
  6  7  1  0
  7  9  1  0
  7  8  1  6
  9 18  1  0
 10  9  2  0
 11 12  1  0
 13 14  1  0
 14 15  1  0
 16 15  1  0
 17 16  1  6
 18 17  1  0
 19 17  1  0
 19 20  2  0
 22 21  1  0
 22 23  1  0
 23 24  1  0
 25 24  1  6
 25 27  1  0
 26 25  1  0
 26 19  1  0
 27 28  2  0
 27 29  1  0
M  END
$$$$
