YRC.pdb
     RDKit          3D

 30 30  0  0  1  0  0  0  0  0999 V2000
   11.7970  -15.8222   29.2407 O   0  0  0  0  0  0  0  0  0  0  0  0
   10.6119  -15.5125   28.5883 C   0  0  0  0  0  0  0  0  0  0  0  0
   10.4285  -14.3387   27.8902 C   0  0  0  0  0  0  0  0  0  0  0  0
    9.2335  -14.0555   27.2465 C   0  0  0  0  0  0  0  0  0  0  0  0
    8.1974  -14.9455   27.2901 C   0  0  0  0  0  0  0  0  0  0  0  0
    6.9032  -14.6826   26.6113 C   0  0  0  0  0  0  0  0  0  0  0  0
    6.6291  -15.8718   25.6830 C   0  0  2  0  0  0  0  0  0  0  0  0
    6.6291  -17.0883   26.4205 N   0  0  0  0  0  0  0  0  0  0  0  0
    7.4882  -15.8554   24.4837 C   0  0  0  0  0  0  0  0  0  0  0  0
    8.1550  -16.9184   24.2717 O   0  0  0  0  0  0  0  0  0  0  0  0
    8.3857  -16.1193   27.9907 C   0  0  0  0  0  0  0  0  0  0  0  0
    9.5761  -16.4200   28.6417 C   0  0  0  0  0  0  0  0  0  0  0  0
    6.9058  -15.5565   16.6910 N   0  0  0  0  0  0  0  0  0  0  0  0
    7.7890  -14.4912   16.9855 C   0  0  0  0  0  0  0  0  0  0  0  0
    8.3085  -13.7366   16.0732 N   0  0  0  0  0  0  0  0  0  0  0  0
    8.1194  -14.2423   18.3401 N   0  0  0  0  0  0  0  0  0  0  0  0
    7.3597  -14.8512   19.4404 C   0  0  0  0  0  0  0  0  0  0  0  0
    7.0915  -13.8618   20.5138 C   0  0  0  0  0  0  0  0  0  0  0  0
    8.1446  -13.7093   21.5346 C   0  0  0  0  0  0  0  0  0  0  0  0
    8.4539  -14.9095   22.3880 C   0  0  2  0  0  0  0  0  0  0  0  0
    7.6117  -14.7844   23.5973 N   0  0  0  0  0  0  0  0  0  0  0  0
    9.8398  -15.0059   22.8507 C   0  0  0  0  0  0  0  0  0  0  0  0
   10.2665  -14.1659   23.7179 O   0  0  0  0  0  0  0  0  0  0  0  0
    8.9964  -12.9974   16.2514 N   0  0  0  0  0  0  0  0  0  0  0  0
   10.8118  -15.9483   22.4494 C   0  0  1  0  0  0  0  0  0  0  0  0
   12.1862  -15.9120   22.8397 C   0  0  0  0  0  0  0  0  0  0  0  0
   12.5565  -17.0082   23.8173 S   0  0  0  0  0  0  0  0  0  0  0  0
   11.7516  -16.5733   25.4020 C   0  0  0  0  0  0  0  0  0  0  0  0
   13.1284  -15.9279   21.7231 O   0  0  0  0  0  0  0  0  0  0  0  0
   14.5053  -15.8582   21.8184 O   0  0  0  0  0  0  0  0  0  0  0  0
  2  1  1  0
  3  2  2  0
  4  3  1  0
  5 11  1  0
  5  4  2  0
  6  5  1  0
  7  6  1  0
  7  8  1  1
  9  7  1  0
  9 10  2  0
 11 12  2  0
 12  2  1  0
 13 14  1  0
 14 15  2  0
 16 14  1  0
 16 17  1  0
 18 17  1  0
 20 19  1  6
 19 18  1  0
 20 21  1  0
 21  9  1  0
 22 20  1  0
 23 22  2  0
 24 22  1  0
 25 28  1  0
 25 24  1  0
 25 26  1  6
 27 26  1  0
 28 29  1  0
 30 28  2  0
M  END
$$$$
