YRC.pdb
     RDKit          3D

 30 30  0  0  1  0  0  0  0  0999 V2000
   10.2697  -14.3262   31.3501 O   0  0  0  0  0  0  0  0  0  0  0  0
   10.2734  -14.6252   29.9949 C   0  0  0  0  0  0  0  0  0  0  0  0
    9.5739  -13.8869   29.0654 C   0  0  0  0  0  0  0  0  0  0  0  0
    9.5963  -14.2079   27.7167 C   0  0  0  0  0  0  0  0  0  0  0  0
   10.3223  -15.2772   27.2730 C   0  0  0  0  0  0  0  0  0  0  0  0
   10.3762  -15.6524   25.8373 C   0  0  0  0  0  0  0  0  0  0  0  0
    9.1769  -16.5676   25.5631 C   0  0  2  0  0  0  0  0  0  0  0  0
    9.0335  -17.5247   26.6059 N   0  0  0  0  0  0  0  0  0  0  0  0
    9.1933  -17.1167   24.1939 C   0  0  0  0  0  0  0  0  0  0  0  0
    9.6530  -18.2981   24.0819 O   0  0  0  0  0  0  0  0  0  0  0  0
   11.0209  -16.0139   28.2076 C   0  0  0  0  0  0  0  0  0  0  0  0
   11.0101  -15.7070   29.5630 C   0  0  0  0  0  0  0  0  0  0  0  0
    8.2896  -13.3594   16.7609 N   0  0  0  0  0  0  0  0  0  0  0  0
    7.7748  -13.1756   18.0658 C   0  0  0  0  0  0  0  0  0  0  0  0
    7.5853  -12.0083   18.5885 N   0  0  0  0  0  0  0  0  0  0  0  0
    7.4549  -14.3221   18.8335 N   0  0  0  0  0  0  0  0  0  0  0  0
    7.7275  -15.6783   18.3388 C   0  0  0  0  0  0  0  0  0  0  0  0
    8.5680  -16.4365   19.2988 C   0  0  0  0  0  0  0  0  0  0  0  0
    8.4263  -16.0668   20.7192 C   0  0  0  0  0  0  0  0  0  0  0  0
    9.2467  -16.8398   21.7160 C   0  0  2  0  0  0  0  0  0  0  0  0
    8.7515  -16.4456   23.0528 N   0  0  0  0  0  0  0  0  0  0  0  0
   10.6824  -16.5525   21.6996 C   0  0  0  0  0  0  0  0  0  0  0  0
   11.1089  -15.4792   22.2526 O   0  0  0  0  0  0  0  0  0  0  0  0
    7.1981  -11.8453   19.5238 N   0  0  0  0  0  0  0  0  0  0  0  0
   11.7059  -17.3408   21.1294 C   0  0  1  0  0  0  0  0  0  0  0  0
   13.1002  -17.0351   21.2011 C   0  0  0  0  0  0  0  0  0  0  0  0
   13.8289  -17.8261   22.2678 S   0  0  0  0  0  0  0  0  0  0  0  0
   13.1730  -17.2437   23.8737 C   0  0  0  0  0  0  0  0  0  0  0  0
   13.8115  -17.1735   19.9324 O   0  0  0  0  0  0  0  0  0  0  0  0
   15.1491  -16.9022   19.7150 O   0  0  0  0  0  0  0  0  0  0  0  0
  2  1  1  0
  3  2  2  0
  4  3  1  0
  5 11  1  0
  5  4  2  0
  6  5  1  0
  7  6  1  0
  7  8  1  1
  9  7  1  0
  9 10  2  0
 11 12  2  0
 12  2  1  0
 13 14  1  0
 14 15  2  0
 16 14  1  0
 16 17  1  0
 18 17  1  0
 20 19  1  6
 19 18  1  0
 20 21  1  0
 21  9  1  0
 22 20  1  0
 23 22  2  0
 24 22  1  0
 25 28  1  0
 25 24  1  0
 25 26  1  6
 27 26  1  0
 28 29  1  0
 30 28  2  0
M  END
$$$$
