YRC.pdb
     RDKit          3D

 30 30  0  0  1  0  0  0  0  0999 V2000
   18.4777  -14.2464   16.6497 O   0  0  0  0  0  0  0  0  0  0  0  0
   17.2924  -14.2318   17.3713 C   0  0  0  0  0  0  0  0  0  0  0  0
   16.4110  -13.1732   17.3384 C   0  0  0  0  0  0  0  0  0  0  0  0
   15.2328  -13.1860   18.0693 C   0  0  0  0  0  0  0  0  0  0  0  0
   14.9147  -14.2626   18.8485 C   0  0  0  0  0  0  0  0  0  0  0  0
   13.6616  -14.3179   19.6431 C   0  0  0  0  0  0  0  0  0  0  0  0
   12.6413  -15.1178   18.8245 C   0  0  2  0  0  0  0  0  0  0  0  0
   12.0541  -14.2960   17.8225 N   0  0  0  0  0  0  0  0  0  0  0  0
   11.6913  -15.8544   19.6796 C   0  0  0  0  0  0  0  0  0  0  0  0
   10.5647  -15.2909   19.8604 O   0  0  0  0  0  0  0  0  0  0  0  0
   15.8007  -15.3201   18.8786 C   0  0  0  0  0  0  0  0  0  0  0  0
   16.9859  -15.3248   18.1529 C   0  0  0  0  0  0  0  0  0  0  0  0
   10.2885  -23.1728   17.0692 N   0  0  0  0  0  0  0  0  0  0  0  0
   11.0070  -22.0343   16.6343 C   0  0  0  0  0  0  0  0  0  0  0  0
   11.7493  -22.0341   15.5757 N   0  0  0  0  0  0  0  0  0  0  0  0
   10.9094  -20.8429   17.3939 N   0  0  0  0  0  0  0  0  0  0  0  0
   10.1080  -20.7797   18.6237 C   0  0  0  0  0  0  0  0  0  0  0  0
   10.0899  -19.4027   19.1773 C   0  0  0  0  0  0  0  0  0  0  0  0
   10.8355  -19.1975   20.4329 C   0  0  0  0  0  0  0  0  0  0  0  0
   10.8615  -17.8027   20.9970 C   0  0  2  0  0  0  0  0  0  0  0  0
   11.9414  -17.0882   20.2824 N   0  0  0  0  0  0  0  0  0  0  0  0
   11.1730  -17.7125   22.4249 C   0  0  0  0  0  0  0  0  0  0  0  0
   12.3947  -17.7847   22.8014 O   0  0  0  0  0  0  0  0  0  0  0  0
   12.3272  -21.2441   15.2702 N   0  0  0  0  0  0  0  0  0  0  0  0
   10.2612  -17.5468   23.4904 C   0  0  2  0  0  0  0  0  0  0  0  0
   10.5992  -17.6696   24.8736 C   0  0  0  0  0  0  0  0  0  0  0  0
    9.4562  -17.3089   25.7999 S   0  0  0  0  0  0  0  0  0  0  0  0
   10.0728  -17.5783   27.5015 C   0  0  0  0  0  0  0  0  0  0  0  0
   11.1249  -18.9800   25.2494 O   0  0  0  0  0  0  0  0  0  0  0  0
   12.2281  -19.2163   26.0475 O   0  0  0  0  0  0  0  0  0  0  0  0
  2  1  1  0
  3  2  2  0
  4  3  1  0
  5 11  1  0
  5  4  2  0
  6  5  1  0
  7  6  1  0
  7  8  1  6
  9  7  1  0
  9 10  2  0
 11 12  2  0
 12  2  1  0
 13 14  1  0
 14 15  2  0
 16 14  1  0
 16 17  1  0
 18 17  1  0
 20 19  1  6
 19 18  1  0
 20 21  1  0
 21  9  1  0
 22 20  1  0
 23 22  2  0
 24 22  1  0
 25 28  1  0
 25 24  1  0
 25 26  1  6
 27 26  1  0
 28 29  1  0
 30 28  2  0
M  END
$$$$
