YRC.pdb
     RDKit          3D

 30 30  0  0  1  0  0  0  0  0999 V2000
    5.0807  -10.6145   27.9427 O   0  0  0  0  0  0  0  0  0  0  0  0
    5.8282  -11.5781   27.2804 C   0  0  0  0  0  0  0  0  0  0  0  0
    5.5279  -12.0117   26.0075 C   0  0  0  0  0  0  0  0  0  0  0  0
    6.2932  -12.9757   25.3690 C   0  0  0  0  0  0  0  0  0  0  0  0
    7.3767  -13.5243   25.9955 C   0  0  0  0  0  0  0  0  0  0  0  0
    8.2245  -14.5558   25.3457 C   0  0  0  0  0  0  0  0  0  0  0  0
    7.2895  -15.6691   24.8584 C   0  0  2  0  0  0  0  0  0  0  0  0
    6.5774  -16.2345   25.9526 N   0  0  0  0  0  0  0  0  0  0  0  0
    7.9784  -16.6347   23.9812 C   0  0  0  0  0  0  0  0  0  0  0  0
    8.3867  -17.6978   24.5491 O   0  0  0  0  0  0  0  0  0  0  0  0
    7.6732  -13.0872   27.2703 C   0  0  0  0  0  0  0  0  0  0  0  0
    6.9178  -12.1222   27.9257 C   0  0  0  0  0  0  0  0  0  0  0  0
    9.1752  -12.1377   19.3369 N   0  0  0  0  0  0  0  0  0  0  0  0
    8.3709  -13.1285   18.7263 C   0  0  0  0  0  0  0  0  0  0  0  0
    7.0786  -13.1026   18.7583 N   0  0  0  0  0  0  0  0  0  0  0  0
    9.0109  -14.1968   18.0516 N   0  0  0  0  0  0  0  0  0  0  0  0
    8.7972  -15.5947   18.4501 C   0  0  0  0  0  0  0  0  0  0  0  0
    9.0763  -15.7852   19.8953 C   0  0  0  0  0  0  0  0  0  0  0  0
    8.8616  -17.1445   20.4249 C   0  0  0  0  0  0  0  0  0  0  0  0
    9.1267  -17.3614   21.8901 C   0  0  2  0  0  0  0  0  0  0  0  0
    8.2029  -16.4619   22.6146 N   0  0  0  0  0  0  0  0  0  0  0  0
   10.4790  -17.0213   22.3368 C   0  0  0  0  0  0  0  0  0  0  0  0
   10.7437  -15.8090   22.6533 O   0  0  0  0  0  0  0  0  0  0  0  0
    6.4727  -13.8545   18.4137 N   0  0  0  0  0  0  0  0  0  0  0  0
   11.5800  -17.8951   22.4728 C   0  0  1  0  0  0  0  0  0  0  0  0
   12.8647  -17.5101   22.9666 C   0  0  0  0  0  0  0  0  0  0  0  0
   12.8989  -17.3457   24.4720 S   0  0  0  0  0  0  0  0  0  0  0  0
   11.9649  -18.7597   25.1620 C   0  0  0  0  0  0  0  0  0  0  0  0
   13.9550  -18.3920   22.5562 O   0  0  0  0  0  0  0  0  0  0  0  0
   15.2783  -18.2835   22.9396 O   0  0  0  0  0  0  0  0  0  0  0  0
  2  1  1  0
  3  2  2  0
  4  3  1  0
  5 11  1  0
  5  4  2  0
  6  5  1  0
  7  6  1  0
  7  8  1  1
  9  7  1  0
  9 10  2  0
 11 12  2  0
 12  2  1  0
 13 14  1  0
 14 15  2  0
 16 14  1  0
 16 17  1  0
 18 17  1  0
 20 19  1  6
 19 18  1  0
 20 21  1  0
 21  9  1  0
 22 20  1  0
 23 22  2  0
 24 22  1  0
 25 28  1  0
 25 24  1  0
 25 26  1  1
 27 26  1  0
 28 29  1  0
 30 28  2  0
M  END
$$$$
