YRC.pdb
     RDKit          3D

 30 30  0  0  1  0  0  0  0  0999 V2000
    6.3058  -10.5631   26.8042 O   0  0  0  0  0  0  0  0  0  0  0  0
    6.4959  -11.9325   26.6833 C   0  0  0  0  0  0  0  0  0  0  0  0
    7.3645  -12.6396   27.4860 C   0  0  0  0  0  0  0  0  0  0  0  0
    7.5341  -14.0084   27.3438 C   0  0  0  0  0  0  0  0  0  0  0  0
    6.8346  -14.6960   26.3924 C   0  0  0  0  0  0  0  0  0  0  0  0
    6.9838  -16.1621   26.2100 C   0  0  0  0  0  0  0  0  0  0  0  0
    6.6733  -16.4694   24.7402 C   0  0  2  0  0  0  0  0  0  0  0  0
    5.6946  -17.4974   24.6435 N   0  0  0  0  0  0  0  0  0  0  0  0
    7.8960  -16.6784   23.9416 C   0  0  0  0  0  0  0  0  0  0  0  0
    8.2175  -17.8927   23.7378 O   0  0  0  0  0  0  0  0  0  0  0  0
    5.9663  -13.9836   25.5907 C   0  0  0  0  0  0  0  0  0  0  0  0
    5.7835  -12.6120   25.7188 C   0  0  0  0  0  0  0  0  0  0  0  0
    8.4260  -15.1911   16.6911 N   0  0  0  0  0  0  0  0  0  0  0  0
    8.1504  -14.1085   17.5592 C   0  0  0  0  0  0  0  0  0  0  0  0
    8.0640  -12.8848   17.1508 N   0  0  0  0  0  0  0  0  0  0  0  0
    7.9626  -14.3781   18.9369 N   0  0  0  0  0  0  0  0  0  0  0  0
    9.0099  -15.0187   19.7439 C   0  0  0  0  0  0  0  0  0  0  0  0
    9.2502  -14.2652   20.9998 C   0  0  0  0  0  0  0  0  0  0  0  0
   10.3062  -14.7938   21.8828 C   0  0  0  0  0  0  0  0  0  0  0  0
    9.9621  -15.9924   22.7250 C   0  0  2  0  0  0  0  0  0  0  0  0
    8.6951  -15.6634   23.4134 N   0  0  0  0  0  0  0  0  0  0  0  0
   10.9337  -16.3207   23.7701 C   0  0  0  0  0  0  0  0  0  0  0  0
   12.1723  -16.4184   23.4602 O   0  0  0  0  0  0  0  0  0  0  0  0
    7.8829  -12.0795   17.7592 N   0  0  0  0  0  0  0  0  0  0  0  0
   10.6726  -16.5525   25.1384 C   0  0  1  0  0  0  0  0  0  0  0  0
   11.6726  -16.8450   26.1166 C   0  0  0  0  0  0  0  0  0  0  0  0
   11.2463  -16.4935   27.5271 S   0  0  0  0  0  0  0  0  0  0  0  0
   10.9004  -14.6967   27.5238 C   0  0  0  0  0  0  0  0  0  0  0  0
   12.1524  -18.2247   26.0912 O   0  0  0  0  0  0  0  0  0  0  0  0
   11.6859  -19.2341   25.2705 O   0  0  0  0  0  0  0  0  0  0  0  0
  2  1  1  0
  3  2  2  0
  4  3  1  0
  5 11  1  0
  5  4  2  0
  6  5  1  0
  7  6  1  0
  7  8  1  1
  9  7  1  0
  9 10  2  0
 11 12  2  0
 12  2  1  0
 13 14  1  0
 14 15  2  0
 16 14  1  0
 16 17  1  0
 18 17  1  0
 20 19  1  1
 19 18  1  0
 20 21  1  0
 21  9  1  0
 22 20  1  0
 23 22  2  0
 24 22  1  0
 25 28  1  0
 25 24  1  0
 25 26  1  6
 27 26  1  0
 28 29  1  0
 30 28  2  0
M  END
$$$$
