RGA.pdb
     RDKit          3D

 21 20  0  0  1  0  0  0  0  0999 V2000
   13.0754  -20.1842   21.2918 N   0  0  0  0  0  0  0  0  0  0  0  0
   12.8941  -20.4517   19.9063 C   0  0  0  0  0  0  0  0  0  0  0  0
   13.3858  -21.5325   19.3920 N   0  0  0  0  0  0  0  0  0  0  0  0
   12.1836  -19.5527   19.0783 N   0  0  0  0  0  0  0  0  0  0  0  0
   11.6284  -18.2861   19.6105 C   0  0  0  0  0  0  0  0  0  0  0  0
   10.5707  -18.5761   20.6037 C   0  0  0  0  0  0  0  0  0  0  0  0
    9.8735  -17.4391   21.2178 C   0  0  0  0  0  0  0  0  0  0  0  0
    8.4684  -17.1277   20.9043 C   0  0  2  0  0  0  0  0  0  0  0  0
    8.4201  -16.8613   19.4159 N   0  0  0  0  0  0  0  0  0  0  0  0
    7.9288  -15.9346   21.5527 C   0  0  0  0  0  0  0  0  0  0  0  0
    8.0404  -14.7857   20.9984 O   0  0  0  0  0  0  0  0  0  0  0  0
   13.3044  -21.7663   18.3829 N   0  0  0  0  0  0  0  0  0  0  0  0
    7.2717  -16.0248   22.8055 C   0  0  0  0  0  0  0  0  0  0  0  0
    6.7905  -14.7971   23.4099 C   0  0  0  0  0  0  0  0  0  0  0  0
    7.6831  -14.3537   24.4858 O   0  0  0  0  0  0  0  0  0  0  0  0
    8.8026  -14.9188   24.6323 C   0  0  0  0  0  0  0  0  0  0  0  0
    7.6608  -11.5796   27.0242 C   0  0  2  0  0  0  0  0  0  0  0  0
    8.1640  -12.8435   26.4033 N   0  0  0  0  0  0  0  0  0  0  0  0
    7.3055  -13.3120   25.3495 C   0  0  0  0  0  0  0  0  0  0  0  0
    8.2796  -13.8933   27.4551 O   0  0  0  0  0  0  0  0  0  0  0  0
    7.4795  -14.8541   27.5030 O   0  0  0  0  0  0  0  0  0  0  0  0
  1  2  1  0
  2  3  2  0
  4  5  1  0
  4  2  1  0
  6  5  1  0
  7  6  1  0
  8 10  1  0
  8  7  1  0
  8  9  1  6
 10 12  1  0
 11 10  2  0
 12 13  1  0
 13 14  1  0
 14 15  2  0
 14 18  1  0
 17 16  1  6
 17 19  1  0
 18 17  1  0
 19 21  1  0
 20 19  2  0
M  END
$$$$
