RGA.pdb
     RDKit          3D

 21 20  0  0  1  0  0  0  0  0999 V2000
    8.4306  -11.9808   19.5875 N   0  0  0  0  0  0  0  0  0  0  0  0
    7.7313  -13.1021   20.1146 C   0  0  0  0  0  0  0  0  0  0  0  0
    7.3968  -13.1197   21.3645 N   0  0  0  0  0  0  0  0  0  0  0  0
    7.3949  -14.2021   19.2928 N   0  0  0  0  0  0  0  0  0  0  0  0
    7.9248  -15.5593   19.5633 C   0  0  0  0  0  0  0  0  0  0  0  0
    9.3682  -15.4843   19.8795 C   0  0  0  0  0  0  0  0  0  0  0  0
   10.0676  -16.7346   20.2014 C   0  0  0  0  0  0  0  0  0  0  0  0
   10.0402  -17.3140   21.5554 C   0  0  2  0  0  0  0  0  0  0  0  0
    8.7644  -18.1226   21.6397 N   0  0  0  0  0  0  0  0  0  0  0  0
    9.9880  -16.3490   22.6514 C   0  0  0  0  0  0  0  0  0  0  0  0
   10.8730  -15.4290   22.7513 O   0  0  0  0  0  0  0  0  0  0  0  0
    6.9639  -13.9459   21.8224 N   0  0  0  0  0  0  0  0  0  0  0  0
    8.9584  -16.4113   23.6237 C   0  0  0  0  0  0  0  0  0  0  0  0
    8.8557  -15.3209   24.5748 C   0  0  0  0  0  0  0  0  0  0  0  0
    9.7722  -15.5170   25.7030 O   0  0  0  0  0  0  0  0  0  0  0  0
   10.8136  -16.2118   25.5395 C   0  0  0  0  0  0  0  0  0  0  0  0
   10.0081  -14.1723   29.2109 C   0  0  2  0  0  0  0  0  0  0  0  0
   10.4489  -14.9878   28.0376 N   0  0  0  0  0  0  0  0  0  0  0  0
    9.5027  -14.9420   26.9561 C   0  0  0  0  0  0  0  0  0  0  0  0
   10.6437  -16.4011   28.4693 O   0  0  0  0  0  0  0  0  0  0  0  0
    9.8725  -17.3085   28.0854 O   0  0  0  0  0  0  0  0  0  0  0  0
  1  2  1  0
  2  3  2  0
  4  5  1  0
  4  2  1  0
  6  5  1  0
  7  6  1  0
  8 10  1  0
  8  7  1  0
  8  9  1  6
 10 12  1  0
 11 10  2  0
 12 13  1  0
 13 14  1  0
 14 15  2  0
 14 18  1  0
 17 16  1  6
 17 19  1  0
 18 17  1  0
 19 21  1  0
 20 19  2  0
M  END
$$$$
