RGA.pdb
     RDKit          3D

 21 20  0  0  1  0  0  0  0  0999 V2000
    6.9202  -14.5397   16.7438 N   0  0  0  0  0  0  0  0  0  0  0  0
    8.2971  -14.1828   16.7722 C   0  0  0  0  0  0  0  0  0  0  0  0
    9.1666  -14.9332   16.1761 N   0  0  0  0  0  0  0  0  0  0  0  0
    8.7334  -13.0179   17.4440 N   0  0  0  0  0  0  0  0  0  0  0  0
    8.7958  -12.9565   18.9233 C   0  0  0  0  0  0  0  0  0  0  0  0
    7.4425  -13.1361   19.4939 C   0  0  0  0  0  0  0  0  0  0  0  0
    7.2809  -14.0988   20.5907 C   0  0  0  0  0  0  0  0  0  0  0  0
    8.4057  -14.4807   21.4617 C   0  0  2  0  0  0  0  0  0  0  0  0
    8.8680  -15.8377   20.9785 N   0  0  0  0  0  0  0  0  0  0  0  0
    8.0798  -14.6379   22.8773 C   0  0  0  0  0  0  0  0  0  0  0  0
    7.6662  -13.6398   23.5647 O   0  0  0  0  0  0  0  0  0  0  0  0
   10.1426  -14.6293   15.9899 N   0  0  0  0  0  0  0  0  0  0  0  0
    8.2138  -15.8959   23.5168 C   0  0  0  0  0  0  0  0  0  0  0  0
    7.9841  -15.9582   24.9477 C   0  0  0  0  0  0  0  0  0  0  0  0
    9.1800  -15.5495   25.6921 O   0  0  0  0  0  0  0  0  0  0  0  0
   10.3173  -15.6984   25.1644 C   0  0  0  0  0  0  0  0  0  0  0  0
   10.0115  -13.4175   28.5770 C   0  0  2  0  0  0  0  0  0  0  0  0
   10.2263  -14.6538   27.7637 N   0  0  0  0  0  0  0  0  0  0  0  0
    9.0714  -14.9973   26.9793 C   0  0  0  0  0  0  0  0  0  0  0  0
   10.5650  -15.7852   28.6730 O   0  0  0  0  0  0  0  0  0  0  0  0
    9.8229  -16.7885   28.7641 O   0  0  0  0  0  0  0  0  0  0  0  0
  1  2  1  0
  2  3  2  0
  4  5  1  0
  4  2  1  0
  6  5  1  0
  7  6  1  0
  8 10  1  0
  8  7  1  0
  8  9  1  6
 10 12  1  0
 11 10  2  0
 12 13  1  0
 13 14  1  0
 14 15  2  0
 14 18  1  0
 17 16  1  6
 17 19  1  0
 18 17  1  0
 19 21  1  0
 20 19  2  0
M  END
$$$$
