RGA.pdb
     RDKit          3D

 21 20  0  0  1  0  0  0  0  0999 V2000
   10.5524  -12.1613   19.0367 N   0  0  0  0  0  0  0  0  0  0  0  0
    9.3524  -12.9177   19.1457 C   0  0  0  0  0  0  0  0  0  0  0  0
    9.1094  -13.8612   18.2940 N   0  0  0  0  0  0  0  0  0  0  0  0
    8.4168  -12.6547   20.1724 N   0  0  0  0  0  0  0  0  0  0  0  0
    7.2198  -13.5069   20.3640 C   0  0  0  0  0  0  0  0  0  0  0  0
    7.6090  -14.7921   20.9854 C   0  0  0  0  0  0  0  0  0  0  0  0
    6.5679  -15.8116   21.1662 C   0  0  0  0  0  0  0  0  0  0  0  0
    6.8339  -17.0774   21.8710 C   0  0  2  0  0  0  0  0  0  0  0  0
    5.7767  -18.0507   21.3980 N   0  0  0  0  0  0  0  0  0  0  0  0
    6.7200  -17.0227   23.3267 C   0  0  0  0  0  0  0  0  0  0  0  0
    5.5994  -16.7478   23.8820 O   0  0  0  0  0  0  0  0  0  0  0  0
    8.3139  -14.5220   18.3940 N   0  0  0  0  0  0  0  0  0  0  0  0
    7.8451  -17.2730   24.1519 C   0  0  0  0  0  0  0  0  0  0  0  0
    7.6795  -17.1345   25.5863 C   0  0  0  0  0  0  0  0  0  0  0  0
    8.6683  -16.2060   26.1442 O   0  0  0  0  0  0  0  0  0  0  0  0
    9.8233  -16.1551   25.6369 C   0  0  0  0  0  0  0  0  0  0  0  0
    8.6874  -13.5238   28.7728 C   0  0  2  0  0  0  0  0  0  0  0  0
    9.3175  -14.5333   27.8673 N   0  0  0  0  0  0  0  0  0  0  0  0
    8.3431  -15.3779   27.2314 C   0  0  0  0  0  0  0  0  0  0  0  0
   10.2658  -15.3721   28.6539 O   0  0  0  0  0  0  0  0  0  0  0  0
   10.0434  -16.5867   28.8556 O   0  0  0  0  0  0  0  0  0  0  0  0
  1  2  1  0
  2  3  2  0
  4  5  1  0
  4  2  1  0
  6  5  1  0
  7  6  1  0
  8 10  1  0
  8  7  1  0
  8  9  1  6
 10 12  1  0
 11 10  2  0
 12 13  1  0
 13 14  1  0
 14 15  2  0
 14 18  1  0
 17 16  1  6
 17 19  1  0
 18 17  1  0
 19 21  1  0
 20 19  2  0
M  END
$$$$
