RGA.pdb
     RDKit          3D

 21 20  0  0  1  0  0  0  0  0999 V2000
    6.9230  -12.6542   17.9173 N   0  0  0  0  0  0  0  0  0  0  0  0
    8.1509  -13.3060   18.2197 C   0  0  0  0  0  0  0  0  0  0  0  0
    8.5722  -14.2648   17.4598 N   0  0  0  0  0  0  0  0  0  0  0  0
    8.9214  -12.9227   19.3414 N   0  0  0  0  0  0  0  0  0  0  0  0
    8.4608  -13.1919   20.7238 C   0  0  0  0  0  0  0  0  0  0  0  0
    7.4248  -14.2482   20.7144 C   0  0  0  0  0  0  0  0  0  0  0  0
    6.9144  -14.7225   22.0069 C   0  0  0  0  0  0  0  0  0  0  0  0
    7.8000  -15.3237   23.0188 C   0  0  2  0  0  0  0  0  0  0  0  0
    8.5556  -16.4275   22.3120 N   0  0  0  0  0  0  0  0  0  0  0  0
    7.1248  -15.9496   24.1534 C   0  0  0  0  0  0  0  0  0  0  0  0
    5.8952  -15.6924   24.4016 O   0  0  0  0  0  0  0  0  0  0  0  0
    9.4708  -14.7609   17.6212 N   0  0  0  0  0  0  0  0  0  0  0  0
    7.8155  -16.8526   25.0000 C   0  0  0  0  0  0  0  0  0  0  0  0
    7.0523  -17.5457   26.0205 C   0  0  0  0  0  0  0  0  0  0  0  0
    7.9017  -18.4723   26.7761 O   0  0  0  0  0  0  0  0  0  0  0  0
    7.3960  -19.1484   27.7149 C   0  0  0  0  0  0  0  0  0  0  0  0
   11.4042  -19.7766   26.4918 C   0  0  2  0  0  0  0  0  0  0  0  0
   10.1360  -19.4708   27.2227 N   0  0  0  0  0  0  0  0  0  0  0  0
    9.2646  -18.6132   26.4661 C   0  0  0  0  0  0  0  0  0  0  0  0
   10.4651  -18.8231   28.5241 O   0  0  0  0  0  0  0  0  0  0  0  0
   10.1507  -17.6341   28.7545 O   0  0  0  0  0  0  0  0  0  0  0  0
  1  2  1  0
  2  3  2  0
  4  5  1  0
  4  2  1  0
  6  5  1  0
  7  6  1  0
  8 10  1  0
  8  7  1  0
  8  9  1  6
 10 12  1  0
 11 10  2  0
 12 13  1  0
 13 14  1  0
 14 15  2  0
 14 18  1  0
 17 16  1  6
 17 19  1  0
 18 17  1  0
 19 21  1  0
 20 19  2  0
M  END
$$$$
