RGA.pdb
     RDKit          3D

 21 20  0  0  1  0  0  0  0  0999 V2000
    7.0879  -21.6429   19.0287 N   0  0  0  0  0  0  0  0  0  0  0  0
    7.4743  -20.8630   17.9033 C   0  0  0  0  0  0  0  0  0  0  0  0
    7.0249  -21.1659   16.7283 N   0  0  0  0  0  0  0  0  0  0  0  0
    8.3451  -19.7586   18.0475 N   0  0  0  0  0  0  0  0  0  0  0  0
    8.8684  -19.3551   19.3738 C   0  0  0  0  0  0  0  0  0  0  0  0
    7.7916  -18.7291   20.1725 C   0  0  0  0  0  0  0  0  0  0  0  0
    8.1472  -18.1565   21.4770 C   0  0  0  0  0  0  0  0  0  0  0  0
    7.7876  -18.8211   22.7415 C   0  0  2  0  0  0  0  0  0  0  0  0
    6.3364  -19.2261   22.6042 N   0  0  0  0  0  0  0  0  0  0  0  0
    7.8693  -17.9849   23.9369 C   0  0  0  0  0  0  0  0  0  0  0  0
    9.0042  -17.7094   24.4621 O   0  0  0  0  0  0  0  0  0  0  0  0
    7.2479  -20.6124   15.8777 N   0  0  0  0  0  0  0  0  0  0  0  0
    6.6966  -17.4622   24.5377 C   0  0  0  0  0  0  0  0  0  0  0  0
    6.8418  -16.7115   25.7703 C   0  0  0  0  0  0  0  0  0  0  0  0
    7.1544  -15.3048   25.4974 O   0  0  0  0  0  0  0  0  0  0  0  0
    8.1608  -15.0214   24.7897 C   0  0  0  0  0  0  0  0  0  0  0  0
    5.6495  -11.9712   26.3743 C   0  0  2  0  0  0  0  0  0  0  0  0
    6.7565  -12.8980   25.9848 N   0  0  0  0  0  0  0  0  0  0  0  0
    6.3485  -14.2763   26.0135 C   0  0  0  0  0  0  0  0  0  0  0  0
    7.9085  -12.7004   26.9097 O   0  0  0  0  0  0  0  0  0  0  0  0
    8.5130  -11.6065   26.9681 O   0  0  0  0  0  0  0  0  0  0  0  0
  1  2  1  0
  2  3  2  0
  4  5  1  0
  4  2  1  0
  6  5  1  0
  7  6  1  0
  8 10  1  0
  8  7  1  0
  8  9  1  6
 10 12  1  0
 11 10  2  0
 12 13  1  0
 13 14  1  0
 14 15  2  0
 14 18  1  0
 17 16  1  6
 17 19  1  0
 18 17  1  0
 19 21  1  0
 20 19  2  0
M  END
$$$$
