RGA.pdb
     RDKit          3D

 21 20  0  0  1  0  0  0  0  0999 V2000
    7.3409  -12.3352   17.6947 N   0  0  0  0  0  0  0  0  0  0  0  0
    8.0410  -13.5736   17.6766 C   0  0  0  0  0  0  0  0  0  0  0  0
    8.2691  -14.1650   16.5485 N   0  0  0  0  0  0  0  0  0  0  0  0
    8.4929  -14.1718   18.8752 N   0  0  0  0  0  0  0  0  0  0  0  0
    7.9965  -13.7237   20.1975 C   0  0  0  0  0  0  0  0  0  0  0  0
    6.8693  -14.5790   20.6303 C   0  0  0  0  0  0  0  0  0  0  0  0
    7.1514  -15.9882   20.9312 C   0  0  0  0  0  0  0  0  0  0  0  0
    8.2812  -16.3890   21.7872 C   0  0  2  0  0  0  0  0  0  0  0  0
    8.3256  -17.9005   21.7421 N   0  0  0  0  0  0  0  0  0  0  0  0
    8.1629  -16.0234   23.1969 C   0  0  0  0  0  0  0  0  0  0  0  0
    8.3489  -14.8137   23.5734 O   0  0  0  0  0  0  0  0  0  0  0  0
    8.8361  -15.0321   16.4692 N   0  0  0  0  0  0  0  0  0  0  0  0
    7.8397  -16.9982   24.1740 C   0  0  0  0  0  0  0  0  0  0  0  0
    7.5355  -16.5395   25.5161 C   0  0  0  0  0  0  0  0  0  0  0  0
    8.7490  -16.0941   26.2090 O   0  0  0  0  0  0  0  0  0  0  0  0
    9.8641  -16.5871   25.8810 C   0  0  0  0  0  0  0  0  0  0  0  0
    9.5824  -13.4247   28.7161 C   0  0  2  0  0  0  0  0  0  0  0  0
    9.8549  -14.6539   27.9094 N   0  0  0  0  0  0  0  0  0  0  0  0
    8.6815  -15.1296   27.2282 C   0  0  0  0  0  0  0  0  0  0  0  0
   10.3771  -15.7229   28.8073 O   0  0  0  0  0  0  0  0  0  0  0  0
    9.7367  -16.7810   28.9965 O   0  0  0  0  0  0  0  0  0  0  0  0
  1  2  1  0
  2  3  2  0
  4  5  1  0
  4  2  1  0
  6  5  1  0
  7  6  1  0
  8 10  1  0
  8  7  1  0
  8  9  1  1
 10 12  1  0
 11 10  2  0
 12 13  1  0
 13 14  1  0
 14 15  2  0
 14 18  1  0
 17 16  1  6
 17 19  1  0
 18 17  1  0
 19 21  1  0
 20 19  2  0
M  END
$$$$
