RGA.pdb
     RDKit          3D

 21 20  0  0  1  0  0  0  0  0999 V2000
    8.2273  -13.1646   14.8527 N   0  0  0  0  0  0  0  0  0  0  0  0
    8.4635  -14.0288   15.9579 C   0  0  0  0  0  0  0  0  0  0  0  0
    9.5142  -14.7840   15.9685 N   0  0  0  0  0  0  0  0  0  0  0  0
    7.5657  -14.0770   17.0490 N   0  0  0  0  0  0  0  0  0  0  0  0
    8.0373  -13.9222   18.4452 C   0  0  0  0  0  0  0  0  0  0  0  0
    6.8899  -13.9930   19.3767 C   0  0  0  0  0  0  0  0  0  0  0  0
    7.1635  -13.8788   20.8148 C   0  0  0  0  0  0  0  0  0  0  0  0
    8.2081  -14.6818   21.4733 C   0  0  2  0  0  0  0  0  0  0  0  0
    7.9965  -16.1063   21.0097 N   0  0  0  0  0  0  0  0  0  0  0  0
    8.1513  -14.7123   22.9330 C   0  0  0  0  0  0  0  0  0  0  0  0
    8.2222  -13.6276   23.6099 O   0  0  0  0  0  0  0  0  0  0  0  0
    9.7807  -15.3705   16.7837 N   0  0  0  0  0  0  0  0  0  0  0  0
    8.0161  -15.9404   23.6279 C   0  0  0  0  0  0  0  0  0  0  0  0
    7.7713  -15.8889   25.0567 C   0  0  0  0  0  0  0  0  0  0  0  0
    9.0058  -15.5972   25.7930 O   0  0  0  0  0  0  0  0  0  0  0  0
   10.1178  -15.7179   25.2075 C   0  0  0  0  0  0  0  0  0  0  0  0
    9.9240  -13.7937   28.8865 C   0  0  2  0  0  0  0  0  0  0  0  0
   10.1520  -14.8756   27.8797 N   0  0  0  0  0  0  0  0  0  0  0  0
    8.9616  -15.1871   27.1360 C   0  0  0  0  0  0  0  0  0  0  0  0
   10.6374  -16.0997   28.5780 O   0  0  0  0  0  0  0  0  0  0  0  0
    9.9644  -17.1544   28.5812 O   0  0  0  0  0  0  0  0  0  0  0  0
  1  2  1  0
  2  3  2  0
  4  5  1  0
  4  2  1  0
  6  5  1  0
  7  6  1  0
  8 10  1  0
  8  7  1  0
  8  9  1  6
 10 12  1  0
 11 10  2  0
 12 13  1  0
 13 14  1  0
 14 15  2  0
 14 18  1  0
 17 16  1  6
 17 19  1  0
 18 17  1  0
 19 21  1  0
 20 19  2  0
M  END
$$$$
