RGA.pdb
     RDKit          3D

 21 20  0  0  1  0  0  0  0  0999 V2000
    8.5496  -13.7550   17.6817 N   0  0  0  0  0  0  0  0  0  0  0  0
    9.5525  -13.1704   18.5042 C   0  0  0  0  0  0  0  0  0  0  0  0
   10.6573  -12.7567   17.9724 N   0  0  0  0  0  0  0  0  0  0  0  0
    9.3621  -13.0339   19.8983 N   0  0  0  0  0  0  0  0  0  0  0  0
    8.6980  -14.0924   20.6949 C   0  0  0  0  0  0  0  0  0  0  0  0
    7.2314  -13.8984   20.6696 C   0  0  0  0  0  0  0  0  0  0  0  0
    6.3953  -14.8836   21.3670 C   0  0  0  0  0  0  0  0  0  0  0  0
    6.9482  -16.1499   21.8773 C   0  0  2  0  0  0  0  0  0  0  0  0
    6.1168  -17.2508   21.2566 N   0  0  0  0  0  0  0  0  0  0  0  0
    6.8619  -16.3360   23.3240 C   0  0  0  0  0  0  0  0  0  0  0  0
    5.7689  -16.0974   23.9469 O   0  0  0  0  0  0  0  0  0  0  0  0
   11.4083  -12.2911   18.5191 N   0  0  0  0  0  0  0  0  0  0  0  0
    7.9838  -16.7843   24.0656 C   0  0  0  0  0  0  0  0  0  0  0  0
    7.8570  -16.8623   25.5085 C   0  0  0  0  0  0  0  0  0  0  0  0
    8.9402  -16.1304   26.1734 O   0  0  0  0  0  0  0  0  0  0  0  0
   10.0392  -15.9725   25.5723 C   0  0  0  0  0  0  0  0  0  0  0  0
    9.3573  -13.8444   29.0392 C   0  0  2  0  0  0  0  0  0  0  0  0
    9.8382  -14.9729   28.1840 N   0  0  0  0  0  0  0  0  0  0  0  0
    8.7664  -15.6070   27.4655 C   0  0  0  0  0  0  0  0  0  0  0  0
   10.5258  -15.9789   29.0423 O   0  0  0  0  0  0  0  0  0  0  0  0
   10.0430  -17.1198   29.2180 O   0  0  0  0  0  0  0  0  0  0  0  0
  1  2  1  0
  2  3  2  0
  4  5  1  0
  4  2  1  0
  6  5  1  0
  7  6  1  0
  8 10  1  0
  8  7  1  0
  8  9  1  6
 10 12  1  0
 11 10  2  0
 12 13  1  0
 13 14  1  0
 14 15  2  0
 14 18  1  0
 17 16  1  6
 17 19  1  0
 18 17  1  0
 19 21  1  0
 20 19  2  0
M  END
$$$$
