RGA.pdb
     RDKit          3D

 21 20  0  0  1  0  0  0  0  0999 V2000
    8.2538  -12.2263   20.5627 N   0  0  0  0  0  0  0  0  0  0  0  0
    8.5373  -13.0667   19.4503 C   0  0  0  0  0  0  0  0  0  0  0  0
    9.1953  -12.5945   18.4411 N   0  0  0  0  0  0  0  0  0  0  0  0
    8.1099  -14.4141   19.4284 N   0  0  0  0  0  0  0  0  0  0  0  0
    7.3841  -15.0133   20.5729 C   0  0  0  0  0  0  0  0  0  0  0  0
    6.6615  -16.2273   20.1332 C   0  0  0  0  0  0  0  0  0  0  0  0
    5.9422  -17.0055   21.1495 C   0  0  0  0  0  0  0  0  0  0  0  0
    6.6520  -17.8182   22.1522 C   0  0  2  0  0  0  0  0  0  0  0  0
    6.0566  -19.2062   22.0645 N   0  0  0  0  0  0  0  0  0  0  0  0
    6.4896  -17.3885   23.5393 C   0  0  0  0  0  0  0  0  0  0  0  0
    5.3845  -16.8788   23.9376 O   0  0  0  0  0  0  0  0  0  0  0  0
    9.4851  -13.1785   17.6319 N   0  0  0  0  0  0  0  0  0  0  0  0
    7.5495  -17.5276   24.4703 C   0  0  0  0  0  0  0  0  0  0  0  0
    7.3638  -16.9745   25.7983 C   0  0  0  0  0  0  0  0  0  0  0  0
    8.4590  -16.0639   26.1482 O   0  0  0  0  0  0  0  0  0  0  0  0
    9.5087  -16.0614   25.4466 C   0  0  0  0  0  0  0  0  0  0  0  0
    8.9715  -13.2547   28.5786 C   0  0  2  0  0  0  0  0  0  0  0  0
    9.4288  -14.3394   27.6564 N   0  0  0  0  0  0  0  0  0  0  0  0
    8.3506  -15.1997   27.2505 C   0  0  0  0  0  0  0  0  0  0  0  0
   10.4818  -15.1471   28.3348 O   0  0  0  0  0  0  0  0  0  0  0  0
   10.2653  -16.3268   28.6913 O   0  0  0  0  0  0  0  0  0  0  0  0
  1  2  1  0
  2  3  2  0
  4  5  1  0
  4  2  1  0
  6  5  1  0
  7  6  1  0
  8 10  1  0
  8  7  1  0
  8  9  1  1
 10 12  1  0
 11 10  2  0
 12 13  1  0
 13 14  1  0
 14 15  2  0
 14 18  1  0
 17 16  1  6
 17 19  1  0
 18 17  1  0
 19 21  1  0
 20 19  2  0
M  END
$$$$
