RGA.pdb
     RDKit          3D

 21 20  0  0  1  0  0  0  0  0999 V2000
    8.0623  -12.2928   18.4535 N   0  0  0  0  0  0  0  0  0  0  0  0
    8.0733  -12.7711   19.7933 C   0  0  0  0  0  0  0  0  0  0  0  0
    8.1177  -11.9288   20.7746 N   0  0  0  0  0  0  0  0  0  0  0  0
    8.0372  -14.1567   20.0719 N   0  0  0  0  0  0  0  0  0  0  0  0
    6.8301  -14.7989   20.6432 C   0  0  0  0  0  0  0  0  0  0  0  0
    7.2172  -15.7257   21.7296 C   0  0  0  0  0  0  0  0  0  0  0  0
    8.3049  -16.6765   21.4675 C   0  0  0  0  0  0  0  0  0  0  0  0
    8.6859  -17.7103   22.4453 C   0  0  2  0  0  0  0  0  0  0  0  0
    7.6188  -17.6869   23.5173 N   0  0  0  0  0  0  0  0  0  0  0  0
    9.9590  -17.4912   23.1282 C   0  0  0  0  0  0  0  0  0  0  0  0
   11.0445  -17.3728   22.4593 O   0  0  0  0  0  0  0  0  0  0  0  0
    8.1518  -12.2226   21.7708 N   0  0  0  0  0  0  0  0  0  0  0  0
   10.0180  -17.4049   24.5418 C   0  0  0  0  0  0  0  0  0  0  0  0
   11.3150  -17.1924   25.1557 C   0  0  0  0  0  0  0  0  0  0  0  0
   11.2510  -16.1363   26.1714 O   0  0  0  0  0  0  0  0  0  0  0  0
   12.2976  -15.8240   26.8048 C   0  0  0  0  0  0  0  0  0  0  0  0
    8.7635  -13.5639   27.2498 C   0  0  2  0  0  0  0  0  0  0  0  0
    9.9366  -14.4662   27.4642 N   0  0  0  0  0  0  0  0  0  0  0  0
   10.0427  -15.4734   26.4438 C   0  0  0  0  0  0  0  0  0  0  0  0
    9.8139  -15.1198   28.7982 O   0  0  0  0  0  0  0  0  0  0  0  0
    9.6215  -16.3518   28.9014 O   0  0  0  0  0  0  0  0  0  0  0  0
  1  2  1  0
  2  3  2  0
  4  5  1  0
  4  2  1  0
  6  5  1  0
  7  6  1  0
  8 10  1  0
  8  7  1  0
  8  9  1  1
 10 12  1  0
 11 10  2  0
 12 13  1  0
 13 14  1  0
 14 15  2  0
 14 18  1  0
 17 16  1  6
 17 19  1  0
 18 17  1  0
 19 21  1  0
 20 19  2  0
M  END
$$$$
