RGA.pdb
     RDKit          3D

 21 20  0  0  1  0  0  0  0  0999 V2000
    2.7955  -20.8598   20.9728 N   0  0  0  0  0  0  0  0  0  0  0  0
    2.5767  -20.5325   19.6057 C   0  0  0  0  0  0  0  0  0  0  0  0
    1.7610  -21.2454   18.8981 N   0  0  0  0  0  0  0  0  0  0  0  0
    3.2387  -19.4374   19.0045 N   0  0  0  0  0  0  0  0  0  0  0  0
    4.2934  -18.6834   19.7220 C   0  0  0  0  0  0  0  0  0  0  0  0
    3.6765  -17.7390   20.6795 C   0  0  0  0  0  0  0  0  0  0  0  0
    4.5675  -16.9663   21.5542 C   0  0  0  0  0  0  0  0  0  0  0  0
    5.5840  -17.6174   22.3984 C   0  0  2  0  0  0  0  0  0  0  0  0
    4.9254  -18.8540   22.9691 N   0  0  0  0  0  0  0  0  0  0  0  0
    6.0477  -16.8343   23.5415 C   0  0  0  0  0  0  0  0  0  0  0  0
    5.2416  -16.5212   24.4859 O   0  0  0  0  0  0  0  0  0  0  0  0
    1.5379  -21.0317   17.9060 N   0  0  0  0  0  0  0  0  0  0  0  0
    7.3964  -16.4068   23.6282 C   0  0  0  0  0  0  0  0  0  0  0  0
    7.7634  -15.5361   24.7289 C   0  0  0  0  0  0  0  0  0  0  0  0
    8.1785  -16.3140   25.9009 O   0  0  0  0  0  0  0  0  0  0  0  0
    8.5940  -15.7093   26.9284 C   0  0  0  0  0  0  0  0  0  0  0  0
    7.5496  -19.4293   27.5268 C   0  0  2  0  0  0  0  0  0  0  0  0
    8.6000  -18.5119   26.9872 N   0  0  0  0  0  0  0  0  0  0  0  0
    8.1181  -17.7175   25.8900 C   0  0  0  0  0  0  0  0  0  0  0  0
    9.7717  -19.3180   26.5413 O   0  0  0  0  0  0  0  0  0  0  0  0
   10.1116  -19.3573   25.3377 O   0  0  0  0  0  0  0  0  0  0  0  0
  1  2  1  0
  2  3  2  0
  4  5  1  0
  4  2  1  0
  6  5  1  0
  7  6  1  0
  8 10  1  0
  8  7  1  0
  8  9  1  1
 10 12  1  0
 11 10  2  0
 12 13  1  0
 13 14  1  0
 14 15  2  0
 14 18  1  0
 17 16  1  1
 17 19  1  0
 18 17  1  0
 19 21  1  0
 20 19  2  0
M  END
$$$$
