TVM.pdb
     RDKit          3D

 23 22  0  0  1  0  0  0  0  0999 V2000
    4.8827  -17.7150   21.4648 C   0  0  0  0  0  0  0  0  0  0  0  0
    5.5092  -18.5328   20.3491 C   0  0  1  0  0  0  0  0  0  0  0  0
    4.5564  -19.3883   19.7872 O   0  0  0  0  0  0  0  0  0  0  0  0
    6.0678  -17.5839   19.2858 C   0  0  2  0  0  0  0  0  0  0  0  0
    6.5125  -18.4021   18.2014 N   0  0  0  0  0  0  0  0  0  0  0  0
    7.1902  -16.8416   19.9361 C   0  0  0  0  0  0  0  0  0  0  0  0
    8.3010  -17.4245   20.0544 O   0  0  0  0  0  0  0  0  0  0  0  0
    7.8727  -13.0101   19.4185 C   0  0  0  0  0  0  0  0  0  0  0  0
    7.9481  -13.3596   20.8686 C   0  0  1  0  0  0  0  0  0  0  0  0
    6.7849  -12.9005   21.6831 C   0  0  0  0  0  0  0  0  0  0  0  0
    8.2093  -14.8489   21.1014 C   0  0  2  0  0  0  0  0  0  0  0  0
    7.1045  -15.5331   20.4312 N   0  0  0  0  0  0  0  0  0  0  0  0
    8.2290  -15.1734   22.5499 C   0  0  0  0  0  0  0  0  0  0  0  0
    7.1982  -15.0043   23.2305 O   0  0  0  0  0  0  0  0  0  0  0  0
    7.2272  -20.3273   26.0796 C   0  0  0  0  0  0  0  0  0  0  0  0
    9.0279  -19.9578   26.1542 S   0  0  0  0  0  0  0  0  0  0  0  0
    9.3663  -18.2586   25.9243 C   0  0  0  0  0  0  0  0  0  0  0  0
    9.2652  -17.5426   24.6506 C   0  0  0  0  0  0  0  0  0  0  0  0
    9.4605  -16.0870   24.5834 C   0  0  2  0  0  0  0  0  0  0  0  0
    9.3890  -15.6623   23.1411 N   0  0  0  0  0  0  0  0  0  0  0  0
   10.8621  -15.6612   24.9842 C   0  0  0  0  0  0  0  0  0  0  0  0
   11.7960  -15.3942   24.2459 O   0  0  0  0  0  0  0  0  0  0  0  0
   11.1618  -15.5493   26.3692 O   0  0  0  0  0  0  0  0  0  0  0  0
  2  1  1  1
  2  4  1  0
  3  2  1  0
  4  5  1  6
  6  4  1  0
  6  7  2  0
  9  8  1  6
  9 11  1  0
  9 10  1  0
 11 12  1  6
 12  6  1  0
 13 11  1  0
 14 13  2  0
 16 15  1  0
 17 16  1  0
 18 17  1  0
 19 20  1  0
 19 18  1  6
 20 13  1  0
 21 19  1  0
 22 21  2  0
 23 21  1  0
M  END
$$$$
