TVM.pdb
     RDKit          3D

 23 22  0  0  1  0  0  0  0  0999 V2000
   11.0454  -14.6309   19.8554 C   0  0  0  0  0  0  0  0  0  0  0  0
   10.2925  -13.4390   19.2911 C   0  0  1  0  0  0  0  0  0  0  0  0
   10.8876  -13.0157   18.0986 O   0  0  0  0  0  0  0  0  0  0  0  0
    8.8345  -13.8370   19.0481 C   0  0  2  0  0  0  0  0  0  0  0  0
    8.1677  -12.6693   18.5634 N   0  0  0  0  0  0  0  0  0  0  0  0
    8.2998  -14.2911   20.3679 C   0  0  0  0  0  0  0  0  0  0  0  0
    7.9717  -13.4147   21.2117 O   0  0  0  0  0  0  0  0  0  0  0  0
    8.0904  -18.3661   21.2492 C   0  0  0  0  0  0  0  0  0  0  0  0
    6.9699  -17.4764   21.6777 C   0  0  1  0  0  0  0  0  0  0  0  0
    6.1591  -17.9977   22.8170 C   0  0  0  0  0  0  0  0  0  0  0  0
    7.4307  -16.0452   21.9601 C   0  0  2  0  0  0  0  0  0  0  0  0
    8.1325  -15.6303   20.7463 N   0  0  0  0  0  0  0  0  0  0  0  0
    8.3351  -15.9916   23.1362 C   0  0  0  0  0  0  0  0  0  0  0  0
    9.5550  -16.1971   22.9818 O   0  0  0  0  0  0  0  0  0  0  0  0
    5.3568  -12.3196   26.6066 C   0  0  0  0  0  0  0  0  0  0  0  0
    7.0888  -11.9195   27.0809 S   0  0  0  0  0  0  0  0  0  0  0  0
    8.2221  -13.1352   26.5403 C   0  0  0  0  0  0  0  0  0  0  0  0
    7.9689  -14.5777   26.5248 C   0  0  0  0  0  0  0  0  0  0  0  0
    8.6938  -15.4631   25.6016 C   0  0  2  0  0  0  0  0  0  0  0  0
    7.8236  -15.7138   24.3993 N   0  0  0  0  0  0  0  0  0  0  0  0
    8.8950  -16.8606   26.1611 C   0  0  0  0  0  0  0  0  0  0  0  0
    8.1381  -17.8130   26.0681 O   0  0  0  0  0  0  0  0  0  0  0  0
   10.0889  -17.1315   26.8833 O   0  0  0  0  0  0  0  0  0  0  0  0
  2  1  1  6
  2  4  1  0
  3  2  1  0
  4  5  1  1
  6  4  1  0
  6  7  2  0
  9  8  1  1
  9 11  1  0
  9 10  1  0
 11 12  1  6
 12  6  1  0
 13 11  1  0
 14 13  2  0
 16 15  1  0
 17 16  1  0
 18 17  1  0
 19 20  1  0
 19 18  1  1
 20 13  1  0
 21 19  1  0
 22 21  2  0
 23 21  1  0
M  END
$$$$
