TVM.pdb
     RDKit          3D

 23 22  0  0  1  0  0  0  0  0999 V2000
   11.4730  -18.8831   21.7491 C   0  0  0  0  0  0  0  0  0  0  0  0
   12.3109  -18.0137   20.8281 C   0  0  1  0  0  0  0  0  0  0  0  0
   13.1622  -18.8115   20.0573 O   0  0  0  0  0  0  0  0  0  0  0  0
   11.3808  -17.1988   19.9258 C   0  0  2  0  0  0  0  0  0  0  0  0
   12.2184  -16.4906   19.0093 N   0  0  0  0  0  0  0  0  0  0  0  0
   10.6215  -16.2809   20.8285 C   0  0  0  0  0  0  0  0  0  0  0  0
   11.2619  -15.3911   21.4495 O   0  0  0  0  0  0  0  0  0  0  0  0
    7.0522  -14.5548   20.1419 C   0  0  0  0  0  0  0  0  0  0  0  0
    7.1109  -15.3459   21.4074 C   0  0  1  0  0  0  0  0  0  0  0  0
    6.4793  -16.6958   21.3300 C   0  0  0  0  0  0  0  0  0  0  0  0
    8.5297  -15.4508   21.9697 C   0  0  2  0  0  0  0  0  0  0  0  0
    9.2371  -16.3320   21.0419 N   0  0  0  0  0  0  0  0  0  0  0  0
    8.5262  -16.0219   23.3401 C   0  0  0  0  0  0  0  0  0  0  0  0
    8.9349  -17.1858   23.5206 O   0  0  0  0  0  0  0  0  0  0  0  0
    5.9485  -11.5312   27.0532 C   0  0  0  0  0  0  0  0  0  0  0  0
    7.6682  -11.9444   27.5599 S   0  0  0  0  0  0  0  0  0  0  0  0
    8.2787  -13.3618   26.7398 C   0  0  0  0  0  0  0  0  0  0  0  0
    7.6185  -14.6690   26.7088 C   0  0  0  0  0  0  0  0  0  0  0  0
    8.1124  -15.7455   25.8378 C   0  0  2  0  0  0  0  0  0  0  0  0
    8.0707  -15.2628   24.4127 N   0  0  0  0  0  0  0  0  0  0  0  0
    7.1871  -16.9494   25.8061 C   0  0  0  0  0  0  0  0  0  0  0  0
    6.1920  -17.1023   25.1169 O   0  0  0  0  0  0  0  0  0  0  0  0
    7.4782  -18.0452   26.6633 O   0  0  0  0  0  0  0  0  0  0  0  0
  2  1  1  1
  2  4  1  0
  3  2  1  0
  4  5  1  6
  6  4  1  0
  6  7  2  0
  9  8  1  6
  9 11  1  0
  9 10  1  0
 11 12  1  6
 12  6  1  0
 13 11  1  0
 14 13  2  0
 16 15  1  0
 17 16  1  0
 18 17  1  0
 19 20  1  0
 19 18  1  1
 20 13  1  0
 21 19  1  0
 22 21  2  0
 23 21  1  0
M  END
$$$$
