TVM.pdb
     RDKit          3D

 23 22  0  0  1  0  0  0  0  0999 V2000
   11.2793  -14.0331   20.2138 C   0  0  0  0  0  0  0  0  0  0  0  0
   10.3725  -13.1752   19.3491 C   0  0  1  0  0  0  0  0  0  0  0  0
   11.1261  -12.5030   18.3820 O   0  0  0  0  0  0  0  0  0  0  0  0
    9.3240  -14.0694   18.6824 C   0  0  2  0  0  0  0  0  0  0  0  0
    8.4799  -13.2072   17.9161 N   0  0  0  0  0  0  0  0  0  0  0  0
    8.5874  -14.7481   19.7916 C   0  0  0  0  0  0  0  0  0  0  0  0
    7.6682  -14.1124   20.3735 O   0  0  0  0  0  0  0  0  0  0  0  0
    7.9416  -18.9664   22.3814 C   0  0  0  0  0  0  0  0  0  0  0  0
    8.4167  -18.1764   21.2063 C   0  0  1  0  0  0  0  0  0  0  0  0
    7.9565  -18.6883   19.8821 C   0  0  0  0  0  0  0  0  0  0  0  0
    8.1095  -16.6836   21.3385 C   0  0  2  0  0  0  0  0  0  0  0  0
    8.8409  -16.0512   20.2417 N   0  0  0  0  0  0  0  0  0  0  0  0
    8.5625  -16.1534   22.6491 C   0  0  0  0  0  0  0  0  0  0  0  0
    9.7812  -16.1216   22.9097 O   0  0  0  0  0  0  0  0  0  0  0  0
    7.1754  -11.0254   28.2535 C   0  0  0  0  0  0  0  0  0  0  0  0
    7.0752  -11.7589   26.5693 S   0  0  0  0  0  0  0  0  0  0  0  0
    6.9682  -13.5028   26.6108 C   0  0  0  0  0  0  0  0  0  0  0  0
    6.8491  -14.3693   25.4359 C   0  0  0  0  0  0  0  0  0  0  0  0
    8.0220  -15.0661   24.8878 C   0  0  2  0  0  0  0  0  0  0  0  0
    7.6332  -15.6958   23.5771 N   0  0  0  0  0  0  0  0  0  0  0  0
    8.4372  -16.2661   25.7207 C   0  0  0  0  0  0  0  0  0  0  0  0
    7.9151  -17.3687   25.7453 O   0  0  0  0  0  0  0  0  0  0  0  0
    9.5577  -16.1310   26.5849 O   0  0  0  0  0  0  0  0  0  0  0  0
  2  1  1  6
  2  4  1  0
  3  2  1  0
  4  5  1  1
  6  4  1  0
  6  7  2  0
  9  8  1  1
  9 11  1  0
  9 10  1  0
 11 12  1  6
 12  6  1  0
 13 11  1  0
 14 13  2  0
 16 15  1  0
 17 16  1  0
 18 17  1  0
 19 20  1  0
 19 18  1  1
 20 13  1  0
 21 19  1  0
 22 21  2  0
 23 21  1  0
M  END
$$$$
