TVM.pdb
     RDKit          3D

 23 22  0  0  1  0  0  0  0  0999 V2000
    7.4948  -20.0250   18.9354 C   0  0  0  0  0  0  0  0  0  0  0  0
    8.1196  -18.9370   19.7908 C   0  0  1  0  0  0  0  0  0  0  0  0
    9.2537  -19.4306   20.4431 O   0  0  0  0  0  0  0  0  0  0  0  0
    8.4913  -17.7501   18.8985 C   0  0  2  0  0  0  0  0  0  0  0  0
    9.5255  -18.2053   18.0232 N   0  0  0  0  0  0  0  0  0  0  0  0
    8.9584  -16.6672   19.8166 C   0  0  0  0  0  0  0  0  0  0  0  0
   10.1793  -16.6337   20.1264 O   0  0  0  0  0  0  0  0  0  0  0  0
    8.3725  -12.9638   19.4557 C   0  0  0  0  0  0  0  0  0  0  0  0
    7.9566  -13.3557   20.8356 C   0  0  1  0  0  0  0  0  0  0  0  0
    6.4809  -13.4124   21.0508 C   0  0  0  0  0  0  0  0  0  0  0  0
    8.6151  -14.6557   21.3010 C   0  0  2  0  0  0  0  0  0  0  0  0
    8.1367  -15.6742   20.3673 N   0  0  0  0  0  0  0  0  0  0  0  0
    8.2229  -14.9911   22.6931 C   0  0  0  0  0  0  0  0  0  0  0  0
    7.2682  -15.7679   22.8912 O   0  0  0  0  0  0  0  0  0  0  0  0
    6.7793  -11.4953   28.4718 C   0  0  0  0  0  0  0  0  0  0  0  0
    6.9525  -11.9043   26.6864 S   0  0  0  0  0  0  0  0  0  0  0  0
    6.4630  -13.5440   26.3313 C   0  0  0  0  0  0  0  0  0  0  0  0
    7.0358  -14.3868   25.2791 C   0  0  0  0  0  0  0  0  0  0  0  0
    8.4860  -14.6148   25.1982 C   0  0  2  0  0  0  0  0  0  0  0  0
    8.9167  -14.4422   23.7663 N   0  0  0  0  0  0  0  0  0  0  0  0
    8.8734  -16.0542   25.4886 C   0  0  0  0  0  0  0  0  0  0  0  0
    8.6949  -17.0288   24.7764 O   0  0  0  0  0  0  0  0  0  0  0  0
    9.5199  -16.3421   26.7214 O   0  0  0  0  0  0  0  0  0  0  0  0
  2  1  1  6
  2  4  1  0
  3  2  1  0
  4  5  1  6
  6  4  1  0
  6  7  2  0
  9  8  1  6
  9 11  1  0
  9 10  1  0
 11 12  1  6
 12  6  1  0
 13 11  1  0
 14 13  2  0
 16 15  1  0
 17 16  1  0
 18 17  1  0
 19 20  1  0
 19 18  1  6
 20 13  1  0
 21 19  1  0
 22 21  2  0
 23 21  1  0
M  END
$$$$
