TVM.pdb
     RDKit          3D

 23 22  0  0  1  0  0  0  0  0999 V2000
   10.9132  -19.4492   21.1609 C   0  0  0  0  0  0  0  0  0  0  0  0
   11.7865  -18.8488   20.0733 C   0  0  1  0  0  0  0  0  0  0  0  0
   12.1790  -19.8411   19.1697 O   0  0  0  0  0  0  0  0  0  0  0  0
   11.0027  -17.7495   19.3518 C   0  0  2  0  0  0  0  0  0  0  0  0
   11.8766  -17.2104   18.3574 N   0  0  0  0  0  0  0  0  0  0  0  0
   10.6379  -16.7431   20.3947 C   0  0  0  0  0  0  0  0  0  0  0  0
   11.5592  -16.0486   20.9012 O   0  0  0  0  0  0  0  0  0  0  0  0
    6.9282  -14.6775   23.0077 C   0  0  0  0  0  0  0  0  0  0  0  0
    7.5320  -15.2716   21.7775 C   0  0  1  0  0  0  0  0  0  0  0  0
    7.2937  -14.4936   20.5264 C   0  0  0  0  0  0  0  0  0  0  0  0
    9.0221  -15.5761   21.9422 C   0  0  2  0  0  0  0  0  0  0  0  0
    9.3368  -16.5076   20.8600 N   0  0  0  0  0  0  0  0  0  0  0  0
    9.3047  -16.1893   23.2644 C   0  0  0  0  0  0  0  0  0  0  0  0
    9.0607  -17.3986   23.4444 O   0  0  0  0  0  0  0  0  0  0  0  0
    9.9257  -13.3594   30.1206 C   0  0  0  0  0  0  0  0  0  0  0  0
   11.3536  -13.8483   29.0685 S   0  0  0  0  0  0  0  0  0  0  0  0
   10.9347  -15.0986   27.9214 C   0  0  0  0  0  0  0  0  0  0  0  0
   10.6503  -14.8802   26.5013 C   0  0  0  0  0  0  0  0  0  0  0  0
   10.1860  -15.9813   25.6448 C   0  0  2  0  0  0  0  0  0  0  0  0
    9.8379  -15.4193   24.2925 N   0  0  0  0  0  0  0  0  0  0  0  0
    8.8654  -16.5714   26.1074 C   0  0  0  0  0  0  0  0  0  0  0  0
    7.7463  -16.1218   25.9219 O   0  0  0  0  0  0  0  0  0  0  0  0
    8.8921  -17.7861   26.8451 O   0  0  0  0  0  0  0  0  0  0  0  0
  2  1  1  1
  2  4  1  0
  3  2  1  0
  4  5  1  6
  6  4  1  0
  6  7  2  0
  9  8  1  1
  9 11  1  0
  9 10  1  0
 11 12  1  6
 12  6  1  0
 13 11  1  0
 14 13  2  0
 16 15  1  0
 17 16  1  0
 18 17  1  0
 19 20  1  0
 19 18  1  1
 20 13  1  0
 21 19  1  0
 22 21  2  0
 23 21  1  0
M  END
$$$$
