TVM.pdb
     RDKit          3D

 23 22  0  0  1  0  0  0  0  0999 V2000
    7.2341  -18.9707   18.3509 C   0  0  0  0  0  0  0  0  0  0  0  0
    7.0897  -18.5143   19.7920 C   0  0  1  0  0  0  0  0  0  0  0  0
    6.5792  -17.2132   19.8351 O   0  0  0  0  0  0  0  0  0  0  0  0
    6.1583  -19.4780   20.5315 C   0  0  2  0  0  0  0  0  0  0  0  0
    4.8992  -19.4275   19.8567 N   0  0  0  0  0  0  0  0  0  0  0  0
    6.0708  -18.9785   21.9374 C   0  0  0  0  0  0  0  0  0  0  0  0
    5.1369  -18.1854   22.2313 O   0  0  0  0  0  0  0  0  0  0  0  0
    7.7260  -19.5038   26.5907 C   0  0  0  0  0  0  0  0  0  0  0  0
    7.3681  -19.9623   25.2150 C   0  0  1  0  0  0  0  0  0  0  0  0
    6.4452  -21.1341   25.1675 C   0  0  0  0  0  0  0  0  0  0  0  0
    6.8373  -18.8277   24.3368 C   0  0  2  0  0  0  0  0  0  0  0  0
    6.9558  -19.3261   22.9673 N   0  0  0  0  0  0  0  0  0  0  0  0
    7.6336  -17.5878   24.5172 C   0  0  0  0  0  0  0  0  0  0  0  0
    8.7518  -17.4925   23.9742 O   0  0  0  0  0  0  0  0  0  0  0  0
    6.5295  -10.2387   25.6299 C   0  0  0  0  0  0  0  0  0  0  0  0
    6.3429  -11.5858   26.8690 S   0  0  0  0  0  0  0  0  0  0  0  0
    7.3670  -12.9575   26.5165 C   0  0  0  0  0  0  0  0  0  0  0  0
    6.9018  -14.2487   26.0049 C   0  0  0  0  0  0  0  0  0  0  0  0
    7.8473  -15.2260   25.4460 C   0  0  2  0  0  0  0  0  0  0  0  0
    7.1341  -16.5418   25.2858 N   0  0  0  0  0  0  0  0  0  0  0  0
    8.9714  -15.5742   26.4060 C   0  0  0  0  0  0  0  0  0  0  0  0
    8.9553  -16.4088   27.2959 O   0  0  0  0  0  0  0  0  0  0  0  0
   10.2001  -14.8693   26.2884 O   0  0  0  0  0  0  0  0  0  0  0  0
  2  1  1  6
  2  4  1  0
  3  2  1  0
  4  5  1  6
  6  4  1  0
  6  7  2  0
  9  8  1  1
  9 11  1  0
  9 10  1  0
 11 12  1  6
 12  6  1  0
 13 11  1  0
 14 13  2  0
 16 15  1  0
 17 16  1  0
 18 17  1  0
 19 20  1  0
 19 18  1  1
 20 13  1  0
 21 19  1  0
 22 21  2  0
 23 21  1  0
M  END
$$$$
