TVM.pdb
     RDKit          3D

 23 22  0  0  1  0  0  0  0  0999 V2000
   10.3206  -19.4653   21.3445 C   0  0  0  0  0  0  0  0  0  0  0  0
   11.5825  -18.8454   20.7708 C   0  0  1  0  0  0  0  0  0  0  0  0
   12.2863  -19.7938   20.0221 O   0  0  0  0  0  0  0  0  0  0  0  0
   11.1994  -17.6505   19.8940 C   0  0  2  0  0  0  0  0  0  0  0  0
   12.4029  -17.2017   19.2668 N   0  0  0  0  0  0  0  0  0  0  0  0
   10.6209  -16.6251   20.8146 C   0  0  0  0  0  0  0  0  0  0  0  0
   11.3733  -16.1150   21.6871 O   0  0  0  0  0  0  0  0  0  0  0  0
    6.6382  -13.8207   21.8863 C   0  0  0  0  0  0  0  0  0  0  0  0
    7.4967  -14.6425   20.9818 C   0  0  1  0  0  0  0  0  0  0  0  0
    7.8324  -13.9943   19.6800 C   0  0  0  0  0  0  0  0  0  0  0  0
    8.7663  -15.1443   21.6721 C   0  0  2  0  0  0  0  0  0  0  0  0
    9.2920  -16.1804   20.7844 N   0  0  0  0  0  0  0  0  0  0  0  0
    8.4659  -15.7030   23.0144 C   0  0  0  0  0  0  0  0  0  0  0  0
    8.1306  -16.8991   23.1199 O   0  0  0  0  0  0  0  0  0  0  0  0
   10.7539  -13.6983   30.0460 C   0  0  0  0  0  0  0  0  0  0  0  0
   10.3638  -13.4517   28.2650 S   0  0  0  0  0  0  0  0  0  0  0  0
    8.9543  -14.3553   27.7636 C   0  0  0  0  0  0  0  0  0  0  0  0
    8.3042  -14.2479   26.4555 C   0  0  0  0  0  0  0  0  0  0  0  0
    8.2645  -15.3930   25.5342 C   0  0  2  0  0  0  0  0  0  0  0  0
    8.5588  -14.8969   24.1439 N   0  0  0  0  0  0  0  0  0  0  0  0
    6.8728  -15.9829   25.3869 C   0  0  0  0  0  0  0  0  0  0  0  0
    5.9526  -15.5532   24.7107 O   0  0  0  0  0  0  0  0  0  0  0  0
    6.5660  -17.1718   26.1031 O   0  0  0  0  0  0  0  0  0  0  0  0
  2  1  1  6
  2  4  1  0
  3  2  1  0
  4  5  1  1
  6  4  1  0
  6  7  2  0
  9  8  1  1
  9 11  1  0
  9 10  1  0
 11 12  1  6
 12  6  1  0
 13 11  1  0
 14 13  2  0
 16 15  1  0
 17 16  1  0
 18 17  1  0
 19 20  1  0
 19 18  1  1
 20 13  1  0
 21 19  1  0
 22 21  2  0
 23 21  1  0
M  END
$$$$
