WHC.pdb
     RDKit          3D

 31 33  0  0  1  0  0  0  0  0999 V2000
   21.1889  -31.1950  -12.9077 N   0  0  0  0  0  0  0  0  0  0  0  0
   21.3608  -30.7699  -11.5419 C   0  0  1  0  0  0  0  0  0  0  0  0
   20.0681  -30.4151  -10.8402 C   0  0  0  0  0  0  0  0  0  0  0  0
   19.5320  -29.1552  -11.4251 C   0  0  0  0  0  0  0  0  0  0  0  0
   20.1737  -28.4138  -12.4298 C   0  0  0  0  0  0  0  0  0  0  0  0
   19.3605  -27.4016  -12.7050 N   0  0  0  0  0  0  0  0  0  0  0  0
   18.2584  -27.4293  -11.9681 C   0  0  0  0  0  0  0  0  0  0  0  0
   17.1321  -26.6170  -11.8716 C   0  0  0  0  0  0  0  0  0  0  0  0
   16.1330  -26.9231  -10.9669 C   0  0  0  0  0  0  0  0  0  0  0  0
   16.2005  -28.0206  -10.1382 C   0  0  0  0  0  0  0  0  0  0  0  0
   17.3206  -28.8218  -10.2409 C   0  0  0  0  0  0  0  0  0  0  0  0
   18.3450  -28.5343  -11.1459 C   0  0  0  0  0  0  0  0  0  0  0  0
   22.0489  -31.8296  -10.7713 C   0  0  0  0  0  0  0  0  0  0  0  0
   21.8543  -33.0376  -11.0786 O   0  0  0  0  0  0  0  0  0  0  0  0
   22.9198  -31.5304   -9.7069 N   0  0  0  0  0  0  0  0  0  0  0  0
   23.5882  -32.5718   -8.9779 C   0  0  1  0  0  0  0  0  0  0  0  0
   25.0677  -32.4524   -9.1445 C   0  0  0  0  0  0  0  0  0  0  0  0
   25.6102  -32.9769  -10.3982 C   0  0  0  0  0  0  0  0  0  0  0  0
   25.0018  -33.7071  -11.3640 C   0  0  0  0  0  0  0  0  0  0  0  0
   25.9151  -33.9477  -12.3319 N   0  0  0  0  0  0  0  0  0  0  0  0
   27.0855  -33.3676  -11.9688 C   0  0  0  0  0  0  0  0  0  0  0  0
   26.9015  -32.7811  -10.7963 N   0  0  0  0  0  0  0  0  0  0  0  0
   23.3420  -32.2764   -7.5038 C   0  0  0  0  0  0  0  0  0  0  0  0
   23.3697  -31.1103   -7.0524 O   0  0  0  0  0  0  0  0  0  0  0  0
   23.0730  -33.3254   -6.5850 N   0  0  0  0  0  0  0  0  0  0  0  0
   22.8819  -33.1083   -5.1527 C   0  0  1  0  0  0  0  0  0  0  0  0
   21.4656  -33.0091   -4.7215 C   0  0  0  0  0  0  0  0  0  0  0  0
   21.3814  -32.8317   -2.9082 S   0  0  0  0  0  0  0  0  0  0  0  0
   23.5375  -34.2532   -4.4001 C   0  0  0  0  0  0  0  0  0  0  0  0
   23.6406  -35.3226   -5.0015 O   0  0  0  0  0  0  0  0  0  0  0  0
   23.9838  -34.0978   -3.1191 O   0  0  0  0  0  0  0  0  0  0  0  0
  2  1  1  6
  2 13  1  0
  2  3  1  0
  3  4  1  0
  4  5  2  0
  5  6  1  0
  7  6  1  0
  8  7  2  0
  9  8  1  0
 10 11  1  0
 10  9  2  0
 11 12  2  0
 12  4  1  0
 12  7  1  0
 13 14  2  0
 15 13  1  0
 15 16  1  0
 16 17  1  1
 17 18  1  0
 18 22  1  0
 19 18  2  0
 19 20  1  0
 20 21  1  0
 22 21  2  0
 23 24  2  0
 23 16  1  0
 25 23  1  0
 26 25  1  0
 26 27  1  6
 28 27  1  0
 29 31  1  0
 29 26  1  0
 30 29  2  0
M  END
$$$$
