WHC.pdb
     RDKit          3D

 31 33  0  0  1  0  0  0  0  0999 V2000
   24.6340  -19.3777  -10.7093 N   0  0  0  0  0  0  0  0  0  0  0  0
   25.8851  -20.0060  -11.0490 C   0  0  1  0  0  0  0  0  0  0  0  0
   26.2295  -21.1993  -10.1848 C   0  0  0  0  0  0  0  0  0  0  0  0
   26.4249  -20.7387   -8.7825 C   0  0  0  0  0  0  0  0  0  0  0  0
   25.3855  -20.5640   -7.8552 C   0  0  0  0  0  0  0  0  0  0  0  0
   25.9716  -20.1954   -6.7228 N   0  0  0  0  0  0  0  0  0  0  0  0
   27.2900  -20.1190   -6.8426 C   0  0  0  0  0  0  0  0  0  0  0  0
   28.3273  -19.7809   -5.9781 C   0  0  0  0  0  0  0  0  0  0  0  0
   29.6341  -19.7887   -6.4280 C   0  0  0  0  0  0  0  0  0  0  0  0
   29.9659  -20.1246   -7.7214 C   0  0  0  0  0  0  0  0  0  0  0  0
   28.9312  -20.4597   -8.5723 C   0  0  0  0  0  0  0  0  0  0  0  0
   27.6019  -20.4587   -8.1433 C   0  0  0  0  0  0  0  0  0  0  0  0
   25.8621  -20.4318  -12.4662 C   0  0  0  0  0  0  0  0  0  0  0  0
   24.7551  -20.6950  -13.0108 O   0  0  0  0  0  0  0  0  0  0  0  0
   27.0397  -20.5472  -13.2285 N   0  0  0  0  0  0  0  0  0  0  0  0
   26.9887  -20.7857  -14.6440 C   0  0  1  0  0  0  0  0  0  0  0  0
   28.3223  -20.5196  -15.2617 C   0  0  0  0  0  0  0  0  0  0  0  0
   28.4009  -20.7103  -16.7103 C   0  0  0  0  0  0  0  0  0  0  0  0
   27.4472  -21.1230  -17.5801 C   0  0  0  0  0  0  0  0  0  0  0  0
   27.9974  -21.1352  -18.8154 N   0  0  0  0  0  0  0  0  0  0  0  0
   29.2872  -20.7301  -18.7129 C   0  0  0  0  0  0  0  0  0  0  0  0
   29.5324  -20.4746  -17.4372 N   0  0  0  0  0  0  0  0  0  0  0  0
   26.7805  -22.2857  -14.8093 C   0  0  0  0  0  0  0  0  0  0  0  0
   27.2620  -23.1102  -14.0016 O   0  0  0  0  0  0  0  0  0  0  0  0
   26.0281  -22.8016  -15.8977 N   0  0  0  0  0  0  0  0  0  0  0  0
   25.0365  -23.8654  -15.7550 C   0  0  1  0  0  0  0  0  0  0  0  0
   24.3293  -23.8865  -14.4507 C   0  0  0  0  0  0  0  0  0  0  0  0
   23.5719  -25.5240  -14.1834 S   0  0  0  0  0  0  0  0  0  0  0  0
   24.0064  -23.7156  -16.8612 C   0  0  0  0  0  0  0  0  0  0  0  0
   23.8210  -24.6978  -17.5801 O   0  0  0  0  0  0  0  0  0  0  0  0
   23.3272  -22.5457  -17.0455 O   0  0  0  0  0  0  0  0  0  0  0  0
  2  1  1  1
  2 13  1  0
  2  3  1  0
  3  4  1  0
  4  5  2  0
  5  6  1  0
  7  6  1  0
  8  7  2  0
  9  8  1  0
 10 11  1  0
 10  9  2  0
 11 12  2  0
 12  4  1  0
 12  7  1  0
 13 14  2  0
 15 13  1  0
 15 16  1  0
 16 17  1  6
 17 18  1  0
 18 22  1  0
 19 18  2  0
 19 20  1  0
 20 21  1  0
 22 21  2  0
 23 24  2  0
 23 16  1  0
 25 23  1  0
 26 25  1  0
 26 27  1  1
 28 27  1  0
 29 31  1  0
 29 26  1  0
 30 29  2  0
M  END
$$$$
