WHC.pdb
     RDKit          3D

 31 33  0  0  1  0  0  0  0  0999 V2000
   27.3779  -22.1597  -10.6198 N   0  0  0  0  0  0  0  0  0  0  0  0
   26.4147  -21.1634  -10.2257 C   0  0  1  0  0  0  0  0  0  0  0  0
   27.0302  -19.8965   -9.6732 C   0  0  0  0  0  0  0  0  0  0  0  0
   28.0063  -20.2589   -8.6089 C   0  0  0  0  0  0  0  0  0  0  0  0
   29.2016  -20.9591   -8.8370 C   0  0  0  0  0  0  0  0  0  0  0  0
   29.8028  -21.0388   -7.6564 N   0  0  0  0  0  0  0  0  0  0  0  0
   29.1008  -20.4533   -6.6958 C   0  0  0  0  0  0  0  0  0  0  0  0
   29.2849  -20.2739   -5.3278 C   0  0  0  0  0  0  0  0  0  0  0  0
   28.3309  -19.6074   -4.5821 C   0  0  0  0  0  0  0  0  0  0  0  0
   27.1806  -19.0992   -5.1427 C   0  0  0  0  0  0  0  0  0  0  0  0
   27.0060  -19.2804   -6.5005 C   0  0  0  0  0  0  0  0  0  0  0  0
   27.9540  -19.9513   -7.2767 C   0  0  0  0  0  0  0  0  0  0  0  0
   25.5556  -20.8150  -11.3793 C   0  0  0  0  0  0  0  0  0  0  0  0
   26.0480  -20.1549  -12.3350 O   0  0  0  0  0  0  0  0  0  0  0  0
   24.2041  -21.2027  -11.4456 N   0  0  0  0  0  0  0  0  0  0  0  0
   23.4156  -20.9529  -12.6198 C   0  0  1  0  0  0  0  0  0  0  0  0
   23.3271  -22.1874  -13.4558 C   0  0  0  0  0  0  0  0  0  0  0  0
   24.5308  -22.5286  -14.2146 C   0  0  0  0  0  0  0  0  0  0  0  0
   25.2810  -23.6566  -14.1828 C   0  0  0  0  0  0  0  0  0  0  0  0
   26.2899  -23.5024  -15.0701 N   0  0  0  0  0  0  0  0  0  0  0  0
   26.1654  -22.2839  -15.6514 C   0  0  0  0  0  0  0  0  0  0  0  0
   25.1007  -21.6930  -15.1318 N   0  0  0  0  0  0  0  0  0  0  0  0
   21.9930  -20.7186  -12.1277 C   0  0  0  0  0  0  0  0  0  0  0  0
   21.4824  -21.4239  -11.2300 O   0  0  0  0  0  0  0  0  0  0  0  0
   21.1920  -19.6837  -12.6792 N   0  0  0  0  0  0  0  0  0  0  0  0
   19.8531  -19.3594  -12.1922 C   0  0  1  0  0  0  0  0  0  0  0  0
   19.3269  -18.0476  -12.6441 C   0  0  0  0  0  0  0  0  0  0  0  0
   20.4218  -16.7086  -12.0654 S   0  0  0  0  0  0  0  0  0  0  0  0
   18.8971  -20.4474  -12.6498 C   0  0  0  0  0  0  0  0  0  0  0  0
   19.1802  -21.0261  -13.6991 O   0  0  0  0  0  0  0  0  0  0  0  0
   17.7794  -20.7594  -11.9304 O   0  0  0  0  0  0  0  0  0  0  0  0
  2  1  1  6
  2 13  1  0
  2  3  1  0
  3  4  1  0
  4  5  2  0
  5  6  1  0
  7  6  1  0
  8  7  2  0
  9  8  1  0
 10 11  1  0
 10  9  2  0
 11 12  2  0
 12  4  1  0
 12  7  1  0
 13 14  2  0
 15 13  1  0
 15 16  1  0
 16 17  1  6
 17 18  1  0
 18 22  1  0
 19 18  2  0
 19 20  1  0
 20 21  1  0
 22 21  2  0
 23 24  2  0
 23 16  1  0
 25 23  1  0
 26 25  1  0
 26 27  1  6
 28 27  1  0
 29 31  1  0
 29 26  1  0
 30 29  2  0
M  END
$$$$
