WHC.pdb
     RDKit          3D

 31 33  0  0  1  0  0  0  0  0999 V2000
   32.0661  -32.3647  -16.1256 N   0  0  0  0  0  0  0  0  0  0  0  0
   33.1040  -32.9194  -16.9567 C   0  0  1  0  0  0  0  0  0  0  0  0
   33.2342  -32.2507  -18.3077 C   0  0  0  0  0  0  0  0  0  0  0  0
   32.0531  -32.6105  -19.1398 C   0  0  0  0  0  0  0  0  0  0  0  0
   31.6027  -33.9238  -19.3479 C   0  0  0  0  0  0  0  0  0  0  0  0
   30.5122  -33.8159  -20.0968 N   0  0  0  0  0  0  0  0  0  0  0  0
   30.2254  -32.5538  -20.3855 C   0  0  0  0  0  0  0  0  0  0  0  0
   29.2232  -31.9279  -21.1214 C   0  0  0  0  0  0  0  0  0  0  0  0
   29.2110  -30.5512  -21.2437 C   0  0  0  0  0  0  0  0  0  0  0  0
   30.1652  -29.7509  -20.6566 C   0  0  0  0  0  0  0  0  0  0  0  0
   31.1552  -30.3796  -19.9274 C   0  0  0  0  0  0  0  0  0  0  0  0
   31.1914  -31.7691  -19.7892 C   0  0  0  0  0  0  0  0  0  0  0  0
   34.4040  -32.8375  -16.2544 C   0  0  0  0  0  0  0  0  0  0  0  0
   34.6425  -31.8419  -15.5172 O   0  0  0  0  0  0  0  0  0  0  0  0
   35.3829  -33.8410  -16.3797 N   0  0  0  0  0  0  0  0  0  0  0  0
   36.5818  -33.8132  -15.5893 C   0  0  1  0  0  0  0  0  0  0  0  0
   36.4012  -34.6222  -14.3468 C   0  0  0  0  0  0  0  0  0  0  0  0
   35.9763  -33.8784  -13.1606 C   0  0  0  0  0  0  0  0  0  0  0  0
   35.7501  -32.5510  -13.0086 C   0  0  0  0  0  0  0  0  0  0  0  0
   35.3680  -32.3448  -11.7278 N   0  0  0  0  0  0  0  0  0  0  0  0
   35.3557  -33.5400  -11.0877 C   0  0  0  0  0  0  0  0  0  0  0  0
   35.7261  -34.4690  -11.9552 N   0  0  0  0  0  0  0  0  0  0  0  0
   37.6315  -34.5707  -16.3926 C   0  0  0  0  0  0  0  0  0  0  0  0
   37.3163  -35.4548  -17.2192 O   0  0  0  0  0  0  0  0  0  0  0  0
   39.0149  -34.2971  -16.2255 N   0  0  0  0  0  0  0  0  0  0  0  0
   40.0683  -35.0338  -16.9203 C   0  0  1  0  0  0  0  0  0  0  0  0
   39.9548  -36.5108  -16.8358 C   0  0  0  0  0  0  0  0  0  0  0  0
   40.0913  -37.0439  -15.0970 S   0  0  0  0  0  0  0  0  0  0  0  0
   40.0529  -34.6306  -18.3847 C   0  0  0  0  0  0  0  0  0  0  0  0
   39.2326  -33.7733  -18.7131 O   0  0  0  0  0  0  0  0  0  0  0  0
   40.9064  -35.1984  -19.2866 O   0  0  0  0  0  0  0  0  0  0  0  0
  2  1  1  1
  2 13  1  0
  2  3  1  0
  3  4  1  0
  4  5  2  0
  5  6  1  0
  7  6  1  0
  8  7  2  0
  9  8  1  0
 10 11  1  0
 10  9  2  0
 11 12  2  0
 12  4  1  0
 12  7  1  0
 13 14  2  0
 15 13  1  0
 15 16  1  0
 16 17  1  1
 17 18  1  0
 18 22  1  0
 19 18  2  0
 19 20  1  0
 20 21  1  0
 22 21  2  0
 23 24  2  0
 23 16  1  0
 25 23  1  0
 26 25  1  0
 26 27  1  6
 28 27  1  0
 29 31  1  0
 29 26  1  0
 30 29  2  0
M  END
$$$$
