WHC.pdb
     RDKit          3D

 31 33  0  0  1  0  0  0  0  0999 V2000
   18.7184  -22.4906  -18.3500 N   0  0  0  0  0  0  0  0  0  0  0  0
   19.6090  -22.0464  -17.3083 C   0  0  1  0  0  0  0  0  0  0  0  0
   19.1872  -20.7520  -16.6480 C   0  0  0  0  0  0  0  0  0  0  0  0
   19.4636  -19.6234  -17.5789 C   0  0  0  0  0  0  0  0  0  0  0  0
   18.5075  -19.0484  -18.4310 C   0  0  0  0  0  0  0  0  0  0  0  0
   19.1303  -18.0548  -19.0525 N   0  0  0  0  0  0  0  0  0  0  0  0
   20.3966  -17.9428  -18.6748 C   0  0  0  0  0  0  0  0  0  0  0  0
   21.4438  -17.0942  -19.0223 C   0  0  0  0  0  0  0  0  0  0  0  0
   22.6856  -17.2508  -18.4359 C   0  0  0  0  0  0  0  0  0  0  0  0
   22.9409  -18.2289  -17.5011 C   0  0  0  0  0  0  0  0  0  0  0  0
   21.8964  -19.0658  -17.1612 C   0  0  0  0  0  0  0  0  0  0  0  0
   20.6322  -18.9298  -17.7396 C   0  0  0  0  0  0  0  0  0  0  0  0
   19.7287  -23.0960  -16.2718 C   0  0  0  0  0  0  0  0  0  0  0  0
   18.7955  -23.9336  -16.1348 O   0  0  0  0  0  0  0  0  0  0  0  0
   20.8569  -23.1918  -15.4357 N   0  0  0  0  0  0  0  0  0  0  0  0
   21.0033  -24.2768  -14.5060 C   0  0  1  0  0  0  0  0  0  0  0  0
   22.3985  -24.3179  -13.9744 C   0  0  0  0  0  0  0  0  0  0  0  0
   23.4230  -24.7755  -14.9135 C   0  0  0  0  0  0  0  0  0  0  0  0
   23.2905  -25.2230  -16.1856 C   0  0  0  0  0  0  0  0  0  0  0  0
   24.5265  -25.5235  -16.6448 N   0  0  0  0  0  0  0  0  0  0  0  0
   25.4229  -25.2621  -15.6618 C   0  0  0  0  0  0  0  0  0  0  0  0
   24.7542  -24.8108  -14.6120 N   0  0  0  0  0  0  0  0  0  0  0  0
   20.1430  -23.9160  -13.3015 C   0  0  0  0  0  0  0  0  0  0  0  0
   19.8145  -22.7343  -13.0575 O   0  0  0  0  0  0  0  0  0  0  0  0
   19.6841  -24.9189  -12.4069 N   0  0  0  0  0  0  0  0  0  0  0  0
   18.6893  -24.6711  -11.3657 C   0  0  1  0  0  0  0  0  0  0  0  0
   17.3179  -24.4046  -11.8656 C   0  0  0  0  0  0  0  0  0  0  0  0
   16.7025  -22.8318  -11.1773 S   0  0  0  0  0  0  0  0  0  0  0  0
   18.6426  -25.8793  -10.4463 C   0  0  0  0  0  0  0  0  0  0  0  0
   17.9517  -25.7758   -9.4325 O   0  0  0  0  0  0  0  0  0  0  0  0
   19.3383  -27.0182  -10.7344 O   0  0  0  0  0  0  0  0  0  0  0  0
  2  1  1  6
  2 13  1  0
  2  3  1  0
  3  4  1  0
  4  5  2  0
  5  6  1  0
  7  6  1  0
  8  7  2  0
  9  8  1  0
 10 11  1  0
 10  9  2  0
 11 12  2  0
 12  4  1  0
 12  7  1  0
 13 14  2  0
 15 13  1  0
 15 16  1  0
 16 17  1  1
 17 18  1  0
 18 22  1  0
 19 18  2  0
 19 20  1  0
 20 21  1  0
 22 21  2  0
 23 24  2  0
 23 16  1  0
 25 23  1  0
 26 25  1  0
 26 27  1  6
 28 27  1  0
 29 31  1  0
 29 26  1  0
 30 29  2  0
M  END
$$$$
