WHC.pdb
     RDKit          3D

 31 33  0  0  1  0  0  0  0  0999 V2000
   27.5707  -20.9700  -15.1930 N   0  0  0  0  0  0  0  0  0  0  0  0
   26.7040  -21.5073  -14.1752 C   0  0  1  0  0  0  0  0  0  0  0  0
   26.5574  -20.6188  -12.9593 C   0  0  0  0  0  0  0  0  0  0  0  0
   27.9125  -20.2745  -12.4474 C   0  0  0  0  0  0  0  0  0  0  0  0
   28.5740  -19.0647  -12.7113 C   0  0  0  0  0  0  0  0  0  0  0  0
   29.7198  -19.1281  -12.0445 N   0  0  0  0  0  0  0  0  0  0  0  0
   29.8500  -20.2677  -11.3789 C   0  0  0  0  0  0  0  0  0  0  0  0
   30.8372  -20.8085  -10.5601 C   0  0  0  0  0  0  0  0  0  0  0  0
   30.6691  -22.0656  -10.0105 C   0  0  0  0  0  0  0  0  0  0  0  0
   29.5436  -22.8251  -10.2393 C   0  0  0  0  0  0  0  0  0  0  0  0
   28.5687  -22.2809  -11.0518 C   0  0  0  0  0  0  0  0  0  0  0  0
   28.7142  -21.0134  -11.6206 C   0  0  0  0  0  0  0  0  0  0  0  0
   25.3627  -21.7642  -14.7453 C   0  0  0  0  0  0  0  0  0  0  0  0
   24.8684  -20.9306  -15.5529 O   0  0  0  0  0  0  0  0  0  0  0  0
   24.6219  -22.9152  -14.4175 N   0  0  0  0  0  0  0  0  0  0  0  0
   23.3897  -23.2225  -15.0885 C   0  0  1  0  0  0  0  0  0  0  0  0
   23.2528  -24.6989  -15.2682 C   0  0  0  0  0  0  0  0  0  0  0  0
   23.9715  -25.2696  -16.4079 C   0  0  0  0  0  0  0  0  0  0  0  0
   24.1838  -24.7518  -17.6420 C   0  0  0  0  0  0  0  0  0  0  0  0
   24.9076  -25.6524  -18.3448 N   0  0  0  0  0  0  0  0  0  0  0  0
   25.1449  -26.7243  -17.5493 C   0  0  0  0  0  0  0  0  0  0  0  0
   24.5760  -26.4934  -16.3764 N   0  0  0  0  0  0  0  0  0  0  0  0
   22.2781  -22.8485  -14.1162 C   0  0  0  0  0  0  0  0  0  0  0  0
   22.3731  -23.0733  -12.8896 O   0  0  0  0  0  0  0  0  0  0  0  0
   21.0856  -22.2290  -14.5756 N   0  0  0  0  0  0  0  0  0  0  0  0
   20.0094  -21.8006  -13.6849 C   0  0  1  0  0  0  0  0  0  0  0  0
   19.3117  -20.5597  -14.1033 C   0  0  0  0  0  0  0  0  0  0  0  0
   17.9250  -20.2165  -12.9695 S   0  0  0  0  0  0  0  0  0  0  0  0
   18.9880  -22.9208  -13.5895 C   0  0  0  0  0  0  0  0  0  0  0  0
   18.7013  -23.4979  -14.6387 O   0  0  0  0  0  0  0  0  0  0  0  0
   18.4176  -23.2620  -12.3969 O   0  0  0  0  0  0  0  0  0  0  0  0
  2  1  1  6
  2 13  1  0
  2  3  1  0
  3  4  1  0
  4  5  2  0
  5  6  1  0
  7  6  1  0
  8  7  2  0
  9  8  1  0
 10 11  1  0
 10  9  2  0
 11 12  2  0
 12  4  1  0
 12  7  1  0
 13 14  2  0
 15 13  1  0
 15 16  1  0
 16 17  1  1
 17 18  1  0
 18 22  1  0
 19 18  2  0
 19 20  1  0
 20 21  1  0
 22 21  2  0
 23 24  2  0
 23 16  1  0
 25 23  1  0
 26 25  1  0
 26 27  1  6
 28 27  1  0
 29 31  1  0
 29 26  1  0
 30 29  2  0
M  END
$$$$
