WHC.pdb
     RDKit          3D

 31 33  0  0  1  0  0  0  0  0999 V2000
   27.9612  -20.6268  -10.7494 N   0  0  0  0  0  0  0  0  0  0  0  0
   26.8149  -21.4948  -10.8415 C   0  0  1  0  0  0  0  0  0  0  0  0
   26.0828  -21.6890   -9.5317 C   0  0  0  0  0  0  0  0  0  0  0  0
   26.6370  -20.7428   -8.5246 C   0  0  0  0  0  0  0  0  0  0  0  0
   25.9832  -19.5796   -8.0882 C   0  0  0  0  0  0  0  0  0  0  0  0
   26.7751  -19.0460   -7.1663 N   0  0  0  0  0  0  0  0  0  0  0  0
   27.8744  -19.7624   -6.9743 C   0  0  0  0  0  0  0  0  0  0  0  0
   28.9887  -19.6321   -6.1503 C   0  0  0  0  0  0  0  0  0  0  0  0
   29.9995  -20.5736   -6.1986 C   0  0  0  0  0  0  0  0  0  0  0  0
   29.9539  -21.6608   -7.0422 C   0  0  0  0  0  0  0  0  0  0  0  0
   28.8447  -21.7832   -7.8555 C   0  0  0  0  0  0  0  0  0  0  0  0
   27.8099  -20.8453   -7.8273 C   0  0  0  0  0  0  0  0  0  0  0  0
   25.8664  -20.9653  -11.8466 C   0  0  0  0  0  0  0  0  0  0  0  0
   25.9660  -19.7617  -12.2112 O   0  0  0  0  0  0  0  0  0  0  0  0
   24.8575  -21.7665  -12.4134 N   0  0  0  0  0  0  0  0  0  0  0  0
   24.0360  -21.2793  -13.4860 C   0  0  1  0  0  0  0  0  0  0  0  0
   23.9877  -22.2781  -14.5955 C   0  0  0  0  0  0  0  0  0  0  0  0
   25.1539  -22.3034  -15.4788 C   0  0  0  0  0  0  0  0  0  0  0  0
   26.1969  -21.4419  -15.5570 C   0  0  0  0  0  0  0  0  0  0  0  0
   27.0277  -21.8915  -16.5248 N   0  0  0  0  0  0  0  0  0  0  0  0
   26.5029  -23.0286  -17.0442 C   0  0  0  0  0  0  0  0  0  0  0  0
   25.3666  -23.2772  -16.4119 N   0  0  0  0  0  0  0  0  0  0  0  0
   22.6139  -21.2407  -12.9409 C   0  0  0  0  0  0  0  0  0  0  0  0
   22.2302  -22.0260  -12.0464 O   0  0  0  0  0  0  0  0  0  0  0  0
   21.6681  -20.3046  -13.4370 N   0  0  0  0  0  0  0  0  0  0  0  0
   20.3078  -20.1860  -12.9169 C   0  0  1  0  0  0  0  0  0  0  0  0
   19.7521  -18.8103  -12.9349 C   0  0  0  0  0  0  0  0  0  0  0  0
   18.0759  -18.8100  -12.2160 S   0  0  0  0  0  0  0  0  0  0  0  0
   19.3984  -21.0856  -13.7360 C   0  0  0  0  0  0  0  0  0  0  0  0
   19.6027  -21.1200  -14.9496 O   0  0  0  0  0  0  0  0  0  0  0  0
   18.4035  -21.8133  -13.1490 O   0  0  0  0  0  0  0  0  0  0  0  0
  2  1  1  1
  2 13  1  0
  2  3  1  0
  3  4  1  0
  4  5  2  0
  5  6  1  0
  7  6  1  0
  8  7  2  0
  9  8  1  0
 10 11  1  0
 10  9  2  0
 11 12  2  0
 12  4  1  0
 12  7  1  0
 13 14  2  0
 15 13  1  0
 15 16  1  0
 16 17  1  6
 17 18  1  0
 18 22  1  0
 19 18  2  0
 19 20  1  0
 20 21  1  0
 22 21  2  0
 23 24  2  0
 23 16  1  0
 25 23  1  0
 26 25  1  0
 26 27  1  6
 28 27  1  0
 29 31  1  0
 29 26  1  0
 30 29  2  0
M  END
$$$$
