WHC.pdb
     RDKit          3D

 31 33  0  0  1  0  0  0  0  0999 V2000
   28.2203  -20.9350   -9.3924 N   0  0  0  0  0  0  0  0  0  0  0  0
   26.8142  -21.2298   -9.2849 C   0  0  1  0  0  0  0  0  0  0  0  0
   26.1992  -20.8240   -7.9634 C   0  0  0  0  0  0  0  0  0  0  0  0
   27.0877  -19.8280   -7.3037 C   0  0  0  0  0  0  0  0  0  0  0  0
   27.3321  -18.5367   -7.7972 C   0  0  0  0  0  0  0  0  0  0  0  0
   28.1277  -17.9560   -6.9076 N   0  0  0  0  0  0  0  0  0  0  0  0
   28.4133  -18.7586   -5.8913 C   0  0  0  0  0  0  0  0  0  0  0  0
   29.1856  -18.6331   -4.7401 C   0  0  0  0  0  0  0  0  0  0  0  0
   29.2913  -19.6922   -3.8583 C   0  0  0  0  0  0  0  0  0  0  0  0
   28.6520  -20.8933   -4.0695 C   0  0  0  0  0  0  0  0  0  0  0  0
   27.8871  -21.0091   -5.2133 C   0  0  0  0  0  0  0  0  0  0  0  0
   27.7646  -19.9547   -6.1213 C   0  0  0  0  0  0  0  0  0  0  0  0
   26.0782  -20.5614  -10.3812 C   0  0  0  0  0  0  0  0  0  0  0  0
   26.3387  -19.3571  -10.6514 O   0  0  0  0  0  0  0  0  0  0  0  0
   25.0976  -21.2313  -11.1368 N   0  0  0  0  0  0  0  0  0  0  0  0
   24.5014  -20.6187  -12.2910 C   0  0  1  0  0  0  0  0  0  0  0  0
   24.9785  -21.2896  -13.5373 C   0  0  0  0  0  0  0  0  0  0  0  0
   26.3226  -20.9208  -13.9827 C   0  0  0  0  0  0  0  0  0  0  0  0
   26.7956  -19.7212  -14.3993 C   0  0  0  0  0  0  0  0  0  0  0  0
   28.1044  -19.8795  -14.7008 N   0  0  0  0  0  0  0  0  0  0  0  0
   28.4427  -21.1721  -14.4708 C   0  0  0  0  0  0  0  0  0  0  0  0
   27.3627  -21.8036  -14.0376 N   0  0  0  0  0  0  0  0  0  0  0  0
   23.0158  -20.9490  -12.2208 C   0  0  0  0  0  0  0  0  0  0  0  0
   22.6092  -22.0936  -11.9230 O   0  0  0  0  0  0  0  0  0  0  0  0
   22.0352  -19.9594  -12.4963 N   0  0  0  0  0  0  0  0  0  0  0  0
   20.5988  -20.1961  -12.3703 C   0  0  1  0  0  0  0  0  0  0  0  0
   19.7830  -18.9754  -12.1561 C   0  0  0  0  0  0  0  0  0  0  0  0
   20.8181  -17.4910  -12.3833 S   0  0  0  0  0  0  0  0  0  0  0  0
   20.1118  -20.8880  -13.6318 C   0  0  0  0  0  0  0  0  0  0  0  0
   20.8329  -20.7965  -14.6255 O   0  0  0  0  0  0  0  0  0  0  0  0
   18.9302  -21.5716  -13.6558 O   0  0  0  0  0  0  0  0  0  0  0  0
  2  1  1  1
  2 13  1  0
  2  3  1  0
  3  4  1  0
  4  5  2  0
  5  6  1  0
  7  6  1  0
  8  7  2  0
  9  8  1  0
 10 11  1  0
 10  9  2  0
 11 12  2  0
 12  4  1  0
 12  7  1  0
 13 14  2  0
 15 13  1  0
 15 16  1  0
 16 17  1  6
 17 18  1  0
 18 22  1  0
 19 18  2  0
 19 20  1  0
 20 21  1  0
 22 21  2  0
 23 24  2  0
 23 16  1  0
 25 23  1  0
 26 25  1  0
 26 27  1  6
 28 27  1  0
 29 31  1  0
 29 26  1  0
 30 29  2  0
M  END
$$$$
