WHC.pdb
     RDKit          3D

 31 33  0  0  1  0  0  0  0  0999 V2000
   20.6508  -12.7243  -16.4851 N   0  0  0  0  0  0  0  0  0  0  0  0
   20.6832  -11.4260  -17.1088 C   0  0  1  0  0  0  0  0  0  0  0  0
   19.3202  -10.7926  -17.2835 C   0  0  0  0  0  0  0  0  0  0  0  0
   18.6348  -11.4342  -18.4392 C   0  0  0  0  0  0  0  0  0  0  0  0
   17.9829  -12.6762  -18.3822 C   0  0  0  0  0  0  0  0  0  0  0  0
   17.4677  -12.8680  -19.5902 N   0  0  0  0  0  0  0  0  0  0  0  0
   17.7309  -11.8618  -20.4129 C   0  0  0  0  0  0  0  0  0  0  0  0
   17.4317  -11.5908  -21.7451 C   0  0  0  0  0  0  0  0  0  0  0  0
   17.8762  -10.4202  -22.3303 C   0  0  0  0  0  0  0  0  0  0  0  0
   18.6172   -9.4869  -21.6406 C   0  0  0  0  0  0  0  0  0  0  0  0
   18.9087   -9.7628  -20.3194 C   0  0  0  0  0  0  0  0  0  0  0  0
   18.4728  -10.9388  -19.7043 C   0  0  0  0  0  0  0  0  0  0  0  0
   21.5380  -10.5127  -16.3180 C   0  0  0  0  0  0  0  0  0  0  0  0
   21.6611  -10.7064  -15.0775 O   0  0  0  0  0  0  0  0  0  0  0  0
   22.2235   -9.4351  -16.9095 N   0  0  0  0  0  0  0  0  0  0  0  0
   23.0753   -8.5790  -16.1320 C   0  0  1  0  0  0  0  0  0  0  0  0
   24.4405   -8.5214  -16.7352 C   0  0  0  0  0  0  0  0  0  0  0  0
   25.3002   -9.6760  -16.4729 C   0  0  0  0  0  0  0  0  0  0  0  0
   25.0721  -10.7645  -15.6986 C   0  0  0  0  0  0  0  0  0  0  0  0
   26.1629  -11.5598  -15.7788 N   0  0  0  0  0  0  0  0  0  0  0  0
   27.0640  -10.9679  -16.6009 C   0  0  0  0  0  0  0  0  0  0  0  0
   26.5422   -9.8255  -17.0199 N   0  0  0  0  0  0  0  0  0  0  0  0
   22.5204   -7.1703  -16.3005 C   0  0  0  0  0  0  0  0  0  0  0  0
   22.0745   -6.7650  -17.3965 O   0  0  0  0  0  0  0  0  0  0  0  0
   22.4935   -6.2620  -15.2091 N   0  0  0  0  0  0  0  0  0  0  0  0
   22.0096   -4.8877  -15.3206 C   0  0  1  0  0  0  0  0  0  0  0  0
   21.6685   -4.2410  -14.0295 C   0  0  0  0  0  0  0  0  0  0  0  0
   20.5270   -5.3056  -13.0861 S   0  0  0  0  0  0  0  0  0  0  0  0
   23.0763   -4.0557  -16.0113 C   0  0  0  0  0  0  0  0  0  0  0  0
   22.7597   -2.9111  -16.3364 O   0  0  0  0  0  0  0  0  0  0  0  0
   24.3203   -4.5603  -16.2597 O   0  0  0  0  0  0  0  0  0  0  0  0
  2  1  1  1
  2 13  1  0
  2  3  1  0
  3  4  1  0
  4  5  2  0
  5  6  1  0
  7  6  1  0
  8  7  2  0
  9  8  1  0
 10 11  1  0
 10  9  2  0
 11 12  2  0
 12  4  1  0
 12  7  1  0
 13 14  2  0
 15 13  1  0
 15 16  1  0
 16 17  1  6
 17 18  1  0
 18 22  1  0
 19 18  2  0
 19 20  1  0
 20 21  1  0
 22 21  2  0
 23 24  2  0
 23 16  1  0
 25 23  1  0
 26 25  1  0
 26 27  1  1
 28 27  1  0
 29 31  1  0
 29 26  1  0
 30 29  2  0
M  END
$$$$
