WHC.pdb
     RDKit          3D

 31 33  0  0  1  0  0  0  0  0999 V2000
   23.5602  -23.1871  -18.3809 N   0  0  0  0  0  0  0  0  0  0  0  0
   23.0543  -23.2441  -17.0332 C   0  0  1  0  0  0  0  0  0  0  0  0
   23.0501  -24.6341  -16.4353 C   0  0  0  0  0  0  0  0  0  0  0  0
   22.0545  -25.4688  -17.1624 C   0  0  0  0  0  0  0  0  0  0  0  0
   22.3827  -26.4097  -18.1513 C   0  0  0  0  0  0  0  0  0  0  0  0
   21.2339  -26.9680  -18.5123 N   0  0  0  0  0  0  0  0  0  0  0  0
   20.2026  -26.4695  -17.8441 C   0  0  0  0  0  0  0  0  0  0  0  0
   18.8306  -26.7041  -17.8563 C   0  0  0  0  0  0  0  0  0  0  0  0
   17.9980  -25.9869  -17.0181 C   0  0  0  0  0  0  0  0  0  0  0  0
   18.4735  -25.0298  -16.1499 C   0  0  0  0  0  0  0  0  0  0  0  0
   19.8357  -24.8039  -16.1433 C   0  0  0  0  0  0  0  0  0  0  0  0
   20.6990  -25.5139  -16.9810 C   0  0  0  0  0  0  0  0  0  0  0  0
   23.8501  -22.3505  -16.1623 C   0  0  0  0  0  0  0  0  0  0  0  0
   25.0320  -22.0610  -16.4951 O   0  0  0  0  0  0  0  0  0  0  0  0
   23.3258  -21.8081  -14.9740 N   0  0  0  0  0  0  0  0  0  0  0  0
   24.0044  -20.7521  -14.2760 C   0  0  1  0  0  0  0  0  0  0  0  0
   23.0573  -19.6358  -13.9795 C   0  0  0  0  0  0  0  0  0  0  0  0
   22.9040  -18.6352  -15.0361 C   0  0  0  0  0  0  0  0  0  0  0  0
   23.5067  -18.5589  -16.2474 C   0  0  0  0  0  0  0  0  0  0  0  0
   23.0349  -17.4553  -16.8706 N   0  0  0  0  0  0  0  0  0  0  0  0
   22.1418  -16.8498  -16.0498 C   0  0  0  0  0  0  0  0  0  0  0  0
   22.0639  -17.5634  -14.9374 N   0  0  0  0  0  0  0  0  0  0  0  0
   24.3700  -21.3194  -12.9102 C   0  0  0  0  0  0  0  0  0  0  0  0
   23.6124  -22.1049  -12.2993 O   0  0  0  0  0  0  0  0  0  0  0  0
   25.5932  -20.9695  -12.2792 N   0  0  0  0  0  0  0  0  0  0  0  0
   25.9388  -21.3746  -10.9184 C   0  0  1  0  0  0  0  0  0  0  0  0
   27.2906  -20.9592  -10.4694 C   0  0  0  0  0  0  0  0  0  0  0  0
   28.4915  -21.1927  -11.8221 S   0  0  0  0  0  0  0  0  0  0  0  0
   24.9114  -20.7885   -9.9655 C   0  0  0  0  0  0  0  0  0  0  0  0
   24.1203  -19.9728  -10.4394 O   0  0  0  0  0  0  0  0  0  0  0  0
   24.8760  -21.1499   -8.6493 O   0  0  0  0  0  0  0  0  0  0  0  0
  2  1  1  6
  2 13  1  0
  2  3  1  0
  3  4  1  0
  4  5  2  0
  5  6  1  0
  7  6  1  0
  8  7  2  0
  9  8  1  0
 10 11  1  0
 10  9  2  0
 11 12  2  0
 12  4  1  0
 12  7  1  0
 13 14  2  0
 15 13  1  0
 15 16  1  0
 16 17  1  1
 17 18  1  0
 18 22  1  0
 19 18  2  0
 19 20  1  0
 20 21  1  0
 22 21  2  0
 23 24  2  0
 23 16  1  0
 25 23  1  0
 26 25  1  0
 26 27  1  1
 28 27  1  0
 29 31  1  0
 29 26  1  0
 30 29  2  0
M  END
$$$$
