WHC.pdb
     RDKit          3D

 31 33  0  0  1  0  0  0  0  0999 V2000
   16.1223  -17.1709    5.2012 N   0  0  0  0  0  0  0  0  0  0  0  0
   17.3409  -16.8781    5.9118 C   0  0  1  0  0  0  0  0  0  0  0  0
   17.2454  -15.6792    6.8300 C   0  0  0  0  0  0  0  0  0  0  0  0
   17.6227  -14.4570    6.0680 C   0  0  0  0  0  0  0  0  0  0  0  0
   16.8638  -13.9126    5.0199 C   0  0  0  0  0  0  0  0  0  0  0  0
   17.5073  -12.8149    4.6421 N   0  0  0  0  0  0  0  0  0  0  0  0
   18.6073  -12.6089    5.3535 C   0  0  0  0  0  0  0  0  0  0  0  0
   19.6021  -11.6353    5.3464 C   0  0  0  0  0  0  0  0  0  0  0  0
   20.6553  -11.7149    6.2379 C   0  0  0  0  0  0  0  0  0  0  0  0
   20.7685  -12.7355    7.1553 C   0  0  0  0  0  0  0  0  0  0  0  0
   19.7770  -13.6966    7.1563 C   0  0  0  0  0  0  0  0  0  0  0  0
   18.7026  -13.6403    6.2654 C   0  0  0  0  0  0  0  0  0  0  0  0
   17.7526  -18.0575    6.7053 C   0  0  0  0  0  0  0  0  0  0  0  0
   16.9434  -18.5508    7.5380 O   0  0  0  0  0  0  0  0  0  0  0  0
   19.0203  -18.6505    6.5554 N   0  0  0  0  0  0  0  0  0  0  0  0
   19.4303  -19.7486    7.3855 C   0  0  1  0  0  0  0  0  0  0  0  0
   20.0307  -20.8320    6.5509 C   0  0  0  0  0  0  0  0  0  0  0  0
   19.0809  -21.6678    5.8157 C   0  0  0  0  0  0  0  0  0  0  0  0
   17.7282  -21.6021    5.7696 C   0  0  0  0  0  0  0  0  0  0  0  0
   17.2984  -22.5854    4.9468 N   0  0  0  0  0  0  0  0  0  0  0  0
   18.3803  -23.2580    4.4828 C   0  0  0  0  0  0  0  0  0  0  0  0
   19.4603  -22.7033    5.0108 N   0  0  0  0  0  0  0  0  0  0  0  0
   20.5867  -19.2274    8.2294 C   0  0  0  0  0  0  0  0  0  0  0  0
   21.6047  -18.7199    7.7095 O   0  0  0  0  0  0  0  0  0  0  0  0
   20.5472  -19.3039    9.6469 N   0  0  0  0  0  0  0  0  0  0  0  0
   21.6462  -18.8670   10.5050 C   0  0  1  0  0  0  0  0  0  0  0  0
   21.3430  -17.6882   11.3536 C   0  0  0  0  0  0  0  0  0  0  0  0
   20.7716  -16.3051   10.3110 S   0  0  0  0  0  0  0  0  0  0  0  0
   22.0423  -20.0231   11.4071 C   0  0  0  0  0  0  0  0  0  0  0  0
   21.3283  -21.0253   11.3664 O   0  0  0  0  0  0  0  0  0  0  0  0
   23.1344  -19.9456   12.2227 O   0  0  0  0  0  0  0  0  0  0  0  0
  2  1  1  1
  2 13  1  0
  2  3  1  0
  3  4  1  0
  4  5  2  0
  5  6  1  0
  7  6  1  0
  8  7  2  0
  9  8  1  0
 10 11  1  0
 10  9  2  0
 11 12  2  0
 12  4  1  0
 12  7  1  0
 13 14  2  0
 15 13  1  0
 15 16  1  0
 16 17  1  6
 17 18  1  0
 18 22  1  0
 19 18  2  0
 19 20  1  0
 20 21  1  0
 22 21  2  0
 23 24  2  0
 23 16  1  0
 25 23  1  0
 26 25  1  0
 26 27  1  1
 28 27  1  0
 29 31  1  0
 29 26  1  0
 30 29  2  0
M  END
$$$$
