EVP.pdb
     RDKit          3D

 24 24  0  0  1  0  0  0  0  0999 V2000
   22.4737  -11.8024  -19.6454 N   0  0  0  0  0  0  0  0  0  0  0  0
   23.2974  -10.6993  -19.1110 C   0  0  1  0  0  0  0  0  0  0  0  0
   23.4148   -9.7277  -20.2630 C   0  0  0  0  0  0  0  0  0  0  0  0
   24.5193  -10.0657  -21.2263 C   0  0  0  0  0  0  0  0  0  0  0  0
   25.2906   -8.7912  -21.4465 C   0  0  0  0  0  0  0  0  0  0  0  0
   26.3503   -8.5252  -20.8646 O   0  0  0  0  0  0  0  0  0  0  0  0
   22.5157  -10.0810  -18.0371 C   0  0  0  0  0  0  0  0  0  0  0  0
   21.2539   -9.8740  -18.1508 O   0  0  0  0  0  0  0  0  0  0  0  0
   24.7401   -7.8912  -22.3672 O   0  0  0  0  0  0  0  0  0  0  0  0
   21.5929   -9.3932  -13.4290 C   0  0  0  0  0  0  0  0  0  0  0  0
   22.4657   -9.9880  -14.5441 C   0  0  1  0  0  0  0  0  0  0  0  0
   21.9920  -11.3905  -14.8065 C   0  0  0  0  0  0  0  0  0  0  0  0
   22.2616   -9.0893  -15.7448 C   0  0  2  0  0  0  0  0  0  0  0  0
   23.0831   -9.6751  -16.8077 N   0  0  0  0  0  0  0  0  0  0  0  0
   22.5955   -7.6900  -15.4776 C   0  0  0  0  0  0  0  0  0  0  0  0
   23.8433   -7.4212  -15.3544 O   0  0  0  0  0  0  0  0  0  0  0  0
   21.6541   -6.6483  -15.3514 N   0  0  0  0  0  0  0  0  0  0  0  0
   20.2185   -6.7663  -15.3968 C   0  0  0  0  0  0  0  0  0  0  0  0
   19.7205   -5.4009  -15.8848 C   0  0  0  0  0  0  0  0  0  0  0  0
   20.9596   -4.5846  -16.0766 C   0  0  0  0  0  0  0  0  0  0  0  0
   21.9553   -5.2546  -15.1530 C   0  0  1  0  0  0  0  0  0  0  0  0
   21.7689   -4.8294  -13.7439 C   0  0  0  0  0  0  0  0  0  0  0  0
   21.2000   -5.4944  -12.8679 O   0  0  0  0  0  0  0  0  0  0  0  0
   22.2774   -3.5839  -13.3908 O   0  0  0  0  0  0  0  0  0  0  0  0
  2  1  1  6
  2  3  1  0
  3  4  1  0
  4  5  1  0
  5  9  1  0
  5  6  2  0
  7  2  1  0
  8  7  2  0
 11 10  1  1
 11 12  1  0
 11 13  1  0
 13 14  1  6
 14  7  1  0
 15 17  1  0
 15 13  1  0
 16 15  2  0
 17 21  1  0
 18 19  1  0
 18 17  1  0
 19 20  1  0
 21 20  1  0
 22 24  1  0
 21 22  1  1
 23 22  2  0
M  END
$$$$
