EVP.pdb
     RDKit          3D

 24 24  0  0  1  0  0  0  0  0999 V2000
   17.1078   -9.5322  -10.7779 N   0  0  0  0  0  0  0  0  0  0  0  0
   17.2251   -9.4419  -12.2472 C   0  0  1  0  0  0  0  0  0  0  0  0
   16.1109   -8.5051  -12.6547 C   0  0  0  0  0  0  0  0  0  0  0  0
   14.7642   -9.1699  -12.7362 C   0  0  0  0  0  0  0  0  0  0  0  0
   13.8074   -8.1222  -13.2410 C   0  0  0  0  0  0  0  0  0  0  0  0
   12.9856   -7.5432  -12.5186 O   0  0  0  0  0  0  0  0  0  0  0  0
   18.5152   -8.8041  -12.5215 C   0  0  0  0  0  0  0  0  0  0  0  0
   19.0501   -7.9764  -11.6990 O   0  0  0  0  0  0  0  0  0  0  0  0
   13.8898   -7.8215  -14.6061 O   0  0  0  0  0  0  0  0  0  0  0  0
   22.7807   -8.8354  -14.8038 C   0  0  0  0  0  0  0  0  0  0  0  0
   21.4971   -9.5240  -14.3169 C   0  0  1  0  0  0  0  0  0  0  0  0
   21.8525  -10.3914  -13.1414 C   0  0  0  0  0  0  0  0  0  0  0  0
   20.5560   -8.4042  -13.9279 C   0  0  2  0  0  0  0  0  0  0  0  0
   19.2623   -9.0522  -13.6957 N   0  0  0  0  0  0  0  0  0  0  0  0
   20.4844   -7.3407  -14.9304 C   0  0  0  0  0  0  0  0  0  0  0  0
   19.8064   -7.6051  -15.9862 O   0  0  0  0  0  0  0  0  0  0  0  0
   21.0986   -6.0777  -14.8085 N   0  0  0  0  0  0  0  0  0  0  0  0
   21.9070   -5.6085  -13.7115 C   0  0  0  0  0  0  0  0  0  0  0  0
   21.7519   -4.0833  -13.7245 C   0  0  0  0  0  0  0  0  0  0  0  0
   20.8401   -3.7982  -14.8759 C   0  0  0  0  0  0  0  0  0  0  0  0
   21.0301   -5.0070  -15.7683 C   0  0  1  0  0  0  0  0  0  0  0  0
   22.2642   -4.8978  -16.5846 C   0  0  0  0  0  0  0  0  0  0  0  0
   23.3483   -5.4307  -16.3126 O   0  0  0  0  0  0  0  0  0  0  0  0
   22.1850   -4.1341  -17.7444 O   0  0  0  0  0  0  0  0  0  0  0  0
  2  1  1  1
  2  3  1  0
  3  4  1  0
  4  5  1  0
  5  9  1  0
  5  6  2  0
  7  2  1  0
  8  7  2  0
 11 10  1  1
 11 12  1  0
 11 13  1  0
 13 14  1  6
 14  7  1  0
 15 17  1  0
 15 13  1  0
 16 15  2  0
 17 21  1  0
 18 19  1  0
 18 17  1  0
 19 20  1  0
 21 20  1  0
 22 24  1  0
 21 22  1  1
 23 22  2  0
M  END
$$$$
