EVP.pdb
     RDKit          3D

 24 24  0  0  1  0  0  0  0  0999 V2000
   19.6011  -14.6276  -18.3563 N   0  0  0  0  0  0  0  0  0  0  0  0
   20.2985  -13.3921  -18.7658 C   0  0  1  0  0  0  0  0  0  0  0  0
   19.3127  -12.6878  -19.6698 C   0  0  0  0  0  0  0  0  0  0  0  0
   19.3650  -13.1552  -21.0985 C   0  0  0  0  0  0  0  0  0  0  0  0
   20.5490  -12.4660  -21.7239 C   0  0  0  0  0  0  0  0  0  0  0  0
   21.6948  -12.9343  -21.7148 O   0  0  0  0  0  0  0  0  0  0  0  0
   20.4867  -12.5995  -17.5480 C   0  0  0  0  0  0  0  0  0  0  0  0
   19.6047  -12.5702  -16.6159 O   0  0  0  0  0  0  0  0  0  0  0  0
   20.2898  -11.2334  -22.3355 O   0  0  0  0  0  0  0  0  0  0  0  0
   23.4492  -10.5463  -14.3379 C   0  0  0  0  0  0  0  0  0  0  0  0
   23.2298  -11.3811  -15.6083 C   0  0  1  0  0  0  0  0  0  0  0  0
   23.4082  -12.8300  -15.2488 C   0  0  0  0  0  0  0  0  0  0  0  0
   21.8151  -11.0803  -16.0546 C   0  0  2  0  0  0  0  0  0  0  0  0
   21.6415  -11.8204  -17.3076 N   0  0  0  0  0  0  0  0  0  0  0  0
   21.5522   -9.6485  -16.2021 C   0  0  0  0  0  0  0  0  0  0  0  0
   22.2021   -9.0480  -17.1303 O   0  0  0  0  0  0  0  0  0  0  0  0
   20.6519   -8.9099  -15.4075 N   0  0  0  0  0  0  0  0  0  0  0  0
   19.8314   -9.4100  -14.3333 C   0  0  0  0  0  0  0  0  0  0  0  0
   18.6276   -8.4624  -14.2755 C   0  0  0  0  0  0  0  0  0  0  0  0
   18.8749   -7.4583  -15.3568 C   0  0  0  0  0  0  0  0  0  0  0  0
   20.3796   -7.5011  -15.5238 C   0  0  1  0  0  0  0  0  0  0  0  0
   21.0702   -6.7024  -14.4815 C   0  0  0  0  0  0  0  0  0  0  0  0
   21.7045   -7.1718  -13.5273 O   0  0  0  0  0  0  0  0  0  0  0  0
   20.9919   -5.3184  -14.5957 O   0  0  0  0  0  0  0  0  0  0  0  0
  2  1  1  1
  2  3  1  0
  3  4  1  0
  4  5  1  0
  5  9  1  0
  5  6  2  0
  7  2  1  0
  8  7  2  0
 11 10  1  1
 11 12  1  0
 11 13  1  0
 13 14  1  6
 14  7  1  0
 15 17  1  0
 15 13  1  0
 16 15  2  0
 17 21  1  0
 18 19  1  0
 18 17  1  0
 19 20  1  0
 21 20  1  0
 22 24  1  0
 21 22  1  1
 23 22  2  0
M  END
$$$$
