EVP.pdb
     RDKit          3D

 24 24  0  0  1  0  0  0  0  0999 V2000
   27.3793  -11.8663  -17.5604 N   0  0  0  0  0  0  0  0  0  0  0  0
   27.0473  -10.7635  -16.6361 C   0  0  1  0  0  0  0  0  0  0  0  0
   27.6097   -9.5310  -17.3066 C   0  0  0  0  0  0  0  0  0  0  0  0
   29.1123   -9.5115  -17.3690 C   0  0  0  0  0  0  0  0  0  0  0  0
   29.4883   -8.2282  -18.0617 C   0  0  0  0  0  0  0  0  0  0  0  0
   28.6624   -7.3795  -18.4221 O   0  0  0  0  0  0  0  0  0  0  0  0
   25.5853  -10.6721  -16.6081 C   0  0  0  0  0  0  0  0  0  0  0  0
   24.8685  -10.9689  -17.6307 O   0  0  0  0  0  0  0  0  0  0  0  0
   30.8558   -8.0300  -18.2879 O   0  0  0  0  0  0  0  0  0  0  0  0
   21.4626  -11.2160  -14.3507 C   0  0  0  0  0  0  0  0  0  0  0  0
   22.9957  -11.2758  -14.4221 C   0  0  1  0  0  0  0  0  0  0  0  0
   23.3876  -12.6669  -14.8363 C   0  0  0  0  0  0  0  0  0  0  0  0
   23.3962  -10.2451  -15.4556 C   0  0  2  0  0  0  0  0  0  0  0  0
   24.8616  -10.2600  -15.4658 N   0  0  0  0  0  0  0  0  0  0  0  0
   22.8458   -8.9167  -15.1846 C   0  0  0  0  0  0  0  0  0  0  0  0
   23.3339   -8.2993  -14.1722 O   0  0  0  0  0  0  0  0  0  0  0  0
   21.8392   -8.2919  -15.9487 N   0  0  0  0  0  0  0  0  0  0  0  0
   21.1809   -8.8225  -17.1158 C   0  0  0  0  0  0  0  0  0  0  0  0
   20.7333   -7.5934  -17.9155 C   0  0  0  0  0  0  0  0  0  0  0  0
   21.1833   -6.4201  -17.1035 C   0  0  0  0  0  0  0  0  0  0  0  0
   21.2757   -6.9901  -15.7034 C   0  0  1  0  0  0  0  0  0  0  0  0
   19.9448   -7.0622  -15.0515 C   0  0  0  0  0  0  0  0  0  0  0  0
   19.2742   -8.0937  -14.9123 O   0  0  0  0  0  0  0  0  0  0  0  0
   19.4194   -5.8710  -14.5622 O   0  0  0  0  0  0  0  0  0  0  0  0
  2  1  1  6
  2  3  1  0
  3  4  1  0
  4  5  1  0
  5  9  1  0
  5  6  2  0
  7  2  1  0
  8  7  2  0
 11 10  1  6
 11 12  1  0
 11 13  1  0
 13 14  1  1
 14  7  1  0
 15 17  1  0
 15 13  1  0
 16 15  2  0
 17 21  1  0
 18 19  1  0
 18 17  1  0
 19 20  1  0
 21 20  1  0
 22 24  1  0
 21 22  1  6
 23 22  2  0
M  END
$$$$
