EVP.pdb
     RDKit          3D

 24 24  0  0  1  0  0  0  0  0999 V2000
   20.6528  -20.0741  -17.3506 N   0  0  0  0  0  0  0  0  0  0  0  0
   20.8789  -19.4752  -16.0198 C   0  0  1  0  0  0  0  0  0  0  0  0
   20.0360  -20.3120  -15.0848 C   0  0  0  0  0  0  0  0  0  0  0  0
   18.8794  -19.5626  -14.4824 C   0  0  0  0  0  0  0  0  0  0  0  0
   18.2175  -18.8268  -15.6176 C   0  0  0  0  0  0  0  0  0  0  0  0
   18.4246  -17.6328  -15.8702 O   0  0  0  0  0  0  0  0  0  0  0  0
   22.2952  -19.6824  -15.7073 C   0  0  0  0  0  0  0  0  0  0  0  0
   22.8620  -20.8242  -15.8577 O   0  0  0  0  0  0  0  0  0  0  0  0
   17.3295  -19.5751  -16.3999 O   0  0  0  0  0  0  0  0  0  0  0  0
   26.6790  -17.8714  -14.4905 C   0  0  0  0  0  0  0  0  0  0  0  0
   25.2598  -17.6270  -15.0243 C   0  0  1  0  0  0  0  0  0  0  0  0
   25.3656  -17.2784  -16.4829 C   0  0  0  0  0  0  0  0  0  0  0  0
   24.5132  -18.9257  -14.8070 C   0  0  2  0  0  0  0  0  0  0  0  0
   23.1360  -18.6525  -15.2271 N   0  0  0  0  0  0  0  0  0  0  0  0
   24.5987  -19.4132  -13.4301 C   0  0  0  0  0  0  0  0  0  0  0  0
   23.8216  -18.8470  -12.5816 O   0  0  0  0  0  0  0  0  0  0  0  0
   25.4599  -20.4398  -12.9923 N   0  0  0  0  0  0  0  0  0  0  0  0
   26.4718  -21.1126  -13.7673 C   0  0  0  0  0  0  0  0  0  0  0  0
   26.6199  -22.4936  -13.1182 C   0  0  0  0  0  0  0  0  0  0  0  0
   25.6496  -22.4906  -11.9793 C   0  0  0  0  0  0  0  0  0  0  0  0
   25.4881  -21.0161  -11.6734 C   0  0  1  0  0  0  0  0  0  0  0  0
   26.6114  -20.4997  -10.8531 C   0  0  0  0  0  0  0  0  0  0  0  0
   27.6186  -19.9342  -11.2990 O   0  0  0  0  0  0  0  0  0  0  0  0
   26.5141  -20.6701   -9.4761 O   0  0  0  0  0  0  0  0  0  0  0  0
  2  1  1  6
  2  3  1  0
  3  4  1  0
  4  5  1  0
  5  9  1  0
  5  6  2  0
  7  2  1  0
  8  7  2  0
 11 10  1  6
 11 12  1  0
 11 13  1  0
 13 14  1  1
 14  7  1  0
 15 17  1  0
 15 13  1  0
 16 15  2  0
 17 21  1  0
 18 19  1  0
 18 17  1  0
 19 20  1  0
 21 20  1  0
 22 24  1  0
 21 22  1  1
 23 22  2  0
M  END
$$$$
