EVP.pdb
     RDKit          3D

 24 24  0  0  1  0  0  0  0  0999 V2000
   23.5842  -20.6801  -18.9673 N   0  0  0  0  0  0  0  0  0  0  0  0
   23.0249  -20.3926  -17.6312 C   0  0  1  0  0  0  0  0  0  0  0  0
   22.2744  -21.6514  -17.2608 C   0  0  0  0  0  0  0  0  0  0  0  0
   21.4295  -21.5076  -16.0248 C   0  0  0  0  0  0  0  0  0  0  0  0
   20.4281  -20.4231  -16.3231 C   0  0  0  0  0  0  0  0  0  0  0  0
   20.5627  -19.2492  -15.9539 O   0  0  0  0  0  0  0  0  0  0  0  0
   24.1682  -20.2303  -16.7295 C   0  0  0  0  0  0  0  0  0  0  0  0
   25.1122  -21.0980  -16.6700 O   0  0  0  0  0  0  0  0  0  0  0  0
   19.3024  -20.8119  -17.0594 O   0  0  0  0  0  0  0  0  0  0  0  0
   26.8413  -17.4665  -13.7247 C   0  0  0  0  0  0  0  0  0  0  0  0
   25.7985  -17.5794  -14.8467 C   0  0  1  0  0  0  0  0  0  0  0  0
   26.4395  -17.1153  -16.1251 C   0  0  0  0  0  0  0  0  0  0  0  0
   25.4188  -19.0435  -14.9047 C   0  0  2  0  0  0  0  0  0  0  0  0
   24.3194  -19.1176  -15.8709 N   0  0  0  0  0  0  0  0  0  0  0  0
   25.0618  -19.5959  -13.5977 C   0  0  0  0  0  0  0  0  0  0  0  0
   23.8414  -19.4435  -13.2349 O   0  0  0  0  0  0  0  0  0  0  0  0
   25.9541  -20.2673  -12.7373 N   0  0  0  0  0  0  0  0  0  0  0  0
   27.3881  -20.3414  -12.8610 C   0  0  0  0  0  0  0  0  0  0  0  0
   27.7823  -21.6485  -12.1636 C   0  0  0  0  0  0  0  0  0  0  0  0
   26.4929  -22.2290  -11.6747 C   0  0  0  0  0  0  0  0  0  0  0  0
   25.5944  -21.0152  -11.5609 C   0  0  1  0  0  0  0  0  0  0  0  0
   25.8484  -20.2599  -10.3095 C   0  0  0  0  0  0  0  0  0  0  0  0
   26.5528  -19.2455  -10.2195 O   0  0  0  0  0  0  0  0  0  0  0  0
   25.2423  -20.7384   -9.1527 O   0  0  0  0  0  0  0  0  0  0  0  0
  2  1  1  6
  2  3  1  0
  3  4  1  0
  4  5  1  0
  5  9  1  0
  5  6  2  0
  7  2  1  0
  8  7  2  0
 11 10  1  1
 11 12  1  0
 11 13  1  0
 13 14  1  6
 14  7  1  0
 15 17  1  0
 15 13  1  0
 16 15  2  0
 17 21  1  0
 18 19  1  0
 18 17  1  0
 19 20  1  0
 21 20  1  0
 22 24  1  0
 21 22  1  1
 23 22  2  0
M  END
$$$$
