EVP.pdb
     RDKit          3D

 24 24  0  0  1  0  0  0  0  0999 V2000
   21.1375  -16.0785  -16.8095 N   0  0  0  0  0  0  0  0  0  0  0  0
   21.7267  -15.0378  -15.9431 C   0  0  1  0  0  0  0  0  0  0  0  0
   23.1887  -15.0152  -16.3264 C   0  0  0  0  0  0  0  0  0  0  0  0
   24.1072  -14.6897  -15.1807 C   0  0  0  0  0  0  0  0  0  0  0  0
   25.5044  -14.7104  -15.7423 C   0  0  0  0  0  0  0  0  0  0  0  0
   26.0362  -13.7338  -16.2862 O   0  0  0  0  0  0  0  0  0  0  0  0
   21.1057  -13.7705  -16.3367 C   0  0  0  0  0  0  0  0  0  0  0  0
   21.0449  -13.3985  -17.5637 O   0  0  0  0  0  0  0  0  0  0  0  0
   26.1983  -15.9203  -15.6188 O   0  0  0  0  0  0  0  0  0  0  0  0
   17.9283  -10.2799  -15.7209 C   0  0  0  0  0  0  0  0  0  0  0  0
   18.4794  -11.7098  -15.6188 C   0  0  1  0  0  0  0  0  0  0  0  0
   17.8251  -12.5375  -16.6898 C   0  0  0  0  0  0  0  0  0  0  0  0
   19.9728  -11.5874  -15.8334 C   0  0  2  0  0  0  0  0  0  0  0  0
   20.5292  -12.8746  -15.4075 N   0  0  0  0  0  0  0  0  0  0  0  0
   20.5635  -10.4528  -15.1230 C   0  0  0  0  0  0  0  0  0  0  0  0
   20.7064  -10.5924  -13.8563 O   0  0  0  0  0  0  0  0  0  0  0  0
   20.9739   -9.2488  -15.7306 N   0  0  0  0  0  0  0  0  0  0  0  0
   20.8714   -8.9022  -17.1258 C   0  0  0  0  0  0  0  0  0  0  0  0
   21.9959   -7.8891  -17.3695 C   0  0  0  0  0  0  0  0  0  0  0  0
   22.6663   -7.7300  -16.0415 C   0  0  0  0  0  0  0  0  0  0  0  0
   21.5813   -8.1276  -15.0624 C   0  0  1  0  0  0  0  0  0  0  0  0
   20.6222   -7.0204  -14.8271 C   0  0  0  0  0  0  0  0  0  0  0  0
   19.5001   -6.9276  -15.3424 O   0  0  0  0  0  0  0  0  0  0  0  0
   21.0263   -6.0132  -13.9571 O   0  0  0  0  0  0  0  0  0  0  0  0
  2  1  1  6
  2  3  1  0
  3  4  1  0
  4  5  1  0
  5  9  1  0
  5  6  2  0
  7  2  1  0
  8  7  2  0
 11 10  1  6
 11 12  1  0
 11 13  1  0
 13 14  1  1
 14  7  1  0
 15 17  1  0
 15 13  1  0
 16 15  2  0
 17 21  1  0
 18 19  1  0
 18 17  1  0
 19 20  1  0
 21 20  1  0
 22 24  1  0
 21 22  1  6
 23 22  2  0
M  END
$$$$
