EVP.pdb
     RDKit          3D

 24 24  0  0  1  0  0  0  0  0999 V2000
   15.2598  -11.4792  -16.5160 N   0  0  0  0  0  0  0  0  0  0  0  0
   16.3565  -11.3028  -15.5429 C   0  0  1  0  0  0  0  0  0  0  0  0
   17.0999  -12.6186  -15.5741 C   0  0  0  0  0  0  0  0  0  0  0  0
   16.3804  -13.7342  -14.8670 C   0  0  0  0  0  0  0  0  0  0  0  0
   17.2502  -14.9550  -15.0125 C   0  0  0  0  0  0  0  0  0  0  0  0
   18.1465  -15.2540  -14.2128 O   0  0  0  0  0  0  0  0  0  0  0  0
   17.2208  -10.2484  -16.0792 C   0  0  0  0  0  0  0  0  0  0  0  0
   17.3073  -10.0192  -17.3392 O   0  0  0  0  0  0  0  0  0  0  0  0
   16.9933  -15.7631  -16.1267 O   0  0  0  0  0  0  0  0  0  0  0  0
   16.8138   -8.2136  -17.2903 C   0  0  0  0  0  0  0  0  0  0  0  0
   17.6821   -7.3448  -16.3683 C   0  0  1  0  0  0  0  0  0  0  0  0
   16.8001   -6.7949  -15.2819 C   0  0  0  0  0  0  0  0  0  0  0  0
   18.7452   -8.2709  -15.8176 C   0  0  2  0  0  0  0  0  0  0  0  0
   18.0114   -9.4103  -15.2600 N   0  0  0  0  0  0  0  0  0  0  0  0
   19.6170   -7.6244  -14.8363 C   0  0  0  0  0  0  0  0  0  0  0  0
   19.1807   -7.5881  -13.6310 O   0  0  0  0  0  0  0  0  0  0  0  0
   20.8732   -7.0551  -15.1280 N   0  0  0  0  0  0  0  0  0  0  0  0
   21.4120   -6.7645  -16.4328 C   0  0  0  0  0  0  0  0  0  0  0  0
   22.9341   -6.8200  -16.2581 C   0  0  0  0  0  0  0  0  0  0  0  0
   23.1449   -7.1418  -14.8122 C   0  0  0  0  0  0  0  0  0  0  0  0
   21.8654   -6.6546  -14.1648 C   0  0  1  0  0  0  0  0  0  0  0  0
   21.8846   -5.1870  -13.9477 C   0  0  0  0  0  0  0  0  0  0  0  0
   22.5871   -4.5988  -13.1150 O   0  0  0  0  0  0  0  0  0  0  0  0
   21.0430   -4.4223  -14.7486 O   0  0  0  0  0  0  0  0  0  0  0  0
  2  1  1  6
  2  3  1  0
  3  4  1  0
  4  5  1  0
  5  9  1  0
  5  6  2  0
  7  2  1  0
  8  7  2  0
 11 10  1  6
 11 12  1  0
 11 13  1  0
 13 14  1  1
 14  7  1  0
 15 17  1  0
 15 13  1  0
 16 15  2  0
 17 21  1  0
 18 19  1  0
 18 17  1  0
 19 20  1  0
 21 20  1  0
 22 24  1  0
 21 22  1  6
 23 22  2  0
M  END
$$$$
