EVP.pdb
     RDKit          3D

 24 24  0  0  1  0  0  0  0  0999 V2000
   20.8675  -15.1127  -18.5937 N   0  0  0  0  0  0  0  0  0  0  0  0
   21.2949  -13.7363  -18.9155 C   0  0  1  0  0  0  0  0  0  0  0  0
   20.2176  -13.2163  -19.8396 C   0  0  0  0  0  0  0  0  0  0  0  0
   18.8228  -13.4246  -19.3165 C   0  0  0  0  0  0  0  0  0  0  0  0
   17.8970  -12.7959  -20.3243 C   0  0  0  0  0  0  0  0  0  0  0  0
   18.2878  -12.2606  -21.3697 O   0  0  0  0  0  0  0  0  0  0  0  0
   21.2550  -12.9853  -17.6582 C   0  0  0  0  0  0  0  0  0  0  0  0
   20.3961  -13.2459  -16.7406 O   0  0  0  0  0  0  0  0  0  0  0  0
   16.5315  -12.8445  -20.0181 O   0  0  0  0  0  0  0  0  0  0  0  0
   23.4313  -10.5076  -14.1940 C   0  0  0  0  0  0  0  0  0  0  0  0
   23.4569  -11.3581  -15.4726 C   0  0  1  0  0  0  0  0  0  0  0  0
   23.7430  -12.7806  -15.0788 C   0  0  0  0  0  0  0  0  0  0  0  0
   22.0827  -11.2087  -16.0893 C   0  0  2  0  0  0  0  0  0  0  0  0
   22.1512  -11.9330  -17.3615 N   0  0  0  0  0  0  0  0  0  0  0  0
   21.6765   -9.8127  -16.2542 C   0  0  0  0  0  0  0  0  0  0  0  0
   22.3061   -9.1436  -17.1487 O   0  0  0  0  0  0  0  0  0  0  0  0
   20.6623   -9.1768  -15.5096 N   0  0  0  0  0  0  0  0  0  0  0  0
   19.8527   -9.7616  -14.4705 C   0  0  0  0  0  0  0  0  0  0  0  0
   18.5489   -8.9550  -14.4782 C   0  0  0  0  0  0  0  0  0  0  0  0
   18.7335   -7.9338  -15.5560 C   0  0  0  0  0  0  0  0  0  0  0  0
   20.2397   -7.8080  -15.6517 C   0  0  1  0  0  0  0  0  0  0  0  0
   20.7860   -6.9326  -14.5856 C   0  0  0  0  0  0  0  0  0  0  0  0
   21.4058   -7.3256  -13.5884 O   0  0  0  0  0  0  0  0  0  0  0  0
   20.5793   -5.5646  -14.7286 O   0  0  0  0  0  0  0  0  0  0  0  0
  2  1  1  1
  2  3  1  0
  3  4  1  0
  4  5  1  0
  5  9  1  0
  5  6  2  0
  7  2  1  0
  8  7  2  0
 11 10  1  1
 11 12  1  0
 11 13  1  0
 13 14  1  6
 14  7  1  0
 15 17  1  0
 15 13  1  0
 16 15  2  0
 17 21  1  0
 18 19  1  0
 18 17  1  0
 19 20  1  0
 21 20  1  0
 22 24  1  0
 21 22  1  1
 23 22  2  0
M  END
$$$$
