EVP.pdb
     RDKit          3D

 24 24  0  0  1  0  0  0  0  0999 V2000
   12.9573  -11.2949  -10.8894 N   0  0  0  0  0  0  0  0  0  0  0  0
   14.4327  -11.3415  -10.8486 C   0  0  1  0  0  0  0  0  0  0  0  0
   14.8143  -12.1739  -12.0513 C   0  0  0  0  0  0  0  0  0  0  0  0
   14.6310  -13.6523  -11.8437 C   0  0  0  0  0  0  0  0  0  0  0  0
   15.0827  -14.3156  -13.1180 C   0  0  0  0  0  0  0  0  0  0  0  0
   14.4882  -14.1971  -14.1973 O   0  0  0  0  0  0  0  0  0  0  0  0
   14.8965   -9.9661  -11.0480 C   0  0  0  0  0  0  0  0  0  0  0  0
   14.2733   -9.1455  -11.8135 O   0  0  0  0  0  0  0  0  0  0  0  0
   16.2409  -15.0970  -13.0267 O   0  0  0  0  0  0  0  0  0  0  0  0
   17.0097   -6.0154   -9.4204 C   0  0  0  0  0  0  0  0  0  0  0  0
   16.3610   -7.3988   -9.2649 C   0  0  1  0  0  0  0  0  0  0  0  0
   14.9298   -7.1969   -8.8508 C   0  0  0  0  0  0  0  0  0  0  0  0
   16.4679   -8.0544  -10.6250 C   0  0  2  0  0  0  0  0  0  0  0  0
   16.0480   -9.4429  -10.4167 N   0  0  0  0  0  0  0  0  0  0  0  0
   17.8053   -7.9492  -11.2092 C   0  0  0  0  0  0  0  0  0  0  0  0
   18.7493   -8.5329  -10.5668 O   0  0  0  0  0  0  0  0  0  0  0  0
   18.1100   -7.2640  -12.4029 N   0  0  0  0  0  0  0  0  0  0  0  0
   17.1895   -6.5540  -13.2547 C   0  0  0  0  0  0  0  0  0  0  0  0
   17.8223   -6.5970  -14.6505 C   0  0  0  0  0  0  0  0  0  0  0  0
   19.1029   -7.3494  -14.4704 C   0  0  0  0  0  0  0  0  0  0  0  0
   19.4137   -7.1462  -13.0021 C   0  0  1  0  0  0  0  0  0  0  0  0
   20.0354   -5.8227  -12.7509 C   0  0  0  0  0  0  0  0  0  0  0  0
   19.4330   -4.8154  -12.3566 O   0  0  0  0  0  0  0  0  0  0  0  0
   21.4033   -5.7174  -12.9799 O   0  0  0  0  0  0  0  0  0  0  0  0
  2  1  1  6
  2  3  1  0
  3  4  1  0
  4  5  1  0
  5  9  1  0
  5  6  2  0
  7  2  1  0
  8  7  2  0
 11 10  1  6
 11 12  1  0
 11 13  1  0
 13 14  1  1
 14  7  1  0
 15 17  1  0
 15 13  1  0
 16 15  2  0
 17 21  1  0
 18 19  1  0
 18 17  1  0
 19 20  1  0
 21 20  1  0
 22 24  1  0
 21 22  1  6
 23 22  2  0
M  END
$$$$
