EVP.pdb
     RDKit          3D

 24 24  0  0  1  0  0  0  0  0999 V2000
   24.2391   -9.3001  -20.6384 N   0  0  0  0  0  0  0  0  0  0  0  0
   24.2141   -8.3878  -19.4775 C   0  0  1  0  0  0  0  0  0  0  0  0
   23.6419   -7.1004  -20.0255 C   0  0  0  0  0  0  0  0  0  0  0  0
   22.3056   -7.2713  -20.6942 C   0  0  0  0  0  0  0  0  0  0  0  0
   21.8995   -5.9046  -21.1790 C   0  0  0  0  0  0  0  0  0  0  0  0
   22.6368   -4.9120  -21.1193 O   0  0  0  0  0  0  0  0  0  0  0  0
   23.2696   -8.9645  -18.5174 C   0  0  0  0  0  0  0  0  0  0  0  0
   22.3011   -9.7198  -18.8905 O   0  0  0  0  0  0  0  0  0  0  0  0
   20.6111   -5.8015  -21.7175 O   0  0  0  0  0  0  0  0  0  0  0  0
   22.3394  -10.6633  -14.1282 C   0  0  0  0  0  0  0  0  0  0  0  0
   23.3026  -10.0722  -15.1683 C   0  0  1  0  0  0  0  0  0  0  0  0
   24.0839  -11.2047  -15.7744 C   0  0  0  0  0  0  0  0  0  0  0  0
   22.4253   -9.3813  -16.1901 C   0  0  2  0  0  0  0  0  0  0  0  0
   23.3548   -8.7402  -17.1243 N   0  0  0  0  0  0  0  0  0  0  0  0
   21.4826   -8.4359  -15.5915 C   0  0  0  0  0  0  0  0  0  0  0  0
   21.9856   -7.3450  -15.1428 O   0  0  0  0  0  0  0  0  0  0  0  0
   20.0930   -8.6461  -15.4817 N   0  0  0  0  0  0  0  0  0  0  0  0
   19.3653   -9.8384  -15.8369 C   0  0  0  0  0  0  0  0  0  0  0  0
   17.9493   -9.3568  -16.1738 C   0  0  0  0  0  0  0  0  0  0  0  0
   17.9863   -7.8755  -15.9672 C   0  0  0  0  0  0  0  0  0  0  0  0
   19.1294   -7.6963  -14.9900 C   0  0  1  0  0  0  0  0  0  0  0  0
   18.7100   -7.9843  -13.5963 C   0  0  0  0  0  0  0  0  0  0  0  0
   18.0630   -7.2152  -12.8731 O   0  0  0  0  0  0  0  0  0  0  0  0
   19.0783   -9.2186  -13.0715 O   0  0  0  0  0  0  0  0  0  0  0  0
  2  1  1  6
  2  3  1  0
  3  4  1  0
  4  5  1  0
  5  9  1  0
  5  6  2  0
  7  2  1  0
  8  7  2  0
 11 10  1  1
 11 12  1  0
 11 13  1  0
 13 14  1  6
 14  7  1  0
 15 17  1  0
 15 13  1  0
 16 15  2  0
 17 21  1  0
 18 19  1  0
 18 17  1  0
 19 20  1  0
 21 20  1  0
 22 24  1  0
 21 22  1  1
 23 22  2  0
M  END
$$$$
