EVP.pdb
     RDKit          3D

 24 24  0  0  1  0  0  0  0  0999 V2000
   16.3717  -11.2806  -17.9512 N   0  0  0  0  0  0  0  0  0  0  0  0
   16.4327  -10.5582  -16.6646 C   0  0  1  0  0  0  0  0  0  0  0  0
   16.8840  -11.6031  -15.6698 C   0  0  0  0  0  0  0  0  0  0  0  0
   15.8145  -12.5994  -15.3153 C   0  0  0  0  0  0  0  0  0  0  0  0
   16.4498  -13.5783  -14.3634 C   0  0  0  0  0  0  0  0  0  0  0  0
   17.6435  -13.5376  -14.0381 O   0  0  0  0  0  0  0  0  0  0  0  0
   17.4810   -9.5447  -16.8077 C   0  0  0  0  0  0  0  0  0  0  0  0
   18.5127   -9.7371  -17.5468 O   0  0  0  0  0  0  0  0  0  0  0  0
   15.6054  -14.5679  -13.8456 O   0  0  0  0  0  0  0  0  0  0  0  0
   18.6962   -4.9092  -16.9089 C   0  0  0  0  0  0  0  0  0  0  0  0
   17.7164   -6.0900  -16.9772 C   0  0  1  0  0  0  0  0  0  0  0  0
   17.3590   -6.3142  -18.4203 C   0  0  0  0  0  0  0  0  0  0  0  0
   18.4591   -7.2707  -16.3896 C   0  0  2  0  0  0  0  0  0  0  0  0
   17.4343   -8.2916  -16.1550 N   0  0  0  0  0  0  0  0  0  0  0  0
   19.2084   -6.9325  -15.1792 C   0  0  0  0  0  0  0  0  0  0  0  0
   18.5097   -6.5873  -14.1609 O   0  0  0  0  0  0  0  0  0  0  0  0
   20.6134   -6.9628  -15.0682 N   0  0  0  0  0  0  0  0  0  0  0  0
   21.5619   -7.2113  -16.1245 C   0  0  0  0  0  0  0  0  0  0  0  0
   22.7962   -7.7921  -15.4247 C   0  0  0  0  0  0  0  0  0  0  0  0
   22.4387   -7.8201  -13.9722 C   0  0  0  0  0  0  0  0  0  0  0  0
   21.3721   -6.7504  -13.8633 C   0  0  1  0  0  0  0  0  0  0  0  0
   21.9631   -5.3911  -13.7978 C   0  0  0  0  0  0  0  0  0  0  0  0
   21.9818   -4.5762  -14.7299 O   0  0  0  0  0  0  0  0  0  0  0  0
   22.5385   -5.0136  -12.5891 O   0  0  0  0  0  0  0  0  0  0  0  0
  2  1  1  6
  2  3  1  0
  3  4  1  0
  4  5  1  0
  5  9  1  0
  5  6  2  0
  7  2  1  0
  8  7  2  0
 11 10  1  6
 11 12  1  0
 11 13  1  0
 13 14  1  1
 14  7  1  0
 15 17  1  0
 15 13  1  0
 16 15  2  0
 17 21  1  0
 18 19  1  0
 18 17  1  0
 19 20  1  0
 21 20  1  0
 22 24  1  0
 21 22  1  6
 23 22  2  0
M  END
$$$$
