CPN.pdb
     RDKit          3D

 22 22  0  0  1  0  0  0  0  0999 V2000
   19.7102  -11.3382  -15.5503 N   0  0  0  0  0  0  0  0  0  0  0  0
   19.4578   -9.9373  -15.5107 C   0  0  1  0  0  0  0  0  0  0  0  0
   18.1288   -9.6679  -16.2049 C   0  0  0  0  0  0  0  0  0  0  0  0
   18.3532   -9.9519  -17.9863 S   0  0  0  0  0  0  0  0  0  0  0  0
   19.4779   -9.4038  -14.1438 C   0  0  0  0  0  0  0  0  0  0  0  0
   18.9497  -10.1272  -13.2238 O   0  0  0  0  0  0  0  0  0  0  0  0
   20.0291   -8.1596  -13.7467 N   0  0  0  0  0  0  0  0  0  0  0  0
   20.7907   -7.3048  -14.6258 C   0  0  0  0  0  0  0  0  0  0  0  0
   21.2120   -6.0922  -13.8761 C   0  0  0  0  0  0  0  0  0  0  0  0
   20.8299   -6.3532  -12.4591 C   0  0  0  0  0  0  0  0  0  0  0  0
   19.9273   -7.5618  -12.4423 C   0  0  1  0  0  0  0  0  0  0  0  0
   18.5485   -7.1445  -12.1131 C   0  0  0  0  0  0  0  0  0  0  0  0
   17.6381   -7.2856  -12.9526 O   0  0  0  0  0  0  0  0  0  0  0  0
   14.3881   -7.1508   -9.2302 N   0  0  0  0  0  0  0  0  0  0  0  0
   15.1635   -8.2863   -9.6268 C   0  0  0  0  0  0  0  0  0  0  0  0
   14.6045   -9.3969   -9.4497 O   0  0  0  0  0  0  0  0  0  0  0  0
   16.5055   -8.1258  -10.1936 C   0  0  0  0  0  0  0  0  0  0  0  0
   16.9146   -6.6876  -10.3058 C   0  0  2  0  0  0  0  0  0  0  0  0
   18.2603   -6.5900  -10.8587 N   0  0  0  0  0  0  0  0  0  0  0  0
   16.7734   -5.9588   -9.0576 C   0  0  0  0  0  0  0  0  0  0  0  0
   17.6591   -6.1676   -8.1549 O   0  0  0  0  0  0  0  0  0  0  0  0
   15.8018   -5.0629   -8.7133 O   0  0  0  0  0  0  0  0  0  0  0  0
  2  1  1  1
  2  5  1  0
  3  2  1  0
  4  3  1  0
  5  7  1  0
  6  5  2  0
  7  8  1  0
  7 11  1  0
  9  8  1  0
 10  9  1  0
 10 11  1  0
 11 12  1  6
 12 19  1  0
 12 13  2  0
 15 14  1  0
 15 17  1  0
 16 15  2  0
 18 20  1  0
 18 17  1  1
 19 18  1  0
 20 22  1  0
 21 20  2  0
M  END
$$$$
