CPN.pdb
     RDKit          3D

 22 22  0  0  1  0  0  0  0  0999 V2000
   26.2341  -19.9291   -9.5162 N   0  0  0  0  0  0  0  0  0  0  0  0
   25.4914  -20.6040  -10.5266 C   0  0  1  0  0  0  0  0  0  0  0  0
   24.0192  -20.5844  -10.1358 C   0  0  0  0  0  0  0  0  0  0  0  0
   23.7538  -21.8586   -8.8666 S   0  0  0  0  0  0  0  0  0  0  0  0
   25.7103  -20.0298  -11.8592 C   0  0  0  0  0  0  0  0  0  0  0  0
   25.2972  -18.8301  -12.0562 O   0  0  0  0  0  0  0  0  0  0  0  0
   26.3379  -20.6813  -12.9506 N   0  0  0  0  0  0  0  0  0  0  0  0
   26.9290  -21.9954  -12.8654 C   0  0  0  0  0  0  0  0  0  0  0  0
   27.4950  -22.3583  -14.1913 C   0  0  0  0  0  0  0  0  0  0  0  0
   27.3832  -21.1230  -15.0180 C   0  0  0  0  0  0  0  0  0  0  0  0
   26.4884  -20.1572  -14.2817 C   0  0  1  0  0  0  0  0  0  0  0  0
   25.1999  -20.0351  -14.9947 C   0  0  0  0  0  0  0  0  0  0  0  0
   24.1426  -20.3831  -14.4340 O   0  0  0  0  0  0  0  0  0  0  0  0
   21.7149  -17.4217  -17.5810 N   0  0  0  0  0  0  0  0  0  0  0  0
   22.3719  -17.0397  -16.3685 C   0  0  0  0  0  0  0  0  0  0  0  0
   21.8392  -16.0806  -15.7573 O   0  0  0  0  0  0  0  0  0  0  0  0
   23.5743  -17.7389  -15.9064 C   0  0  0  0  0  0  0  0  0  0  0  0
   23.9560  -18.8801  -16.8012 C   0  0  2  0  0  0  0  0  0  0  0  0
   25.1624  -19.5286  -16.3009 N   0  0  0  0  0  0  0  0  0  0  0  0
   24.0720  -18.4927  -18.1961 C   0  0  0  0  0  0  0  0  0  0  0  0
   24.8490  -17.5100  -18.4675 O   0  0  0  0  0  0  0  0  0  0  0  0
   23.4497  -19.0492  -19.2769 O   0  0  0  0  0  0  0  0  0  0  0  0
  2  1  1  1
  2  5  1  0
  3  2  1  0
  4  3  1  0
  5  7  1  0
  6  5  2  0
  7  8  1  0
  7 11  1  0
  9  8  1  0
 10  9  1  0
 10 11  1  0
 11 12  1  6
 12 19  1  0
 12 13  2  0
 15 14  1  0
 15 17  1  0
 16 15  2  0
 18 20  1  0
 18 17  1  1
 19 18  1  0
 20 22  1  0
 21 20  2  0
M  END
$$$$
