CPN.pdb
     RDKit          3D

 22 22  0  0  1  0  0  0  0  0999 V2000
   18.8220  -12.6680  -15.1418 N   0  0  0  0  0  0  0  0  0  0  0  0
   18.7998  -11.2683  -15.4028 C   0  0  1  0  0  0  0  0  0  0  0  0
   17.5120  -10.9377  -16.1462 C   0  0  0  0  0  0  0  0  0  0  0  0
   17.6619  -11.5668  -17.8451 S   0  0  0  0  0  0  0  0  0  0  0  0
   18.9454  -10.4692  -14.1806 C   0  0  0  0  0  0  0  0  0  0  0  0
   18.3312  -10.8836  -13.1320 O   0  0  0  0  0  0  0  0  0  0  0  0
   19.7046   -9.2788  -14.0530 N   0  0  0  0  0  0  0  0  0  0  0  0
   20.4584   -8.6908  -15.1345 C   0  0  0  0  0  0  0  0  0  0  0  0
   21.1297   -7.4590  -14.6426 C   0  0  0  0  0  0  0  0  0  0  0  0
   20.8962   -7.4449  -13.1704 C   0  0  0  0  0  0  0  0  0  0  0  0
   19.8481   -8.4852  -12.8620 C   0  0  1  0  0  0  0  0  0  0  0  0
   18.5903   -7.8178  -12.4672 C   0  0  0  0  0  0  0  0  0  0  0  0
   17.7340   -7.5428  -13.3300 O   0  0  0  0  0  0  0  0  0  0  0  0
   14.7028   -5.8844   -9.7003 N   0  0  0  0  0  0  0  0  0  0  0  0
   15.5528   -6.6143   -8.8100 C   0  0  0  0  0  0  0  0  0  0  0  0
   15.1263   -6.7132   -7.6330 O   0  0  0  0  0  0  0  0  0  0  0  0
   16.8189   -7.1890   -9.2735 C   0  0  0  0  0  0  0  0  0  0  0  0
   17.0819   -6.9085  -10.7229 C   0  0  2  0  0  0  0  0  0  0  0  0
   18.3562   -7.4926  -11.1242 N   0  0  0  0  0  0  0  0  0  0  0  0
   16.9899   -5.4972  -11.0531 C   0  0  0  0  0  0  0  0  0  0  0  0
   18.0317   -4.7793  -10.8476 O   0  0  0  0  0  0  0  0  0  0  0  0
   15.9181   -4.8221  -11.5636 O   0  0  0  0  0  0  0  0  0  0  0  0
  2  1  1  1
  2  5  1  0
  3  2  1  0
  4  3  1  0
  5  7  1  0
  6  5  2  0
  7  8  1  0
  7 11  1  0
  9  8  1  0
 10  9  1  0
 10 11  1  0
 11 12  1  6
 12 19  1  0
 12 13  2  0
 15 14  1  0
 15 17  1  0
 16 15  2  0
 18 20  1  0
 18 17  1  1
 19 18  1  0
 20 22  1  0
 21 20  2  0
M  END
$$$$
