CPN.pdb
     RDKit          3D

 22 22  0  0  1  0  0  0  0  0999 V2000
   27.3138  -16.5391  -19.1115 N   0  0  0  0  0  0  0  0  0  0  0  0
   27.1895  -16.6800  -17.7000 C   0  0  1  0  0  0  0  0  0  0  0  0
   26.4329  -15.4730  -17.1606 C   0  0  0  0  0  0  0  0  0  0  0  0
   27.6313  -14.1371  -16.8711 S   0  0  0  0  0  0  0  0  0  0  0  0
   26.5464  -17.9428  -17.3186 C   0  0  0  0  0  0  0  0  0  0  0  0
   25.4803  -18.2733  -17.9531 O   0  0  0  0  0  0  0  0  0  0  0  0
   26.9971  -18.8322  -16.3109 N   0  0  0  0  0  0  0  0  0  0  0  0
   28.2605  -18.6924  -15.6269 C   0  0  0  0  0  0  0  0  0  0  0  0
   28.4033  -19.7980  -14.6436 C   0  0  0  0  0  0  0  0  0  0  0  0
   27.2544  -20.7103  -14.9079 C   0  0  0  0  0  0  0  0  0  0  0  0
   26.2946  -19.9873  -15.8198 C   0  0  1  0  0  0  0  0  0  0  0  0
   25.0714  -19.6337  -15.0698 C   0  0  0  0  0  0  0  0  0  0  0  0
   25.1159  -18.7594  -14.1828 O   0  0  0  0  0  0  0  0  0  0  0  0
   20.1543  -18.4619  -14.4145 N   0  0  0  0  0  0  0  0  0  0  0  0
   21.1923  -17.6831  -15.0175 C   0  0  0  0  0  0  0  0  0  0  0  0
   20.8898  -16.4863  -15.2488 O   0  0  0  0  0  0  0  0  0  0  0  0
   22.4980  -18.2724  -15.3272 C   0  0  0  0  0  0  0  0  0  0  0  0
   22.5997  -19.7049  -14.8957 C   0  0  2  0  0  0  0  0  0  0  0  0
   23.8599  -20.2788  -15.3528 N   0  0  0  0  0  0  0  0  0  0  0  0
   21.4513  -20.4999  -15.2936 C   0  0  0  0  0  0  0  0  0  0  0  0
   20.4194  -20.4578  -14.5343 O   0  0  0  0  0  0  0  0  0  0  0  0
   21.3246  -21.3017  -16.3918 O   0  0  0  0  0  0  0  0  0  0  0  0
  2  1  1  6
  2  5  1  0
  3  2  1  0
  4  3  1  0
  5  7  1  0
  6  5  2  0
  7  8  1  0
  7 11  1  0
  9  8  1  0
 10  9  1  0
 10 11  1  0
 11 12  1  1
 12 19  1  0
 12 13  2  0
 15 14  1  0
 15 17  1  0
 16 15  2  0
 18 20  1  0
 18 17  1  6
 19 18  1  0
 20 22  1  0
 21 20  2  0
M  END
$$$$
