CPN.pdb
     RDKit          3D

 22 22  0  0  1  0  0  0  0  0999 V2000
   21.2990  -10.7714  -16.0304 N   0  0  0  0  0  0  0  0  0  0  0  0
   20.8927   -9.4129  -16.1611 C   0  0  1  0  0  0  0  0  0  0  0  0
   19.5438   -9.3799  -16.8682 C   0  0  0  0  0  0  0  0  0  0  0  0
   19.8119   -9.7945  -18.6178 S   0  0  0  0  0  0  0  0  0  0  0  0
   20.8500   -8.7153  -14.8707 C   0  0  0  0  0  0  0  0  0  0  0  0
   20.4608   -9.3914  -13.8509 O   0  0  0  0  0  0  0  0  0  0  0  0
   21.2005   -7.3599  -14.6482 N   0  0  0  0  0  0  0  0  0  0  0  0
   21.7357   -6.4935  -15.6712 C   0  0  0  0  0  0  0  0  0  0  0  0
   21.9892   -5.1514  -15.0846 C   0  0  0  0  0  0  0  0  0  0  0  0
   21.7604   -5.3124  -13.6205 C   0  0  0  0  0  0  0  0  0  0  0  0
   21.0878   -6.6454  -13.4049 C   0  0  1  0  0  0  0  0  0  0  0  0
   19.6840   -6.4306  -12.9967 C   0  0  0  0  0  0  0  0  0  0  0  0
   18.7904   -6.3445  -13.8612 O   0  0  0  0  0  0  0  0  0  0  0  0
   15.3539   -6.0741  -10.2639 N   0  0  0  0  0  0  0  0  0  0  0  0
   16.3992   -6.4164   -9.3486 C   0  0  0  0  0  0  0  0  0  0  0  0
   16.0235   -6.6184   -8.1674 O   0  0  0  0  0  0  0  0  0  0  0  0
   17.7924   -6.5145   -9.7931 C   0  0  0  0  0  0  0  0  0  0  0  0
   17.9639   -6.1416  -11.2353 C   0  0  2  0  0  0  0  0  0  0  0  0
   19.3533   -6.3231  -11.6390 N   0  0  0  0  0  0  0  0  0  0  0  0
   17.4669   -4.8114  -11.5400 C   0  0  0  0  0  0  0  0  0  0  0  0
   18.2181   -3.8207  -11.2284 O   0  0  0  0  0  0  0  0  0  0  0  0
   16.2812   -4.4717  -12.1264 O   0  0  0  0  0  0  0  0  0  0  0  0
  2  1  1  1
  2  5  1  0
  3  2  1  0
  4  3  1  0
  5  7  1  0
  6  5  2  0
  7  8  1  0
  7 11  1  0
  9  8  1  0
 10  9  1  0
 10 11  1  0
 11 12  1  6
 12 19  1  0
 12 13  2  0
 15 14  1  0
 15 17  1  0
 16 15  2  0
 18 20  1  0
 18 17  1  1
 19 18  1  0
 20 22  1  0
 21 20  2  0
M  END
$$$$
