CPN.pdb
     RDKit          3D

 22 22  0  0  1  0  0  0  0  0999 V2000
   25.0598  -21.3156  -10.8679 N   0  0  0  0  0  0  0  0  0  0  0  0
   25.4548  -21.3659  -12.2351 C   0  0  1  0  0  0  0  0  0  0  0  0
   24.6792  -22.4844  -12.9193 C   0  0  0  0  0  0  0  0  0  0  0  0
   25.7519  -23.9498  -12.9995 S   0  0  0  0  0  0  0  0  0  0  0  0
   25.2737  -20.0793  -12.9173 C   0  0  0  0  0  0  0  0  0  0  0  0
   24.2147  -19.4100  -12.6358 O   0  0  0  0  0  0  0  0  0  0  0  0
   26.1642  -19.5077  -13.8606 N   0  0  0  0  0  0  0  0  0  0  0  0
   27.4688  -20.0484  -14.1591 C   0  0  0  0  0  0  0  0  0  0  0  0
   28.1224  -19.1958  -15.1865 C   0  0  0  0  0  0  0  0  0  0  0  0
   27.2263  -18.0154  -15.3462 C   0  0  0  0  0  0  0  0  0  0  0  0
   25.9252  -18.3295  -14.6503 C   0  0  1  0  0  0  0  0  0  0  0  0
   24.8608  -18.5246  -15.6566 C   0  0  0  0  0  0  0  0  0  0  0  0
   24.5575  -19.6753  -16.0269 O   0  0  0  0  0  0  0  0  0  0  0  0
   20.0009  -17.7307  -16.7560 N   0  0  0  0  0  0  0  0  0  0  0  0
   20.5626  -17.9472  -15.4577 C   0  0  0  0  0  0  0  0  0  0  0  0
   19.7299  -18.2303  -14.5612 O   0  0  0  0  0  0  0  0  0  0  0  0
   22.0063  -17.8383  -15.2299 C   0  0  0  0  0  0  0  0  0  0  0  0
   22.7616  -17.4940  -16.4787 C   0  0  2  0  0  0  0  0  0  0  0  0
   24.1903  -17.4188  -16.1968 N   0  0  0  0  0  0  0  0  0  0  0  0
   22.2613  -16.2974  -17.1323 C   0  0  0  0  0  0  0  0  0  0  0  0
   22.8410  -15.1900  -16.8483 O   0  0  0  0  0  0  0  0  0  0  0  0
   21.2345  -16.1959  -18.0270 O   0  0  0  0  0  0  0  0  0  0  0  0
  2  1  1  1
  2  5  1  0
  3  2  1  0
  4  3  1  0
  5  7  1  0
  6  5  2  0
  7  8  1  0
  7 11  1  0
  9  8  1  0
 10  9  1  0
 10 11  1  0
 11 12  1  6
 12 19  1  0
 12 13  2  0
 15 14  1  0
 15 17  1  0
 16 15  2  0
 18 20  1  0
 18 17  1  1
 19 18  1  0
 20 22  1  0
 21 20  2  0
M  END
$$$$
