CPN.pdb
     RDKit          3D

 22 22  0  0  1  0  0  0  0  0999 V2000
   21.4349  -16.6617  -15.9985 N   0  0  0  0  0  0  0  0  0  0  0  0
   22.3478  -15.7168  -16.5476 C   0  0  1  0  0  0  0  0  0  0  0  0
   21.9500  -15.4470  -17.9930 C   0  0  0  0  0  0  0  0  0  0  0  0
   22.4752  -16.8673  -18.9989 S   0  0  0  0  0  0  0  0  0  0  0  0
   22.4145  -14.4806  -15.7597 C   0  0  0  0  0  0  0  0  0  0  0  0
   21.3105  -14.0254  -15.2878 O   0  0  0  0  0  0  0  0  0  0  0  0
   23.5899  -13.7423  -15.4719 N   0  0  0  0  0  0  0  0  0  0  0  0
   24.9104  -14.1435  -15.8949 C   0  0  0  0  0  0  0  0  0  0  0  0
   25.8975  -13.1404  -15.4162 C   0  0  0  0  0  0  0  0  0  0  0  0
   25.1280  -12.2250  -14.5263 C   0  0  0  0  0  0  0  0  0  0  0  0
   23.6611  -12.5111  -14.7315 C   0  0  1  0  0  0  0  0  0  0  0  0
   23.0319  -11.3803  -15.4450 C   0  0  0  0  0  0  0  0  0  0  0  0
   22.7531  -11.4854  -16.6551 O   0  0  0  0  0  0  0  0  0  0  0  0
   19.8201   -7.5360  -16.2994 N   0  0  0  0  0  0  0  0  0  0  0  0
   19.5024   -8.9202  -16.1241 C   0  0  0  0  0  0  0  0  0  0  0  0
   18.3384   -9.2437  -16.4671 O   0  0  0  0  0  0  0  0  0  0  0  0
   20.4876   -9.8602  -15.5821 C   0  0  0  0  0  0  0  0  0  0  0  0
   21.8216   -9.2195  -15.3400 C   0  0  2  0  0  0  0  0  0  0  0  0
   22.7470  -10.1886  -14.7648 N   0  0  0  0  0  0  0  0  0  0  0  0
   21.7317   -8.0028  -14.5522 C   0  0  0  0  0  0  0  0  0  0  0  0
   21.6516   -8.1345  -13.2796 O   0  0  0  0  0  0  0  0  0  0  0  0
   21.7214   -6.7121  -14.9983 O   0  0  0  0  0  0  0  0  0  0  0  0
  2  1  1  1
  2  5  1  0
  3  2  1  0
  4  3  1  0
  5  7  1  0
  6  5  2  0
  7  8  1  0
  7 11  1  0
  9  8  1  0
 10  9  1  0
 10 11  1  0
 11 12  1  6
 12 19  1  0
 12 13  2  0
 15 14  1  0
 15 17  1  0
 16 15  2  0
 18 20  1  0
 18 17  1  1
 19 18  1  0
 20 22  1  0
 21 20  2  0
M  END
$$$$
