CPN.pdb
     RDKit          3D

 22 22  0  0  1  0  0  0  0  0999 V2000
   26.2313  -12.8115  -17.8357 N   0  0  0  0  0  0  0  0  0  0  0  0
   25.6354  -12.5224  -16.5751 C   0  0  1  0  0  0  0  0  0  0  0  0
   26.7265  -12.0464  -15.6247 C   0  0  0  0  0  0  0  0  0  0  0  0
   27.9301  -13.3940  -15.4247 S   0  0  0  0  0  0  0  0  0  0  0  0
   24.5425  -11.5491  -16.6832 C   0  0  0  0  0  0  0  0  0  0  0  0
   24.7489  -10.5140  -17.4144 O   0  0  0  0  0  0  0  0  0  0  0  0
   23.2771  -11.6488  -16.0520 N   0  0  0  0  0  0  0  0  0  0  0  0
   22.8890  -12.7530  -15.2073 C   0  0  0  0  0  0  0  0  0  0  0  0
   21.5017  -12.5277  -14.7232 C   0  0  0  0  0  0  0  0  0  0  0  0
   21.0129  -11.3347  -15.4715 C   0  0  0  0  0  0  0  0  0  0  0  0
   22.2018  -10.6981  -16.1475 C   0  0  1  0  0  0  0  0  0  0  0  0
   22.5167   -9.4140  -15.4877 C   0  0  0  0  0  0  0  0  0  0  0  0
   23.5751   -9.2891  -14.8415 O   0  0  0  0  0  0  0  0  0  0  0  0
   23.8421   -4.1414  -16.4172 N   0  0  0  0  0  0  0  0  0  0  0  0
   23.5984   -5.1599  -15.4420 C   0  0  0  0  0  0  0  0  0  0  0  0
   23.7428   -4.7958  -14.2488 O   0  0  0  0  0  0  0  0  0  0  0  0
   23.2109   -6.5152  -15.8436 C   0  0  0  0  0  0  0  0  0  0  0  0
   22.0159   -7.0189  -15.0908 C   0  0  2  0  0  0  0  0  0  0  0  0
   21.6284   -8.3345  -15.5860 N   0  0  0  0  0  0  0  0  0  0  0  0
   20.9091   -6.0786  -15.0889 C   0  0  0  0  0  0  0  0  0  0  0  0
   20.0864   -6.1416  -16.0698 O   0  0  0  0  0  0  0  0  0  0  0  0
   20.6249   -5.1177  -14.1610 O   0  0  0  0  0  0  0  0  0  0  0  0
  2  1  1  6
  2  5  1  0
  3  2  1  0
  4  3  1  0
  5  7  1  0
  6  5  2  0
  7  8  1  0
  7 11  1  0
  9  8  1  0
 10  9  1  0
 10 11  1  0
 11 12  1  1
 12 19  1  0
 12 13  2  0
 15 14  1  0
 15 17  1  0
 16 15  2  0
 18 20  1  0
 18 17  1  6
 19 18  1  0
 20 22  1  0
 21 20  2  0
M  END
$$$$
