CPN.pdb
     RDKit          3D

 22 22  0  0  1  0  0  0  0  0999 V2000
   18.1154  -12.3527  -16.4535 N   0  0  0  0  0  0  0  0  0  0  0  0
   19.2450  -11.6720  -16.9907 C   0  0  1  0  0  0  0  0  0  0  0  0
   18.7988  -10.8991  -18.2253 C   0  0  0  0  0  0  0  0  0  0  0  0
   18.4777  -12.0952  -19.5561 S   0  0  0  0  0  0  0  0  0  0  0  0
   19.8930  -10.7994  -16.0048 C   0  0  0  0  0  0  0  0  0  0  0  0
   19.1280  -10.0873  -15.2590 O   0  0  0  0  0  0  0  0  0  0  0  0
   21.2901  -10.6716  -15.8012 N   0  0  0  0  0  0  0  0  0  0  0  0
   22.2750  -11.4771  -16.4827 C   0  0  0  0  0  0  0  0  0  0  0  0
   23.6305  -11.0751  -16.0236 C   0  0  0  0  0  0  0  0  0  0  0  0
   23.3991  -10.1262  -14.8976 C   0  0  0  0  0  0  0  0  0  0  0  0
   21.9384   -9.7494  -14.9077 C   0  0  1  0  0  0  0  0  0  0  0  0
   21.7936   -8.3430  -15.3373 C   0  0  0  0  0  0  0  0  0  0  0  0
   21.3387   -8.0810  -16.4677 O   0  0  0  0  0  0  0  0  0  0  0  0
   20.6514   -3.4111  -15.2069 N   0  0  0  0  0  0  0  0  0  0  0  0
   19.7455   -4.5030  -15.0197 C   0  0  0  0  0  0  0  0  0  0  0  0
   18.5290   -4.2003  -15.0951 O   0  0  0  0  0  0  0  0  0  0  0  0
   20.2377   -5.8591  -14.7615 C   0  0  0  0  0  0  0  0  0  0  0  0
   21.7352   -5.9353  -14.7503 C   0  0  2  0  0  0  0  0  0  0  0  0
   22.1664   -7.3012  -14.4771 N   0  0  0  0  0  0  0  0  0  0  0  0
   22.3454   -4.9708  -13.8522 C   0  0  0  0  0  0  0  0  0  0  0  0
   22.3684   -5.2659  -12.6050 O   0  0  0  0  0  0  0  0  0  0  0  0
   22.9086   -3.7676  -14.1688 O   0  0  0  0  0  0  0  0  0  0  0  0
  2  1  1  1
  2  5  1  0
  3  2  1  0
  4  3  1  0
  5  7  1  0
  6  5  2  0
  7  8  1  0
  7 11  1  0
  9  8  1  0
 10  9  1  0
 10 11  1  0
 11 12  1  6
 12 19  1  0
 12 13  2  0
 15 14  1  0
 15 17  1  0
 16 15  2  0
 18 20  1  0
 18 17  1  1
 19 18  1  0
 20 22  1  0
 21 20  2  0
M  END
$$$$
