CPN.pdb
     RDKit          3D

 22 22  0  0  1  0  0  0  0  0999 V2000
   13.6370   -9.6229  -12.3660 N   0  0  0  0  0  0  0  0  0  0  0  0
   14.6001   -9.5373  -11.3206 C   0  0  1  0  0  0  0  0  0  0  0  0
   15.3791  -10.8456  -11.2754 C   0  0  0  0  0  0  0  0  0  0  0  0
   14.3640  -12.0788  -10.4072 S   0  0  0  0  0  0  0  0  0  0  0  0
   15.4876   -8.3783  -11.4713 C   0  0  0  0  0  0  0  0  0  0  0  0
   15.9539   -8.1451  -12.6447 O   0  0  0  0  0  0  0  0  0  0  0  0
   15.8770   -7.4913  -10.4364 N   0  0  0  0  0  0  0  0  0  0  0  0
   15.4489   -7.6253   -9.0644 C   0  0  0  0  0  0  0  0  0  0  0  0
   16.0438   -6.5243   -8.2622 C   0  0  0  0  0  0  0  0  0  0  0  0
   16.6904   -5.6194   -9.2547 C   0  0  0  0  0  0  0  0  0  0  0  0
   16.7339   -6.3445  -10.5768 C   0  0  1  0  0  0  0  0  0  0  0  0
   18.1297   -6.7119  -10.8935 C   0  0  0  0  0  0  0  0  0  0  0  0
   18.5763   -7.8214  -10.5430 O   0  0  0  0  0  0  0  0  0  0  0  0
   21.6431   -9.2244  -13.6057 N   0  0  0  0  0  0  0  0  0  0  0  0
   21.1118   -7.9112  -13.8083 C   0  0  0  0  0  0  0  0  0  0  0  0
   21.7437   -7.2059  -14.6331 O   0  0  0  0  0  0  0  0  0  0  0  0
   19.9177   -7.4586  -13.0890 C   0  0  0  0  0  0  0  0  0  0  0  0
   20.1926   -6.2833  -12.1994 C   0  0  2  0  0  0  0  0  0  0  0  0
   18.9543   -5.8161  -11.5875 N   0  0  0  0  0  0  0  0  0  0  0  0
   20.9146   -5.2186  -12.8734 C   0  0  0  0  0  0  0  0  0  0  0  0
   22.1555   -5.0789  -12.5840 O   0  0  0  0  0  0  0  0  0  0  0  0
   20.4352   -4.3298  -13.7929 O   0  0  0  0  0  0  0  0  0  0  0  0
  2  1  1  6
  2  5  1  0
  3  2  1  0
  4  3  1  0
  5  7  1  0
  6  5  2  0
  7  8  1  0
  7 11  1  0
  9  8  1  0
 10  9  1  0
 10 11  1  0
 11 12  1  1
 12 19  1  0
 12 13  2  0
 15 14  1  0
 15 17  1  0
 16 15  2  0
 18 20  1  0
 18 17  1  6
 19 18  1  0
 20 22  1  0
 21 20  2  0
M  END
$$$$
