LKR.pdb
     RDKit          3D

 29 28  0  0  1  0  0  0  0  0999 V2000
   29.5360  -18.4972   -6.0203 C   0  0  0  0  0  0  0  0  0  0  0  0
   28.4819  -19.4966   -6.3915 C   0  0  1  0  0  0  0  0  0  0  0  0
   27.5094  -19.7412   -5.2671 C   0  0  0  0  0  0  0  0  0  0  0  0
   27.7833  -19.1745   -7.6890 C   0  0  0  0  0  0  0  0  0  0  0  0
   26.7859  -20.2114   -8.0903 C   0  0  2  0  0  0  0  0  0  0  0  0
   27.3410  -21.5297   -7.9967 N   0  0  0  0  0  0  0  0  0  0  0  0
   26.2761  -19.9004   -9.4507 C   0  0  0  0  0  0  0  0  0  0  0  0
   25.7810  -18.7585   -9.6278 O   0  0  0  0  0  0  0  0  0  0  0  0
   26.3246  -20.8203  -10.5338 N   0  0  0  0  0  0  0  0  0  0  0  0
   25.8768  -20.5094  -11.8687 C   0  0  1  0  0  0  0  0  0  0  0  0
   26.9125  -20.7982  -12.9232 C   0  0  0  0  0  0  0  0  0  0  0  0
   26.4680  -20.3594  -14.3010 C   0  0  0  0  0  0  0  0  0  0  0  0
   27.5909  -20.6551  -15.2771 C   0  0  0  0  0  0  0  0  0  0  0  0
   27.2331  -20.1594  -16.6633 C   0  0  0  0  0  0  0  0  0  0  0  0
   28.3286  -20.3740  -17.5673 N   0  0  0  0  0  0  0  0  0  0  0  0
   24.6236  -21.2533  -12.1657 C   0  0  0  0  0  0  0  0  0  0  0  0
   24.5227  -22.4946  -11.9668 O   0  0  0  0  0  0  0  0  0  0  0  0
   18.3154  -23.8259  -10.4624 N   0  0  0  0  0  0  0  0  0  0  0  0
   19.0273  -23.5835   -9.2622 C   0  0  0  0  0  0  0  0  0  0  0  0
   19.0949  -24.5103   -8.3415 N   0  0  0  0  0  0  0  0  0  0  0  0
   19.6614  -22.3304   -9.0738 N   0  0  0  0  0  0  0  0  0  0  0  0
   19.4960  -21.2975  -10.1112 C   0  0  0  0  0  0  0  0  0  0  0  0
   20.2572  -21.7369  -11.2947 C   0  0  0  0  0  0  0  0  0  0  0  0
   21.4524  -21.0233  -11.6870 C   0  0  0  0  0  0  0  0  0  0  0  0
   22.2430  -21.3022  -12.8866 C   0  0  2  0  0  0  0  0  0  0  0  0
   23.5283  -20.5356  -12.6833 N   0  0  0  0  0  0  0  0  0  0  0  0
   21.7647  -20.8313  -14.1818 C   0  0  0  0  0  0  0  0  0  0  0  0
   21.0823  -21.5565  -15.1301 O   0  0  0  0  0  0  0  0  0  0  0  0
   21.9862  -19.6096  -14.5351 O   0  0  0  0  0  0  0  0  0  0  0  0
  2  1  1  1
  2  4  1  0
  2  3  1  0
  5  4  1  0
  5  7  1  0
  5  6  1  6
  7  8  2  0
  9 10  1  0
  9  7  1  0
 10 16  1  0
 10 11  1  6
 12 11  1  0
 12 13  1  0
 14 15  1  0
 14 13  1  0
 16 17  2  0
 18 19  1  0
 19 21  1  0
 20 19  2  0
 21 22  1  0
 23 24  1  0
 23 22  1  0
 25 24  1  1
 25 27  1  0
 26 16  1  0
 26 25  1  0
 27 29  2  0
 27 28  1  0
M  END
$$$$
