LKR.pdb
     RDKit          3D

 29 28  0  0  1  0  0  0  0  0999 V2000
   27.7797  -26.9383  -16.2031 C   0  0  0  0  0  0  0  0  0  0  0  0
   26.9721  -25.9511  -16.9912 C   0  0  1  0  0  0  0  0  0  0  0  0
   26.2497  -26.5989  -18.1437 C   0  0  0  0  0  0  0  0  0  0  0  0
   26.0502  -25.1163  -16.1377 C   0  0  0  0  0  0  0  0  0  0  0  0
   25.4121  -23.9943  -16.8894 C   0  0  2  0  0  0  0  0  0  0  0  0
   26.3967  -23.0933  -17.4124 N   0  0  0  0  0  0  0  0  0  0  0  0
   24.4242  -23.3156  -16.0114 C   0  0  0  0  0  0  0  0  0  0  0  0
   24.2909  -23.7673  -14.8458 O   0  0  0  0  0  0  0  0  0  0  0  0
   23.6426  -22.2028  -16.4268 N   0  0  0  0  0  0  0  0  0  0  0  0
   22.7264  -21.5009  -15.5625 C   0  0  1  0  0  0  0  0  0  0  0  0
   22.6664  -20.0218  -15.8391 C   0  0  0  0  0  0  0  0  0  0  0  0
   21.6597  -19.3129  -14.9603 C   0  0  0  0  0  0  0  0  0  0  0  0
   21.5963  -17.8596  -15.3905 C   0  0  0  0  0  0  0  0  0  0  0  0
   20.6632  -17.0792  -14.4873 C   0  0  0  0  0  0  0  0  0  0  0  0
   20.6412  -15.6950  -14.8704 N   0  0  0  0  0  0  0  0  0  0  0  0
   21.3689  -22.0978  -15.6765 C   0  0  0  0  0  0  0  0  0  0  0  0
   20.8369  -22.3339  -16.7953 O   0  0  0  0  0  0  0  0  0  0  0  0
   19.4616  -25.9895   -9.4832 N   0  0  0  0  0  0  0  0  0  0  0  0
   18.4325  -25.0179   -9.5385 C   0  0  0  0  0  0  0  0  0  0  0  0
   18.0651  -24.3896   -8.4516 N   0  0  0  0  0  0  0  0  0  0  0  0
   17.8101  -24.7378  -10.7803 N   0  0  0  0  0  0  0  0  0  0  0  0
   18.1075  -25.6133  -11.9272 C   0  0  0  0  0  0  0  0  0  0  0  0
   18.0837  -24.7743  -13.1390 C   0  0  0  0  0  0  0  0  0  0  0  0
   19.2041  -23.9100  -13.4376 C   0  0  0  0  0  0  0  0  0  0  0  0
   19.3348  -23.0877  -14.6412 C   0  0  2  0  0  0  0  0  0  0  0  0
   20.6719  -22.4016  -14.4914 N   0  0  0  0  0  0  0  0  0  0  0  0
   18.4056  -21.9838  -14.8557 C   0  0  0  0  0  0  0  0  0  0  0  0
   18.5619  -20.6763  -14.4596 O   0  0  0  0  0  0  0  0  0  0  0  0
   17.2919  -22.2011  -15.4713 O   0  0  0  0  0  0  0  0  0  0  0  0
  2  1  1  1
  2  4  1  0
  2  3  1  0
  5  4  1  0
  5  7  1  0
  5  6  1  1
  7  8  2  0
  9 10  1  0
  9  7  1  0
 10 16  1  0
 10 11  1  6
 12 11  1  0
 12 13  1  0
 14 15  1  0
 14 13  1  0
 16 17  2  0
 18 19  1  0
 19 21  1  0
 20 19  2  0
 21 22  1  0
 23 24  1  0
 23 22  1  0
 25 24  1  1
 25 27  1  0
 26 16  1  0
 26 25  1  0
 27 29  2  0
 27 28  1  0
M  END
$$$$
