LKR.pdb
     RDKit          3D

 29 28  0  0  1  0  0  0  0  0999 V2000
   16.2737  -13.3061  -18.2957 C   0  0  0  0  0  0  0  0  0  0  0  0
   17.7354  -13.5778  -18.1023 C   0  0  1  0  0  0  0  0  0  0  0  0
   18.3696  -12.6131  -17.1342 C   0  0  0  0  0  0  0  0  0  0  0  0
   18.0353  -15.0144  -17.7537 C   0  0  0  0  0  0  0  0  0  0  0  0
   19.4652  -15.3847  -17.9759 C   0  0  2  0  0  0  0  0  0  0  0  0
   19.8551  -15.1576  -19.3365 N   0  0  0  0  0  0  0  0  0  0  0  0
   19.6797  -16.7907  -17.5461 C   0  0  0  0  0  0  0  0  0  0  0  0
   19.3231  -17.0918  -16.3789 O   0  0  0  0  0  0  0  0  0  0  0  0
   20.2583  -17.7848  -18.3820 N   0  0  0  0  0  0  0  0  0  0  0  0
   20.6255  -19.1016  -17.9233 C   0  0  1  0  0  0  0  0  0  0  0  0
   20.6032  -20.1372  -19.0165 C   0  0  0  0  0  0  0  0  0  0  0  0
   19.2943  -20.1445  -19.7749 C   0  0  0  0  0  0  0  0  0  0  0  0
   19.4170  -21.1307  -20.9211 C   0  0  0  0  0  0  0  0  0  0  0  0
   18.1564  -21.1267  -21.7615 C   0  0  0  0  0  0  0  0  0  0  0  0
   18.3286  -21.9556  -22.9219 N   0  0  0  0  0  0  0  0  0  0  0  0
   21.9697  -19.0572  -17.2885 C   0  0  0  0  0  0  0  0  0  0  0  0
   22.9211  -18.3974  -17.7887 O   0  0  0  0  0  0  0  0  0  0  0  0
   26.4789  -21.7297  -11.0657 N   0  0  0  0  0  0  0  0  0  0  0  0
   25.3655  -21.3244  -10.2898 C   0  0  0  0  0  0  0  0  0  0  0  0
   25.5205  -21.0292   -9.0249 N   0  0  0  0  0  0  0  0  0  0  0  0
   24.0888  -21.2439  -10.8992 N   0  0  0  0  0  0  0  0  0  0  0  0
   23.9553  -21.6616  -12.3057 C   0  0  0  0  0  0  0  0  0  0  0  0
   24.3091  -20.5021  -13.1445 C   0  0  0  0  0  0  0  0  0  0  0  0
   23.3327  -19.9497  -14.0571 C   0  0  0  0  0  0  0  0  0  0  0  0
   23.5497  -19.7261  -15.4870 C   0  0  2  0  0  0  0  0  0  0  0  0
   22.1684  -19.7783  -16.0956 N   0  0  0  0  0  0  0  0  0  0  0  0
   24.3007  -20.7114  -16.2574 C   0  0  0  0  0  0  0  0  0  0  0  0
   25.6372  -20.6728  -16.5787 O   0  0  0  0  0  0  0  0  0  0  0  0
   23.6934  -21.7510  -16.7230 O   0  0  0  0  0  0  0  0  0  0  0  0
  2  1  1  1
  2  4  1  0
  2  3  1  0
  5  4  1  0
  5  7  1  0
  5  6  1  6
  7  8  2  0
  9 10  1  0
  9  7  1  0
 10 16  1  0
 10 11  1  6
 12 11  1  0
 12 13  1  0
 14 15  1  0
 14 13  1  0
 16 17  2  0
 18 19  1  0
 19 21  1  0
 20 19  2  0
 21 22  1  0
 23 24  1  0
 23 22  1  0
 25 24  1  1
 25 27  1  0
 26 16  1  0
 26 25  1  0
 27 29  2  0
 27 28  1  0
M  END
$$$$
