LKR.pdb
     RDKit          3D

 29 28  0  0  1  0  0  0  0  0999 V2000
   18.8122  -10.3737  -15.4859 C   0  0  0  0  0  0  0  0  0  0  0  0
   19.1367   -9.8304  -14.1268 C   0  0  1  0  0  0  0  0  0  0  0  0
   20.3207   -8.8992  -14.1549 C   0  0  0  0  0  0  0  0  0  0  0  0
   17.9478   -9.2194  -13.4280 C   0  0  0  0  0  0  0  0  0  0  0  0
   18.2765   -8.6839  -12.0728 C   0  0  2  0  0  0  0  0  0  0  0  0
   18.7780   -9.7163  -11.2141 N   0  0  0  0  0  0  0  0  0  0  0  0
   17.0810   -8.0032  -11.5117 C   0  0  0  0  0  0  0  0  0  0  0  0
   16.5393   -7.1205  -12.2243 O   0  0  0  0  0  0  0  0  0  0  0  0
   16.5385   -8.3029  -10.2320 N   0  0  0  0  0  0  0  0  0  0  0  0
   15.3004   -7.7528   -9.7387 C   0  0  1  0  0  0  0  0  0  0  0  0
   14.4625   -8.7564   -8.9910 C   0  0  0  0  0  0  0  0  0  0  0  0
   13.4747   -9.4650   -9.8911 C   0  0  0  0  0  0  0  0  0  0  0  0
   12.7364  -10.4991   -9.0623 C   0  0  0  0  0  0  0  0  0  0  0  0
   11.6742  -11.1868   -9.8954 C   0  0  0  0  0  0  0  0  0  0  0  0
   10.9078  -12.0878   -9.0805 N   0  0  0  0  0  0  0  0  0  0  0  0
   15.5812   -6.5758   -8.8740 C   0  0  0  0  0  0  0  0  0  0  0  0
   16.4033   -6.6318   -7.9193 O   0  0  0  0  0  0  0  0  0  0  0  0
   19.3173   -0.0865   -7.0847 N   0  0  0  0  0  0  0  0  0  0  0  0
   18.1271    0.6717   -7.2051 C   0  0  0  0  0  0  0  0  0  0  0  0
   18.1033    1.9205   -6.8163 N   0  0  0  0  0  0  0  0  0  0  0  0
   16.9694    0.0623   -7.7492 N   0  0  0  0  0  0  0  0  0  0  0  0
   17.0397   -1.3578   -8.1349 C   0  0  0  0  0  0  0  0  0  0  0  0
   15.7221   -1.7314   -8.6804 C   0  0  0  0  0  0  0  0  0  0  0  0
   15.4799   -3.0916   -9.1078 C   0  0  0  0  0  0  0  0  0  0  0  0
   15.1734   -4.2113   -8.2166 C   0  0  2  0  0  0  0  0  0  0  0  0
   14.9009   -5.3727   -9.1429 N   0  0  0  0  0  0  0  0  0  0  0  0
   13.9790   -4.1521   -7.3812 C   0  0  0  0  0  0  0  0  0  0  0  0
   13.8098   -3.4319   -6.2220 O   0  0  0  0  0  0  0  0  0  0  0  0
   12.9374   -4.8391   -7.7121 O   0  0  0  0  0  0  0  0  0  0  0  0
  2  1  1  6
  2  4  1  0
  2  3  1  0
  5  4  1  0
  5  7  1  0
  5  6  1  1
  7  8  2  0
  9 10  1  0
  9  7  1  0
 10 16  1  0
 10 11  1  1
 12 11  1  0
 12 13  1  0
 14 15  1  0
 14 13  1  0
 16 17  2  0
 18 19  1  0
 19 21  1  0
 20 19  2  0
 21 22  1  0
 23 24  1  0
 23 22  1  0
 25 24  1  6
 25 27  1  0
 26 16  1  0
 26 25  1  0
 27 29  2  0
 27 28  1  0
M  END
$$$$
