LKR.pdb
     RDKit          3D

 29 28  0  0  1  0  0  0  0  0999 V2000
   28.6576  -20.2770   -7.5841 C   0  0  0  0  0  0  0  0  0  0  0  0
   27.1952  -20.4301   -7.8767 C   0  0  1  0  0  0  0  0  0  0  0  0
   26.4010  -19.2226   -7.4513 C   0  0  0  0  0  0  0  0  0  0  0  0
   26.9095  -20.8261   -9.3038 C   0  0  0  0  0  0  0  0  0  0  0  0
   25.5514  -20.4105   -9.7663 C   0  0  2  0  0  0  0  0  0  0  0  0
   24.5519  -21.3518   -9.3544 N   0  0  0  0  0  0  0  0  0  0  0  0
   25.5754  -20.2084  -11.2380 C   0  0  0  0  0  0  0  0  0  0  0  0
   26.4319  -19.4072  -11.6906 O   0  0  0  0  0  0  0  0  0  0  0  0
   24.6898  -20.8689  -12.1331 N   0  0  0  0  0  0  0  0  0  0  0  0
   24.6489  -20.6146  -13.5518 C   0  0  1  0  0  0  0  0  0  0  0  0
   24.5039  -21.8678  -14.3743 C   0  0  0  0  0  0  0  0  0  0  0  0
   24.5173  -23.1186  -13.5236 C   0  0  0  0  0  0  0  0  0  0  0  0
   24.3656  -24.3169  -14.4414 C   0  0  0  0  0  0  0  0  0  0  0  0
   24.2749  -25.5955  -13.6338 C   0  0  0  0  0  0  0  0  0  0  0  0
   24.0300  -26.7153  -14.4995 N   0  0  0  0  0  0  0  0  0  0  0  0
   23.5440  -19.6686  -13.8623 C   0  0  0  0  0  0  0  0  0  0  0  0
   22.4969  -19.6143  -13.1616 O   0  0  0  0  0  0  0  0  0  0  0  0
   23.8466  -12.9707  -19.6688 N   0  0  0  0  0  0  0  0  0  0  0  0
   22.6488  -12.7566  -18.9439 C   0  0  0  0  0  0  0  0  0  0  0  0
   21.9086  -11.7079  -19.1960 N   0  0  0  0  0  0  0  0  0  0  0  0
   22.2659  -13.6886  -17.9476 N   0  0  0  0  0  0  0  0  0  0  0  0
   23.1681  -14.8166  -17.6584 C   0  0  0  0  0  0  0  0  0  0  0  0
   22.5069  -15.6608  -16.6469 C   0  0  0  0  0  0  0  0  0  0  0  0
   23.1619  -16.8588  -16.1701 C   0  0  0  0  0  0  0  0  0  0  0  0
   22.5962  -17.7977  -15.2004 C   0  0  2  0  0  0  0  0  0  0  0  0
   23.6878  -18.8167  -14.9741 N   0  0  0  0  0  0  0  0  0  0  0  0
   21.4445  -18.6084  -15.5804 C   0  0  0  0  0  0  0  0  0  0  0  0
   20.1202  -18.3459  -15.3193 O   0  0  0  0  0  0  0  0  0  0  0  0
   21.6287  -19.7106  -16.2266 O   0  0  0  0  0  0  0  0  0  0  0  0
  2  1  1  6
  2  4  1  0
  2  3  1  0
  5  4  1  0
  5  7  1  0
  5  6  1  6
  7  8  2  0
  9 10  1  0
  9  7  1  0
 10 16  1  0
 10 11  1  6
 12 11  1  0
 12 13  1  0
 14 15  1  0
 14 13  1  0
 16 17  2  0
 18 19  1  0
 19 21  1  0
 20 19  2  0
 21 22  1  0
 23 24  1  0
 23 22  1  0
 25 24  1  6
 25 27  1  0
 26 16  1  0
 26 25  1  0
 27 29  2  0
 27 28  1  0
M  END
$$$$
