LKR.pdb
     RDKit          3D

 29 28  0  0  1  0  0  0  0  0999 V2000
   19.5808  -27.8453  -18.5006 C   0  0  0  0  0  0  0  0  0  0  0  0
   20.9329  -27.2702  -18.2028 C   0  0  1  0  0  0  0  0  0  0  0  0
   21.4234  -26.3700  -19.3068 C   0  0  0  0  0  0  0  0  0  0  0  0
   21.0164  -26.6094  -16.8494 C   0  0  0  0  0  0  0  0  0  0  0  0
   22.3792  -26.0835  -16.5375 C   0  0  2  0  0  0  0  0  0  0  0  0
   23.2766  -27.1437  -16.1834 N   0  0  0  0  0  0  0  0  0  0  0  0
   22.2737  -25.0457  -15.4796 C   0  0  0  0  0  0  0  0  0  0  0  0
   22.2474  -25.4453  -14.2881 O   0  0  0  0  0  0  0  0  0  0  0  0
   22.2031  -23.6524  -15.7546 N   0  0  0  0  0  0  0  0  0  0  0  0
   22.1391  -22.6371  -14.7327 C   0  0  1  0  0  0  0  0  0  0  0  0
   22.5061  -21.2660  -15.2361 C   0  0  0  0  0  0  0  0  0  0  0  0
   23.8523  -20.8061  -14.7220 C   0  0  0  0  0  0  0  0  0  0  0  0
   24.8699  -20.9866  -15.8324 C   0  0  0  0  0  0  0  0  0  0  0  0
   26.2570  -20.6198  -15.3457 C   0  0  0  0  0  0  0  0  0  0  0  0
   27.2302  -20.8854  -16.3682 N   0  0  0  0  0  0  0  0  0  0  0  0
   20.7794  -22.6136  -14.1304 C   0  0  0  0  0  0  0  0  0  0  0  0
   19.7376  -22.7174  -14.8334 O   0  0  0  0  0  0  0  0  0  0  0  0
   18.5945  -24.7594   -5.9596 N   0  0  0  0  0  0  0  0  0  0  0  0
   17.4210  -24.9539   -6.7284 C   0  0  0  0  0  0  0  0  0  0  0  0
   16.2843  -25.2133   -6.1353 N   0  0  0  0  0  0  0  0  0  0  0  0
   17.4951  -24.8643   -8.1406 N   0  0  0  0  0  0  0  0  0  0  0  0
   18.7657  -24.4359   -8.7506 C   0  0  0  0  0  0  0  0  0  0  0  0
   18.4338  -23.6495   -9.9525 C   0  0  0  0  0  0  0  0  0  0  0  0
   19.4895  -23.2025  -10.8340 C   0  0  0  0  0  0  0  0  0  0  0  0
   19.2855  -22.5772  -12.1414 C   0  0  2  0  0  0  0  0  0  0  0  0
   20.6707  -22.4706  -12.7338 N   0  0  0  0  0  0  0  0  0  0  0  0
   18.7787  -21.2109  -12.2075 C   0  0  0  0  0  0  0  0  0  0  0  0
   17.4686  -20.8155  -12.3428 O   0  0  0  0  0  0  0  0  0  0  0  0
   19.6067  -20.2224  -12.1472 O   0  0  0  0  0  0  0  0  0  0  0  0
  2  1  1  6
  2  4  1  0
  2  3  1  0
  5  4  1  0
  5  7  1  0
  5  6  1  1
  7  8  2  0
  9 10  1  0
  9  7  1  0
 10 16  1  0
 10 11  1  6
 12 11  1  0
 12 13  1  0
 14 15  1  0
 14 13  1  0
 16 17  2  0
 18 19  1  0
 19 21  1  0
 20 19  2  0
 21 22  1  0
 23 24  1  0
 23 22  1  0
 25 24  1  1
 25 27  1  0
 26 16  1  0
 26 25  1  0
 27 29  2  0
 27 28  1  0
M  END
$$$$
