LKR.pdb
     RDKit          3D

 29 28  0  0  1  0  0  0  0  0999 V2000
   19.8432  -14.6158  -17.6394 C   0  0  0  0  0  0  0  0  0  0  0  0
   20.7737  -15.1617  -16.5982 C   0  0  1  0  0  0  0  0  0  0  0  0
   20.2675  -14.9189  -15.2001 C   0  0  0  0  0  0  0  0  0  0  0  0
   21.1454  -16.6056  -16.8267 C   0  0  0  0  0  0  0  0  0  0  0  0
   21.9839  -17.1753  -15.7297 C   0  0  2  0  0  0  0  0  0  0  0  0
   23.2816  -16.5673  -15.6988 N   0  0  0  0  0  0  0  0  0  0  0  0
   22.0471  -18.6522  -15.8778 C   0  0  0  0  0  0  0  0  0  0  0  0
   20.9590  -19.2552  -16.0588 O   0  0  0  0  0  0  0  0  0  0  0  0
   23.2598  -19.3928  -15.8242 N   0  0  0  0  0  0  0  0  0  0  0  0
   23.3285  -20.8267  -15.9593 C   0  0  1  0  0  0  0  0  0  0  0  0
   24.7032  -21.3220  -16.3240 C   0  0  0  0  0  0  0  0  0  0  0  0
   24.7354  -22.8182  -16.5448 C   0  0  0  0  0  0  0  0  0  0  0  0
   26.1666  -23.2217  -16.8450 C   0  0  0  0  0  0  0  0  0  0  0  0
   26.2497  -24.7066  -17.1337 C   0  0  0  0  0  0  0  0  0  0  0  0
   27.6070  -25.0847  -17.4131 N   0  0  0  0  0  0  0  0  0  0  0  0
   22.8689  -21.4738  -14.7015 C   0  0  0  0  0  0  0  0  0  0  0  0
   23.2997  -21.1149  -13.5719 O   0  0  0  0  0  0  0  0  0  0  0  0
   15.0087  -23.4323   -9.8939 N   0  0  0  0  0  0  0  0  0  0  0  0
   15.6495  -23.0422  -11.0952 C   0  0  0  0  0  0  0  0  0  0  0  0
   14.9612  -22.4704  -12.0495 N   0  0  0  0  0  0  0  0  0  0  0  0
   17.0381  -23.2789  -11.2482 N   0  0  0  0  0  0  0  0  0  0  0  0
   17.7242  -22.6982  -12.4154 C   0  0  0  0  0  0  0  0  0  0  0  0
   19.1355  -23.1194  -12.3508 C   0  0  0  0  0  0  0  0  0  0  0  0
   20.0719  -22.6527  -13.3491 C   0  0  0  0  0  0  0  0  0  0  0  0
   21.4501  -23.1230  -13.4947 C   0  0  2  0  0  0  0  0  0  0  0  0
   21.9258  -22.5152  -14.7930 N   0  0  0  0  0  0  0  0  0  0  0  0
   21.7026  -24.5489  -13.6714 C   0  0  0  0  0  0  0  0  0  0  0  0
   21.7980  -25.5047  -12.6875 O   0  0  0  0  0  0  0  0  0  0  0  0
   21.8733  -25.0214  -14.8605 O   0  0  0  0  0  0  0  0  0  0  0  0
  2  1  1  6
  2  4  1  0
  2  3  1  0
  5  4  1  0
  5  7  1  0
  5  6  1  6
  7  8  2  0
  9 10  1  0
  9  7  1  0
 10 16  1  0
 10 11  1  1
 12 11  1  0
 12 13  1  0
 14 15  1  0
 14 13  1  0
 16 17  2  0
 18 19  1  0
 19 21  1  0
 20 19  2  0
 21 22  1  0
 23 24  1  0
 23 22  1  0
 25 24  1  6
 25 27  1  0
 26 16  1  0
 26 25  1  0
 27 29  2  0
 27 28  1  0
M  END
$$$$
