LKR.pdb
     RDKit          3D

 29 28  0  0  1  0  0  0  0  0999 V2000
   28.8796  -20.6557   -6.3490 C   0  0  0  0  0  0  0  0  0  0  0  0
   27.7541  -19.6802   -6.5200 C   0  0  1  0  0  0  0  0  0  0  0  0
   28.0119  -18.3827   -5.7990 C   0  0  0  0  0  0  0  0  0  0  0  0
   27.3648  -19.4636   -7.9611 C   0  0  0  0  0  0  0  0  0  0  0  0
   26.0078  -19.9958   -8.2876 C   0  0  2  0  0  0  0  0  0  0  0  0
   25.7996  -21.2850   -7.6966 N   0  0  0  0  0  0  0  0  0  0  0  0
   25.8274  -20.0064   -9.7623 C   0  0  0  0  0  0  0  0  0  0  0  0
   26.1357  -18.9575  -10.3830 O   0  0  0  0  0  0  0  0  0  0  0  0
   25.3320  -21.1281  -10.4820 N   0  0  0  0  0  0  0  0  0  0  0  0
   25.0938  -21.1251  -11.9041 C   0  0  1  0  0  0  0  0  0  0  0  0
   25.6115  -22.3596  -12.5940 C   0  0  0  0  0  0  0  0  0  0  0  0
   25.4490  -22.2896  -14.0963 C   0  0  0  0  0  0  0  0  0  0  0  0
   26.0101  -23.5664  -14.6932 C   0  0  0  0  0  0  0  0  0  0  0  0
   25.9717  -23.5061  -16.2065 C   0  0  0  0  0  0  0  0  0  0  0  0
   26.6228  -24.6570  -16.7676 N   0  0  0  0  0  0  0  0  0  0  0  0
   23.6398  -20.9621  -12.1709 C   0  0  0  0  0  0  0  0  0  0  0  0
   22.7635  -21.4514  -11.4073 O   0  0  0  0  0  0  0  0  0  0  0  0
   20.6688  -17.3036  -17.7044 N   0  0  0  0  0  0  0  0  0  0  0  0
   19.4657  -16.7321  -17.2229 C   0  0  0  0  0  0  0  0  0  0  0  0
   18.4711  -16.5102  -18.0431 N   0  0  0  0  0  0  0  0  0  0  0  0
   19.3552  -16.4057  -15.8484 N   0  0  0  0  0  0  0  0  0  0  0  0
   20.4468  -16.8041  -14.9429 C   0  0  0  0  0  0  0  0  0  0  0  0
   20.4630  -18.2774  -14.8948 C   0  0  0  0  0  0  0  0  0  0  0  0
   21.6762  -18.9717  -14.5240 C   0  0  0  0  0  0  0  0  0  0  0  0
   21.7661  -20.0277  -13.5147 C   0  0  2  0  0  0  0  0  0  0  0  0
   23.2481  -20.2381  -13.3133 N   0  0  0  0  0  0  0  0  0  0  0  0
   21.2709  -21.3625  -13.8325 C   0  0  0  0  0  0  0  0  0  0  0  0
   20.0345  -21.8841  -13.5324 O   0  0  0  0  0  0  0  0  0  0  0  0
   22.0380  -22.1933  -14.4553 O   0  0  0  0  0  0  0  0  0  0  0  0
  2  1  1  6
  2  4  1  0
  2  3  1  0
  5  4  1  0
  5  7  1  0
  5  6  1  6
  7  8  2  0
  9 10  1  0
  9  7  1  0
 10 16  1  0
 10 11  1  1
 12 11  1  0
 12 13  1  0
 14 15  1  0
 14 13  1  0
 16 17  2  0
 18 19  1  0
 19 21  1  0
 20 19  2  0
 21 22  1  0
 23 24  1  0
 23 22  1  0
 25 24  1  6
 25 27  1  0
 26 16  1  0
 26 25  1  0
 27 29  2  0
 27 28  1  0
M  END
$$$$
