LKR.pdb
     RDKit          3D

 29 28  0  0  1  0  0  0  0  0999 V2000
   23.0404  -17.6209  -16.8974 C   0  0  0  0  0  0  0  0  0  0  0  0
   23.0462  -19.0242  -16.3698 C   0  0  1  0  0  0  0  0  0  0  0  0
   24.4294  -19.6213  -16.3579 C   0  0  0  0  0  0  0  0  0  0  0  0
   22.3536  -19.1645  -15.0372 C   0  0  0  0  0  0  0  0  0  0  0  0
   22.3755  -20.5619  -14.5100 C   0  0  2  0  0  0  0  0  0  0  0  0
   22.2197  -21.5180  -15.5665 N   0  0  0  0  0  0  0  0  0  0  0  0
   21.3409  -20.7032  -13.4531 C   0  0  0  0  0  0  0  0  0  0  0  0
   21.3789  -19.8807  -12.5032 O   0  0  0  0  0  0  0  0  0  0  0  0
   20.3342  -21.7071  -13.4728 N   0  0  0  0  0  0  0  0  0  0  0  0
   19.2762  -21.7989  -12.4975 C   0  0  1  0  0  0  0  0  0  0  0  0
   17.9024  -21.6612  -13.0990 C   0  0  0  0  0  0  0  0  0  0  0  0
   17.8309  -20.5473  -14.1200 C   0  0  0  0  0  0  0  0  0  0  0  0
   16.3844  -20.3910  -14.5495 C   0  0  0  0  0  0  0  0  0  0  0  0
   16.3038  -20.0136  -16.0146 C   0  0  0  0  0  0  0  0  0  0  0  0
   14.9330  -19.8574  -16.4141 N   0  0  0  0  0  0  0  0  0  0  0  0
   19.3836  -23.0844  -11.7572 C   0  0  0  0  0  0  0  0  0  0  0  0
   19.8277  -24.1315  -12.3018 O   0  0  0  0  0  0  0  0  0  0  0  0
   16.2943  -24.7724   -3.8004 N   0  0  0  0  0  0  0  0  0  0  0  0
   17.0085  -25.9557   -4.1099 C   0  0  0  0  0  0  0  0  0  0  0  0
   16.8986  -27.0078   -3.3403 N   0  0  0  0  0  0  0  0  0  0  0  0
   17.8388  -25.9836   -5.2577 N   0  0  0  0  0  0  0  0  0  0  0  0
   17.9183  -24.7745   -6.0956 C   0  0  0  0  0  0  0  0  0  0  0  0
   18.8431  -25.0682   -7.2053 C   0  0  0  0  0  0  0  0  0  0  0  0
   19.0048  -24.1129   -8.2790 C   0  0  0  0  0  0  0  0  0  0  0  0
   19.0486  -24.4474   -9.7031 C   0  0  2  0  0  0  0  0  0  0  0  0
   18.9731  -23.1152  -10.4106 N   0  0  0  0  0  0  0  0  0  0  0  0
   17.9527  -25.2099  -10.2910 C   0  0  0  0  0  0  0  0  0  0  0  0
   16.7576  -24.7197  -10.7624 O   0  0  0  0  0  0  0  0  0  0  0  0
   18.0561  -26.4922  -10.3973 O   0  0  0  0  0  0  0  0  0  0  0  0
  2  1  1  1
  2  4  1  0
  2  3  1  0
  5  4  1  0
  5  7  1  0
  5  6  1  6
  7  8  2  0
  9 10  1  0
  9  7  1  0
 10 16  1  0
 10 11  1  6
 12 11  1  0
 12 13  1  0
 14 15  1  0
 14 13  1  0
 16 17  2  0
 18 19  1  0
 19 21  1  0
 20 19  2  0
 21 22  1  0
 23 24  1  0
 23 22  1  0
 25 24  1  1
 25 27  1  0
 26 16  1  0
 26 25  1  0
 27 29  2  0
 27 28  1  0
M  END
$$$$
