LKR.pdb
     RDKit          3D

 29 28  0  0  1  0  0  0  0  0999 V2000
    7.2763  -22.7748   -0.9938 C   0  0  0  0  0  0  0  0  0  0  0  0
    8.3788  -22.1608   -0.1843 C   0  0  1  0  0  0  0  0  0  0  0  0
    8.7753  -23.0254    0.9840 C   0  0  0  0  0  0  0  0  0  0  0  0
    9.5677  -21.7432   -1.0134 C   0  0  0  0  0  0  0  0  0  0  0  0
   10.5925  -20.9901   -0.2300 C   0  0  2  0  0  0  0  0  0  0  0  0
   10.2770  -19.5931   -0.1699 N   0  0  0  0  0  0  0  0  0  0  0  0
   11.9373  -21.2488   -0.8062 C   0  0  0  0  0  0  0  0  0  0  0  0
   12.1920  -20.7242   -1.9199 O   0  0  0  0  0  0  0  0  0  0  0  0
   12.9235  -22.0467   -0.1640 N   0  0  0  0  0  0  0  0  0  0  0  0
   14.2429  -22.2734   -0.6996 C   0  0  1  0  0  0  0  0  0  0  0  0
   15.2980  -22.4164    0.3655 C   0  0  0  0  0  0  0  0  0  0  0  0
   15.5823  -21.1095    1.0723 C   0  0  0  0  0  0  0  0  0  0  0  0
   16.6718  -21.3540    2.0992 C   0  0  0  0  0  0  0  0  0  0  0  0
   17.0138  -20.0694    2.8258 C   0  0  0  0  0  0  0  0  0  0  0  0
   18.0781  -20.2956    3.7635 N   0  0  0  0  0  0  0  0  0  0  0  0
   14.2320  -23.4769   -1.5733 C   0  0  0  0  0  0  0  0  0  0  0  0
   13.5589  -24.5036   -1.2845 O   0  0  0  0  0  0  0  0  0  0  0  0
   11.5205  -27.4439   -8.0933 N   0  0  0  0  0  0  0  0  0  0  0  0
   12.8169  -27.9328   -7.7993 C   0  0  0  0  0  0  0  0  0  0  0  0
   13.2787  -28.9841   -8.4260 N   0  0  0  0  0  0  0  0  0  0  0  0
   13.6018  -27.2714   -6.8224 N   0  0  0  0  0  0  0  0  0  0  0  0
   12.9535  -26.2619   -5.9675 C   0  0  0  0  0  0  0  0  0  0  0  0
   13.8444  -25.0884   -5.9194 C   0  0  0  0  0  0  0  0  0  0  0  0
   14.0013  -24.3546   -4.6831 C   0  0  0  0  0  0  0  0  0  0  0  0
   14.9558  -24.6850   -3.6241 C   0  0  2  0  0  0  0  0  0  0  0  0
   15.0009  -23.4524   -2.7526 N   0  0  0  0  0  0  0  0  0  0  0  0
   16.3549  -24.9114   -3.9696 C   0  0  0  0  0  0  0  0  0  0  0  0
   16.9273  -26.0882   -4.3919 O   0  0  0  0  0  0  0  0  0  0  0  0
   17.1975  -23.9377   -3.8784 O   0  0  0  0  0  0  0  0  0  0  0  0
  2  1  1  6
  2  4  1  0
  2  3  1  0
  5  4  1  0
  5  7  1  0
  5  6  1  6
  7  8  2  0
  9 10  1  0
  9  7  1  0
 10 16  1  0
 10 11  1  1
 12 11  1  0
 12 13  1  0
 14 15  1  0
 14 13  1  0
 16 17  2  0
 18 19  1  0
 19 21  1  0
 20 19  2  0
 21 22  1  0
 23 24  1  0
 23 22  1  0
 25 24  1  6
 25 27  1  0
 26 16  1  0
 26 25  1  0
 27 29  2  0
 27 28  1  0
M  END
$$$$
