LKR.pdb
     RDKit          3D

 29 28  0  0  1  0  0  0  0  0999 V2000
   25.3816  -21.8482   -8.7503 C   0  0  0  0  0  0  0  0  0  0  0  0
   24.8343  -20.5846   -9.3432 C   0  0  1  0  0  0  0  0  0  0  0  0
   24.9907  -19.4074   -8.4162 C   0  0  0  0  0  0  0  0  0  0  0  0
   25.3633  -20.2952  -10.7258 C   0  0  0  0  0  0  0  0  0  0  0  0
   25.0126  -21.3530  -11.7204 C   0  0  2  0  0  0  0  0  0  0  0  0
   25.7469  -22.5596  -11.4760 N   0  0  0  0  0  0  0  0  0  0  0  0
   25.2217  -20.8239  -13.0929 C   0  0  0  0  0  0  0  0  0  0  0  0
   24.8828  -19.6317  -13.3031 O   0  0  0  0  0  0  0  0  0  0  0  0
   25.7762  -21.5934  -14.1522 N   0  0  0  0  0  0  0  0  0  0  0  0
   26.1518  -21.0421  -15.4305 C   0  0  1  0  0  0  0  0  0  0  0  0
   27.2954  -21.7764  -16.0793 C   0  0  0  0  0  0  0  0  0  0  0  0
   27.7126  -21.1473  -17.3902 C   0  0  0  0  0  0  0  0  0  0  0  0
   28.8971  -21.9247  -17.9325 C   0  0  0  0  0  0  0  0  0  0  0  0
   29.3586  -21.3373  -19.2505 C   0  0  0  0  0  0  0  0  0  0  0  0
   30.5585  -21.9905  -19.6941 N   0  0  0  0  0  0  0  0  0  0  0  0
   24.9736  -21.0265  -16.3381 C   0  0  0  0  0  0  0  0  0  0  0  0
   24.2667  -22.0532  -16.5295 O   0  0  0  0  0  0  0  0  0  0  0  0
   20.0450  -14.3215  -16.6421 N   0  0  0  0  0  0  0  0  0  0  0  0
   19.4815  -15.4972  -17.1954 C   0  0  0  0  0  0  0  0  0  0  0  0
   18.3004  -15.4568  -17.7563 N   0  0  0  0  0  0  0  0  0  0  0  0
   20.2105  -16.7107  -17.1331 N   0  0  0  0  0  0  0  0  0  0  0  0
   21.5390  -16.6989  -16.4966 C   0  0  0  0  0  0  0  0  0  0  0  0
   22.0672  -18.0739  -16.5551 C   0  0  0  0  0  0  0  0  0  0  0  0
   22.8389  -18.4999  -17.7016 C   0  0  0  0  0  0  0  0  0  0  0  0
   23.4251  -19.8298  -17.8740 C   0  0  2  0  0  0  0  0  0  0  0  0
   24.6528  -19.8228  -16.9943 N   0  0  0  0  0  0  0  0  0  0  0  0
   23.9431  -20.2171  -19.1816 C   0  0  0  0  0  0  0  0  0  0  0  0
   25.2350  -20.0904  -19.6352 O   0  0  0  0  0  0  0  0  0  0  0  0
   23.1438  -20.7325  -20.0545 O   0  0  0  0  0  0  0  0  0  0  0  0
  2  1  1  1
  2  4  1  0
  2  3  1  0
  5  4  1  0
  5  7  1  0
  5  6  1  1
  7  8  2  0
  9 10  1  0
  9  7  1  0
 10 16  1  0
 10 11  1  6
 12 11  1  0
 12 13  1  0
 14 15  1  0
 14 13  1  0
 16 17  2  0
 18 19  1  0
 19 21  1  0
 20 19  2  0
 21 22  1  0
 23 24  1  0
 23 22  1  0
 25 24  1  6
 25 27  1  0
 26 16  1  0
 26 25  1  0
 27 29  2  0
 27 28  1  0
M  END
$$$$
