LKR.pdb
     RDKit          3D

 29 28  0  0  1  0  0  0  0  0999 V2000
   24.0823  -28.7269  -16.4585 C   0  0  0  0  0  0  0  0  0  0  0  0
   22.7291  -28.9325  -15.8467 C   0  0  1  0  0  0  0  0  0  0  0  0
   22.6248  -30.2524  -15.1279 C   0  0  0  0  0  0  0  0  0  0  0  0
   22.2808  -27.7779  -14.9858 C   0  0  0  0  0  0  0  0  0  0  0  0
   20.9055  -27.9596  -14.4321 C   0  0  2  0  0  0  0  0  0  0  0  0
   19.9502  -28.1830  -15.4772 N   0  0  0  0  0  0  0  0  0  0  0  0
   20.5611  -26.7907  -13.5821 C   0  0  0  0  0  0  0  0  0  0  0  0
   21.3968  -26.4567  -12.7044 O   0  0  0  0  0  0  0  0  0  0  0  0
   19.3533  -26.0528  -13.7185 N   0  0  0  0  0  0  0  0  0  0  0  0
   18.9456  -25.0098  -12.8102 C   0  0  1  0  0  0  0  0  0  0  0  0
   18.3080  -23.8354  -13.5045 C   0  0  0  0  0  0  0  0  0  0  0  0
   17.9055  -22.7446  -12.5369 C   0  0  0  0  0  0  0  0  0  0  0  0
   17.2165  -21.6452  -13.3228 C   0  0  0  0  0  0  0  0  0  0  0  0
   16.8601  -20.4867  -12.4139 C   0  0  0  0  0  0  0  0  0  0  0  0
   16.1520  -19.4761  -13.1491 N   0  0  0  0  0  0  0  0  0  0  0  0
   18.0177  -25.5654  -11.7892 C   0  0  0  0  0  0  0  0  0  0  0  0
   17.1788  -26.4641  -12.0703 O   0  0  0  0  0  0  0  0  0  0  0  0
   18.0907  -27.8213   -3.5784 N   0  0  0  0  0  0  0  0  0  0  0  0
   17.6990  -26.4638   -3.4794 C   0  0  0  0  0  0  0  0  0  0  0  0
   17.1298  -26.0238   -2.3869 N   0  0  0  0  0  0  0  0  0  0  0  0
   17.9307  -25.5943   -4.5740 N   0  0  0  0  0  0  0  0  0  0  0  0
   18.3271  -26.1823   -5.8653 C   0  0  0  0  0  0  0  0  0  0  0  0
   17.3253  -25.7671   -6.8638 C   0  0  0  0  0  0  0  0  0  0  0  0
   17.7560  -25.2839   -8.1571 C   0  0  0  0  0  0  0  0  0  0  0  0
   17.2055  -25.7158   -9.4425 C   0  0  2  0  0  0  0  0  0  0  0  0
   18.0916  -25.0621  -10.4762 N   0  0  0  0  0  0  0  0  0  0  0  0
   15.8633  -25.2894   -9.8232 C   0  0  0  0  0  0  0  0  0  0  0  0
   14.6918  -25.9922   -9.6665 O   0  0  0  0  0  0  0  0  0  0  0  0
   15.6971  -24.1379  -10.3825 O   0  0  0  0  0  0  0  0  0  0  0  0
  2  1  1  1
  2  4  1  0
  2  3  1  0
  5  4  1  0
  5  7  1  0
  5  6  1  6
  7  8  2  0
  9 10  1  0
  9  7  1  0
 10 16  1  0
 10 11  1  6
 12 11  1  0
 12 13  1  0
 14 15  1  0
 14 13  1  0
 16 17  2  0
 18 19  1  0
 19 21  1  0
 20 19  2  0
 21 22  1  0
 23 24  1  0
 23 22  1  0
 25 24  1  1
 25 27  1  0
 26 16  1  0
 26 25  1  0
 27 29  2  0
 27 28  1  0
M  END
$$$$
