AAL.pdb
     RDKit          3D

 19 18  0  0  1  0  0  0  0  0999 V2000
   30.3838  -37.0351    2.3654 C   0  0  0  0  0  0  0  0  0  0  0  0
   31.5808  -36.5466    1.5695 C   0  0  2  0  0  0  0  0  0  0  0  0
   32.2791  -35.5432    2.3486 N   0  0  0  0  0  0  0  0  0  0  0  0
   31.0436  -35.9810    0.3018 C   0  0  0  0  0  0  0  0  0  0  0  0
   30.6635  -34.7801    0.2819 O   0  0  0  0  0  0  0  0  0  0  0  0
   30.9785  -37.0679   -3.2579 C   0  0  0  0  0  0  0  0  0  0  0  0
   30.5055  -36.1087   -2.1630 C   0  0  2  0  0  0  0  0  0  0  0  0
   30.9269  -36.7052   -0.9012 N   0  0  0  0  0  0  0  0  0  0  0  0
   29.0399  -35.9383   -2.2221 C   0  0  0  0  0  0  0  0  0  0  0  0
   28.3295  -36.6084   -1.4497 O   0  0  0  0  0  0  0  0  0  0  0  0
   24.8640  -32.7300   -5.3244 C   0  0  0  0  0  0  0  0  0  0  0  0
   25.2863  -33.2857   -3.9611 C   0  0  2  0  0  0  0  0  0  0  0  0
   24.9538  -32.2860   -2.8793 C   0  0  0  0  0  0  0  0  0  0  0  0
   26.7440  -33.5834   -3.9378 C   0  0  0  0  0  0  0  0  0  0  0  0
   27.0511  -34.7775   -3.0957 C   0  0  2  0  0  0  0  0  0  0  0  0
   28.5046  -35.0190   -3.1557 N   0  0  0  0  0  0  0  0  0  0  0  0
   26.3818  -36.0037   -3.5664 C   0  0  0  0  0  0  0  0  0  0  0  0
   26.8715  -36.6569   -4.5449 O   0  0  0  0  0  0  0  0  0  0  0  0
   25.2346  -36.4722   -2.9754 O   0  0  0  0  0  0  0  0  0  0  0  0
  2  1  1  1
  2  3  1  0
  4  2  1  0
  5  4  2  0
  7  9  1  0
  7  6  1  6
  7  8  1  0
  8  4  1  0
  9 16  1  0
 10  9  2  0
 12 11  1  6
 13 12  1  0
 14 12  1  0
 15 14  1  6
 16 15  1  0
 17 19  1  0
 17 15  1  0
 18 17  2  0
M  END
$$$$
