AAL.pdb
     RDKit          3D

 19 18  0  0  1  0  0  0  0  0999 V2000
   16.1894  -11.3578  -17.1787 C   0  0  0  0  0  0  0  0  0  0  0  0
   17.2649  -11.7090  -18.1910 C   0  0  2  0  0  0  0  0  0  0  0  0
   17.4818  -13.1420  -18.1608 N   0  0  0  0  0  0  0  0  0  0  0  0
   18.4866  -10.9606  -17.7872 C   0  0  0  0  0  0  0  0  0  0  0  0
   19.1074  -11.3188  -16.7512 O   0  0  0  0  0  0  0  0  0  0  0  0
   20.6015   -8.2619  -19.2698 C   0  0  0  0  0  0  0  0  0  0  0  0
   20.1908   -9.1173  -18.0688 C   0  0  2  0  0  0  0  0  0  0  0  0
   19.0096   -9.8591  -18.4933 N   0  0  0  0  0  0  0  0  0  0  0  0
   19.9058   -8.2632  -16.8985 C   0  0  0  0  0  0  0  0  0  0  0  0
   18.7325   -7.8990  -16.6969 O   0  0  0  0  0  0  0  0  0  0  0  0
   22.0935   -6.1239  -11.9884 C   0  0  0  0  0  0  0  0  0  0  0  0
   20.7901   -6.7472  -12.4967 C   0  0  2  0  0  0  0  0  0  0  0  0
   20.1423   -7.5448  -11.3901 C   0  0  0  0  0  0  0  0  0  0  0  0
   21.0450   -7.6294  -13.6675 C   0  0  0  0  0  0  0  0  0  0  0  0
   20.6743   -6.9645  -14.9520 C   0  0  2  0  0  0  0  0  0  0  0  0
   20.9807   -7.8946  -16.0546 N   0  0  0  0  0  0  0  0  0  0  0  0
   21.4315   -5.7242  -15.1998 C   0  0  0  0  0  0  0  0  0  0  0  0
   22.5527   -5.7764  -15.8035 O   0  0  0  0  0  0  0  0  0  0  0  0
   20.9608   -4.4986  -14.7984 O   0  0  0  0  0  0  0  0  0  0  0  0
  2  1  1  1
  2  3  1  0
  4  2  1  0
  5  4  2  0
  7  9  1  0
  7  6  1  6
  7  8  1  0
  8  4  1  0
  9 16  1  0
 10  9  2  0
 12 11  1  1
 13 12  1  0
 14 12  1  0
 15 14  1  1
 16 15  1  0
 17 19  1  0
 17 15  1  0
 18 17  2  0
M  END
$$$$
