AAL.pdb
     RDKit          3D

 19 18  0  0  1  0  0  0  0  0999 V2000
   18.8702  -14.5562  -17.3227 C   0  0  0  0  0  0  0  0  0  0  0  0
   19.1927  -14.4870  -18.8046 C   0  0  2  0  0  0  0  0  0  0  0  0
   19.4928  -15.8239  -19.2781 N   0  0  0  0  0  0  0  0  0  0  0  0
   20.3656  -13.5807  -18.9405 C   0  0  0  0  0  0  0  0  0  0  0  0
   21.4981  -13.9878  -18.5679 O   0  0  0  0  0  0  0  0  0  0  0  0
   21.0098  -10.2989  -20.5972 C   0  0  0  0  0  0  0  0  0  0  0  0
   21.4709  -11.4321  -19.6774 C   0  0  2  0  0  0  0  0  0  0  0  0
   20.3002  -12.2750  -19.4659 N   0  0  0  0  0  0  0  0  0  0  0  0
   21.9872  -10.8884  -18.4053 C   0  0  0  0  0  0  0  0  0  0  0  0
   21.1890  -10.7018  -17.4682 O   0  0  0  0  0  0  0  0  0  0  0  0
   27.4249   -9.8042  -15.7168 C   0  0  0  0  0  0  0  0  0  0  0  0
   25.8950   -9.7432  -15.6807 C   0  0  2  0  0  0  0  0  0  0  0  0
   25.3846  -10.4893  -14.4711 C   0  0  0  0  0  0  0  0  0  0  0  0
   25.3111  -10.3321  -16.9161 C   0  0  0  0  0  0  0  0  0  0  0  0
   23.8473  -10.0573  -17.0213 C   0  0  2  0  0  0  0  0  0  0  0  0
   23.3698  -10.6022  -18.3057 N   0  0  0  0  0  0  0  0  0  0  0  0
   23.5274   -8.6183  -17.0081 C   0  0  0  0  0  0  0  0  0  0  0  0
   23.3901   -8.0102  -15.8966 O   0  0  0  0  0  0  0  0  0  0  0  0
   23.3732   -7.9024  -18.1693 O   0  0  0  0  0  0  0  0  0  0  0  0
  2  1  1  1
  2  3  1  0
  4  2  1  0
  5  4  2  0
  7  9  1  0
  7  6  1  6
  7  8  1  0
  8  4  1  0
  9 16  1  0
 10  9  2  0
 12 11  1  6
 13 12  1  0
 14 12  1  0
 15 14  1  6
 16 15  1  0
 17 19  1  0
 17 15  1  0
 18 17  2  0
M  END
$$$$
