AAL.pdb
     RDKit          3D

 19 18  0  0  1  0  0  0  0  0999 V2000
   27.1045   -8.6489  -20.4057 C   0  0  0  0  0  0  0  0  0  0  0  0
   27.1299  -10.1664  -20.3669 C   0  0  2  0  0  0  0  0  0  0  0  0
   25.9122  -10.6358  -19.7357 N   0  0  0  0  0  0  0  0  0  0  0  0
   28.3365  -10.5494  -19.5839 C   0  0  0  0  0  0  0  0  0  0  0  0
   28.3138  -10.4300  -18.3300 O   0  0  0  0  0  0  0  0  0  0  0  0
   31.4876  -12.3985  -20.2428 C   0  0  0  0  0  0  0  0  0  0  0  0
   30.7005  -11.4145  -19.3739 C   0  0  2  0  0  0  0  0  0  0  0  0
   29.5255  -11.0455  -20.1543 N   0  0  0  0  0  0  0  0  0  0  0  0
   31.5285  -10.2366  -19.0464 C   0  0  0  0  0  0  0  0  0  0  0  0
   31.4521   -9.2315  -19.7773 O   0  0  0  0  0  0  0  0  0  0  0  0
   35.3211   -8.3956  -14.5756 C   0  0  0  0  0  0  0  0  0  0  0  0
   34.5787   -8.0710  -15.8752 C   0  0  2  0  0  0  0  0  0  0  0  0
   33.8738   -6.7423  -15.7399 C   0  0  0  0  0  0  0  0  0  0  0  0
   33.5885   -9.1330  -16.2002 C   0  0  0  0  0  0  0  0  0  0  0  0
   33.2238   -9.1245  -17.6481 C   0  0  2  0  0  0  0  0  0  0  0  0
   32.3748  -10.3007  -17.9137 N   0  0  0  0  0  0  0  0  0  0  0  0
   34.3946   -9.2171  -18.5391 C   0  0  0  0  0  0  0  0  0  0  0  0
   34.8616  -10.3600  -18.8547 O   0  0  0  0  0  0  0  0  0  0  0  0
   35.0043   -8.0975  -19.0485 O   0  0  0  0  0  0  0  0  0  0  0  0
  2  1  1  1
  2  3  1  0
  4  2  1  0
  5  4  2  0
  7  9  1  0
  7  6  1  6
  7  8  1  0
  8  4  1  0
  9 16  1  0
 10  9  2  0
 12 11  1  1
 13 12  1  0
 14 12  1  0
 15 14  1  1
 16 15  1  0
 17 19  1  0
 17 15  1  0
 18 17  2  0
M  END
$$$$
