AAL.pdb
     RDKit          3D

 19 18  0  0  1  0  0  0  0  0999 V2000
   21.4096  -35.6130   -5.6650 C   0  0  0  0  0  0  0  0  0  0  0  0
   22.5960  -35.5620   -6.6109 C   0  0  2  0  0  0  0  0  0  0  0  0
   22.4796  -36.6499   -7.5619 N   0  0  0  0  0  0  0  0  0  0  0  0
   23.8153  -35.6982   -5.7681 C   0  0  0  0  0  0  0  0  0  0  0  0
   23.9659  -36.7402   -5.0762 O   0  0  0  0  0  0  0  0  0  0  0  0
   27.1341  -34.1095   -5.5726 C   0  0  0  0  0  0  0  0  0  0  0  0
   26.0205  -34.8737   -4.8524 C   0  0  2  0  0  0  0  0  0  0  0  0
   24.8333  -34.7276   -5.6861 N   0  0  0  0  0  0  0  0  0  0  0  0
   25.8065  -34.3229   -3.4992 C   0  0  0  0  0  0  0  0  0  0  0  0
   26.7303  -34.4048   -2.6685 O   0  0  0  0  0  0  0  0  0  0  0  0
   25.5817  -30.5882   -1.5593 C   0  0  0  0  0  0  0  0  0  0  0  0
   24.3365  -30.8274   -2.4183 C   0  0  2  0  0  0  0  0  0  0  0  0
   23.4785  -29.5848   -2.4273 C   0  0  0  0  0  0  0  0  0  0  0  0
   23.5474  -31.9777   -1.9004 C   0  0  0  0  0  0  0  0  0  0  0  0
   24.3671  -33.2237   -1.8301 C   0  0  2  0  0  0  0  0  0  0  0  0
   24.5583  -33.7245   -3.2039 N   0  0  0  0  0  0  0  0  0  0  0  0
   23.7192  -34.2983   -1.0565 C   0  0  0  0  0  0  0  0  0  0  0  0
   23.0639  -35.2081   -1.6622 O   0  0  0  0  0  0  0  0  0  0  0  0
   23.8022  -34.3528    0.3128 O   0  0  0  0  0  0  0  0  0  0  0  0
  2  1  1  1
  2  3  1  0
  4  2  1  0
  5  4  2  0
  7  9  1  0
  7  6  1  6
  7  8  1  0
  8  4  1  0
  9 16  1  0
 10  9  2  0
 12 11  1  1
 13 12  1  0
 14 12  1  0
 15 14  1  6
 16 15  1  0
 17 19  1  0
 17 15  1  0
 18 17  2  0
M  END
$$$$
