AAL.pdb
     RDKit          3D

 19 18  0  0  1  0  0  0  0  0999 V2000
   15.2038  -10.6810  -14.6267 C   0  0  0  0  0  0  0  0  0  0  0  0
   14.9969  -10.0379  -15.9863 C   0  0  2  0  0  0  0  0  0  0  0  0
   14.7413  -11.0811  -16.9600 N   0  0  0  0  0  0  0  0  0  0  0  0
   16.2474   -9.2925  -16.2964 C   0  0  0  0  0  0  0  0  0  0  0  0
   17.2845   -9.9398  -16.6008 O   0  0  0  0  0  0  0  0  0  0  0  0
   17.2133   -5.6937  -16.6500 C   0  0  0  0  0  0  0  0  0  0  0  0
   17.5963   -7.1727  -16.5577 C   0  0  2  0  0  0  0  0  0  0  0  0
   16.3579   -7.8880  -16.2739 N   0  0  0  0  0  0  0  0  0  0  0  0
   18.6013   -7.3817  -15.4963 C   0  0  0  0  0  0  0  0  0  0  0  0
   18.2072   -7.5891  -14.3336 O   0  0  0  0  0  0  0  0  0  0  0  0
   24.0672   -8.6841  -14.5505 C   0  0  0  0  0  0  0  0  0  0  0  0
   22.7009   -9.1584  -14.0467 C   0  0  2  0  0  0  0  0  0  0  0  0
   22.7495  -10.6411  -13.7647 C   0  0  0  0  0  0  0  0  0  0  0  0
   21.6378   -8.8731  -15.0479 C   0  0  0  0  0  0  0  0  0  0  0  0
   20.9449   -7.5809  -14.7658 C   0  0  2  0  0  0  0  0  0  0  0  0
   19.9719   -7.3372  -15.8467 N   0  0  0  0  0  0  0  0  0  0  0  0
   21.8634   -6.4283  -14.7328 C   0  0  0  0  0  0  0  0  0  0  0  0
   22.5307   -6.1803  -13.6758 O   0  0  0  0  0  0  0  0  0  0  0  0
   22.0271   -5.6045  -15.8187 O   0  0  0  0  0  0  0  0  0  0  0  0
  2  1  1  1
  2  3  1  0
  4  2  1  0
  5  4  2  0
  7  9  1  0
  7  6  1  1
  7  8  1  0
  8  4  1  0
  9 16  1  0
 10  9  2  0
 12 11  1  6
 13 12  1  0
 14 12  1  0
 15 14  1  6
 16 15  1  0
 17 19  1  0
 17 15  1  0
 18 17  2  0
M  END
$$$$
