AAL.pdb
     RDKit          3D

 19 18  0  0  1  0  0  0  0  0999 V2000
   23.8288  -19.9293  -18.9897 C   0  0  0  0  0  0  0  0  0  0  0  0
   23.4939  -18.8670  -17.9581 C   0  0  2  0  0  0  0  0  0  0  0  0
   22.0531  -18.7968  -17.8139 N   0  0  0  0  0  0  0  0  0  0  0  0
   24.0569  -17.5877  -18.4700 C   0  0  0  0  0  0  0  0  0  0  0  0
   25.3075  -17.4613  -18.5535 O   0  0  0  0  0  0  0  0  0  0  0  0
   22.8453  -14.8580  -20.5641 C   0  0  0  0  0  0  0  0  0  0  0  0
   23.8369  -15.2819  -19.4780 C   0  0  2  0  0  0  0  0  0  0  0  0
   23.2776  -16.4862  -18.8758 N   0  0  0  0  0  0  0  0  0  0  0  0
   24.0066  -14.2041  -18.4831 C   0  0  0  0  0  0  0  0  0  0  0  0
   23.1709  -14.1015  -17.5659 O   0  0  0  0  0  0  0  0  0  0  0  0
   27.0462  -13.5925  -15.4967 C   0  0  0  0  0  0  0  0  0  0  0  0
   27.4777  -13.2371  -16.9226 C   0  0  2  0  0  0  0  0  0  0  0  0
   28.9643  -12.9730  -16.9531 C   0  0  0  0  0  0  0  0  0  0  0  0
   26.7455  -12.0394  -17.4157 C   0  0  0  0  0  0  0  0  0  0  0  0
   25.2847  -12.3081  -17.5679 C   0  0  2  0  0  0  0  0  0  0  0  0
   25.1138  -13.3324  -18.6149 N   0  0  0  0  0  0  0  0  0  0  0  0
   24.5194  -11.1197  -17.9863 C   0  0  0  0  0  0  0  0  0  0  0  0
   24.2497  -10.9417  -19.2191 O   0  0  0  0  0  0  0  0  0  0  0  0
   24.0800  -10.1878  -17.0790 O   0  0  0  0  0  0  0  0  0  0  0  0
  2  1  1  6
  2  3  1  0
  4  2  1  0
  5  4  2  0
  7  9  1  0
  7  6  1  6
  7  8  1  0
  8  4  1  0
  9 16  1  0
 10  9  2  0
 12 11  1  1
 13 12  1  0
 14 12  1  0
 15 14  1  6
 16 15  1  0
 17 19  1  0
 17 15  1  0
 18 17  2  0
M  END
$$$$
