AAL.pdb
     RDKit          3D

 19 18  0  0  1  0  0  0  0  0999 V2000
   17.5586  -12.6522  -15.6349 C   0  0  0  0  0  0  0  0  0  0  0  0
   16.6757  -11.4638  -15.9712 C   0  0  2  0  0  0  0  0  0  0  0  0
   15.8297  -11.8161  -17.0944 N   0  0  0  0  0  0  0  0  0  0  0  0
   17.5906  -10.3382  -16.3053 C   0  0  0  0  0  0  0  0  0  0  0  0
   18.4660  -10.5067  -17.1955 O   0  0  0  0  0  0  0  0  0  0  0  0
   17.5398   -6.7209  -16.0800 C   0  0  0  0  0  0  0  0  0  0  0  0
   18.4265   -7.9681  -16.0506 C   0  0  2  0  0  0  0  0  0  0  0  0
   17.5480   -9.0732  -15.6864 N   0  0  0  0  0  0  0  0  0  0  0  0
   19.5231   -7.8004  -15.0760 C   0  0  0  0  0  0  0  0  0  0  0  0
   19.2898   -8.0154  -13.8721 O   0  0  0  0  0  0  0  0  0  0  0  0
   23.0804   -9.9931  -13.9592 C   0  0  0  0  0  0  0  0  0  0  0  0
   23.0875   -9.3045  -15.3272 C   0  0  2  0  0  0  0  0  0  0  0  0
   24.2833   -9.7688  -16.1240 C   0  0  0  0  0  0  0  0  0  0  0  0
   23.1295   -7.8248  -15.1763 C   0  0  0  0  0  0  0  0  0  0  0  0
   21.8775   -7.2963  -14.5577 C   0  0  2  0  0  0  0  0  0  0  0  0
   20.7946   -7.4017  -15.5531 N   0  0  0  0  0  0  0  0  0  0  0  0
   21.9800   -5.8783  -14.1679 C   0  0  0  0  0  0  0  0  0  0  0  0
   21.5687   -4.9715  -14.9632 O   0  0  0  0  0  0  0  0  0  0  0  0
   22.5085   -5.4983  -12.9592 O   0  0  0  0  0  0  0  0  0  0  0  0
  2  1  1  6
  2  3  1  0
  4  2  1  0
  5  4  2  0
  7  9  1  0
  7  6  1  1
  7  8  1  0
  8  4  1  0
  9 16  1  0
 10  9  2  0
 12 11  1  1
 13 12  1  0
 14 12  1  0
 15 14  1  6
 16 15  1  0
 17 19  1  0
 17 15  1  0
 18 17  2  0
M  END
$$$$
