AAL.pdb
     RDKit          3D

 19 18  0  0  1  0  0  0  0  0999 V2000
   24.9061  -20.0858   -9.9734 C   0  0  0  0  0  0  0  0  0  0  0  0
   25.3726  -21.2582  -10.8176 C   0  0  2  0  0  0  0  0  0  0  0  0
   26.8067  -21.4018  -10.6621 N   0  0  0  0  0  0  0  0  0  0  0  0
   25.0024  -20.9408  -12.2240 C   0  0  0  0  0  0  0  0  0  0  0  0
   25.8818  -20.4752  -12.9965 O   0  0  0  0  0  0  0  0  0  0  0  0
   21.9951  -21.4397  -14.3874 C   0  0  0  0  0  0  0  0  0  0  0  0
   23.3647  -20.8019  -14.1423 C   0  0  2  0  0  0  0  0  0  0  0  0
   23.7146  -21.1265  -12.7646 N   0  0  0  0  0  0  0  0  0  0  0  0
   23.3021  -19.3426  -14.3587 C   0  0  0  0  0  0  0  0  0  0  0  0
   22.8232  -18.6259  -13.4602 O   0  0  0  0  0  0  0  0  0  0  0  0
   25.4773  -15.1486  -17.1035 C   0  0  0  0  0  0  0  0  0  0  0  0
   25.4462  -15.4664  -15.6057 C   0  0  2  0  0  0  0  0  0  0  0  0
   26.7380  -15.0192  -14.9640 C   0  0  0  0  0  0  0  0  0  0  0  0
   25.2506  -16.9235  -15.3763 C   0  0  0  0  0  0  0  0  0  0  0  0
   23.8570  -17.3518  -15.6984 C   0  0  2  0  0  0  0  0  0  0  0  0
   23.7900  -18.8202  -15.5803 N   0  0  0  0  0  0  0  0  0  0  0  0
   23.4479  -17.0018  -17.0707 C   0  0  0  0  0  0  0  0  0  0  0  0
   22.8513  -15.8976  -17.2917 O   0  0  0  0  0  0  0  0  0  0  0  0
   23.6942  -17.8366  -18.1324 O   0  0  0  0  0  0  0  0  0  0  0  0
  2  1  1  1
  2  3  1  0
  4  2  1  0
  5  4  2  0
  7  9  1  0
  7  6  1  1
  7  8  1  0
  8  4  1  0
  9 16  1  0
 10  9  2  0
 12 11  1  6
 13 12  1  0
 14 12  1  0
 15 14  1  6
 16 15  1  0
 17 19  1  0
 17 15  1  0
 18 17  2  0
M  END
$$$$
