MNR.pdb
     RDKit          3D

 28 27  0  0  1  0  0  0  0  0999 V2000
    7.4968  -11.5160   26.1910 C   0  0  0  0  0  0  0  0  0  0  0  0
    7.2933  -12.5660   27.6230 S   0  0  0  0  0  0  0  0  0  0  0  0
    6.8616  -14.2466   27.2792 C   0  0  0  0  0  0  0  0  0  0  0  0
    7.8082  -15.1396   26.6123 C   0  0  0  0  0  0  0  0  0  0  0  0
    8.0168  -15.1123   25.1458 C   0  0  2  0  0  0  0  0  0  0  0  0
    6.8821  -15.1145   24.3229 N   0  0  0  0  0  0  0  0  0  0  0  0
    8.9714  -16.1863   24.7192 C   0  0  0  0  0  0  0  0  0  0  0  0
   10.0543  -16.3198   25.3410 O   0  0  0  0  0  0  0  0  0  0  0  0
    6.9697  -20.4078   22.9187 N   0  0  0  0  0  0  0  0  0  0  0  0
    8.2258  -19.8655   23.3787 C   0  0  0  0  0  0  0  0  0  0  0  0
    8.4602  -19.9956   24.6129 O   0  0  0  0  0  0  0  0  0  0  0  0
    9.1703  -19.2033   22.4490 C   0  0  0  0  0  0  0  0  0  0  0  0
    9.7432  -17.9453   23.1300 C   0  0  2  0  0  0  0  0  0  0  0  0
    8.7138  -17.0865   23.6256 N   0  0  0  0  0  0  0  0  0  0  0  0
   10.7732  -17.3244   22.3003 C   0  0  0  0  0  0  0  0  0  0  0  0
   11.6102  -18.1126   21.7254 O   0  0  0  0  0  0  0  0  0  0  0  0
    8.5960  -12.0696   18.7604 N   0  0  0  0  0  0  0  0  0  0  0  0
    8.1020  -13.3638   18.3452 C   0  0  0  0  0  0  0  0  0  0  0  0
    6.8957  -13.5721   17.9683 N   0  0  0  0  0  0  0  0  0  0  0  0
    8.9514  -14.4987   18.3327 N   0  0  0  0  0  0  0  0  0  0  0  0
   10.1973  -14.5567   18.9298 C   0  0  0  0  0  0  0  0  0  0  0  0
   10.4397  -13.9262   20.2633 C   0  0  0  0  0  0  0  0  0  0  0  0
   11.8510  -14.0985   20.7447 C   0  0  0  0  0  0  0  0  0  0  0  0
   12.0931  -15.5091   21.1771 C   0  0  2  0  0  0  0  0  0  0  0  0
   10.9714  -15.9588   22.0430 N   0  0  0  0  0  0  0  0  0  0  0  0
   13.3195  -15.7024   21.9688 C   0  0  0  0  0  0  0  0  0  0  0  0
   13.2318  -15.7978   23.3663 O   0  0  0  0  0  0  0  0  0  0  0  0
   14.4750  -15.7892   21.4503 O   0  0  0  0  0  0  0  0  0  0  0  0
  2  1  1  0
  3  2  1  0
  4  3  1  0
  5  4  1  0
  5  6  1  6
  7  5  1  0
  8  7  2  0
  9 10  1  0
 10 12  1  0
 11 10  2  0
 13 12  1  6
 13 14  1  0
 14  7  1  0
 15 13  1  0
 15 16  2  0
 17 18  1  0
 18 19  2  0
 18 20  1  0
 20 21  1  0
 22 23  1  0
 22 21  1  0
 24 23  1  1
 24 25  1  0
 25 15  1  0
 26 24  1  0
 27 26  1  0
 28 26  2  0
M  END
$$$$
