MNR.pdb
     RDKit          3D

 28 27  0  0  1  0  0  0  0  0999 V2000
    8.3239  -11.0529   19.3302 C   0  0  0  0  0  0  0  0  0  0  0  0
    7.1775  -12.3622   18.9229 S   0  0  0  0  0  0  0  0  0  0  0  0
    7.5057  -13.9251   19.6837 C   0  0  0  0  0  0  0  0  0  0  0  0
    8.3305  -14.0111   20.8881 C   0  0  0  0  0  0  0  0  0  0  0  0
    8.5974  -15.2994   21.5691 C   0  0  2  0  0  0  0  0  0  0  0  0
    7.5740  -16.2570   21.5830 N   0  0  0  0  0  0  0  0  0  0  0  0
    9.1197  -15.0755   22.9562 C   0  0  0  0  0  0  0  0  0  0  0  0
    9.9497  -14.1536   23.1522 O   0  0  0  0  0  0  0  0  0  0  0  0
    5.7276  -13.0751   26.8643 N   0  0  0  0  0  0  0  0  0  0  0  0
    7.0427  -13.5396   26.4928 C   0  0  0  0  0  0  0  0  0  0  0  0
    7.9464  -13.3794   27.3605 O   0  0  0  0  0  0  0  0  0  0  0  0
    7.2996  -14.1646   25.1743 C   0  0  0  0  0  0  0  0  0  0  0  0
    8.3914  -15.2400   25.3348 C   0  0  2  0  0  0  0  0  0  0  0  0
    8.7175  -15.8645   24.0912 N   0  0  0  0  0  0  0  0  0  0  0  0
    8.0909  -16.1273   26.4560 C   0  0  0  0  0  0  0  0  0  0  0  0
    6.8502  -16.3653   26.6931 O   0  0  0  0  0  0  0  0  0  0  0  0
   12.0940  -19.6166   21.3642 N   0  0  0  0  0  0  0  0  0  0  0  0
   12.9542  -19.8834   22.4956 C   0  0  0  0  0  0  0  0  0  0  0  0
   14.0891  -20.4691   22.3979 N   0  0  0  0  0  0  0  0  0  0  0  0
   12.5753  -19.4984   23.8063 N   0  0  0  0  0  0  0  0  0  0  0  0
   11.4075  -18.8297   24.1242 C   0  0  0  0  0  0  0  0  0  0  0  0
   11.0407  -18.5595   25.5478 C   0  0  0  0  0  0  0  0  0  0  0  0
    9.5579  -18.5625   25.7812 C   0  0  0  0  0  0  0  0  0  0  0  0
    9.2465  -18.2258   27.2043 C   0  0  2  0  0  0  0  0  0  0  0  0
    8.9933  -16.7655   27.3214 N   0  0  0  0  0  0  0  0  0  0  0  0
   10.3312  -18.5268   28.1536 C   0  0  0  0  0  0  0  0  0  0  0  0
   11.0531  -17.4728   28.7347 O   0  0  0  0  0  0  0  0  0  0  0  0
   10.6580  -19.7083   28.4835 O   0  0  0  0  0  0  0  0  0  0  0  0
  2  1  1  0
  3  2  1  0
  4  3  1  0
  5  4  1  0
  5  6  1  1
  7  5  1  0
  8  7  2  0
  9 10  1  0
 10 12  1  0
 11 10  2  0
 13 12  1  6
 13 14  1  0
 14  7  1  0
 15 13  1  0
 15 16  2  0
 17 18  1  0
 18 19  2  0
 18 20  1  0
 20 21  1  0
 22 23  1  0
 22 21  1  0
 24 23  1  6
 24 25  1  0
 25 15  1  0
 26 24  1  0
 27 26  1  0
 28 26  2  0
M  END
$$$$
