MNR.pdb
     RDKit          3D

 28 27  0  0  1  0  0  0  0  0999 V2000
    8.9214  -11.3277   19.8412 C   0  0  0  0  0  0  0  0  0  0  0  0
    7.6568  -12.2531   18.9817 S   0  0  0  0  0  0  0  0  0  0  0  0
    8.2170  -13.7013   18.1342 C   0  0  0  0  0  0  0  0  0  0  0  0
    9.5847  -13.7861   17.6241 C   0  0  0  0  0  0  0  0  0  0  0  0
   10.1101  -15.0124   16.9799 C   0  0  2  0  0  0  0  0  0  0  0  0
    9.1834  -15.9453   16.4945 N   0  0  0  0  0  0  0  0  0  0  0  0
   11.1197  -15.6894   17.8570 C   0  0  0  0  0  0  0  0  0  0  0  0
   10.8240  -16.7879   18.3890 O   0  0  0  0  0  0  0  0  0  0  0  0
   15.2835  -13.7647   17.1601 N   0  0  0  0  0  0  0  0  0  0  0  0
   15.2888  -14.4800   18.4138 C   0  0  0  0  0  0  0  0  0  0  0  0
   15.7748  -13.8565   19.3989 O   0  0  0  0  0  0  0  0  0  0  0  0
   14.7525  -15.8567   18.5224 C   0  0  0  0  0  0  0  0  0  0  0  0
   13.3063  -15.7900   19.0501 C   0  0  2  0  0  0  0  0  0  0  0  0
   12.4260  -15.1473   18.1256 N   0  0  0  0  0  0  0  0  0  0  0  0
   13.2745  -15.3094   20.4295 C   0  0  0  0  0  0  0  0  0  0  0  0
   12.7973  -14.1318   20.6242 O   0  0  0  0  0  0  0  0  0  0  0  0
    6.2223  -16.5339   23.7577 N   0  0  0  0  0  0  0  0  0  0  0  0
    7.2874  -15.6347   24.1427 C   0  0  0  0  0  0  0  0  0  0  0  0
    7.0988  -14.4047   24.4460 N   0  0  0  0  0  0  0  0  0  0  0  0
    8.6312  -16.0816   24.2071 N   0  0  0  0  0  0  0  0  0  0  0  0
    9.2490  -16.8610   23.2464 C   0  0  0  0  0  0  0  0  0  0  0  0
   10.6737  -17.2857   23.4019 C   0  0  0  0  0  0  0  0  0  0  0  0
   11.5375  -16.8724   22.2460 C   0  0  0  0  0  0  0  0  0  0  0  0
   12.7701  -16.1777   22.7296 C   0  0  2  0  0  0  0  0  0  0  0  0
   13.7017  -15.9754   21.5889 N   0  0  0  0  0  0  0  0  0  0  0  0
   13.5303  -16.9225   23.7472 C   0  0  0  0  0  0  0  0  0  0  0  0
   14.5894  -17.7525   23.3483 O   0  0  0  0  0  0  0  0  0  0  0  0
   13.2782  -16.8562   24.9897 O   0  0  0  0  0  0  0  0  0  0  0  0
  2  1  1  0
  3  2  1  0
  4  3  1  0
  5  4  1  0
  5  6  1  1
  7  5  1  0
  8  7  2  0
  9 10  1  0
 10 12  1  0
 11 10  2  0
 13 12  1  6
 13 14  1  0
 14  7  1  0
 15 13  1  0
 15 16  2  0
 17 18  1  0
 18 19  2  0
 18 20  1  0
 20 21  1  0
 22 23  1  0
 22 21  1  0
 24 23  1  6
 24 25  1  0
 25 15  1  0
 26 24  1  0
 27 26  1  0
 28 26  2  0
M  END
$$$$
