MNR.pdb
     RDKit          3D

 28 27  0  0  1  0  0  0  0  0999 V2000
    7.4282  -11.1523   26.5699 C   0  0  0  0  0  0  0  0  0  0  0  0
    6.0951  -12.3345   26.4292 S   0  0  0  0  0  0  0  0  0  0  0  0
    6.5260  -14.0132   26.7836 C   0  0  0  0  0  0  0  0  0  0  0  0
    7.7192  -14.6186   26.1938 C   0  0  0  0  0  0  0  0  0  0  0  0
    7.7309  -15.1493   24.8106 C   0  0  2  0  0  0  0  0  0  0  0  0
    6.6935  -16.0125   24.4318 N   0  0  0  0  0  0  0  0  0  0  0  0
    9.0607  -15.7568   24.4798 C   0  0  0  0  0  0  0  0  0  0  0  0
   10.1038  -15.0913   24.6944 O   0  0  0  0  0  0  0  0  0  0  0  0
    8.8613  -20.5955   24.2226 N   0  0  0  0  0  0  0  0  0  0  0  0
   10.0318  -19.7516   24.2529 C   0  0  0  0  0  0  0  0  0  0  0  0
   10.6411  -19.6983   25.3579 O   0  0  0  0  0  0  0  0  0  0  0  0
   10.4786  -19.0036   23.0546 C   0  0  0  0  0  0  0  0  0  0  0  0
   10.4617  -17.4956   23.3712 C   0  0  2  0  0  0  0  0  0  0  0  0
    9.2128  -17.0770   23.9260 N   0  0  0  0  0  0  0  0  0  0  0  0
   10.9728  -16.7187   22.2444 C   0  0  0  0  0  0  0  0  0  0  0  0
   10.1804  -15.8454   21.7329 O   0  0  0  0  0  0  0  0  0  0  0  0
    7.5359  -11.9278   18.7978 N   0  0  0  0  0  0  0  0  0  0  0  0
    7.7072  -13.0794   17.9400 C   0  0  0  0  0  0  0  0  0  0  0  0
    6.9859  -13.3036   16.9056 N   0  0  0  0  0  0  0  0  0  0  0  0
    8.7106  -14.0446   18.2070 N   0  0  0  0  0  0  0  0  0  0  0  0
    9.6540  -13.9425   19.2129 C   0  0  0  0  0  0  0  0  0  0  0  0
   10.6884  -15.0041   19.4060 C   0  0  0  0  0  0  0  0  0  0  0  0
   11.6184  -14.7148   20.5481 C   0  0  0  0  0  0  0  0  0  0  0  0
   12.6692  -15.7731   20.6547 C   0  0  2  0  0  0  0  0  0  0  0  0
   12.2361  -16.8007   21.6379 N   0  0  0  0  0  0  0  0  0  0  0  0
   13.9777  -15.2880   21.1245 C   0  0  0  0  0  0  0  0  0  0  0  0
   14.4241  -15.6383   22.4082 O   0  0  0  0  0  0  0  0  0  0  0  0
   14.7409  -14.5565   20.4218 O   0  0  0  0  0  0  0  0  0  0  0  0
  2  1  1  0
  3  2  1  0
  4  3  1  0
  5  4  1  0
  5  6  1  1
  7  5  1  0
  8  7  2  0
  9 10  1  0
 10 12  1  0
 11 10  2  0
 13 12  1  6
 13 14  1  0
 14  7  1  0
 15 13  1  0
 15 16  2  0
 17 18  1  0
 18 19  2  0
 18 20  1  0
 20 21  1  0
 22 23  1  0
 22 21  1  0
 24 23  1  1
 24 25  1  0
 25 15  1  0
 26 24  1  0
 27 26  1  0
 28 26  2  0
M  END
$$$$
