MNR.pdb
     RDKit          3D

 28 27  0  0  1  0  0  0  0  0999 V2000
    7.3000  -10.4522   27.2712 C   0  0  0  0  0  0  0  0  0  0  0  0
    6.1607  -11.6583   27.9360 S   0  0  0  0  0  0  0  0  0  0  0  0
    6.1520  -13.2277   27.1200 C   0  0  0  0  0  0  0  0  0  0  0  0
    7.2375  -13.6056   26.2160 C   0  0  0  0  0  0  0  0  0  0  0  0
    7.0552  -14.6126   25.1447 C   0  0  2  0  0  0  0  0  0  0  0  0
    5.9613  -15.4833   25.2439 N   0  0  0  0  0  0  0  0  0  0  0  0
    8.3179  -15.3870   24.9153 C   0  0  0  0  0  0  0  0  0  0  0  0
    9.4178  -14.7821   24.9524 O   0  0  0  0  0  0  0  0  0  0  0  0
    8.1554  -19.4162   27.0803 N   0  0  0  0  0  0  0  0  0  0  0  0
    9.3485  -18.8901   26.4614 C   0  0  0  0  0  0  0  0  0  0  0  0
   10.2060  -18.4023   27.2500 O   0  0  0  0  0  0  0  0  0  0  0  0
    9.5410  -18.9293   24.9930 C   0  0  0  0  0  0  0  0  0  0  0  0
    9.5822  -17.4859   24.4552 C   0  0  2  0  0  0  0  0  0  0  0  0
    8.3427  -16.8026   24.6543 N   0  0  0  0  0  0  0  0  0  0  0  0
   10.1448  -17.4457   23.1074 C   0  0  0  0  0  0  0  0  0  0  0  0
    9.3869  -17.8440   22.1486 O   0  0  0  0  0  0  0  0  0  0  0  0
    7.6077  -13.2764   19.5732 N   0  0  0  0  0  0  0  0  0  0  0  0
    8.2557  -13.7055   18.3536 C   0  0  0  0  0  0  0  0  0  0  0  0
    7.7660  -13.5096   17.1865 N   0  0  0  0  0  0  0  0  0  0  0  0
    9.5008  -14.3824   18.3889 N   0  0  0  0  0  0  0  0  0  0  0  0
   10.2466  -14.6008   19.5327 C   0  0  0  0  0  0  0  0  0  0  0  0
   11.5252  -15.3732   19.4798 C   0  0  0  0  0  0  0  0  0  0  0  0
   12.1092  -15.6329   20.8379 C   0  0  0  0  0  0  0  0  0  0  0  0
   11.8152  -17.0304   21.2808 C   0  0  2  0  0  0  0  0  0  0  0  0
   11.4240  -17.0211   22.7151 N   0  0  0  0  0  0  0  0  0  0  0  0
   12.9562  -17.9556   21.1775 C   0  0  0  0  0  0  0  0  0  0  0  0
   13.4419  -18.5853   22.3339 O   0  0  0  0  0  0  0  0  0  0  0  0
   13.5379  -18.2219   20.0811 O   0  0  0  0  0  0  0  0  0  0  0  0
  2  1  1  0
  3  2  1  0
  4  3  1  0
  5  4  1  0
  5  6  1  1
  7  5  1  0
  8  7  2  0
  9 10  1  0
 10 12  1  0
 11 10  2  0
 13 12  1  6
 13 14  1  0
 14  7  1  0
 15 13  1  0
 15 16  2  0
 17 18  1  0
 18 19  2  0
 18 20  1  0
 20 21  1  0
 22 23  1  0
 22 21  1  0
 24 23  1  1
 24 25  1  0
 25 15  1  0
 26 24  1  0
 27 26  1  0
 28 26  2  0
M  END
$$$$
