MNR.pdb
     RDKit          3D

 28 27  0  0  1  0  0  0  0  0999 V2000
    5.6473  -11.0479   25.9845 C   0  0  0  0  0  0  0  0  0  0  0  0
    7.2336  -11.6444   26.5524 S   0  0  0  0  0  0  0  0  0  0  0  0
    7.3938  -13.4032   26.6526 C   0  0  0  0  0  0  0  0  0  0  0  0
    6.8548  -14.2635   25.6002 C   0  0  0  0  0  0  0  0  0  0  0  0
    7.6323  -15.3863   25.0260 C   0  0  2  0  0  0  0  0  0  0  0  0
    8.9820  -15.4999   25.3864 N   0  0  0  0  0  0  0  0  0  0  0  0
    7.4858  -15.4338   23.5350 C   0  0  0  0  0  0  0  0  0  0  0  0
    6.3331  -15.4681   23.0377 O   0  0  0  0  0  0  0  0  0  0  0  0
    7.0575  -12.9253   19.6181 N   0  0  0  0  0  0  0  0  0  0  0  0
    8.1042  -13.1513   20.5859 C   0  0  0  0  0  0  0  0  0  0  0  0
    8.1806  -12.3038   21.5192 O   0  0  0  0  0  0  0  0  0  0  0  0
    9.0213  -14.3099   20.4786 C   0  0  0  0  0  0  0  0  0  0  0  0
    8.3985  -15.5109   21.2163 C   0  0  2  0  0  0  0  0  0  0  0  0
    8.6045  -15.4395   22.6288 N   0  0  0  0  0  0  0  0  0  0  0  0
    8.7556  -16.7682   20.5635 C   0  0  0  0  0  0  0  0  0  0  0  0
    8.5343  -16.8509   19.2999 O   0  0  0  0  0  0  0  0  0  0  0  0
   14.5959  -13.4938   18.9808 N   0  0  0  0  0  0  0  0  0  0  0  0
   15.0128  -14.7288   18.3545 C   0  0  0  0  0  0  0  0  0  0  0  0
   15.8002  -14.7788   17.3455 N   0  0  0  0  0  0  0  0  0  0  0  0
   14.5598  -15.9814   18.8397 N   0  0  0  0  0  0  0  0  0  0  0  0
   13.6657  -16.1459   19.8816 C   0  0  0  0  0  0  0  0  0  0  0  0
   12.3825  -16.8863   19.6826 C   0  0  0  0  0  0  0  0  0  0  0  0
   11.5019  -16.8694   20.8980 C   0  0  0  0  0  0  0  0  0  0  0  0
   10.7804  -18.1706   21.0457 C   0  0  2  0  0  0  0  0  0  0  0  0
    9.3190  -17.9157   21.1433 N   0  0  0  0  0  0  0  0  0  0  0  0
   11.1406  -18.9341   22.2522 C   0  0  0  0  0  0  0  0  0  0  0  0
   12.1065  -19.9486   22.1651 O   0  0  0  0  0  0  0  0  0  0  0  0
   10.6175  -18.7238   23.3896 O   0  0  0  0  0  0  0  0  0  0  0  0
  2  1  1  0
  3  2  1  0
  4  3  1  0
  5  4  1  0
  5  6  1  6
  7  5  1  0
  8  7  2  0
  9 10  1  0
 10 12  1  0
 11 10  2  0
 13 12  1  6
 13 14  1  0
 14  7  1  0
 15 13  1  0
 15 16  2  0
 17 18  1  0
 18 19  2  0
 18 20  1  0
 20 21  1  0
 22 23  1  0
 22 21  1  0
 24 23  1  1
 24 25  1  0
 25 15  1  0
 26 24  1  0
 27 26  1  0
 28 26  2  0
M  END
$$$$
