MNR.pdb
     RDKit          3D

 28 27  0  0  1  0  0  0  0  0999 V2000
    6.9604  -11.9724   18.4388 C   0  0  0  0  0  0  0  0  0  0  0  0
    7.7985  -13.2200   19.4060 S   0  0  0  0  0  0  0  0  0  0  0  0
    6.8366  -14.6515   19.7994 C   0  0  0  0  0  0  0  0  0  0  0  0
    7.4035  -15.7355   20.6004 C   0  0  0  0  0  0  0  0  0  0  0  0
    8.8527  -15.8207   20.8964 C   0  0  2  0  0  0  0  0  0  0  0  0
    9.7376  -15.9148   19.8135 N   0  0  0  0  0  0  0  0  0  0  0  0
    9.1342  -16.9032   21.8943 C   0  0  0  0  0  0  0  0  0  0  0  0
    8.3526  -17.0532   22.8658 O   0  0  0  0  0  0  0  0  0  0  0  0
   10.1084  -20.6777   20.9094 N   0  0  0  0  0  0  0  0  0  0  0  0
   11.4441  -20.5667   21.4450 C   0  0  0  0  0  0  0  0  0  0  0  0
   12.3055  -21.3364   20.9343 O   0  0  0  0  0  0  0  0  0  0  0  0
   11.7686  -19.6044   22.5237 C   0  0  0  0  0  0  0  0  0  0  0  0
   10.5203  -18.7535   22.8272 C   0  0  2  0  0  0  0  0  0  0  0  0
   10.2615  -17.7937   21.8003 N   0  0  0  0  0  0  0  0  0  0  0  0
   10.5484  -18.2546   24.2001 C   0  0  0  0  0  0  0  0  0  0  0  0
   11.3439  -17.2755   24.4469 O   0  0  0  0  0  0  0  0  0  0  0  0
    5.8430  -12.5030   27.9370 N   0  0  0  0  0  0  0  0  0  0  0  0
    6.8574  -12.4737   26.9067 C   0  0  0  0  0  0  0  0  0  0  0  0
    6.8611  -11.6308   25.9424 N   0  0  0  0  0  0  0  0  0  0  0  0
    7.9296  -13.4012   26.9127 N   0  0  0  0  0  0  0  0  0  0  0  0
    7.7887  -14.7688   26.7651 C   0  0  0  0  0  0  0  0  0  0  0  0
    8.9762  -15.6744   26.8301 C   0  0  0  0  0  0  0  0  0  0  0  0
    8.6130  -17.1259   26.7106 C   0  0  0  0  0  0  0  0  0  0  0  0
    9.8416  -17.9697   26.5914 C   0  0  2  0  0  0  0  0  0  0  0  0
    9.8083  -18.7099   25.3025 N   0  0  0  0  0  0  0  0  0  0  0  0
    9.9841  -18.9912   27.6423 C   0  0  0  0  0  0  0  0  0  0  0  0
   10.3079  -18.5970   28.9498 O   0  0  0  0  0  0  0  0  0  0  0  0
    9.8281  -20.2331   27.4301 O   0  0  0  0  0  0  0  0  0  0  0  0
  2  1  1  0
  3  2  1  0
  4  3  1  0
  5  4  1  0
  5  6  1  6
  7  5  1  0
  8  7  2  0
  9 10  1  0
 10 12  1  0
 11 10  2  0
 13 12  1  6
 13 14  1  0
 14  7  1  0
 15 13  1  0
 15 16  2  0
 17 18  1  0
 18 19  2  0
 18 20  1  0
 20 21  1  0
 22 23  1  0
 22 21  1  0
 24 23  1  1
 24 25  1  0
 25 15  1  0
 26 24  1  0
 27 26  1  0
 28 26  2  0
M  END
$$$$
