MNR.pdb
     RDKit          3D

 28 27  0  0  1  0  0  0  0  0999 V2000
    7.9378  -12.1723   19.0732 C   0  0  0  0  0  0  0  0  0  0  0  0
    8.8010  -12.8539   20.4820 S   0  0  0  0  0  0  0  0  0  0  0  0
    9.6149  -14.3992   20.2012 C   0  0  0  0  0  0  0  0  0  0  0  0
    8.9068  -15.5128   19.5714 C   0  0  0  0  0  0  0  0  0  0  0  0
    9.5176  -16.8551   19.4304 C   0  0  2  0  0  0  0  0  0  0  0  0
    9.9842  -17.4874   20.5910 N   0  0  0  0  0  0  0  0  0  0  0  0
   10.5823  -16.8524   18.3752 C   0  0  0  0  0  0  0  0  0  0  0  0
   10.3000  -16.4283   17.2274 O   0  0  0  0  0  0  0  0  0  0  0  0
   14.6117  -13.4565   18.1849 N   0  0  0  0  0  0  0  0  0  0  0  0
   13.5826  -14.3376   17.6870 C   0  0  0  0  0  0  0  0  0  0  0  0
   13.6089  -14.5648   16.4448 O   0  0  0  0  0  0  0  0  0  0  0  0
   12.5685  -14.9317   18.5889 C   0  0  0  0  0  0  0  0  0  0  0  0
   12.9723  -16.3841   18.9080 C   0  0  2  0  0  0  0  0  0  0  0  0
   11.9273  -17.3112   18.6057 N   0  0  0  0  0  0  0  0  0  0  0  0
   13.5713  -16.4806   20.2370 C   0  0  0  0  0  0  0  0  0  0  0  0
   14.3388  -15.5156   20.6006 O   0  0  0  0  0  0  0  0  0  0  0  0
    6.4985  -15.5054   23.6144 N   0  0  0  0  0  0  0  0  0  0  0  0
    7.2873  -15.5154   24.8264 C   0  0  0  0  0  0  0  0  0  0  0  0
    6.8365  -15.1427   25.9659 N   0  0  0  0  0  0  0  0  0  0  0  0
    8.6362  -15.9513   24.8149 N   0  0  0  0  0  0  0  0  0  0  0  0
    9.3574  -16.2511   23.6738 C   0  0  0  0  0  0  0  0  0  0  0  0
   10.8195  -16.5530   23.7469 C   0  0  0  0  0  0  0  0  0  0  0  0
   11.4452  -16.7491   22.3966 C   0  0  0  0  0  0  0  0  0  0  0  0
   12.8622  -17.2066   22.5325 C   0  0  2  0  0  0  0  0  0  0  0  0
   13.4156  -17.5040   21.1851 N   0  0  0  0  0  0  0  0  0  0  0  0
   13.0324  -18.4379   23.3219 C   0  0  0  0  0  0  0  0  0  0  0  0
   13.3386  -18.3457   24.6885 O   0  0  0  0  0  0  0  0  0  0  0  0
   12.9162  -19.6016   22.8282 O   0  0  0  0  0  0  0  0  0  0  0  0
  2  1  1  0
  3  2  1  0
  4  3  1  0
  5  4  1  0
  5  6  1  1
  7  5  1  0
  8  7  2  0
  9 10  1  0
 10 12  1  0
 11 10  2  0
 13 12  1  1
 13 14  1  0
 14  7  1  0
 15 13  1  0
 15 16  2  0
 17 18  1  0
 18 19  2  0
 18 20  1  0
 20 21  1  0
 22 23  1  0
 22 21  1  0
 24 23  1  6
 24 25  1  0
 25 15  1  0
 26 24  1  0
 27 26  1  0
 28 26  2  0
M  END
$$$$
