CGV.pdb
     RDKit          3D

 18 17  0  0  1  0  0  0  0  0999 V2000
    6.7900  -15.1922   19.8829 N   0  0  0  0  0  0  0  0  0  0  0  0
    7.8764  -14.6259   20.7031 C   0  0  1  0  0  0  0  0  0  0  0  0
    7.5610  -13.1226   20.7207 C   0  0  0  0  0  0  0  0  0  0  0  0
    8.1051  -12.3263   19.2144 S   0  0  0  0  0  0  0  0  0  0  0  0
    7.7369  -15.1910   22.0605 C   0  0  0  0  0  0  0  0  0  0  0  0
    6.5945  -15.3268   22.5638 O   0  0  0  0  0  0  0  0  0  0  0  0
    8.8486  -15.6043   22.8573 N   0  0  0  0  0  0  0  0  0  0  0  0
    8.6149  -16.3824   24.0271 C   0  0  0  0  0  0  0  0  0  0  0  0
    9.5458  -16.1857   25.1253 C   0  0  0  0  0  0  0  0  0  0  0  0
   10.6423  -16.8424   25.0649 O   0  0  0  0  0  0  0  0  0  0  0  0
    9.3966  -14.5945   29.4335 C   0  0  0  0  0  0  0  0  0  0  0  0
   10.0614  -14.0540   28.2050 C   0  0  2  0  0  0  0  0  0  0  0  0
    9.1571  -13.0204   27.5935 C   0  0  0  0  0  0  0  0  0  0  0  0
   10.3806  -15.1895   27.2685 C   0  0  2  0  0  0  0  0  0  0  0  0
    9.3765  -15.3590   26.2401 N   0  0  0  0  0  0  0  0  0  0  0  0
   10.6502  -16.4570   27.9924 C   0  0  0  0  0  0  0  0  0  0  0  0
   11.6641  -16.6156   28.7258 O   0  0  0  0  0  0  0  0  0  0  0  0
    9.7918  -17.5437   27.8985 O   0  0  0  0  0  0  0  0  0  0  0  0
  2  1  1  6
  2  3  1  0
  3  4  1  0
  5  6  2  0
  5  2  1  0
  7  5  1  0
  8  9  1  0
  8  7  1  0
  9 15  1  0
 10  9  2  0
 12 11  1  1
 13 12  1  0
 14 12  1  0
 14 16  1  0
 14 15  1  6
 16 17  2  0
 16 18  1  0
M  END
$$$$
