CGV.pdb
     RDKit          3D

 18 17  0  0  1  0  0  0  0  0999 V2000
    8.2074  -18.8365   19.5176 N   0  0  0  0  0  0  0  0  0  0  0  0
    8.7557  -17.4840   19.7261 C   0  0  1  0  0  0  0  0  0  0  0  0
    8.7189  -16.8656   18.3204 C   0  0  0  0  0  0  0  0  0  0  0  0
   10.1581  -17.3328   17.3665 S   0  0  0  0  0  0  0  0  0  0  0  0
    7.8230  -16.7693   20.6209 C   0  0  0  0  0  0  0  0  0  0  0  0
    6.6375  -17.1684   20.7313 O   0  0  0  0  0  0  0  0  0  0  0  0
    8.1943  -15.6233   21.3892 N   0  0  0  0  0  0  0  0  0  0  0  0
    7.2806  -15.1045   22.3506 C   0  0  0  0  0  0  0  0  0  0  0  0
    7.8605  -14.6231   23.5928 C   0  0  0  0  0  0  0  0  0  0  0  0
    9.1030  -14.8701   23.7728 O   0  0  0  0  0  0  0  0  0  0  0  0
    5.8245  -12.6121   26.8430 C   0  0  0  0  0  0  0  0  0  0  0  0
    7.1954  -12.2196   26.3850 C   0  0  2  0  0  0  0  0  0  0  0  0
    7.0620  -11.0758   25.4186 C   0  0  0  0  0  0  0  0  0  0  0  0
    7.8866  -13.4186   25.7908 C   0  0  2  0  0  0  0  0  0  0  0  0
    7.2119  -13.9202   24.6128 N   0  0  0  0  0  0  0  0  0  0  0  0
    8.1180  -14.4886   26.7932 C   0  0  0  0  0  0  0  0  0  0  0  0
    7.4891  -15.5819   26.7744 O   0  0  0  0  0  0  0  0  0  0  0  0
    9.0477  -14.3395   27.8131 O   0  0  0  0  0  0  0  0  0  0  0  0
  2  1  1  6
  2  3  1  0
  3  4  1  0
  5  6  2  0
  5  2  1  0
  7  5  1  0
  8  9  1  0
  8  7  1  0
  9 15  1  0
 10  9  2  0
 12 11  1  6
 13 12  1  0
 14 12  1  0
 14 16  1  0
 14 15  1  6
 16 17  2  0
 16 18  1  0
M  END
$$$$
