CGV.pdb
     RDKit          3D

 18 17  0  0  1  0  0  0  0  0999 V2000
    6.8602  -19.9895   20.6533 N   0  0  0  0  0  0  0  0  0  0  0  0
    7.0611  -18.5322   20.7498 C   0  0  1  0  0  0  0  0  0  0  0  0
    5.9912  -17.9632   19.8056 C   0  0  0  0  0  0  0  0  0  0  0  0
    6.3870  -18.3026   18.0946 S   0  0  0  0  0  0  0  0  0  0  0  0
    6.7677  -18.1437   22.1441 C   0  0  0  0  0  0  0  0  0  0  0  0
    5.9528  -18.8189   22.8201 O   0  0  0  0  0  0  0  0  0  0  0  0
    7.3687  -17.0194   22.7893 N   0  0  0  0  0  0  0  0  0  0  0  0
    7.2711  -16.8954   24.2047 C   0  0  0  0  0  0  0  0  0  0  0  0
    7.9214  -15.7373   24.7940 C   0  0  0  0  0  0  0  0  0  0  0  0
    9.1992  -15.7712   24.8510 O   0  0  0  0  0  0  0  0  0  0  0  0
    6.0965  -12.7705   27.2970 C   0  0  0  0  0  0  0  0  0  0  0  0
    7.1470  -12.3562   26.3130 C   0  0  2  0  0  0  0  0  0  0  0  0
    6.4626  -11.7817   25.1040 C   0  0  0  0  0  0  0  0  0  0  0  0
    8.0241  -13.5374   25.9909 C   0  0  2  0  0  0  0  0  0  0  0  0
    7.3062  -14.5906   25.3054 N   0  0  0  0  0  0  0  0  0  0  0  0
    8.7442  -14.0457   27.1852 C   0  0  0  0  0  0  0  0  0  0  0  0
    9.6219  -13.3678   27.7862 O   0  0  0  0  0  0  0  0  0  0  0  0
    8.4861  -15.3057   27.7071 O   0  0  0  0  0  0  0  0  0  0  0  0
  2  1  1  1
  2  3  1  0
  3  4  1  0
  5  6  2  0
  5  2  1  0
  7  5  1  0
  8  9  1  0
  8  7  1  0
  9 15  1  0
 10  9  2  0
 12 11  1  1
 13 12  1  0
 14 12  1  0
 14 16  1  0
 14 15  1  1
 16 17  2  0
 16 18  1  0
M  END
$$$$
