CGV.pdb
     RDKit          3D

 18 17  0  0  1  0  0  0  0  0999 V2000
    8.6649  -15.6272   19.1438 N   0  0  0  0  0  0  0  0  0  0  0  0
    8.0822  -14.9100   20.2925 C   0  0  1  0  0  0  0  0  0  0  0  0
    7.0793  -13.9477   19.6384 C   0  0  0  0  0  0  0  0  0  0  0  0
    7.9159  -12.6779   18.6965 S   0  0  0  0  0  0  0  0  0  0  0  0
    7.3679  -15.9091   21.1127 C   0  0  0  0  0  0  0  0  0  0  0  0
    7.4753  -17.1301   20.8397 O   0  0  0  0  0  0  0  0  0  0  0  0
    6.5416  -15.5652   22.2265 N   0  0  0  0  0  0  0  0  0  0  0  0
    6.8017  -16.1582   23.4950 C   0  0  0  0  0  0  0  0  0  0  0  0
    7.5933  -15.3681   24.4226 C   0  0  0  0  0  0  0  0  0  0  0  0
    8.8600  -15.5442   24.3813 O   0  0  0  0  0  0  0  0  0  0  0  0
    6.5132  -12.7701   27.9622 C   0  0  0  0  0  0  0  0  0  0  0  0
    7.3323  -12.4301   26.7552 C   0  0  2  0  0  0  0  0  0  0  0  0
    6.4361  -11.7670   25.7467 C   0  0  0  0  0  0  0  0  0  0  0  0
    7.9918  -13.6784   26.2305 C   0  0  2  0  0  0  0  0  0  0  0  0
    7.1248  -14.4373   25.3549 N   0  0  0  0  0  0  0  0  0  0  0  0
    8.5517  -14.5186   27.3184 C   0  0  0  0  0  0  0  0  0  0  0  0
    8.0681  -15.6432   27.6228 O   0  0  0  0  0  0  0  0  0  0  0  0
    9.6471  -14.1059   28.0642 O   0  0  0  0  0  0  0  0  0  0  0  0
  2  1  1  6
  2  3  1  0
  3  4  1  0
  5  6  2  0
  5  2  1  0
  7  5  1  0
  8  9  1  0
  8  7  1  0
  9 15  1  0
 10  9  2  0
 12 11  1  1
 13 12  1  0
 14 12  1  0
 14 16  1  0
 14 15  1  1
 16 17  2  0
 16 18  1  0
M  END
$$$$
