CGV.pdb
     RDKit          3D

 18 17  0  0  1  0  0  0  0  0999 V2000
    7.9888  -15.8917   18.2475 N   0  0  0  0  0  0  0  0  0  0  0  0
    8.2560  -14.7403   19.1286 C   0  0  1  0  0  0  0  0  0  0  0  0
    7.6041  -13.5652   18.3845 C   0  0  0  0  0  0  0  0  0  0  0  0
    8.5162  -12.0478   18.6390 S   0  0  0  0  0  0  0  0  0  0  0  0
    7.5489  -14.9922   20.4006 C   0  0  0  0  0  0  0  0  0  0  0  0
    6.2934  -15.0021   20.4234 O   0  0  0  0  0  0  0  0  0  0  0  0
    8.2207  -15.2324   21.6386 N   0  0  0  0  0  0  0  0  0  0  0  0
    7.4603  -15.3006   22.8408 C   0  0  0  0  0  0  0  0  0  0  0  0
    8.0293  -14.6326   23.9989 C   0  0  0  0  0  0  0  0  0  0  0  0
    9.3050  -14.5387   24.0306 O   0  0  0  0  0  0  0  0  0  0  0  0
    5.8824  -12.7893   27.2493 C   0  0  0  0  0  0  0  0  0  0  0  0
    7.2673  -12.3798   26.8521 C   0  0  2  0  0  0  0  0  0  0  0  0
    7.1632  -11.2209   25.9001 C   0  0  0  0  0  0  0  0  0  0  0  0
    7.9901  -13.5639   26.2659 C   0  0  2  0  0  0  0  0  0  0  0  0
    7.3379  -14.0812   25.0820 N   0  0  0  0  0  0  0  0  0  0  0  0
    8.2354  -14.6276   27.2716 C   0  0  0  0  0  0  0  0  0  0  0  0
    7.5833  -15.7073   27.2883 O   0  0  0  0  0  0  0  0  0  0  0  0
    9.2045  -14.4875   28.2553 O   0  0  0  0  0  0  0  0  0  0  0  0
  2  1  1  6
  2  3  1  0
  3  4  1  0
  5  6  2  0
  5  2  1  0
  7  5  1  0
  8  9  1  0
  8  7  1  0
  9 15  1  0
 10  9  2  0
 12 11  1  6
 13 12  1  0
 14 12  1  0
 14 16  1  0
 14 15  1  6
 16 17  2  0
 16 18  1  0
M  END
$$$$
