CGV.pdb
     RDKit          3D

 18 17  0  0  1  0  0  0  0  0999 V2000
    6.6312  -14.7568   19.0355 N   0  0  0  0  0  0  0  0  0  0  0  0
    8.0343  -14.6625   19.4780 C   0  0  1  0  0  0  0  0  0  0  0  0
    8.3104  -13.1515   19.4628 C   0  0  0  0  0  0  0  0  0  0  0  0
    8.3732  -12.5186   17.7910 S   0  0  0  0  0  0  0  0  0  0  0  0
    8.0898  -15.1760   20.8617 C   0  0  0  0  0  0  0  0  0  0  0  0
    9.2001  -15.4517   21.3793 O   0  0  0  0  0  0  0  0  0  0  0  0
    6.9297  -15.3834   21.6697 N   0  0  0  0  0  0  0  0  0  0  0  0
    7.0823  -15.9121   22.9832 C   0  0  0  0  0  0  0  0  0  0  0  0
    7.7463  -15.0523   23.9481 C   0  0  0  0  0  0  0  0  0  0  0  0
    8.8410  -14.5103   23.5670 O   0  0  0  0  0  0  0  0  0  0  0  0
    6.0672  -13.0857   27.2725 C   0  0  0  0  0  0  0  0  0  0  0  0
    7.3394  -12.6933   26.5864 C   0  0  2  0  0  0  0  0  0  0  0  0
    6.9966  -11.7905   25.4342 C   0  0  0  0  0  0  0  0  0  0  0  0
    8.0835  -13.9332   26.1654 C   0  0  2  0  0  0  0  0  0  0  0  0
    7.3222  -14.7515   25.2460 N   0  0  0  0  0  0  0  0  0  0  0  0
    8.5740  -14.7165   27.3269 C   0  0  0  0  0  0  0  0  0  0  0  0
    9.3294  -14.2213   28.2074 O   0  0  0  0  0  0  0  0  0  0  0  0
    8.2231  -16.0475   27.5056 O   0  0  0  0  0  0  0  0  0  0  0  0
  2  1  1  1
  2  3  1  0
  3  4  1  0
  5  6  2  0
  5  2  1  0
  7  5  1  0
  8  9  1  0
  8  7  1  0
  9 15  1  0
 10  9  2  0
 12 11  1  6
 13 12  1  0
 14 12  1  0
 14 16  1  0
 14 15  1  1
 16 17  2  0
 16 18  1  0
M  END
$$$$
