CGV.pdb
     RDKit          3D

 18 17  0  0  1  0  0  0  0  0999 V2000
    8.9110  -12.5312   19.2948 N   0  0  0  0  0  0  0  0  0  0  0  0
    8.6629  -13.9063   18.8246 C   0  0  1  0  0  0  0  0  0  0  0  0
   10.0589  -14.3979   18.4132 C   0  0  0  0  0  0  0  0  0  0  0  0
   11.3232  -13.2144   18.8607 S   0  0  0  0  0  0  0  0  0  0  0  0
    8.1718  -14.6803   19.9826 C   0  0  0  0  0  0  0  0  0  0  0  0
    7.5034  -15.7264   19.7938 O   0  0  0  0  0  0  0  0  0  0  0  0
    8.4161  -14.3044   21.3393 N   0  0  0  0  0  0  0  0  0  0  0  0
    8.0400  -15.1938   22.3861 C   0  0  0  0  0  0  0  0  0  0  0  0
    8.2551  -14.7171   23.7417 C   0  0  0  0  0  0  0  0  0  0  0  0
    9.4437  -14.8301   24.2017 O   0  0  0  0  0  0  0  0  0  0  0  0
    6.0016  -11.8340   25.4819 C   0  0  0  0  0  0  0  0  0  0  0  0
    6.5011  -12.8152   26.4974 C   0  0  2  0  0  0  0  0  0  0  0  0
    6.8991  -12.0564   27.7326 C   0  0  0  0  0  0  0  0  0  0  0  0
    7.6309  -13.6161   25.9053 C   0  0  2  0  0  0  0  0  0  0  0  0
    7.3078  -14.1488   24.5990 N   0  0  0  0  0  0  0  0  0  0  0  0
    8.1161  -14.6722   26.8286 C   0  0  0  0  0  0  0  0  0  0  0  0
    8.7857  -14.4103   27.8651 O   0  0  0  0  0  0  0  0  0  0  0  0
    7.8552  -16.0156   26.5966 O   0  0  0  0  0  0  0  0  0  0  0  0
  2  1  1  1
  2  3  1  0
  3  4  1  0
  5  6  2  0
  5  2  1  0
  7  5  1  0
  8  9  1  0
  8  7  1  0
  9 15  1  0
 10  9  2  0
 12 11  1  6
 13 12  1  0
 14 12  1  0
 14 16  1  0
 14 15  1  6
 16 17  2  0
 16 18  1  0
M  END
$$$$
