CGV.pdb
     RDKit          3D

 18 17  0  0  1  0  0  0  0  0999 V2000
    8.9227  -15.5178   18.2953 N   0  0  0  0  0  0  0  0  0  0  0  0
    8.4786  -14.5381   19.3035 C   0  0  1  0  0  0  0  0  0  0  0  0
    7.3388  -13.7912   18.5945 C   0  0  0  0  0  0  0  0  0  0  0  0
    7.9666  -12.7094   17.3159 S   0  0  0  0  0  0  0  0  0  0  0  0
    7.9493  -15.3034   20.4505 C   0  0  0  0  0  0  0  0  0  0  0  0
    8.1608  -16.5390   20.5252 O   0  0  0  0  0  0  0  0  0  0  0  0
    7.1928  -14.7111   21.5081 N   0  0  0  0  0  0  0  0  0  0  0  0
    7.0836  -15.3948   22.7526 C   0  0  0  0  0  0  0  0  0  0  0  0
    7.7509  -14.7763   23.8855 C   0  0  0  0  0  0  0  0  0  0  0  0
    9.0228  -14.6635   23.8031 O   0  0  0  0  0  0  0  0  0  0  0  0
    5.9173  -12.9212   27.3405 C   0  0  0  0  0  0  0  0  0  0  0  0
    7.2303  -12.5122   26.7472 C   0  0  2  0  0  0  0  0  0  0  0  0
    6.9768  -11.4224   25.7432 C   0  0  0  0  0  0  0  0  0  0  0  0
    7.9078  -13.7187   26.1525 C   0  0  2  0  0  0  0  0  0  0  0  0
    7.1579  -14.2910   25.0550 N   0  0  0  0  0  0  0  0  0  0  0  0
    8.2489  -14.7353   27.1788 C   0  0  0  0  0  0  0  0  0  0  0  0
    7.7654  -15.9003   27.1652 O   0  0  0  0  0  0  0  0  0  0  0  0
    9.1263  -14.4534   28.2168 O   0  0  0  0  0  0  0  0  0  0  0  0
  2  1  1  6
  2  3  1  0
  3  4  1  0
  5  6  2  0
  5  2  1  0
  7  5  1  0
  8  9  1  0
  8  7  1  0
  9 15  1  0
 10  9  2  0
 12 11  1  6
 13 12  1  0
 14 12  1  0
 14 16  1  0
 14 15  1  6
 16 17  2  0
 16 18  1  0
M  END
$$$$
