CGV.pdb
     RDKit          3D

 18 17  0  0  1  0  0  0  0  0999 V2000
    8.2293  -12.4189   19.5546 N   0  0  0  0  0  0  0  0  0  0  0  0
    7.7218  -13.7653   19.8757 C   0  0  1  0  0  0  0  0  0  0  0  0
    7.9317  -14.5447   18.5688 C   0  0  0  0  0  0  0  0  0  0  0  0
    6.8765  -13.9240   17.2648 S   0  0  0  0  0  0  0  0  0  0  0  0
    8.5867  -14.3140   20.9399 C   0  0  0  0  0  0  0  0  0  0  0  0
    9.7879  -13.9553   21.0124 O   0  0  0  0  0  0  0  0  0  0  0  0
    8.1306  -15.2508   21.9176 N   0  0  0  0  0  0  0  0  0  0  0  0
    9.0528  -15.7608   22.8756 C   0  0  0  0  0  0  0  0  0  0  0  0
    9.0796  -15.0871   24.1627 C   0  0  0  0  0  0  0  0  0  0  0  0
   10.0633  -15.3689   24.9309 O   0  0  0  0  0  0  0  0  0  0  0  0
    5.8199  -13.1872   26.3441 C   0  0  0  0  0  0  0  0  0  0  0  0
    7.1664  -12.5439   26.2154 C   0  0  2  0  0  0  0  0  0  0  0  0
    7.1033  -11.5323   25.1051 C   0  0  0  0  0  0  0  0  0  0  0  0
    8.2089  -13.6070   25.9886 C   0  0  2  0  0  0  0  0  0  0  0  0
    8.1503  -14.1655   24.6548 N   0  0  0  0  0  0  0  0  0  0  0  0
    8.1727  -14.6621   27.0320 C   0  0  0  0  0  0  0  0  0  0  0  0
    7.5978  -15.7708   26.8544 O   0  0  0  0  0  0  0  0  0  0  0  0
    8.7755  -14.4811   28.2691 O   0  0  0  0  0  0  0  0  0  0  0  0
  2  1  1  6
  2  3  1  0
  3  4  1  0
  5  6  2  0
  5  2  1  0
  7  5  1  0
  8  9  1  0
  8  7  1  0
  9 15  1  0
 10  9  2  0
 12 11  1  6
 13 12  1  0
 14 12  1  0
 14 16  1  0
 14 15  1  6
 16 17  2  0
 16 18  1  0
M  END
$$$$
