CGV.pdb
     RDKit          3D

 18 17  0  0  1  0  0  0  0  0999 V2000
    5.6702  -20.8243   21.9903 N   0  0  0  0  0  0  0  0  0  0  0  0
    6.8116  -19.9546   22.3287 C   0  0  1  0  0  0  0  0  0  0  0  0
    7.3321  -19.5022   20.9560 C   0  0  0  0  0  0  0  0  0  0  0  0
    8.5812  -18.2326   21.1204 S   0  0  0  0  0  0  0  0  0  0  0  0
    6.2724  -18.7994   23.0744 C   0  0  0  0  0  0  0  0  0  0  0  0
    5.2243  -18.2348   22.6748 O   0  0  0  0  0  0  0  0  0  0  0  0
    6.8837  -18.2704   24.2526 N   0  0  0  0  0  0  0  0  0  0  0  0
    6.3261  -17.1121   24.8655 C   0  0  0  0  0  0  0  0  0  0  0  0
    7.2456  -16.0175   25.1249 C   0  0  0  0  0  0  0  0  0  0  0  0
    8.4508  -16.1818   24.7276 O   0  0  0  0  0  0  0  0  0  0  0  0
    6.3470  -12.4691   27.3137 C   0  0  0  0  0  0  0  0  0  0  0  0
    7.3269  -12.4134   26.1823 C   0  0  2  0  0  0  0  0  0  0  0  0
    6.6095  -11.9139   24.9592 C   0  0  0  0  0  0  0  0  0  0  0  0
    7.9473  -13.7723   25.9906 C   0  0  2  0  0  0  0  0  0  0  0  0
    6.9600  -14.8051   25.7602 N   0  0  0  0  0  0  0  0  0  0  0  0
    8.8732  -14.1288   27.0947 C   0  0  0  0  0  0  0  0  0  0  0  0
    8.6247  -15.0543   27.9149 O   0  0  0  0  0  0  0  0  0  0  0  0
   10.0721  -13.4552   27.2831 O   0  0  0  0  0  0  0  0  0  0  0  0
  2  1  1  6
  2  3  1  0
  3  4  1  0
  5  6  2  0
  5  2  1  0
  7  5  1  0
  8  9  1  0
  8  7  1  0
  9 15  1  0
 10  9  2  0
 12 11  1  1
 13 12  1  0
 14 12  1  0
 14 16  1  0
 14 15  1  1
 16 17  2  0
 16 18  1  0
M  END
$$$$
