CGV.pdb
     RDKit          3D

 18 17  0  0  1  0  0  0  0  0999 V2000
    7.0158  -15.4273   21.9631 N   0  0  0  0  0  0  0  0  0  0  0  0
    8.2230  -14.9809   21.2442 C   0  0  1  0  0  0  0  0  0  0  0  0
    7.9887  -13.4741   21.0585 C   0  0  0  0  0  0  0  0  0  0  0  0
    7.5607  -13.0862   19.3657 S   0  0  0  0  0  0  0  0  0  0  0  0
    9.3736  -15.2101   22.1413 C   0  0  0  0  0  0  0  0  0  0  0  0
   10.1960  -14.2839   22.3480 O   0  0  0  0  0  0  0  0  0  0  0  0
    9.6159  -16.4512   22.8066 N   0  0  0  0  0  0  0  0  0  0  0  0
   10.8910  -16.6876   23.3952 C   0  0  0  0  0  0  0  0  0  0  0  0
   11.0615  -16.2283   24.7631 C   0  0  0  0  0  0  0  0  0  0  0  0
   12.2212  -16.3944   25.2777 O   0  0  0  0  0  0  0  0  0  0  0  0
    9.9373  -13.6387   28.7613 C   0  0  0  0  0  0  0  0  0  0  0  0
    9.5771  -14.0119   27.3561 C   0  0  2  0  0  0  0  0  0  0  0  0
    8.0866  -14.1933   27.2820 C   0  0  0  0  0  0  0  0  0  0  0  0
   10.3438  -15.2443   26.9539 C   0  0  2  0  0  0  0  0  0  0  0  0
   10.0995  -15.6253   25.5792 N   0  0  0  0  0  0  0  0  0  0  0  0
   10.1216  -16.3753   27.8890 C   0  0  0  0  0  0  0  0  0  0  0  0
   10.5131  -16.3499   29.0879 O   0  0  0  0  0  0  0  0  0  0  0  0
    9.4649  -17.5307   27.4884 O   0  0  0  0  0  0  0  0  0  0  0  0
  2  1  1  1
  2  3  1  0
  3  4  1  0
  5  6  2  0
  5  2  1  0
  7  5  1  0
  8  9  1  0
  8  7  1  0
  9 15  1  0
 10  9  2  0
 12 11  1  1
 13 12  1  0
 14 12  1  0
 14 16  1  0
 14 15  1  6
 16 17  2  0
 16 18  1  0
M  END
$$$$
