CGV.pdb
     RDKit          3D

 18 17  0  0  1  0  0  0  0  0999 V2000
    5.8358  -19.7575   21.1420 N   0  0  0  0  0  0  0  0  0  0  0  0
    6.8701  -19.5804   22.1776 C   0  0  1  0  0  0  0  0  0  0  0  0
    8.1422  -19.2986   21.3640 C   0  0  0  0  0  0  0  0  0  0  0  0
    9.5215  -18.9000   22.4308 S   0  0  0  0  0  0  0  0  0  0  0  0
    6.4964  -18.3892   22.9667 C   0  0  0  0  0  0  0  0  0  0  0  0
    6.0615  -17.3666   22.3819 O   0  0  0  0  0  0  0  0  0  0  0  0
    6.6006  -18.3257   24.3903 N   0  0  0  0  0  0  0  0  0  0  0  0
    6.0852  -17.1885   25.0754 C   0  0  0  0  0  0  0  0  0  0  0  0
    6.9973  -16.0692   25.2380 C   0  0  0  0  0  0  0  0  0  0  0  0
    8.1683  -16.2143   24.7431 O   0  0  0  0  0  0  0  0  0  0  0  0
    6.3653  -12.4037   27.5029 C   0  0  0  0  0  0  0  0  0  0  0  0
    7.0755  -12.4387   26.1847 C   0  0  2  0  0  0  0  0  0  0  0  0
    6.0866  -12.0966   25.1053 C   0  0  0  0  0  0  0  0  0  0  0  0
    7.7134  -13.7899   25.9960 C   0  0  2  0  0  0  0  0  0  0  0  0
    6.7376  -14.8517   25.8747 N   0  0  0  0  0  0  0  0  0  0  0  0
    8.7250  -14.0853   27.0413 C   0  0  0  0  0  0  0  0  0  0  0  0
    9.7832  -13.4108   27.1697 O   0  0  0  0  0  0  0  0  0  0  0  0
    8.5568  -15.1295   27.9403 O   0  0  0  0  0  0  0  0  0  0  0  0
  2  1  1  6
  2  3  1  0
  3  4  1  0
  5  6  2  0
  5  2  1  0
  7  5  1  0
  8  9  1  0
  8  7  1  0
  9 15  1  0
 10  9  2  0
 12 11  1  1
 13 12  1  0
 14 12  1  0
 14 16  1  0
 14 15  1  1
 16 17  2  0
 16 18  1  0
M  END
$$$$
