CGV.pdb
     RDKit          3D

 18 17  0  0  1  0  0  0  0  0999 V2000
    8.0077  -19.7467   23.7175 N   0  0  0  0  0  0  0  0  0  0  0  0
    6.6629  -19.2854   24.1079 C   0  0  1  0  0  0  0  0  0  0  0  0
    6.6731  -19.4170   25.6384 C   0  0  0  0  0  0  0  0  0  0  0  0
    7.6484  -20.8212   26.1639 S   0  0  0  0  0  0  0  0  0  0  0  0
    6.5607  -17.8640   23.7201 C   0  0  0  0  0  0  0  0  0  0  0  0
    5.4960  -17.2346   23.9370 O   0  0  0  0  0  0  0  0  0  0  0  0
    7.6248  -17.1410   23.0982 N   0  0  0  0  0  0  0  0  0  0  0  0
    7.4428  -15.7622   22.7915 C   0  0  0  0  0  0  0  0  0  0  0  0
    7.9714  -14.8146   23.7579 C   0  0  0  0  0  0  0  0  0  0  0  0
    8.9548  -14.0948   23.3681 O   0  0  0  0  0  0  0  0  0  0  0  0
    6.1629  -12.9190   27.0370 C   0  0  0  0  0  0  0  0  0  0  0  0
    7.4541  -12.5311   26.3846 C   0  0  2  0  0  0  0  0  0  0  0  0
    7.1423  -11.6638   25.1970 C   0  0  0  0  0  0  0  0  0  0  0  0
    8.2251  -13.7736   26.0238 C   0  0  2  0  0  0  0  0  0  0  0  0
    7.5249  -14.6020   25.0658 N   0  0  0  0  0  0  0  0  0  0  0  0
    8.6417  -14.5449   27.2216 C   0  0  0  0  0  0  0  0  0  0  0  0
    8.2708  -15.7333   27.4248 O   0  0  0  0  0  0  0  0  0  0  0  0
    9.4691  -13.9924   28.1895 O   0  0  0  0  0  0  0  0  0  0  0  0
  2  1  1  6
  2  3  1  0
  3  4  1  0
  5  6  2  0
  5  2  1  0
  7  5  1  0
  8  9  1  0
  8  7  1  0
  9 15  1  0
 10  9  2  0
 12 11  1  6
 13 12  1  0
 14 12  1  0
 14 16  1  0
 14 15  1  6
 16 17  2  0
 16 18  1  0
M  END
$$$$
