KCA.pdb
     RDKit          3D

 21 20  0  0  1  0  0  0  0  0999 V2000
    7.1243  -17.0244   21.8646 N   0  0  0  0  0  0  0  0  0  0  0  0
    8.3795  -16.3607   21.7070 C   0  0  1  0  0  0  0  0  0  0  0  0
    8.6171  -15.7239   20.3831 C   0  0  0  0  0  0  0  0  0  0  0  0
    8.1760  -16.4975   19.1921 C   0  0  0  0  0  0  0  0  0  0  0  0
    8.6055  -15.9576   17.8691 C   0  0  0  0  0  0  0  0  0  0  0  0
    9.4924  -17.0057   17.1785 C   0  0  0  0  0  0  0  0  0  0  0  0
    8.6955  -18.1505   16.7996 N   0  0  0  0  0  0  0  0  0  0  0  0
    8.5806  -15.4054   22.8411 C   0  0  0  0  0  0  0  0  0  0  0  0
    9.6462  -14.7414   22.9438 O   0  0  0  0  0  0  0  0  0  0  0  0
    7.5971  -15.1988   23.8470 N   0  0  0  0  0  0  0  0  0  0  0  0
    7.7790  -14.2909   24.9355 C   0  0  1  0  0  0  0  0  0  0  0  0
    6.4834  -13.8500   25.5725 C   0  0  0  0  0  0  0  0  0  0  0  0
    6.7396  -12.6496   26.8808 S   0  0  0  0  0  0  0  0  0  0  0  0
    8.7424  -14.8193   25.9207 C   0  0  0  0  0  0  0  0  0  0  0  0
    8.8494  -16.0658   26.0522 O   0  0  0  0  0  0  0  0  0  0  0  0
   10.7935  -13.3274   28.6533 C   0  0  0  0  0  0  0  0  0  0  0  0
   10.4869  -14.5026   27.7150 C   0  0  2  0  0  0  0  0  0  0  0  0
    9.5618  -14.0082   26.7352 N   0  0  0  0  0  0  0  0  0  0  0  0
    9.9185  -15.5782   28.5511 C   0  0  0  0  0  0  0  0  0  0  0  0
   10.7013  -16.2932   29.2213 O   0  0  0  0  0  0  0  0  0  0  0  0
    8.5640  -15.8413   28.6358 O   0  0  0  0  0  0  0  0  0  0  0  0
  2  1  1  6
  2  8  1  0
  3  2  1  0
  3  4  1  0
  5  4  1  0
  6  5  1  0
  7  6  1  0
  8  9  2  0
 10 11  1  0
 10  8  1  0
 12 13  1  0
 11 12  1  1
 14 11  1  0
 14 15  2  0
 17 16  1  1
 17 18  1  0
 17 19  1  0
 18 14  1  0
 19 20  2  0
 19 21  1  0
M  END
$$$$
