KCA.pdb
     RDKit          3D

 21 20  0  0  1  0  0  0  0  0999 V2000
    8.9868  -15.3266   20.7489 N   0  0  0  0  0  0  0  0  0  0  0  0
    8.0832  -15.5972   21.8218 C   0  0  1  0  0  0  0  0  0  0  0  0
    7.8581  -17.0343   22.1362 C   0  0  0  0  0  0  0  0  0  0  0  0
    7.6644  -17.9400   20.9727 C   0  0  0  0  0  0  0  0  0  0  0  0
    7.3527  -19.3621   21.2992 C   0  0  0  0  0  0  0  0  0  0  0  0
    7.2476  -20.1531   19.9858 C   0  0  0  0  0  0  0  0  0  0  0  0
    6.9428  -21.5373   20.2691 N   0  0  0  0  0  0  0  0  0  0  0  0
    8.4941  -14.8098   23.0261 C   0  0  0  0  0  0  0  0  0  0  0  0
    9.7000  -14.4961   23.2108 O   0  0  0  0  0  0  0  0  0  0  0  0
    7.5620  -14.3804   24.0102 N   0  0  0  0  0  0  0  0  0  0  0  0
    7.9467  -13.6525   25.1784 C   0  0  1  0  0  0  0  0  0  0  0  0
    6.7968  -12.9385   25.8467 C   0  0  0  0  0  0  0  0  0  0  0  0
    5.5549  -14.0751   26.4663 S   0  0  0  0  0  0  0  0  0  0  0  0
    8.7058  -14.5030   26.1157 C   0  0  0  0  0  0  0  0  0  0  0  0
    8.6075  -15.7528   26.0122 O   0  0  0  0  0  0  0  0  0  0  0  0
   10.7280  -13.8944   29.1946 C   0  0  0  0  0  0  0  0  0  0  0  0
   10.3133  -14.8105   28.0351 C   0  0  2  0  0  0  0  0  0  0  0  0
    9.5451  -14.0001   27.1332 N   0  0  0  0  0  0  0  0  0  0  0  0
    9.5311  -15.9152   28.6238 C   0  0  0  0  0  0  0  0  0  0  0  0
   10.1232  -16.7470   29.3522 O   0  0  0  0  0  0  0  0  0  0  0  0
    8.1749  -16.0834   28.4149 O   0  0  0  0  0  0  0  0  0  0  0  0
  2  1  1  6
  2  8  1  0
  3  2  1  0
  3  4  1  0
  5  4  1  0
  6  5  1  0
  7  6  1  0
  8  9  2  0
 10 11  1  0
 10  8  1  0
 12 13  1  0
 11 12  1  1
 14 11  1  0
 14 15  2  0
 17 16  1  1
 17 18  1  0
 17 19  1  0
 18 14  1  0
 19 20  2  0
 19 21  1  0
M  END
$$$$
