KCA.pdb
     RDKit          3D

 21 20  0  0  1  0  0  0  0  0999 V2000
    8.6375  -17.3911   21.7814 N   0  0  0  0  0  0  0  0  0  0  0  0
    9.8265  -16.6104   21.9129 C   0  0  1  0  0  0  0  0  0  0  0  0
   10.3631  -16.0249   20.6543 C   0  0  0  0  0  0  0  0  0  0  0  0
   10.7260  -16.9895   19.5823 C   0  0  0  0  0  0  0  0  0  0  0  0
    9.6564  -17.2885   18.5858 C   0  0  0  0  0  0  0  0  0  0  0  0
   10.2578  -18.1564   17.4692 C   0  0  0  0  0  0  0  0  0  0  0  0
    9.2753  -18.3715   16.4312 N   0  0  0  0  0  0  0  0  0  0  0  0
    9.6268  -15.5794   22.9790 C   0  0  0  0  0  0  0  0  0  0  0  0
   10.4954  -14.6914   23.1882 O   0  0  0  0  0  0  0  0  0  0  0  0
    8.4660  -15.5467   23.7995 N   0  0  0  0  0  0  0  0  0  0  0  0
    8.3216  -14.6522   24.9047 C   0  0  1  0  0  0  0  0  0  0  0  0
    6.8842  -14.4077   25.2954 C   0  0  0  0  0  0  0  0  0  0  0  0
    6.7368  -13.2926   26.6929 S   0  0  0  0  0  0  0  0  0  0  0  0
    9.1549  -15.0721   26.0481 C   0  0  0  0  0  0  0  0  0  0  0  0
    9.2572  -16.2999   26.3022 O   0  0  0  0  0  0  0  0  0  0  0  0
   10.7105  -13.3871   28.9600 C   0  0  0  0  0  0  0  0  0  0  0  0
   10.6988  -14.5664   27.9778 C   0  0  2  0  0  0  0  0  0  0  0  0
    9.8533  -14.1757   26.8856 N   0  0  0  0  0  0  0  0  0  0  0  0
   10.1791  -15.7326   28.7186 C   0  0  0  0  0  0  0  0  0  0  0  0
   10.9112  -16.2664   29.5858 O   0  0  0  0  0  0  0  0  0  0  0  0
    8.9234  -16.2708   28.5072 O   0  0  0  0  0  0  0  0  0  0  0  0
  2  1  1  6
  2  8  1  0
  3  2  1  0
  3  4  1  0
  5  4  1  0
  6  5  1  0
  7  6  1  0
  8  9  2  0
 10 11  1  0
 10  8  1  0
 12 13  1  0
 11 12  1  1
 14 11  1  0
 14 15  2  0
 17 16  1  1
 17 18  1  0
 17 19  1  0
 18 14  1  0
 19 20  2  0
 19 21  1  0
M  END
$$$$
