KCA.pdb
     RDKit          3D

 21 20  0  0  1  0  0  0  0  0999 V2000
    7.9252  -12.7385   20.1508 N   0  0  0  0  0  0  0  0  0  0  0  0
    7.1642  -13.6070   20.9918 C   0  0  1  0  0  0  0  0  0  0  0  0
    6.7849  -14.9185   20.3995 C   0  0  0  0  0  0  0  0  0  0  0  0
    7.8892  -15.7141   19.8005 C   0  0  0  0  0  0  0  0  0  0  0  0
    7.4922  -17.0051   19.1664 C   0  0  0  0  0  0  0  0  0  0  0  0
    8.7617  -17.7195   18.6767 C   0  0  0  0  0  0  0  0  0  0  0  0
    8.4224  -19.0278   18.1644 N   0  0  0  0  0  0  0  0  0  0  0  0
    7.8609  -13.7581   22.3076 C   0  0  0  0  0  0  0  0  0  0  0  0
    9.1170  -13.7008   22.3825 O   0  0  0  0  0  0  0  0  0  0  0  0
    7.1551  -13.9708   23.5234 N   0  0  0  0  0  0  0  0  0  0  0  0
    7.8113  -14.1606   24.7788 C   0  0  1  0  0  0  0  0  0  0  0  0
    6.9643  -13.7668   25.9646 C   0  0  0  0  0  0  0  0  0  0  0  0
    6.1335  -12.1960   25.7187 S   0  0  0  0  0  0  0  0  0  0  0  0
    8.3537  -15.5278   24.9003 C   0  0  0  0  0  0  0  0  0  0  0  0
    7.5567  -16.4766   25.1171 O   0  0  0  0  0  0  0  0  0  0  0  0
   11.7310  -17.0863   24.4831 C   0  0  0  0  0  0  0  0  0  0  0  0
   10.2801  -17.1544   24.9788 C   0  0  2  0  0  0  0  0  0  0  0  0
    9.7247  -15.8446   24.7877 N   0  0  0  0  0  0  0  0  0  0  0  0
   10.3333  -17.5548   26.3985 C   0  0  0  0  0  0  0  0  0  0  0  0
   10.8314  -18.6687   26.6886 O   0  0  0  0  0  0  0  0  0  0  0  0
    9.8617  -16.7650   27.4305 O   0  0  0  0  0  0  0  0  0  0  0  0
  2  1  1  6
  2  8  1  0
  3  2  1  0
  3  4  1  0
  5  4  1  0
  6  5  1  0
  7  6  1  0
  8  9  2  0
 10 11  1  0
 10  8  1  0
 12 13  1  0
 11 12  1  1
 14 11  1  0
 14 15  2  0
 17 16  1  1
 17 18  1  0
 17 19  1  0
 18 14  1  0
 19 20  2  0
 19 21  1  0
M  END
$$$$
