KCA.pdb
     RDKit          3D

 21 20  0  0  1  0  0  0  0  0999 V2000
    9.0694  -18.3893   22.4006 N   0  0  0  0  0  0  0  0  0  0  0  0
   10.1168  -17.4454   22.1708 C   0  0  1  0  0  0  0  0  0  0  0  0
   10.4262  -17.1511   20.7452 C   0  0  0  0  0  0  0  0  0  0  0  0
    9.2657  -17.1003   19.8168 C   0  0  0  0  0  0  0  0  0  0  0  0
    9.5736  -16.7098   18.4101 C   0  0  0  0  0  0  0  0  0  0  0  0
    8.2498  -16.5604   17.6437 C   0  0  0  0  0  0  0  0  0  0  0  0
    8.5172  -16.2554   16.2564 N   0  0  0  0  0  0  0  0  0  0  0  0
    9.8472  -16.2040   22.9616 C   0  0  0  0  0  0  0  0  0  0  0  0
   10.6186  -15.2110   22.8861 O   0  0  0  0  0  0  0  0  0  0  0  0
    8.7253  -16.0798   23.8262 N   0  0  0  0  0  0  0  0  0  0  0  0
    8.4699  -14.9077   24.6030 C   0  0  1  0  0  0  0  0  0  0  0  0
    7.0201  -14.4875   24.5970 C   0  0  0  0  0  0  0  0  0  0  0  0
    6.7093  -13.0915   25.6799 S   0  0  0  0  0  0  0  0  0  0  0  0
    9.0151  -15.0386   25.9682 C   0  0  0  0  0  0  0  0  0  0  0  0
    8.6223  -15.9938   26.6864 O   0  0  0  0  0  0  0  0  0  0  0  0
    9.3606  -13.3507   28.6865 C   0  0  0  0  0  0  0  0  0  0  0  0
   10.3896  -14.1716   27.8974 C   0  0  2  0  0  0  0  0  0  0  0  0
    9.9598  -14.1516   26.5280 N   0  0  0  0  0  0  0  0  0  0  0  0
   10.3900  -15.5278   28.4801 C   0  0  0  0  0  0  0  0  0  0  0  0
    9.6297  -16.3932   27.9843 O   0  0  0  0  0  0  0  0  0  0  0  0
   11.1867  -15.8973   29.5478 O   0  0  0  0  0  0  0  0  0  0  0  0
  2  1  1  6
  2  8  1  0
  3  2  1  0
  3  4  1  0
  5  4  1  0
  6  5  1  0
  7  6  1  0
  8  9  2  0
 10 11  1  0
 10  8  1  0
 12 13  1  0
 11 12  1  1
 14 11  1  0
 14 15  2  0
 17 16  1  1
 17 18  1  0
 17 19  1  0
 18 14  1  0
 19 20  2  0
 19 21  1  0
M  END
$$$$
