KCA.pdb
     RDKit          3D

 21 20  0  0  1  0  0  0  0  0999 V2000
    9.2507  -15.6783   20.7193 N   0  0  0  0  0  0  0  0  0  0  0  0
    8.5068  -16.1588   21.8402 C   0  0  1  0  0  0  0  0  0  0  0  0
    8.7807  -17.5633   22.2492 C   0  0  0  0  0  0  0  0  0  0  0  0
    8.7458  -18.5825   21.1669 C   0  0  0  0  0  0  0  0  0  0  0  0
   10.0660  -19.1475   20.7616 C   0  0  0  0  0  0  0  0  0  0  0  0
    9.8330  -20.1877   19.6546 C   0  0  0  0  0  0  0  0  0  0  0  0
   11.0989  -20.7305   19.2163 N   0  0  0  0  0  0  0  0  0  0  0  0
    8.6494  -15.1976   22.9782 C   0  0  0  0  0  0  0  0  0  0  0  0
    9.7368  -14.5949   23.1809 O   0  0  0  0  0  0  0  0  0  0  0  0
    7.5839  -14.9174   23.8770 N   0  0  0  0  0  0  0  0  0  0  0  0
    7.7276  -14.0522   25.0054 C   0  0  1  0  0  0  0  0  0  0  0  0
    6.4123  -13.5396   25.5402 C   0  0  0  0  0  0  0  0  0  0  0  0
    6.6270  -12.4394   26.9408 S   0  0  0  0  0  0  0  0  0  0  0  0
    8.5620  -14.6707   26.0539 C   0  0  0  0  0  0  0  0  0  0  0  0
    8.4487  -15.9055   26.2658 O   0  0  0  0  0  0  0  0  0  0  0  0
   10.4560  -13.4869   28.9666 C   0  0  0  0  0  0  0  0  0  0  0  0
   10.3156  -14.5439   27.8627 C   0  0  2  0  0  0  0  0  0  0  0  0
    9.4902  -13.9591   26.8443 N   0  0  0  0  0  0  0  0  0  0  0  0
    9.7028  -15.7330   28.4869 C   0  0  0  0  0  0  0  0  0  0  0  0
   10.4488  -16.5542   29.0719 O   0  0  0  0  0  0  0  0  0  0  0  0
    8.3450  -15.9916   28.4615 O   0  0  0  0  0  0  0  0  0  0  0  0
  2  1  1  6
  2  8  1  0
  3  2  1  0
  3  4  1  0
  5  4  1  0
  6  5  1  0
  7  6  1  0
  8  9  2  0
 10 11  1  0
 10  8  1  0
 12 13  1  0
 11 12  1  1
 14 11  1  0
 14 15  2  0
 17 16  1  1
 17 18  1  0
 17 19  1  0
 18 14  1  0
 19 20  2  0
 19 21  1  0
M  END
$$$$
