KCA.pdb
     RDKit          3D

 21 20  0  0  1  0  0  0  0  0999 V2000
    8.9378  -19.0527   18.5221 N   0  0  0  0  0  0  0  0  0  0  0  0
   10.1630  -18.4308   18.1313 C   0  0  1  0  0  0  0  0  0  0  0  0
   10.1317  -17.6826   16.8451 C   0  0  0  0  0  0  0  0  0  0  0  0
    8.8735  -17.7787   16.0584 C   0  0  0  0  0  0  0  0  0  0  0  0
    9.0377  -17.9912   14.5907 C   0  0  0  0  0  0  0  0  0  0  0  0
    7.9069  -17.2498   13.8603 C   0  0  0  0  0  0  0  0  0  0  0  0
    7.9402  -17.5694   12.4510 N   0  0  0  0  0  0  0  0  0  0  0  0
   10.6776  -17.5961   19.2617 C   0  0  0  0  0  0  0  0  0  0  0  0
   11.7231  -16.9059   19.1298 O   0  0  0  0  0  0  0  0  0  0  0  0
   10.0258  -17.5377   20.5239 N   0  0  0  0  0  0  0  0  0  0  0  0
   10.5278  -16.7733   21.6221 C   0  0  1  0  0  0  0  0  0  0  0  0
    9.4607  -16.3701   22.6107 C   0  0  0  0  0  0  0  0  0  0  0  0
   10.1411  -15.5463   24.0518 S   0  0  0  0  0  0  0  0  0  0  0  0
   11.6712  -17.4472   22.2677 C   0  0  0  0  0  0  0  0  0  0  0  0
   11.5377  -18.6421   22.6376 O   0  0  0  0  0  0  0  0  0  0  0  0
   15.2967  -16.7334   22.5423 C   0  0  0  0  0  0  0  0  0  0  0  0
   14.0660  -17.4911   23.0589 C   0  0  2  0  0  0  0  0  0  0  0  0
   12.9201  -16.8315   22.5002 N   0  0  0  0  0  0  0  0  0  0  0  0
   14.1091  -17.4193   24.5326 C   0  0  0  0  0  0  0  0  0  0  0  0
   15.0627  -17.9711   25.1318 O   0  0  0  0  0  0  0  0  0  0  0  0
   13.1508  -16.7737   25.2916 O   0  0  0  0  0  0  0  0  0  0  0  0
  2  1  1  1
  2  8  1  0
  3  2  1  0
  3  4  1  0
  5  4  1  0
  6  5  1  0
  7  6  1  0
  8  9  2  0
 10 11  1  0
 10  8  1  0
 12 13  1  0
 11 12  1  1
 14 11  1  0
 14 15  2  0
 17 16  1  6
 17 18  1  0
 17 19  1  0
 18 14  1  0
 19 20  2  0
 19 21  1  0
M  END
$$$$
