KCA.pdb
     RDKit          3D

 21 20  0  0  1  0  0  0  0  0999 V2000
    9.0865  -14.8961   20.5206 N   0  0  0  0  0  0  0  0  0  0  0  0
    8.0844  -15.2693   21.4679 C   0  0  1  0  0  0  0  0  0  0  0  0
    7.7126  -16.7103   21.4880 C   0  0  0  0  0  0  0  0  0  0  0  0
    7.0433  -17.2343   20.2679 C   0  0  0  0  0  0  0  0  0  0  0  0
    7.9191  -17.9695   19.3095 C   0  0  0  0  0  0  0  0  0  0  0  0
    7.0759  -18.3767   18.0908 C   0  0  0  0  0  0  0  0  0  0  0  0
    7.8789  -19.1567   17.1765 N   0  0  0  0  0  0  0  0  0  0  0  0
    8.4698  -14.7631   22.8223 C   0  0  0  0  0  0  0  0  0  0  0  0
    9.6392  -14.9240   23.2621 O   0  0  0  0  0  0  0  0  0  0  0  0
    7.5531  -14.0848   23.6715 N   0  0  0  0  0  0  0  0  0  0  0  0
    7.9112  -13.5930   24.9647 C   0  0  1  0  0  0  0  0  0  0  0  0
    6.8875  -12.6533   25.5543 C   0  0  0  0  0  0  0  0  0  0  0  0
    6.7248  -12.8478   27.3302 S   0  0  0  0  0  0  0  0  0  0  0  0
    8.2605  -14.6959   25.8811 C   0  0  0  0  0  0  0  0  0  0  0  0
    7.3812  -15.5513   26.1595 O   0  0  0  0  0  0  0  0  0  0  0  0
   11.2909  -16.3715   26.9915 C   0  0  0  0  0  0  0  0  0  0  0  0
    9.8828  -15.9060   27.3867 C   0  0  2  0  0  0  0  0  0  0  0  0
    9.5320  -14.8559   26.4731 N   0  0  0  0  0  0  0  0  0  0  0  0
    9.9634  -15.4466   28.7872 C   0  0  0  0  0  0  0  0  0  0  0  0
   10.3053  -16.2702   29.6691 O   0  0  0  0  0  0  0  0  0  0  0  0
    9.6810  -14.1519   29.1811 O   0  0  0  0  0  0  0  0  0  0  0  0
  2  1  1  6
  2  8  1  0
  3  2  1  0
  3  4  1  0
  5  4  1  0
  6  5  1  0
  7  6  1  0
  8  9  2  0
 10 11  1  0
 10  8  1  0
 12 13  1  0
 11 12  1  1
 14 11  1  0
 14 15  2  0
 17 16  1  6
 17 18  1  0
 17 19  1  0
 18 14  1  0
 19 20  2  0
 19 21  1  0
M  END
$$$$
