KCA.pdb
     RDKit          3D

 21 20  0  0  1  0  0  0  0  0999 V2000
    8.5090  -15.7633   20.6473 N   0  0  0  0  0  0  0  0  0  0  0  0
    8.6130  -14.4362   21.1656 C   0  0  1  0  0  0  0  0  0  0  0  0
    7.8141  -13.3976   20.4600 C   0  0  0  0  0  0  0  0  0  0  0  0
    8.1836  -13.1325   19.0441 C   0  0  0  0  0  0  0  0  0  0  0  0
    7.6647  -14.1085   18.0419 C   0  0  0  0  0  0  0  0  0  0  0  0
    8.1341  -13.6708   16.6455 C   0  0  0  0  0  0  0  0  0  0  0  0
    7.5756  -14.5486   15.6421 N   0  0  0  0  0  0  0  0  0  0  0  0
    8.3443  -14.4568   22.6376 C   0  0  0  0  0  0  0  0  0  0  0  0
    8.4224  -13.4023   23.3221 O   0  0  0  0  0  0  0  0  0  0  0  0
    7.9926  -15.6470   23.3314 N   0  0  0  0  0  0  0  0  0  0  0  0
    7.6429  -15.6631   24.7170 C   0  0  1  0  0  0  0  0  0  0  0  0
    6.7476  -16.8176   25.0968 C   0  0  0  0  0  0  0  0  0  0  0  0
    7.5243  -17.9249   26.2754 S   0  0  0  0  0  0  0  0  0  0  0  0
    8.8405  -15.5702   25.5744 C   0  0  0  0  0  0  0  0  0  0  0  0
    9.9144  -16.0856   25.1699 O   0  0  0  0  0  0  0  0  0  0  0  0
    9.7305  -13.7595   28.7115 C   0  0  0  0  0  0  0  0  0  0  0  0
    9.9939  -14.8958   27.7140 C   0  0  2  0  0  0  0  0  0  0  0  0
    8.8604  -14.9334   26.8341 N   0  0  0  0  0  0  0  0  0  0  0  0
   10.1475  -16.1315   28.5068 C   0  0  0  0  0  0  0  0  0  0  0  0
    9.2110  -16.9658   28.5035 O   0  0  0  0  0  0  0  0  0  0  0  0
   11.2728  -16.4202   29.2561 O   0  0  0  0  0  0  0  0  0  0  0  0
  2  1  1  6
  2  8  1  0
  3  2  1  0
  3  4  1  0
  5  4  1  0
  6  5  1  0
  7  6  1  0
  8  9  2  0
 10 11  1  0
 10  8  1  0
 12 13  1  0
 11 12  1  1
 14 11  1  0
 14 15  2  0
 17 16  1  1
 17 18  1  0
 17 19  1  0
 18 14  1  0
 19 20  2  0
 19 21  1  0
M  END
$$$$
