KCA.pdb
     RDKit          3D

 21 20  0  0  1  0  0  0  0  0999 V2000
    8.4167  -16.5145   17.8117 N   0  0  0  0  0  0  0  0  0  0  0  0
    7.8985  -16.8048   19.1109 C   0  0  1  0  0  0  0  0  0  0  0  0
    7.5273  -18.2241   19.3613 C   0  0  0  0  0  0  0  0  0  0  0  0
    8.5462  -19.2445   18.9984 C   0  0  0  0  0  0  0  0  0  0  0  0
    8.1875  -20.6603   19.3038 C   0  0  0  0  0  0  0  0  0  0  0  0
    9.3203  -21.5701   18.8029 C   0  0  0  0  0  0  0  0  0  0  0  0
    9.0478  -22.9412   19.1702 N   0  0  0  0  0  0  0  0  0  0  0  0
    8.8354  -16.2711   20.1486 C   0  0  0  0  0  0  0  0  0  0  0  0
   10.0692  -16.1733   19.9142 O   0  0  0  0  0  0  0  0  0  0  0  0
    8.3916  -15.8527   21.4330 N   0  0  0  0  0  0  0  0  0  0  0  0
    9.2782  -15.3501   22.4348 C   0  0  1  0  0  0  0  0  0  0  0  0
    8.5724  -14.6075   23.5434 C   0  0  0  0  0  0  0  0  0  0  0  0
    6.8218  -14.3936   23.2152 S   0  0  0  0  0  0  0  0  0  0  0  0
   10.1710  -16.4098   22.9429 C   0  0  0  0  0  0  0  0  0  0  0  0
    9.6888  -17.5500   23.1661 O   0  0  0  0  0  0  0  0  0  0  0  0
   13.8595  -16.7497   23.3935 C   0  0  0  0  0  0  0  0  0  0  0  0
   12.4352  -17.2488   23.6725 C   0  0  2  0  0  0  0  0  0  0  0  0
   11.5471  -16.2258   23.1980 N   0  0  0  0  0  0  0  0  0  0  0  0
   12.3372  -17.4648   25.1294 C   0  0  0  0  0  0  0  0  0  0  0  0
   11.5865  -16.7142   25.7973 O   0  0  0  0  0  0  0  0  0  0  0  0
   13.0314  -18.4540   25.8007 O   0  0  0  0  0  0  0  0  0  0  0  0
  2  1  1  6
  2  8  1  0
  3  2  1  0
  3  4  1  0
  5  4  1  0
  6  5  1  0
  7  6  1  0
  8  9  2  0
 10 11  1  0
 10  8  1  0
 12 13  1  0
 11 12  1  1
 14 11  1  0
 14 15  2  0
 17 16  1  1
 17 18  1  0
 17 19  1  0
 18 14  1  0
 19 20  2  0
 19 21  1  0
M  END
$$$$
