KCA.pdb
     RDKit          3D

 21 20  0  0  1  0  0  0  0  0999 V2000
    8.3589  -14.6726   20.3178 N   0  0  0  0  0  0  0  0  0  0  0  0
    7.3982  -14.8119   21.3659 C   0  0  1  0  0  0  0  0  0  0  0  0
    6.7217  -16.1344   21.4569 C   0  0  0  0  0  0  0  0  0  0  0  0
    7.2777  -17.2180   20.6038 C   0  0  0  0  0  0  0  0  0  0  0  0
    8.3958  -18.0066   21.1989 C   0  0  0  0  0  0  0  0  0  0  0  0
    8.7431  -19.1593   20.2436 C   0  0  0  0  0  0  0  0  0  0  0  0
    9.8567  -19.9153   20.7705 N   0  0  0  0  0  0  0  0  0  0  0  0
    8.0183  -14.4005   22.6642 C   0  0  0  0  0  0  0  0  0  0  0  0
    9.2603  -14.5042   22.8472 O   0  0  0  0  0  0  0  0  0  0  0  0
    7.2527  -13.8792   23.7429 N   0  0  0  0  0  0  0  0  0  0  0  0
    7.8230  -13.5484   25.0109 C   0  0  1  0  0  0  0  0  0  0  0  0
    6.9978  -12.5622   25.8015 C   0  0  0  0  0  0  0  0  0  0  0  0
    7.6482  -12.2961   27.4521 S   0  0  0  0  0  0  0  0  0  0  0  0
    8.1503  -14.7612   25.7857 C   0  0  0  0  0  0  0  0  0  0  0  0
    7.2132  -15.5195   26.1450 O   0  0  0  0  0  0  0  0  0  0  0  0
   11.1061  -16.8334   26.3930 C   0  0  0  0  0  0  0  0  0  0  0  0
    9.7947  -16.2718   26.9590 C   0  0  2  0  0  0  0  0  0  0  0  0
    9.4619  -15.1307   26.1545 N   0  0  0  0  0  0  0  0  0  0  0  0
   10.0540  -15.9246   28.3701 C   0  0  0  0  0  0  0  0  0  0  0  0
   10.0204  -14.7166   28.7057 O   0  0  0  0  0  0  0  0  0  0  0  0
   10.3330  -16.8630   29.3461 O   0  0  0  0  0  0  0  0  0  0  0  0
  2  1  1  6
  2  8  1  0
  3  2  1  0
  3  4  1  0
  5  4  1  0
  6  5  1  0
  7  6  1  0
  8  9  2  0
 10 11  1  0
 10  8  1  0
 12 13  1  0
 11 12  1  1
 14 11  1  0
 14 15  2  0
 17 16  1  6
 17 18  1  0
 17 19  1  0
 18 14  1  0
 19 20  2  0
 19 21  1  0
M  END
$$$$
