MQN.pdb
     RDKit          3D

 26 25  0  0  1  0  0  0  0  0999 V2000
   29.2167  -19.7724  -13.3567 C   0  0  0  0  0  0  0  0  0  0  0  0
   29.2315  -20.8485  -11.9223 S   0  0  0  0  0  0  0  0  0  0  0  0
   27.8871  -20.4169  -10.7705 C   0  0  0  0  0  0  0  0  0  0  0  0
   26.6190  -20.2437  -11.5321 C   0  0  0  0  0  0  0  0  0  0  0  0
   25.6095  -21.3104  -11.2411 C   0  0  2  0  0  0  0  0  0  0  0  0
   26.2702  -22.6011  -11.3451 N   0  0  0  0  0  0  0  0  0  0  0  0
   24.4044  -21.2705  -12.0950 C   0  0  0  0  0  0  0  0  0  0  0  0
   23.6829  -20.2732  -12.2875 O   0  0  0  0  0  0  0  0  0  0  0  0
   25.7204  -25.0817  -15.0871 N   0  0  0  0  0  0  0  0  0  0  0  0
   26.0400  -23.7922  -15.6363 C   0  0  0  0  0  0  0  0  0  0  0  0
   27.1853  -23.6315  -16.0723 O   0  0  0  0  0  0  0  0  0  0  0  0
   24.9914  -22.7686  -15.6386 C   0  0  0  0  0  0  0  0  0  0  0  0
   23.6807  -23.2860  -15.0899 C   0  0  0  0  0  0  0  0  0  0  0  0
   23.2056  -22.4216  -13.9577 C   0  0  2  0  0  0  0  0  0  0  0  0
   24.0020  -22.4702  -12.7758 N   0  0  0  0  0  0  0  0  0  0  0  0
   21.7510  -22.6366  -13.6706 C   0  0  0  0  0  0  0  0  0  0  0  0
   21.3797  -23.6537  -13.0455 O   0  0  0  0  0  0  0  0  0  0  0  0
   16.9816  -22.4405  -12.5036 N   0  0  0  0  0  0  0  0  0  0  0  0
   17.6909  -21.2349  -12.1609 C   0  0  0  0  0  0  0  0  0  0  0  0
   17.1540  -20.5444  -11.2773 O   0  0  0  0  0  0  0  0  0  0  0  0
   18.9479  -20.8734  -12.8177 C   0  0  0  0  0  0  0  0  0  0  0  0
   19.3908  -21.9189  -13.8007 C   0  0  2  0  0  0  0  0  0  0  0  0
   20.8334  -21.6801  -14.1156 N   0  0  0  0  0  0  0  0  0  0  0  0
   18.6342  -21.8602  -15.0570 C   0  0  0  0  0  0  0  0  0  0  0  0
   17.5733  -22.6656  -15.3253 O   0  0  0  0  0  0  0  0  0  0  0  0
   18.9767  -21.0248  -15.9394 O   0  0  0  0  0  0  0  0  0  0  0  0
  2  1  1  0
  3  2  1  0
  4  5  1  0
  4  3  1  0
  5  7  1  0
  5  6  1  6
  7  8  2  0
  9 10  1  0
 10 11  2  0
 10 12  1  0
 12 13  1  0
 14 13  1  6
 15 14  1  0
 15  7  1  0
 16 14  1  0
 16 17  2  0
 19 21  1  0
 19 18  1  0
 20 19  2  0
 22 21  1  1
 22 23  1  0
 22 24  1  0
 23 16  1  0
 24 26  2  0
 24 25  1  0
M  END
$$$$
