MQN.pdb
     RDKit          3D

 26 25  0  0  1  0  0  0  0  0999 V2000
   29.1902  -12.7863  -15.4888 C   0  0  0  0  0  0  0  0  0  0  0  0
   27.9587  -11.5568  -15.9217 S   0  0  0  0  0  0  0  0  0  0  0  0
   26.2826  -12.2704  -15.8784 C   0  0  0  0  0  0  0  0  0  0  0  0
   25.2906  -11.2283  -16.2629 C   0  0  0  0  0  0  0  0  0  0  0  0
   23.8778  -11.7227  -16.2297 C   0  0  2  0  0  0  0  0  0  0  0  0
   23.7688  -12.8474  -17.1443 N   0  0  0  0  0  0  0  0  0  0  0  0
   22.8574  -10.6993  -16.5369 C   0  0  0  0  0  0  0  0  0  0  0  0
   22.4191  -10.4275  -17.6710 O   0  0  0  0  0  0  0  0  0  0  0  0
   17.3929  -10.0092  -14.4216 N   0  0  0  0  0  0  0  0  0  0  0  0
   17.9821  -10.8255  -15.4479 C   0  0  0  0  0  0  0  0  0  0  0  0
   17.2982  -11.7531  -15.8945 O   0  0  0  0  0  0  0  0  0  0  0  0
   19.3418  -10.5003  -15.8866 C   0  0  0  0  0  0  0  0  0  0  0  0
   19.9253   -9.3271  -15.1317 C   0  0  0  0  0  0  0  0  0  0  0  0
   21.2766   -8.9679  -15.6790 C   0  0  2  0  0  0  0  0  0  0  0  0
   22.3028   -9.9325  -15.4554 N   0  0  0  0  0  0  0  0  0  0  0  0
   21.6932   -7.5901  -15.2633 C   0  0  0  0  0  0  0  0  0  0  0  0
   22.2721   -7.4142  -14.1693 O   0  0  0  0  0  0  0  0  0  0  0  0
   23.9918   -2.5555  -16.4166 N   0  0  0  0  0  0  0  0  0  0  0  0
   22.6206   -2.9899  -16.4876 C   0  0  0  0  0  0  0  0  0  0  0  0
   21.7789   -2.1128  -16.2270 O   0  0  0  0  0  0  0  0  0  0  0  0
   22.2712   -4.3660  -16.8432 C   0  0  0  0  0  0  0  0  0  0  0  0
   21.8013   -5.1532  -15.6537 C   0  0  2  0  0  0  0  0  0  0  0  0
   21.4197   -6.5214  -16.1224 N   0  0  0  0  0  0  0  0  0  0  0  0
   20.6285   -4.5479  -15.0115 C   0  0  0  0  0  0  0  0  0  0  0  0
   19.3504   -4.8502  -15.3596 O   0  0  0  0  0  0  0  0  0  0  0  0
   20.8031   -3.7033  -14.0896 O   0  0  0  0  0  0  0  0  0  0  0  0
  2  1  1  0
  3  2  1  0
  4  5  1  0
  4  3  1  0
  5  7  1  0
  5  6  1  6
  7  8  2  0
  9 10  1  0
 10 11  2  0
 10 12  1  0
 12 13  1  0
 14 13  1  1
 15 14  1  0
 15  7  1  0
 16 14  1  0
 16 17  2  0
 19 21  1  0
 19 18  1  0
 20 19  2  0
 22 21  1  6
 22 23  1  0
 22 24  1  0
 23 16  1  0
 24 26  2  0
 24 25  1  0
M  END
$$$$
