MQN.pdb
     RDKit          3D

 26 25  0  0  1  0  0  0  0  0999 V2000
   17.3520  -15.4172  -12.0649 C   0  0  0  0  0  0  0  0  0  0  0  0
   17.3384  -13.6419  -11.8128 S   0  0  0  0  0  0  0  0  0  0  0  0
   16.2684  -12.8185  -13.0364 C   0  0  0  0  0  0  0  0  0  0  0  0
   16.2987  -11.3468  -12.8100 C   0  0  0  0  0  0  0  0  0  0  0  0
   15.2472  -10.8788  -11.8525 C   0  0  2  0  0  0  0  0  0  0  0  0
   13.9468  -11.2302  -12.3991 N   0  0  0  0  0  0  0  0  0  0  0  0
   15.3047   -9.4388  -11.5266 C   0  0  0  0  0  0  0  0  0  0  0  0
   14.9052   -8.5119  -12.2571 O   0  0  0  0  0  0  0  0  0  0  0  0
   13.2693   -6.0083   -7.6697 N   0  0  0  0  0  0  0  0  0  0  0  0
   14.4604   -5.2080   -7.7556 C   0  0  0  0  0  0  0  0  0  0  0  0
   14.3719   -4.0240   -7.4122 O   0  0  0  0  0  0  0  0  0  0  0  0
   15.6847   -5.8502   -8.2413 C   0  0  0  0  0  0  0  0  0  0  0  0
   15.4896   -7.3231   -8.5226 C   0  0  0  0  0  0  0  0  0  0  0  0
   15.9729   -7.6645   -9.9026 C   0  0  2  0  0  0  0  0  0  0  0  0
   15.8652   -9.0394  -10.2652 N   0  0  0  0  0  0  0  0  0  0  0  0
   17.3430   -7.1158  -10.1602 C   0  0  0  0  0  0  0  0  0  0  0  0
   18.3019   -7.4595   -9.4353 O   0  0  0  0  0  0  0  0  0  0  0  0
   21.4825   -5.4173  -12.5716 N   0  0  0  0  0  0  0  0  0  0  0  0
   20.9961   -6.7704  -12.4906 C   0  0  0  0  0  0  0  0  0  0  0  0
   21.7992   -7.6396  -12.8718 O   0  0  0  0  0  0  0  0  0  0  0  0
   19.6535   -7.0725  -11.9922 C   0  0  0  0  0  0  0  0  0  0  0  0
   18.9191   -5.8338  -11.5657 C   0  0  2  0  0  0  0  0  0  0  0  0
   17.5161   -6.2205  -11.2202 N   0  0  0  0  0  0  0  0  0  0  0  0
   18.8647   -4.8231  -12.6286 C   0  0  0  0  0  0  0  0  0  0  0  0
   19.8610   -3.9276  -12.8558 O   0  0  0  0  0  0  0  0  0  0  0  0
   17.8474   -4.7732  -13.3744 O   0  0  0  0  0  0  0  0  0  0  0  0
  2  1  1  0
  3  2  1  0
  4  5  1  0
  4  3  1  0
  5  7  1  0
  5  6  1  6
  7  8  2  0
  9 10  1  0
 10 11  2  0
 10 12  1  0
 12 13  1  0
 14 13  1  1
 15 14  1  0
 15  7  1  0
 16 14  1  0
 16 17  2  0
 19 21  1  0
 19 18  1  0
 20 19  2  0
 22 21  1  6
 22 23  1  0
 22 24  1  0
 23 16  1  0
 24 26  2  0
 24 25  1  0
M  END
$$$$
