MQN.pdb
     RDKit          3D

 26 25  0  0  1  0  0  0  0  0999 V2000
   30.1179  -34.9537   -9.6177 C   0  0  0  0  0  0  0  0  0  0  0  0
   28.8296  -33.7066   -9.5919 S   0  0  0  0  0  0  0  0  0  0  0  0
   27.7809  -33.8226  -11.0775 C   0  0  0  0  0  0  0  0  0  0  0  0
   26.5759  -32.9653  -10.9013 C   0  0  0  0  0  0  0  0  0  0  0  0
   25.5484  -33.5757   -9.9996 C   0  0  2  0  0  0  0  0  0  0  0  0
   24.8424  -34.6038  -10.7464 N   0  0  0  0  0  0  0  0  0  0  0  0
   24.5961  -32.6138   -9.4073 C   0  0  0  0  0  0  0  0  0  0  0  0
   24.8933  -31.6678   -8.6530 O   0  0  0  0  0  0  0  0  0  0  0  0
   19.5522  -29.1988   -9.7594 N   0  0  0  0  0  0  0  0  0  0  0  0
   20.7586  -29.0509  -10.5271 C   0  0  0  0  0  0  0  0  0  0  0  0
   20.9670  -27.9487  -11.0459 O   0  0  0  0  0  0  0  0  0  0  0  0
   21.6474  -30.2106  -10.6381 C   0  0  0  0  0  0  0  0  0  0  0  0
   21.1281  -31.4090   -9.8758 C   0  0  0  0  0  0  0  0  0  0  0  0
   22.2097  -31.9947   -9.0146 C   0  0  2  0  0  0  0  0  0  0  0  0
   23.1978  -32.7550   -9.7069 N   0  0  0  0  0  0  0  0  0  0  0  0
   21.6428  -32.7355   -7.8423 C   0  0  0  0  0  0  0  0  0  0  0  0
   20.6653  -33.4994   -7.9973 O   0  0  0  0  0  0  0  0  0  0  0  0
   20.1150  -36.0471   -4.3415 N   0  0  0  0  0  0  0  0  0  0  0  0
   21.4409  -35.4879   -4.4011 C   0  0  0  0  0  0  0  0  0  0  0  0
   22.1465  -35.7049   -3.4008 O   0  0  0  0  0  0  0  0  0  0  0  0
   21.8987  -34.7262   -5.5641 C   0  0  0  0  0  0  0  0  0  0  0  0
   21.6043  -33.2598   -5.4285 C   0  0  2  0  0  0  0  0  0  0  0  0
   22.2304  -32.5505   -6.5870 N   0  0  0  0  0  0  0  0  0  0  0  0
   22.1570  -32.6913   -4.1934 C   0  0  0  0  0  0  0  0  0  0  0  0
   21.6293  -32.9280   -2.9638 O   0  0  0  0  0  0  0  0  0  0  0  0
   23.1719  -31.9439   -4.2640 O   0  0  0  0  0  0  0  0  0  0  0  0
  2  1  1  0
  3  2  1  0
  4  5  1  0
  4  3  1  0
  5  7  1  0
  5  6  1  6
  7  8  2  0
  9 10  1  0
 10 11  2  0
 10 12  1  0
 12 13  1  0
 14 13  1  6
 15 14  1  0
 15  7  1  0
 16 14  1  0
 16 17  2  0
 19 21  1  0
 19 18  1  0
 20 19  2  0
 22 21  1  6
 22 23  1  0
 22 24  1  0
 23 16  1  0
 24 26  2  0
 24 25  1  0
M  END
$$$$
