MQN.pdb
     RDKit          3D

 26 25  0  0  1  0  0  0  0  0999 V2000
   28.1470  -18.4998   -4.5225 C   0  0  0  0  0  0  0  0  0  0  0  0
   28.1962  -20.2407   -4.9493 S   0  0  0  0  0  0  0  0  0  0  0  0
   28.7159  -20.4725   -6.6803 C   0  0  0  0  0  0  0  0  0  0  0  0
   27.7757  -19.7492   -7.5808 C   0  0  0  0  0  0  0  0  0  0  0  0
   26.9605  -20.6674   -8.4374 C   0  0  2  0  0  0  0  0  0  0  0  0
   27.8700  -21.4432   -9.2646 N   0  0  0  0  0  0  0  0  0  0  0  0
   25.9426  -19.9944   -9.2704 C   0  0  0  0  0  0  0  0  0  0  0  0
   25.4039  -18.9000   -9.0170 O   0  0  0  0  0  0  0  0  0  0  0  0
   29.1476  -20.8580  -13.8449 N   0  0  0  0  0  0  0  0  0  0  0  0
   28.1786  -19.9049  -14.3134 C   0  0  0  0  0  0  0  0  0  0  0  0
   27.9963  -19.8375  -15.5340 O   0  0  0  0  0  0  0  0  0  0  0  0
   27.4825  -19.0878  -13.3159 C   0  0  0  0  0  0  0  0  0  0  0  0
   27.2880  -19.8192  -12.0068 C   0  0  0  0  0  0  0  0  0  0  0  0
   25.8302  -20.0840  -11.7627 C   0  0  2  0  0  0  0  0  0  0  0  0
   25.5142  -20.6322  -10.4848 N   0  0  0  0  0  0  0  0  0  0  0  0
   25.2151  -20.8659  -12.8830 C   0  0  0  0  0  0  0  0  0  0  0  0
   25.4510  -20.5513  -14.0698 O   0  0  0  0  0  0  0  0  0  0  0  0
   20.2137  -21.1890  -13.1359 N   0  0  0  0  0  0  0  0  0  0  0  0
   20.9912  -20.3792  -12.2337 C   0  0  0  0  0  0  0  0  0  0  0  0
   20.3519  -19.4910  -11.6437 O   0  0  0  0  0  0  0  0  0  0  0  0
   22.4245  -20.6062  -12.0433 C   0  0  0  0  0  0  0  0  0  0  0  0
   22.9199  -21.7785  -12.8407 C   0  0  2  0  0  0  0  0  0  0  0  0
   24.3812  -21.9429  -12.5673 N   0  0  0  0  0  0  0  0  0  0  0  0
   22.7454  -21.5850  -14.2851 C   0  0  0  0  0  0  0  0  0  0  0  0
   23.5034  -20.7281  -15.0182 O   0  0  0  0  0  0  0  0  0  0  0  0
   21.8503  -22.2408  -14.8870 O   0  0  0  0  0  0  0  0  0  0  0  0
  2  1  1  0
  3  2  1  0
  4  5  1  0
  4  3  1  0
  5  7  1  0
  5  6  1  6
  7  8  2  0
  9 10  1  0
 10 11  2  0
 10 12  1  0
 12 13  1  0
 14 13  1  6
 15 14  1  0
 15  7  1  0
 16 14  1  0
 16 17  2  0
 19 21  1  0
 19 18  1  0
 20 19  2  0
 22 21  1  1
 22 23  1  0
 22 24  1  0
 23 16  1  0
 24 26  2  0
 24 25  1  0
M  END
$$$$
