MQN.pdb
     RDKit          3D

 26 25  0  0  1  0  0  0  0  0999 V2000
   26.2397  -33.0824  -12.6278 C   0  0  0  0  0  0  0  0  0  0  0  0
   27.2071  -33.6539  -14.0253 S   0  0  0  0  0  0  0  0  0  0  0  0
   26.3221  -33.3652  -15.5917 C   0  0  0  0  0  0  0  0  0  0  0  0
   25.8950  -31.9402  -15.6638 C   0  0  0  0  0  0  0  0  0  0  0  0
   25.0129  -31.6509  -16.8384 C   0  0  2  0  0  0  0  0  0  0  0  0
   25.8173  -31.7493  -18.0453 N   0  0  0  0  0  0  0  0  0  0  0  0
   24.3142  -30.3503  -16.7813 C   0  0  0  0  0  0  0  0  0  0  0  0
   24.7459  -29.2730  -17.2344 O   0  0  0  0  0  0  0  0  0  0  0  0
   21.4796  -26.1766  -17.7183 N   0  0  0  0  0  0  0  0  0  0  0  0
   22.0922  -27.0037  -18.7219 C   0  0  0  0  0  0  0  0  0  0  0  0
   22.5691  -26.4343  -19.7099 O   0  0  0  0  0  0  0  0  0  0  0  0
   22.1060  -28.4523  -18.5020 C   0  0  0  0  0  0  0  0  0  0  0  0
   21.3384  -28.8538  -17.2625 C   0  0  0  0  0  0  0  0  0  0  0  0
   22.2759  -29.0746  -16.1105 C   0  0  2  0  0  0  0  0  0  0  0  0
   23.0227  -30.2886  -16.1543 N   0  0  0  0  0  0  0  0  0  0  0  0
   21.5894  -28.8783  -14.7934 C   0  0  0  0  0  0  0  0  0  0  0  0
   21.2741  -29.8681  -14.0978 O   0  0  0  0  0  0  0  0  0  0  0  0
   19.4478  -26.7705  -10.6118 N   0  0  0  0  0  0  0  0  0  0  0  0
   20.1221  -25.7244  -11.3366 C   0  0  0  0  0  0  0  0  0  0  0  0
   20.1285  -24.6165  -10.7725 O   0  0  0  0  0  0  0  0  0  0  0  0
   20.7455  -25.9736  -12.6371 C   0  0  0  0  0  0  0  0  0  0  0  0
   20.6337  -27.4136  -13.0487 C   0  0  2  0  0  0  0  0  0  0  0  0
   21.3153  -27.5740  -14.3704 N   0  0  0  0  0  0  0  0  0  0  0  0
   19.2388  -27.8444  -13.2000 C   0  0  0  0  0  0  0  0  0  0  0  0
   18.5632  -28.5295  -12.2407 O   0  0  0  0  0  0  0  0  0  0  0  0
   18.6263  -27.5712  -14.2695 O   0  0  0  0  0  0  0  0  0  0  0  0
  2  1  1  0
  3  2  1  0
  4  5  1  0
  4  3  1  0
  5  7  1  0
  5  6  1  6
  7  8  2  0
  9 10  1  0
 10 11  2  0
 10 12  1  0
 12 13  1  0
 14 13  1  6
 15 14  1  0
 15  7  1  0
 16 14  1  0
 16 17  2  0
 19 21  1  0
 19 18  1  0
 20 19  2  0
 22 21  1  6
 22 23  1  0
 22 24  1  0
 23 16  1  0
 24 26  2  0
 24 25  1  0
M  END
$$$$
