MQN.pdb
     RDKit          3D

 26 25  0  0  1  0  0  0  0  0999 V2000
   16.5651  -25.9445   -2.5700 C   0  0  0  0  0  0  0  0  0  0  0  0
   18.1178  -26.4410   -3.3171 S   0  0  0  0  0  0  0  0  0  0  0  0
   17.8677  -26.9861   -5.0377 C   0  0  0  0  0  0  0  0  0  0  0  0
   17.5422  -25.8076   -5.8882 C   0  0  0  0  0  0  0  0  0  0  0  0
   17.3224  -26.1643   -7.3255 C   0  0  2  0  0  0  0  0  0  0  0  0
   18.2462  -27.2310   -7.6750 N   0  0  0  0  0  0  0  0  0  0  0  0
   17.4485  -25.0345   -8.2692 C   0  0  0  0  0  0  0  0  0  0  0  0
   16.9353  -23.9081   -8.1270 O   0  0  0  0  0  0  0  0  0  0  0  0
   21.2217  -24.5231  -13.4671 N   0  0  0  0  0  0  0  0  0  0  0  0
   20.3972  -23.3458  -13.4906 C   0  0  0  0  0  0  0  0  0  0  0  0
   20.6187  -22.5182  -14.3815 O   0  0  0  0  0  0  0  0  0  0  0  0
   19.3610  -23.2135  -12.4629 C   0  0  0  0  0  0  0  0  0  0  0  0
   19.4098  -24.3339  -11.4486 C   0  0  0  0  0  0  0  0  0  0  0  0
   18.2644  -24.2217  -10.4841 C   0  0  2  0  0  0  0  0  0  0  0  0
   18.2233  -25.2186   -9.4653 N   0  0  0  0  0  0  0  0  0  0  0  0
   16.9534  -24.0840  -11.1961 C   0  0  0  0  0  0  0  0  0  0  0  0
   16.3418  -25.1028  -11.5848 O   0  0  0  0  0  0  0  0  0  0  0  0
   11.5811  -22.9423  -11.0394 N   0  0  0  0  0  0  0  0  0  0  0  0
   12.7398  -23.1603  -11.8664 C   0  0  0  0  0  0  0  0  0  0  0  0
   12.5123  -23.1955  -13.0882 O   0  0  0  0  0  0  0  0  0  0  0  0
   14.0738  -23.3241  -11.2870 C   0  0  0  0  0  0  0  0  0  0  0  0
   15.1393  -22.6986  -12.1408 C   0  0  2  0  0  0  0  0  0  0  0  0
   16.4405  -22.8010  -11.4103 N   0  0  0  0  0  0  0  0  0  0  0  0
   14.8780  -21.2795  -12.4094 C   0  0  0  0  0  0  0  0  0  0  0  0
   14.1679  -20.8437  -13.4827 O   0  0  0  0  0  0  0  0  0  0  0  0
   15.3303  -20.4120  -11.6116 O   0  0  0  0  0  0  0  0  0  0  0  0
  2  1  1  0
  3  2  1  0
  4  5  1  0
  4  3  1  0
  5  7  1  0
  5  6  1  6
  7  8  2  0
  9 10  1  0
 10 11  2  0
 10 12  1  0
 12 13  1  0
 14 13  1  6
 15 14  1  0
 15  7  1  0
 16 14  1  0
 16 17  2  0
 19 21  1  0
 19 18  1  0
 20 19  2  0
 22 21  1  1
 22 23  1  0
 22 24  1  0
 23 16  1  0
 24 26  2  0
 24 25  1  0
M  END
$$$$
