MQN.pdb
     RDKit          3D

 26 25  0  0  1  0  0  0  0  0999 V2000
   17.9598  -15.3826  -12.9560 C   0  0  0  0  0  0  0  0  0  0  0  0
   17.6757  -13.6410  -12.6373 S   0  0  0  0  0  0  0  0  0  0  0  0
   16.5812  -12.9175  -13.9018 C   0  0  0  0  0  0  0  0  0  0  0  0
   16.4758  -11.4480  -13.6835 C   0  0  0  0  0  0  0  0  0  0  0  0
   15.6393  -11.0900  -12.4946 C   0  0  2  0  0  0  0  0  0  0  0  0
   14.2954  -11.5985  -12.7154 N   0  0  0  0  0  0  0  0  0  0  0  0
   15.6058   -9.6482  -12.1739 C   0  0  0  0  0  0  0  0  0  0  0  0
   15.0435   -8.7661  -12.8506 O   0  0  0  0  0  0  0  0  0  0  0  0
   14.4809   -6.7649   -6.9371 N   0  0  0  0  0  0  0  0  0  0  0  0
   15.0269   -5.6922   -7.7230 C   0  0  0  0  0  0  0  0  0  0  0  0
   14.9385   -4.5499   -7.2593 O   0  0  0  0  0  0  0  0  0  0  0  0
   15.6441   -6.0291   -9.0086 C   0  0  0  0  0  0  0  0  0  0  0  0
   15.6703   -7.5197   -9.2617 C   0  0  0  0  0  0  0  0  0  0  0  0
   16.2598   -7.8148  -10.6108 C   0  0  2  0  0  0  0  0  0  0  0  0
   16.2711   -9.1908  -10.9851 N   0  0  0  0  0  0  0  0  0  0  0  0
   17.6012   -7.1698  -10.7812 C   0  0  0  0  0  0  0  0  0  0  0  0
   18.5396   -7.4623  -10.0086 O   0  0  0  0  0  0  0  0  0  0  0  0
   22.3444   -6.0042  -11.9001 N   0  0  0  0  0  0  0  0  0  0  0  0
   21.3640   -6.4909  -12.8361 C   0  0  0  0  0  0  0  0  0  0  0  0
   21.7417   -6.5247  -14.0202 O   0  0  0  0  0  0  0  0  0  0  0  0
   20.0308   -6.9088  -12.4002 C   0  0  0  0  0  0  0  0  0  0  0  0
   19.1573   -5.7364  -12.0567 C   0  0  2  0  0  0  0  0  0  0  0  0
   17.7712   -6.2440  -11.8152 N   0  0  0  0  0  0  0  0  0  0  0  0
   19.0983   -4.7478  -13.1400 C   0  0  0  0  0  0  0  0  0  0  0  0
   20.0535   -3.8017  -13.3370 O   0  0  0  0  0  0  0  0  0  0  0  0
   18.1168   -4.7671  -13.9336 O   0  0  0  0  0  0  0  0  0  0  0  0
  2  1  1  0
  3  2  1  0
  4  5  1  0
  4  3  1  0
  5  7  1  0
  5  6  1  6
  7  8  2  0
  9 10  1  0
 10 11  2  0
 10 12  1  0
 12 13  1  0
 14 13  1  1
 15 14  1  0
 15  7  1  0
 16 14  1  0
 16 17  2  0
 19 21  1  0
 19 18  1  0
 20 19  2  0
 22 21  1  6
 22 23  1  0
 22 24  1  0
 23 16  1  0
 24 26  2  0
 24 25  1  0
M  END
$$$$
