MQN.pdb
     RDKit          3D

 26 25  0  0  1  0  0  0  0  0999 V2000
   27.6929  -14.1593  -15.5875 C   0  0  0  0  0  0  0  0  0  0  0  0
   26.8853  -15.6661  -15.0462 S   0  0  0  0  0  0  0  0  0  0  0  0
   25.0728  -15.4811  -15.0778 C   0  0  0  0  0  0  0  0  0  0  0  0
   24.7140  -14.2470  -15.8304 C   0  0  0  0  0  0  0  0  0  0  0  0
   23.2364  -14.0221  -15.9181 C   0  0  2  0  0  0  0  0  0  0  0  0
   22.6189  -15.2461  -16.4019 N   0  0  0  0  0  0  0  0  0  0  0  0
   22.8348  -12.8701  -16.7515 C   0  0  0  0  0  0  0  0  0  0  0  0
   22.8646  -12.8283  -17.9963 O   0  0  0  0  0  0  0  0  0  0  0  0
   18.3968   -9.9311  -18.6571 N   0  0  0  0  0  0  0  0  0  0  0  0
   18.3549  -10.9389  -17.6328 C   0  0  0  0  0  0  0  0  0  0  0  0
   17.2420  -11.2620  -17.2029 O   0  0  0  0  0  0  0  0  0  0  0  0
   19.6265  -11.5055  -17.1757 C   0  0  0  0  0  0  0  0  0  0  0  0
   20.8181  -10.8655  -17.8519 C   0  0  0  0  0  0  0  0  0  0  0  0
   21.8925  -10.5604  -16.8482 C   0  0  2  0  0  0  0  0  0  0  0  0
   22.3653  -11.6785  -16.1000 N   0  0  0  0  0  0  0  0  0  0  0  0
   21.5160   -9.4076  -15.9684 C   0  0  0  0  0  0  0  0  0  0  0  0
   21.1289   -9.6136  -14.7976 O   0  0  0  0  0  0  0  0  0  0  0  0
   21.7681   -5.1450  -13.0732 N   0  0  0  0  0  0  0  0  0  0  0  0
   22.2630   -5.0557  -14.4228 C   0  0  0  0  0  0  0  0  0  0  0  0
   22.4468   -3.8983  -14.8379 O   0  0  0  0  0  0  0  0  0  0  0  0
   22.5227   -6.2530  -15.2235 C   0  0  0  0  0  0  0  0  0  0  0  0
   21.2574   -6.9830  -15.5720 C   0  0  2  0  0  0  0  0  0  0  0  0
   21.6090   -8.1126  -16.4874 N   0  0  0  0  0  0  0  0  0  0  0  0
   20.2883   -6.1227  -16.2611 C   0  0  0  0  0  0  0  0  0  0  0  0
   19.3082   -5.4390  -15.6145 O   0  0  0  0  0  0  0  0  0  0  0  0
   20.3582   -6.0046  -17.5161 O   0  0  0  0  0  0  0  0  0  0  0  0
  2  1  1  0
  3  2  1  0
  4  5  1  0
  4  3  1  0
  5  7  1  0
  5  6  1  6
  7  8  2  0
  9 10  1  0
 10 11  2  0
 10 12  1  0
 12 13  1  0
 14 13  1  1
 15 14  1  0
 15  7  1  0
 16 14  1  0
 16 17  2  0
 19 21  1  0
 19 18  1  0
 20 19  2  0
 22 21  1  6
 22 23  1  0
 22 24  1  0
 23 16  1  0
 24 26  2  0
 24 25  1  0
M  END
$$$$
