MQN.pdb
     RDKit          3D

 26 25  0  0  1  0  0  0  0  0999 V2000
   31.5666  -19.9018  -10.8407 C   0  0  0  0  0  0  0  0  0  0  0  0
   30.6390  -21.4235  -11.0392 S   0  0  0  0  0  0  0  0  0  0  0  0
   29.0528  -21.1143  -11.8809 C   0  0  0  0  0  0  0  0  0  0  0  0
   29.2888  -20.9684  -13.3442 C   0  0  0  0  0  0  0  0  0  0  0  0
   28.4034  -19.9433  -13.9819 C   0  0  2  0  0  0  0  0  0  0  0  0
   28.2751  -18.8215  -13.0662 N   0  0  0  0  0  0  0  0  0  0  0  0
   27.0726  -20.4415  -14.3866 C   0  0  0  0  0  0  0  0  0  0  0  0
   26.8567  -21.3471  -15.2146 O   0  0  0  0  0  0  0  0  0  0  0  0
   25.6317  -22.6319  -11.3181 N   0  0  0  0  0  0  0  0  0  0  0  0
   24.7430  -21.6220  -10.8113 C   0  0  0  0  0  0  0  0  0  0  0  0
   24.7293  -21.4431   -9.5884 O   0  0  0  0  0  0  0  0  0  0  0  0
   23.9231  -20.8834  -11.7754 C   0  0  0  0  0  0  0  0  0  0  0  0
   24.0801  -21.4072  -13.1852 C   0  0  0  0  0  0  0  0  0  0  0  0
   24.5960  -20.3285  -14.0936 C   0  0  2  0  0  0  0  0  0  0  0  0
   25.9053  -19.8504  -13.7926 N   0  0  0  0  0  0  0  0  0  0  0  0
   23.6065  -19.2140  -14.2463 C   0  0  0  0  0  0  0  0  0  0  0  0
   23.7201  -18.1768  -13.5576 O   0  0  0  0  0  0  0  0  0  0  0  0
   20.2215  -15.8951  -16.0045 N   0  0  0  0  0  0  0  0  0  0  0  0
   21.6533  -15.8678  -16.1566 C   0  0  0  0  0  0  0  0  0  0  0  0
   22.1169  -14.7866  -16.5591 O   0  0  0  0  0  0  0  0  0  0  0  0
   22.4778  -17.0382  -15.8524 C   0  0  0  0  0  0  0  0  0  0  0  0
   21.6543  -18.1966  -15.3673 C   0  0  2  0  0  0  0  0  0  0  0  0
   22.5666  -19.3652  -15.1687 N   0  0  0  0  0  0  0  0  0  0  0  0
   20.6173  -18.5864  -16.3300 C   0  0  0  0  0  0  0  0  0  0  0  0
   19.3023  -18.2835  -16.1709 O   0  0  0  0  0  0  0  0  0  0  0  0
   20.9510  -19.2355  -17.3600 O   0  0  0  0  0  0  0  0  0  0  0  0
  2  1  1  0
  3  2  1  0
  4  5  1  0
  4  3  1  0
  5  7  1  0
  5  6  1  1
  7  8  2  0
  9 10  1  0
 10 11  2  0
 10 12  1  0
 12 13  1  0
 14 13  1  1
 15 14  1  0
 15  7  1  0
 16 14  1  0
 16 17  2  0
 19 21  1  0
 19 18  1  0
 20 19  2  0
 22 21  1  6
 22 23  1  0
 22 24  1  0
 23 16  1  0
 24 26  2  0
 24 25  1  0
M  END
$$$$
