MQN.pdb
     RDKit          3D

 26 25  0  0  1  0  0  0  0  0999 V2000
   28.7303  -18.8492   -6.3840 C   0  0  0  0  0  0  0  0  0  0  0  0
   29.7370  -20.3330   -6.4075 S   0  0  0  0  0  0  0  0  0  0  0  0
   30.7358  -20.4183   -7.9292 C   0  0  0  0  0  0  0  0  0  0  0  0
   29.8369  -20.3638   -9.1153 C   0  0  0  0  0  0  0  0  0  0  0  0
   29.0379  -21.6158   -9.3038 C   0  0  2  0  0  0  0  0  0  0  0  0
   29.9622  -22.7135   -9.5363 N   0  0  0  0  0  0  0  0  0  0  0  0
   28.0269  -21.5480  -10.3791 C   0  0  0  0  0  0  0  0  0  0  0  0
   28.2049  -21.8823  -11.5660 O   0  0  0  0  0  0  0  0  0  0  0  0
   21.7069  -20.5193   -9.6649 N   0  0  0  0  0  0  0  0  0  0  0  0
   21.8840  -20.7546  -11.0720 C   0  0  0  0  0  0  0  0  0  0  0  0
   20.8712  -20.7359  -11.7801 O   0  0  0  0  0  0  0  0  0  0  0  0
   23.2438  -20.9984  -11.5607 C   0  0  0  0  0  0  0  0  0  0  0  0
   24.2792  -20.8806  -10.4650 C   0  0  0  0  0  0  0  0  0  0  0  0
   25.6595  -21.0830  -11.0205 C   0  0  2  0  0  0  0  0  0  0  0  0
   26.7143  -21.0572  -10.0612 N   0  0  0  0  0  0  0  0  0  0  0  0
   25.9269  -20.1748  -12.1817 C   0  0  0  0  0  0  0  0  0  0  0  0
   26.2883  -18.9945  -11.9835 O   0  0  0  0  0  0  0  0  0  0  0  0
   26.7196  -18.3615  -16.9340 N   0  0  0  0  0  0  0  0  0  0  0  0
   27.2385  -19.6958  -16.7773 C   0  0  0  0  0  0  0  0  0  0  0  0
   27.9454  -20.0970  -17.7181 O   0  0  0  0  0  0  0  0  0  0  0  0
   26.9419  -20.4977  -15.5894 C   0  0  0  0  0  0  0  0  0  0  0  0
   26.0748  -19.7572  -14.6120 C   0  0  2  0  0  0  0  0  0  0  0  0
   25.7629  -20.6785  -13.4757 N   0  0  0  0  0  0  0  0  0  0  0  0
   24.8059  -19.3233  -15.2085 C   0  0  0  0  0  0  0  0  0  0  0  0
   24.6427  -18.1195  -15.8171 O   0  0  0  0  0  0  0  0  0  0  0  0
   23.8101  -20.0976  -15.1596 O   0  0  0  0  0  0  0  0  0  0  0  0
  2  1  1  0
  3  2  1  0
  4  5  1  0
  4  3  1  0
  5  7  1  0
  5  6  1  6
  7  8  2  0
  9 10  1  0
 10 11  2  0
 10 12  1  0
 12 13  1  0
 14 13  1  1
 15 14  1  0
 15  7  1  0
 16 14  1  0
 16 17  2  0
 19 21  1  0
 19 18  1  0
 20 19  2  0
 22 21  1  6
 22 23  1  0
 22 24  1  0
 23 16  1  0
 24 26  2  0
 24 25  1  0
M  END
$$$$
