MQN.pdb
     RDKit          3D

 26 25  0  0  1  0  0  0  0  0999 V2000
   28.5566  -18.9569   -4.6004 C   0  0  0  0  0  0  0  0  0  0  0  0
   27.9411  -19.0021   -6.2840 S   0  0  0  0  0  0  0  0  0  0  0  0
   27.9692  -20.7009   -6.9424 C   0  0  0  0  0  0  0  0  0  0  0  0
   27.6383  -20.6750   -8.3942 C   0  0  0  0  0  0  0  0  0  0  0  0
   26.1848  -20.4346   -8.6605 C   0  0  2  0  0  0  0  0  0  0  0  0
   25.4607  -21.6604   -8.3666 N   0  0  0  0  0  0  0  0  0  0  0  0
   25.8764  -19.9606  -10.0255 C   0  0  0  0  0  0  0  0  0  0  0  0
   25.9723  -18.7845  -10.4253 O   0  0  0  0  0  0  0  0  0  0  0  0
   27.8778  -20.7872  -15.2849 N   0  0  0  0  0  0  0  0  0  0  0  0
   28.2486  -21.2372  -13.9709 C   0  0  0  0  0  0  0  0  0  0  0  0
   29.3973  -21.6693  -13.8246 O   0  0  0  0  0  0  0  0  0  0  0  0
   27.2439  -21.1515  -12.9077 C   0  0  0  0  0  0  0  0  0  0  0  0
   25.9376  -20.5668  -13.3958 C   0  0  0  0  0  0  0  0  0  0  0  0
   24.9396  -20.4990  -12.2759 C   0  0  2  0  0  0  0  0  0  0  0  0
   25.4232  -20.9141  -11.0003 N   0  0  0  0  0  0  0  0  0  0  0  0
   23.6522  -21.1727  -12.6410 C   0  0  0  0  0  0  0  0  0  0  0  0
   23.3533  -22.2727  -12.1274 O   0  0  0  0  0  0  0  0  0  0  0  0
   18.7281  -21.8186  -13.4217 N   0  0  0  0  0  0  0  0  0  0  0  0
   19.3030  -21.0687  -12.3348 C   0  0  0  0  0  0  0  0  0  0  0  0
   18.5162  -20.7986  -11.4107 O   0  0  0  0  0  0  0  0  0  0  0  0
   20.7107  -20.6680  -12.3416 C   0  0  0  0  0  0  0  0  0  0  0  0
   21.3929  -21.0293  -13.6298 C   0  0  2  0  0  0  0  0  0  0  0  0
   22.8061  -20.5443  -13.5599 N   0  0  0  0  0  0  0  0  0  0  0  0
   20.7538  -20.4049  -14.7943 C   0  0  0  0  0  0  0  0  0  0  0  0
   19.9360  -21.0786  -15.6449 O   0  0  0  0  0  0  0  0  0  0  0  0
   20.9672  -19.1827  -15.0277 O   0  0  0  0  0  0  0  0  0  0  0  0
  2  1  1  0
  3  2  1  0
  4  5  1  0
  4  3  1  0
  5  7  1  0
  5  6  1  6
  7  8  2  0
  9 10  1  0
 10 11  2  0
 10 12  1  0
 12 13  1  0
 14 13  1  6
 15 14  1  0
 15  7  1  0
 16 14  1  0
 16 17  2  0
 19 21  1  0
 19 18  1  0
 20 19  2  0
 22 21  1  1
 22 23  1  0
 22 24  1  0
 23 16  1  0
 24 26  2  0
 24 25  1  0
M  END
$$$$
