MQN.pdb
     RDKit          3D

 26 25  0  0  1  0  0  0  0  0999 V2000
   27.2099  -19.0414   -6.9691 C   0  0  0  0  0  0  0  0  0  0  0  0
   28.2564  -20.4875   -7.1402 S   0  0  0  0  0  0  0  0  0  0  0  0
   28.0145  -21.2780   -8.7641 C   0  0  0  0  0  0  0  0  0  0  0  0
   26.6696  -20.9194   -9.2940 C   0  0  0  0  0  0  0  0  0  0  0  0
   26.3834  -21.5310  -10.6303 C   0  0  2  0  0  0  0  0  0  0  0  0
   27.6192  -21.5479  -11.3958 N   0  0  0  0  0  0  0  0  0  0  0  0
   25.3051  -20.8705  -11.3943 C   0  0  0  0  0  0  0  0  0  0  0  0
   24.5241  -20.0070  -10.9507 O   0  0  0  0  0  0  0  0  0  0  0  0
   27.1598  -20.7052  -15.1315 N   0  0  0  0  0  0  0  0  0  0  0  0
   26.9993  -19.3576  -14.6573 C   0  0  0  0  0  0  0  0  0  0  0  0
   28.0267  -18.6915  -14.4890 O   0  0  0  0  0  0  0  0  0  0  0  0
   25.6380  -18.8753  -14.4094 C   0  0  0  0  0  0  0  0  0  0  0  0
   24.5880  -19.8964  -14.7857 C   0  0  0  0  0  0  0  0  0  0  0  0
   24.0992  -20.6235  -13.5662 C   0  0  2  0  0  0  0  0  0  0  0  0
   25.1135  -21.2342  -12.7712 N   0  0  0  0  0  0  0  0  0  0  0  0
   22.9890  -21.5736  -13.8967 C   0  0  0  0  0  0  0  0  0  0  0  0
   23.2471  -22.7621  -14.1863 O   0  0  0  0  0  0  0  0  0  0  0  0
   18.2047  -22.1817  -11.2991 N   0  0  0  0  0  0  0  0  0  0  0  0
   19.3344  -21.7417  -12.0764 C   0  0  0  0  0  0  0  0  0  0  0  0
   19.5650  -20.5213  -12.0212 O   0  0  0  0  0  0  0  0  0  0  0  0
   20.1350  -22.6814  -12.8627 C   0  0  0  0  0  0  0  0  0  0  0  0
   20.5869  -22.0844  -14.1645 C   0  0  2  0  0  0  0  0  0  0  0  0
   21.6739  -21.0993  -13.8723 N   0  0  0  0  0  0  0  0  0  0  0  0
   19.5051  -21.3765  -14.8595 C   0  0  0  0  0  0  0  0  0  0  0  0
   18.4206  -22.0051  -15.3835 O   0  0  0  0  0  0  0  0  0  0  0  0
   19.5748  -20.1221  -14.9831 O   0  0  0  0  0  0  0  0  0  0  0  0
  2  1  1  0
  3  2  1  0
  4  5  1  0
  4  3  1  0
  5  7  1  0
  5  6  1  6
  7  8  2  0
  9 10  1  0
 10 11  2  0
 10 12  1  0
 12 13  1  0
 14 13  1  6
 15 14  1  0
 15  7  1  0
 16 14  1  0
 16 17  2  0
 19 21  1  0
 19 18  1  0
 20 19  2  0
 22 21  1  1
 22 23  1  0
 22 24  1  0
 23 16  1  0
 24 26  2  0
 24 25  1  0
M  END
$$$$
