MQN.pdb
     RDKit          3D

 26 25  0  0  1  0  0  0  0  0999 V2000
   31.0432  -22.5733  -11.4634 C   0  0  0  0  0  0  0  0  0  0  0  0
   30.9415  -21.2968  -10.2082 S   0  0  0  0  0  0  0  0  0  0  0  0
   29.2067  -20.8562   -9.8665 C   0  0  0  0  0  0  0  0  0  0  0  0
   28.4010  -21.0171  -11.1086 C   0  0  0  0  0  0  0  0  0  0  0  0
   26.9573  -20.6680  -10.9207 C   0  0  2  0  0  0  0  0  0  0  0  0
   26.4107  -21.5361   -9.8907 N   0  0  0  0  0  0  0  0  0  0  0  0
   26.1396  -20.7368  -12.1494 C   0  0  0  0  0  0  0  0  0  0  0  0
   26.5804  -20.7910  -13.3135 O   0  0  0  0  0  0  0  0  0  0  0  0
   22.1674  -23.8568  -13.6679 N   0  0  0  0  0  0  0  0  0  0  0  0
   21.6322  -22.8841  -14.5812 C   0  0  0  0  0  0  0  0  0  0  0  0
   21.1441  -23.3067  -15.6351 O   0  0  0  0  0  0  0  0  0  0  0  0
   21.7043  -21.4715  -14.1985 C   0  0  0  0  0  0  0  0  0  0  0  0
   22.4532  -21.2640  -12.9012 C   0  0  0  0  0  0  0  0  0  0  0  0
   23.8638  -20.8259  -13.1715 C   0  0  2  0  0  0  0  0  0  0  0  0
   24.7080  -20.7423  -12.0253 N   0  0  0  0  0  0  0  0  0  0  0  0
   23.9062  -19.5778  -13.9992 C   0  0  0  0  0  0  0  0  0  0  0  0
   23.6022  -18.4775  -13.4894 O   0  0  0  0  0  0  0  0  0  0  0  0
   27.3401  -15.8247  -15.4328 N   0  0  0  0  0  0  0  0  0  0  0  0
   26.6739  -16.9002  -16.1210 C   0  0  0  0  0  0  0  0  0  0  0  0
   26.6794  -16.8116  -17.3611 O   0  0  0  0  0  0  0  0  0  0  0  0
   26.0465  -18.0032  -15.3917 C   0  0  0  0  0  0  0  0  0  0  0  0
   24.7464  -18.4233  -16.0151 C   0  0  2  0  0  0  0  0  0  0  0  0
   24.2905  -19.6777  -15.3399 N   0  0  0  0  0  0  0  0  0  0  0  0
   24.8793  -18.7007  -17.4503 C   0  0  0  0  0  0  0  0  0  0  0  0
   25.4851  -19.8139  -17.9402 O   0  0  0  0  0  0  0  0  0  0  0  0
   24.4122  -17.8717  -18.2799 O   0  0  0  0  0  0  0  0  0  0  0  0
  2  1  1  0
  3  2  1  0
  4  5  1  0
  4  3  1  0
  5  7  1  0
  5  6  1  1
  7  8  2  0
  9 10  1  0
 10 11  2  0
 10 12  1  0
 12 13  1  0
 14 13  1  1
 15 14  1  0
 15  7  1  0
 16 14  1  0
 16 17  2  0
 19 21  1  0
 19 18  1  0
 20 19  2  0
 22 21  1  1
 22 23  1  0
 22 24  1  0
 23 16  1  0
 24 26  2  0
 24 25  1  0
M  END
$$$$
