MQN.pdb
     RDKit          3D

 26 25  0  0  1  0  0  0  0  0999 V2000
   28.8250  -18.8261   -6.9287 C   0  0  0  0  0  0  0  0  0  0  0  0
   27.0712  -19.1176   -6.6952 S   0  0  0  0  0  0  0  0  0  0  0  0
   26.5837  -20.7363   -7.3753 C   0  0  0  0  0  0  0  0  0  0  0  0
   26.7741  -20.7306   -8.8524 C   0  0  0  0  0  0  0  0  0  0  0  0
   25.5604  -20.2707   -9.5985 C   0  0  2  0  0  0  0  0  0  0  0  0
   24.4065  -20.9787   -9.0688 N   0  0  0  0  0  0  0  0  0  0  0  0
   25.6404  -20.4270  -11.0655 C   0  0  0  0  0  0  0  0  0  0  0  0
   26.3813  -19.7754  -11.8264 O   0  0  0  0  0  0  0  0  0  0  0  0
   25.6722  -25.2242  -14.8889 N   0  0  0  0  0  0  0  0  0  0  0  0
   25.3858  -24.1344  -15.7815 C   0  0  0  0  0  0  0  0  0  0  0  0
   25.4451  -24.3663  -16.9941 O   0  0  0  0  0  0  0  0  0  0  0  0
   25.0471  -22.8362  -15.1924 C   0  0  0  0  0  0  0  0  0  0  0  0
   25.0559  -22.8701  -13.6806 C   0  0  0  0  0  0  0  0  0  0  0  0
   24.7330  -21.5145  -13.1213 C   0  0  2  0  0  0  0  0  0  0  0  0
   24.8031  -21.4067  -11.7011 N   0  0  0  0  0  0  0  0  0  0  0  0
   23.4426  -20.9841  -13.6672 C   0  0  0  0  0  0  0  0  0  0  0  0
   22.3954  -21.0647  -12.9890 O   0  0  0  0  0  0  0  0  0  0  0  0
   19.7764  -19.3771  -14.0464 N   0  0  0  0  0  0  0  0  0  0  0  0
   20.7470  -18.3147  -14.1038 C   0  0  0  0  0  0  0  0  0  0  0  0
   20.4384  -17.2885  -13.4733 O   0  0  0  0  0  0  0  0  0  0  0  0
   21.9953  -18.4582  -14.8542 C   0  0  0  0  0  0  0  0  0  0  0  0
   22.1501  -19.8358  -15.4318 C   0  0  2  0  0  0  0  0  0  0  0  0
   23.4432  -20.4041  -14.9395 N   0  0  0  0  0  0  0  0  0  0  0  0
   22.1862  -19.8252  -16.8990 C   0  0  0  0  0  0  0  0  0  0  0  0
   23.3066  -19.5430  -17.6140 O   0  0  0  0  0  0  0  0  0  0  0  0
   21.1307  -20.0893  -17.5393 O   0  0  0  0  0  0  0  0  0  0  0  0
  2  1  1  0
  3  2  1  0
  4  5  1  0
  4  3  1  0
  5  7  1  0
  5  6  1  1
  7  8  2  0
  9 10  1  0
 10 11  2  0
 10 12  1  0
 12 13  1  0
 14 13  1  1
 15 14  1  0
 15  7  1  0
 16 14  1  0
 16 17  2  0
 19 21  1  0
 19 18  1  0
 20 19  2  0
 22 21  1  1
 22 23  1  0
 22 24  1  0
 23 16  1  0
 24 26  2  0
 24 25  1  0
M  END
$$$$
