LFK.pdb
     RDKit          3D

 29 29  0  0  1  0  0  0  0  0999 V2000
    7.3561  -14.3480   17.7045 C   0  0  0  0  0  0  0  0  0  0  0  0
    8.0767  -13.7639   18.8612 C   0  0  2  0  0  0  0  0  0  0  0  0
    8.4887  -12.3142   18.6034 C   0  0  0  0  0  0  0  0  0  0  0  0
    9.3099  -14.5051   19.2346 C   0  0  0  0  0  0  0  0  0  0  0  0
    9.0477  -15.6309   20.1600 C   0  0  2  0  0  0  0  0  0  0  0  0
    7.8828  -16.4117   19.9451 N   0  0  0  0  0  0  0  0  0  0  0  0
    9.2043  -15.2340   21.6017 C   0  0  0  0  0  0  0  0  0  0  0  0
   10.3369  -14.8347   22.0222 O   0  0  0  0  0  0  0  0  0  0  0  0
    8.1572  -15.2768   22.5383 N   0  0  0  0  0  0  0  0  0  0  0  0
    8.2845  -14.8683   23.9313 C   0  0  1  0  0  0  0  0  0  0  0  0
    7.0254  -14.1311   24.2604 C   0  0  0  0  0  0  0  0  0  0  0  0
    6.9896  -13.5052   25.5896 C   0  0  0  0  0  0  0  0  0  0  0  0
    7.8342  -12.4535   25.9144 C   0  0  0  0  0  0  0  0  0  0  0  0
    7.7937  -11.8596   27.1610 C   0  0  0  0  0  0  0  0  0  0  0  0
    6.9132  -12.2875   28.1314 C   0  0  0  0  0  0  0  0  0  0  0  0
    6.0722  -13.3231   27.8303 C   0  0  0  0  0  0  0  0  0  0  0  0
    6.1197  -13.9123   26.5781 C   0  0  0  0  0  0  0  0  0  0  0  0
    8.3932  -16.0719   24.7948 C   0  0  0  0  0  0  0  0  0  0  0  0
    7.5336  -17.0182   24.7080 O   0  0  0  0  0  0  0  0  0  0  0  0
    9.4495  -16.1634   25.7099 N   0  0  0  0  0  0  0  0  0  0  0  0
    9.7320  -17.4588   26.4612 C   0  0  1  0  0  0  0  0  0  0  0  0
   10.6117  -18.1666   25.5046 C   0  0  0  0  0  0  0  0  0  0  0  0
   10.8453  -19.6068   25.5973 C   0  0  0  0  0  0  0  0  0  0  0  0
   11.6642  -20.2267   24.5350 C   0  0  0  0  0  0  0  0  0  0  0  0
   11.6894  -21.7261   24.7005 C   0  0  0  0  0  0  0  0  0  0  0  0
   12.2908  -22.2959   23.5019 N   0  0  0  0  0  0  0  0  0  0  0  0
   10.2396  -17.0679   27.7613 C   0  0  0  0  0  0  0  0  0  0  0  0
   10.2004  -17.8168   28.9019 O   0  0  0  0  0  0  0  0  0  0  0  0
   10.7793  -15.9051   27.8940 O   0  0  0  0  0  0  0  0  0  0  0  0
  2  3  1  6
  2  1  1  0
  4  2  1  0
  5  4  1  0
  5  6  1  1
  7  5  1  0
  7  8  2  0
  9  7  1  0
 10  9  1  0
 10 11  1  1
 11 12  1  0
 12 17  2  0
 12 13  1  0
 13 14  2  0
 15 14  1  0
 16 15  2  0
 17 16  1  0
 18 10  1  0
 19 18  2  0
 20 18  1  0
 21 22  1  6
 21 20  1  0
 22 23  1  0
 23 24  1  0
 24 25  1  0
 26 25  1  0
 27 28  1  0
 27 21  1  0
 29 27  2  0
M  END
$$$$
