LFK.pdb
     RDKit          3D

 29 29  0  0  1  0  0  0  0  0999 V2000
    7.0061  -13.9976   18.0145 C   0  0  0  0  0  0  0  0  0  0  0  0
    8.0225  -13.6052   19.0201 C   0  0  2  0  0  0  0  0  0  0  0  0
    8.6080  -12.2230   18.7296 C   0  0  0  0  0  0  0  0  0  0  0  0
    9.1667  -14.5494   19.1147 C   0  0  0  0  0  0  0  0  0  0  0  0
    8.8987  -15.6909   20.0189 C   0  0  2  0  0  0  0  0  0  0  0  0
    7.6884  -16.4099   19.8424 N   0  0  0  0  0  0  0  0  0  0  0  0
    9.1473  -15.3480   21.4615 C   0  0  0  0  0  0  0  0  0  0  0  0
   10.3073  -14.9722   21.8252 O   0  0  0  0  0  0  0  0  0  0  0  0
    8.1596  -15.4178   22.4589 N   0  0  0  0  0  0  0  0  0  0  0  0
    8.3719  -15.0464   23.8519 C   0  0  1  0  0  0  0  0  0  0  0  0
    7.1698  -14.2520   24.2535 C   0  0  0  0  0  0  0  0  0  0  0  0
    7.2395  -13.6306   25.5835 C   0  0  0  0  0  0  0  0  0  0  0  0
    7.9142  -12.4355   25.7866 C   0  0  0  0  0  0  0  0  0  0  0  0
    7.9715  -11.8473   27.0352 C   0  0  0  0  0  0  0  0  0  0  0  0
    7.3611  -12.4235   28.1286 C   0  0  0  0  0  0  0  0  0  0  0  0
    6.6908  -13.6019   27.9486 C   0  0  0  0  0  0  0  0  0  0  0  0
    6.6385  -14.1843   26.6934 C   0  0  0  0  0  0  0  0  0  0  0  0
    8.4561  -16.2722   24.6864 C   0  0  0  0  0  0  0  0  0  0  0  0
    7.5171  -17.1438   24.6640 O   0  0  0  0  0  0  0  0  0  0  0  0
    9.5774  -16.4676   25.5026 N   0  0  0  0  0  0  0  0  0  0  0  0
    9.8087  -17.7915   26.2210 C   0  0  1  0  0  0  0  0  0  0  0  0
   11.0359  -18.2776   25.5518 C   0  0  0  0  0  0  0  0  0  0  0  0
   11.1372  -18.3545   24.0954 C   0  0  0  0  0  0  0  0  0  0  0  0
   12.4063  -18.8614   23.5337 C   0  0  0  0  0  0  0  0  0  0  0  0
   12.4222  -18.6883   22.0351 C   0  0  0  0  0  0  0  0  0  0  0  0
   13.7012  -19.1840   21.5435 N   0  0  0  0  0  0  0  0  0  0  0  0
    9.8279  -17.4834   27.6371 C   0  0  0  0  0  0  0  0  0  0  0  0
    9.8062  -16.2366   28.1924 O   0  0  0  0  0  0  0  0  0  0  0  0
    9.8788  -18.4537   28.4838 O   0  0  0  0  0  0  0  0  0  0  0  0
  2  3  1  6
  2  1  1  0
  4  2  1  0
  5  4  1  0
  5  6  1  1
  7  5  1  0
  7  8  2  0
  9  7  1  0
 10  9  1  0
 10 11  1  1
 11 12  1  0
 12 17  2  0
 12 13  1  0
 13 14  2  0
 15 14  1  0
 16 15  2  0
 17 16  1  0
 18 10  1  0
 19 18  2  0
 20 18  1  0
 21 22  1  6
 21 20  1  0
 22 23  1  0
 23 24  1  0
 24 25  1  0
 26 25  1  0
 27 28  1  0
 27 21  1  0
 29 27  2  0
M  END
$$$$
