LFK.pdb
     RDKit          3D

 29 29  0  0  1  0  0  0  0  0999 V2000
    5.8217  -17.8232   18.6241 C   0  0  0  0  0  0  0  0  0  0  0  0
    7.2941  -17.9731   18.5352 C   0  0  2  0  0  0  0  0  0  0  0  0
    7.7080  -19.4319   18.3395 C   0  0  0  0  0  0  0  0  0  0  0  0
    8.0201  -17.4734   19.7322 C   0  0  0  0  0  0  0  0  0  0  0  0
    7.6419  -16.0898   20.0998 C   0  0  2  0  0  0  0  0  0  0  0  0
    7.7492  -15.0840   19.1049 N   0  0  0  0  0  0  0  0  0  0  0  0
    8.2485  -15.6596   21.4065 C   0  0  0  0  0  0  0  0  0  0  0  0
    9.4137  -15.1483   21.4181 O   0  0  0  0  0  0  0  0  0  0  0  0
    7.5983  -15.7888   22.6458 N   0  0  0  0  0  0  0  0  0  0  0  0
    8.1938  -15.4307   23.9266 C   0  0  1  0  0  0  0  0  0  0  0  0
    7.0493  -15.1733   24.8546 C   0  0  0  0  0  0  0  0  0  0  0  0
    6.9492  -13.7996   25.3672 C   0  0  0  0  0  0  0  0  0  0  0  0
    7.9690  -12.8800   25.1694 C   0  0  0  0  0  0  0  0  0  0  0  0
    7.8702  -11.5863   25.6435 C   0  0  0  0  0  0  0  0  0  0  0  0
    6.7555  -11.1573   26.3316 C   0  0  0  0  0  0  0  0  0  0  0  0
    5.7392  -12.0492   26.5366 C   0  0  0  0  0  0  0  0  0  0  0  0
    5.8468  -13.3440   26.0577 C   0  0  0  0  0  0  0  0  0  0  0  0
    8.9982  -16.5701   24.4372 C   0  0  0  0  0  0  0  0  0  0  0  0
    8.4931  -17.7454   24.5112 O   0  0  0  0  0  0  0  0  0  0  0  0
   10.3210  -16.3469   24.8395 N   0  0  0  0  0  0  0  0  0  0  0  0
   11.2038  -17.4931   25.3185 C   0  0  1  0  0  0  0  0  0  0  0  0
   12.5065  -17.1308   24.7171 C   0  0  0  0  0  0  0  0  0  0  0  0
   13.6854  -17.9819   24.8688 C   0  0  0  0  0  0  0  0  0  0  0  0
   14.9088  -17.5738   24.1478 C   0  0  0  0  0  0  0  0  0  0  0  0
   15.9634  -18.6473   24.2556 C   0  0  0  0  0  0  0  0  0  0  0  0
   17.0529  -18.2928   23.3553 N   0  0  0  0  0  0  0  0  0  0  0  0
   11.0575  -17.5390   26.7598 C   0  0  0  0  0  0  0  0  0  0  0  0
   11.4091  -18.5765   27.5742 O   0  0  0  0  0  0  0  0  0  0  0  0
   10.5422  -16.5245   27.3649 O   0  0  0  0  0  0  0  0  0  0  0  0
  2  3  1  1
  2  1  1  0
  4  2  1  0
  5  4  1  0
  5  6  1  6
  7  5  1  0
  7  8  2  0
  9  7  1  0
 10  9  1  0
 10 11  1  1
 11 12  1  0
 12 17  2  0
 12 13  1  0
 13 14  2  0
 15 14  1  0
 16 15  2  0
 17 16  1  0
 18 10  1  0
 19 18  2  0
 20 18  1  0
 21 22  1  1
 21 20  1  0
 22 23  1  0
 23 24  1  0
 24 25  1  0
 26 25  1  0
 27 28  1  0
 27 21  1  0
 29 27  2  0
M  END
$$$$
