LFK.pdb
     RDKit          3D

 29 29  0  0  1  0  0  0  0  0999 V2000
    6.6734  -13.5972   19.0538 C   0  0  0  0  0  0  0  0  0  0  0  0
    8.0325  -13.3564   19.5951 C   0  0  2  0  0  0  0  0  0  0  0  0
    8.6265  -12.0444   19.0818 C   0  0  0  0  0  0  0  0  0  0  0  0
    9.0064  -14.4305   19.2674 C   0  0  0  0  0  0  0  0  0  0  0  0
    8.8863  -15.6084   20.1566 C   0  0  2  0  0  0  0  0  0  0  0  0
    7.7608  -16.4560   19.9902 N   0  0  0  0  0  0  0  0  0  0  0  0
    9.1241  -15.2614   21.6001 C   0  0  0  0  0  0  0  0  0  0  0  0
   10.3032  -14.9879   21.9926 O   0  0  0  0  0  0  0  0  0  0  0  0
    8.1059  -15.2192   22.5679 N   0  0  0  0  0  0  0  0  0  0  0  0
    8.3156  -14.8635   23.9654 C   0  0  1  0  0  0  0  0  0  0  0  0
    7.1016  -14.0948   24.3807 C   0  0  0  0  0  0  0  0  0  0  0  0
    7.1283  -13.5653   25.7515 C   0  0  0  0  0  0  0  0  0  0  0  0
    8.0379  -12.5882   26.1295 C   0  0  0  0  0  0  0  0  0  0  0  0
    8.0564  -12.0844   27.4155 C   0  0  0  0  0  0  0  0  0  0  0  0
    7.1727  -12.5317   28.3742 C   0  0  0  0  0  0  0  0  0  0  0  0
    6.2682  -13.4947   28.0209 C   0  0  0  0  0  0  0  0  0  0  0  0
    6.2568  -13.9939   26.7294 C   0  0  0  0  0  0  0  0  0  0  0  0
    8.4224  -16.0991   24.7826 C   0  0  0  0  0  0  0  0  0  0  0  0
    7.4826  -16.9701   24.7763 O   0  0  0  0  0  0  0  0  0  0  0  0
    9.5660  -16.3044   25.5647 N   0  0  0  0  0  0  0  0  0  0  0  0
    9.7801  -17.6100   26.3211 C   0  0  1  0  0  0  0  0  0  0  0  0
   10.7728  -18.2890   25.4587 C   0  0  0  0  0  0  0  0  0  0  0  0
   10.3656  -19.1296   24.3342 C   0  0  0  0  0  0  0  0  0  0  0  0
   11.4394  -19.7791   23.5543 C   0  0  0  0  0  0  0  0  0  0  0  0
   11.0789  -19.8088   22.0897 C   0  0  0  0  0  0  0  0  0  0  0  0
   12.2561  -20.2456   21.3504 N   0  0  0  0  0  0  0  0  0  0  0  0
   10.1312  -17.2371   27.6769 C   0  0  0  0  0  0  0  0  0  0  0  0
   10.0382  -18.0321   28.7827 O   0  0  0  0  0  0  0  0  0  0  0  0
   10.5691  -16.0457   27.9004 O   0  0  0  0  0  0  0  0  0  0  0  0
  2  3  1  6
  2  1  1  0
  4  2  1  0
  5  4  1  0
  5  6  1  1
  7  5  1  0
  7  8  2  0
  9  7  1  0
 10  9  1  0
 10 11  1  1
 11 12  1  0
 12 17  2  0
 12 13  1  0
 13 14  2  0
 15 14  1  0
 16 15  2  0
 17 16  1  0
 18 10  1  0
 19 18  2  0
 20 18  1  0
 21 22  1  6
 21 20  1  0
 22 23  1  0
 23 24  1  0
 24 25  1  0
 26 25  1  0
 27 28  1  0
 27 21  1  0
 29 27  2  0
M  END
$$$$
