LFK.pdb
     RDKit          3D

 29 29  0  0  1  0  0  0  0  0999 V2000
    8.5142  -14.3991   18.2301 C   0  0  0  0  0  0  0  0  0  0  0  0
    7.6752  -13.7059   19.2370 C   0  0  2  0  0  0  0  0  0  0  0  0
    7.4858  -12.2266   18.9005 C   0  0  0  0  0  0  0  0  0  0  0  0
    8.2217  -13.7697   20.6179 C   0  0  0  0  0  0  0  0  0  0  0  0
    8.2913  -15.1509   21.1470 C   0  0  2  0  0  0  0  0  0  0  0  0
    7.1663  -15.9942   20.9564 N   0  0  0  0  0  0  0  0  0  0  0  0
    8.7985  -15.1961   22.5616 C   0  0  0  0  0  0  0  0  0  0  0  0
    9.9260  -14.6759   22.8399 O   0  0  0  0  0  0  0  0  0  0  0  0
    8.0932  -15.7902   23.6222 N   0  0  0  0  0  0  0  0  0  0  0  0
    8.5329  -15.7746   25.0114 C   0  0  1  0  0  0  0  0  0  0  0  0
    7.3228  -15.4343   25.8220 C   0  0  0  0  0  0  0  0  0  0  0  0
    7.0900  -13.9992   26.0365 C   0  0  0  0  0  0  0  0  0  0  0  0
    5.8762  -13.4095   25.7145 C   0  0  0  0  0  0  0  0  0  0  0  0
    5.6549  -12.0623   25.9250 C   0  0  0  0  0  0  0  0  0  0  0  0
    6.6303  -11.2503   26.4629 C   0  0  0  0  0  0  0  0  0  0  0  0
    7.8338  -11.8131   26.7871 C   0  0  0  0  0  0  0  0  0  0  0  0
    8.0468  -13.1645   26.5728 C   0  0  0  0  0  0  0  0  0  0  0  0
    9.0212  -17.1242   25.3939 C   0  0  0  0  0  0  0  0  0  0  0  0
    8.2599  -18.1492   25.2866 O   0  0  0  0  0  0  0  0  0  0  0  0
   10.3286  -17.2668   25.8757 N   0  0  0  0  0  0  0  0  0  0  0  0
   10.8699  -18.6278   26.2965 C   0  0  1  0  0  0  0  0  0  0  0  0
   12.1008  -18.7188   25.4801 C   0  0  0  0  0  0  0  0  0  0  0  0
   12.0553  -18.7136   24.0190 C   0  0  0  0  0  0  0  0  0  0  0  0
   13.3271  -18.9468   23.3039 C   0  0  0  0  0  0  0  0  0  0  0  0
   13.1280  -18.7922   21.8164 C   0  0  0  0  0  0  0  0  0  0  0  0
   14.4161  -19.0080   21.1703 N   0  0  0  0  0  0  0  0  0  0  0  0
   10.9590  -18.5962   27.7428 C   0  0  0  0  0  0  0  0  0  0  0  0
   11.1545  -19.6695   28.5632 O   0  0  0  0  0  0  0  0  0  0  0  0
   10.8384  -17.4650   28.3485 O   0  0  0  0  0  0  0  0  0  0  0  0
  2  3  1  6
  2  1  1  0
  4  2  1  0
  5  4  1  0
  5  6  1  1
  7  5  1  0
  7  8  2  0
  9  7  1  0
 10  9  1  0
 10 11  1  1
 11 12  1  0
 12 17  2  0
 12 13  1  0
 13 14  2  0
 15 14  1  0
 16 15  2  0
 17 16  1  0
 18 10  1  0
 19 18  2  0
 20 18  1  0
 21 22  1  6
 21 20  1  0
 22 23  1  0
 23 24  1  0
 24 25  1  0
 26 25  1  0
 27 28  1  0
 27 21  1  0
 29 27  2  0
M  END
$$$$
