LFK.pdb
     RDKit          3D

 29 29  0  0  1  0  0  0  0  0999 V2000
    9.0630  -18.7819   17.4979 C   0  0  0  0  0  0  0  0  0  0  0  0
    8.9445  -17.3097   17.6277 C   0  0  2  0  0  0  0  0  0  0  0  0
    9.5317  -16.5815   16.4183 C   0  0  0  0  0  0  0  0  0  0  0  0
    9.6169  -16.7590   18.8336 C   0  0  0  0  0  0  0  0  0  0  0  0
    9.0151  -17.2386   20.0987 C   0  0  2  0  0  0  0  0  0  0  0  0
    7.6957  -17.7581   20.0531 N   0  0  0  0  0  0  0  0  0  0  0  0
    9.1990  -16.2607   21.2258 C   0  0  0  0  0  0  0  0  0  0  0  0
   10.2931  -15.6189   21.3262 O   0  0  0  0  0  0  0  0  0  0  0  0
    8.2191  -16.0032   22.1999 N   0  0  0  0  0  0  0  0  0  0  0  0
    8.4359  -15.1859   23.3867 C   0  0  1  0  0  0  0  0  0  0  0  0
    7.1612  -14.4352   23.6075 C   0  0  0  0  0  0  0  0  0  0  0  0
    7.1305  -13.5821   24.8038 C   0  0  0  0  0  0  0  0  0  0  0  0
    6.4107  -13.9479   25.9321 C   0  0  0  0  0  0  0  0  0  0  0  0
    6.3898  -13.1500   27.0595 C   0  0  0  0  0  0  0  0  0  0  0  0
    7.0824  -11.9593   27.1089 C   0  0  0  0  0  0  0  0  0  0  0  0
    7.7982  -11.5813   26.0066 C   0  0  0  0  0  0  0  0  0  0  0  0
    7.8136  -12.3875   24.8808 C   0  0  0  0  0  0  0  0  0  0  0  0
    8.7011  -16.0648   24.5543 C   0  0  0  0  0  0  0  0  0  0  0  0
    7.8901  -17.0088   24.8593 O   0  0  0  0  0  0  0  0  0  0  0  0
    9.8521  -15.8510   25.3232 N   0  0  0  0  0  0  0  0  0  0  0  0
   10.2790  -16.8445   26.3970 C   0  0  1  0  0  0  0  0  0  0  0  0
   11.5831  -17.3039   25.8695 C   0  0  0  0  0  0  0  0  0  0  0  0
   11.6910  -18.0002   24.5886 C   0  0  0  0  0  0  0  0  0  0  0  0
   13.0431  -18.4091   24.1553 C   0  0  0  0  0  0  0  0  0  0  0  0
   12.9923  -19.0007   22.7684 C   0  0  0  0  0  0  0  0  0  0  0  0
   14.3634  -19.2354   22.3343 N   0  0  0  0  0  0  0  0  0  0  0  0
   10.2168  -16.1286   27.6557 C   0  0  0  0  0  0  0  0  0  0  0  0
   10.1378  -16.6868   28.8989 O   0  0  0  0  0  0  0  0  0  0  0  0
   10.2264  -14.8400   27.6391 O   0  0  0  0  0  0  0  0  0  0  0  0
  2  3  1  6
  2  1  1  0
  4  2  1  0
  5  4  1  0
  5  6  1  6
  7  5  1  0
  7  8  2  0
  9  7  1  0
 10  9  1  0
 10 11  1  1
 11 12  1  0
 12 17  2  0
 12 13  1  0
 13 14  2  0
 15 14  1  0
 16 15  2  0
 17 16  1  0
 18 10  1  0
 19 18  2  0
 20 18  1  0
 21 22  1  6
 21 20  1  0
 22 23  1  0
 23 24  1  0
 24 25  1  0
 26 25  1  0
 27 28  1  0
 27 21  1  0
 29 27  2  0
M  END
$$$$
