LFK.pdb
     RDKit          3D

 29 29  0  0  1  0  0  0  0  0999 V2000
    8.1843  -15.0746   16.8164 C   0  0  0  0  0  0  0  0  0  0  0  0
    8.0539  -14.0485   17.8787 C   0  0  2  0  0  0  0  0  0  0  0  0
    8.0982  -12.6300   17.3098 C   0  0  0  0  0  0  0  0  0  0  0  0
    9.1091  -14.1300   18.9225 C   0  0  0  0  0  0  0  0  0  0  0  0
    8.9333  -15.2861   19.8308 C   0  0  2  0  0  0  0  0  0  0  0  0
    7.7853  -16.1012   19.6561 N   0  0  0  0  0  0  0  0  0  0  0  0
    9.1519  -14.9188   21.2723 C   0  0  0  0  0  0  0  0  0  0  0  0
   10.2743  -14.4406   21.6337 O   0  0  0  0  0  0  0  0  0  0  0  0
    8.1752  -15.0733   22.2710 N   0  0  0  0  0  0  0  0  0  0  0  0
    8.3663  -14.7104   23.6694 C   0  0  1  0  0  0  0  0  0  0  0  0
    7.1742  -13.8901   24.0479 C   0  0  0  0  0  0  0  0  0  0  0  0
    7.1835  -13.3582   25.4179 C   0  0  0  0  0  0  0  0  0  0  0  0
    6.4383  -13.9512   26.4268 C   0  0  0  0  0  0  0  0  0  0  0  0
    6.4548  -13.4562   27.7164 C   0  0  0  0  0  0  0  0  0  0  0  0
    7.2115  -12.3542   28.0524 C   0  0  0  0  0  0  0  0  0  0  0  0
    7.9533  -11.7556   27.0717 C   0  0  0  0  0  0  0  0  0  0  0  0
    7.9309  -12.2587   25.7818 C   0  0  0  0  0  0  0  0  0  0  0  0
    8.4051  -15.9401   24.5016 C   0  0  0  0  0  0  0  0  0  0  0  0
    7.6243  -16.9244   24.2499 O   0  0  0  0  0  0  0  0  0  0  0  0
    9.3079  -16.0140   25.5698 N   0  0  0  0  0  0  0  0  0  0  0  0
    9.8312  -17.3556   26.0686 C   0  0  1  0  0  0  0  0  0  0  0  0
   10.7187  -17.7567   24.9544 C   0  0  0  0  0  0  0  0  0  0  0  0
   10.8998  -19.1592   24.5838 C   0  0  0  0  0  0  0  0  0  0  0  0
   11.7582  -19.4422   23.4149 C   0  0  0  0  0  0  0  0  0  0  0  0
   11.9587  -20.9294   23.2598 C   0  0  0  0  0  0  0  0  0  0  0  0
   12.8663  -21.1416   22.1398 N   0  0  0  0  0  0  0  0  0  0  0  0
   10.3855  -17.1076   27.3847 C   0  0  0  0  0  0  0  0  0  0  0  0
   10.5844  -18.0364   28.3650 O   0  0  0  0  0  0  0  0  0  0  0  0
   10.7273  -15.9053   27.6988 O   0  0  0  0  0  0  0  0  0  0  0  0
  2  3  1  6
  2  1  1  0
  4  2  1  0
  5  4  1  0
  5  6  1  1
  7  5  1  0
  7  8  2  0
  9  7  1  0
 10  9  1  0
 10 11  1  1
 11 12  1  0
 12 17  2  0
 12 13  1  0
 13 14  2  0
 15 14  1  0
 16 15  2  0
 17 16  1  0
 18 10  1  0
 19 18  2  0
 20 18  1  0
 21 22  1  6
 21 20  1  0
 22 23  1  0
 23 24  1  0
 24 25  1  0
 26 25  1  0
 27 28  1  0
 27 21  1  0
 29 27  2  0
M  END
$$$$
