LFK.pdb
     RDKit          3D

 29 29  0  0  1  0  0  0  0  0999 V2000
    7.9466  -14.2942   18.1155 C   0  0  0  0  0  0  0  0  0  0  0  0
    7.5911  -13.4301   19.2667 C   0  0  2  0  0  0  0  0  0  0  0  0
    7.5801  -11.9493   18.8862 C   0  0  0  0  0  0  0  0  0  0  0  0
    8.5081  -13.5725   20.4278 C   0  0  0  0  0  0  0  0  0  0  0  0
    8.4721  -14.9254   21.0284 C   0  0  2  0  0  0  0  0  0  0  0  0
    7.2144  -15.5737   21.1334 N   0  0  0  0  0  0  0  0  0  0  0  0
    9.2572  -15.0038   22.3082 C   0  0  0  0  0  0  0  0  0  0  0  0
   10.4447  -14.5482   22.3436 O   0  0  0  0  0  0  0  0  0  0  0  0
    8.7542  -15.5613   23.4963 N   0  0  0  0  0  0  0  0  0  0  0  0
    9.5002  -15.6417   24.7456 C   0  0  1  0  0  0  0  0  0  0  0  0
    8.5708  -15.1546   25.8115 C   0  0  0  0  0  0  0  0  0  0  0  0
    9.1684  -14.9940   27.1446 C   0  0  0  0  0  0  0  0  0  0  0  0
    9.5243  -13.7438   27.6294 C   0  0  0  0  0  0  0  0  0  0  0  0
   10.0774  -13.5926   28.8862 C   0  0  0  0  0  0  0  0  0  0  0  0
   10.2977  -14.6768   29.7084 C   0  0  0  0  0  0  0  0  0  0  0  0
    9.9533  -15.9178   29.2484 C   0  0  0  0  0  0  0  0  0  0  0  0
    9.3993  -16.0599   27.9873 C   0  0  0  0  0  0  0  0  0  0  0  0
    9.8662  -17.0554   25.0164 C   0  0  0  0  0  0  0  0  0  0  0  0
    8.9625  -17.9601   25.0989 O   0  0  0  0  0  0  0  0  0  0  0  0
   11.2155  -17.3924   25.1818 N   0  0  0  0  0  0  0  0  0  0  0  0
   11.6433  -18.8331   25.4341 C   0  0  1  0  0  0  0  0  0  0  0  0
   12.6122  -19.0478   24.3363 C   0  0  0  0  0  0  0  0  0  0  0  0
   12.1965  -19.0496   22.9348 C   0  0  0  0  0  0  0  0  0  0  0  0
   13.2281  -19.3678   21.9260 C   0  0  0  0  0  0  0  0  0  0  0  0
   12.6842  -19.1544   20.5350 C   0  0  0  0  0  0  0  0  0  0  0  0
   13.7719  -19.3813   19.5923 N   0  0  0  0  0  0  0  0  0  0  0  0
   12.0859  -18.8862   26.8133 C   0  0  0  0  0  0  0  0  0  0  0  0
   12.1842  -20.0064   27.5871 O   0  0  0  0  0  0  0  0  0  0  0  0
   12.4190  -17.7891   27.4019 O   0  0  0  0  0  0  0  0  0  0  0  0
  2  3  1  6
  2  1  1  0
  4  2  1  0
  5  4  1  0
  5  6  1  1
  7  5  1  0
  7  8  2  0
  9  7  1  0
 10  9  1  0
 10 11  1  1
 11 12  1  0
 12 17  2  0
 12 13  1  0
 13 14  2  0
 15 14  1  0
 16 15  2  0
 17 16  1  0
 18 10  1  0
 19 18  2  0
 20 18  1  0
 21 22  1  6
 21 20  1  0
 22 23  1  0
 23 24  1  0
 24 25  1  0
 26 25  1  0
 27 28  1  0
 27 21  1  0
 29 27  2  0
M  END
$$$$
