LFK.pdb
     RDKit          3D

 29 29  0  0  1  0  0  0  0  0999 V2000
    7.8374  -14.6605   17.1832 C   0  0  0  0  0  0  0  0  0  0  0  0
    7.8939  -13.9102   18.4608 C   0  0  2  0  0  0  0  0  0  0  0  0
    7.7902  -12.4007   18.2407 C   0  0  0  0  0  0  0  0  0  0  0  0
    9.1360  -14.1499   19.2415 C   0  0  0  0  0  0  0  0  0  0  0  0
    9.0620  -15.3658   20.0832 C   0  0  2  0  0  0  0  0  0  0  0  0
    7.9789  -16.2572   19.8712 N   0  0  0  0  0  0  0  0  0  0  0  0
    9.2693  -15.0647   21.5416 C   0  0  0  0  0  0  0  0  0  0  0  0
   10.3799  -14.5796   21.9295 O   0  0  0  0  0  0  0  0  0  0  0  0
    8.2944  -15.2901   22.5286 N   0  0  0  0  0  0  0  0  0  0  0  0
    8.4352  -14.9007   23.9257 C   0  0  1  0  0  0  0  0  0  0  0  0
    7.1639  -14.2007   24.2877 C   0  0  0  0  0  0  0  0  0  0  0  0
    7.1193  -13.6340   25.6430 C   0  0  0  0  0  0  0  0  0  0  0  0
    8.0875  -12.7437   26.0845 C   0  0  0  0  0  0  0  0  0  0  0  0
    8.0399  -12.2043   27.3553 C   0  0  0  0  0  0  0  0  0  0  0  0
    7.0295  -12.5286   28.2351 C   0  0  0  0  0  0  0  0  0  0  0  0
    6.0655  -13.4045   27.8183 C   0  0  0  0  0  0  0  0  0  0  0  0
    6.1211  -13.9402   26.5426 C   0  0  0  0  0  0  0  0  0  0  0  0
    8.5884  -16.1148   24.7675 C   0  0  0  0  0  0  0  0  0  0  0  0
    7.6504  -16.9851   24.8361 O   0  0  0  0  0  0  0  0  0  0  0  0
    9.7739  -16.3005   25.4898 N   0  0  0  0  0  0  0  0  0  0  0  0
    9.9885  -17.5417   26.3476 C   0  0  1  0  0  0  0  0  0  0  0  0
   11.1131  -18.1951   25.6416 C   0  0  0  0  0  0  0  0  0  0  0  0
   11.0220  -18.5661   24.2305 C   0  0  0  0  0  0  0  0  0  0  0  0
   12.2164  -19.1829   23.6171 C   0  0  0  0  0  0  0  0  0  0  0  0
   11.9986  -19.3898   22.1386 C   0  0  0  0  0  0  0  0  0  0  0  0
   13.2569  -19.8464   21.5631 N   0  0  0  0  0  0  0  0  0  0  0  0
   10.1621  -17.0674   27.7061 C   0  0  0  0  0  0  0  0  0  0  0  0
   10.2663  -15.7643   28.0991 O   0  0  0  0  0  0  0  0  0  0  0  0
   10.2381  -17.9298   28.6607 O   0  0  0  0  0  0  0  0  0  0  0  0
  2  3  1  6
  2  1  1  0
  4  2  1  0
  5  4  1  0
  5  6  1  1
  7  5  1  0
  7  8  2  0
  9  7  1  0
 10  9  1  0
 10 11  1  1
 11 12  1  0
 12 17  2  0
 12 13  1  0
 13 14  2  0
 15 14  1  0
 16 15  2  0
 17 16  1  0
 18 10  1  0
 19 18  2  0
 20 18  1  0
 21 22  1  6
 21 20  1  0
 22 23  1  0
 23 24  1  0
 24 25  1  0
 26 25  1  0
 27 28  1  0
 27 21  1  0
 29 27  2  0
M  END
$$$$
