LFK.pdb
     RDKit          3D

 29 29  0  0  1  0  0  0  0  0999 V2000
   10.4361  -19.7897   19.1671 C   0  0  0  0  0  0  0  0  0  0  0  0
   10.8196  -18.4449   18.6742 C   0  0  2  0  0  0  0  0  0  0  0  0
   12.1863  -18.4572   17.9888 C   0  0  0  0  0  0  0  0  0  0  0  0
   10.8789  -17.4109   19.7405 C   0  0  0  0  0  0  0  0  0  0  0  0
    9.6085  -17.2828   20.4904 C   0  0  2  0  0  0  0  0  0  0  0  0
    8.4179  -17.0645   19.7503 N   0  0  0  0  0  0  0  0  0  0  0  0
    9.7272  -16.3454   21.6598 C   0  0  0  0  0  0  0  0  0  0  0  0
   10.8532  -15.8163   21.9269 O   0  0  0  0  0  0  0  0  0  0  0  0
    8.6510  -16.0074   22.4981 N   0  0  0  0  0  0  0  0  0  0  0  0
    8.7531  -15.1159   23.6463 C   0  0  1  0  0  0  0  0  0  0  0  0
    7.4271  -14.4324   23.7554 C   0  0  0  0  0  0  0  0  0  0  0  0
    7.2716  -13.5374   24.9107 C   0  0  0  0  0  0  0  0  0  0  0  0
    6.5502  -13.9244   26.0308 C   0  0  0  0  0  0  0  0  0  0  0  0
    6.4122  -13.0863   27.1201 C   0  0  0  0  0  0  0  0  0  0  0  0
    6.9853  -11.8328   27.1382 C   0  0  0  0  0  0  0  0  0  0  0  0
    7.7007  -11.4330   26.0433 C   0  0  0  0  0  0  0  0  0  0  0  0
    7.8339  -12.2798   24.9559 C   0  0  0  0  0  0  0  0  0  0  0  0
    9.0013  -15.9131   24.8747 C   0  0  0  0  0  0  0  0  0  0  0  0
    8.2914  -16.9470   25.1373 O   0  0  0  0  0  0  0  0  0  0  0  0
   10.0239  -15.5220   25.7482 N   0  0  0  0  0  0  0  0  0  0  0  0
   10.4973  -16.4394   26.8692 C   0  0  1  0  0  0  0  0  0  0  0  0
   11.8908  -16.7147   26.4539 C   0  0  0  0  0  0  0  0  0  0  0  0
   12.2358  -17.8884   25.6535 C   0  0  0  0  0  0  0  0  0  0  0  0
   13.6586  -18.0668   25.2969 C   0  0  0  0  0  0  0  0  0  0  0  0
   13.8441  -19.3341   24.4996 C   0  0  0  0  0  0  0  0  0  0  0  0
   15.2494  -19.4221   24.1246 N   0  0  0  0  0  0  0  0  0  0  0  0
   10.2353  -15.7317   28.1066 C   0  0  0  0  0  0  0  0  0  0  0  0
   10.1141  -16.2905   29.3461 O   0  0  0  0  0  0  0  0  0  0  0  0
   10.0882  -14.4518   28.0716 O   0  0  0  0  0  0  0  0  0  0  0  0
  2  3  1  1
  2  1  1  0
  4  2  1  0
  5  4  1  0
  5  6  1  6
  7  5  1  0
  7  8  2  0
  9  7  1  0
 10  9  1  0
 10 11  1  1
 11 12  1  0
 12 17  2  0
 12 13  1  0
 13 14  2  0
 15 14  1  0
 16 15  2  0
 17 16  1  0
 18 10  1  0
 19 18  2  0
 20 18  1  0
 21 22  1  6
 21 20  1  0
 22 23  1  0
 23 24  1  0
 24 25  1  0
 26 25  1  0
 27 28  1  0
 27 21  1  0
 29 27  2  0
M  END
$$$$
