LFK.pdb
     RDKit          3D

 29 29  0  0  1  0  0  0  0  0999 V2000
    7.3737  -14.0943   18.3303 C   0  0  0  0  0  0  0  0  0  0  0  0
    7.4112  -13.4447   19.6626 C   0  0  2  0  0  0  0  0  0  0  0  0
    7.4842  -11.9215   19.5526 C   0  0  0  0  0  0  0  0  0  0  0  0
    8.5578  -13.8738   20.5057 C   0  0  0  0  0  0  0  0  0  0  0  0
    8.3693  -15.2197   21.0935 C   0  0  2  0  0  0  0  0  0  0  0  0
    7.1133  -15.8545   20.9138 N   0  0  0  0  0  0  0  0  0  0  0  0
    8.8403  -15.2917   22.5195 C   0  0  0  0  0  0  0  0  0  0  0  0
   10.0066  -14.8780   22.8158 O   0  0  0  0  0  0  0  0  0  0  0  0
    8.0589  -15.7988   23.5720 N   0  0  0  0  0  0  0  0  0  0  0  0
    8.5186  -15.9242   24.9491 C   0  0  1  0  0  0  0  0  0  0  0  0
    7.3168  -15.6856   25.8071 C   0  0  0  0  0  0  0  0  0  0  0  0
    7.1304  -14.3002   26.2610 C   0  0  0  0  0  0  0  0  0  0  0  0
    8.2036  -13.5297   26.6846 C   0  0  0  0  0  0  0  0  0  0  0  0
    8.0290  -12.2246   27.1023 C   0  0  0  0  0  0  0  0  0  0  0  0
    6.7827  -11.6359   27.1151 C   0  0  0  0  0  0  0  0  0  0  0  0
    5.7121  -12.3793   26.7009 C   0  0  0  0  0  0  0  0  0  0  0  0
    5.8965  -13.6867   26.2837 C   0  0  0  0  0  0  0  0  0  0  0  0
    9.0264  -17.3006   25.1807 C   0  0  0  0  0  0  0  0  0  0  0  0
    8.4266  -18.3126   24.6728 O   0  0  0  0  0  0  0  0  0  0  0  0
   10.1732  -17.4832   25.9638 N   0  0  0  0  0  0  0  0  0  0  0  0
   10.8006  -18.8615   26.1341 C   0  0  1  0  0  0  0  0  0  0  0  0
   11.8490  -18.8374   25.0900 C   0  0  0  0  0  0  0  0  0  0  0  0
   12.7614  -19.9623   24.8918 C   0  0  0  0  0  0  0  0  0  0  0  0
   13.7503  -19.8442   23.8004 C   0  0  0  0  0  0  0  0  0  0  0  0
   14.6429  -21.0601   23.7681 C   0  0  0  0  0  0  0  0  0  0  0  0
   15.5407  -20.9229   22.6287 N   0  0  0  0  0  0  0  0  0  0  0  0
   11.1706  -18.9658   27.5316 C   0  0  0  0  0  0  0  0  0  0  0  0
   11.4559  -20.1170   28.2074 O   0  0  0  0  0  0  0  0  0  0  0  0
   11.2389  -17.8904   28.2385 O   0  0  0  0  0  0  0  0  0  0  0  0
  2  3  1  6
  2  1  1  0
  4  2  1  0
  5  4  1  0
  5  6  1  1
  7  5  1  0
  7  8  2  0
  9  7  1  0
 10  9  1  0
 10 11  1  1
 11 12  1  0
 12 17  2  0
 12 13  1  0
 13 14  2  0
 15 14  1  0
 16 15  2  0
 17 16  1  0
 18 10  1  0
 19 18  2  0
 20 18  1  0
 21 22  1  6
 21 20  1  0
 22 23  1  0
 23 24  1  0
 24 25  1  0
 26 25  1  0
 27 28  1  0
 27 21  1  0
 29 27  2  0
M  END
$$$$
