LFK.pdb
     RDKit          3D

 29 29  0  0  1  0  0  0  0  0999 V2000
    6.8100  -14.0115   18.4801 C   0  0  0  0  0  0  0  0  0  0  0  0
    7.3674  -13.3250   19.6702 C   0  0  2  0  0  0  0  0  0  0  0  0
    7.6609  -11.8504   19.3924 C   0  0  0  0  0  0  0  0  0  0  0  0
    8.6278  -13.9301   20.1749 C   0  0  0  0  0  0  0  0  0  0  0  0
    8.4028  -15.1814   20.9340 C   0  0  2  0  0  0  0  0  0  0  0  0
    7.0646  -15.6114   21.1268 N   0  0  0  0  0  0  0  0  0  0  0  0
    9.2009  -15.2288   22.2073 C   0  0  0  0  0  0  0  0  0  0  0  0
   10.4648  -15.0895   22.1601 O   0  0  0  0  0  0  0  0  0  0  0  0
    8.6294  -15.4223   23.4767 N   0  0  0  0  0  0  0  0  0  0  0  0
    9.3887  -15.4766   24.7193 C   0  0  1  0  0  0  0  0  0  0  0  0
    8.4863  -14.9254   25.7771 C   0  0  0  0  0  0  0  0  0  0  0  0
    9.0922  -14.7741   27.1075 C   0  0  0  0  0  0  0  0  0  0  0  0
    9.7878  -13.6256   27.4567 C   0  0  0  0  0  0  0  0  0  0  0  0
   10.3491  -13.4802   28.7104 C   0  0  0  0  0  0  0  0  0  0  0  0
   10.2409  -14.4695   29.6642 C   0  0  0  0  0  0  0  0  0  0  0  0
    9.5587  -15.6093   29.3391 C   0  0  0  0  0  0  0  0  0  0  0  0
    8.9991  -15.7464   28.0799 C   0  0  0  0  0  0  0  0  0  0  0  0
    9.7202  -16.8888   25.0385 C   0  0  0  0  0  0  0  0  0  0  0  0
    8.8111  -17.7918   25.0285 O   0  0  0  0  0  0  0  0  0  0  0  0
   11.0428  -17.2263   25.3523 N   0  0  0  0  0  0  0  0  0  0  0  0
   11.4241  -18.6521   25.7317 C   0  0  1  0  0  0  0  0  0  0  0  0
   12.3641  -19.0034   24.6440 C   0  0  0  0  0  0  0  0  0  0  0  0
   11.9340  -19.0670   23.2482 C   0  0  0  0  0  0  0  0  0  0  0  0
   12.9789  -19.3052   22.2310 C   0  0  0  0  0  0  0  0  0  0  0  0
   12.3592  -19.4199   20.8602 C   0  0  0  0  0  0  0  0  0  0  0  0
   13.4412  -19.4702   19.8856 N   0  0  0  0  0  0  0  0  0  0  0  0
   11.8903  -18.5931   27.1028 C   0  0  0  0  0  0  0  0  0  0  0  0
   12.5604  -17.5554   27.6836 O   0  0  0  0  0  0  0  0  0  0  0  0
   11.6774  -19.6021   27.8757 O   0  0  0  0  0  0  0  0  0  0  0  0
  2  3  1  6
  2  1  1  0
  4  2  1  0
  5  4  1  0
  5  6  1  1
  7  5  1  0
  7  8  2  0
  9  7  1  0
 10  9  1  0
 10 11  1  1
 11 12  1  0
 12 17  2  0
 12 13  1  0
 13 14  2  0
 15 14  1  0
 16 15  2  0
 17 16  1  0
 18 10  1  0
 19 18  2  0
 20 18  1  0
 21 22  1  6
 21 20  1  0
 22 23  1  0
 23 24  1  0
 24 25  1  0
 26 25  1  0
 27 28  1  0
 27 21  1  0
 29 27  2  0
M  END
$$$$
