LFK.pdb
     RDKit          3D

 29 29  0  0  1  0  0  0  0  0999 V2000
    7.8256  -13.8518   18.5511 C   0  0  0  0  0  0  0  0  0  0  0  0
    7.8644  -13.1391   19.8507 C   0  0  2  0  0  0  0  0  0  0  0  0
    8.1707  -11.6513   19.6762 C   0  0  0  0  0  0  0  0  0  0  0  0
    8.8716  -13.6804   20.8005 C   0  0  0  0  0  0  0  0  0  0  0  0
    8.5210  -15.0269   21.3069 C   0  0  2  0  0  0  0  0  0  0  0  0
    7.1990  -15.4952   21.0927 N   0  0  0  0  0  0  0  0  0  0  0  0
    8.9735  -15.2400   22.7248 C   0  0  0  0  0  0  0  0  0  0  0  0
   10.1481  -14.8902   23.0669 O   0  0  0  0  0  0  0  0  0  0  0  0
    8.1656  -15.8147   23.7210 N   0  0  0  0  0  0  0  0  0  0  0  0
    8.6030  -16.0683   25.0877 C   0  0  1  0  0  0  0  0  0  0  0  0
    7.4359  -15.7347   25.9616 C   0  0  0  0  0  0  0  0  0  0  0  0
    7.2433  -14.3042   26.2382 C   0  0  0  0  0  0  0  0  0  0  0  0
    6.1444  -13.6159   25.7447 C   0  0  0  0  0  0  0  0  0  0  0  0
    5.9591  -12.2735   26.0128 C   0  0  0  0  0  0  0  0  0  0  0  0
    6.8577  -11.5644   26.7807 C   0  0  0  0  0  0  0  0  0  0  0  0
    7.9475  -12.2254   27.2765 C   0  0  0  0  0  0  0  0  0  0  0  0
    8.1251  -13.5711   27.0028 C   0  0  0  0  0  0  0  0  0  0  0  0
    8.9422  -17.5060   25.2427 C   0  0  0  0  0  0  0  0  0  0  0  0
    8.1508  -18.4148   24.8072 O   0  0  0  0  0  0  0  0  0  0  0  0
   10.1415  -17.8612   25.8730 N   0  0  0  0  0  0  0  0  0  0  0  0
   10.8949  -19.1260   25.4792 C   0  0  1  0  0  0  0  0  0  0  0  0
   11.2713  -18.8196   24.0812 C   0  0  0  0  0  0  0  0  0  0  0  0
   12.1445  -19.7027   23.3100 C   0  0  0  0  0  0  0  0  0  0  0  0
   11.8242  -19.8862   21.8793 C   0  0  0  0  0  0  0  0  0  0  0  0
   12.8420  -20.7879   21.2258 C   0  0  0  0  0  0  0  0  0  0  0  0
   12.4820  -20.9200   19.8201 N   0  0  0  0  0  0  0  0  0  0  0  0
   11.9232  -19.3115   26.4835 C   0  0  0  0  0  0  0  0  0  0  0  0
   12.4003  -18.3581   27.3362 O   0  0  0  0  0  0  0  0  0  0  0  0
   12.4690  -20.4724   26.6074 O   0  0  0  0  0  0  0  0  0  0  0  0
  2  3  1  6
  2  1  1  0
  4  2  1  0
  5  4  1  0
  5  6  1  1
  7  5  1  0
  7  8  2  0
  9  7  1  0
 10  9  1  0
 10 11  1  1
 11 12  1  0
 12 17  2  0
 12 13  1  0
 13 14  2  0
 15 14  1  0
 16 15  2  0
 17 16  1  0
 18 10  1  0
 19 18  2  0
 20 18  1  0
 21 22  1  6
 21 20  1  0
 22 23  1  0
 23 24  1  0
 24 25  1  0
 26 25  1  0
 27 28  1  0
 27 21  1  0
 29 27  2  0
M  END
$$$$
