VCI.pdb
     RDKit          3D

 22 21  0  0  1  0  0  0  0  0999 V2000
   20.1036  -12.3208  -19.8723 C   0  0  0  0  0  0  0  0  0  0  0  0
   21.5827  -12.0931  -19.8423 C   0  0  2  0  0  0  0  0  0  0  0  0
   22.2905  -13.1038  -20.7060 C   0  0  0  0  0  0  0  0  0  0  0  0
   22.1576  -12.1437  -18.4449 C   0  0  2  0  0  0  0  0  0  0  0  0
   21.8982  -13.4516  -17.8862 N   0  0  0  0  0  0  0  0  0  0  0  0
   21.5773  -11.1213  -17.5607 C   0  0  0  0  0  0  0  0  0  0  0  0
   20.7808  -11.4445  -16.6151 O   0  0  0  0  0  0  0  0  0  0  0  0
   21.8457   -9.7299  -17.6802 N   0  0  0  0  0  0  0  0  0  0  0  0
   21.2171   -8.7254  -16.8470 C   0  0  1  0  0  0  0  0  0  0  0  0
   21.8697   -8.8117  -15.4801 C   0  0  0  0  0  0  0  0  0  0  0  0
   21.2512   -7.4989  -14.4089 S   0  0  0  0  0  0  0  0  0  0  0  0
   21.4282   -7.3490  -17.3947 C   0  0  0  0  0  0  0  0  0  0  0  0
   22.6092   -7.0461  -17.7069 O   0  0  0  0  0  0  0  0  0  0  0  0
   18.7268   -5.2544  -21.3867 C   0  0  0  0  0  0  0  0  0  0  0  0
   19.7754   -5.6554  -20.3740 C   0  0  0  0  0  0  0  0  0  0  0  0
   19.6992   -4.7242  -19.1815 C   0  0  2  0  0  0  0  0  0  0  0  0
   20.0500   -3.3084  -19.5835 C   0  0  0  0  0  0  0  0  0  0  0  0
   20.6641   -5.1295  -18.0927 C   0  0  2  0  0  0  0  0  0  0  0  0
   20.3563   -6.4334  -17.5543 N   0  0  0  0  0  0  0  0  0  0  0  0
   20.5475   -4.1427  -16.9908 C   0  0  0  0  0  0  0  0  0  0  0  0
   19.7053   -4.2656  -16.0593 O   0  0  0  0  0  0  0  0  0  0  0  0
   21.4210   -3.0403  -17.0115 O   0  0  0  0  0  0  0  0  0  0  0  0
  2  1  1  1
  2  4  1  0
  2  3  1  0
  4  5  1  1
  6  4  1  0
  7  6  2  0
  8  6  1  0
  9 12  1  0
  9  8  1  0
  9 10  1  1
 11 10  1  0
 12 19  1  0
 13 12  2  0
 15 14  1  0
 16 17  1  6
 16 15  1  0
 18 16  1  0
 18 19  1  1
 20 22  1  0
 20 18  1  0
 21 20  2  0
M  END
$$$$
