VCI.pdb
     RDKit          3D

 22 21  0  0  1  0  0  0  0  0999 V2000
   17.3937  -15.5497  -18.3602 C   0  0  0  0  0  0  0  0  0  0  0  0
   18.2993  -14.3744  -18.1621 C   0  0  2  0  0  0  0  0  0  0  0  0
   17.7412  -13.4480  -17.1140 C   0  0  0  0  0  0  0  0  0  0  0  0
   18.5407  -13.5964  -19.4358 C   0  0  2  0  0  0  0  0  0  0  0  0
   19.1165  -14.4868  -20.4185 N   0  0  0  0  0  0  0  0  0  0  0  0
   19.4466  -12.4550  -19.2344 C   0  0  0  0  0  0  0  0  0  0  0  0
   20.7148  -12.6110  -19.2494 O   0  0  0  0  0  0  0  0  0  0  0  0
   19.0007  -11.1230  -19.0130 N   0  0  0  0  0  0  0  0  0  0  0  0
   19.9006   -9.9944  -18.8895 C   0  0  1  0  0  0  0  0  0  0  0  0
   19.3250   -8.8740  -19.7351 C   0  0  0  0  0  0  0  0  0  0  0  0
   19.5481   -9.2369  -21.4878 S   0  0  0  0  0  0  0  0  0  0  0  0
   19.9994   -9.5253  -17.4721 C   0  0  0  0  0  0  0  0  0  0  0  0
   18.9366   -9.5517  -16.7985 O   0  0  0  0  0  0  0  0  0  0  0  0
   23.7629  -11.3883  -14.3885 C   0  0  0  0  0  0  0  0  0  0  0  0
   22.4845  -10.8571  -14.9962 C   0  0  0  0  0  0  0  0  0  0  0  0
   22.4239   -9.3564  -14.7984 C   0  0  2  0  0  0  0  0  0  0  0  0
   22.2875   -9.0139  -13.3310 C   0  0  0  0  0  0  0  0  0  0  0  0
   21.2399   -8.7457  -15.5097 C   0  0  2  0  0  0  0  0  0  0  0  0
   21.2242   -9.0746  -16.9155 N   0  0  0  0  0  0  0  0  0  0  0  0
   21.3471   -7.2709  -15.3882 C   0  0  0  0  0  0  0  0  0  0  0  0
   21.8756   -6.5552  -16.2831 O   0  0  0  0  0  0  0  0  0  0  0  0
   20.8322   -6.6764  -14.2220 O   0  0  0  0  0  0  0  0  0  0  0  0
  2  1  1  6
  2  4  1  0
  2  3  1  0
  4  5  1  6
  6  4  1  0
  7  6  2  0
  8  6  1  0
  9 12  1  0
  9  8  1  0
  9 10  1  6
 11 10  1  0
 12 19  1  0
 13 12  2  0
 15 14  1  0
 16 17  1  1
 16 15  1  0
 18 16  1  0
 18 19  1  6
 20 22  1  0
 20 18  1  0
 21 20  2  0
M  END
$$$$
