VCI.pdb
     RDKit          3D

 22 21  0  0  1  0  0  0  0  0999 V2000
   22.2944  -20.0669  -13.6912 C   0  0  0  0  0  0  0  0  0  0  0  0
   23.2599  -19.5572  -14.7152 C   0  0  2  0  0  0  0  0  0  0  0  0
   22.5229  -18.9794  -15.8948 C   0  0  0  0  0  0  0  0  0  0  0  0
   24.2189  -20.6206  -15.2005 C   0  0  2  0  0  0  0  0  0  0  0  0
   23.4564  -21.6835  -15.8161 N   0  0  0  0  0  0  0  0  0  0  0  0
   25.0325  -21.1832  -14.1118 C   0  0  0  0  0  0  0  0  0  0  0  0
   24.5711  -22.1016  -13.3524 O   0  0  0  0  0  0  0  0  0  0  0  0
   26.3604  -20.7652  -13.8217 N   0  0  0  0  0  0  0  0  0  0  0  0
   27.0994  -21.2167  -12.6604 C   0  0  1  0  0  0  0  0  0  0  0  0
   28.5686  -20.9684  -12.9460 C   0  0  0  0  0  0  0  0  0  0  0  0
   29.5737  -21.4820  -11.5391 S   0  0  0  0  0  0  0  0  0  0  0  0
   26.7121  -20.4527  -11.4336 C   0  0  0  0  0  0  0  0  0  0  0  0
   26.5342  -19.2152  -11.5779 O   0  0  0  0  0  0  0  0  0  0  0  0
   22.7302  -21.1511   -8.0364 C   0  0  0  0  0  0  0  0  0  0  0  0
   23.8262  -20.5224   -8.8668 C   0  0  0  0  0  0  0  0  0  0  0  0
   25.1607  -20.7517   -8.1874 C   0  0  2  0  0  0  0  0  0  0  0  0
   25.2209  -20.0220   -6.8634 C   0  0  0  0  0  0  0  0  0  0  0  0
   26.3098  -20.2459   -9.0267 C   0  0  2  0  0  0  0  0  0  0  0  0
   26.5534  -21.0872  -10.1746 N   0  0  0  0  0  0  0  0  0  0  0  0
   27.5306  -20.2614   -8.1835 C   0  0  0  0  0  0  0  0  0  0  0  0
   27.7529  -19.3891   -7.2993 O   0  0  0  0  0  0  0  0  0  0  0  0
   28.4561  -21.2983   -8.4002 O   0  0  0  0  0  0  0  0  0  0  0  0
  2  1  1  1
  2  4  1  0
  2  3  1  0
  4  5  1  1
  6  4  1  0
  7  6  2  0
  8  6  1  0
  9 12  1  0
  9  8  1  0
  9 10  1  6
 11 10  1  0
 12 19  1  0
 13 12  2  0
 15 14  1  0
 16 17  1  1
 16 15  1  0
 18 16  1  0
 18 19  1  6
 20 22  1  0
 20 18  1  0
 21 20  2  0
M  END
$$$$
