VCI.pdb
     RDKit          3D

 22 21  0  0  1  0  0  0  0  0999 V2000
   19.5039  -15.1579  -18.2565 C   0  0  0  0  0  0  0  0  0  0  0  0
   20.6733  -14.8415  -19.1356 C   0  0  2  0  0  0  0  0  0  0  0  0
   20.6041  -15.6359  -20.4132 C   0  0  0  0  0  0  0  0  0  0  0  0
   22.0023  -15.0980  -18.4619 C   0  0  2  0  0  0  0  0  0  0  0  0
   22.0920  -16.5043  -18.1387 N   0  0  0  0  0  0  0  0  0  0  0  0
   22.1695  -14.3117  -17.2300 C   0  0  0  0  0  0  0  0  0  0  0  0
   22.2046  -14.8803  -16.0861 O   0  0  0  0  0  0  0  0  0  0  0  0
   22.3020  -12.8960  -17.2092 N   0  0  0  0  0  0  0  0  0  0  0  0
   22.4503  -12.1301  -15.9885 C   0  0  1  0  0  0  0  0  0  0  0  0
   23.8020  -12.4899  -15.4011 C   0  0  0  0  0  0  0  0  0  0  0  0
   24.1467  -11.4676  -13.9555 S   0  0  0  0  0  0  0  0  0  0  0  0
   22.4192  -10.6586  -16.2580 C   0  0  0  0  0  0  0  0  0  0  0  0
   23.1112  -10.2526  -17.2276 O   0  0  0  0  0  0  0  0  0  0  0  0
   18.9936   -6.4873  -17.9851 C   0  0  0  0  0  0  0  0  0  0  0  0
   20.1980   -6.6678  -17.0892 C   0  0  0  0  0  0  0  0  0  0  0  0
   20.3171   -8.1274  -16.7013 C   0  0  2  0  0  0  0  0  0  0  0  0
   19.1398   -8.5545  -15.8525 C   0  0  0  0  0  0  0  0  0  0  0  0
   21.5662   -8.3919  -15.8949 C   0  0  2  0  0  0  0  0  0  0  0  0
   21.6517   -9.7675  -15.4645 N   0  0  0  0  0  0  0  0  0  0  0  0
   21.5146   -7.5378  -14.6827 C   0  0  0  0  0  0  0  0  0  0  0  0
   21.2593   -8.0032  -13.5379 O   0  0  0  0  0  0  0  0  0  0  0  0
   21.7635   -6.1630  -14.8461 O   0  0  0  0  0  0  0  0  0  0  0  0
  2  1  1  1
  2  4  1  0
  2  3  1  0
  4  5  1  1
  6  4  1  0
  7  6  2  0
  8  6  1  0
  9 12  1  0
  9  8  1  0
  9 10  1  6
 11 10  1  0
 12 19  1  0
 13 12  2  0
 15 14  1  0
 16 17  1  1
 16 15  1  0
 18 16  1  0
 18 19  1  1
 20 22  1  0
 20 18  1  0
 21 20  2  0
M  END
$$$$
