VCI.pdb
     RDKit          3D

 22 21  0  0  1  0  0  0  0  0999 V2000
   23.7690  -22.0664  -19.1473 C   0  0  0  0  0  0  0  0  0  0  0  0
   23.9011  -21.4237  -17.8019 C   0  0  2  0  0  0  0  0  0  0  0  0
   24.2499  -22.4512  -16.7575 C   0  0  0  0  0  0  0  0  0  0  0  0
   22.6511  -20.6869  -17.3766 C   0  0  2  0  0  0  0  0  0  0  0  0
   22.4285  -19.5895  -18.2910 N   0  0  0  0  0  0  0  0  0  0  0  0
   22.7488  -20.1576  -16.0076 C   0  0  0  0  0  0  0  0  0  0  0  0
   23.5316  -19.1858  -15.7321 O   0  0  0  0  0  0  0  0  0  0  0  0
   22.0029  -20.6671  -14.9093 N   0  0  0  0  0  0  0  0  0  0  0  0
   22.1243  -20.1534  -13.5602 C   0  0  1  0  0  0  0  0  0  0  0  0
   20.7842  -20.3677  -12.8822 C   0  0  0  0  0  0  0  0  0  0  0  0
   20.8938  -19.9399  -11.1333 S   0  0  0  0  0  0  0  0  0  0  0  0
   23.1765  -20.8852  -12.7881 C   0  0  0  0  0  0  0  0  0  0  0  0
   23.1391  -22.1420  -12.8438 O   0  0  0  0  0  0  0  0  0  0  0  0
   28.2298  -20.6876  -13.4894 C   0  0  0  0  0  0  0  0  0  0  0  0
   26.8140  -21.0791  -13.1315 C   0  0  0  0  0  0  0  0  0  0  0  0
   26.5390  -20.6953  -11.6920 C   0  0  2  0  0  0  0  0  0  0  0  0
   27.4382  -21.4659  -10.7504 C   0  0  0  0  0  0  0  0  0  0  0  0
   25.1140  -20.9991  -11.2945 C   0  0  2  0  0  0  0  0  0  0  0  0
   24.1640  -20.2012  -12.0332 N   0  0  0  0  0  0  0  0  0  0  0  0
   24.9630  -20.6707   -9.8555 C   0  0  0  0  0  0  0  0  0  0  0  0
   24.6304  -19.5211   -9.4555 O   0  0  0  0  0  0  0  0  0  0  0  0
   25.2060  -21.6983   -8.9261 O   0  0  0  0  0  0  0  0  0  0  0  0
  2  1  1  6
  2  4  1  0
  2  3  1  0
  4  5  1  6
  6  4  1  0
  7  6  2  0
  8  6  1  0
  9 12  1  0
  9  8  1  0
  9 10  1  1
 11 10  1  0
 12 19  1  0
 13 12  2  0
 15 14  1  0
 16 17  1  1
 16 15  1  0
 18 16  1  0
 18 19  1  6
 20 22  1  0
 20 18  1  0
 21 20  2  0
M  END
$$$$
