VCI.pdb
     RDKit          3D

 22 21  0  0  1  0  0  0  0  0999 V2000
   28.2930  -18.9398  -15.5004 C   0  0  0  0  0  0  0  0  0  0  0  0
   27.7523  -18.7218  -14.1218 C   0  0  2  0  0  0  0  0  0  0  0  0
   28.8512  -18.8392  -13.0985 C   0  0  0  0  0  0  0  0  0  0  0  0
   26.6388  -19.6814  -13.7679 C   0  0  2  0  0  0  0  0  0  0  0  0
   25.6007  -19.5729  -14.7682 N   0  0  0  0  0  0  0  0  0  0  0  0
   26.0591  -19.4067  -12.4441 C   0  0  0  0  0  0  0  0  0  0  0  0
   25.2076  -18.4679  -12.2806 O   0  0  0  0  0  0  0  0  0  0  0  0
   26.3875  -20.1402  -11.2710 N   0  0  0  0  0  0  0  0  0  0  0  0
   25.6331  -20.0456  -10.0379 C   0  0  1  0  0  0  0  0  0  0  0  0
   24.2994  -20.7267  -10.2810 C   0  0  0  0  0  0  0  0  0  0  0  0
   23.2903  -20.6746   -8.7868 S   0  0  0  0  0  0  0  0  0  0  0  0
   26.3316  -20.7432   -8.9135 C   0  0  0  0  0  0  0  0  0  0  0  0
   26.5167  -21.9804   -9.0515 O   0  0  0  0  0  0  0  0  0  0  0  0
   28.1914  -18.1149   -4.1275 C   0  0  0  0  0  0  0  0  0  0  0  0
   27.3265  -18.8685   -5.1124 C   0  0  0  0  0  0  0  0  0  0  0  0
   28.1328  -19.9961   -5.7235 C   0  0  2  0  0  0  0  0  0  0  0  0
   29.2973  -19.4516   -6.5213 C   0  0  0  0  0  0  0  0  0  0  0  0
   27.3001  -20.8323   -6.6659 C   0  0  2  0  0  0  0  0  0  0  0  0
   26.7628  -20.0493   -7.7536 N   0  0  0  0  0  0  0  0  0  0  0  0
   26.1589  -21.3856   -5.8960 C   0  0  0  0  0  0  0  0  0  0  0  0
   26.3107  -22.2480   -4.9874 O   0  0  0  0  0  0  0  0  0  0  0  0
   24.8723  -20.9128   -6.2123 O   0  0  0  0  0  0  0  0  0  0  0  0
  2  1  1  6
  2  4  1  0
  2  3  1  0
  4  5  1  6
  6  4  1  0
  7  6  2  0
  8  6  1  0
  9 12  1  0
  9  8  1  0
  9 10  1  6
 11 10  1  0
 12 19  1  0
 13 12  2  0
 15 14  1  0
 16 17  1  6
 16 15  1  0
 18 16  1  0
 18 19  1  6
 20 22  1  0
 20 18  1  0
 21 20  2  0
M  END
$$$$
