VCI.pdb
     RDKit          3D

 22 21  0  0  1  0  0  0  0  0999 V2000
   21.1903  -12.0313  -21.6142 C   0  0  0  0  0  0  0  0  0  0  0  0
   20.6571  -11.1216  -20.5519 C   0  0  2  0  0  0  0  0  0  0  0  0
   20.8332   -9.6806  -20.9530 C   0  0  0  0  0  0  0  0  0  0  0  0
   21.3064  -11.3457  -19.2050 C   0  0  2  0  0  0  0  0  0  0  0  0
   21.0578  -12.7093  -18.7939 N   0  0  0  0  0  0  0  0  0  0  0  0
   20.7909  -10.4327  -18.1732 C   0  0  0  0  0  0  0  0  0  0  0  0
   19.6356  -10.6090  -17.6563 O   0  0  0  0  0  0  0  0  0  0  0  0
   21.5128   -9.3115  -17.6794 N   0  0  0  0  0  0  0  0  0  0  0  0
   21.0049   -8.4323  -16.6461 C   0  0  1  0  0  0  0  0  0  0  0  0
   22.0280   -8.4277  -15.5259 C   0  0  0  0  0  0  0  0  0  0  0  0
   21.4959   -7.3281  -14.1988 S   0  0  0  0  0  0  0  0  0  0  0  0
   20.8376   -7.0335  -17.1505 C   0  0  0  0  0  0  0  0  0  0  0  0
   21.7632   -6.5860  -17.8764 O   0  0  0  0  0  0  0  0  0  0  0  0
   17.7012   -3.5165  -20.3906 C   0  0  0  0  0  0  0  0  0  0  0  0
   18.4894   -3.4709  -19.1011 C   0  0  0  0  0  0  0  0  0  0  0  0
   18.6392   -4.8771  -18.5579 C   0  0  2  0  0  0  0  0  0  0  0  0
   17.3131   -5.4003  -18.0511 C   0  0  0  0  0  0  0  0  0  0  0  0
   19.6093   -4.9298  -17.4017 C   0  0  2  0  0  0  0  0  0  0  0  0
   19.6979   -6.2522  -16.8290 N   0  0  0  0  0  0  0  0  0  0  0  0
   19.1130   -4.0098  -16.3488 C   0  0  0  0  0  0  0  0  0  0  0  0
   19.1810   -2.7547  -16.4603 O   0  0  0  0  0  0  0  0  0  0  0  0
   18.5510   -4.5863  -15.1952 O   0  0  0  0  0  0  0  0  0  0  0  0
  2  1  1  6
  2  4  1  0
  2  3  1  0
  4  5  1  1
  6  4  1  0
  7  6  2  0
  8  6  1  0
  9 12  1  0
  9  8  1  0
  9 10  1  1
 11 10  1  0
 12 19  1  0
 13 12  2  0
 15 14  1  0
 16 17  1  1
 16 15  1  0
 18 16  1  0
 18 19  1  1
 20 22  1  0
 20 18  1  0
 21 20  2  0
M  END
$$$$
