VCI.pdb
     RDKit          3D

 22 21  0  0  1  0  0  0  0  0999 V2000
   15.7033  -25.2860   -1.0155 C   0  0  0  0  0  0  0  0  0  0  0  0
   14.3552  -24.6406   -0.9348 C   0  0  2  0  0  0  0  0  0  0  0  0
   13.4041  -25.2798   -1.9123 C   0  0  0  0  0  0  0  0  0  0  0  0
   14.4002  -23.1505   -1.1869 C   0  0  2  0  0  0  0  0  0  0  0  0
   14.8628  -22.9247   -2.5378 N   0  0  0  0  0  0  0  0  0  0  0  0
   15.2923  -22.4486   -0.2513 C   0  0  0  0  0  0  0  0  0  0  0  0
   16.4809  -22.1260   -0.5923 O   0  0  0  0  0  0  0  0  0  0  0  0
   14.9185  -22.0813    1.0706 N   0  0  0  0  0  0  0  0  0  0  0  0
   15.8209  -21.4329    2.0000 C   0  0  1  0  0  0  0  0  0  0  0  0
   15.0245  -20.3562    2.7129 C   0  0  0  0  0  0  0  0  0  0  0  0
   16.0855  -19.4465    3.8532 S   0  0  0  0  0  0  0  0  0  0  0  0
   16.3450  -22.3967    3.0174 C   0  0  0  0  0  0  0  0  0  0  0  0
   15.5535  -23.3008    3.3915 O   0  0  0  0  0  0  0  0  0  0  0  0
   20.9491  -24.9210    2.7353 C   0  0  0  0  0  0  0  0  0  0  0  0
   19.5034  -24.6143    3.0544 C   0  0  0  0  0  0  0  0  0  0  0  0
   19.4365  -23.7915    4.3247 C   0  0  2  0  0  0  0  0  0  0  0  0
   19.7891  -24.6357    5.5297 C   0  0  0  0  0  0  0  0  0  0  0  0
   18.0517  -23.2371    4.5598 C   0  0  2  0  0  0  0  0  0  0  0  0
   17.6628  -22.2984    3.5338 N   0  0  0  0  0  0  0  0  0  0  0  0
   18.0643  -22.5154    5.8561 C   0  0  0  0  0  0  0  0  0  0  0  0
   17.6978  -23.0570    6.9352 O   0  0  0  0  0  0  0  0  0  0  0  0
   18.5059  -21.1798    5.8513 O   0  0  0  0  0  0  0  0  0  0  0  0
  2  1  1  6
  2  4  1  0
  2  3  1  0
  4  5  1  6
  6  4  1  0
  7  6  2  0
  8  6  1  0
  9 12  1  0
  9  8  1  0
  9 10  1  1
 11 10  1  0
 12 19  1  0
 13 12  2  0
 15 14  1  0
 16 17  1  1
 16 15  1  0
 18 16  1  0
 18 19  1  6
 20 22  1  0
 20 18  1  0
 21 20  2  0
M  END
$$$$
