VCI.pdb
     RDKit          3D

 22 21  0  0  1  0  0  0  0  0999 V2000
   12.3414  -12.0289  -11.8762 C   0  0  0  0  0  0  0  0  0  0  0  0
   12.7341  -11.6057  -13.2573 C   0  0  2  0  0  0  0  0  0  0  0  0
   11.8491  -12.2634  -14.2832 C   0  0  0  0  0  0  0  0  0  0  0  0
   14.1795  -11.9122  -13.5779 C   0  0  2  0  0  0  0  0  0  0  0  0
   14.3989  -13.3312  -13.4092 N   0  0  0  0  0  0  0  0  0  0  0  0
   15.1154  -11.1767  -12.7136 C   0  0  0  0  0  0  0  0  0  0  0  0
   15.6300  -11.7278  -11.6819 O   0  0  0  0  0  0  0  0  0  0  0  0
   15.5140   -9.8316  -12.9465 N   0  0  0  0  0  0  0  0  0  0  0  0
   16.3817   -9.0940  -12.0511 C   0  0  1  0  0  0  0  0  0  0  0  0
   17.4515   -8.4428  -12.9073 C   0  0  0  0  0  0  0  0  0  0  0  0
   18.5044   -7.3855  -11.8938 S   0  0  0  0  0  0  0  0  0  0  0  0
   15.6329   -8.0242  -11.3206 C   0  0  0  0  0  0  0  0  0  0  0  0
   14.8570   -7.3133  -12.0109 O   0  0  0  0  0  0  0  0  0  0  0  0
   12.4452   -8.6091   -7.2859 C   0  0  0  0  0  0  0  0  0  0  0  0
   13.1115   -8.0676   -8.5304 C   0  0  0  0  0  0  0  0  0  0  0  0
   14.2576   -7.1620   -8.1290 C   0  0  2  0  0  0  0  0  0  0  0  0
   13.7410   -5.9096   -7.4555 C   0  0  0  0  0  0  0  0  0  0  0  0
   15.0682   -6.7220   -9.3248 C   0  0  2  0  0  0  0  0  0  0  0  0
   15.7877   -7.8205   -9.9251 N   0  0  0  0  0  0  0  0  0  0  0  0
   16.0641   -5.7262   -8.8581 C   0  0  0  0  0  0  0  0  0  0  0  0
   15.7741   -4.5107   -8.6826 O   0  0  0  0  0  0  0  0  0  0  0  0
   17.3715   -6.1825   -8.6103 O   0  0  0  0  0  0  0  0  0  0  0  0
  2  1  1  1
  2  4  1  0
  2  3  1  0
  4  5  1  1
  6  4  1  0
  7  6  2  0
  8  6  1  0
  9 12  1  0
  9  8  1  0
  9 10  1  6
 11 10  1  0
 12 19  1  0
 13 12  2  0
 15 14  1  0
 16 17  1  6
 16 15  1  0
 18 16  1  0
 18 19  1  1
 20 22  1  0
 20 18  1  0
 21 20  2  0
M  END
$$$$
