VCI.pdb
     RDKit          3D

 22 21  0  0  1  0  0  0  0  0999 V2000
   18.9577  -13.8943  -18.1170 C   0  0  0  0  0  0  0  0  0  0  0  0
   19.8703  -13.2261  -19.0974 C   0  0  2  0  0  0  0  0  0  0  0  0
   20.0290  -14.0723  -20.3331 C   0  0  0  0  0  0  0  0  0  0  0  0
   21.2356  -12.9269  -18.5209 C   0  0  2  0  0  0  0  0  0  0  0  0
   21.8275  -14.1662  -18.0691 N   0  0  0  0  0  0  0  0  0  0  0  0
   21.1756  -11.9853  -17.3924 C   0  0  0  0  0  0  0  0  0  0  0  0
   20.2923  -12.1103  -16.4773 O   0  0  0  0  0  0  0  0  0  0  0  0
   22.0681  -10.8902  -17.2298 N   0  0  0  0  0  0  0  0  0  0  0  0
   21.9356   -9.9077  -16.1735 C   0  0  1  0  0  0  0  0  0  0  0  0
   23.3232   -9.6792  -15.6042 C   0  0  0  0  0  0  0  0  0  0  0  0
   23.8377  -11.1027  -14.6231 S   0  0  0  0  0  0  0  0  0  0  0  0
   21.4104   -8.6081  -16.6970 C   0  0  0  0  0  0  0  0  0  0  0  0
   21.7067   -8.3233  -17.8865 O   0  0  0  0  0  0  0  0  0  0  0  0
   17.0616   -7.2378  -18.6879 C   0  0  0  0  0  0  0  0  0  0  0  0
   18.5291   -7.0808  -18.3600 C   0  0  0  0  0  0  0  0  0  0  0  0
   18.6744   -6.6559  -16.9132 C   0  0  2  0  0  0  0  0  0  0  0  0
   18.0313   -5.3058  -16.6835 C   0  0  0  0  0  0  0  0  0  0  0  0
   20.1244   -6.5324  -16.5094 C   0  0  2  0  0  0  0  0  0  0  0  0
   20.6209   -7.7422  -15.8972 N   0  0  0  0  0  0  0  0  0  0  0  0
   20.2271   -5.4409  -15.5096 C   0  0  0  0  0  0  0  0  0  0  0  0
   20.1260   -5.6484  -14.2690 O   0  0  0  0  0  0  0  0  0  0  0  0
   20.4453   -4.1375  -15.9916 O   0  0  0  0  0  0  0  0  0  0  0  0
  2  1  1  1
  2  4  1  0
  2  3  1  0
  4  5  1  1
  6  4  1  0
  7  6  2  0
  8  6  1  0
  9 12  1  0
  9  8  1  0
  9 10  1  6
 11 10  1  0
 12 19  1  0
 13 12  2  0
 15 14  1  0
 16 17  1  6
 16 15  1  0
 18 16  1  0
 18 19  1  1
 20 22  1  0
 20 18  1  0
 21 20  2  0
M  END
$$$$
