VCI.pdb
     RDKit          3D

 22 21  0  0  1  0  0  0  0  0999 V2000
   18.0764  -15.5495  -16.1635 C   0  0  0  0  0  0  0  0  0  0  0  0
   17.9384  -14.0815  -16.4214 C   0  0  2  0  0  0  0  0  0  0  0  0
   19.2686  -13.3913  -16.2715 C   0  0  0  0  0  0  0  0  0  0  0  0
   16.9284  -13.4170  -15.5134 C   0  0  2  0  0  0  0  0  0  0  0  0
   15.6579  -14.0897  -15.6658 N   0  0  0  0  0  0  0  0  0  0  0  0
   16.7535  -11.9883  -15.8172 C   0  0  0  0  0  0  0  0  0  0  0  0
   16.2984  -11.6071  -16.9488 O   0  0  0  0  0  0  0  0  0  0  0  0
   17.0666  -10.9434  -14.9049 N   0  0  0  0  0  0  0  0  0  0  0  0
   17.0234   -9.5396  -15.2601 C   0  0  1  0  0  0  0  0  0  0  0  0
   15.7052   -8.9926  -14.7455 C   0  0  0  0  0  0  0  0  0  0  0  0
   15.6535   -7.2004  -14.9421 S   0  0  0  0  0  0  0  0  0  0  0  0
   18.1422   -8.7783  -14.6216 C   0  0  0  0  0  0  0  0  0  0  0  0
   18.3284   -8.9822  -13.3937 O   0  0  0  0  0  0  0  0  0  0  0  0
   23.0750   -9.2562  -15.6547 C   0  0  0  0  0  0  0  0  0  0  0  0
   21.6925   -8.9989  -15.0993 C   0  0  0  0  0  0  0  0  0  0  0  0
   21.3711   -7.5237  -15.2241 C   0  0  2  0  0  0  0  0  0  0  0  0
   22.3836   -6.6887  -14.4714 C   0  0  0  0  0  0  0  0  0  0  0  0
   20.0120   -7.1970  -14.6527 C   0  0  2  0  0  0  0  0  0  0  0  0
   18.9505   -7.8749  -15.3587 N   0  0  0  0  0  0  0  0  0  0  0  0
   19.7959   -5.7364  -14.7990 C   0  0  0  0  0  0  0  0  0  0  0  0
   19.1062   -5.2452  -15.7345 O   0  0  0  0  0  0  0  0  0  0  0  0
   20.3938   -4.8930  -13.8451 O   0  0  0  0  0  0  0  0  0  0  0  0
  2  1  1  1
  2  4  1  0
  2  3  1  0
  4  5  1  6
  6  4  1  0
  7  6  2  0
  8  6  1  0
  9 12  1  0
  9  8  1  0
  9 10  1  1
 11 10  1  0
 12 19  1  0
 13 12  2  0
 15 14  1  0
 16 17  1  1
 16 15  1  0
 18 16  1  0
 18 19  1  6
 20 22  1  0
 20 18  1  0
 21 20  2  0
M  END
$$$$
