VCI.pdb
     RDKit          3D

 22 21  0  0  1  0  0  0  0  0999 V2000
   20.2688  -13.7601  -20.2887 C   0  0  0  0  0  0  0  0  0  0  0  0
   20.1266  -12.7894  -19.1583 C   0  0  2  0  0  0  0  0  0  0  0  0
   20.1235  -11.3744  -19.6741 C   0  0  0  0  0  0  0  0  0  0  0  0
   21.2123  -12.9364  -18.1164 C   0  0  2  0  0  0  0  0  0  0  0  0
   21.1469  -14.2720  -17.5668 N   0  0  0  0  0  0  0  0  0  0  0  0
   21.0784  -11.9614  -17.0231 C   0  0  0  0  0  0  0  0  0  0  0  0
   20.1524  -12.0752  -16.1497 O   0  0  0  0  0  0  0  0  0  0  0  0
   21.9416  -10.8445  -16.8514 N   0  0  0  0  0  0  0  0  0  0  0  0
   21.7756   -9.8675  -15.7948 C   0  0  1  0  0  0  0  0  0  0  0  0
   23.1572   -9.5762  -15.2396 C   0  0  0  0  0  0  0  0  0  0  0  0
   23.6793  -10.9040  -14.1361 S   0  0  0  0  0  0  0  0  0  0  0  0
   21.1874   -8.5934  -16.3141 C   0  0  0  0  0  0  0  0  0  0  0  0
   21.5913   -8.2099  -17.4427 O   0  0  0  0  0  0  0  0  0  0  0  0
   16.1209   -7.7125  -17.0971 C   0  0  0  0  0  0  0  0  0  0  0  0
   17.6273   -7.6594  -17.2146 C   0  0  0  0  0  0  0  0  0  0  0  0
   18.1725   -6.6755  -16.1999 C   0  0  2  0  0  0  0  0  0  0  0  0
   17.7206   -5.2678  -16.5213 C   0  0  0  0  0  0  0  0  0  0  0  0
   19.6826   -6.6656  -16.1857 C   0  0  2  0  0  0  0  0  0  0  0  0
   20.2262   -7.8561  -15.5758 N   0  0  0  0  0  0  0  0  0  0  0  0
   20.1226   -5.4998  -15.3804 C   0  0  0  0  0  0  0  0  0  0  0  0
   20.2882   -5.5645  -14.1311 O   0  0  0  0  0  0  0  0  0  0  0  0
   20.3562   -4.2913  -16.0614 O   0  0  0  0  0  0  0  0  0  0  0  0
  2  1  1  6
  2  4  1  0
  2  3  1  0
  4  5  1  1
  6  4  1  0
  7  6  2  0
  8  6  1  0
  9 12  1  0
  9  8  1  0
  9 10  1  6
 11 10  1  0
 12 19  1  0
 13 12  2  0
 15 14  1  0
 16 17  1  6
 16 15  1  0
 18 16  1  0
 18 19  1  1
 20 22  1  0
 20 18  1  0
 21 20  2  0
M  END
$$$$
