VCI.pdb
     RDKit          3D

 22 21  0  0  1  0  0  0  0  0999 V2000
   28.3801  -19.4170  -15.6911 C   0  0  0  0  0  0  0  0  0  0  0  0
   27.7461  -19.0364  -14.3897 C   0  0  2  0  0  0  0  0  0  0  0  0
   28.7317  -19.1794  -13.2599 C   0  0  0  0  0  0  0  0  0  0  0  0
   26.5102  -19.8495  -14.0773 C   0  0  2  0  0  0  0  0  0  0  0  0
   25.5528  -19.6625  -15.1443 N   0  0  0  0  0  0  0  0  0  0  0  0
   25.8886  -19.4603  -12.8022 C   0  0  0  0  0  0  0  0  0  0  0  0
   25.0676  -18.4829  -12.7417 O   0  0  0  0  0  0  0  0  0  0  0  0
   26.1412  -20.1190  -11.5675 N   0  0  0  0  0  0  0  0  0  0  0  0
   25.3348  -19.9185  -10.3808 C   0  0  1  0  0  0  0  0  0  0  0  0
   23.9607  -20.4892  -10.6772 C   0  0  0  0  0  0  0  0  0  0  0  0
   22.8878  -20.3134   -9.2379 S   0  0  0  0  0  0  0  0  0  0  0  0
   25.9093  -20.6363   -9.2004 C   0  0  0  0  0  0  0  0  0  0  0  0
   26.0952  -21.8739   -9.3341 O   0  0  0  0  0  0  0  0  0  0  0  0
   29.1166  -18.1993   -5.3272 C   0  0  0  0  0  0  0  0  0  0  0  0
   28.5884  -19.1347   -6.3911 C   0  0  0  0  0  0  0  0  0  0  0  0
   27.3967  -19.8922   -5.8426 C   0  0  2  0  0  0  0  0  0  0  0  0
   27.8181  -20.8144   -4.7196 C   0  0  0  0  0  0  0  0  0  0  0  0
   26.7434  -20.7493   -6.9005 C   0  0  2  0  0  0  0  0  0  0  0  0
   26.2281  -19.9603   -7.9945 N   0  0  0  0  0  0  0  0  0  0  0  0
   25.6009  -21.4568   -6.2716 C   0  0  0  0  0  0  0  0  0  0  0  0
   24.4408  -20.9622   -6.2272 O   0  0  0  0  0  0  0  0  0  0  0  0
   25.8498  -22.7234   -5.7127 O   0  0  0  0  0  0  0  0  0  0  0  0
  2  1  1  6
  2  4  1  0
  2  3  1  0
  4  5  1  6
  6  4  1  0
  7  6  2  0
  8  6  1  0
  9 12  1  0
  9  8  1  0
  9 10  1  6
 11 10  1  0
 12 19  1  0
 13 12  2  0
 15 14  1  0
 16 17  1  1
 16 15  1  0
 18 16  1  0
 18 19  1  6
 20 22  1  0
 20 18  1  0
 21 20  2  0
M  END
$$$$
