RNI.pdb
     RDKit          3D

 28 27  0  0  1  0  0  0  0  0999 V2000
   23.3760  -18.7195  -16.3986 N   0  0  0  0  0  0  0  0  0  0  0  0
   22.2548  -18.2757  -17.1442 C   0  0  0  0  0  0  0  0  0  0  0  0
   22.4173  -17.5456  -18.1927 N   0  0  0  0  0  0  0  0  0  0  0  0
   20.9491  -18.6505  -16.7132 N   0  0  0  0  0  0  0  0  0  0  0  0
   20.7330  -19.3512  -15.4775 C   0  0  0  0  0  0  0  0  0  0  0  0
   21.8706  -20.3101  -15.1498 C   0  0  0  0  0  0  0  0  0  0  0  0
   21.4201  -21.1326  -13.9661 C   0  0  0  0  0  0  0  0  0  0  0  0
   21.1125  -20.2882  -12.7629 C   0  0  2  0  0  0  0  0  0  0  0  0
   21.9482  -19.1183  -12.7253 N   0  0  0  0  0  0  0  0  0  0  0  0
   21.3312  -21.1589  -11.5532 C   0  0  0  0  0  0  0  0  0  0  0  0
   20.8838  -22.3354  -11.5586 O   0  0  0  0  0  0  0  0  0  0  0  0
   21.6469  -17.1489  -18.7511 N   0  0  0  0  0  0  0  0  0  0  0  0
   25.2753  -19.8563   -9.0208 C   0  0  0  0  0  0  0  0  0  0  0  0
   24.4798  -21.0445   -8.9225 O   0  0  0  0  0  0  0  0  0  0  0  0
   24.9704  -22.0919   -9.3681 C   0  0  0  0  0  0  0  0  0  0  0  0
   23.1342  -21.0372   -8.3202 C   0  0  2  0  0  0  0  0  0  0  0  0
   22.0939  -21.5715   -9.2538 N   0  0  0  0  0  0  0  0  0  0  0  0
   22.0179  -20.7056  -10.4157 C   0  0  0  0  0  0  0  0  0  0  0  0
   20.7385  -21.5586   -8.5944 O   0  0  0  0  0  0  0  0  0  0  0  0
   19.9318  -20.6294   -8.7800 C   0  0  0  0  0  0  0  0  0  0  0  0
   15.8973  -23.2615   -9.3537 C   0  0  0  0  0  0  0  0  0  0  0  0
   16.8568  -23.9378   -8.4100 C   0  0  2  0  0  0  0  0  0  0  0  0
   18.2913  -23.5126   -8.7537 C   0  0  0  0  0  0  0  0  0  0  0  0
   19.0140  -24.7932   -9.1163 C   0  0  2  0  0  0  0  0  0  0  0  0
   18.9725  -22.9198   -7.5506 N   0  0  0  0  0  0  0  0  0  0  0  0
   20.3462  -22.6106   -7.7419 C   0  0  0  0  0  0  0  0  0  0  0  0
   18.8470  -23.8689   -6.4350 O   0  0  0  0  0  0  0  0  0  0  0  0
   19.9558  -24.4986   -5.9341 O   0  0  0  0  0  0  0  0  0  0  0  0
  2  3  2  0
  2  1  1  0
  4  2  1  0
  5  4  1  0
  6  5  1  0
  7  6  1  0
  8  7  1  0
  8  9  1  1
 10 17  1  0
 10  8  1  0
 11 10  2  0
 13 12  1  0
 13 14  2  0
 16 15  1  6
 15 13  1  0
 16 17  1  0
 18 19  2  0
 18 16  1  0
 20 21  1  0
 21 22  1  0
 22 23  1  1
 24 22  1  0
 24 25  1  1
 25 18  1  0
 26 24  1  0
 27 26  1  0
 28 26  2  0
M  END
$$$$
