RNI.pdb
     RDKit          3D

 28 27  0  0  1  0  0  0  0  0999 V2000
   23.9001  -20.0550  -21.0021 N   0  0  0  0  0  0  0  0  0  0  0  0
   24.7387  -19.4844  -21.9925 C   0  0  0  0  0  0  0  0  0  0  0  0
   24.4350  -19.5849  -23.2401 N   0  0  0  0  0  0  0  0  0  0  0  0
   25.9202  -18.8002  -21.5837 N   0  0  0  0  0  0  0  0  0  0  0  0
   26.1487  -18.4402  -20.2115 C   0  0  0  0  0  0  0  0  0  0  0  0
   24.8891  -17.9158  -19.5337 C   0  0  0  0  0  0  0  0  0  0  0  0
   25.2753  -17.5480  -18.1208 C   0  0  0  0  0  0  0  0  0  0  0  0
   26.6538  -18.0218  -17.7597 C   0  0  2  0  0  0  0  0  0  0  0  0
   27.4055  -18.3690  -18.9357 N   0  0  0  0  0  0  0  0  0  0  0  0
   26.4810  -19.2082  -16.8478 C   0  0  0  0  0  0  0  0  0  0  0  0
   25.5842  -20.0525  -17.1074 O   0  0  0  0  0  0  0  0  0  0  0  0
   24.9904  -19.1810  -24.0089 N   0  0  0  0  0  0  0  0  0  0  0  0
   27.9905  -22.1587  -17.0376 C   0  0  0  0  0  0  0  0  0  0  0  0
   28.7758  -22.1002  -15.8401 O   0  0  0  0  0  0  0  0  0  0  0  0
   29.8143  -22.7762  -15.8112 C   0  0  0  0  0  0  0  0  0  0  0  0
   28.3786  -21.2764  -14.6838 C   0  0  2  0  0  0  0  0  0  0  0  0
   27.0668  -20.5904  -14.9021 N   0  0  0  0  0  0  0  0  0  0  0  0
   27.2855  -19.4085  -15.7149 C   0  0  0  0  0  0  0  0  0  0  0  0
   26.4879  -20.1314  -13.5882 O   0  0  0  0  0  0  0  0  0  0  0  0
   26.8005  -19.0372  -13.0845 C   0  0  0  0  0  0  0  0  0  0  0  0
   21.4265  -19.7598  -10.4651 C   0  0  0  0  0  0  0  0  0  0  0  0
   22.9285  -19.8442  -10.3916 C   0  0  2  0  0  0  0  0  0  0  0  0
   23.4743  -20.3564  -11.7320 C   0  0  0  0  0  0  0  0  0  0  0  0
   22.8901  -21.7436  -11.9000 C   0  0  2  0  0  0  0  0  0  0  0  0
   24.9720  -20.4866  -11.6810 N   0  0  0  0  0  0  0  0  0  0  0  0
   25.5674  -20.9388  -12.8895 C   0  0  0  0  0  0  0  0  0  0  0  0
   25.3175  -21.4202  -10.5994 O   0  0  0  0  0  0  0  0  0  0  0  0
   25.3203  -20.9987   -9.2958 O   0  0  0  0  0  0  0  0  0  0  0  0
  2  3  2  0
  2  1  1  0
  4  2  1  0
  5  4  1  0
  6  5  1  0
  7  6  1  0
  8  7  1  0
  8  9  1  6
 10 17  1  0
 10  8  1  0
 11 10  2  0
 13 12  1  0
 13 14  2  0
 16 15  1  6
 15 13  1  0
 16 17  1  0
 18 19  2  0
 18 16  1  0
 20 21  1  0
 21 22  1  0
 22 23  1  6
 24 22  1  0
 24 25  1  1
 25 18  1  0
 26 24  1  0
 27 26  1  0
 28 26  2  0
M  END
$$$$
