RNI.pdb
     RDKit          3D

 28 27  0  0  1  0  0  0  0  0999 V2000
   27.7785  -25.8995  -16.8331 N   0  0  0  0  0  0  0  0  0  0  0  0
   27.1456  -25.4901  -18.0338 C   0  0  0  0  0  0  0  0  0  0  0  0
   27.2001  -26.2325  -19.0848 N   0  0  0  0  0  0  0  0  0  0  0  0
   26.4507  -24.2460  -18.0565 N   0  0  0  0  0  0  0  0  0  0  0  0
   25.6451  -23.8099  -16.9495 C   0  0  0  0  0  0  0  0  0  0  0  0
   24.5018  -24.7717  -16.6518 C   0  0  0  0  0  0  0  0  0  0  0  0
   23.6757  -24.1411  -15.5562 C   0  0  0  0  0  0  0  0  0  0  0  0
   24.3365  -22.9305  -14.9622 C   0  0  2  0  0  0  0  0  0  0  0  0
   25.5987  -23.2722  -14.3632 N   0  0  0  0  0  0  0  0  0  0  0  0
   23.3794  -22.3682  -13.9439 C   0  0  0  0  0  0  0  0  0  0  0  0
   23.5296  -22.6718  -12.7316 O   0  0  0  0  0  0  0  0  0  0  0  0
   26.8271  -25.9637  -20.0075 N   0  0  0  0  0  0  0  0  0  0  0  0
   19.8646  -19.5872  -11.4135 C   0  0  0  0  0  0  0  0  0  0  0  0
   20.2314  -18.9253  -12.6306 O   0  0  0  0  0  0  0  0  0  0  0  0
   19.8404  -17.7586  -12.7799 C   0  0  0  0  0  0  0  0  0  0  0  0
   21.0384  -19.5900  -13.6699 C   0  0  2  0  0  0  0  0  0  0  0  0
   21.4985  -20.9492  -13.2454 N   0  0  0  0  0  0  0  0  0  0  0  0
   22.3221  -21.5150  -14.2976 C   0  0  0  0  0  0  0  0  0  0  0  0
   20.3190  -21.8683  -13.0549 O   0  0  0  0  0  0  0  0  0  0  0  0
   19.6420  -22.2691  -14.0192 C   0  0  0  0  0  0  0  0  0  0  0  0
   18.2383  -26.2541   -9.7752 C   0  0  0  0  0  0  0  0  0  0  0  0
   17.7070  -24.8901  -10.1299 C   0  0  2  0  0  0  0  0  0  0  0  0
   18.8763  -23.9006  -10.2314 C   0  0  0  0  0  0  0  0  0  0  0  0
   18.5855  -22.8280   -9.2024 C   0  0  2  0  0  0  0  0  0  0  0  0
   18.9044  -23.2482  -11.5866 N   0  0  0  0  0  0  0  0  0  0  0  0
   19.9493  -22.3020  -11.7654 C   0  0  0  0  0  0  0  0  0  0  0  0
   17.6128  -22.5810  -11.8043 O   0  0  0  0  0  0  0  0  0  0  0  0
   17.4428  -21.2691  -11.4481 O   0  0  0  0  0  0  0  0  0  0  0  0
  2  3  2  0
  2  1  1  0
  4  2  1  0
  5  4  1  0
  6  5  1  0
  7  6  1  0
  8  7  1  0
  8  9  1  1
 10 17  1  0
 10  8  1  0
 11 10  2  0
 13 12  1  0
 13 14  2  0
 16 15  1  1
 15 13  1  0
 16 17  1  0
 18 19  2  0
 18 16  1  0
 20 21  1  0
 21 22  1  0
 22 23  1  6
 24 22  1  0
 24 25  1  6
 25 18  1  0
 26 24  1  0
 27 26  1  0
 28 26  2  0
M  END
$$$$
