RNI.pdb
     RDKit          3D

 28 27  0  0  1  0  0  0  0  0999 V2000
   27.3791  -22.0046   -9.1422 N   0  0  0  0  0  0  0  0  0  0  0  0
   26.2357  -21.2904   -8.7036 C   0  0  0  0  0  0  0  0  0  0  0  0
   26.0550  -21.0564   -7.4500 N   0  0  0  0  0  0  0  0  0  0  0  0
   25.2929  -20.8380   -9.6719 N   0  0  0  0  0  0  0  0  0  0  0  0
   25.0749  -21.5462  -10.9030 C   0  0  0  0  0  0  0  0  0  0  0  0
   26.1206  -21.2078  -11.9579 C   0  0  0  0  0  0  0  0  0  0  0  0
   25.6839  -19.9155  -12.6058 C   0  0  0  0  0  0  0  0  0  0  0  0
   24.7094  -20.1351  -13.7271 C   0  0  2  0  0  0  0  0  0  0  0  0
   25.2528  -21.0256  -14.7172 N   0  0  0  0  0  0  0  0  0  0  0  0
   24.4077  -18.7804  -14.3127 C   0  0  0  0  0  0  0  0  0  0  0  0
   23.8578  -17.9105  -13.5881 O   0  0  0  0  0  0  0  0  0  0  0  0
   25.2820  -20.4908   -7.0688 N   0  0  0  0  0  0  0  0  0  0  0  0
   26.6958  -16.0111  -14.9330 C   0  0  0  0  0  0  0  0  0  0  0  0
   26.6763  -16.1928  -16.3545 O   0  0  0  0  0  0  0  0  0  0  0  0
   27.7161  -15.9239  -16.9733 C   0  0  0  0  0  0  0  0  0  0  0  0
   25.4788  -16.6776  -17.0647 C   0  0  2  0  0  0  0  0  0  0  0  0
   24.4027  -17.1185  -16.1230 N   0  0  0  0  0  0  0  0  0  0  0  0
   24.7181  -18.4505  -15.6415 C   0  0  0  0  0  0  0  0  0  0  0  0
   23.0786  -17.2013  -16.8387 O   0  0  0  0  0  0  0  0  0  0  0  0
   22.7330  -18.2261  -17.4543 C   0  0  0  0  0  0  0  0  0  0  0  0
   17.4603  -16.0676  -16.8248 C   0  0  0  0  0  0  0  0  0  0  0  0
   18.5486  -15.4178  -17.6383 C   0  0  2  0  0  0  0  0  0  0  0  0
   19.8406  -15.3689  -16.8106 C   0  0  0  0  0  0  0  0  0  0  0  0
   20.2830  -13.9207  -16.8416 C   0  0  2  0  0  0  0  0  0  0  0  0
   20.9174  -16.1971  -17.4567 N   0  0  0  0  0  0  0  0  0  0  0  0
   22.1886  -16.1080  -16.8281 C   0  0  0  0  0  0  0  0  0  0  0  0
   21.0465  -15.7738  -18.8585 O   0  0  0  0  0  0  0  0  0  0  0  0
   20.3021  -16.3799  -19.8359 O   0  0  0  0  0  0  0  0  0  0  0  0
  2  3  2  0
  2  1  1  0
  4  2  1  0
  5  4  1  0
  6  5  1  0
  7  6  1  0
  8  7  1  0
  8  9  1  6
 10 17  1  0
 10  8  1  0
 11 10  2  0
 13 12  1  0
 13 14  2  0
 16 15  1  1
 15 13  1  0
 16 17  1  0
 18 19  2  0
 18 16  1  0
 20 21  1  0
 21 22  1  0
 22 23  1  1
 24 22  1  0
 24 25  1  6
 25 18  1  0
 26 24  1  0
 27 26  1  0
 28 26  2  0
M  END
$$$$
