RNI.pdb
     RDKit          3D

 28 27  0  0  1  0  0  0  0  0999 V2000
   29.8862  -24.3665  -15.7409 N   0  0  0  0  0  0  0  0  0  0  0  0
   29.7185  -23.6270  -16.9388 C   0  0  0  0  0  0  0  0  0  0  0  0
   29.5027  -24.2338  -18.0542 N   0  0  0  0  0  0  0  0  0  0  0  0
   29.7934  -22.2047  -16.8864 N   0  0  0  0  0  0  0  0  0  0  0  0
   29.4013  -21.4698  -15.7156 C   0  0  0  0  0  0  0  0  0  0  0  0
   28.3304  -22.1941  -14.9098 C   0  0  0  0  0  0  0  0  0  0  0  0
   27.9329  -21.2702  -13.7833 C   0  0  0  0  0  0  0  0  0  0  0  0
   26.6972  -20.4773  -14.0988 C   0  0  2  0  0  0  0  0  0  0  0  0
   26.9967  -19.3839  -14.9839 N   0  0  0  0  0  0  0  0  0  0  0  0
   26.1483  -19.9862  -12.7848 C   0  0  0  0  0  0  0  0  0  0  0  0
   25.8667  -18.7659  -12.6584 O   0  0  0  0  0  0  0  0  0  0  0  0
   29.4233  -23.7625  -18.9676 N   0  0  0  0  0  0  0  0  0  0  0  0
   22.0121  -21.0278   -8.8379 C   0  0  0  0  0  0  0  0  0  0  0  0
   22.9401  -20.2230   -9.5762 O   0  0  0  0  0  0  0  0  0  0  0  0
   23.0124  -19.0229   -9.2749 C   0  0  0  0  0  0  0  0  0  0  0  0
   23.7795  -20.7837  -10.6508 C   0  0  2  0  0  0  0  0  0  0  0  0
   25.2051  -20.3418  -10.5436 N   0  0  0  0  0  0  0  0  0  0  0  0
   25.9382  -20.8416  -11.6916 C   0  0  0  0  0  0  0  0  0  0  0  0
   25.8463  -20.9272   -9.3114 O   0  0  0  0  0  0  0  0  0  0  0  0
   26.1604  -22.1297   -9.2483 C   0  0  0  0  0  0  0  0  0  0  0  0
   29.2809  -18.0731   -6.0918 C   0  0  0  0  0  0  0  0  0  0  0  0
   28.6741  -19.2146   -6.8646 C   0  0  2  0  0  0  0  0  0  0  0  0
   27.4124  -19.7042   -6.1400 C   0  0  0  0  0  0  0  0  0  0  0  0
   27.9131  -20.4494   -4.9202 C   0  0  2  0  0  0  0  0  0  0  0  0
   26.6505  -20.6769   -6.9979 N   0  0  0  0  0  0  0  0  0  0  0  0
   26.1095  -20.1182   -8.1872 C   0  0  0  0  0  0  0  0  0  0  0  0
   25.5567  -21.2421   -6.1948 O   0  0  0  0  0  0  0  0  0  0  0  0
   24.2540  -20.9307   -6.4829 O   0  0  0  0  0  0  0  0  0  0  0  0
  2  3  2  0
  2  1  1  0
  4  2  1  0
  5  4  1  0
  6  5  1  0
  7  6  1  0
  8  7  1  0
  8  9  1  6
 10 17  1  0
 10  8  1  0
 11 10  2  0
 13 12  1  0
 13 14  2  0
 16 15  1  6
 15 13  1  0
 16 17  1  0
 18 19  2  0
 18 16  1  0
 20 21  1  0
 21 22  1  0
 22 23  1  6
 24 22  1  0
 24 25  1  6
 25 18  1  0
 26 24  1  0
 27 26  1  0
 28 26  2  0
M  END
$$$$
