RNI.pdb
     RDKit          3D

 28 27  0  0  1  0  0  0  0  0999 V2000
   29.1414  -29.4896  -17.7782 N   0  0  0  0  0  0  0  0  0  0  0  0
   28.2054  -29.3985  -16.7173 C   0  0  0  0  0  0  0  0  0  0  0  0
   28.0747  -30.3673  -15.8788 N   0  0  0  0  0  0  0  0  0  0  0  0
   27.4140  -28.2194  -16.5965 N   0  0  0  0  0  0  0  0  0  0  0  0
   27.5509  -27.1202  -17.5117 C   0  0  0  0  0  0  0  0  0  0  0  0
   28.9468  -26.5108  -17.4792 C   0  0  0  0  0  0  0  0  0  0  0  0
   28.8372  -25.2102  -16.7196 C   0  0  0  0  0  0  0  0  0  0  0  0
   28.2133  -24.1170  -17.5385 C   0  0  2  0  0  0  0  0  0  0  0  0
   29.0077  -23.8247  -18.7012 N   0  0  0  0  0  0  0  0  0  0  0  0
   28.0927  -22.9147  -16.6390 C   0  0  0  0  0  0  0  0  0  0  0  0
   29.1237  -22.4738  -16.0672 O   0  0  0  0  0  0  0  0  0  0  0  0
   27.3874  -30.3838  -15.1107 N   0  0  0  0  0  0  0  0  0  0  0  0
   27.2571  -19.6411  -18.6233 C   0  0  0  0  0  0  0  0  0  0  0  0
   27.2888  -19.3686  -17.2166 O   0  0  0  0  0  0  0  0  0  0  0  0
   28.1913  -18.6255  -16.8048 C   0  0  0  0  0  0  0  0  0  0  0  0
   26.2979  -19.9401  -16.2867 C   0  0  2  0  0  0  0  0  0  0  0  0
   26.8410  -21.1126  -15.5321 N   0  0  0  0  0  0  0  0  0  0  0  0
   26.8688  -22.2649  -16.4134 C   0  0  0  0  0  0  0  0  0  0  0  0
   25.9406  -21.4552  -14.3728 O   0  0  0  0  0  0  0  0  0  0  0  0
   24.9790  -22.2345  -14.5020 C   0  0  0  0  0  0  0  0  0  0  0  0
   25.3773  -20.7231   -8.2249 C   0  0  0  0  0  0  0  0  0  0  0  0
   24.7871  -21.0598   -9.5690 C   0  0  2  0  0  0  0  0  0  0  0  0
   25.8369  -20.8109  -10.6611 C   0  0  0  0  0  0  0  0  0  0  0  0
   26.0929  -19.3183  -10.6396 C   0  0  2  0  0  0  0  0  0  0  0  0
   25.2895  -21.1685  -12.0158 N   0  0  0  0  0  0  0  0  0  0  0  0
   26.1678  -20.8955  -13.0990 C   0  0  0  0  0  0  0  0  0  0  0  0
   24.0366  -20.4266  -12.2178 O   0  0  0  0  0  0  0  0  0  0  0  0
   22.8711  -20.8689  -11.6495 O   0  0  0  0  0  0  0  0  0  0  0  0
  2  3  2  0
  2  1  1  0
  4  2  1  0
  5  4  1  0
  6  5  1  0
  7  6  1  0
  8  7  1  0
  8  9  1  6
 10 17  1  0
 10  8  1  0
 11 10  2  0
 13 12  1  0
 13 14  2  0
 16 15  1  6
 15 13  1  0
 16 17  1  0
 18 19  2  0
 18 16  1  0
 20 21  1  0
 21 22  1  0
 22 23  1  6
 24 22  1  0
 24 25  1  6
 25 18  1  0
 26 24  1  0
 27 26  1  0
 28 26  2  0
M  END
$$$$
