RNI.pdb
     RDKit          3D

 28 27  0  0  1  0  0  0  0  0999 V2000
   24.9636  -19.8820  -11.2423 N   0  0  0  0  0  0  0  0  0  0  0  0
   24.8301  -21.2699  -10.9859 C   0  0  0  0  0  0  0  0  0  0  0  0
   23.6987  -21.7570  -10.6097 N   0  0  0  0  0  0  0  0  0  0  0  0
   25.9671  -22.1133  -11.1511 N   0  0  0  0  0  0  0  0  0  0  0  0
   26.7400  -22.1113  -12.3624 C   0  0  0  0  0  0  0  0  0  0  0  0
   26.2230  -23.1203  -13.3800 C   0  0  0  0  0  0  0  0  0  0  0  0
   26.2462  -22.4339  -14.7250 C   0  0  0  0  0  0  0  0  0  0  0  0
   26.2818  -20.9374  -14.6062 C   0  0  2  0  0  0  0  0  0  0  0  0
   26.3814  -20.5303  -13.2303 N   0  0  0  0  0  0  0  0  0  0  0  0
   25.0178  -20.4204  -15.2419 C   0  0  0  0  0  0  0  0  0  0  0  0
   24.8454  -20.5828  -16.4782 O   0  0  0  0  0  0  0  0  0  0  0  0
   23.5487  -22.7411  -10.3418 N   0  0  0  0  0  0  0  0  0  0  0  0
   21.2661  -21.3885  -12.7157 C   0  0  0  0  0  0  0  0  0  0  0  0
   21.4013  -20.8912  -14.0531 O   0  0  0  0  0  0  0  0  0  0  0  0
   21.3020  -21.7138  -14.9750 C   0  0  0  0  0  0  0  0  0  0  0  0
   21.6481  -19.4656  -14.3363 C   0  0  2  0  0  0  0  0  0  0  0  0
   22.8512  -19.2612  -15.2022 N   0  0  0  0  0  0  0  0  0  0  0  0
   24.0210  -19.7617  -14.5047 C   0  0  0  0  0  0  0  0  0  0  0  0
   23.0736  -17.7920  -15.4557 O   0  0  0  0  0  0  0  0  0  0  0  0
   22.5036  -16.9193  -14.7760 C   0  0  0  0  0  0  0  0  0  0  0  0
   25.9231  -13.3991  -15.3833 C   0  0  0  0  0  0  0  0  0  0  0  0
   26.2329  -14.3520  -16.5078 C   0  0  2  0  0  0  0  0  0  0  0  0
   25.7775  -15.7647  -16.1159 C   0  0  0  0  0  0  0  0  0  0  0  0
   26.6801  -16.7060  -16.8860 C   0  0  2  0  0  0  0  0  0  0  0  0
   24.3621  -16.0098  -16.5625 N   0  0  0  0  0  0  0  0  0  0  0  0
   23.9428  -17.3650  -16.4803 C   0  0  0  0  0  0  0  0  0  0  0  0
   24.2314  -15.5525  -17.9534 O   0  0  0  0  0  0  0  0  0  0  0  0
   24.2282  -16.4574  -18.9821 O   0  0  0  0  0  0  0  0  0  0  0  0
  2  3  2  0
  2  1  1  0
  4  2  1  0
  5  4  1  0
  6  5  1  0
  7  6  1  0
  8  7  1  0
  8  9  1  1
 10 17  1  0
 10  8  1  0
 11 10  2  0
 13 12  1  0
 13 14  2  0
 16 15  1  6
 15 13  1  0
 16 17  1  0
 18 19  2  0
 18 16  1  0
 20 21  1  0
 21 22  1  0
 22 23  1  6
 24 22  1  0
 24 25  1  6
 25 18  1  0
 26 24  1  0
 27 26  1  0
 28 26  2  0
M  END
$$$$
