RNI.pdb
     RDKit          3D

 28 27  0  0  1  0  0  0  0  0999 V2000
   28.6049  -20.3550  -14.8470 N   0  0  0  0  0  0  0  0  0  0  0  0
   27.4520  -19.6331  -15.2465 C   0  0  0  0  0  0  0  0  0  0  0  0
   27.1174  -19.5757  -16.4889 N   0  0  0  0  0  0  0  0  0  0  0  0
   26.6731  -18.9737  -14.2516 N   0  0  0  0  0  0  0  0  0  0  0  0
   26.9295  -19.1531  -12.8492 C   0  0  0  0  0  0  0  0  0  0  0  0
   27.1856  -20.6113  -12.4900 C   0  0  0  0  0  0  0  0  0  0  0  0
   26.0395  -21.0514  -11.6107 C   0  0  0  0  0  0  0  0  0  0  0  0
   25.1618  -22.0712  -12.2777 C   0  0  2  0  0  0  0  0  0  0  0  0
   25.8032  -22.6237  -13.4404 N   0  0  0  0  0  0  0  0  0  0  0  0
   23.8782  -21.3706  -12.6390 C   0  0  0  0  0  0  0  0  0  0  0  0
   23.1259  -20.9604  -11.7169 O   0  0  0  0  0  0  0  0  0  0  0  0
   26.3118  -19.0441  -16.8510 N   0  0  0  0  0  0  0  0  0  0  0  0
   21.4099  -16.9622  -14.6749 C   0  0  0  0  0  0  0  0  0  0  0  0
   21.3083  -18.1412  -13.8664 O   0  0  0  0  0  0  0  0  0  0  0  0
   20.1976  -18.4002  -13.3812 C   0  0  0  0  0  0  0  0  0  0  0  0
   22.4660  -19.0182  -13.6134 C   0  0  2  0  0  0  0  0  0  0  0  0
   22.2973  -20.3701  -14.2324 N   0  0  0  0  0  0  0  0  0  0  0  0
   23.4878  -21.1573  -13.9705 C   0  0  0  0  0  0  0  0  0  0  0  0
   22.1581  -20.2502  -15.7285 O   0  0  0  0  0  0  0  0  0  0  0  0
   23.0824  -19.8104  -16.4364 C   0  0  0  0  0  0  0  0  0  0  0  0
   19.4025  -22.7472  -20.5533 C   0  0  0  0  0  0  0  0  0  0  0  0
   20.0195  -21.5183  -19.9389 C   0  0  2  0  0  0  0  0  0  0  0  0
   20.0892  -21.6928  -18.4153 C   0  0  0  0  0  0  0  0  0  0  0  0
   18.6529  -21.6347  -17.9381 C   0  0  2  0  0  0  0  0  0  0  0  0
   20.8349  -20.5497  -17.7830 N   0  0  0  0  0  0  0  0  0  0  0  0
   20.9644  -20.6377  -16.3707 C   0  0  0  0  0  0  0  0  0  0  0  0
   20.1384  -19.3004  -18.1222 O   0  0  0  0  0  0  0  0  0  0  0  0
   20.0946  -18.8627  -19.4197 O   0  0  0  0  0  0  0  0  0  0  0  0
  2  3  2  0
  2  1  1  0
  4  2  1  0
  5  4  1  0
  6  5  1  0
  7  6  1  0
  8  7  1  0
  8  9  1  6
 10 17  1  0
 10  8  1  0
 11 10  2  0
 13 12  1  0
 13 14  2  0
 16 15  1  1
 15 13  1  0
 16 17  1  0
 18 19  2  0
 18 16  1  0
 20 21  1  0
 21 22  1  0
 22 23  1  1
 24 22  1  0
 24 25  1  6
 25 18  1  0
 26 24  1  0
 27 26  1  0
 28 26  2  0
M  END
$$$$
