RNI.pdb
     RDKit          3D

 28 27  0  0  1  0  0  0  0  0999 V2000
   26.4338  -23.4780  -16.6829 N   0  0  0  0  0  0  0  0  0  0  0  0
   27.4068  -23.1908  -17.6731 C   0  0  0  0  0  0  0  0  0  0  0  0
   27.2692  -23.6414  -18.8717 N   0  0  0  0  0  0  0  0  0  0  0  0
   28.5366  -22.3974  -17.3188 N   0  0  0  0  0  0  0  0  0  0  0  0
   28.7038  -21.8698  -15.9928 C   0  0  0  0  0  0  0  0  0  0  0  0
   29.1369  -20.4092  -16.0018 C   0  0  0  0  0  0  0  0  0  0  0  0
   27.9081  -19.5882  -15.6909 C   0  0  0  0  0  0  0  0  0  0  0  0
   27.1339  -19.2222  -16.9245 C   0  0  2  0  0  0  0  0  0  0  0  0
   27.7562  -18.1274  -17.6193 N   0  0  0  0  0  0  0  0  0  0  0  0
   25.7410  -18.8667  -16.4744 C   0  0  0  0  0  0  0  0  0  0  0  0
   25.5504  -17.7698  -15.8871 O   0  0  0  0  0  0  0  0  0  0  0  0
   27.9330  -23.4641  -19.6402 N   0  0  0  0  0  0  0  0  0  0  0  0
   20.8184  -18.7289  -15.1256 C   0  0  0  0  0  0  0  0  0  0  0  0
   20.9545  -19.2933  -16.4360 O   0  0  0  0  0  0  0  0  0  0  0  0
   19.9160  -19.4531  -17.0935 C   0  0  0  0  0  0  0  0  0  0  0  0
   22.2662  -19.6726  -16.9919 C   0  0  2  0  0  0  0  0  0  0  0  0
   23.3846  -19.4071  -16.0339 N   0  0  0  0  0  0  0  0  0  0  0  0
   24.6435  -19.7161  -16.6859 C   0  0  0  0  0  0  0  0  0  0  0  0
   23.2701  -20.3058  -14.8291 O   0  0  0  0  0  0  0  0  0  0  0  0
   23.5712  -21.5121  -14.8844 C   0  0  0  0  0  0  0  0  0  0  0  0
   25.8474  -20.2217  -10.1208 C   0  0  0  0  0  0  0  0  0  0  0  0
   24.8769  -20.9478  -11.0149 C   0  0  2  0  0  0  0  0  0  0  0  0
   23.6734  -20.0389  -11.3018 C   0  0  0  0  0  0  0  0  0  0  0  0
   22.8378  -20.0681  -10.0390 C   0  0  2  0  0  0  0  0  0  0  0  0
   22.8404  -20.5980  -12.4226 N   0  0  0  0  0  0  0  0  0  0  0  0
   22.8143  -19.7969  -13.5960 C   0  0  0  0  0  0  0  0  0  0  0  0
   21.4656  -20.7731  -11.9327 O   0  0  0  0  0  0  0  0  0  0  0  0
   20.4472  -20.0109  -12.4415 O   0  0  0  0  0  0  0  0  0  0  0  0
  2  3  2  0
  2  1  1  0
  4  2  1  0
  5  4  1  0
  6  5  1  0
  7  6  1  0
  8  7  1  0
  8  9  1  1
 10 17  1  0
 10  8  1  0
 11 10  2  0
 13 12  1  0
 13 14  2  0
 16 15  1  6
 15 13  1  0
 16 17  1  0
 18 19  2  0
 18 16  1  0
 20 21  1  0
 21 22  1  0
 22 23  1  6
 24 22  1  0
 24 25  1  6
 25 18  1  0
 26 24  1  0
 27 26  1  0
 28 26  2  0
M  END
$$$$
