RNI.pdb
     RDKit          3D

 28 27  0  0  1  0  0  0  0  0999 V2000
   26.8234  -23.0745  -17.1216 N   0  0  0  0  0  0  0  0  0  0  0  0
   28.1842  -23.2666  -17.4697 C   0  0  0  0  0  0  0  0  0  0  0  0
   28.5077  -23.6128  -18.6673 N   0  0  0  0  0  0  0  0  0  0  0  0
   29.1843  -23.0708  -16.4733 N   0  0  0  0  0  0  0  0  0  0  0  0
   28.8941  -22.4101  -15.2307 C   0  0  0  0  0  0  0  0  0  0  0  0
   28.9438  -20.8927  -15.3570 C   0  0  0  0  0  0  0  0  0  0  0  0
   28.1684  -20.3324  -14.1886 C   0  0  0  0  0  0  0  0  0  0  0  0
   26.6870  -20.3196  -14.4347 C   0  0  2  0  0  0  0  0  0  0  0  0
   26.3453  -19.3969  -15.4837 N   0  0  0  0  0  0  0  0  0  0  0  0
   26.0330  -19.9379  -13.1325 C   0  0  0  0  0  0  0  0  0  0  0  0
   26.0434  -18.7312  -12.7746 O   0  0  0  0  0  0  0  0  0  0  0  0
   29.4691  -23.8259  -18.9722 N   0  0  0  0  0  0  0  0  0  0  0  0
   22.1559  -20.8510  -13.3291 C   0  0  0  0  0  0  0  0  0  0  0  0
   22.5438  -20.1975  -12.1140 O   0  0  0  0  0  0  0  0  0  0  0  0
   22.1761  -19.0237  -11.9609 C   0  0  0  0  0  0  0  0  0  0  0  0
   23.3457  -20.8785  -11.0812 C   0  0  2  0  0  0  0  0  0  0  0  0
   24.7711  -20.4231  -11.0804 N   0  0  0  0  0  0  0  0  0  0  0  0
   25.4101  -20.8811  -12.2999 C   0  0  0  0  0  0  0  0  0  0  0  0
   25.5187  -21.0359   -9.9238 O   0  0  0  0  0  0  0  0  0  0  0  0
   25.9257  -22.2114   -9.9599 C   0  0  0  0  0  0  0  0  0  0  0  0
   28.9047  -19.7510   -4.9704 C   0  0  0  0  0  0  0  0  0  0  0  0
   28.0118  -20.7043   -5.7205 C   0  0  2  0  0  0  0  0  0  0  0  0
   27.3385  -19.9611   -6.8828 C   0  0  0  0  0  0  0  0  0  0  0  0
   26.4983  -18.8799   -6.2355 C   0  0  2  0  0  0  0  0  0  0  0  0
   26.4144  -20.8784   -7.6360 N   0  0  0  0  0  0  0  0  0  0  0  0
   25.7788  -20.2846   -8.7596 C   0  0  0  0  0  0  0  0  0  0  0  0
   25.3849  -21.3624   -6.7049 O   0  0  0  0  0  0  0  0  0  0  0  0
   25.6593  -22.3923   -5.8442 O   0  0  0  0  0  0  0  0  0  0  0  0
  2  3  2  0
  2  1  1  0
  4  2  1  0
  5  4  1  0
  6  5  1  0
  7  6  1  0
  8  7  1  0
  8  9  1  6
 10 17  1  0
 10  8  1  0
 11 10  2  0
 13 12  1  0
 13 14  2  0
 16 15  1  6
 15 13  1  0
 16 17  1  0
 18 19  2  0
 18 16  1  0
 20 21  1  0
 21 22  1  0
 22 23  1  6
 24 22  1  0
 24 25  1  1
 25 18  1  0
 26 24  1  0
 27 26  1  0
 28 26  2  0
M  END
$$$$
