RNI.pdb
     RDKit          3D

 28 27  0  0  1  0  0  0  0  0999 V2000
   29.2738  -23.3738  -20.5724 N   0  0  0  0  0  0  0  0  0  0  0  0
   30.5566  -23.0251  -20.0798 C   0  0  0  0  0  0  0  0  0  0  0  0
   31.5871  -23.0787  -20.8504 N   0  0  0  0  0  0  0  0  0  0  0  0
   30.6845  -22.6160  -18.7205 N   0  0  0  0  0  0  0  0  0  0  0  0
   29.5491  -22.5443  -17.8427 C   0  0  0  0  0  0  0  0  0  0  0  0
   28.7940  -21.2283  -17.9802 C   0  0  0  0  0  0  0  0  0  0  0  0
   28.6612  -20.6546  -16.5896 C   0  0  0  0  0  0  0  0  0  0  0  0
   27.8934  -21.5564  -15.6664 C   0  0  2  0  0  0  0  0  0  0  0  0
   27.3239  -22.6658  -16.3830 N   0  0  0  0  0  0  0  0  0  0  0  0
   26.8253  -20.7118  -15.0222 C   0  0  0  0  0  0  0  0  0  0  0  0
   27.1629  -19.6745  -14.3942 O   0  0  0  0  0  0  0  0  0  0  0  0
   32.5597  -22.9562  -20.5314 N   0  0  0  0  0  0  0  0  0  0  0  0
   22.4972  -18.4872  -13.4375 C   0  0  0  0  0  0  0  0  0  0  0  0
   22.2773  -19.1563  -14.6858 O   0  0  0  0  0  0  0  0  0  0  0  0
   21.1890  -18.9635  -15.2467 C   0  0  0  0  0  0  0  0  0  0  0  0
   23.2921  -20.0391  -15.2894 C   0  0  1  0  0  0  0  0  0  0  0  0
   24.5009  -20.1883  -14.4202 N   0  0  0  0  0  0  0  0  0  0  0  0
   25.4621  -21.0394  -15.0963 C   0  0  0  0  0  0  0  0  0  0  0  0
   24.1362  -20.8645  -13.1232 O   0  0  0  0  0  0  0  0  0  0  0  0
   23.7189  -22.0365  -13.0936 C   0  0  0  0  0  0  0  0  0  0  0  0
   26.7757  -19.3585   -8.7116 C   0  0  0  0  0  0  0  0  0  0  0  0
   26.0900  -20.4389   -9.5059 C   0  0  2  0  0  0  0  0  0  0  0  0
   24.5714  -20.2193   -9.4561 C   0  0  0  0  0  0  0  0  0  0  0  0
   24.0931  -20.9921   -8.2445 C   0  0  2  0  0  0  0  0  0  0  0  0
   23.9093  -20.8067  -10.6724 N   0  0  0  0  0  0  0  0  0  0  0  0
   24.2604  -20.1787  -11.8978 C   0  0  0  0  0  0  0  0  0  0  0  0
   22.4530  -20.7213  -10.4915 O   0  0  0  0  0  0  0  0  0  0  0  0
   21.7687  -19.6078  -10.9022 O   0  0  0  0  0  0  0  0  0  0  0  0
  2  3  2  0
  2  1  1  0
  4  2  1  0
  5  4  1  0
  6  5  1  0
  7  6  1  0
  8  7  1  0
  8  9  1  6
 10 17  1  0
 10  8  1  0
 11 10  2  0
 13 12  1  0
 13 14  2  0
 16 15  1  6
 15 13  1  0
 16 17  1  0
 18 19  2  0
 18 16  1  0
 20 21  1  0
 21 22  1  0
 22 23  1  6
 24 22  1  0
 24 25  1  6
 25 18  1  0
 26 24  1  0
 27 26  1  0
 28 26  2  0
M  END
$$$$
