RNI.pdb
     RDKit          3D

 28 27  0  0  1  0  0  0  0  0999 V2000
   19.9595  -25.2057  -13.3066 N   0  0  0  0  0  0  0  0  0  0  0  0
   21.0379  -26.0836  -13.5825 C   0  0  0  0  0  0  0  0  0  0  0  0
   21.7255  -25.9512  -14.6634 N   0  0  0  0  0  0  0  0  0  0  0  0
   21.3459  -27.1121  -12.6452 N   0  0  0  0  0  0  0  0  0  0  0  0
   20.5889  -27.2843  -11.4361 C   0  0  0  0  0  0  0  0  0  0  0  0
   19.9020  -28.6426  -11.3722 C   0  0  0  0  0  0  0  0  0  0  0  0
   19.2569  -28.7412  -10.0103 C   0  0  0  0  0  0  0  0  0  0  0  0
   18.4694  -30.0082   -9.8375 C   0  0  2  0  0  0  0  0  0  0  0  0
   17.5717  -30.2135  -10.9423 N   0  0  0  0  0  0  0  0  0  0  0  0
   17.7201  -29.8806   -8.5370 C   0  0  0  0  0  0  0  0  0  0  0  0
   16.8031  -29.0236   -8.4420 O   0  0  0  0  0  0  0  0  0  0  0  0
   22.5482  -26.5239  -14.9040 N   0  0  0  0  0  0  0  0  0  0  0  0
   16.6738  -32.6214   -3.0818 C   0  0  0  0  0  0  0  0  0  0  0  0
   16.6810  -31.5736   -4.0596 O   0  0  0  0  0  0  0  0  0  0  0  0
   16.0153  -30.5592   -3.8063 C   0  0  0  0  0  0  0  0  0  0  0  0
   17.4423  -31.6827   -5.3174 C   0  0  1  0  0  0  0  0  0  0  0  0
   17.2345  -30.4988   -6.2086 N   0  0  0  0  0  0  0  0  0  0  0  0
   18.0073  -30.6846   -7.4225 C   0  0  0  0  0  0  0  0  0  0  0  0
   17.7385  -29.2439   -5.5428 O   0  0  0  0  0  0  0  0  0  0  0  0
   18.9340  -29.1099   -5.2238 C   0  0  0  0  0  0  0  0  0  0  0  0
   17.4802  -24.3162   -7.3107 C   0  0  0  0  0  0  0  0  0  0  0  0
   17.9451  -25.5049   -6.5110 C   0  0  2  0  0  0  0  0  0  0  0  0
   16.9951  -25.7215   -5.3247 C   0  0  0  0  0  0  0  0  0  0  0  0
   17.2699  -24.5740   -4.3751 C   0  0  2  0  0  0  0  0  0  0  0  0
   17.3217  -27.0040   -4.6097 N   0  0  0  0  0  0  0  0  0  0  0  0
   16.8589  -28.1786   -5.2618 C   0  0  0  0  0  0  0  0  0  0  0  0
   16.7365  -26.9432   -3.2625 O   0  0  0  0  0  0  0  0  0  0  0  0
   15.6698  -27.7379   -2.9348 O   0  0  0  0  0  0  0  0  0  0  0  0
  2  3  2  0
  2  1  1  0
  4  2  1  0
  5  4  1  0
  6  5  1  0
  7  6  1  0
  8  7  1  0
  8  9  1  6
 10 17  1  0
 10  8  1  0
 11 10  2  0
 13 12  1  0
 13 14  2  0
 16 15  1  6
 15 13  1  0
 16 17  1  0
 18 19  2  0
 18 16  1  0
 20 21  1  0
 21 22  1  0
 22 23  1  6
 24 22  1  0
 24 25  1  1
 25 18  1  0
 26 24  1  0
 27 26  1  0
 28 26  2  0
M  END
$$$$
