RNI.pdb
     RDKit          3D

 28 27  0  0  1  0  0  0  0  0999 V2000
   17.6450  -24.0366  -13.0305 N   0  0  0  0  0  0  0  0  0  0  0  0
   16.7298  -23.3524  -12.1912 C   0  0  0  0  0  0  0  0  0  0  0  0
   15.6544  -22.8401  -12.6810 N   0  0  0  0  0  0  0  0  0  0  0  0
   17.0210  -23.2420  -10.8004 N   0  0  0  0  0  0  0  0  0  0  0  0
   17.5598  -24.3433  -10.0511 C   0  0  0  0  0  0  0  0  0  0  0  0
   16.7642  -24.6240   -8.7826 C   0  0  0  0  0  0  0  0  0  0  0  0
   17.5335  -24.0054   -7.6397 C   0  0  0  0  0  0  0  0  0  0  0  0
   18.3156  -25.0206   -6.8570 C   0  0  2  0  0  0  0  0  0  0  0  0
   18.2421  -26.3177   -7.4741 N   0  0  0  0  0  0  0  0  0  0  0  0
   17.7350  -25.0397   -5.4671 C   0  0  0  0  0  0  0  0  0  0  0  0
   17.6658  -23.9626   -4.8194 O   0  0  0  0  0  0  0  0  0  0  0  0
   14.9823  -22.2730  -12.1430 N   0  0  0  0  0  0  0  0  0  0  0  0
   14.3720  -25.7305   -1.3143 C   0  0  0  0  0  0  0  0  0  0  0  0
   15.0662  -26.8259   -1.9244 O   0  0  0  0  0  0  0  0  0  0  0  0
   15.2780  -27.8237   -1.2203 C   0  0  0  0  0  0  0  0  0  0  0  0
   15.5155  -26.7828   -3.3279 C   0  0  1  0  0  0  0  0  0  0  0  0
   16.8790  -26.1823   -3.4669 N   0  0  0  0  0  0  0  0  0  0  0  0
   17.2666  -26.2180   -4.8647 C   0  0  0  0  0  0  0  0  0  0  0  0
   17.8918  -26.9927   -2.6990 O   0  0  0  0  0  0  0  0  0  0  0  0
   18.3531  -28.0569   -3.1502 C   0  0  0  0  0  0  0  0  0  0  0  0
   21.6330  -24.7552    0.7465 C   0  0  0  0  0  0  0  0  0  0  0  0
   21.0388  -25.6643   -0.2970 C   0  0  2  0  0  0  0  0  0  0  0  0
   20.0217  -26.6029    0.3672 C   0  0  0  0  0  0  0  0  0  0  0  0
   20.8484  -27.6025    1.1491 C   0  0  2  0  0  0  0  0  0  0  0  0
   19.2392  -27.3592   -0.6713 N   0  0  0  0  0  0  0  0  0  0  0  0
   18.3472  -26.5607   -1.4367 C   0  0  0  0  0  0  0  0  0  0  0  0
   18.4737  -28.4155    0.0063 O   0  0  0  0  0  0  0  0  0  0  0  0
   18.9134  -29.7128   -0.0178 O   0  0  0  0  0  0  0  0  0  0  0  0
  2  3  2  0
  2  1  1  0
  4  2  1  0
  5  4  1  0
  6  5  1  0
  7  6  1  0
  8  7  1  0
  8  9  1  6
 10 17  1  0
 10  8  1  0
 11 10  2  0
 13 12  1  0
 13 14  2  0
 16 15  1  6
 15 13  1  0
 16 17  1  0
 18 19  2  0
 18 16  1  0
 20 21  1  0
 21 22  1  0
 22 23  1  1
 24 22  1  0
 24 25  1  6
 25 18  1  0
 26 24  1  0
 27 26  1  0
 28 26  2  0
M  END
$$$$
