GVT.pdb
     RDKit          3D

 19 18  0  0  1  0  0  0  0  0999 V2000
   21.0320  -12.9481  -18.1537 N   0  0  0  0  0  0  0  0  0  0  0  0
   21.6606  -11.6635  -18.3075 C   0  0  0  0  0  0  0  0  0  0  0  0
   21.8463  -10.9858  -16.9730 C   0  0  0  0  0  0  0  0  0  0  0  0
   20.9796  -11.2009  -16.0943 O   0  0  0  0  0  0  0  0  0  0  0  0
   25.6671   -9.2826  -16.2620 C   0  0  0  0  0  0  0  0  0  0  0  0
   24.7593   -9.8107  -15.1513 C   0  0  2  0  0  0  0  0  0  0  0  0
   24.9611  -11.3132  -15.1237 C   0  0  0  0  0  0  0  0  0  0  0  0
   23.3428   -9.4455  -15.5548 C   0  0  2  0  0  0  0  0  0  0  0  0
   22.9520  -10.1618  -16.7691 N   0  0  0  0  0  0  0  0  0  0  0  0
   23.0842   -8.0216  -15.7159 C   0  0  0  0  0  0  0  0  0  0  0  0
   23.6378   -7.4329  -16.7054 O   0  0  0  0  0  0  0  0  0  0  0  0
   20.3081   -6.1125  -16.8544 C   0  0  0  0  0  0  0  0  0  0  0  0
   20.6679   -5.4337  -15.5466 C   0  0  1  0  0  0  0  0  0  0  0  0
   19.7964   -5.9920  -14.5884 O   0  0  0  0  0  0  0  0  0  0  0  0
   22.1055   -5.7862  -15.2511 C   0  0  2  0  0  0  0  0  0  0  0  0
   22.2831   -7.1793  -14.9100 N   0  0  0  0  0  0  0  0  0  0  0  0
   22.5074   -4.9808  -14.0657 C   0  0  0  0  0  0  0  0  0  0  0  0
   22.8519   -5.6132  -13.0259 O   0  0  0  0  0  0  0  0  0  0  0  0
   22.5174   -3.6036  -14.0609 O   0  0  0  0  0  0  0  0  0  0  0  0
  1  2  1  0
  3  2  1  0
  3  4  2  0
  6  5  1  6
  6  7  1  0
  6  8  1  0
  8 10  1  0
  8  9  1  6
  9  3  1  0
 10 11  2  0
 10 16  1  0
 13 12  1  6
 13 15  1  0
 14 13  1  0
 15 17  1  0
 15 16  1  1
 17 18  2  0
 17 19  1  0
M  END
$$$$
