GVT.pdb
     RDKit          3D

 19 18  0  0  1  0  0  0  0  0999 V2000
   20.6175  -15.0037  -18.5544 N   0  0  0  0  0  0  0  0  0  0  0  0
   20.8544  -13.5963  -18.7326 C   0  0  0  0  0  0  0  0  0  0  0  0
   20.9568  -12.8897  -17.4040 C   0  0  0  0  0  0  0  0  0  0  0  0
   20.0235  -13.0652  -16.5870 O   0  0  0  0  0  0  0  0  0  0  0  0
   24.6183  -10.8708  -16.7394 C   0  0  0  0  0  0  0  0  0  0  0  0
   23.8427  -11.4734  -15.5679 C   0  0  2  0  0  0  0  0  0  0  0  0
   24.2635  -12.9280  -15.4904 C   0  0  0  0  0  0  0  0  0  0  0  0
   22.3730  -11.3358  -15.9197 C   0  0  2  0  0  0  0  0  0  0  0  0
   22.0627  -12.0838  -17.1382 N   0  0  0  0  0  0  0  0  0  0  0  0
   21.8821   -9.9701  -16.0395 C   0  0  0  0  0  0  0  0  0  0  0  0
   22.2439   -9.3046  -17.0682 O   0  0  0  0  0  0  0  0  0  0  0  0
   18.6428   -8.7211  -16.7842 C   0  0  0  0  0  0  0  0  0  0  0  0
   19.0467   -7.8794  -15.5887 C   0  0  1  0  0  0  0  0  0  0  0  0
   18.4383   -8.4996  -14.4776 O   0  0  0  0  0  0  0  0  0  0  0  0
   20.5518   -7.9439  -15.4961 C   0  0  2  0  0  0  0  0  0  0  0  0
   21.0372   -9.2613  -15.1538 N   0  0  0  0  0  0  0  0  0  0  0  0
   20.9518   -7.0209  -14.3990 C   0  0  0  0  0  0  0  0  0  0  0  0
   21.5328   -7.5297  -13.3974 O   0  0  0  0  0  0  0  0  0  0  0  0
   20.7173   -5.6642  -14.4350 O   0  0  0  0  0  0  0  0  0  0  0  0
  1  2  1  0
  3  2  1  0
  3  4  2  0
  6  5  1  6
  6  7  1  0
  6  8  1  0
  8 10  1  0
  8  9  1  6
  9  3  1  0
 10 11  2  0
 10 16  1  0
 13 12  1  6
 13 15  1  0
 14 13  1  0
 15 17  1  0
 15 16  1  1
 17 18  2  0
 17 19  1  0
M  END
$$$$
