GVT.pdb
     RDKit          3D

 19 18  0  0  1  0  0  0  0  0999 V2000
   18.7511  -11.7665  -18.5273 N   0  0  0  0  0  0  0  0  0  0  0  0
   19.3626  -10.4673  -18.6102 C   0  0  0  0  0  0  0  0  0  0  0  0
   19.6557   -9.9157  -17.2374 C   0  0  0  0  0  0  0  0  0  0  0  0
   18.6784   -9.5439  -16.5474 O   0  0  0  0  0  0  0  0  0  0  0  0
   23.1092   -9.7441  -13.7107 C   0  0  0  0  0  0  0  0  0  0  0  0
   22.5686  -10.3534  -15.0043 C   0  0  2  0  0  0  0  0  0  0  0  0
   23.7365  -10.3897  -15.9707 C   0  0  0  0  0  0  0  0  0  0  0  0
   21.4747   -9.4185  -15.4860 C   0  0  2  0  0  0  0  0  0  0  0  0
   20.9754   -9.8408  -16.7947 N   0  0  0  0  0  0  0  0  0  0  0  0
   21.8284   -8.0066  -15.5239 C   0  0  0  0  0  0  0  0  0  0  0  0
   22.7104   -7.6452  -16.3745 O   0  0  0  0  0  0  0  0  0  0  0  0
   20.1598   -5.0619  -16.7033 C   0  0  0  0  0  0  0  0  0  0  0  0
   20.6206   -4.6642  -15.3139 C   0  0  1  0  0  0  0  0  0  0  0  0
   19.5005   -4.8672  -14.4810 O   0  0  0  0  0  0  0  0  0  0  0  0
   21.7527   -5.5919  -14.9456 C   0  0  2  0  0  0  0  0  0  0  0  0
   21.3162   -6.9528  -14.7314 N   0  0  0  0  0  0  0  0  0  0  0  0
   22.3113   -5.0938  -13.6590 C   0  0  0  0  0  0  0  0  0  0  0  0
   22.1933   -5.8440  -12.6475 O   0  0  0  0  0  0  0  0  0  0  0  0
   22.9373   -3.8734  -13.5336 O   0  0  0  0  0  0  0  0  0  0  0  0
  1  2  1  0
  3  2  1  0
  3  4  2  0
  6  5  1  1
  6  7  1  0
  6  8  1  0
  8 10  1  0
  8  9  1  6
  9  3  1  0
 10 11  2  0
 10 16  1  0
 13 12  1  6
 13 15  1  0
 14 13  1  0
 15 17  1  0
 15 16  1  1
 17 18  2  0
 17 19  1  0
M  END
$$$$
