GVT.pdb
     RDKit          3D

 19 18  0  0  1  0  0  0  0  0999 V2000
   19.2871  -11.7081  -19.0912 N   0  0  0  0  0  0  0  0  0  0  0  0
   19.9297  -10.4217  -19.0597 C   0  0  0  0  0  0  0  0  0  0  0  0
   20.0209   -9.8939  -17.6498 C   0  0  0  0  0  0  0  0  0  0  0  0
   18.9536   -9.5337  -17.1014 O   0  0  0  0  0  0  0  0  0  0  0  0
   22.9458   -9.8033  -13.6678 C   0  0  0  0  0  0  0  0  0  0  0  0
   22.6014  -10.3768  -15.0424 C   0  0  2  0  0  0  0  0  0  0  0  0
   23.8921  -10.3622  -15.8380 C   0  0  0  0  0  0  0  0  0  0  0  0
   21.5661   -9.4433  -15.6416 C   0  0  2  0  0  0  0  0  0  0  0  0
   21.2629   -9.8271  -17.0204 N   0  0  0  0  0  0  0  0  0  0  0  0
   21.8920   -8.0253  -15.5834 C   0  0  0  0  0  0  0  0  0  0  0  0
   22.8829   -7.6218  -16.2815 O   0  0  0  0  0  0  0  0  0  0  0  0
   20.3869   -4.9327  -16.7983 C   0  0  0  0  0  0  0  0  0  0  0  0
   20.6588   -4.6657  -15.3301 C   0  0  1  0  0  0  0  0  0  0  0  0
   19.4351   -4.9180  -14.6758 O   0  0  0  0  0  0  0  0  0  0  0  0
   21.7236   -5.6439  -14.8970 C   0  0  2  0  0  0  0  0  0  0  0  0
   21.2460   -7.0068  -14.8445 N   0  0  0  0  0  0  0  0  0  0  0  0
   22.1229   -5.2564  -13.5165 C   0  0  0  0  0  0  0  0  0  0  0  0
   22.7067   -4.1436  -13.3734 O   0  0  0  0  0  0  0  0  0  0  0  0
   21.8848   -6.0481  -12.4149 O   0  0  0  0  0  0  0  0  0  0  0  0
  1  2  1  0
  3  2  1  0
  3  4  2  0
  6  5  1  1
  6  7  1  0
  6  8  1  0
  8 10  1  0
  8  9  1  6
  9  3  1  0
 10 11  2  0
 10 16  1  0
 13 12  1  6
 13 15  1  0
 14 13  1  0
 15 17  1  0
 15 16  1  1
 17 18  2  0
 17 19  1  0
M  END
$$$$
