GVT.pdb
     RDKit          3D

 19 18  0  0  1  0  0  0  0  0999 V2000
   21.4429  -12.2654  -19.0364 N   0  0  0  0  0  0  0  0  0  0  0  0
   21.7834  -10.8691  -18.9810 C   0  0  0  0  0  0  0  0  0  0  0  0
   21.3007  -10.2423  -17.6969 C   0  0  0  0  0  0  0  0  0  0  0  0
   20.0648  -10.0862  -17.5634 O   0  0  0  0  0  0  0  0  0  0  0  0
   24.0284  -10.3861  -14.6085 C   0  0  0  0  0  0  0  0  0  0  0  0
   22.5313  -10.2624  -14.3256 C   0  0  2  0  0  0  0  0  0  0  0  0
   21.9623  -11.6614  -14.4598 C   0  0  0  0  0  0  0  0  0  0  0  0
   21.9770   -9.3305  -15.3872 C   0  0  2  0  0  0  0  0  0  0  0  0
   22.2269   -9.8670  -16.7252 N   0  0  0  0  0  0  0  0  0  0  0  0
   22.4381   -7.9513  -15.3136 C   0  0  0  0  0  0  0  0  0  0  0  0
   23.6391   -7.7138  -15.6786 O   0  0  0  0  0  0  0  0  0  0  0  0
   21.9057   -5.0097  -17.2582 C   0  0  0  0  0  0  0  0  0  0  0  0
   21.6263   -4.5428  -15.8423 C   0  0  1  0  0  0  0  0  0  0  0  0
   20.2264   -4.6296  -15.6940 O   0  0  0  0  0  0  0  0  0  0  0  0
   22.3359   -5.5012  -14.9171 C   0  0  2  0  0  0  0  0  0  0  0  0
   21.7220   -6.8091  -14.8854 N   0  0  0  0  0  0  0  0  0  0  0  0
   22.2346   -4.9264  -13.5479 C   0  0  0  0  0  0  0  0  0  0  0  0
   21.5945   -5.5943  -12.6854 O   0  0  0  0  0  0  0  0  0  0  0  0
   22.7999   -3.7211  -13.1948 O   0  0  0  0  0  0  0  0  0  0  0  0
  1  2  1  0
  3  2  1  0
  3  4  2  0
  6  5  1  6
  6  7  1  0
  6  8  1  0
  8 10  1  0
  8  9  1  6
  9  3  1  0
 10 11  2  0
 10 16  1  0
 13 12  1  6
 13 15  1  0
 14 13  1  0
 15 17  1  0
 15 16  1  1
 17 18  2  0
 17 19  1  0
M  END
$$$$
