GVT.pdb
     RDKit          3D

 19 18  0  0  1  0  0  0  0  0999 V2000
   22.3432  -19.9759  -16.0989 N   0  0  0  0  0  0  0  0  0  0  0  0
   22.9959  -18.9656  -16.8876 C   0  0  0  0  0  0  0  0  0  0  0  0
   22.9730  -17.6300  -16.1872 C   0  0  0  0  0  0  0  0  0  0  0  0
   21.9698  -17.3676  -15.4841 O   0  0  0  0  0  0  0  0  0  0  0  0
   25.7920  -13.7319  -14.9675 C   0  0  0  0  0  0  0  0  0  0  0  0
   25.6973  -15.1798  -15.4485 C   0  0  2  0  0  0  0  0  0  0  0  0
   26.5506  -15.2627  -16.6992 C   0  0  0  0  0  0  0  0  0  0  0  0
   24.2320  -15.4273  -15.7555 C   0  0  2  0  0  0  0  0  0  0  0  0
   24.0458  -16.7539  -16.3437 N   0  0  0  0  0  0  0  0  0  0  0  0
   23.5875  -14.4221  -16.5887 C   0  0  0  0  0  0  0  0  0  0  0  0
   23.9579  -14.3460  -17.8090 O   0  0  0  0  0  0  0  0  0  0  0  0
   20.1529  -14.0630  -17.8310 C   0  0  0  0  0  0  0  0  0  0  0  0
   20.4974  -12.6982  -17.2658 C   0  0  1  0  0  0  0  0  0  0  0  0
   19.9380  -12.6826  -15.9711 O   0  0  0  0  0  0  0  0  0  0  0  0
   22.0034  -12.6134  -17.2132 C   0  0  2  0  0  0  0  0  0  0  0  0
   22.5812  -13.4966  -16.2260 N   0  0  0  0  0  0  0  0  0  0  0  0
   22.3386  -11.2186  -16.8161 C   0  0  0  0  0  0  0  0  0  0  0  0
   22.9863  -11.0625  -15.7410 O   0  0  0  0  0  0  0  0  0  0  0  0
   21.9770  -10.1176  -17.5604 O   0  0  0  0  0  0  0  0  0  0  0  0
  1  2  1  0
  3  2  1  0
  3  4  2  0
  6  5  1  6
  6  7  1  0
  6  8  1  0
  8 10  1  0
  8  9  1  6
  9  3  1  0
 10 11  2  0
 10 16  1  0
 13 12  1  1
 13 15  1  0
 14 13  1  0
 15 17  1  0
 15 16  1  1
 17 18  2  0
 17 19  1  0
M  END
$$$$
