GVT.pdb
     RDKit          3D

 19 18  0  0  1  0  0  0  0  0999 V2000
   19.0284  -11.6174  -18.7165 N   0  0  0  0  0  0  0  0  0  0  0  0
   19.9447  -10.5136  -18.6121 C   0  0  0  0  0  0  0  0  0  0  0  0
   20.0569  -10.0330  -17.1869 C   0  0  0  0  0  0  0  0  0  0  0  0
   18.9943   -9.9250  -16.5321 O   0  0  0  0  0  0  0  0  0  0  0  0
   23.9764  -10.0990  -15.4326 C   0  0  0  0  0  0  0  0  0  0  0  0
   22.6554  -10.3495  -14.7053 C   0  0  2  0  0  0  0  0  0  0  0  0
   22.2697  -11.7820  -15.0181 C   0  0  0  0  0  0  0  0  0  0  0  0
   21.6597   -9.3637  -15.2878 C   0  0  2  0  0  0  0  0  0  0  0  0
   21.3121   -9.7326  -16.6602 N   0  0  0  0  0  0  0  0  0  0  0  0
   22.0603   -7.9646  -15.2383 C   0  0  0  0  0  0  0  0  0  0  0  0
   23.0853   -7.6233  -15.9202 O   0  0  0  0  0  0  0  0  0  0  0  0
   20.8585   -4.9621  -16.6772 C   0  0  0  0  0  0  0  0  0  0  0  0
   21.0104   -4.5838  -15.2162 C   0  0  1  0  0  0  0  0  0  0  0  0
   19.7228   -4.7328  -14.6601 O   0  0  0  0  0  0  0  0  0  0  0  0
   21.9860   -5.5626  -14.6095 C   0  0  2  0  0  0  0  0  0  0  0  0
   21.4554   -6.9041  -14.5241 N   0  0  0  0  0  0  0  0  0  0  0  0
   22.2498   -5.0969  -13.2206 C   0  0  0  0  0  0  0  0  0  0  0  0
   21.9598   -5.8901  -12.2791 O   0  0  0  0  0  0  0  0  0  0  0  0
   22.7860   -3.8618  -12.9310 O   0  0  0  0  0  0  0  0  0  0  0  0
  1  2  1  0
  3  2  1  0
  3  4  2  0
  6  5  1  6
  6  7  1  0
  6  8  1  0
  8 10  1  0
  8  9  1  6
  9  3  1  0
 10 11  2  0
 10 16  1  0
 13 12  1  6
 13 15  1  0
 14 13  1  0
 15 17  1  0
 15 16  1  1
 17 18  2  0
 17 19  1  0
M  END
$$$$
