GVT.pdb
     RDKit          3D

 19 18  0  0  1  0  0  0  0  0999 V2000
   20.7159  -13.1536  -19.4704 N   0  0  0  0  0  0  0  0  0  0  0  0
   21.4184  -11.9317  -19.1834 C   0  0  0  0  0  0  0  0  0  0  0  0
   21.2926  -11.5616  -17.7266 C   0  0  0  0  0  0  0  0  0  0  0  0
   20.2428  -11.9054  -17.1356 O   0  0  0  0  0  0  0  0  0  0  0  0
   24.8280  -10.5814  -15.6612 C   0  0  0  0  0  0  0  0  0  0  0  0
   23.5442  -11.0633  -14.9854 C   0  0  2  0  0  0  0  0  0  0  0  0
   23.5141  -12.5683  -15.1675 C   0  0  0  0  0  0  0  0  0  0  0  0
   22.4013  -10.3893  -15.7217 C   0  0  2  0  0  0  0  0  0  0  0  0
   22.3266  -10.8651  -17.1032 N   0  0  0  0  0  0  0  0  0  0  0  0
   22.4136   -8.9334  -15.7002 C   0  0  0  0  0  0  0  0  0  0  0  0
   23.2727   -8.3429  -16.4387 O   0  0  0  0  0  0  0  0  0  0  0  0
   20.1012   -6.5971  -17.0538 C   0  0  0  0  0  0  0  0  0  0  0  0
   20.3293   -6.0596  -15.6538 C   0  0  1  0  0  0  0  0  0  0  0  0
   19.2473   -6.5458  -14.8907 O   0  0  0  0  0  0  0  0  0  0  0  0
   21.6403   -6.6325  -15.1730 C   0  0  2  0  0  0  0  0  0  0  0  0
   21.5839   -8.0605  -14.9585 N   0  0  0  0  0  0  0  0  0  0  0  0
   21.9287   -5.9941  -13.8597 C   0  0  0  0  0  0  0  0  0  0  0  0
   21.9874   -6.7513  -12.8483 O   0  0  0  0  0  0  0  0  0  0  0  0
   22.1294   -4.6397  -13.7101 O   0  0  0  0  0  0  0  0  0  0  0  0
  1  2  1  0
  3  2  1  0
  3  4  2  0
  6  5  1  6
  6  7  1  0
  6  8  1  0
  8 10  1  0
  8  9  1  6
  9  3  1  0
 10 11  2  0
 10 16  1  0
 13 12  1  6
 13 15  1  0
 14 13  1  0
 15 17  1  0
 15 16  1  1
 17 18  2  0
 17 19  1  0
M  END
$$$$
