GVT.pdb
     RDKit          3D

 19 18  0  0  1  0  0  0  0  0999 V2000
   19.9944  -16.0157  -16.5758 N   0  0  0  0  0  0  0  0  0  0  0  0
   20.2938  -14.7088  -17.0964 C   0  0  0  0  0  0  0  0  0  0  0  0
   20.6201  -13.7426  -15.9851 C   0  0  0  0  0  0  0  0  0  0  0  0
   19.9220  -13.8049  -14.9467 O   0  0  0  0  0  0  0  0  0  0  0  0
   24.2725  -11.6229  -16.4073 C   0  0  0  0  0  0  0  0  0  0  0  0
   23.6762  -11.9749  -15.0444 C   0  0  2  0  0  0  0  0  0  0  0  0
   24.0884  -13.4068  -14.7636 C   0  0  0  0  0  0  0  0  0  0  0  0
   22.1718  -11.8470  -15.1963 C   0  0  2  0  0  0  0  0  0  0  0  0
   21.6645  -12.8341  -16.1495 N   0  0  0  0  0  0  0  0  0  0  0  0
   21.6882  -10.5208  -15.5535 C   0  0  0  0  0  0  0  0  0  0  0  0
   21.9093  -10.1168  -16.7451 O   0  0  0  0  0  0  0  0  0  0  0  0
   18.2781   -9.1167  -15.8466 C   0  0  0  0  0  0  0  0  0  0  0  0
   19.0514   -8.1019  -15.0263 C   0  0  1  0  0  0  0  0  0  0  0  0
   18.7235   -8.3848  -13.6840 O   0  0  0  0  0  0  0  0  0  0  0  0
   20.5163   -8.3458  -15.2958 C   0  0  2  0  0  0  0  0  0  0  0  0
   20.9879   -9.5957  -14.7446 N   0  0  0  0  0  0  0  0  0  0  0  0
   21.2627   -7.2493  -14.6205 C   0  0  0  0  0  0  0  0  0  0  0  0
   22.0675   -7.5771  -13.7015 O   0  0  0  0  0  0  0  0  0  0  0  0
   21.1118   -5.9213  -14.9530 O   0  0  0  0  0  0  0  0  0  0  0  0
  1  2  1  0
  3  2  1  0
  3  4  2  0
  6  5  1  6
  6  7  1  0
  6  8  1  0
  8 10  1  0
  8  9  1  6
  9  3  1  0
 10 11  2  0
 10 16  1  0
 13 12  1  6
 13 15  1  0
 14 13  1  0
 15 17  1  0
 15 16  1  1
 17 18  2  0
 17 19  1  0
M  END
$$$$
