GVT.pdb
     RDKit          3D

 19 18  0  0  1  0  0  0  0  0999 V2000
   14.9445  -12.7196  -11.6748 N   0  0  0  0  0  0  0  0  0  0  0  0
   15.5130  -11.7006  -10.8339 C   0  0  0  0  0  0  0  0  0  0  0  0
   14.8823  -10.3577  -11.1049 C   0  0  0  0  0  0  0  0  0  0  0  0
   14.0308  -10.2979  -12.0219 O   0  0  0  0  0  0  0  0  0  0  0  0
   15.4234   -7.6602   -8.0198 C   0  0  0  0  0  0  0  0  0  0  0  0
   14.1960   -7.5613   -8.9256 C   0  0  2  0  0  0  0  0  0  0  0  0
   13.2041   -8.5807   -8.4004 C   0  0  0  0  0  0  0  0  0  0  0  0
   14.6728   -7.9150  -10.3221 C   0  0  2  0  0  0  0  0  0  0  0  0
   15.2611   -9.2543  -10.3419 N   0  0  0  0  0  0  0  0  0  0  0  0
   15.5907   -6.9628  -10.9312 C   0  0  0  0  0  0  0  0  0  0  0  0
   16.7797   -6.9145  -10.4666 O   0  0  0  0  0  0  0  0  0  0  0  0
   17.0393   -6.7287  -14.4043 C   0  0  0  0  0  0  0  0  0  0  0  0
   16.4776   -5.3616  -14.0633 C   0  0  1  0  0  0  0  0  0  0  0  0
   15.1863   -5.3407  -14.6304 O   0  0  0  0  0  0  0  0  0  0  0  0
   16.4163   -5.2764  -12.5576 C   0  0  2  0  0  0  0  0  0  0  0  0
   15.3429   -6.0631  -11.9941 N   0  0  0  0  0  0  0  0  0  0  0  0
   16.1503   -3.8511  -12.2213 C   0  0  0  0  0  0  0  0  0  0  0  0
   15.0500   -3.5849  -11.6572 O   0  0  0  0  0  0  0  0  0  0  0  0
   17.0390   -2.8354  -12.4961 O   0  0  0  0  0  0  0  0  0  0  0  0
  1  2  1  0
  3  2  1  0
  3  4  2  0
  6  5  1  1
  6  7  1  0
  6  8  1  0
  8 10  1  0
  8  9  1  1
  9  3  1  0
 10 11  2  0
 10 16  1  0
 13 12  1  1
 13 15  1  0
 14 13  1  0
 15 17  1  0
 15 16  1  6
 17 18  2  0
 17 19  1  0
M  END
$$$$
