GVT.pdb
     RDKit          3D

 19 18  0  0  1  0  0  0  0  0999 V2000
   23.4313  -13.4801  -19.1284 N   0  0  0  0  0  0  0  0  0  0  0  0
   23.4774  -12.0481  -19.0014 C   0  0  0  0  0  0  0  0  0  0  0  0
   22.4222  -11.5530  -18.0441 C   0  0  0  0  0  0  0  0  0  0  0  0
   21.2277  -11.8036  -18.3266 O   0  0  0  0  0  0  0  0  0  0  0  0
   23.8203  -10.1169  -14.2848 C   0  0  0  0  0  0  0  0  0  0  0  0
   22.4460  -10.7572  -14.4809 C   0  0  2  0  0  0  0  0  0  0  0  0
   22.6725  -12.2559  -14.4427 C   0  0  0  0  0  0  0  0  0  0  0  0
   21.9589  -10.3011  -15.8438 C   0  0  2  0  0  0  0  0  0  0  0  0
   22.8055  -10.8493  -16.9035 N   0  0  0  0  0  0  0  0  0  0  0  0
   21.8258   -8.8610  -16.0124 C   0  0  0  0  0  0  0  0  0  0  0  0
   22.8986   -8.1885  -16.1828 O   0  0  0  0  0  0  0  0  0  0  0  0
   20.1043   -6.8399  -18.6839 C   0  0  0  0  0  0  0  0  0  0  0  0
   19.6571   -6.2670  -17.3525 C   0  0  1  0  0  0  0  0  0  0  0  0
   18.4108   -6.8728  -17.0896 O   0  0  0  0  0  0  0  0  0  0  0  0
   20.6908   -6.6745  -16.3310 C   0  0  2  0  0  0  0  0  0  0  0  0
   20.6438   -8.0842  -16.0163 N   0  0  0  0  0  0  0  0  0  0  0  0
   20.3753   -5.9270  -15.0832 C   0  0  0  0  0  0  0  0  0  0  0  0
   20.1080   -6.6086  -14.0518 O   0  0  0  0  0  0  0  0  0  0  0  0
   20.3644   -4.5515  -15.0131 O   0  0  0  0  0  0  0  0  0  0  0  0
  1  2  1  0
  3  2  1  0
  3  4  2  0
  6  5  1  6
  6  7  1  0
  6  8  1  0
  8 10  1  0
  8  9  1  6
  9  3  1  0
 10 11  2  0
 10 16  1  0
 13 12  1  6
 13 15  1  0
 14 13  1  0
 15 17  1  0
 15 16  1  1
 17 18  2  0
 17 19  1  0
M  END
$$$$
