GVT.pdb
     RDKit          3D

 19 18  0  0  1  0  0  0  0  0999 V2000
   22.7036  -14.2765  -19.9010 N   0  0  0  0  0  0  0  0  0  0  0  0
   23.1492  -12.9098  -19.8541 C   0  0  0  0  0  0  0  0  0  0  0  0
   23.0593  -12.3563  -18.4540 C   0  0  0  0  0  0  0  0  0  0  0  0
   22.0197  -12.6094  -17.8023 O   0  0  0  0  0  0  0  0  0  0  0  0
   25.6845  -10.1602  -14.8570 C   0  0  0  0  0  0  0  0  0  0  0  0
   25.6668  -10.9552  -16.1626 C   0  0  2  0  0  0  0  0  0  0  0  0
   26.5684  -10.2043  -17.1229 C   0  0  0  0  0  0  0  0  0  0  0  0
   24.2252  -10.9563  -16.6363 C   0  0  2  0  0  0  0  0  0  0  0  0
   24.1135  -11.5991  -17.9457 N   0  0  0  0  0  0  0  0  0  0  0  0
   23.5745   -9.6540  -16.6677 C   0  0  0  0  0  0  0  0  0  0  0  0
   24.0558   -8.7766  -17.4618 O   0  0  0  0  0  0  0  0  0  0  0  0
   20.5408   -8.5157  -18.0650 C   0  0  0  0  0  0  0  0  0  0  0  0
   20.4780   -7.9452  -16.6609 C   0  0  1  0  0  0  0  0  0  0  0  0
   19.6921   -8.8573  -15.9262 O   0  0  0  0  0  0  0  0  0  0  0  0
   21.8948   -7.9009  -16.1425 C   0  0  2  0  0  0  0  0  0  0  0  0
   22.4540   -9.2155  -15.9242 N   0  0  0  0  0  0  0  0  0  0  0  0
   21.8455   -7.2115  -14.8242 C   0  0  0  0  0  0  0  0  0  0  0  0
   22.1639   -7.8886  -13.8045 O   0  0  0  0  0  0  0  0  0  0  0  0
   21.4741   -5.8932  -14.6788 O   0  0  0  0  0  0  0  0  0  0  0  0
  1  2  1  0
  3  2  1  0
  3  4  2  0
  6  5  1  1
  6  7  1  0
  6  8  1  0
  8 10  1  0
  8  9  1  6
  9  3  1  0
 10 11  2  0
 10 16  1  0
 13 12  1  6
 13 15  1  0
 14 13  1  0
 15 17  1  0
 15 16  1  1
 17 18  2  0
 17 19  1  0
M  END
$$$$
