GVT.pdb
     RDKit          3D

 19 18  0  0  1  0  0  0  0  0999 V2000
   18.6219  -12.3683  -17.3864 N   0  0  0  0  0  0  0  0  0  0  0  0
   19.5655  -11.3036  -17.5985 C   0  0  0  0  0  0  0  0  0  0  0  0
   19.9540  -10.6536  -16.2941 C   0  0  0  0  0  0  0  0  0  0  0  0
   19.1147  -10.6850  -15.3646 O   0  0  0  0  0  0  0  0  0  0  0  0
   24.0886   -9.7102  -15.7579 C   0  0  0  0  0  0  0  0  0  0  0  0
   23.1137  -10.0574  -14.6328 C   0  0  2  0  0  0  0  0  0  0  0  0
   23.0034  -11.5696  -14.6255 C   0  0  0  0  0  0  0  0  0  0  0  0
   21.7947   -9.4036  -15.0008 C   0  0  2  0  0  0  0  0  0  0  0  0
   21.2064  -10.0538  -16.1719 N   0  0  0  0  0  0  0  0  0  0  0  0
   21.8452   -7.9632  -15.2082 C   0  0  0  0  0  0  0  0  0  0  0  0
   22.4648   -7.5407  -16.2425 O   0  0  0  0  0  0  0  0  0  0  0  0
   19.4658   -5.4546  -16.2274 C   0  0  0  0  0  0  0  0  0  0  0  0
   20.0867   -4.8690  -14.9734 C   0  0  1  0  0  0  0  0  0  0  0  0
   19.1919   -5.1925  -13.9323 O   0  0  0  0  0  0  0  0  0  0  0  0
   21.4186   -5.5532  -14.7837 C   0  0  2  0  0  0  0  0  0  0  0  0
   21.2875   -6.9415  -14.4046 N   0  0  0  0  0  0  0  0  0  0  0  0
   22.1055   -4.8478  -13.6674 C   0  0  0  0  0  0  0  0  0  0  0  0
   22.4427   -3.6446  -13.8631 O   0  0  0  0  0  0  0  0  0  0  0  0
   22.3805   -5.4447  -12.4570 O   0  0  0  0  0  0  0  0  0  0  0  0
  1  2  1  0
  3  2  1  0
  3  4  2  0
  6  5  1  6
  6  7  1  0
  6  8  1  0
  8 10  1  0
  8  9  1  6
  9  3  1  0
 10 11  2  0
 10 16  1  0
 13 12  1  6
 13 15  1  0
 14 13  1  0
 15 17  1  0
 15 16  1  1
 17 18  2  0
 17 19  1  0
M  END
$$$$
