NMF.pdb
     RDKit          3D

 28 28  0  0  1  0  0  0  0  0999 V2000
   10.5000  -21.7087   18.1706 N   0  0  0  0  0  0  0  0  0  0  0  0
    9.8543  -21.3456   19.3700 C   0  0  0  0  0  0  0  0  0  0  0  0
    9.5677  -22.1972   20.2446 O   0  0  0  0  0  0  0  0  0  0  0  0
    9.4991  -19.9274   19.6180 C   0  0  0  0  0  0  0  0  0  0  0  0
    9.4949  -19.6498   21.1212 C   0  0  2  0  0  0  0  0  0  0  0  0
    8.1829  -19.9642   21.5882 N   0  0  0  0  0  0  0  0  0  0  0  0
    9.8694  -18.2242   21.3801 C   0  0  0  0  0  0  0  0  0  0  0  0
   11.0776  -17.9549   21.2543 O   0  0  0  0  0  0  0  0  0  0  0  0
    7.6359  -10.7635   21.2706 C   0  0  0  0  0  0  0  0  0  0  0  0
    7.1997  -12.4567   20.8704 S   0  0  0  0  0  0  0  0  0  0  0  0
    8.3846  -13.5835   21.6701 C   0  0  0  0  0  0  0  0  0  0  0  0
    8.0009  -15.0244   21.4412 C   0  0  0  0  0  0  0  0  0  0  0  0
    9.0885  -15.8983   22.0364 C   0  0  2  0  0  0  0  0  0  0  0  0
    8.8987  -17.2685   21.7408 N   0  0  0  0  0  0  0  0  0  0  0  0
    9.4440  -15.5724   23.4184 C   0  0  0  0  0  0  0  0  0  0  0  0
   10.1048  -14.5270   23.6322 O   0  0  0  0  0  0  0  0  0  0  0  0
    9.0922  -16.3589   24.5366 N   0  0  0  0  0  0  0  0  0  0  0  0
    9.4567  -16.0553   25.9131 C   0  0  1  0  0  0  0  0  0  0  0  0
    8.2739  -15.7171   26.7450 C   0  0  0  0  0  0  0  0  0  0  0  0
    7.6999  -14.4210   26.3296 C   0  0  0  0  0  0  0  0  0  0  0  0
    6.4648  -14.2701   25.7322 C   0  0  0  0  0  0  0  0  0  0  0  0
    5.9944  -13.0255   25.3792 C   0  0  0  0  0  0  0  0  0  0  0  0
    6.7347  -11.8850   25.6069 C   0  0  0  0  0  0  0  0  0  0  0  0
    7.9736  -12.0431   26.2066 C   0  0  0  0  0  0  0  0  0  0  0  0
    8.4573  -13.2767   26.5649 C   0  0  0  0  0  0  0  0  0  0  0  0
   10.2351  -17.1710   26.4323 C   0  0  0  0  0  0  0  0  0  0  0  0
   10.6566  -17.1611   27.6155 O   0  0  0  0  0  0  0  0  0  0  0  0
   10.5258  -18.2731   25.6187 O   0  0  0  0  0  0  0  0  0  0  0  0
  2  1  1  0
  2  3  2  0
  4  2  1  0
  5  6  1  6
  5  4  1  0
  7  5  1  0
  8  7  2  0
 10  9  1  0
 11 10  1  0
 11 12  1  0
 13 12  1  1
 13 14  1  0
 14  7  1  0
 15 17  1  0
 15 13  1  0
 16 15  2  0
 18 19  1  1
 18 17  1  0
 20 19  1  0
 20 21  2  0
 22 21  1  0
 23 22  2  0
 24 25  2  0
 24 23  1  0
 25 20  1  0
 26 18  1  0
 26 28  1  0
 27 26  2  0
M  END
$$$$
