NMF.pdb
     RDKit          3D

 28 28  0  0  1  0  0  0  0  0999 V2000
   10.4104  -20.3050   18.5178 N   0  0  0  0  0  0  0  0  0  0  0  0
   11.0084  -19.0287   18.4878 C   0  0  0  0  0  0  0  0  0  0  0  0
   11.4464  -18.5342   17.4220 O   0  0  0  0  0  0  0  0  0  0  0  0
   11.1297  -18.2399   19.7376 C   0  0  0  0  0  0  0  0  0  0  0  0
   10.0079  -17.2038   19.8070 C   0  0  2  0  0  0  0  0  0  0  0  0
   10.2784  -16.2439   18.7854 N   0  0  0  0  0  0  0  0  0  0  0  0
    9.9601  -16.5909   21.1715 C   0  0  0  0  0  0  0  0  0  0  0  0
   11.0618  -16.2825   21.6606 O   0  0  0  0  0  0  0  0  0  0  0  0
    7.0779  -12.4382   26.3182 C   0  0  0  0  0  0  0  0  0  0  0  0
    7.4429  -13.1924   24.7322 S   0  0  0  0  0  0  0  0  0  0  0  0
    6.9709  -14.9495   24.7838 C   0  0  0  0  0  0  0  0  0  0  0  0
    7.0658  -15.5762   23.4149 C   0  0  0  0  0  0  0  0  0  0  0  0
    8.5234  -15.9004   23.1487 C   0  0  2  0  0  0  0  0  0  0  0  0
    8.7352  -16.3865   21.8374 N   0  0  0  0  0  0  0  0  0  0  0  0
    9.1936  -16.6257   24.2292 C   0  0  0  0  0  0  0  0  0  0  0  0
    8.9663  -17.8540   24.3518 O   0  0  0  0  0  0  0  0  0  0  0  0
   10.0852  -16.0347   25.1503 N   0  0  0  0  0  0  0  0  0  0  0  0
   11.0589  -16.7652   25.9491 C   0  0  1  0  0  0  0  0  0  0  0  0
   11.8965  -15.8609   26.7774 C   0  0  0  0  0  0  0  0  0  0  0  0
   11.0932  -15.2534   27.8580 C   0  0  0  0  0  0  0  0  0  0  0  0
   10.9866  -15.7673   29.1345 C   0  0  0  0  0  0  0  0  0  0  0  0
   10.2222  -15.1386   30.0913 C   0  0  0  0  0  0  0  0  0  0  0  0
    9.5355  -13.9758   29.8141 C   0  0  0  0  0  0  0  0  0  0  0  0
    9.6464  -13.4651   28.5309 C   0  0  0  0  0  0  0  0  0  0  0  0
   10.4043  -14.0794   27.5654 C   0  0  0  0  0  0  0  0  0  0  0  0
   10.3462  -17.7719   26.7230 C   0  0  0  0  0  0  0  0  0  0  0  0
   10.9754  -18.6114   27.4137 O   0  0  0  0  0  0  0  0  0  0  0  0
    8.9467  -17.8189   26.7085 O   0  0  0  0  0  0  0  0  0  0  0  0
  2  1  1  0
  2  3  2  0
  4  2  1  0
  5  6  1  6
  5  4  1  0
  7  5  1  0
  8  7  2  0
 10  9  1  0
 11 10  1  0
 11 12  1  0
 13 12  1  1
 13 14  1  0
 14  7  1  0
 15 17  1  0
 15 13  1  0
 16 15  2  0
 18 19  1  1
 18 17  1  0
 20 19  1  0
 20 21  2  0
 22 21  1  0
 23 22  2  0
 24 25  2  0
 24 23  1  0
 25 20  1  0
 26 18  1  0
 26 28  1  0
 27 26  2  0
M  END
$$$$
