NMF.pdb
     RDKit          3D

 28 28  0  0  1  0  0  0  0  0999 V2000
    7.9982  -19.4290   18.8115 N   0  0  0  0  0  0  0  0  0  0  0  0
    8.3719  -18.1921   18.2477 C   0  0  0  0  0  0  0  0  0  0  0  0
    8.3961  -18.0175   17.0063 O   0  0  0  0  0  0  0  0  0  0  0  0
    8.7480  -17.0613   19.1302 C   0  0  0  0  0  0  0  0  0  0  0  0
    8.8978  -17.5549   20.5691 C   0  0  2  0  0  0  0  0  0  0  0  0
    7.5844  -17.8791   21.0257 N   0  0  0  0  0  0  0  0  0  0  0  0
    9.5523  -16.5015   21.4068 C   0  0  0  0  0  0  0  0  0  0  0  0
   10.7624  -16.3148   21.1860 O   0  0  0  0  0  0  0  0  0  0  0  0
    7.1908  -11.6365   25.4064 C   0  0  0  0  0  0  0  0  0  0  0  0
    6.5906  -13.2649   25.8595 S   0  0  0  0  0  0  0  0  0  0  0  0
    7.3835  -14.5109   24.7957 C   0  0  0  0  0  0  0  0  0  0  0  0
    8.2611  -13.8572   23.7573 C   0  0  0  0  0  0  0  0  0  0  0  0
    9.3135  -14.8639   23.3334 C   0  0  2  0  0  0  0  0  0  0  0  0
    8.8239  -15.7819   22.3750 N   0  0  0  0  0  0  0  0  0  0  0  0
   10.0973  -15.4264   24.4343 C   0  0  0  0  0  0  0  0  0  0  0  0
   10.8677  -14.6636   25.0668 O   0  0  0  0  0  0  0  0  0  0  0  0
   10.0463  -16.7783   24.8372 N   0  0  0  0  0  0  0  0  0  0  0  0
   10.7566  -17.3309   25.9818 C   0  0  1  0  0  0  0  0  0  0  0  0
    9.8880  -17.4407   27.1813 C   0  0  0  0  0  0  0  0  0  0  0  0
    9.6469  -16.1084   27.7719 C   0  0  0  0  0  0  0  0  0  0  0  0
    8.4570  -15.4156   27.6752 C   0  0  0  0  0  0  0  0  0  0  0  0
    8.3064  -14.1784   28.2598 C   0  0  0  0  0  0  0  0  0  0  0  0
    9.3333  -13.5844   28.9620 C   0  0  0  0  0  0  0  0  0  0  0  0
   10.5252  -14.2848   29.0554 C   0  0  0  0  0  0  0  0  0  0  0  0
   10.6918  -15.5191   28.4785 C   0  0  0  0  0  0  0  0  0  0  0  0
   11.3541  -18.5956   25.5767 C   0  0  0  0  0  0  0  0  0  0  0  0
   12.0584  -19.2565   26.3797 O   0  0  0  0  0  0  0  0  0  0  0  0
   11.1518  -19.0942   24.2838 O   0  0  0  0  0  0  0  0  0  0  0  0
  2  1  1  0
  2  3  2  0
  4  2  1  0
  5  6  1  1
  5  4  1  0
  7  5  1  0
  8  7  2  0
 10  9  1  0
 11 10  1  0
 11 12  1  0
 13 12  1  1
 13 14  1  0
 14  7  1  0
 15 17  1  0
 15 13  1  0
 16 15  2  0
 18 19  1  1
 18 17  1  0
 20 19  1  0
 20 21  2  0
 22 21  1  0
 23 22  2  0
 24 25  2  0
 24 23  1  0
 25 20  1  0
 26 18  1  0
 26 28  1  0
 27 26  2  0
M  END
$$$$
