NMF.pdb
     RDKit          3D

 28 28  0  0  1  0  0  0  0  0999 V2000
    8.6532  -16.2681   16.0116 N   0  0  0  0  0  0  0  0  0  0  0  0
    8.1312  -16.8566   17.1815 C   0  0  0  0  0  0  0  0  0  0  0  0
    7.6716  -18.0232   17.1802 O   0  0  0  0  0  0  0  0  0  0  0  0
    8.1184  -16.0909   18.4514 C   0  0  0  0  0  0  0  0  0  0  0  0
    9.1325  -16.6885   19.4267 C   0  0  2  0  0  0  0  0  0  0  0  0
    8.6874  -18.0145   19.7129 N   0  0  0  0  0  0  0  0  0  0  0  0
    9.2259  -15.8375   20.6542 C   0  0  0  0  0  0  0  0  0  0  0  0
    9.3164  -14.6130   20.4532 O   0  0  0  0  0  0  0  0  0  0  0  0
    6.8325  -12.4399   26.0473 C   0  0  0  0  0  0  0  0  0  0  0  0
    7.4747  -13.1413   24.5265 S   0  0  0  0  0  0  0  0  0  0  0  0
    6.8234  -14.8290   24.3254 C   0  0  0  0  0  0  0  0  0  0  0  0
    7.2546  -15.4226   23.0073 C   0  0  0  0  0  0  0  0  0  0  0  0
    8.7030  -15.8529   23.1395 C   0  0  2  0  0  0  0  0  0  0  0  0
    9.2097  -16.4096   21.9419 N   0  0  0  0  0  0  0  0  0  0  0  0
    9.0147  -16.5720   24.3758 C   0  0  0  0  0  0  0  0  0  0  0  0
    8.3658  -17.6139   24.6381 O   0  0  0  0  0  0  0  0  0  0  0  0
   10.0027  -16.1717   25.3011 N   0  0  0  0  0  0  0  0  0  0  0  0
   10.8900  -17.0800   26.0134 C   0  0  1  0  0  0  0  0  0  0  0  0
   11.9245  -16.3557   26.7948 C   0  0  0  0  0  0  0  0  0  0  0  0
   11.2947  -15.4250   27.7535 C   0  0  0  0  0  0  0  0  0  0  0  0
   10.7095  -14.2243   27.4058 C   0  0  0  0  0  0  0  0  0  0  0  0
   10.1355  -13.4124   28.3578 C   0  0  0  0  0  0  0  0  0  0  0  0
   10.1222  -13.7643   29.6906 C   0  0  0  0  0  0  0  0  0  0  0  0
   10.7113  -14.9706   30.0333 C   0  0  0  0  0  0  0  0  0  0  0  0
   11.2878  -15.7917   29.0966 C   0  0  0  0  0  0  0  0  0  0  0  0
   10.0709  -17.9748   26.8188 C   0  0  0  0  0  0  0  0  0  0  0  0
    8.8278  -17.8108   26.8932 O   0  0  0  0  0  0  0  0  0  0  0  0
   10.6580  -19.0330   27.5235 O   0  0  0  0  0  0  0  0  0  0  0  0
  2  1  1  0
  2  3  2  0
  4  2  1  0
  5  6  1  1
  5  4  1  0
  7  5  1  0
  8  7  2  0
 10  9  1  0
 11 10  1  0
 11 12  1  0
 13 12  1  6
 13 14  1  0
 14  7  1  0
 15 17  1  0
 15 13  1  0
 16 15  2  0
 18 19  1  1
 18 17  1  0
 20 19  1  0
 20 21  2  0
 22 21  1  0
 23 22  2  0
 24 25  2  0
 24 23  1  0
 25 20  1  0
 26 18  1  0
 26 28  1  0
 27 26  2  0
M  END
$$$$
