NMF.pdb
     RDKit          3D

 28 28  0  0  1  0  0  0  0  0999 V2000
   15.0797  -16.7221   17.4096 N   0  0  0  0  0  0  0  0  0  0  0  0
   13.6782  -16.6662   17.5522 C   0  0  0  0  0  0  0  0  0  0  0  0
   12.9112  -17.1693   16.6973 O   0  0  0  0  0  0  0  0  0  0  0  0
   13.0818  -16.0001   18.7352 C   0  0  0  0  0  0  0  0  0  0  0  0
   12.1240  -16.9595   19.4416 C   0  0  2  0  0  0  0  0  0  0  0  0
   11.0198  -17.1544   18.5578 N   0  0  0  0  0  0  0  0  0  0  0  0
   11.7084  -16.3893   20.7614 C   0  0  0  0  0  0  0  0  0  0  0  0
   12.6359  -16.0063   21.4969 O   0  0  0  0  0  0  0  0  0  0  0  0
    7.5429  -12.4448   19.0278 C   0  0  0  0  0  0  0  0  0  0  0  0
    7.4916  -13.0701   20.7082 S   0  0  0  0  0  0  0  0  0  0  0  0
    8.7846  -14.3343   20.9147 C   0  0  0  0  0  0  0  0  0  0  0  0
    8.8298  -14.8357   22.3367 C   0  0  0  0  0  0  0  0  0  0  0  0
    9.8001  -16.0002   22.3916 C   0  0  2  0  0  0  0  0  0  0  0  0
   10.3493  -16.3024   21.1236 N   0  0  0  0  0  0  0  0  0  0  0  0
    9.3429  -17.1374   23.1919 C   0  0  0  0  0  0  0  0  0  0  0  0
    8.2968  -17.7330   22.8365 O   0  0  0  0  0  0  0  0  0  0  0  0
   10.0024  -17.6145   24.3452 N   0  0  0  0  0  0  0  0  0  0  0  0
   10.0905  -16.8959   25.6084 C   0  0  1  0  0  0  0  0  0  0  0  0
   10.2049  -15.4283   25.4121 C   0  0  0  0  0  0  0  0  0  0  0  0
   10.1572  -14.7251   26.7102 C   0  0  0  0  0  0  0  0  0  0  0  0
    9.2897  -13.6936   27.0076 C   0  0  0  0  0  0  0  0  0  0  0  0
    9.3008  -13.0913   28.2454 C   0  0  0  0  0  0  0  0  0  0  0  0
   10.1751  -13.4921   29.2331 C   0  0  0  0  0  0  0  0  0  0  0  0
   11.0435  -14.5278   28.9283 C   0  0  0  0  0  0  0  0  0  0  0  0
   11.0453  -15.1391   27.6993 C   0  0  0  0  0  0  0  0  0  0  0  0
    8.9555  -17.2873   26.4325 C   0  0  0  0  0  0  0  0  0  0  0  0
    7.7811  -17.0360   26.0646 O   0  0  0  0  0  0  0  0  0  0  0  0
    9.1571  -17.9507   27.6491 O   0  0  0  0  0  0  0  0  0  0  0  0
  2  1  1  0
  2  3  2  0
  4  2  1  0
  5  6  1  6
  5  4  1  0
  7  5  1  0
  8  7  2  0
 10  9  1  0
 11 10  1  0
 11 12  1  0
 13 12  1  6
 13 14  1  0
 14  7  1  0
 15 17  1  0
 15 13  1  0
 16 15  2  0
 18 19  1  6
 18 17  1  0
 20 19  1  0
 20 21  2  0
 22 21  1  0
 23 22  2  0
 24 25  2  0
 24 23  1  0
 25 20  1  0
 26 18  1  0
 26 28  1  0
 27 26  2  0
M  END
$$$$
