NMF.pdb
     RDKit          3D

 28 28  0  0  1  0  0  0  0  0999 V2000
    6.4803  -19.8452   19.7137 N   0  0  0  0  0  0  0  0  0  0  0  0
    6.9569  -20.0673   21.0218 C   0  0  0  0  0  0  0  0  0  0  0  0
    6.9069  -21.2013   21.5545 O   0  0  0  0  0  0  0  0  0  0  0  0
    7.5337  -18.9437   21.7988 C   0  0  0  0  0  0  0  0  0  0  0  0
    7.5328  -17.6726   20.9496 C   0  0  2  0  0  0  0  0  0  0  0  0
    7.8574  -18.0737   19.6184 N   0  0  0  0  0  0  0  0  0  0  0  0
    8.5100  -16.6845   21.5051 C   0  0  0  0  0  0  0  0  0  0  0  0
    9.7019  -16.8834   21.2090 O   0  0  0  0  0  0  0  0  0  0  0  0
    6.3856  -12.2774   26.9082 C   0  0  0  0  0  0  0  0  0  0  0  0
    7.4233  -12.0334   25.4656 S   0  0  0  0  0  0  0  0  0  0  0  0
    7.2443  -13.4624   24.3526 C   0  0  0  0  0  0  0  0  0  0  0  0
    8.1316  -13.3198   23.1410 C   0  0  0  0  0  0  0  0  0  0  0  0
    8.8755  -14.6277   22.9495 C   0  0  2  0  0  0  0  0  0  0  0  0
    8.0829  -15.6079   22.3078 N   0  0  0  0  0  0  0  0  0  0  0  0
    9.6415  -15.0697   24.1160 C   0  0  0  0  0  0  0  0  0  0  0  0
    9.6648  -14.3281   25.1284 O   0  0  0  0  0  0  0  0  0  0  0  0
   10.3614  -16.2821   24.1818 N   0  0  0  0  0  0  0  0  0  0  0  0
   10.9814  -16.8153   25.3865 C   0  0  1  0  0  0  0  0  0  0  0  0
    9.9881  -17.0806   26.4581 C   0  0  0  0  0  0  0  0  0  0  0  0
    9.8914  -15.9261   27.3744 C   0  0  0  0  0  0  0  0  0  0  0  0
   10.7441  -15.6985   28.4356 C   0  0  0  0  0  0  0  0  0  0  0  0
   10.5938  -14.5934   29.2426 C   0  0  0  0  0  0  0  0  0  0  0  0
    9.5900  -13.6739   29.0243 C   0  0  0  0  0  0  0  0  0  0  0  0
    8.7373  -13.9081   27.9577 C   0  0  0  0  0  0  0  0  0  0  0  0
    8.8734  -15.0048   27.1435 C   0  0  0  0  0  0  0  0  0  0  0  0
   11.7636  -17.9855   25.0136 C   0  0  0  0  0  0  0  0  0  0  0  0
   11.7610  -18.4060   23.8300 O   0  0  0  0  0  0  0  0  0  0  0  0
   12.5313  -18.6604   25.9707 O   0  0  0  0  0  0  0  0  0  0  0  0
  2  1  1  0
  2  3  2  0
  4  2  1  0
  5  6  1  6
  5  4  1  0
  7  5  1  0
  8  7  2  0
 10  9  1  0
 11 10  1  0
 11 12  1  0
 13 12  1  1
 13 14  1  0
 14  7  1  0
 15 17  1  0
 15 13  1  0
 16 15  2  0
 18 19  1  1
 18 17  1  0
 20 19  1  0
 20 21  2  0
 22 21  1  0
 23 22  2  0
 24 25  2  0
 24 23  1  0
 25 20  1  0
 26 18  1  0
 26 28  1  0
 27 26  2  0
M  END
$$$$
