NMF.pdb
     RDKit          3D

 28 28  0  0  1  0  0  0  0  0999 V2000
   10.8008  -21.6143   19.7099 N   0  0  0  0  0  0  0  0  0  0  0  0
   10.0472  -20.8069   18.8338 C   0  0  0  0  0  0  0  0  0  0  0  0
    9.9011  -21.1087   17.6256 O   0  0  0  0  0  0  0  0  0  0  0  0
    9.4059  -19.5684   19.3378 C   0  0  0  0  0  0  0  0  0  0  0  0
    9.6806  -19.4149   20.8337 C   0  0  2  0  0  0  0  0  0  0  0  0
    8.5477  -19.9576   21.5121 N   0  0  0  0  0  0  0  0  0  0  0  0
    9.9127  -17.9744   21.1669 C   0  0  0  0  0  0  0  0  0  0  0  0
   11.0386  -17.5310   20.8777 O   0  0  0  0  0  0  0  0  0  0  0  0
    7.5508  -11.6237   19.9977 C   0  0  0  0  0  0  0  0  0  0  0  0
    6.8915  -12.4406   21.4522 S   0  0  0  0  0  0  0  0  0  0  0  0
    8.1504  -13.5697   22.1253 C   0  0  0  0  0  0  0  0  0  0  0  0
    7.8431  -15.0015   21.7633 C   0  0  0  0  0  0  0  0  0  0  0  0
    8.9970  -15.8627   22.2403 C   0  0  2  0  0  0  0  0  0  0  0  0
    8.9059  -17.1929   21.7679 N   0  0  0  0  0  0  0  0  0  0  0  0
    9.3393  -15.6945   23.6535 C   0  0  0  0  0  0  0  0  0  0  0  0
   10.2386  -14.8722   23.9542 O   0  0  0  0  0  0  0  0  0  0  0  0
    8.7230  -16.3988   24.7103 N   0  0  0  0  0  0  0  0  0  0  0  0
    9.1196  -16.3121   26.1085 C   0  0  1  0  0  0  0  0  0  0  0  0
    8.0057  -15.8606   26.9806 C   0  0  0  0  0  0  0  0  0  0  0  0
    7.5559  -14.5086   26.5909 C   0  0  0  0  0  0  0  0  0  0  0  0
    6.3592  -14.2361   25.9595 C   0  0  0  0  0  0  0  0  0  0  0  0
    6.0062  -12.9460   25.6337 C   0  0  0  0  0  0  0  0  0  0  0  0
    6.8301  -11.8793   25.9236 C   0  0  0  0  0  0  0  0  0  0  0  0
    8.0300  -12.1595   26.5573 C   0  0  0  0  0  0  0  0  0  0  0  0
    8.3969  -13.4399   26.8891 C   0  0  0  0  0  0  0  0  0  0  0  0
    9.6831  -17.5965   26.5001 C   0  0  0  0  0  0  0  0  0  0  0  0
   10.1189  -17.7755   27.6645 O   0  0  0  0  0  0  0  0  0  0  0  0
    9.7474  -18.6526   25.5827 O   0  0  0  0  0  0  0  0  0  0  0  0
  2  1  1  0
  2  3  2  0
  4  2  1  0
  5  6  1  1
  5  4  1  0
  7  5  1  0
  8  7  2  0
 10  9  1  0
 11 10  1  0
 11 12  1  0
 13 12  1  1
 13 14  1  0
 14  7  1  0
 15 17  1  0
 15 13  1  0
 16 15  2  0
 18 19  1  1
 18 17  1  0
 20 19  1  0
 20 21  2  0
 22 21  1  0
 23 22  2  0
 24 25  2  0
 24 23  1  0
 25 20  1  0
 26 18  1  0
 26 28  1  0
 27 26  2  0
M  END
$$$$
