NMF.pdb
     RDKit          3D

 28 28  0  0  1  0  0  0  0  0999 V2000
   13.1943  -18.8555   18.2427 N   0  0  0  0  0  0  0  0  0  0  0  0
   12.5316  -17.7572   17.6579 C   0  0  0  0  0  0  0  0  0  0  0  0
   12.8690  -17.3086   16.5366 O   0  0  0  0  0  0  0  0  0  0  0  0
   11.4073  -17.1064   18.3728 C   0  0  0  0  0  0  0  0  0  0  0  0
   11.2208  -17.7553   19.7443 C   0  0  2  0  0  0  0  0  0  0  0  0
   10.1455  -18.6848   19.6105 N   0  0  0  0  0  0  0  0  0  0  0  0
   10.9463  -16.7055   20.7749 C   0  0  0  0  0  0  0  0  0  0  0  0
   11.9338  -16.0456   21.1455 O   0  0  0  0  0  0  0  0  0  0  0  0
    7.5226  -11.9794   18.8220 C   0  0  0  0  0  0  0  0  0  0  0  0
    7.0233  -12.9479   20.2468 S   0  0  0  0  0  0  0  0  0  0  0  0
    8.4057  -14.0165   20.7567 C   0  0  0  0  0  0  0  0  0  0  0  0
    8.0560  -14.7992   21.9979 C   0  0  0  0  0  0  0  0  0  0  0  0
    9.2459  -15.6706   22.3522 C   0  0  2  0  0  0  0  0  0  0  0  0
    9.6460  -16.4973   21.2764 N   0  0  0  0  0  0  0  0  0  0  0  0
    9.1653  -16.3065   23.6682 C   0  0  0  0  0  0  0  0  0  0  0  0
    8.6633  -17.4543   23.7448 O   0  0  0  0  0  0  0  0  0  0  0  0
    9.6168  -15.7134   24.8670 N   0  0  0  0  0  0  0  0  0  0  0  0
    8.9451  -15.8267   26.1538 C   0  0  1  0  0  0  0  0  0  0  0  0
    7.5201  -15.4151   26.0809 C   0  0  0  0  0  0  0  0  0  0  0  0
    7.3880  -13.9596   26.2953 C   0  0  0  0  0  0  0  0  0  0  0  0
    8.4497  -13.1008   26.4958 C   0  0  0  0  0  0  0  0  0  0  0  0
    8.2462  -11.7521   26.6821 C   0  0  0  0  0  0  0  0  0  0  0  0
    6.9797  -11.2076   26.6762 C   0  0  0  0  0  0  0  0  0  0  0  0
    5.9182  -12.0750   26.4747 C   0  0  0  0  0  0  0  0  0  0  0  0
    6.1037  -13.4220   26.2872 C   0  0  0  0  0  0  0  0  0  0  0  0
    9.1358  -17.1836   26.6465 C   0  0  0  0  0  0  0  0  0  0  0  0
   10.0074  -17.4317   27.5162 O   0  0  0  0  0  0  0  0  0  0  0  0
    8.3489  -18.2335   26.1570 O   0  0  0  0  0  0  0  0  0  0  0  0
  2  1  1  0
  2  3  2  0
  4  2  1  0
  5  6  1  6
  5  4  1  0
  7  5  1  0
  8  7  2  0
 10  9  1  0
 11 10  1  0
 11 12  1  0
 13 12  1  6
 13 14  1  0
 14  7  1  0
 15 17  1  0
 15 13  1  0
 16 15  2  0
 18 19  1  6
 18 17  1  0
 20 19  1  0
 20 21  2  0
 22 21  1  0
 23 22  2  0
 24 25  2  0
 24 23  1  0
 25 20  1  0
 26 18  1  0
 26 28  1  0
 27 26  2  0
M  END
$$$$
