NMF.pdb
     RDKit          3D

 28 28  0  0  1  0  0  0  0  0999 V2000
    8.6953  -21.0457   19.2608 N   0  0  0  0  0  0  0  0  0  0  0  0
    8.0044  -19.8907   19.6807 C   0  0  0  0  0  0  0  0  0  0  0  0
    6.8227  -19.6675   19.3254 O   0  0  0  0  0  0  0  0  0  0  0  0
    8.6771  -18.9071   20.5631 C   0  0  0  0  0  0  0  0  0  0  0  0
    8.0793  -17.5179   20.3407 C   0  0  2  0  0  0  0  0  0  0  0  0
    8.3671  -17.1641   18.9878 N   0  0  0  0  0  0  0  0  0  0  0  0
    8.6577  -16.5478   21.3226 C   0  0  0  0  0  0  0  0  0  0  0  0
    9.9002  -16.4896   21.3516 O   0  0  0  0  0  0  0  0  0  0  0  0
    6.9035  -11.2346   26.9256 C   0  0  0  0  0  0  0  0  0  0  0  0
    6.2263  -12.2648   25.6227 S   0  0  0  0  0  0  0  0  0  0  0  0
    7.5635  -13.2617   24.8939 C   0  0  0  0  0  0  0  0  0  0  0  0
    7.0379  -14.1534   23.7965 C   0  0  0  0  0  0  0  0  0  0  0  0
    8.2014  -14.9592   23.2508 C   0  0  2  0  0  0  0  0  0  0  0  0
    7.8284  -15.7629   22.1483 N   0  0  0  0  0  0  0  0  0  0  0  0
    9.0322  -15.5985   24.2724 C   0  0  0  0  0  0  0  0  0  0  0  0
    8.4893  -15.9455   25.3495 O   0  0  0  0  0  0  0  0  0  0  0  0
   10.4131  -15.8541   24.1288 N   0  0  0  0  0  0  0  0  0  0  0  0
   11.3477  -16.0113   25.2340 C   0  0  1  0  0  0  0  0  0  0  0  0
   10.7687  -16.8012   26.3503 C   0  0  0  0  0  0  0  0  0  0  0  0
   10.4478  -15.9249   27.4953 C   0  0  0  0  0  0  0  0  0  0  0  0
    9.7719  -14.7257   27.3949 C   0  0  0  0  0  0  0  0  0  0  0  0
    9.5035  -13.9666   28.5114 C   0  0  0  0  0  0  0  0  0  0  0  0
    9.8973  -14.3716   29.7690 C   0  0  0  0  0  0  0  0  0  0  0  0
   10.5756  -15.5761   29.8631 C   0  0  0  0  0  0  0  0  0  0  0  0
   10.8511  -16.3451   28.7600 C   0  0  0  0  0  0  0  0  0  0  0  0
   12.5849  -16.5685   24.7055 C   0  0  0  0  0  0  0  0  0  0  0  0
   13.5740  -16.7563   25.4565 O   0  0  0  0  0  0  0  0  0  0  0  0
   12.6900  -16.9038   23.3499 O   0  0  0  0  0  0  0  0  0  0  0  0
  2  1  1  0
  2  3  2  0
  4  2  1  0
  5  6  1  6
  5  4  1  0
  7  5  1  0
  8  7  2  0
 10  9  1  0
 11 10  1  0
 11 12  1  0
 13 12  1  1
 13 14  1  0
 14  7  1  0
 15 17  1  0
 15 13  1  0
 16 15  2  0
 18 19  1  1
 18 17  1  0
 20 19  1  0
 20 21  2  0
 22 21  1  0
 23 22  2  0
 24 25  2  0
 24 23  1  0
 25 20  1  0
 26 18  1  0
 26 28  1  0
 27 26  2  0
M  END
$$$$
