NMF.pdb
     RDKit          3D

 28 28  0  0  1  0  0  0  0  0999 V2000
   10.5917  -16.6338   15.9423 N   0  0  0  0  0  0  0  0  0  0  0  0
   10.7956  -17.2394   17.1990 C   0  0  0  0  0  0  0  0  0  0  0  0
   11.0240  -18.4676   17.3061 O   0  0  0  0  0  0  0  0  0  0  0  0
   10.7419  -16.4181   18.4325 C   0  0  0  0  0  0  0  0  0  0  0  0
    9.9687  -17.1654   19.5190 C   0  0  2  0  0  0  0  0  0  0  0  0
    8.6143  -17.2412   19.0738 N   0  0  0  0  0  0  0  0  0  0  0  0
   10.1032  -16.4510   20.8271 C   0  0  0  0  0  0  0  0  0  0  0  0
   11.2566  -16.0947   21.1283 O   0  0  0  0  0  0  0  0  0  0  0  0
    6.9834  -12.4206   26.7071 C   0  0  0  0  0  0  0  0  0  0  0  0
    6.6867  -13.0796   25.0655 S   0  0  0  0  0  0  0  0  0  0  0  0
    7.9430  -14.3430   24.6931 C   0  0  0  0  0  0  0  0  0  0  0  0
    7.7847  -14.8665   23.2872 C   0  0  0  0  0  0  0  0  0  0  0  0
    8.9593  -15.7799   22.9931 C   0  0  2  0  0  0  0  0  0  0  0  0
    8.9818  -16.2095   21.6456 N   0  0  0  0  0  0  0  0  0  0  0  0
    9.2030  -16.8056   24.0086 C   0  0  0  0  0  0  0  0  0  0  0  0
    8.2326  -17.4999   24.3980 O   0  0  0  0  0  0  0  0  0  0  0  0
   10.4641  -17.0701   24.5850 N   0  0  0  0  0  0  0  0  0  0  0  0
   10.8356  -16.7452   25.9548 C   0  0  1  0  0  0  0  0  0  0  0  0
   10.5678  -15.3226   26.2862 C   0  0  0  0  0  0  0  0  0  0  0  0
   10.6773  -15.0987   27.7421 C   0  0  0  0  0  0  0  0  0  0  0  0
   11.1353  -16.0379   28.6439 C   0  0  0  0  0  0  0  0  0  0  0  0
   11.2152  -15.7515   29.9880 C   0  0  0  0  0  0  0  0  0  0  0  0
   10.8426  -14.5209   30.4851 C   0  0  0  0  0  0  0  0  0  0  0  0
   10.3837  -13.5825   29.5749 C   0  0  0  0  0  0  0  0  0  0  0  0
   10.2979  -13.8518   28.2317 C   0  0  0  0  0  0  0  0  0  0  0  0
   10.1661  -17.6866   26.8413 C   0  0  0  0  0  0  0  0  0  0  0  0
   10.8310  -18.4943   27.5364 O   0  0  0  0  0  0  0  0  0  0  0  0
    8.7688  -17.7053   26.9319 O   0  0  0  0  0  0  0  0  0  0  0  0
  2  1  1  0
  2  3  2  0
  4  2  1  0
  5  6  1  6
  5  4  1  0
  7  5  1  0
  8  7  2  0
 10  9  1  0
 11 10  1  0
 11 12  1  0
 13 12  1  1
 13 14  1  0
 14  7  1  0
 15 17  1  0
 15 13  1  0
 16 15  2  0
 18 19  1  1
 18 17  1  0
 20 19  1  0
 20 21  2  0
 22 21  1  0
 23 22  2  0
 24 25  2  0
 24 23  1  0
 25 20  1  0
 26 18  1  0
 26 28  1  0
 27 26  2  0
M  END
$$$$
