NMF.pdb
     RDKit          3D

 28 28  0  0  1  0  0  0  0  0999 V2000
   10.0330  -19.3814   17.2252 N   0  0  0  0  0  0  0  0  0  0  0  0
    9.2559  -19.4868   18.3967 C   0  0  0  0  0  0  0  0  0  0  0  0
    8.7615  -20.5804   18.7599 O   0  0  0  0  0  0  0  0  0  0  0  0
    9.0084  -18.2853   19.2298 C   0  0  0  0  0  0  0  0  0  0  0  0
    9.5525  -18.5120   20.6402 C   0  0  2  0  0  0  0  0  0  0  0  0
    8.5248  -19.1842   21.3684 N   0  0  0  0  0  0  0  0  0  0  0  0
    9.9320  -17.2035   21.2595 C   0  0  0  0  0  0  0  0  0  0  0  0
   11.1474  -16.9377   21.2508 O   0  0  0  0  0  0  0  0  0  0  0  0
    7.9421  -11.3211   19.4557 C   0  0  0  0  0  0  0  0  0  0  0  0
    7.0327  -12.8184   19.8410 S   0  0  0  0  0  0  0  0  0  0  0  0
    8.1844  -14.0632   20.5019 C   0  0  0  0  0  0  0  0  0  0  0  0
    8.1993  -14.0407   22.0102 C   0  0  0  0  0  0  0  0  0  0  0  0
    9.1544  -15.1192   22.4848 C   0  0  2  0  0  0  0  0  0  0  0  0
    8.9579  -16.3463   21.8092 N   0  0  0  0  0  0  0  0  0  0  0  0
    9.3165  -15.1934   23.9377 C   0  0  0  0  0  0  0  0  0  0  0  0
    9.7768  -14.1913   24.5371 O   0  0  0  0  0  0  0  0  0  0  0  0
    8.9880  -16.3230   24.7179 N   0  0  0  0  0  0  0  0  0  0  0  0
    9.1140  -16.3968   26.1665 C   0  0  1  0  0  0  0  0  0  0  0  0
    7.8160  -16.1784   26.8542 C   0  0  0  0  0  0  0  0  0  0  0  0
    7.3987  -14.7661   26.7402 C   0  0  0  0  0  0  0  0  0  0  0  0
    8.0949  -13.7010   27.2747 C   0  0  0  0  0  0  0  0  0  0  0  0
    7.6447  -12.4093   27.1200 C   0  0  0  0  0  0  0  0  0  0  0  0
    6.4856  -12.1290   26.4284 C   0  0  0  0  0  0  0  0  0  0  0  0
    5.7911  -13.2025   25.8944 C   0  0  0  0  0  0  0  0  0  0  0  0
    6.2263  -14.4962   26.0394 C   0  0  0  0  0  0  0  0  0  0  0  0
    9.7459  -17.6650   26.5024 C   0  0  0  0  0  0  0  0  0  0  0  0
    9.9944  -18.5122   25.6090 O   0  0  0  0  0  0  0  0  0  0  0  0
   10.0863  -17.9590   27.8285 O   0  0  0  0  0  0  0  0  0  0  0  0
  2  1  1  0
  2  3  2  0
  4  2  1  0
  5  6  1  1
  5  4  1  0
  7  5  1  0
  8  7  2  0
 10  9  1  0
 11 10  1  0
 11 12  1  0
 13 12  1  1
 13 14  1  0
 14  7  1  0
 15 17  1  0
 15 13  1  0
 16 15  2  0
 18 19  1  1
 18 17  1  0
 20 19  1  0
 20 21  2  0
 22 21  1  0
 23 22  2  0
 24 25  2  0
 24 23  1  0
 25 20  1  0
 26 18  1  0
 26 28  1  0
 27 26  2  0
M  END
$$$$
