TLA.pdb
     RDKit          3D

 21 20  0  0  1  0  0  0  0  0999 V2000
   19.0458   -8.7722  -19.2351 C   0  0  0  0  0  0  0  0  0  0  0  0
   18.0363   -9.7013  -18.6122 C   0  0  1  0  0  0  0  0  0  0  0  0
   17.6022  -10.6281  -19.5591 O   0  0  0  0  0  0  0  0  0  0  0  0
   18.6943  -10.4846  -17.4970 C   0  0  2  0  0  0  0  0  0  0  0  0
   17.8652  -11.5274  -16.9742 N   0  0  0  0  0  0  0  0  0  0  0  0
   19.1794   -9.5655  -16.4167 C   0  0  0  0  0  0  0  0  0  0  0  0
   18.3706   -8.9927  -15.6451 O   0  0  0  0  0  0  0  0  0  0  0  0
   23.2553  -11.1849  -13.3084 C   0  0  0  0  0  0  0  0  0  0  0  0
   21.9703  -10.4937  -13.7670 C   0  0  1  0  0  0  0  0  0  0  0  0
   21.2292  -10.1433  -12.4640 C   0  0  0  0  0  0  0  0  0  0  0  0
   22.2397   -9.2205  -14.4630 C   0  0  0  0  0  0  0  0  0  0  0  0
   21.0855   -8.5337  -15.1017 C   0  0  2  0  0  0  0  0  0  0  0  0
   20.5596   -9.3008  -16.2152 N   0  0  0  0  0  0  0  0  0  0  0  0
   21.2778   -7.1314  -15.4597 C   0  0  0  0  0  0  0  0  0  0  0  0
   21.9750   -6.7217  -16.4220 O   0  0  0  0  0  0  0  0  0  0  0  0
   19.5901   -3.9049  -14.6074 C   0  0  0  0  0  0  0  0  0  0  0  0
   20.8192   -4.7071  -14.9657 C   0  0  2  0  0  0  0  0  0  0  0  0
   20.6435   -6.1180  -14.6834 N   0  0  0  0  0  0  0  0  0  0  0  0
   22.0404   -4.1854  -14.3362 C   0  0  0  0  0  0  0  0  0  0  0  0
   22.7976   -3.1766  -14.8679 O   0  0  0  0  0  0  0  0  0  0  0  0
   22.4143   -4.6917  -13.2474 O   0  0  0  0  0  0  0  0  0  0  0  0
  2  1  1  6
  2  3  1  0
  4  6  1  0
  4  2  1  0
  4  5  1  1
  6  7  2  0
  9  8  1  1
  9 11  1  0
 10  9  1  0
 12 11  1  6
 13  6  1  0
 13 12  1  0
 14 18  1  0
 14 12  1  0
 15 14  2  0
 17 16  1  1
 17 18  1  0
 19 17  1  0
 19 20  1  0
 21 19  2  0
M  END
$$$$
