TLA.pdb
     RDKit          3D

 21 20  0  0  1  0  0  0  0  0999 V2000
   17.5247   -9.1272  -18.7412 C   0  0  0  0  0  0  0  0  0  0  0  0
   17.3696  -10.4711  -18.0775 C   0  0  1  0  0  0  0  0  0  0  0  0
   16.6456  -11.3257  -18.9080 O   0  0  0  0  0  0  0  0  0  0  0  0
   18.7338  -11.0962  -17.8820 C   0  0  2  0  0  0  0  0  0  0  0  0
   18.6755  -12.4900  -17.5622 N   0  0  0  0  0  0  0  0  0  0  0  0
   19.5311  -10.3269  -16.8723 C   0  0  0  0  0  0  0  0  0  0  0  0
   18.9650   -9.5811  -16.0351 O   0  0  0  0  0  0  0  0  0  0  0  0
   24.4639  -12.3871  -15.1047 C   0  0  0  0  0  0  0  0  0  0  0  0
   23.0637  -11.7722  -15.1319 C   0  0  1  0  0  0  0  0  0  0  0  0
   22.6376  -11.7063  -13.6540 C   0  0  0  0  0  0  0  0  0  0  0  0
   23.0730  -10.3860  -15.6380 C   0  0  0  0  0  0  0  0  0  0  0  0
   21.7573   -9.7177  -15.8235 C   0  0  2  0  0  0  0  0  0  0  0  0
   20.9476  -10.4026  -16.8136 N   0  0  0  0  0  0  0  0  0  0  0  0
   21.7850   -8.2767  -16.0568 C   0  0  0  0  0  0  0  0  0  0  0  0
   22.1321   -7.7267  -17.1324 O   0  0  0  0  0  0  0  0  0  0  0  0
   20.1418   -5.3115  -15.3488 C   0  0  0  0  0  0  0  0  0  0  0  0
   21.4947   -5.9509  -15.1415 C   0  0  2  0  0  0  0  0  0  0  0  0
   21.3961   -7.3910  -15.0097 N   0  0  0  0  0  0  0  0  0  0  0  0
   22.2340   -5.3619  -14.0162 C   0  0  0  0  0  0  0  0  0  0  0  0
   22.8168   -4.1239  -14.0550 O   0  0  0  0  0  0  0  0  0  0  0  0
   22.3395   -6.0297  -12.9558 O   0  0  0  0  0  0  0  0  0  0  0  0
  2  1  1  6
  2  3  1  0
  4  6  1  0
  4  2  1  0
  4  5  1  1
  6  7  2  0
  9  8  1  1
  9 11  1  0
 10  9  1  0
 12 11  1  6
 13  6  1  0
 13 12  1  0
 14 18  1  0
 14 12  1  0
 15 14  2  0
 17 16  1  1
 17 18  1  0
 19 17  1  0
 19 20  1  0
 21 19  2  0
M  END
$$$$
