TLA.pdb
     RDKit          3D

 21 20  0  0  1  0  0  0  0  0999 V2000
   18.8289   -9.5122  -21.8293 C   0  0  0  0  0  0  0  0  0  0  0  0
   19.3063   -9.0647  -20.4719 C   0  0  1  0  0  0  0  0  0  0  0  0
   18.4179   -8.1279  -19.9455 O   0  0  0  0  0  0  0  0  0  0  0  0
   19.3136  -10.2463  -19.5264 C   0  0  2  0  0  0  0  0  0  0  0  0
   18.0347  -10.8763  -19.4004 N   0  0  0  0  0  0  0  0  0  0  0  0
   19.8749   -9.8559  -18.1923 C   0  0  0  0  0  0  0  0  0  0  0  0
   19.1201   -9.6476  -17.2103 O   0  0  0  0  0  0  0  0  0  0  0  0
   22.9716  -10.1936  -13.8664 C   0  0  0  0  0  0  0  0  0  0  0  0
   23.7696   -9.9015  -15.1382 C   0  0  1  0  0  0  0  0  0  0  0  0
   24.9606  -10.8754  -15.0840 C   0  0  0  0  0  0  0  0  0  0  0  0
   23.0078  -10.2228  -16.3606 C   0  0  0  0  0  0  0  0  0  0  0  0
   21.8597   -9.3410  -16.7015 C   0  0  2  0  0  0  0  0  0  0  0  0
   21.2699   -9.7043  -17.9763 N   0  0  0  0  0  0  0  0  0  0  0  0
   22.0921   -7.9026  -16.6085 C   0  0  0  0  0  0  0  0  0  0  0  0
   22.8210   -7.2378  -17.3875 O   0  0  0  0  0  0  0  0  0  0  0  0
   20.3301   -4.9833  -15.5625 C   0  0  0  0  0  0  0  0  0  0  0  0
   21.6389   -5.7261  -15.4299 C   0  0  2  0  0  0  0  0  0  0  0  0
   21.4627   -7.1582  -15.5685 N   0  0  0  0  0  0  0  0  0  0  0  0
   22.3563   -5.3945  -14.1909 C   0  0  0  0  0  0  0  0  0  0  0  0
   23.1962   -4.3212  -14.0635 O   0  0  0  0  0  0  0  0  0  0  0  0
   22.1920   -6.1363  -13.1887 O   0  0  0  0  0  0  0  0  0  0  0  0
  2  1  1  6
  2  3  1  0
  4  6  1  0
  4  2  1  0
  4  5  1  1
  6  7  2  0
  9  8  1  1
  9 11  1  0
 10  9  1  0
 12 11  1  6
 13  6  1  0
 13 12  1  0
 14 18  1  0
 14 12  1  0
 15 14  2  0
 17 16  1  1
 17 18  1  0
 19 17  1  0
 19 20  1  0
 21 19  2  0
M  END
$$$$
