TLA.pdb
     RDKit          3D

 21 20  0  0  1  0  0  0  0  0999 V2000
   18.0781   -7.9965  -18.5306 C   0  0  0  0  0  0  0  0  0  0  0  0
   17.1821   -8.8997  -17.7231 C   0  0  1  0  0  0  0  0  0  0  0  0
   16.2246   -9.4791  -18.5547 O   0  0  0  0  0  0  0  0  0  0  0  0
   18.0016  -10.0299  -17.1390 C   0  0  2  0  0  0  0  0  0  0  0  0
   17.2036  -11.0479  -16.5265 N   0  0  0  0  0  0  0  0  0  0  0  0
   19.0439   -9.5006  -16.2005 C   0  0  0  0  0  0  0  0  0  0  0  0
   18.7198   -8.9622  -15.1130 O   0  0  0  0  0  0  0  0  0  0  0  0
   24.1171  -11.8388  -15.4796 C   0  0  0  0  0  0  0  0  0  0  0  0
   22.7735  -11.1497  -15.2365 C   0  0  1  0  0  0  0  0  0  0  0  0
   22.6679  -11.0292  -13.7055 C   0  0  0  0  0  0  0  0  0  0  0  0
   22.7446   -9.7771  -15.7779 C   0  0  0  0  0  0  0  0  0  0  0  0
   21.4713   -9.0191  -15.6503 C   0  0  2  0  0  0  0  0  0  0  0  0
   20.4311   -9.5809  -16.4914 N   0  0  0  0  0  0  0  0  0  0  0  0
   21.5576   -7.5694  -15.7999 C   0  0  0  0  0  0  0  0  0  0  0  0
   21.8428   -6.9701  -16.8674 O   0  0  0  0  0  0  0  0  0  0  0  0
   19.9554   -4.6886  -14.7393 C   0  0  0  0  0  0  0  0  0  0  0  0
   21.3422   -5.2874  -14.7619 C   0  0  2  0  0  0  0  0  0  0  0  0
   21.3067   -6.7337  -14.6727 N   0  0  0  0  0  0  0  0  0  0  0  0
   22.2253   -4.7115  -13.7381 C   0  0  0  0  0  0  0  0  0  0  0  0
   22.7394   -3.4446  -13.8037 O   0  0  0  0  0  0  0  0  0  0  0  0
   22.5283   -5.4195  -12.7437 O   0  0  0  0  0  0  0  0  0  0  0  0
  2  1  1  6
  2  3  1  0
  4  6  1  0
  4  2  1  0
  4  5  1  1
  6  7  2  0
  9  8  1  1
  9 11  1  0
 10  9  1  0
 12 11  1  6
 13  6  1  0
 13 12  1  0
 14 18  1  0
 14 12  1  0
 15 14  2  0
 17 16  1  1
 17 18  1  0
 19 17  1  0
 19 20  1  0
 21 19  2  0
M  END
$$$$
