TLA.pdb
     RDKit          3D

 21 20  0  0  1  0  0  0  0  0999 V2000
   18.1482   -8.5515  -21.3967 C   0  0  0  0  0  0  0  0  0  0  0  0
   18.6240   -8.1521  -20.0239 C   0  0  1  0  0  0  0  0  0  0  0  0
   17.7788   -7.1757  -19.4982 O   0  0  0  0  0  0  0  0  0  0  0  0
   18.5484   -9.3465  -19.0978 C   0  0  2  0  0  0  0  0  0  0  0  0
   17.2626   -9.9751  -19.0909 N   0  0  0  0  0  0  0  0  0  0  0  0
   18.9937   -8.9760  -17.7152 C   0  0  0  0  0  0  0  0  0  0  0  0
   18.2034   -9.0477  -16.7416 O   0  0  0  0  0  0  0  0  0  0  0  0
   21.5492   -9.3734  -13.2192 C   0  0  0  0  0  0  0  0  0  0  0  0
   22.4899   -9.1449  -14.4034 C   0  0  1  0  0  0  0  0  0  0  0  0
   23.5402  -10.2646  -14.2893 C   0  0  0  0  0  0  0  0  0  0  0  0
   21.8086   -9.3262  -15.6999 C   0  0  0  0  0  0  0  0  0  0  0  0
   20.8282   -8.2847  -16.1078 C   0  0  2  0  0  0  0  0  0  0  0  0
   20.3140   -8.5315  -17.4419 N   0  0  0  0  0  0  0  0  0  0  0  0
   21.2457   -6.8955  -15.9423 C   0  0  0  0  0  0  0  0  0  0  0  0
   22.1827   -6.3440  -16.5730 O   0  0  0  0  0  0  0  0  0  0  0  0
   19.6921   -3.8766  -14.3307 C   0  0  0  0  0  0  0  0  0  0  0  0
   20.8758   -4.6605  -14.8473 C   0  0  2  0  0  0  0  0  0  0  0  0
   20.5642   -6.0675  -15.0032 N   0  0  0  0  0  0  0  0  0  0  0  0
   22.0828   -4.4688  -14.0312 C   0  0  0  0  0  0  0  0  0  0  0  0
   23.0032   -3.4809  -14.2565 O   0  0  0  0  0  0  0  0  0  0  0  0
   22.2854   -5.2547  -13.0705 O   0  0  0  0  0  0  0  0  0  0  0  0
  2  1  1  6
  2  3  1  0
  4  6  1  0
  4  2  1  0
  4  5  1  1
  6  7  2  0
  9  8  1  1
  9 11  1  0
 10  9  1  0
 12 11  1  6
 13  6  1  0
 13 12  1  0
 14 18  1  0
 14 12  1  0
 15 14  2  0
 17 16  1  1
 17 18  1  0
 19 17  1  0
 19 20  1  0
 21 19  2  0
M  END
$$$$
