TLA.pdb
     RDKit          3D

 21 20  0  0  1  0  0  0  0  0999 V2000
   18.2052   -8.7954  -18.3196 C   0  0  0  0  0  0  0  0  0  0  0  0
   17.5033   -9.9390  -17.6340 C   0  0  1  0  0  0  0  0  0  0  0  0
   16.8011  -10.6921  -18.5741 O   0  0  0  0  0  0  0  0  0  0  0  0
   18.5305  -10.8584  -17.0099 C   0  0  2  0  0  0  0  0  0  0  0  0
   17.9725  -12.0864  -16.5315 N   0  0  0  0  0  0  0  0  0  0  0  0
   19.3026  -10.1449  -15.9412 C   0  0  0  0  0  0  0  0  0  0  0  0
   18.8448  -10.0377  -14.7765 O   0  0  0  0  0  0  0  0  0  0  0  0
   24.3631  -11.2226  -14.7198 C   0  0  0  0  0  0  0  0  0  0  0  0
   22.8982  -10.7831  -14.7017 C   0  0  1  0  0  0  0  0  0  0  0  0
   22.4787  -10.8839  -13.2239 C   0  0  0  0  0  0  0  0  0  0  0  0
   22.7347   -9.3712  -15.0987 C   0  0  0  0  0  0  0  0  0  0  0  0
   21.3469   -8.8448  -15.1945 C   0  0  2  0  0  0  0  0  0  0  0  0
   20.5733   -9.5627  -16.1901 N   0  0  0  0  0  0  0  0  0  0  0  0
   21.2066   -7.3995  -15.3458 C   0  0  0  0  0  0  0  0  0  0  0  0
   21.7034   -6.5418  -14.5729 O   0  0  0  0  0  0  0  0  0  0  0  0
   20.0656   -5.0897  -18.0699 C   0  0  0  0  0  0  0  0  0  0  0  0
   20.2269   -5.4597  -16.6140 C   0  0  2  0  0  0  0  0  0  0  0  0
   20.4560   -6.8804  -16.4409 N   0  0  0  0  0  0  0  0  0  0  0  0
   19.1071   -4.9950  -15.7834 C   0  0  0  0  0  0  0  0  0  0  0  0
   18.8856   -3.6803  -15.4734 O   0  0  0  0  0  0  0  0  0  0  0  0
   18.3046   -5.8505  -15.3298 O   0  0  0  0  0  0  0  0  0  0  0  0
  2  1  1  6
  2  3  1  0
  4  6  1  0
  4  2  1  0
  4  5  1  1
  6  7  2  0
  9  8  1  1
  9 11  1  0
 10  9  1  0
 12 11  1  6
 13  6  1  0
 13 12  1  0
 14 18  1  0
 14 12  1  0
 15 14  2  0
 17 16  1  6
 17 18  1  0
 19 17  1  0
 19 20  1  0
 21 19  2  0
M  END
$$$$
