TLA.pdb
     RDKit          3D

 21 20  0  0  1  0  0  0  0  0999 V2000
   19.4487   -8.0964  -19.5572 C   0  0  0  0  0  0  0  0  0  0  0  0
   18.4028   -9.1408  -19.2643 C   0  0  1  0  0  0  0  0  0  0  0  0
   17.9032   -9.6553  -20.4601 O   0  0  0  0  0  0  0  0  0  0  0  0
   19.0384  -10.2942  -18.5188 C   0  0  2  0  0  0  0  0  0  0  0  0
   18.1617  -11.4139  -18.3576 N   0  0  0  0  0  0  0  0  0  0  0  0
   19.5998   -9.8341  -17.2071 C   0  0  0  0  0  0  0  0  0  0  0  0
   18.8521   -9.3626  -16.3147 O   0  0  0  0  0  0  0  0  0  0  0  0
   23.8655  -12.2611  -14.5946 C   0  0  0  0  0  0  0  0  0  0  0  0
   22.5562  -11.5119  -14.8468 C   0  0  1  0  0  0  0  0  0  0  0  0
   21.8806  -11.4310  -13.4660 C   0  0  0  0  0  0  0  0  0  0  0  0
   22.7850  -10.1244  -15.2945 C   0  0  0  0  0  0  0  0  0  0  0  0
   21.5964   -9.3407  -15.7249 C   0  0  2  0  0  0  0  0  0  0  0  0
   20.9867   -9.9080  -16.9129 N   0  0  0  0  0  0  0  0  0  0  0  0
   21.7778   -7.8976  -15.8519 C   0  0  0  0  0  0  0  0  0  0  0  0
   22.5223   -7.3357  -16.6944 O   0  0  0  0  0  0  0  0  0  0  0  0
   19.8081   -4.9245  -14.9654 C   0  0  0  0  0  0  0  0  0  0  0  0
   21.1632   -5.5816  -15.0839 C   0  0  2  0  0  0  0  0  0  0  0  0
   21.0748   -7.0241  -14.9718 N   0  0  0  0  0  0  0  0  0  0  0  0
   22.1446   -5.0324  -14.1378 C   0  0  0  0  0  0  0  0  0  0  0  0
   22.7803   -3.8330  -14.3136 O   0  0  0  0  0  0  0  0  0  0  0  0
   22.4186   -5.6989  -13.1071 O   0  0  0  0  0  0  0  0  0  0  0  0
  2  1  1  6
  2  3  1  0
  4  6  1  0
  4  2  1  0
  4  5  1  1
  6  7  2  0
  9  8  1  1
  9 11  1  0
 10  9  1  0
 12 11  1  6
 13  6  1  0
 13 12  1  0
 14 18  1  0
 14 12  1  0
 15 14  2  0
 17 16  1  1
 17 18  1  0
 19 17  1  0
 19 20  1  0
 21 19  2  0
M  END
$$$$
