TLA.pdb
     RDKit          3D

 21 20  0  0  1  0  0  0  0  0999 V2000
   18.8381   -7.6615  -19.5474 C   0  0  0  0  0  0  0  0  0  0  0  0
   17.7151   -8.6289  -19.2763 C   0  0  1  0  0  0  0  0  0  0  0  0
   17.0887   -8.9708  -20.4742 O   0  0  0  0  0  0  0  0  0  0  0  0
   18.2807   -9.9059  -18.6937 C   0  0  2  0  0  0  0  0  0  0  0  0
   17.2969  -10.9303  -18.5177 N   0  0  0  0  0  0  0  0  0  0  0  0
   19.0255   -9.6261  -17.4231 C   0  0  0  0  0  0  0  0  0  0  0  0
   18.4113   -9.3685  -16.3582 O   0  0  0  0  0  0  0  0  0  0  0  0
   22.6641  -10.1140  -13.4941 C   0  0  0  0  0  0  0  0  0  0  0  0
   23.2844   -9.8405  -14.8652 C   0  0  1  0  0  0  0  0  0  0  0  0
   24.4657  -10.8228  -14.9621 C   0  0  0  0  0  0  0  0  0  0  0  0
   22.3623  -10.1681  -15.9698 C   0  0  0  0  0  0  0  0  0  0  0  0
   21.2098   -9.2544  -16.1912 C   0  0  2  0  0  0  0  0  0  0  0  0
   20.4438   -9.6382  -17.3621 N   0  0  0  0  0  0  0  0  0  0  0  0
   21.5014   -7.8238  -16.1862 C   0  0  0  0  0  0  0  0  0  0  0  0
   22.1994   -7.2270  -17.0443 O   0  0  0  0  0  0  0  0  0  0  0  0
   19.9279   -4.7906  -15.0301 C   0  0  0  0  0  0  0  0  0  0  0  0
   21.2158   -5.5781  -15.0877 C   0  0  2  0  0  0  0  0  0  0  0  0
   20.9727   -7.0059  -15.1452 N   0  0  0  0  0  0  0  0  0  0  0  0
   22.1380   -5.2378  -13.9953 C   0  0  0  0  0  0  0  0  0  0  0  0
   22.9268   -4.1191  -13.9878 O   0  0  0  0  0  0  0  0  0  0  0  0
   22.2096   -6.0157  -13.0097 O   0  0  0  0  0  0  0  0  0  0  0  0
  2  1  1  6
  2  3  1  0
  4  6  1  0
  4  2  1  0
  4  5  1  1
  6  7  2  0
  9  8  1  1
  9 11  1  0
 10  9  1  0
 12 11  1  6
 13  6  1  0
 13 12  1  0
 14 18  1  0
 14 12  1  0
 15 14  2  0
 17 16  1  1
 17 18  1  0
 19 17  1  0
 19 20  1  0
 21 19  2  0
M  END
$$$$
