TLA.pdb
     RDKit          3D

 21 20  0  0  1  0  0  0  0  0999 V2000
   20.9706  -19.6535   15.7354 C   0  0  0  0  0  0  0  0  0  0  0  0
   21.2964  -18.3249   16.3670 C   0  0  1  0  0  0  0  0  0  0  0  0
   21.9484  -18.5286   17.5826 O   0  0  0  0  0  0  0  0  0  0  0  0
   22.2534  -17.5647   15.4747 C   0  0  2  0  0  0  0  0  0  0  0  0
   22.7332  -16.3523   16.0647 N   0  0  0  0  0  0  0  0  0  0  0  0
   21.6449  -17.3240   14.1260 C   0  0  0  0  0  0  0  0  0  0  0  0
   20.7668  -16.4408   13.9623 O   0  0  0  0  0  0  0  0  0  0  0  0
   21.6514  -15.8279    9.0760 C   0  0  0  0  0  0  0  0  0  0  0  0
   22.1630  -17.2540    9.2854 C   0  0  1  0  0  0  0  0  0  0  0  0
   23.4400  -17.3401    8.4299 C   0  0  0  0  0  0  0  0  0  0  0  0
   22.5655  -17.5024   10.6833 C   0  0  0  0  0  0  0  0  0  0  0  0
   21.4919  -17.8525   11.6513 C   0  0  2  0  0  0  0  0  0  0  0  0
   22.0264  -18.0730   12.9819 N   0  0  0  0  0  0  0  0  0  0  0  0
   20.5801  -18.9219   11.2554 C   0  0  0  0  0  0  0  0  0  0  0  0
   20.8996  -20.1304   11.1241 O   0  0  0  0  0  0  0  0  0  0  0  0
   16.9440  -19.4093   11.4617 C   0  0  0  0  0  0  0  0  0  0  0  0
   18.2322  -19.6418   10.7074 C   0  0  2  0  0  0  0  0  0  0  0  0
   19.2144  -18.6133   10.9877 N   0  0  0  0  0  0  0  0  0  0  0  0
   18.0223  -19.7987    9.2614 C   0  0  0  0  0  0  0  0  0  0  0  0
   18.6023  -18.9943    8.3179 O   0  0  0  0  0  0  0  0  0  0  0  0
   17.2678  -20.7232    8.8641 O   0  0  0  0  0  0  0  0  0  0  0  0
  2  1  1  6
  2  3  1  0
  4  6  1  0
  4  2  1  0
  4  5  1  1
  6  7  2  0
  9  8  1  1
  9 11  1  0
 10  9  1  0
 12 11  1  6
 13  6  1  0
 13 12  1  0
 14 18  1  0
 14 12  1  0
 15 14  2  0
 17 16  1  1
 17 18  1  0
 19 17  1  0
 19 20  1  0
 21 19  2  0
M  END
$$$$
