TLA.pdb
     RDKit          3D

 21 20  0  0  1  0  0  0  0  0999 V2000
   35.8354  -27.6550    6.0641 C   0  0  0  0  0  0  0  0  0  0  0  0
   37.2852  -27.3052    5.8490 C   0  0  1  0  0  0  0  0  0  0  0  0
   37.9209  -28.3361    5.1581 O   0  0  0  0  0  0  0  0  0  0  0  0
   37.3812  -26.0682    4.9825 C   0  0  2  0  0  0  0  0  0  0  0  0
   38.7246  -25.7395    4.6146 N   0  0  0  0  0  0  0  0  0  0  0  0
   36.6829  -24.9104    5.6300 C   0  0  0  0  0  0  0  0  0  0  0  0
   37.1824  -24.3300    6.6256 O   0  0  0  0  0  0  0  0  0  0  0  0
   33.4548  -20.3261    5.3548 C   0  0  0  0  0  0  0  0  0  0  0  0
   32.8022  -21.7093    5.3356 C   0  0  1  0  0  0  0  0  0  0  0  0
   31.6427  -21.5798    4.3313 C   0  0  0  0  0  0  0  0  0  0  0  0
   33.7106  -22.7471    4.8107 C   0  0  0  0  0  0  0  0  0  0  0  0
   34.7302  -23.2976    5.7431 C   0  0  2  0  0  0  0  0  0  0  0  0
   35.4382  -24.4193    5.1555 N   0  0  0  0  0  0  0  0  0  0  0  0
   34.2793  -23.5985    7.0988 C   0  0  0  0  0  0  0  0  0  0  0  0
   33.5723  -24.5866    7.4210 O   0  0  0  0  0  0  0  0  0  0  0  0
   35.4432  -22.6215   10.4842 C   0  0  0  0  0  0  0  0  0  0  0  0
   34.3288  -23.0296    9.5493 C   0  0  2  0  0  0  0  0  0  0  0  0
   34.6473  -22.7298    8.1674 N   0  0  0  0  0  0  0  0  0  0  0  0
   33.0296  -22.4598    9.9328 C   0  0  0  0  0  0  0  0  0  0  0  0
   32.3534  -22.8083   11.0708 O   0  0  0  0  0  0  0  0  0  0  0  0
   32.5059  -21.6032    9.1753 O   0  0  0  0  0  0  0  0  0  0  0  0
  2  1  1  6
  2  3  1  0
  4  6  1  0
  4  2  1  0
  4  5  1  1
  6  7  2  0
  9  8  1  6
  9 11  1  0
 10  9  1  0
 12 11  1  6
 13  6  1  0
 13 12  1  0
 14 18  1  0
 14 12  1  0
 15 14  2  0
 17 16  1  1
 17 18  1  0
 19 17  1  0
 19 20  1  0
 21 19  2  0
M  END
$$$$
