RDV.pdb
     RDKit          3D

 27 26  0  0  1  0  0  0  0  0999 V2000
   26.1173  -24.7309  -17.7899 N   0  0  0  0  0  0  0  0  0  0  0  0
   26.9135  -24.7159  -16.6216 C   0  0  0  0  0  0  0  0  0  0  0  0
   27.8330  -25.6109  -16.3817 N   0  0  0  0  0  0  0  0  0  0  0  0
   26.7204  -23.7041  -15.6214 N   0  0  0  0  0  0  0  0  0  0  0  0
   25.4199  -23.4247  -15.0472 C   0  0  0  0  0  0  0  0  0  0  0  0
   24.4495  -23.1140  -16.1902 C   0  0  0  0  0  0  0  0  0  0  0  0
   23.0772  -22.7840  -15.7055 C   0  0  0  0  0  0  0  0  0  0  0  0
   22.4512  -23.9880  -15.0217 C   0  0  2  0  0  0  0  0  0  0  0  0
   22.4902  -25.1120  -15.9108 N   0  0  0  0  0  0  0  0  0  0  0  0
   21.0842  -23.5910  -14.6386 C   0  0  0  0  0  0  0  0  0  0  0  0
   20.2960  -23.3054  -15.6164 O   0  0  0  0  0  0  0  0  0  0  0  0
   28.3256  -25.5293  -15.4375 N   0  0  0  0  0  0  0  0  0  0  0  0
   20.5226  -23.4771  -13.3542 C   0  0  1  0  0  0  0  0  0  0  0  0
   19.1180  -23.1272  -13.1798 C   0  0  0  0  0  0  0  0  0  0  0  0
   18.7256  -23.3430  -11.7600 C   0  0  0  0  0  0  0  0  0  0  0  0
   18.6894  -24.7707  -11.3311 O   0  0  0  0  0  0  0  0  0  0  0  0
   18.9234  -25.7154  -12.1168 C   0  0  0  0  0  0  0  0  0  0  0  0
   18.8397  -21.7182  -13.5606 O   0  0  0  0  0  0  0  0  0  0  0  0
   19.7410  -20.8952  -13.2689 O   0  0  0  0  0  0  0  0  0  0  0  0
   18.3811  -25.1020   -9.9901 C   0  0  0  0  0  0  0  0  0  0  0  0
   16.9396  -19.3788  -17.1031 C   0  0  2  0  0  0  0  0  0  0  0  0
   18.0609  -19.8150  -16.1611 C   0  0  0  0  0  0  0  0  0  0  0  0
   19.1479  -18.7332  -16.1565 C   0  0  1  0  0  0  0  0  0  0  0  0
   17.4555  -19.9701  -14.7881 N   0  0  0  0  0  0  0  0  0  0  0  0
   17.6738  -21.2763  -14.2010 C   0  0  0  0  0  0  0  0  0  0  0  0
   16.0468  -19.5988  -14.8250 O   0  0  0  0  0  0  0  0  0  0  0  0
   15.2163  -20.5855  -14.6254 O   0  0  0  0  0  0  0  0  0  0  0  0
  2  1  1  0
  3  2  2  0
  4  2  1  0
  5  4  1  0
  5  6  1  0
  6  7  1  0
  8 10  1  0
  8  7  1  0
  8  9  1  6
 10 12  1  0
 11 10  2  0
 12 13  1  0
 13 14  1  6
 15 16  2  0
 15 14  1  0
 17 18  2  0
 17 13  1  0
 19 15  1  0
 21 20  1  6
 21 23  1  0
 22 21  1  0
 23 24  1  6
 24 17  1  0
 25 23  1  0
 25 27  1  0
 26 25  2  0
M  END
$$$$
