RDV.pdb
     RDKit          3D

 27 26  0  0  1  0  0  0  0  0999 V2000
   26.6955  -31.0527  -16.3726 N   0  0  0  0  0  0  0  0  0  0  0  0
   25.3271  -31.1207  -16.7215 C   0  0  0  0  0  0  0  0  0  0  0  0
   24.7488  -30.2367  -17.4885 N   0  0  0  0  0  0  0  0  0  0  0  0
   24.4977  -32.1777  -16.2152 N   0  0  0  0  0  0  0  0  0  0  0  0
   25.0227  -33.2368  -15.3775 C   0  0  0  0  0  0  0  0  0  0  0  0
   24.9680  -32.7660  -13.9214 C   0  0  0  0  0  0  0  0  0  0  0  0
   25.5472  -33.7622  -12.9731 C   0  0  0  0  0  0  0  0  0  0  0  0
   26.7022  -33.1497  -12.1987 C   0  0  2  0  0  0  0  0  0  0  0  0
   27.9403  -33.5307  -12.8129 N   0  0  0  0  0  0  0  0  0  0  0  0
   26.5704  -33.6166  -10.8067 C   0  0  0  0  0  0  0  0  0  0  0  0
   26.4392  -34.8895  -10.6598 O   0  0  0  0  0  0  0  0  0  0  0  0
   23.7204  -30.4180  -17.7127 N   0  0  0  0  0  0  0  0  0  0  0  0
   26.5643  -32.8654   -9.6177 C   0  0  2  0  0  0  0  0  0  0  0  0
   26.5861  -33.5231   -8.3167 C   0  0  0  0  0  0  0  0  0  0  0  0
   27.0476  -32.5585   -7.2809 C   0  0  0  0  0  0  0  0  0  0  0  0
   27.3353  -33.1620   -5.9480 O   0  0  0  0  0  0  0  0  0  0  0  0
   27.0416  -34.3451   -5.6676 C   0  0  0  0  0  0  0  0  0  0  0  0
   25.2527  -34.0567   -7.9356 O   0  0  0  0  0  0  0  0  0  0  0  0
   24.3185  -33.2189   -7.9381 O   0  0  0  0  0  0  0  0  0  0  0  0
   27.9635  -32.3922   -4.9402 C   0  0  0  0  0  0  0  0  0  0  0  0
   23.1448  -36.7148   -9.5052 C   0  0  2  0  0  0  0  0  0  0  0  0
   23.3450  -37.1752   -8.0619 C   0  0  0  0  0  0  0  0  0  0  0  0
   24.4824  -38.2032   -8.0270 C   0  0  2  0  0  0  0  0  0  0  0  0
   23.7022  -35.9551   -7.2497 N   0  0  0  0  0  0  0  0  0  0  0  0
   24.9922  -35.3893   -7.5878 C   0  0  0  0  0  0  0  0  0  0  0  0
   23.5743  -36.2532   -5.8290 O   0  0  0  0  0  0  0  0  0  0  0  0
   22.3681  -36.5685   -5.4433 O   0  0  0  0  0  0  0  0  0  0  0  0
  2  1  1  0
  3  2  2  0
  4  2  1  0
  5  4  1  0
  5  6  1  0
  6  7  1  0
  8 10  1  0
  8  7  1  0
  8  9  1  6
 10 12  1  0
 11 10  2  0
 12 13  1  0
 13 14  1  1
 15 16  2  0
 15 14  1  0
 17 18  2  0
 17 13  1  0
 19 15  1  0
 21 20  1  6
 21 23  1  0
 22 21  1  0
 23 24  1  1
 24 17  1  0
 25 23  1  0
 25 27  1  0
 26 25  2  0
M  END
$$$$
