RDV.pdb
     RDKit          3D

 27 26  0  0  1  0  0  0  0  0999 V2000
   47.3111  -11.2084   -7.7783 N   0  0  0  0  0  0  0  0  0  0  0  0
   46.6986  -12.2594   -7.0578 C   0  0  0  0  0  0  0  0  0  0  0  0
   47.3327  -12.9638   -6.1599 N   0  0  0  0  0  0  0  0  0  0  0  0
   45.3301  -12.6140   -7.3087 N   0  0  0  0  0  0  0  0  0  0  0  0
   44.5437  -11.9726   -8.3427 C   0  0  0  0  0  0  0  0  0  0  0  0
   43.1160  -12.5209   -8.2666 C   0  0  0  0  0  0  0  0  0  0  0  0
   42.1333  -11.6688   -8.9981 C   0  0  0  0  0  0  0  0  0  0  0  0
   41.9739  -10.3262   -8.3044 C   0  0  2  0  0  0  0  0  0  0  0  0
   41.6266  -10.5406   -6.9300 N   0  0  0  0  0  0  0  0  0  0  0  0
   40.9493   -9.5817   -9.0586 C   0  0  0  0  0  0  0  0  0  0  0  0
   39.7303   -9.9247   -8.8233 O   0  0  0  0  0  0  0  0  0  0  0  0
   46.7903  -13.7859   -5.7465 N   0  0  0  0  0  0  0  0  0  0  0  0
   41.1180   -8.5520  -10.0016 C   0  0  1  0  0  0  0  0  0  0  0  0
   39.9660   -7.9145  -10.6279 C   0  0  0  0  0  0  0  0  0  0  0  0
   40.2996   -6.5018  -10.9584 C   0  0  0  0  0  0  0  0  0  0  0  0
   40.4705   -5.6067   -9.7780 O   0  0  0  0  0  0  0  0  0  0  0  0
   41.4241   -4.8040   -9.6749 C   0  0  0  0  0  0  0  0  0  0  0  0
   39.5354   -8.6220  -11.8616 O   0  0  0  0  0  0  0  0  0  0  0  0
   40.4644   -8.9969  -12.6174 O   0  0  0  0  0  0  0  0  0  0  0  0
   39.5346   -5.6438   -8.7170 C   0  0  0  0  0  0  0  0  0  0  0  0
   37.8512  -11.7668  -12.4112 C   0  0  2  0  0  0  0  0  0  0  0  0
   36.9400  -10.7912  -13.1548 C   0  0  0  0  0  0  0  0  0  0  0  0
   35.7264  -10.4804  -12.2704 C   0  0  2  0  0  0  0  0  0  0  0  0
   37.7436   -9.5418  -13.4178 N   0  0  0  0  0  0  0  0  0  0  0  0
   38.2037   -8.8826  -12.2127 C   0  0  0  0  0  0  0  0  0  0  0  0
   36.9969   -8.6504  -14.2960 O   0  0  0  0  0  0  0  0  0  0  0  0
   36.6119   -7.5334  -13.7416 O   0  0  0  0  0  0  0  0  0  0  0  0
  2  1  1  0
  3  2  2  0
  4  2  1  0
  5  4  1  0
  5  6  1  0
  6  7  1  0
  8 10  1  0
  8  7  1  0
  8  9  1  1
 10 12  1  0
 11 10  2  0
 12 13  1  0
 13 14  1  1
 15 16  2  0
 15 14  1  0
 17 18  2  0
 17 13  1  0
 19 15  1  0
 21 20  1  6
 21 23  1  0
 22 21  1  0
 23 24  1  6
 24 17  1  0
 25 23  1  0
 25 27  1  0
 26 25  2  0
M  END
$$$$
