RDV.pdb
     RDKit          3D

 27 26  0  0  1  0  0  0  0  0999 V2000
   22.8710  -22.4758   -8.0550 N   0  0  0  0  0  0  0  0  0  0  0  0
   23.2062  -21.3979   -7.2037 C   0  0  0  0  0  0  0  0  0  0  0  0
   22.6870  -21.2483   -6.0153 N   0  0  0  0  0  0  0  0  0  0  0  0
   24.1358  -20.3917   -7.6337 N   0  0  0  0  0  0  0  0  0  0  0  0
   25.4087  -20.7254   -8.2398 C   0  0  0  0  0  0  0  0  0  0  0  0
   25.1343  -21.4991   -9.5324 C   0  0  0  0  0  0  0  0  0  0  0  0
   25.8472  -20.9223  -10.7098 C   0  0  0  0  0  0  0  0  0  0  0  0
   24.8832  -20.1350  -11.5815 C   0  0  2  0  0  0  0  0  0  0  0  0
   23.6935  -20.9071  -11.7903 N   0  0  0  0  0  0  0  0  0  0  0  0
   25.6040  -19.8204  -12.8283 C   0  0  0  0  0  0  0  0  0  0  0  0
   26.7332  -19.2192  -12.6785 O   0  0  0  0  0  0  0  0  0  0  0  0
   22.9600  -20.3545   -5.4982 N   0  0  0  0  0  0  0  0  0  0  0  0
   25.2284  -20.0820  -14.1582 C   0  0  1  0  0  0  0  0  0  0  0  0
   26.0650  -19.6494  -15.2711 C   0  0  0  0  0  0  0  0  0  0  0  0
   26.1613  -20.7451  -16.2744 C   0  0  0  0  0  0  0  0  0  0  0  0
   26.8696  -21.9681  -15.7989 O   0  0  0  0  0  0  0  0  0  0  0  0
   28.0842  -21.9689  -15.5001 C   0  0  0  0  0  0  0  0  0  0  0  0
   25.5373  -18.4246  -15.9264 O   0  0  0  0  0  0  0  0  0  0  0  0
   24.3003  -18.4192  -16.1376 O   0  0  0  0  0  0  0  0  0  0  0  0
   26.1682  -23.1907  -15.6708 C   0  0  0  0  0  0  0  0  0  0  0  0
   26.4915  -14.7219  -15.0465 C   0  0  2  0  0  0  0  0  0  0  0  0
   26.6124  -14.8770  -16.5618 C   0  0  0  0  0  0  0  0  0  0  0  0
   28.0947  -15.0309  -16.9236 C   0  0  2  0  0  0  0  0  0  0  0  0
   25.8372  -16.1124  -16.9474 N   0  0  0  0  0  0  0  0  0  0  0  0
   26.3134  -17.3209  -16.3060 C   0  0  0  0  0  0  0  0  0  0  0  0
   25.7853  -16.2296  -18.3990 O   0  0  0  0  0  0  0  0  0  0  0  0
   26.5105  -17.1943  -18.8956 O   0  0  0  0  0  0  0  0  0  0  0  0
  2  1  1  0
  3  2  2  0
  4  2  1  0
  5  4  1  0
  5  6  1  0
  6  7  1  0
  8 10  1  0
  8  7  1  0
  8  9  1  6
 10 12  1  0
 11 10  2  0
 12 13  1  0
 13 14  1  1
 15 16  2  0
 15 14  1  0
 17 18  2  0
 17 13  1  0
 19 15  1  0
 21 20  1  6
 21 23  1  0
 22 21  1  0
 23 24  1  6
 24 17  1  0
 25 23  1  0
 25 27  1  0
 26 25  2  0
M  END
$$$$
