RDV.pdb
     RDKit          3D

 27 26  0  0  1  0  0  0  0  0999 V2000
   20.1368  -23.7113   -7.9197 N   0  0  0  0  0  0  0  0  0  0  0  0
   19.9457  -22.4344   -8.4960 C   0  0  0  0  0  0  0  0  0  0  0  0
   18.7934  -21.8209   -8.4877 N   0  0  0  0  0  0  0  0  0  0  0  0
   21.0326  -21.7586   -9.1466 N   0  0  0  0  0  0  0  0  0  0  0  0
   22.4172  -22.0265   -8.8150 C   0  0  0  0  0  0  0  0  0  0  0  0
   23.0578  -20.7177   -8.3444 C   0  0  0  0  0  0  0  0  0  0  0  0
   23.5021  -19.8550   -9.4781 C   0  0  0  0  0  0  0  0  0  0  0  0
   24.2565  -20.6784  -10.5086 C   0  0  2  0  0  0  0  0  0  0  0  0
   25.6664  -20.5066  -10.3134 N   0  0  0  0  0  0  0  0  0  0  0  0
   23.7889  -20.2277  -11.8319 C   0  0  0  0  0  0  0  0  0  0  0  0
   24.1752  -19.0506  -12.1843 O   0  0  0  0  0  0  0  0  0  0  0  0
   18.7551  -20.8972   -9.0227 N   0  0  0  0  0  0  0  0  0  0  0  0
   22.9768  -20.9026  -12.7610 C   0  0  2  0  0  0  0  0  0  0  0  0
   22.6442  -20.2956  -14.0442 C   0  0  0  0  0  0  0  0  0  0  0  0
   23.0969  -21.1873  -15.1470 C   0  0  0  0  0  0  0  0  0  0  0  0
   22.8936  -20.6386  -16.5186 O   0  0  0  0  0  0  0  0  0  0  0  0
   22.4104  -19.5033  -16.7242 C   0  0  0  0  0  0  0  0  0  0  0  0
   21.1870  -20.0396  -14.1825 O   0  0  0  0  0  0  0  0  0  0  0  0
   20.4461  -21.0321  -13.9809 O   0  0  0  0  0  0  0  0  0  0  0  0
   23.2507  -21.4078  -17.6516 C   0  0  0  0  0  0  0  0  0  0  0  0
   19.4439  -16.5442  -13.1676 C   0  0  2  0  0  0  0  0  0  0  0  0
   18.8892  -17.0304  -14.5059 C   0  0  0  0  0  0  0  0  0  0  0  0
   19.5699  -16.2463  -15.6344 C   0  0  2  0  0  0  0  0  0  0  0  0
   19.2047  -18.5019  -14.6118 N   0  0  0  0  0  0  0  0  0  0  0  0
   20.6185  -18.8016  -14.5123 C   0  0  0  0  0  0  0  0  0  0  0  0
   18.5971  -19.0515  -15.8169 O   0  0  0  0  0  0  0  0  0  0  0  0
   17.2935  -18.9965  -15.8455 O   0  0  0  0  0  0  0  0  0  0  0  0
  2  1  1  0
  3  2  2  0
  4  2  1  0
  5  4  1  0
  5  6  1  0
  6  7  1  0
  8 10  1  0
  8  7  1  0
  8  9  1  6
 10 12  1  0
 11 10  2  0
 12 13  1  0
 13 14  1  6
 15 16  2  0
 15 14  1  0
 17 18  2  0
 17 13  1  0
 19 15  1  0
 21 20  1  1
 21 23  1  0
 22 21  1  0
 23 24  1  6
 24 17  1  0
 25 23  1  0
 25 27  1  0
 26 25  2  0
M  END
$$$$
