RDV.pdb
     RDKit          3D

 27 26  0  0  1  0  0  0  0  0999 V2000
   23.5442  -20.9971   -8.2295 N   0  0  0  0  0  0  0  0  0  0  0  0
   23.6145  -20.6038   -9.5857 C   0  0  0  0  0  0  0  0  0  0  0  0
   22.5535  -20.3677  -10.3088 N   0  0  0  0  0  0  0  0  0  0  0  0
   24.8852  -20.4677  -10.2399 N   0  0  0  0  0  0  0  0  0  0  0  0
   25.8096  -21.5758  -10.3688 C   0  0  0  0  0  0  0  0  0  0  0  0
   27.0815  -21.0605  -11.0482 C   0  0  0  0  0  0  0  0  0  0  0  0
   26.8063  -20.3988  -12.3572 C   0  0  0  0  0  0  0  0  0  0  0  0
   26.2369  -21.3993  -13.3491 C   0  0  2  0  0  0  0  0  0  0  0  0
   27.3126  -22.1070  -13.9796 N   0  0  0  0  0  0  0  0  0  0  0  0
   25.4081  -20.6297  -14.2944 C   0  0  0  0  0  0  0  0  0  0  0  0
   26.0374  -20.1241  -15.2980 O   0  0  0  0  0  0  0  0  0  0  0  0
   22.7283  -20.1986  -11.3488 N   0  0  0  0  0  0  0  0  0  0  0  0
   24.0269  -20.3678  -14.2507 C   0  0  2  0  0  0  0  0  0  0  0  0
   23.3780  -19.5951  -15.3031 C   0  0  0  0  0  0  0  0  0  0  0  0
   21.9127  -19.8572  -15.2792 C   0  0  0  0  0  0  0  0  0  0  0  0
   21.1461  -19.2262  -16.3918 O   0  0  0  0  0  0  0  0  0  0  0  0
   21.6781  -18.4608  -17.2259 C   0  0  0  0  0  0  0  0  0  0  0  0
   23.6212  -18.1364  -15.1590 O   0  0  0  0  0  0  0  0  0  0  0  0
   23.1836  -17.6210  -14.1018 O   0  0  0  0  0  0  0  0  0  0  0  0
   19.7619  -19.4830  -16.5359 C   0  0  0  0  0  0  0  0  0  0  0  0
   26.4353  -16.1717  -14.5680 C   0  0  2  0  0  0  0  0  0  0  0  0
   25.9350  -15.5092  -15.8509 C   0  0  0  0  0  0  0  0  0  0  0  0
   26.7808  -16.0131  -17.0267 C   0  0  2  0  0  0  0  0  0  0  0  0
   24.4897  -15.9055  -16.0237 N   0  0  0  0  0  0  0  0  0  0  0  0
   24.2851  -17.3376  -16.1002 C   0  0  0  0  0  0  0  0  0  0  0  0
   23.9151  -15.1944  -17.1585 O   0  0  0  0  0  0  0  0  0  0  0  0
   23.8459  -15.8895  -18.2608 O   0  0  0  0  0  0  0  0  0  0  0  0
  2  1  1  0
  3  2  2  0
  4  2  1  0
  5  4  1  0
  5  6  1  0
  6  7  1  0
  8 10  1  0
  8  7  1  0
  8  9  1  6
 10 12  1  0
 11 10  2  0
 12 13  1  0
 13 14  1  6
 15 16  2  0
 15 14  1  0
 17 18  2  0
 17 13  1  0
 19 15  1  0
 21 20  1  1
 21 23  1  0
 22 21  1  0
 23 24  1  6
 24 17  1  0
 25 23  1  0
 25 27  1  0
 26 25  2  0
M  END
$$$$
