RDV.pdb
     RDKit          3D

 27 26  0  0  1  0  0  0  0  0999 V2000
   31.6293  -24.7086  -14.9431 N   0  0  0  0  0  0  0  0  0  0  0  0
   32.0419  -25.0342  -16.2556 C   0  0  0  0  0  0  0  0  0  0  0  0
   33.1024  -25.7536  -16.5047 N   0  0  0  0  0  0  0  0  0  0  0  0
   31.3047  -24.5558  -17.3909 N   0  0  0  0  0  0  0  0  0  0  0  0
   29.9485  -24.0590  -17.2770 C   0  0  0  0  0  0  0  0  0  0  0  0
   29.9879  -22.5323  -17.3884 C   0  0  0  0  0  0  0  0  0  0  0  0
   29.1363  -21.8590  -16.3645 C   0  0  0  0  0  0  0  0  0  0  0  0
   27.7963  -22.5648  -16.2403 C   0  0  2  0  0  0  0  0  0  0  0  0
   27.2517  -22.7825  -17.5485 N   0  0  0  0  0  0  0  0  0  0  0  0
   26.9489  -21.7121  -15.3871 C   0  0  0  0  0  0  0  0  0  0  0  0
   27.5637  -20.7672  -14.7642 O   0  0  0  0  0  0  0  0  0  0  0  0
   33.2995  -25.9487  -17.5362 N   0  0  0  0  0  0  0  0  0  0  0  0
   25.5637  -21.7894  -15.1561 C   0  0  1  0  0  0  0  0  0  0  0  0
   24.8864  -20.7981  -14.3289 C   0  0  0  0  0  0  0  0  0  0  0  0
   23.5993  -20.4127  -14.9701 C   0  0  0  0  0  0  0  0  0  0  0  0
   22.7958  -19.4134  -14.2091 O   0  0  0  0  0  0  0  0  0  0  0  0
   23.2470  -18.8047  -13.2138 C   0  0  0  0  0  0  0  0  0  0  0  0
   24.6231  -21.2996  -12.9551 O   0  0  0  0  0  0  0  0  0  0  0  0
   24.0581  -22.4183  -12.8911 O   0  0  0  0  0  0  0  0  0  0  0  0
   21.4683  -19.1208  -14.6028 C   0  0  0  0  0  0  0  0  0  0  0  0
   26.9195  -19.9883  -10.2431 C   0  0  2  0  0  0  0  0  0  0  0  0
   25.7599  -20.5688   -9.4348 C   0  0  0  0  0  0  0  0  0  0  0  0
   25.1581  -19.4553   -8.5690 C   0  0  2  0  0  0  0  0  0  0  0  0
   24.7433  -21.0870  -10.4216 N   0  0  0  0  0  0  0  0  0  0  0  0
   24.9574  -20.6196  -11.7759 C   0  0  0  0  0  0  0  0  0  0  0  0
   23.3978  -20.8077   -9.9367 O   0  0  0  0  0  0  0  0  0  0  0  0
   22.6985  -20.0085  -10.6953 O   0  0  0  0  0  0  0  0  0  0  0  0
  2  1  1  0
  3  2  2  0
  4  2  1  0
  5  4  1  0
  5  6  1  0
  6  7  1  0
  8 10  1  0
  8  7  1  0
  8  9  1  6
 10 12  1  0
 11 10  2  0
 12 13  1  0
 13 14  1  1
 15 16  2  0
 15 14  1  0
 17 18  2  0
 17 13  1  0
 19 15  1  0
 21 20  1  1
 21 23  1  0
 22 21  1  0
 23 24  1  1
 24 17  1  0
 25 23  1  0
 25 27  1  0
 26 25  2  0
M  END
$$$$
