RDV.pdb
     RDKit          3D

 27 26  0  0  1  0  0  0  0  0999 V2000
   30.1574  -26.5359  -16.0637 N   0  0  0  0  0  0  0  0  0  0  0  0
   28.8182  -26.7215  -16.4774 C   0  0  0  0  0  0  0  0  0  0  0  0
   28.2375  -27.8907  -16.4877 N   0  0  0  0  0  0  0  0  0  0  0  0
   28.0355  -25.6076  -16.9334 N   0  0  0  0  0  0  0  0  0  0  0  0
   28.6073  -24.5320  -17.7177 C   0  0  0  0  0  0  0  0  0  0  0  0
   29.3285  -23.5759  -16.7634 C   0  0  0  0  0  0  0  0  0  0  0  0
   28.3871  -22.6932  -16.0139 C   0  0  0  0  0  0  0  0  0  0  0  0
   27.8009  -21.6371  -16.9358 C   0  0  2  0  0  0  0  0  0  0  0  0
   28.8254  -20.7017  -17.2977 N   0  0  0  0  0  0  0  0  0  0  0  0
   26.6756  -21.0217  -16.2091 C   0  0  0  0  0  0  0  0  0  0  0  0
   26.9843  -20.0298  -15.4478 O   0  0  0  0  0  0  0  0  0  0  0  0
   27.2735  -27.9265  -16.9463 N   0  0  0  0  0  0  0  0  0  0  0  0
   25.3130  -21.3696  -16.2288 C   0  0  2  0  0  0  0  0  0  0  0  0
   24.3341  -20.6046  -15.4657 C   0  0  0  0  0  0  0  0  0  0  0  0
   23.0187  -20.6481  -16.1616 C   0  0  0  0  0  0  0  0  0  0  0  0
   21.9294  -19.8840  -15.4885 O   0  0  0  0  0  0  0  0  0  0  0  0
   22.1521  -18.8765  -14.7814 C   0  0  0  0  0  0  0  0  0  0  0  0
   24.1773  -21.1185  -14.0804 O   0  0  0  0  0  0  0  0  0  0  0  0
   23.8941  -22.3377  -13.9888 O   0  0  0  0  0  0  0  0  0  0  0  0
   20.5815  -20.2895  -15.6356 C   0  0  0  0  0  0  0  0  0  0  0  0
   24.8450  -20.8846   -9.2221 C   0  0  2  0  0  0  0  0  0  0  0  0
   25.1706  -20.2949  -10.5936 C   0  0  0  0  0  0  0  0  0  0  0  0
   26.5671  -20.7692  -11.0138 C   0  0  1  0  0  0  0  0  0  0  0  0
   24.1233  -20.7981  -11.5559 N   0  0  0  0  0  0  0  0  0  0  0  0
   24.3221  -20.3481  -12.9185 C   0  0  0  0  0  0  0  0  0  0  0  0
   22.7943  -20.4827  -11.0482 O   0  0  0  0  0  0  0  0  0  0  0  0
   22.5129  -21.0107   -9.8884 O   0  0  0  0  0  0  0  0  0  0  0  0
  2  1  1  0
  3  2  2  0
  4  2  1  0
  5  4  1  0
  5  6  1  0
  6  7  1  0
  8 10  1  0
  8  7  1  0
  8  9  1  1
 10 12  1  0
 11 10  2  0
 12 13  1  0
 13 14  1  6
 15 16  2  0
 15 14  1  0
 17 18  2  0
 17 13  1  0
 19 15  1  0
 21 20  1  1
 21 23  1  0
 22 21  1  0
 23 24  1  1
 24 17  1  0
 25 23  1  0
 25 27  1  0
 26 25  2  0
M  END
$$$$
