RDV.pdb
     RDKit          3D

 27 26  0  0  1  0  0  0  0  0999 V2000
   16.9910  -21.4704  -18.0948 N   0  0  0  0  0  0  0  0  0  0  0  0
   16.7084  -21.8850  -16.7730 C   0  0  0  0  0  0  0  0  0  0  0  0
   16.0456  -22.9763  -16.5013 N   0  0  0  0  0  0  0  0  0  0  0  0
   17.1310  -21.0905  -15.6542 N   0  0  0  0  0  0  0  0  0  0  0  0
   17.6053  -19.7303  -15.8088 C   0  0  0  0  0  0  0  0  0  0  0  0
   19.0347  -19.7818  -16.3556 C   0  0  0  0  0  0  0  0  0  0  0  0
   20.0351  -19.2165  -15.4034 C   0  0  0  0  0  0  0  0  0  0  0  0
   20.6460  -20.3206  -14.5568 C   0  0  2  0  0  0  0  0  0  0  0  0
   19.7888  -20.5914  -13.4399 N   0  0  0  0  0  0  0  0  0  0  0  0
   21.9894  -19.8568  -14.1656 C   0  0  0  0  0  0  0  0  0  0  0  0
   22.0309  -18.7091  -13.5823 O   0  0  0  0  0  0  0  0  0  0  0  0
   15.8577  -23.1601  -15.4660 N   0  0  0  0  0  0  0  0  0  0  0  0
   23.2319  -20.4912  -14.3440 C   0  0  1  0  0  0  0  0  0  0  0  0
   24.4617  -19.8797  -13.8548 C   0  0  0  0  0  0  0  0  0  0  0  0
   25.2881  -20.9092  -13.1668 C   0  0  0  0  0  0  0  0  0  0  0  0
   26.5574  -20.3986  -12.5738 O   0  0  0  0  0  0  0  0  0  0  0  0
   26.8259  -19.1788  -12.5071 C   0  0  0  0  0  0  0  0  0  0  0  0
   25.2539  -19.2606  -14.9489 O   0  0  0  0  0  0  0  0  0  0  0  0
   25.5185  -20.0172  -15.9145 O   0  0  0  0  0  0  0  0  0  0  0  0
   27.5155  -21.3039  -12.0585 C   0  0  0  0  0  0  0  0  0  0  0  0
   25.3545  -15.1006  -15.5691 C   0  0  2  0  0  0  0  0  0  0  0  0
   26.6909  -15.8131  -15.7721 C   0  0  0  0  0  0  0  0  0  0  0  0
   27.5245  -15.6685  -14.4930 C   0  0  2  0  0  0  0  0  0  0  0  0
   26.3856  -17.2641  -16.0498 N   0  0  0  0  0  0  0  0  0  0  0  0
   25.7034  -17.9331  -14.9609 C   0  0  0  0  0  0  0  0  0  0  0  0
   27.6015  -17.9547  -16.4598 O   0  0  0  0  0  0  0  0  0  0  0  0
   28.1334  -18.7159  -15.5428 O   0  0  0  0  0  0  0  0  0  0  0  0
  2  1  1  0
  3  2  2  0
  4  2  1  0
  5  4  1  0
  5  6  1  0
  6  7  1  0
  8 10  1  0
  8  7  1  0
  8  9  1  1
 10 12  1  0
 11 10  2  0
 12 13  1  0
 13 14  1  6
 15 16  2  0
 15 14  1  0
 17 18  2  0
 17 13  1  0
 19 15  1  0
 21 20  1  6
 21 23  1  0
 22 21  1  0
 23 24  1  6
 24 17  1  0
 25 23  1  0
 25 27  1  0
 26 25  2  0
M  END
$$$$
