RDV.pdb
     RDKit          3D

 27 26  0  0  1  0  0  0  0  0999 V2000
   17.1557  -21.5212  -15.1104 N   0  0  0  0  0  0  0  0  0  0  0  0
   17.2934  -22.7553  -14.4345 C   0  0  0  0  0  0  0  0  0  0  0  0
   16.6675  -23.8386  -14.8072 N   0  0  0  0  0  0  0  0  0  0  0  0
   18.1296  -22.8601  -13.2721 N   0  0  0  0  0  0  0  0  0  0  0  0
   18.9243  -21.7486  -12.7903 C   0  0  0  0  0  0  0  0  0  0  0  0
   20.0894  -21.5378  -13.7613 C   0  0  0  0  0  0  0  0  0  0  0  0
   21.0437  -20.4894  -13.2952 C   0  0  0  0  0  0  0  0  0  0  0  0
   22.1476  -21.1108  -12.4560 C   0  0  2  0  0  0  0  0  0  0  0  0
   21.9948  -20.6994  -11.0912 N   0  0  0  0  0  0  0  0  0  0  0  0
   23.4242  -20.6842  -13.0572 C   0  0  0  0  0  0  0  0  0  0  0  0
   24.1419  -19.8975  -12.3328 O   0  0  0  0  0  0  0  0  0  0  0  0
   16.8340  -24.7028  -14.2020 N   0  0  0  0  0  0  0  0  0  0  0  0
   23.9652  -21.0138  -14.3129 C   0  0  2  0  0  0  0  0  0  0  0  0
   25.2977  -20.5624  -14.6956 C   0  0  0  0  0  0  0  0  0  0  0  0
   26.0557  -21.6990  -15.2871 C   0  0  0  0  0  0  0  0  0  0  0  0
   27.4630  -21.3828  -15.6656 O   0  0  0  0  0  0  0  0  0  0  0  0
   27.9830  -20.2659  -15.4497 C   0  0  0  0  0  0  0  0  0  0  0  0
   25.2516  -19.4399  -15.6682 O   0  0  0  0  0  0  0  0  0  0  0  0
   24.3571  -19.5250  -16.5442 O   0  0  0  0  0  0  0  0  0  0  0  0
   28.2666  -22.3629  -16.2953 C   0  0  0  0  0  0  0  0  0  0  0  0
   26.1599  -15.5918  -14.7429 C   0  0  2  0  0  0  0  0  0  0  0  0
   26.8202  -15.9976  -16.0599 C   0  0  0  0  0  0  0  0  0  0  0  0
   28.2932  -16.3279  -15.7901 C   0  0  2  0  0  0  0  0  0  0  0  0
   26.0854  -17.2114  -16.5723 N   0  0  0  0  0  0  0  0  0  0  0  0
   26.1169  -18.3372  -15.6611 C   0  0  0  0  0  0  0  0  0  0  0  0
   26.5660  -17.5534  -17.9048 O   0  0  0  0  0  0  0  0  0  0  0  0
   27.1740  -18.7052  -17.9875 O   0  0  0  0  0  0  0  0  0  0  0  0
  2  1  1  0
  3  2  2  0
  4  2  1  0
  5  4  1  0
  5  6  1  0
  6  7  1  0
  8 10  1  0
  8  7  1  0
  8  9  1  1
 10 12  1  0
 11 10  2  0
 12 13  1  0
 13 14  1  1
 15 16  2  0
 15 14  1  0
 17 18  2  0
 17 13  1  0
 19 15  1  0
 21 20  1  6
 21 23  1  0
 22 21  1  0
 23 24  1  6
 24 17  1  0
 25 23  1  0
 25 27  1  0
 26 25  2  0
M  END
$$$$
