RDV.pdb
     RDKit          3D

 27 26  0  0  1  0  0  0  0  0999 V2000
   30.5995  -23.8901  -17.2165 N   0  0  0  0  0  0  0  0  0  0  0  0
   30.7769  -23.5454  -18.5762 C   0  0  0  0  0  0  0  0  0  0  0  0
   31.1016  -24.4194  -19.4900 N   0  0  0  0  0  0  0  0  0  0  0  0
   30.6244  -22.1849  -19.0088 N   0  0  0  0  0  0  0  0  0  0  0  0
   30.1860  -21.1345  -18.1124 C   0  0  0  0  0  0  0  0  0  0  0  0
   28.6594  -21.0449  -18.1918 C   0  0  0  0  0  0  0  0  0  0  0  0
   28.0656  -20.3138  -17.0341 C   0  0  0  0  0  0  0  0  0  0  0  0
   27.9448  -21.2333  -15.8303 C   0  0  2  0  0  0  0  0  0  0  0  0
   27.7256  -22.5769  -16.2797 N   0  0  0  0  0  0  0  0  0  0  0  0
   26.8436  -20.7042  -15.0054 C   0  0  0  0  0  0  0  0  0  0  0  0
   27.0422  -19.5364  -14.4998 O   0  0  0  0  0  0  0  0  0  0  0  0
   31.2968  -24.0236  -20.4627 N   0  0  0  0  0  0  0  0  0  0  0  0
   25.6085  -21.2989  -14.6908 C   0  0  1  0  0  0  0  0  0  0  0  0
   24.7005  -20.6772  -13.7343 C   0  0  0  0  0  0  0  0  0  0  0  0
   23.2986  -20.8251  -14.2128 C   0  0  0  0  0  0  0  0  0  0  0  0
   22.2631  -20.2632  -13.2986 O   0  0  0  0  0  0  0  0  0  0  0  0
   22.5459  -19.4950  -12.3530 C   0  0  0  0  0  0  0  0  0  0  0  0
   24.8243  -21.2695  -12.3771 O   0  0  0  0  0  0  0  0  0  0  0  0
   24.7149  -22.5185  -12.3244 O   0  0  0  0  0  0  0  0  0  0  0  0
   20.8992  -20.5936  -13.4817 C   0  0  0  0  0  0  0  0  0  0  0  0
   27.5033  -20.5951   -9.7418 C   0  0  2  0  0  0  0  0  0  0  0  0
   26.1764  -20.4351   -9.0011 C   0  0  0  0  0  0  0  0  0  0  0  0
   25.8979  -18.9393   -8.8087 C   0  0  2  0  0  0  0  0  0  0  0  0
   25.1085  -21.0719   -9.8555 N   0  0  0  0  0  0  0  0  0  0  0  0
   25.0472  -20.5397  -11.2014 C   0  0  0  0  0  0  0  0  0  0  0  0
   23.8250  -21.0113   -9.1681 O   0  0  0  0  0  0  0  0  0  0  0  0
   23.7987  -21.6054   -8.0065 O   0  0  0  0  0  0  0  0  0  0  0  0
  2  1  1  0
  3  2  2  0
  4  2  1  0
  5  4  1  0
  5  6  1  0
  6  7  1  0
  8 10  1  0
  8  7  1  0
  8  9  1  6
 10 12  1  0
 11 10  2  0
 12 13  1  0
 13 14  1  1
 15 16  2  0
 15 14  1  0
 17 18  2  0
 17 13  1  0
 19 15  1  0
 21 20  1  1
 21 23  1  0
 22 21  1  0
 23 24  1  1
 24 17  1  0
 25 23  1  0
 25 27  1  0
 26 25  2  0
M  END
$$$$
