RDV.pdb
     RDKit          3D

 27 26  0  0  1  0  0  0  0  0999 V2000
   10.2662  -12.4777  -14.9025 N   0  0  0  0  0  0  0  0  0  0  0  0
   11.1698  -13.5539  -15.0581 C   0  0  0  0  0  0  0  0  0  0  0  0
   10.7952  -14.8036  -15.0097 N   0  0  0  0  0  0  0  0  0  0  0  0
   12.5699  -13.3066  -15.2578 N   0  0  0  0  0  0  0  0  0  0  0  0
   13.0672  -12.0374  -15.7485 C   0  0  0  0  0  0  0  0  0  0  0  0
   14.5751  -12.1718  -15.9789 C   0  0  0  0  0  0  0  0  0  0  0  0
   15.2066  -10.8913  -16.4131 C   0  0  0  0  0  0  0  0  0  0  0  0
   15.8501  -11.0528  -17.7802 C   0  0  2  0  0  0  0  0  0  0  0  0
   15.9684  -12.4483  -18.0870 N   0  0  0  0  0  0  0  0  0  0  0  0
   17.1467  -10.3540  -17.7203 C   0  0  0  0  0  0  0  0  0  0  0  0
   18.1787  -11.1124  -17.5834 O   0  0  0  0  0  0  0  0  0  0  0  0
   11.5689  -15.5262  -15.1515 N   0  0  0  0  0  0  0  0  0  0  0  0
   17.4129   -8.9746  -17.7882 C   0  0  1  0  0  0  0  0  0  0  0  0
   18.7807   -8.4728  -17.7333 C   0  0  0  0  0  0  0  0  0  0  0  0
   18.8028   -7.0457  -18.1568 C   0  0  0  0  0  0  0  0  0  0  0  0
   20.1643   -6.4484  -18.2718 O   0  0  0  0  0  0  0  0  0  0  0  0
   21.2087   -7.1224  -18.1321 C   0  0  0  0  0  0  0  0  0  0  0  0
   19.3683   -8.5937  -16.3739 O   0  0  0  0  0  0  0  0  0  0  0  0
   18.6000   -8.2932  -15.4282 O   0  0  0  0  0  0  0  0  0  0  0  0
   20.3137   -5.0685  -18.5483 C   0  0  0  0  0  0  0  0  0  0  0  0
   23.5635   -9.5512  -15.5631 C   0  0  2  0  0  0  0  0  0  0  0  0
   22.4131  -10.1682  -14.7689 C   0  0  0  0  0  0  0  0  0  0  0  0
   22.8864  -10.4189  -13.3320 C   0  0  1  0  0  0  0  0  0  0  0  0
   21.2741   -9.1792  -14.7916 N   0  0  0  0  0  0  0  0  0  0  0  0
   20.6793   -9.0078  -16.1013 C   0  0  0  0  0  0  0  0  0  0  0  0
   21.7032   -7.9185  -14.1999 O   0  0  0  0  0  0  0  0  0  0  0  0
   21.9289   -7.9665  -12.9154 O   0  0  0  0  0  0  0  0  0  0  0  0
  2  1  1  0
  3  2  2  0
  4  2  1  0
  5  4  1  0
  5  6  1  0
  6  7  1  0
  8 10  1  0
  8  7  1  0
  8  9  1  1
 10 12  1  0
 11 10  2  0
 12 13  1  0
 13 14  1  1
 15 16  2  0
 15 14  1  0
 17 18  2  0
 17 13  1  0
 19 15  1  0
 21 20  1  6
 21 23  1  0
 22 21  1  0
 23 24  1  6
 24 17  1  0
 25 23  1  0
 25 27  1  0
 26 25  2  0
M  END
$$$$
