RDV.pdb
     RDKit          3D

 27 26  0  0  1  0  0  0  0  0999 V2000
   27.9458  -31.6422  -12.2511 N   0  0  0  0  0  0  0  0  0  0  0  0
   26.8655  -32.3276  -12.8529 C   0  0  0  0  0  0  0  0  0  0  0  0
   26.8575  -32.6652  -14.1139 N   0  0  0  0  0  0  0  0  0  0  0  0
   25.6998  -32.6662  -12.0862 N   0  0  0  0  0  0  0  0  0  0  0  0
   25.7798  -33.0670  -10.6962 C   0  0  0  0  0  0  0  0  0  0  0  0
   24.9518  -34.3428  -10.5184 C   0  0  0  0  0  0  0  0  0  0  0  0
   24.9077  -34.8064   -9.1005 C   0  0  0  0  0  0  0  0  0  0  0  0
   26.1934  -35.5307   -8.7380 C   0  0  2  0  0  0  0  0  0  0  0  0
   26.1624  -36.8553   -9.2856 N   0  0  0  0  0  0  0  0  0  0  0  0
   26.2897  -35.5068   -7.2672 C   0  0  0  0  0  0  0  0  0  0  0  0
   25.5120  -36.3258   -6.6480 O   0  0  0  0  0  0  0  0  0  0  0  0
   25.9940  -33.1987  -14.4465 N   0  0  0  0  0  0  0  0  0  0  0  0
   27.1096  -34.7116   -6.4465 C   0  0  1  0  0  0  0  0  0  0  0  0
   27.0553  -34.8306   -4.9944 C   0  0  0  0  0  0  0  0  0  0  0  0
   28.3311  -34.3355   -4.4081 C   0  0  0  0  0  0  0  0  0  0  0  0
   29.3986  -35.3676   -4.2710 O   0  0  0  0  0  0  0  0  0  0  0  0
   29.1612  -36.5939   -4.3372 C   0  0  0  0  0  0  0  0  0  0  0  0
   25.9173  -34.0733   -4.4118 O   0  0  0  0  0  0  0  0  0  0  0  0
   25.8144  -32.8818   -4.7922 O   0  0  0  0  0  0  0  0  0  0  0  0
   30.7416  -34.9764   -4.0563 C   0  0  0  0  0  0  0  0  0  0  0  0
   21.5872  -33.6556   -2.1744 C   0  0  2  0  0  0  0  0  0  0  0  0
   22.6014  -34.5754   -2.8527 C   0  0  0  0  0  0  0  0  0  0  0  0
   22.1448  -34.8330   -4.2938 C   0  0  1  0  0  0  0  0  0  0  0  0
   23.9320  -33.8646   -2.8327 N   0  0  0  0  0  0  0  0  0  0  0  0
   24.9911  -34.5952   -3.4985 C   0  0  0  0  0  0  0  0  0  0  0  0
   24.2756  -33.4987   -1.4647 O   0  0  0  0  0  0  0  0  0  0  0  0
   25.2321  -34.2095   -0.9328 O   0  0  0  0  0  0  0  0  0  0  0  0
  2  1  1  0
  3  2  2  0
  4  2  1  0
  5  4  1  0
  5  6  1  0
  6  7  1  0
  8 10  1  0
  8  7  1  0
  8  9  1  1
 10 12  1  0
 11 10  2  0
 12 13  1  0
 13 14  1  6
 15 16  2  0
 15 14  1  0
 17 18  2  0
 17 13  1  0
 19 15  1  0
 21 20  1  1
 21 23  1  0
 22 21  1  0
 23 24  1  1
 24 17  1  0
 25 23  1  0
 25 27  1  0
 26 25  2  0
M  END
$$$$
