RDV.pdb
     RDKit          3D

 27 26  0  0  1  0  0  0  0  0999 V2000
   28.3662  -21.4594  -14.1139 N   0  0  0  0  0  0  0  0  0  0  0  0
   28.2248  -20.8120  -15.3628 C   0  0  0  0  0  0  0  0  0  0  0  0
   29.0209  -21.0415  -16.3717 N   0  0  0  0  0  0  0  0  0  0  0  0
   27.1893  -19.8384  -15.5656 N   0  0  0  0  0  0  0  0  0  0  0  0
   25.8420  -20.0296  -15.0683 C   0  0  0  0  0  0  0  0  0  0  0  0
   25.0321  -20.7528  -16.1480 C   0  0  0  0  0  0  0  0  0  0  0  0
   23.6019  -20.9397  -15.7652 C   0  0  0  0  0  0  0  0  0  0  0  0
   23.4201  -22.2457  -15.0101 C   0  0  2  0  0  0  0  0  0  0  0  0
   23.8760  -23.3329  -15.8259 N   0  0  0  0  0  0  0  0  0  0  0  0
   21.9907  -22.3345  -14.6607 C   0  0  0  0  0  0  0  0  0  0  0  0
   21.1815  -22.4270  -15.6585 O   0  0  0  0  0  0  0  0  0  0  0  0
   28.8513  -20.4460  -17.2420 N   0  0  0  0  0  0  0  0  0  0  0  0
   21.3879  -22.3285  -13.3900 C   0  0  1  0  0  0  0  0  0  0  0  0
   19.9431  -22.4613  -13.2463 C   0  0  0  0  0  0  0  0  0  0  0  0
   19.6140  -22.8000  -11.8345 C   0  0  0  0  0  0  0  0  0  0  0  0
   18.1701  -23.0681  -11.5757 O   0  0  0  0  0  0  0  0  0  0  0  0
   17.2969  -22.9657  -12.4654 C   0  0  0  0  0  0  0  0  0  0  0  0
   19.2244  -21.2209  -13.6371 O   0  0  0  0  0  0  0  0  0  0  0  0
   19.5690  -20.1838  -13.0202 O   0  0  0  0  0  0  0  0  0  0  0  0
   17.7396  -23.4545  -10.2841 C   0  0  0  0  0  0  0  0  0  0  0  0
   18.9071  -19.4819  -16.9543 C   0  0  2  0  0  0  0  0  0  0  0  0
   17.4689  -19.7453  -16.5103 C   0  0  0  0  0  0  0  0  0  0  0  0
   16.9525  -20.9957  -17.2326 C   0  0  2  0  0  0  0  0  0  0  0  0
   17.4952  -19.9630  -15.0177 N   0  0  0  0  0  0  0  0  0  0  0  0
   18.2241  -21.1488  -14.6162 C   0  0  0  0  0  0  0  0  0  0  0  0
   16.1370  -19.9327  -14.4905 O   0  0  0  0  0  0  0  0  0  0  0  0
   15.5024  -18.8082  -14.6795 O   0  0  0  0  0  0  0  0  0  0  0  0
  2  1  1  0
  3  2  2  0
  4  2  1  0
  5  4  1  0
  5  6  1  0
  6  7  1  0
  8 10  1  0
  8  7  1  0
  8  9  1  6
 10 12  1  0
 11 10  2  0
 12 13  1  0
 13 14  1  1
 15 16  2  0
 15 14  1  0
 17 18  2  0
 17 13  1  0
 19 15  1  0
 21 20  1  6
 21 23  1  0
 22 21  1  0
 23 24  1  1
 24 17  1  0
 25 23  1  0
 25 27  1  0
 26 25  2  0
M  END
$$$$
