FMQ.pdb
     RDKit          3D

 29 29  0  0  1  0  0  0  0  0999 V2000
    6.2392  -19.6864   21.9097 N   0  0  0  0  0  0  0  0  0  0  0  0
    6.1402  -18.8199   23.0811 C   0  0  1  0  0  0  0  0  0  0  0  0
    6.3520  -19.7142   24.2893 C   0  0  0  0  0  0  0  0  0  0  0  0
    5.3228  -20.7901   24.1886 C   0  0  0  0  0  0  0  0  0  0  0  0
    3.9850  -20.4803   24.0377 C   0  0  0  0  0  0  0  0  0  0  0  0
    3.0215  -21.4735   23.9434 C   0  0  0  0  0  0  0  0  0  0  0  0
    3.3593  -22.8096   23.9963 C   0  0  0  0  0  0  0  0  0  0  0  0
    4.6915  -23.1183   24.1465 C   0  0  0  0  0  0  0  0  0  0  0  0
    5.6523  -22.1365   24.2407 C   0  0  0  0  0  0  0  0  0  0  0  0
    7.1232  -17.7295   22.9931 C   0  0  0  0  0  0  0  0  0  0  0  0
    8.2097  -17.9150   22.3984 O   0  0  0  0  0  0  0  0  0  0  0  0
    6.1745  -12.4572   27.5644 C   0  0  0  0  0  0  0  0  0  0  0  0
    7.0494  -12.6217   26.0047 S   0  0  0  0  0  0  0  0  0  0  0  0
    6.4611  -14.0013   25.0089 C   0  0  0  0  0  0  0  0  0  0  0  0
    7.1216  -14.1076   23.6832 C   0  0  0  0  0  0  0  0  0  0  0  0
    7.8780  -15.3747   23.4149 C   0  0  2  0  0  0  0  0  0  0  0  0
    6.8835  -16.4680   23.5607 N   0  0  0  0  0  0  0  0  0  0  0  0
    8.9510  -15.6735   24.3846 C   0  0  0  0  0  0  0  0  0  0  0  0
    8.6749  -16.2010   25.5223 O   0  0  0  0  0  0  0  0  0  0  0  0
   12.3310  -21.1458   23.7419 N   0  0  0  0  0  0  0  0  0  0  0  0
   11.4764  -20.0220   23.6776 C   0  0  0  0  0  0  0  0  0  0  0  0
   10.2463  -20.1123   23.8705 O   0  0  0  0  0  0  0  0  0  0  0  0
   12.0790  -18.6886   23.3677 C   0  0  0  0  0  0  0  0  0  0  0  0
   10.9988  -17.6389   23.3741 C   0  0  0  0  0  0  0  0  0  0  0  0
   11.3374  -16.5102   24.2846 C   0  0  2  0  0  0  0  0  0  0  0  0
   10.3312  -15.4341   24.1934 N   0  0  0  0  0  0  0  0  0  0  0  0
   12.6486  -15.8829   24.0613 C   0  0  0  0  0  0  0  0  0  0  0  0
   12.7472  -14.7519   23.4716 O   0  0  0  0  0  0  0  0  0  0  0  0
   13.8580  -16.4294   24.4521 O   0  0  0  0  0  0  0  0  0  0  0  0
  2  1  1  6
  3  4  1  0
  3  2  1  0
  4  5  2  0
  5  6  1  0
  7  6  2  0
  8  7  1  0
  9  8  2  0
  9  4  1  0
 10  2  1  0
 10 11  2  0
 12 13  1  0
 13 14  1  0
 16 15  1  1
 15 14  1  0
 16 17  1  0
 17 10  1  0
 18 16  1  0
 19 18  2  0
 20 21  1  0
 21 22  2  0
 23 21  1  0
 23 24  1  0
 25 24  1  6
 25 27  1  0
 25 26  1  0
 26 18  1  0
 27 29  1  0
 28 27  2  0
M  END
$$$$
