FMQ.pdb
     RDKit          3D

 29 29  0  0  1  0  0  0  0  0999 V2000
    6.0371  -18.0183   25.9745 N   0  0  0  0  0  0  0  0  0  0  0  0
    6.6391  -16.7812   25.4848 C   0  0  1  0  0  0  0  0  0  0  0  0
    7.4684  -16.2305   26.6307 C   0  0  0  0  0  0  0  0  0  0  0  0
    7.2530  -14.7539   26.6202 C   0  0  0  0  0  0  0  0  0  0  0  0
    5.9867  -14.2206   26.7641 C   0  0  0  0  0  0  0  0  0  0  0  0
    5.7770  -12.8496   26.7555 C   0  0  0  0  0  0  0  0  0  0  0  0
    6.8228  -11.9636   26.6032 C   0  0  0  0  0  0  0  0  0  0  0  0
    8.0839  -12.4945   26.4599 C   0  0  0  0  0  0  0  0  0  0  0  0
    8.2981  -13.8546   26.4677 C   0  0  0  0  0  0  0  0  0  0  0  0
    7.4327  -17.0446   24.2749 C   0  0  0  0  0  0  0  0  0  0  0  0
    7.9958  -18.1534   24.1269 O   0  0  0  0  0  0  0  0  0  0  0  0
    7.9797  -11.2416   20.0729 C   0  0  0  0  0  0  0  0  0  0  0  0
    7.4290  -12.9426   19.9040 S   0  0  0  0  0  0  0  0  0  0  0  0
    8.1215  -14.0350   21.1564 C   0  0  0  0  0  0  0  0  0  0  0  0
    7.7519  -15.4620   20.9769 C   0  0  0  0  0  0  0  0  0  0  0  0
    8.2842  -16.4222   21.9989 C   0  0  2  0  0  0  0  0  0  0  0  0
    7.5840  -16.0824   23.2638 N   0  0  0  0  0  0  0  0  0  0  0  0
    9.7261  -16.2851   22.2867 C   0  0  0  0  0  0  0  0  0  0  0  0
   10.1401  -15.4424   23.1626 O   0  0  0  0  0  0  0  0  0  0  0  0
   13.3934  -20.7402   23.1658 N   0  0  0  0  0  0  0  0  0  0  0  0
   13.2932  -19.8297   24.2419 C   0  0  0  0  0  0  0  0  0  0  0  0
   13.5252  -20.1682   25.4210 O   0  0  0  0  0  0  0  0  0  0  0  0
   12.8956  -18.4190   23.9437 C   0  0  0  0  0  0  0  0  0  0  0  0
   12.7300  -18.2508   22.4560 C   0  0  0  0  0  0  0  0  0  0  0  0
   12.1718  -16.9131   22.1149 C   0  0  2  0  0  0  0  0  0  0  0  0
   10.7670  -17.0203   21.6745 N   0  0  0  0  0  0  0  0  0  0  0  0
   12.8883  -16.1724   21.0658 C   0  0  0  0  0  0  0  0  0  0  0  0
   12.4392  -16.1230   19.8689 O   0  0  0  0  0  0  0  0  0  0  0  0
   14.0709  -15.4812   21.2599 O   0  0  0  0  0  0  0  0  0  0  0  0
  2  1  1  1
  3  4  1  0
  3  2  1  0
  4  5  2  0
  5  6  1  0
  7  6  2  0
  8  7  1  0
  9  8  2  0
  9  4  1  0
 10  2  1  0
 10 11  2  0
 12 13  1  0
 13 14  1  0
 16 15  1  6
 15 14  1  0
 16 17  1  0
 17 10  1  0
 18 16  1  0
 19 18  2  0
 20 21  1  0
 21 22  2  0
 23 21  1  0
 23 24  1  0
 25 24  1  6
 25 27  1  0
 25 26  1  0
 26 18  1  0
 27 29  1  0
 28 27  2  0
M  END
$$$$
