FMQ.pdb
     RDKit          3D

 29 29  0  0  1  0  0  0  0  0999 V2000
    5.8804  -17.8516   25.1510 N   0  0  0  0  0  0  0  0  0  0  0  0
    6.4528  -16.5083   25.1332 C   0  0  1  0  0  0  0  0  0  0  0  0
    6.8682  -16.2052   26.5614 C   0  0  0  0  0  0  0  0  0  0  0  0
    7.0359  -14.7242   26.6343 C   0  0  0  0  0  0  0  0  0  0  0  0
    8.2926  -14.1552   26.7083 C   0  0  0  0  0  0  0  0  0  0  0  0
    8.4581  -12.7799   26.7764 C   0  0  0  0  0  0  0  0  0  0  0  0
    7.3760  -11.9249   26.7729 C   0  0  0  0  0  0  0  0  0  0  0  0
    6.1244  -12.4913   26.6991 C   0  0  0  0  0  0  0  0  0  0  0  0
    5.9541  -13.8559   26.6313 C   0  0  0  0  0  0  0  0  0  0  0  0
    7.5730  -16.4441   24.1823 C   0  0  0  0  0  0  0  0  0  0  0  0
    8.3163  -17.4398   24.0253 O   0  0  0  0  0  0  0  0  0  0  0  0
    6.0807  -12.3860   18.8473 C   0  0  0  0  0  0  0  0  0  0  0  0
    7.6789  -12.7318   19.5900 S   0  0  0  0  0  0  0  0  0  0  0  0
    7.5538  -13.6342   21.1427 C   0  0  0  0  0  0  0  0  0  0  0  0
    8.8671  -13.9436   21.7631 C   0  0  0  0  0  0  0  0  0  0  0  0
    8.9757  -15.2609   22.4720 C   0  0  2  0  0  0  0  0  0  0  0  0
    7.8431  -15.2884   23.4323 N   0  0  0  0  0  0  0  0  0  0  0  0
   10.1975  -15.4289   23.2844 C   0  0  0  0  0  0  0  0  0  0  0  0
   10.4181  -14.6705   24.2968 O   0  0  0  0  0  0  0  0  0  0  0  0
   11.5744  -20.2173   25.3246 N   0  0  0  0  0  0  0  0  0  0  0  0
   11.2978  -19.1859   26.2503 C   0  0  0  0  0  0  0  0  0  0  0  0
   10.6970  -19.4013   27.3234 O   0  0  0  0  0  0  0  0  0  0  0  0
   11.7450  -17.7973   25.9207 C   0  0  0  0  0  0  0  0  0  0  0  0
   12.4761  -17.8076   24.6039 C   0  0  0  0  0  0  0  0  0  0  0  0
   12.4068  -16.4821   23.9286 C   0  0  2  0  0  0  0  0  0  0  0  0
   11.2132  -16.3877   23.0653 N   0  0  0  0  0  0  0  0  0  0  0  0
   13.5634  -16.1328   23.0903 C   0  0  0  0  0  0  0  0  0  0  0  0
   14.6884  -15.8223   23.6143 O   0  0  0  0  0  0  0  0  0  0  0  0
   13.5524  -16.1074   21.7071 O   0  0  0  0  0  0  0  0  0  0  0  0
  2  1  1  1
  3  4  1  0
  3  2  1  0
  4  5  2  0
  5  6  1  0
  7  6  2  0
  8  7  1  0
  9  8  2  0
  9  4  1  0
 10  2  1  0
 10 11  2  0
 12 13  1  0
 13 14  1  0
 16 15  1  1
 15 14  1  0
 16 17  1  0
 17 10  1  0
 18 16  1  0
 19 18  2  0
 20 21  1  0
 21 22  2  0
 23 21  1  0
 23 24  1  0
 25 24  1  6
 25 27  1  0
 25 26  1  0
 26 18  1  0
 27 29  1  0
 28 27  2  0
M  END
$$$$
