FMQ.pdb
     RDKit          3D

 29 29  0  0  1  0  0  0  0  0999 V2000
    9.2123  -17.3091   26.5563 N   0  0  0  0  0  0  0  0  0  0  0  0
    7.8400  -17.3072   26.0568 C   0  0  1  0  0  0  0  0  0  0  0  0
    7.1292  -16.1738   26.7740 C   0  0  0  0  0  0  0  0  0  0  0  0
    8.2020  -15.2494   27.2444 C   0  0  0  0  0  0  0  0  0  0  0  0
    9.1017  -15.6427   28.2163 C   0  0  0  0  0  0  0  0  0  0  0  0
   10.1019  -14.7903   28.6597 C   0  0  0  0  0  0  0  0  0  0  0  0
   10.2392  -13.5166   28.1490 C   0  0  0  0  0  0  0  0  0  0  0  0
    9.3434  -13.1247   27.1811 C   0  0  0  0  0  0  0  0  0  0  0  0
    8.3485  -13.9666   26.7372 C   0  0  0  0  0  0  0  0  0  0  0  0
    7.8304  -17.1578   24.5936 C   0  0  0  0  0  0  0  0  0  0  0  0
    7.5681  -18.1438   23.8673 O   0  0  0  0  0  0  0  0  0  0  0  0
    7.4052  -11.6822   18.8479 C   0  0  0  0  0  0  0  0  0  0  0  0
    7.6283  -12.1454   20.5686 S   0  0  0  0  0  0  0  0  0  0  0  0
    7.7612  -13.9248   20.8078 C   0  0  0  0  0  0  0  0  0  0  0  0
    7.9116  -14.3285   22.2289 C   0  0  0  0  0  0  0  0  0  0  0  0
    8.0350  -15.7995   22.4946 C   0  0  2  0  0  0  0  0  0  0  0  0
    8.1090  -15.9301   23.9722 N   0  0  0  0  0  0  0  0  0  0  0  0
    9.2678  -16.4227   21.9724 C   0  0  0  0  0  0  0  0  0  0  0  0
    9.3041  -16.9002   20.7810 O   0  0  0  0  0  0  0  0  0  0  0  0
   12.8028  -15.7933   18.1607 N   0  0  0  0  0  0  0  0  0  0  0  0
   13.5254  -15.1704   19.2033 C   0  0  0  0  0  0  0  0  0  0  0  0
   14.1487  -14.1022   19.0322 O   0  0  0  0  0  0  0  0  0  0  0  0
   13.5348  -15.8229   20.5491 C   0  0  0  0  0  0  0  0  0  0  0  0
   12.2047  -15.6018   21.2204 C   0  0  0  0  0  0  0  0  0  0  0  0
   11.7696  -16.8045   21.9833 C   0  0  2  0  0  0  0  0  0  0  0  0
   10.4878  -16.5607   22.6734 N   0  0  0  0  0  0  0  0  0  0  0  0
   12.7130  -17.2883   23.0024 C   0  0  0  0  0  0  0  0  0  0  0  0
   12.3940  -17.3067   24.2411 O   0  0  0  0  0  0  0  0  0  0  0  0
   13.9878  -17.7547   22.7350 O   0  0  0  0  0  0  0  0  0  0  0  0
  2  1  1  1
  3  4  1  0
  3  2  1  0
  4  5  2  0
  5  6  1  0
  7  6  2  0
  8  7  1  0
  9  8  2  0
  9  4  1  0
 10  2  1  0
 10 11  2  0
 12 13  1  0
 13 14  1  0
 16 15  1  1
 15 14  1  0
 16 17  1  0
 17 10  1  0
 18 16  1  0
 19 18  2  0
 20 21  1  0
 21 22  2  0
 23 21  1  0
 23 24  1  0
 25 24  1  1
 25 27  1  0
 25 26  1  0
 26 18  1  0
 27 29  1  0
 28 27  2  0
M  END
$$$$
