FMQ.pdb
     RDKit          3D

 29 29  0  0  1  0  0  0  0  0999 V2000
    7.5584  -16.8714   21.7040 N   0  0  0  0  0  0  0  0  0  0  0  0
    9.0109  -16.7939   21.8332 C   0  0  1  0  0  0  0  0  0  0  0  0
    9.5109  -16.0897   20.5849 C   0  0  0  0  0  0  0  0  0  0  0  0
    8.6225  -14.9052   20.3987 C   0  0  0  0  0  0  0  0  0  0  0  0
    8.9460  -13.6817   20.9527 C   0  0  0  0  0  0  0  0  0  0  0  0
    8.1264  -12.5754   20.7849 C   0  0  0  0  0  0  0  0  0  0  0  0
    6.9563  -12.6515   20.0589 C   0  0  0  0  0  0  0  0  0  0  0  0
    6.6341  -13.8698   19.5071 C   0  0  0  0  0  0  0  0  0  0  0  0
    7.4439  -14.9714   19.6704 C   0  0  0  0  0  0  0  0  0  0  0  0
    9.3756  -16.0935   23.0741 C   0  0  0  0  0  0  0  0  0  0  0  0
   10.5721  -15.7963   23.2945 O   0  0  0  0  0  0  0  0  0  0  0  0
    5.5296  -11.3867   26.1000 C   0  0  0  0  0  0  0  0  0  0  0  0
    7.3157  -11.1999   26.1021 S   0  0  0  0  0  0  0  0  0  0  0  0
    8.1871  -12.7610   26.3138 C   0  0  0  0  0  0  0  0  0  0  0  0
    8.1136  -13.6533   25.1291 C   0  0  0  0  0  0  0  0  0  0  0  0
    8.8078  -14.9777   25.2478 C   0  0  2  0  0  0  0  0  0  0  0  0
    8.4153  -15.7405   24.0354 N   0  0  0  0  0  0  0  0  0  0  0  0
    8.3813  -15.8003   26.3976 C   0  0  0  0  0  0  0  0  0  0  0  0
    8.9492  -15.6682   27.5417 O   0  0  0  0  0  0  0  0  0  0  0  0
    6.1539  -20.4125   23.4970 N   0  0  0  0  0  0  0  0  0  0  0  0
    6.8317  -21.1662   24.4818 C   0  0  0  0  0  0  0  0  0  0  0  0
    6.7485  -22.4106   24.5385 O   0  0  0  0  0  0  0  0  0  0  0  0
    7.6719  -20.4363   25.4810 C   0  0  0  0  0  0  0  0  0  0  0  0
    7.5050  -18.9523   25.2847 C   0  0  0  0  0  0  0  0  0  0  0  0
    7.6334  -18.2119   26.5704 C   0  0  2  0  0  0  0  0  0  0  0  0
    7.3563  -16.7740   26.3853 N   0  0  0  0  0  0  0  0  0  0  0  0
    8.9427  -18.3082   27.2330 C   0  0  0  0  0  0  0  0  0  0  0  0
   10.0293  -18.2116   26.5647 O   0  0  0  0  0  0  0  0  0  0  0  0
    9.1240  -18.5033   28.5907 O   0  0  0  0  0  0  0  0  0  0  0  0
  2  1  1  6
  3  4  1  0
  3  2  1  0
  4  5  2  0
  5  6  1  0
  7  6  2  0
  8  7  1  0
  9  8  2  0
  9  4  1  0
 10  2  1  0
 10 11  2  0
 12 13  1  0
 13 14  1  0
 16 15  1  6
 15 14  1  0
 16 17  1  0
 17 10  1  0
 18 16  1  0
 19 18  2  0
 20 21  1  0
 21 22  2  0
 23 21  1  0
 23 24  1  0
 25 24  1  6
 25 27  1  0
 25 26  1  0
 26 18  1  0
 27 29  1  0
 28 27  2  0
M  END
$$$$
