FMQ.pdb
     RDKit          3D

 29 29  0  0  1  0  0  0  0  0999 V2000
    5.7969  -18.3133   25.4564 N   0  0  0  0  0  0  0  0  0  0  0  0
    6.3024  -16.9606   25.2393 C   0  0  1  0  0  0  0  0  0  0  0  0
    6.8303  -16.4847   26.5806 C   0  0  0  0  0  0  0  0  0  0  0  0
    6.9346  -14.9997   26.4768 C   0  0  0  0  0  0  0  0  0  0  0  0
    8.1665  -14.3778   26.4113 C   0  0  0  0  0  0  0  0  0  0  0  0
    8.2731  -12.9984   26.3147 C   0  0  0  0  0  0  0  0  0  0  0  0
    7.1549  -12.1919   26.2802 C   0  0  0  0  0  0  0  0  0  0  0  0
    5.9280  -12.8110   26.3454 C   0  0  0  0  0  0  0  0  0  0  0  0
    5.8162  -14.1800   26.4413 C   0  0  0  0  0  0  0  0  0  0  0  0
    7.3281  -16.9628   24.1853 C   0  0  0  0  0  0  0  0  0  0  0  0
    8.2106  -17.8513   24.1750 O   0  0  0  0  0  0  0  0  0  0  0  0
    8.0538  -10.8610   20.2115 C   0  0  0  0  0  0  0  0  0  0  0  0
    7.5599  -12.5723   19.9827 S   0  0  0  0  0  0  0  0  0  0  0  0
    8.1913  -13.6655   21.2662 C   0  0  0  0  0  0  0  0  0  0  0  0
    7.8834  -15.0999   21.0359 C   0  0  0  0  0  0  0  0  0  0  0  0
    8.3602  -16.0607   22.0844 C   0  0  2  0  0  0  0  0  0  0  0  0
    7.3537  -15.9891   23.1742 N   0  0  0  0  0  0  0  0  0  0  0  0
    9.6530  -15.7092   22.7056 C   0  0  0  0  0  0  0  0  0  0  0  0
    9.7074  -14.8526   23.6605 O   0  0  0  0  0  0  0  0  0  0  0  0
   12.2382  -17.3915   26.9659 N   0  0  0  0  0  0  0  0  0  0  0  0
   12.0671  -18.3638   25.9546 C   0  0  0  0  0  0  0  0  0  0  0  0
   11.9575  -19.5798   26.2154 O   0  0  0  0  0  0  0  0  0  0  0  0
   12.0174  -17.9068   24.5313 C   0  0  0  0  0  0  0  0  0  0  0  0
   12.0941  -16.4032   24.4868 C   0  0  0  0  0  0  0  0  0  0  0  0
   12.1478  -15.8988   23.0867 C   0  0  2  0  0  0  0  0  0  0  0  0
   10.9144  -16.2405   22.3514 N   0  0  0  0  0  0  0  0  0  0  0  0
   13.2727  -16.3883   22.2759 C   0  0  0  0  0  0  0  0  0  0  0  0
   14.4834  -16.1747   22.6297 O   0  0  0  0  0  0  0  0  0  0  0  0
   13.1406  -17.1013   21.0976 O   0  0  0  0  0  0  0  0  0  0  0  0
  2  1  1  1
  3  4  1  0
  3  2  1  0
  4  5  2  0
  5  6  1  0
  7  6  2  0
  8  7  1  0
  9  8  2  0
  9  4  1  0
 10  2  1  0
 10 11  2  0
 12 13  1  0
 13 14  1  0
 16 15  1  6
 15 14  1  0
 16 17  1  0
 17 10  1  0
 18 16  1  0
 19 18  2  0
 20 21  1  0
 21 22  2  0
 23 21  1  0
 23 24  1  0
 25 24  1  1
 25 27  1  0
 25 26  1  0
 26 18  1  0
 27 29  1  0
 28 27  2  0
M  END
$$$$
