FMQ.pdb
     RDKit          3D

 29 29  0  0  1  0  0  0  0  0999 V2000
    5.7505  -17.2309   25.2769 N   0  0  0  0  0  0  0  0  0  0  0  0
    6.5857  -16.1626   24.7348 C   0  0  1  0  0  0  0  0  0  0  0  0
    7.5365  -15.7612   25.8479 C   0  0  0  0  0  0  0  0  0  0  0  0
    7.2355  -14.3308   26.1484 C   0  0  0  0  0  0  0  0  0  0  0  0
    6.0417  -13.9662   26.7402 C   0  0  0  0  0  0  0  0  0  0  0  0
    5.7533  -12.6394   27.0231 C   0  0  0  0  0  0  0  0  0  0  0  0
    6.6457  -11.6309   26.7256 C   0  0  0  0  0  0  0  0  0  0  0  0
    7.8347  -11.9938   26.1362 C   0  0  0  0  0  0  0  0  0  0  0  0
    8.1263  -13.3093   25.8531 C   0  0  0  0  0  0  0  0  0  0  0  0
    7.2804  -16.6238   23.5232 C   0  0  0  0  0  0  0  0  0  0  0  0
    7.4557  -17.8491   23.3323 O   0  0  0  0  0  0  0  0  0  0  0  0
    8.2421  -10.9177   19.7023 C   0  0  0  0  0  0  0  0  0  0  0  0
    7.8197  -12.6129   19.2862 S   0  0  0  0  0  0  0  0  0  0  0  0
    8.2177  -13.7804   20.5976 C   0  0  0  0  0  0  0  0  0  0  0  0
    7.9296  -15.1946   20.2481 C   0  0  0  0  0  0  0  0  0  0  0  0
    8.3091  -16.2246   21.2704 C   0  0  2  0  0  0  0  0  0  0  0  0
    7.7615  -15.7254   22.5575 N   0  0  0  0  0  0  0  0  0  0  0  0
    9.7620  -16.3806   21.4836 C   0  0  0  0  0  0  0  0  0  0  0  0
   10.5001  -15.3582   21.7258 O   0  0  0  0  0  0  0  0  0  0  0  0
   10.6094  -18.7123   26.6452 N   0  0  0  0  0  0  0  0  0  0  0  0
   11.4199  -18.0597   25.6890 C   0  0  0  0  0  0  0  0  0  0  0  0
   12.2959  -17.2323   26.0159 O   0  0  0  0  0  0  0  0  0  0  0  0
   11.2104  -18.3804   24.2432 C   0  0  0  0  0  0  0  0  0  0  0  0
   11.9430  -17.3724   23.3970 C   0  0  0  0  0  0  0  0  0  0  0  0
   11.8635  -17.7118   21.9492 C   0  0  2  0  0  0  0  0  0  0  0  0
   10.4781  -17.5993   21.4526 N   0  0  0  0  0  0  0  0  0  0  0  0
   12.3361  -19.0553   21.5828 C   0  0  0  0  0  0  0  0  0  0  0  0
   13.5573  -19.3952   21.7555 O   0  0  0  0  0  0  0  0  0  0  0  0
   11.5399  -20.0470   21.0381 O   0  0  0  0  0  0  0  0  0  0  0  0
  2  1  1  1
  3  4  1  0
  3  2  1  0
  4  5  2  0
  5  6  1  0
  7  6  2  0
  8  7  1  0
  9  8  2  0
  9  4  1  0
 10  2  1  0
 10 11  2  0
 12 13  1  0
 13 14  1  0
 16 15  1  6
 15 14  1  0
 16 17  1  0
 17 10  1  0
 18 16  1  0
 19 18  2  0
 20 21  1  0
 21 22  2  0
 23 21  1  0
 23 24  1  0
 25 24  1  1
 25 27  1  0
 25 26  1  0
 26 18  1  0
 27 29  1  0
 28 27  2  0
M  END
$$$$
