FMQ.pdb
     RDKit          3D

 29 29  0  0  1  0  0  0  0  0999 V2000
    8.4904  -15.8559   20.7056 N   0  0  0  0  0  0  0  0  0  0  0  0
    9.3830  -15.0285   21.5127 C   0  0  1  0  0  0  0  0  0  0  0  0
    8.6260  -13.7449   21.8016 C   0  0  0  0  0  0  0  0  0  0  0  0
    8.0075  -13.3334   20.5074 C   0  0  0  0  0  0  0  0  0  0  0  0
    6.8084  -13.8776   20.0893 C   0  0  0  0  0  0  0  0  0  0  0  0
    6.2262  -13.5013   18.8881 C   0  0  0  0  0  0  0  0  0  0  0  0
    6.8197  -12.5694   18.0627 C   0  0  0  0  0  0  0  0  0  0  0  0
    8.0138  -12.0273   18.4788 C   0  0  0  0  0  0  0  0  0  0  0  0
    8.5964  -12.3971   19.6703 C   0  0  0  0  0  0  0  0  0  0  0  0
    9.7815  -15.7482   22.7319 C   0  0  0  0  0  0  0  0  0  0  0  0
   10.9548  -16.1693   22.8528 O   0  0  0  0  0  0  0  0  0  0  0  0
    6.4761  -11.9262   26.7573 C   0  0  0  0  0  0  0  0  0  0  0  0
    8.0063  -12.6332   27.3769 S   0  0  0  0  0  0  0  0  0  0  0  0
    8.1195  -14.4102   27.1117 C   0  0  0  0  0  0  0  0  0  0  0  0
    8.0742  -14.8063   25.6812 C   0  0  0  0  0  0  0  0  0  0  0  0
    9.2329  -15.6137   25.1759 C   0  0  2  0  0  0  0  0  0  0  0  0
    8.8796  -15.9837   23.7816 N   0  0  0  0  0  0  0  0  0  0  0  0
    9.4573  -16.8884   25.8870 C   0  0  0  0  0  0  0  0  0  0  0  0
    8.5170  -17.7575   25.9823 O   0  0  0  0  0  0  0  0  0  0  0  0
   12.3825  -22.9211   27.3464 N   0  0  0  0  0  0  0  0  0  0  0  0
   12.3361  -21.6327   26.7676 C   0  0  0  0  0  0  0  0  0  0  0  0
   12.2507  -21.4627   25.5337 O   0  0  0  0  0  0  0  0  0  0  0  0
   12.3918  -20.4445   27.6743 C   0  0  0  0  0  0  0  0  0  0  0  0
   12.1523  -19.1925   26.8718 C   0  0  0  0  0  0  0  0  0  0  0  0
   10.8132  -18.6068   27.1574 C   0  0  2  0  0  0  0  0  0  0  0  0
   10.6613  -17.2886   26.5108 N   0  0  0  0  0  0  0  0  0  0  0  0
   10.4898  -18.4197   28.5797 C   0  0  0  0  0  0  0  0  0  0  0  0
    9.8801  -19.3281   29.2428 O   0  0  0  0  0  0  0  0  0  0  0  0
   10.8010  -17.2895   29.3144 O   0  0  0  0  0  0  0  0  0  0  0  0
  2  1  1  6
  3  4  1  0
  3  2  1  0
  4  5  2  0
  5  6  1  0
  7  6  2  0
  8  7  1  0
  9  8  2  0
  9  4  1  0
 10  2  1  0
 10 11  2  0
 12 13  1  0
 13 14  1  0
 16 15  1  1
 15 14  1  0
 16 17  1  0
 17 10  1  0
 18 16  1  0
 19 18  2  0
 20 21  1  0
 21 22  2  0
 23 21  1  0
 23 24  1  0
 25 24  1  1
 25 27  1  0
 25 26  1  0
 26 18  1  0
 27 29  1  0
 28 27  2  0
M  END
$$$$
