FMQ.pdb
     RDKit          3D

 29 29  0  0  1  0  0  0  0  0999 V2000
    6.1880  -18.1188   25.8435 N   0  0  0  0  0  0  0  0  0  0  0  0
    6.5255  -16.7365   25.5150 C   0  0  1  0  0  0  0  0  0  0  0  0
    7.1658  -16.1490   26.7596 C   0  0  0  0  0  0  0  0  0  0  0  0
    6.8557  -14.6896   26.7305 C   0  0  0  0  0  0  0  0  0  0  0  0
    5.5654  -14.2425   26.5207 C   0  0  0  0  0  0  0  0  0  0  0  0
    5.2678  -12.8882   26.4919 C   0  0  0  0  0  0  0  0  0  0  0  0
    6.2466  -11.9334   26.6714 C   0  0  0  0  0  0  0  0  0  0  0  0
    7.5316  -12.3784   26.8804 C   0  0  0  0  0  0  0  0  0  0  0  0
    7.8329  -13.7216   26.9099 C   0  0  0  0  0  0  0  0  0  0  0  0
    7.4077  -16.6928   24.3389 C   0  0  0  0  0  0  0  0  0  0  0  0
    8.2054  -17.6335   24.1217 O   0  0  0  0  0  0  0  0  0  0  0  0
    7.2641  -11.5222   20.2861 C   0  0  0  0  0  0  0  0  0  0  0  0
    7.8070  -12.8254   19.1761 S   0  0  0  0  0  0  0  0  0  0  0  0
    8.3446  -14.3096   20.0416 C   0  0  0  0  0  0  0  0  0  0  0  0
    7.7727  -14.4482   21.4051 C   0  0  0  0  0  0  0  0  0  0  0  0
    8.1430  -15.6901   22.1603 C   0  0  2  0  0  0  0  0  0  0  0  0
    7.3870  -15.6174   23.4366 N   0  0  0  0  0  0  0  0  0  0  0  0
    9.5671  -15.7836   22.5397 C   0  0  0  0  0  0  0  0  0  0  0  0
   10.0317  -15.0834   23.5106 O   0  0  0  0  0  0  0  0  0  0  0  0
   15.0329  -20.0994   24.3720 N   0  0  0  0  0  0  0  0  0  0  0  0
   13.7811  -19.7388   23.8242 C   0  0  0  0  0  0  0  0  0  0  0  0
   12.8541  -20.5640   23.6882 O   0  0  0  0  0  0  0  0  0  0  0  0
   13.5746  -18.3200   23.3983 C   0  0  0  0  0  0  0  0  0  0  0  0
   12.1679  -18.1519   22.8867 C   0  0  0  0  0  0  0  0  0  0  0  0
   11.9047  -16.7501   22.4585 C   0  0  2  0  0  0  0  0  0  0  0  0
   10.5369  -16.6065   21.9224 N   0  0  0  0  0  0  0  0  0  0  0  0
   12.8173  -16.2137   21.4378 C   0  0  0  0  0  0  0  0  0  0  0  0
   14.0318  -15.9294   21.7222 O   0  0  0  0  0  0  0  0  0  0  0  0
   12.4692  -15.9738   20.1204 O   0  0  0  0  0  0  0  0  0  0  0  0
  2  1  1  1
  3  4  1  0
  3  2  1  0
  4  5  2  0
  5  6  1  0
  7  6  2  0
  8  7  1  0
  9  8  2  0
  9  4  1  0
 10  2  1  0
 10 11  2  0
 12 13  1  0
 13 14  1  0
 16 15  1  6
 15 14  1  0
 16 17  1  0
 17 10  1  0
 18 16  1  0
 19 18  2  0
 20 21  1  0
 21 22  2  0
 23 21  1  0
 23 24  1  0
 25 24  1  6
 25 27  1  0
 25 26  1  0
 26 18  1  0
 27 29  1  0
 28 27  2  0
M  END
$$$$
