FMQ.pdb
     RDKit          3D

 29 29  0  0  1  0  0  0  0  0999 V2000
   10.5653  -17.2779   20.4633 N   0  0  0  0  0  0  0  0  0  0  0  0
    9.9076  -16.3235   21.3516 C   0  0  1  0  0  0  0  0  0  0  0  0
    8.4273  -16.3873   21.0215 C   0  0  0  0  0  0  0  0  0  0  0  0
    7.9774  -14.9716   20.8799 C   0  0  0  0  0  0  0  0  0  0  0  0
    7.5747  -14.2415   21.9815 C   0  0  0  0  0  0  0  0  0  0  0  0
    7.1549  -12.9253   21.8595 C   0  0  0  0  0  0  0  0  0  0  0  0
    7.1223  -12.2921   20.6348 C   0  0  0  0  0  0  0  0  0  0  0  0
    7.5233  -13.0189   19.5376 C   0  0  0  0  0  0  0  0  0  0  0  0
    7.9410  -14.3258   19.6528 C   0  0  0  0  0  0  0  0  0  0  0  0
   10.1985  -16.6502   22.7559 C   0  0  0  0  0  0  0  0  0  0  0  0
   10.8649  -17.6736   23.0335 O   0  0  0  0  0  0  0  0  0  0  0  0
   10.1946  -13.1818   29.9380 C   0  0  0  0  0  0  0  0  0  0  0  0
    9.6299  -13.2808   28.2361 S   0  0  0  0  0  0  0  0  0  0  0  0
   10.2120  -14.7567   27.3852 C   0  0  0  0  0  0  0  0  0  0  0  0
    9.8203  -14.8167   25.9541 C   0  0  0  0  0  0  0  0  0  0  0  0
   10.3235  -15.9948   25.1740 C   0  0  2  0  0  0  0  0  0  0  0  0
    9.7488  -15.8431   23.8130 N   0  0  0  0  0  0  0  0  0  0  0  0
    9.8579  -17.3077   25.6644 C   0  0  0  0  0  0  0  0  0  0  0  0
    8.8566  -17.8931   25.1136 O   0  0  0  0  0  0  0  0  0  0  0  0
   10.8717  -21.0822   22.9117 N   0  0  0  0  0  0  0  0  0  0  0  0
   10.9705  -21.8437   24.0981 C   0  0  0  0  0  0  0  0  0  0  0  0
   10.4438  -22.9702   24.2090 O   0  0  0  0  0  0  0  0  0  0  0  0
   11.7335  -21.2691   25.2492 C   0  0  0  0  0  0  0  0  0  0  0  0
   11.4305  -19.7982   25.3644 C   0  0  0  0  0  0  0  0  0  0  0  0
   10.7136  -19.4843   26.6314 C   0  0  2  0  0  0  0  0  0  0  0  0
   10.4224  -18.0409   26.7334 N   0  0  0  0  0  0  0  0  0  0  0  0
   11.4116  -19.8632   27.8691 C   0  0  0  0  0  0  0  0  0  0  0  0
   12.2909  -19.0953   28.3923 O   0  0  0  0  0  0  0  0  0  0  0  0
   11.1953  -21.0393   28.5648 O   0  0  0  0  0  0  0  0  0  0  0  0
  2  1  1  6
  3  4  1  0
  3  2  1  0
  4  5  2  0
  5  6  1  0
  7  6  2  0
  8  7  1  0
  9  8  2  0
  9  4  1  0
 10  2  1  0
 10 11  2  0
 12 13  1  0
 13 14  1  0
 16 15  1  1
 15 14  1  0
 16 17  1  0
 17 10  1  0
 18 16  1  0
 19 18  2  0
 20 21  1  0
 21 22  2  0
 23 21  1  0
 23 24  1  0
 25 24  1  6
 25 27  1  0
 25 26  1  0
 26 18  1  0
 27 29  1  0
 28 27  2  0
M  END
$$$$
