FMQ.pdb
     RDKit          3D

 29 29  0  0  1  0  0  0  0  0999 V2000
    5.5402  -17.1744   24.9169 N   0  0  0  0  0  0  0  0  0  0  0  0
    6.6512  -16.2483   24.7150 C   0  0  1  0  0  0  0  0  0  0  0  0
    7.0391  -15.7442   26.0933 C   0  0  0  0  0  0  0  0  0  0  0  0
    6.8116  -14.2696   26.0696 C   0  0  0  0  0  0  0  0  0  0  0  0
    5.5562  -13.7415   26.3012 C   0  0  0  0  0  0  0  0  0  0  0  0
    5.3353  -12.3725   26.2811 C   0  0  0  0  0  0  0  0  0  0  0  0
    6.3589  -11.4831   26.0295 C   0  0  0  0  0  0  0  0  0  0  0  0
    7.6092  -12.0087   25.7989 C   0  0  0  0  0  0  0  0  0  0  0  0
    7.8343  -13.3670   25.8175 C   0  0  0  0  0  0  0  0  0  0  0  0
    7.7563  -16.9225   24.0170 C   0  0  0  0  0  0  0  0  0  0  0  0
    7.5622  -18.0288   23.4628 O   0  0  0  0  0  0  0  0  0  0  0  0
    6.9590  -12.5856   21.1905 C   0  0  0  0  0  0  0  0  0  0  0  0
    7.9015  -13.4284   19.9152 S   0  0  0  0  0  0  0  0  0  0  0  0
    8.8492  -14.8234   20.5453 C   0  0  0  0  0  0  0  0  0  0  0  0
    8.7085  -15.0307   22.0090 C   0  0  0  0  0  0  0  0  0  0  0  0
    9.6456  -16.0203   22.6353 C   0  0  2  0  0  0  0  0  0  0  0  0
    9.0415  -16.3615   23.9484 N   0  0  0  0  0  0  0  0  0  0  0  0
   10.9926  -15.4945   22.9354 C   0  0  0  0  0  0  0  0  0  0  0  0
   11.1379  -14.4519   23.6707 O   0  0  0  0  0  0  0  0  0  0  0  0
   12.1550  -19.8130   25.9209 N   0  0  0  0  0  0  0  0  0  0  0  0
   11.7003  -18.5402   26.3339 C   0  0  0  0  0  0  0  0  0  0  0  0
   11.2767  -18.3302   27.4894 O   0  0  0  0  0  0  0  0  0  0  0  0
   11.7337  -17.4189   25.3448 C   0  0  0  0  0  0  0  0  0  0  0  0
   12.3292  -17.9112   24.0518 C   0  0  0  0  0  0  0  0  0  0  0  0
   13.0948  -16.8388   23.3581 C   0  0  2  0  0  0  0  0  0  0  0  0
   12.2154  -16.0402   22.4818 N   0  0  0  0  0  0  0  0  0  0  0  0
   14.2190  -17.2944   22.5266 C   0  0  0  0  0  0  0  0  0  0  0  0
   15.4026  -17.3771   23.0050 O   0  0  0  0  0  0  0  0  0  0  0  0
   14.1139  -17.6658   21.1981 O   0  0  0  0  0  0  0  0  0  0  0  0
  2  1  1  1
  3  4  1  0
  3  2  1  0
  4  5  2  0
  5  6  1  0
  7  6  2  0
  8  7  1  0
  9  8  2  0
  9  4  1  0
 10  2  1  0
 10 11  2  0
 12 13  1  0
 13 14  1  0
 16 15  1  1
 15 14  1  0
 16 17  1  0
 17 10  1  0
 18 16  1  0
 19 18  2  0
 20 21  1  0
 21 22  2  0
 23 21  1  0
 23 24  1  0
 25 24  1  6
 25 27  1  0
 25 26  1  0
 26 18  1  0
 27 29  1  0
 28 27  2  0
M  END
$$$$
