FMQ.pdb
     RDKit          3D

 29 29  0  0  1  0  0  0  0  0999 V2000
    9.4665  -17.6486   26.6753 N   0  0  0  0  0  0  0  0  0  0  0  0
    8.0156  -17.7380   26.8147 C   0  0  1  0  0  0  0  0  0  0  0  0
    7.6807  -17.1282   28.1638 C   0  0  0  0  0  0  0  0  0  0  0  0
    8.7829  -16.1683   28.4650 C   0  0  0  0  0  0  0  0  0  0  0  0
    8.7477  -14.8738   27.9839 C   0  0  0  0  0  0  0  0  0  0  0  0
    9.7675  -13.9749   28.2586 C   0  0  0  0  0  0  0  0  0  0  0  0
   10.8574  -14.3362   29.0225 C   0  0  0  0  0  0  0  0  0  0  0  0
   10.8928  -15.6254   29.5017 C   0  0  0  0  0  0  0  0  0  0  0  0
    9.8832  -16.5220   29.2322 C   0  0  0  0  0  0  0  0  0  0  0  0
    7.3527  -17.0544   25.6938 C   0  0  0  0  0  0  0  0  0  0  0  0
    6.1116  -17.1457   25.5531 O   0  0  0  0  0  0  0  0  0  0  0  0
    6.5492  -11.3367   27.1066 C   0  0  0  0  0  0  0  0  0  0  0  0
    7.1977  -11.8807   25.5228 S   0  0  0  0  0  0  0  0  0  0  0  0
    6.8894  -13.6242   25.1965 C   0  0  0  0  0  0  0  0  0  0  0  0
    7.5310  -14.1235   23.9538 C   0  0  0  0  0  0  0  0  0  0  0  0
    7.3683  -15.5854   23.6605 C   0  0  2  0  0  0  0  0  0  0  0  0
    8.0728  -16.2910   24.7613 N   0  0  0  0  0  0  0  0  0  0  0  0
    8.0110  -16.0425   22.4119 C   0  0  0  0  0  0  0  0  0  0  0  0
    7.3922  -16.8313   21.6096 O   0  0  0  0  0  0  0  0  0  0  0  0
    7.7636  -12.2842   18.7828 N   0  0  0  0  0  0  0  0  0  0  0  0
    8.5114  -13.0937   17.8981 C   0  0  0  0  0  0  0  0  0  0  0  0
    8.5644  -12.8628   16.6723 O   0  0  0  0  0  0  0  0  0  0  0  0
    9.2579  -14.2604   18.4623 C   0  0  0  0  0  0  0  0  0  0  0  0
    8.9654  -14.3752   19.9354 C   0  0  0  0  0  0  0  0  0  0  0  0
    9.6408  -15.5580   20.5374 C   0  0  2  0  0  0  0  0  0  0  0  0
    9.3063  -15.6891   21.9690 N   0  0  0  0  0  0  0  0  0  0  0  0
   11.1084  -15.5701   20.4434 C   0  0  0  0  0  0  0  0  0  0  0  0
   11.6970  -15.5555   19.3076 O   0  0  0  0  0  0  0  0  0  0  0  0
   11.9652  -15.5957   21.5293 O   0  0  0  0  0  0  0  0  0  0  0  0
  2  1  1  6
  3  4  1  0
  3  2  1  0
  4  5  2  0
  5  6  1  0
  7  6  2  0
  8  7  1  0
  9  8  2  0
  9  4  1  0
 10  2  1  0
 10 11  2  0
 12 13  1  0
 13 14  1  0
 16 15  1  1
 15 14  1  0
 16 17  1  0
 17 10  1  0
 18 16  1  0
 19 18  2  0
 20 21  1  0
 21 22  2  0
 23 21  1  0
 23 24  1  0
 25 24  1  1
 25 27  1  0
 25 26  1  0
 26 18  1  0
 27 29  1  0
 28 27  2  0
M  END
$$$$
