FMQ.pdb
     RDKit          3D

 29 29  0  0  1  0  0  0  0  0999 V2000
    8.5242  -17.3119   20.9688 N   0  0  0  0  0  0  0  0  0  0  0  0
    9.7894  -16.6313   21.2308 C   0  0  1  0  0  0  0  0  0  0  0  0
   10.0360  -15.7215   20.0410 C   0  0  0  0  0  0  0  0  0  0  0  0
    8.9693  -14.6792   20.0938 C   0  0  0  0  0  0  0  0  0  0  0  0
    9.2516  -13.3961   20.5211 C   0  0  0  0  0  0  0  0  0  0  0  0
    8.2668  -12.4210   20.5736 C   0  0  0  0  0  0  0  0  0  0  0  0
    6.9667  -12.6920   20.2017 C   0  0  0  0  0  0  0  0  0  0  0  0
    6.6853  -13.9697   19.7761 C   0  0  0  0  0  0  0  0  0  0  0  0
    7.6590  -14.9418   19.7220 C   0  0  0  0  0  0  0  0  0  0  0  0
    9.7221  -15.9037   22.5072 C   0  0  0  0  0  0  0  0  0  0  0  0
   10.6005  -15.0571   22.7902 O   0  0  0  0  0  0  0  0  0  0  0  0
    7.5079  -11.5995   27.6564 C   0  0  0  0  0  0  0  0  0  0  0  0
    7.9940  -12.5228   26.1948 S   0  0  0  0  0  0  0  0  0  0  0  0
    6.8424  -13.8431   25.7801 C   0  0  0  0  0  0  0  0  0  0  0  0
    7.2478  -14.6411   24.5952 C   0  0  0  0  0  0  0  0  0  0  0  0
    8.5927  -15.3016   24.6646 C   0  0  2  0  0  0  0  0  0  0  0  0
    8.6920  -16.1278   23.4344 N   0  0  0  0  0  0  0  0  0  0  0  0
    8.7664  -16.2372   25.7939 C   0  0  0  0  0  0  0  0  0  0  0  0
    8.8955  -15.7967   26.9931 O   0  0  0  0  0  0  0  0  0  0  0  0
   14.6539  -19.2300   24.5287 N   0  0  0  0  0  0  0  0  0  0  0  0
   13.5168  -18.3949   24.6116 C   0  0  0  0  0  0  0  0  0  0  0  0
   13.4115  -17.3491   23.9379 O   0  0  0  0  0  0  0  0  0  0  0  0
   12.4125  -18.7891   25.5401 C   0  0  0  0  0  0  0  0  0  0  0  0
   11.1433  -18.0877   25.1327 C   0  0  0  0  0  0  0  0  0  0  0  0
   10.0147  -18.4245   26.0439 C   0  0  2  0  0  0  0  0  0  0  0  0
    8.8069  -17.6475   25.7031 N   0  0  0  0  0  0  0  0  0  0  0  0
   10.2662  -18.2081   27.4766 C   0  0  0  0  0  0  0  0  0  0  0  0
   10.0234  -17.0786   28.0260 O   0  0  0  0  0  0  0  0  0  0  0  0
   10.7685  -19.1656   28.3397 O   0  0  0  0  0  0  0  0  0  0  0  0
  2  1  1  6
  3  4  1  0
  3  2  1  0
  4  5  2  0
  5  6  1  0
  7  6  2  0
  8  7  1  0
  9  8  2  0
  9  4  1  0
 10  2  1  0
 10 11  2  0
 12 13  1  0
 13 14  1  0
 16 15  1  1
 15 14  1  0
 16 17  1  0
 17 10  1  0
 18 16  1  0
 19 18  2  0
 20 21  1  0
 21 22  2  0
 23 21  1  0
 23 24  1  0
 25 24  1  6
 25 27  1  0
 25 26  1  0
 26 18  1  0
 27 29  1  0
 28 27  2  0
M  END
$$$$
