YFK.pdb
     RDKit          3D

 33 34  0  0  1  0  0  0  0  0999 V2000
    7.2598  -22.3809   17.2734 O   0  0  0  0  0  0  0  0  0  0  0  0
    7.6472  -21.5439   18.3309 C   0  0  0  0  0  0  0  0  0  0  0  0
    6.7216  -21.0091   19.2008 C   0  0  0  0  0  0  0  0  0  0  0  0
    7.1033  -20.1873   20.2390 C   0  0  0  0  0  0  0  0  0  0  0  0
    8.4457  -19.8572   20.4594 C   0  0  0  0  0  0  0  0  0  0  0  0
    8.8444  -18.9652   21.5746 C   0  0  0  0  0  0  0  0  0  0  0  0
    8.9636  -17.5412   21.1830 C   0  0  2  0  0  0  0  0  0  0  0  0
   10.0497  -17.3202   20.2239 N   0  0  0  0  0  0  0  0  0  0  0  0
    9.1034  -16.5613   22.2542 C   0  0  0  0  0  0  0  0  0  0  0  0
   10.3032  -16.2582   22.5874 O   0  0  0  0  0  0  0  0  0  0  0  0
    9.3480  -20.4066   19.5736 C   0  0  0  0  0  0  0  0  0  0  0  0
    8.9730  -21.2288   18.5338 C   0  0  0  0  0  0  0  0  0  0  0  0
    8.0236  -15.9428   22.9289 N   0  0  0  0  0  0  0  0  0  0  0  0
    8.2766  -15.1081   24.0771 C   0  0  1  0  0  0  0  0  0  0  0  0
    7.0936  -14.2080   24.3703 C   0  0  0  0  0  0  0  0  0  0  0  0
    7.2771  -13.3937   25.5722 C   0  0  0  0  0  0  0  0  0  0  0  0
    6.3251  -12.4956   25.9872 C   0  0  0  0  0  0  0  0  0  0  0  0
    6.4952  -11.7133   27.1291 C   0  0  0  0  0  0  0  0  0  0  0  0
    7.6399  -11.8205   27.8850 C   0  0  0  0  0  0  0  0  0  0  0  0
    8.6013  -12.7192   27.4769 C   0  0  0  0  0  0  0  0  0  0  0  0
    8.4232  -13.4982   26.3329 C   0  0  0  0  0  0  0  0  0  0  0  0
    8.6759  -15.9575   25.2146 C   0  0  0  0  0  0  0  0  0  0  0  0
    7.8391  -16.7612   25.7339 O   0  0  0  0  0  0  0  0  0  0  0  0
    9.9728  -15.9583   25.8065 N   0  0  0  0  0  0  0  0  0  0  0  0
   10.3491  -16.9102   26.8669 C   0  0  1  0  0  0  0  0  0  0  0  0
   11.5096  -17.7062   26.2959 C   0  0  0  0  0  0  0  0  0  0  0  0
   11.1745  -18.4629   25.0512 C   0  0  0  0  0  0  0  0  0  0  0  0
   12.4626  -19.1780   24.6215 C   0  0  0  0  0  0  0  0  0  0  0  0
   12.2761  -19.8568   23.2863 C   0  0  0  0  0  0  0  0  0  0  0  0
   13.5270  -20.3873   22.7981 N   0  0  0  0  0  0  0  0  0  0  0  0
   10.6595  -16.2166   28.1101 C   0  0  0  0  0  0  0  0  0  0  0  0
   10.3927  -16.7608   29.2079 O   0  0  0  0  0  0  0  0  0  0  0  0
   11.2448  -14.9658   28.1375 O   0  0  0  0  0  0  0  0  0  0  0  0
  2  1  1  0
  3  2  2  0
  4  3  1  0
  5 11  1  0
  5  4  2  0
  6  5  1  0
  7  6  1  0
  7  8  1  6
  9  7  1  0
  9 10  2  0
 11 12  2  0
 12  2  1  0
 13  9  1  0
 14 13  1  0
 14 15  1  1
 16 15  1  0
 16 17  2  0
 17 18  1  0
 19 18  2  0
 20 19  1  0
 21 20  2  0
 21 16  1  0
 22 14  1  0
 23 22  2  0
 24 22  1  0
 25 24  1  0
 26 27  1  0
 25 26  1  6
 28 29  1  0
 28 27  1  0
 29 30  1  0
 31 25  1  0
 31 33  1  0
 32 31  2  0
M  END
$$$$
