YFK.pdb
     RDKit          3D

 33 34  0  0  1  0  0  0  0  0999 V2000
    7.8860  -12.2913   16.6851 O   0  0  0  0  0  0  0  0  0  0  0  0
    8.0511  -13.4853   17.4032 C   0  0  0  0  0  0  0  0  0  0  0  0
    7.7433  -13.5663   18.7442 C   0  0  0  0  0  0  0  0  0  0  0  0
    7.9058  -14.7396   19.4485 C   0  0  0  0  0  0  0  0  0  0  0  0
    8.3899  -15.9023   18.8374 C   0  0  0  0  0  0  0  0  0  0  0  0
    8.5689  -17.1571   19.6066 C   0  0  0  0  0  0  0  0  0  0  0  0
    8.0825  -17.0721   21.0036 C   0  0  2  0  0  0  0  0  0  0  0  0
    6.8169  -16.3396   21.1052 N   0  0  0  0  0  0  0  0  0  0  0  0
    8.9983  -16.5278   21.9998 C   0  0  0  0  0  0  0  0  0  0  0  0
    9.8465  -17.3511   22.4947 O   0  0  0  0  0  0  0  0  0  0  0  0
    8.6891  -15.7908   17.4963 C   0  0  0  0  0  0  0  0  0  0  0  0
    8.5290  -14.6210   16.7865 C   0  0  0  0  0  0  0  0  0  0  0  0
    9.0058  -15.1826   22.4401 N   0  0  0  0  0  0  0  0  0  0  0  0
    8.6889  -14.8735   23.8125 C   0  0  1  0  0  0  0  0  0  0  0  0
    7.2913  -14.3013   23.9356 C   0  0  0  0  0  0  0  0  0  0  0  0
    7.0648  -13.6106   25.2056 C   0  0  0  0  0  0  0  0  0  0  0  0
    6.1190  -14.0422   26.1025 C   0  0  0  0  0  0  0  0  0  0  0  0
    5.8948  -13.3864   27.3127 C   0  0  0  0  0  0  0  0  0  0  0  0
    6.6263  -12.2705   27.6485 C   0  0  0  0  0  0  0  0  0  0  0  0
    7.5782  -11.8296   26.7551 C   0  0  0  0  0  0  0  0  0  0  0  0
    7.7962  -12.4916   25.5461 C   0  0  0  0  0  0  0  0  0  0  0  0
    8.9188  -16.0697   24.6437 C   0  0  0  0  0  0  0  0  0  0  0  0
    8.0402  -16.9870   24.6966 O   0  0  0  0  0  0  0  0  0  0  0  0
   10.0895  -16.2987   25.4242 N   0  0  0  0  0  0  0  0  0  0  0  0
   10.1976  -17.4323   26.3600 C   0  0  1  0  0  0  0  0  0  0  0  0
   11.4574  -18.1729   25.9466 C   0  0  0  0  0  0  0  0  0  0  0  0
   11.7995  -19.3307   26.8279 C   0  0  0  0  0  0  0  0  0  0  0  0
   13.2528  -19.7035   26.5049 C   0  0  0  0  0  0  0  0  0  0  0  0
   13.7064  -20.8666   27.3533 C   0  0  0  0  0  0  0  0  0  0  0  0
   15.1073  -21.1444   27.1412 N   0  0  0  0  0  0  0  0  0  0  0  0
   10.2052  -16.9735   27.7428 C   0  0  0  0  0  0  0  0  0  0  0  0
    9.7571  -17.7185   28.6465 O   0  0  0  0  0  0  0  0  0  0  0  0
   10.6920  -15.7349   28.1126 O   0  0  0  0  0  0  0  0  0  0  0  0
  2  1  1  0
  3  2  2  0
  4  3  1  0
  5 11  1  0
  5  4  2  0
  6  5  1  0
  7  6  1  0
  7  8  1  6
  9  7  1  0
  9 10  2  0
 11 12  2  0
 12  2  1  0
 13  9  1  0
 14 13  1  0
 14 15  1  6
 16 15  1  0
 16 17  2  0
 17 18  1  0
 19 18  2  0
 20 19  1  0
 21 20  2  0
 21 16  1  0
 22 14  1  0
 23 22  2  0
 24 22  1  0
 25 24  1  0
 26 27  1  0
 25 26  1  6
 28 29  1  0
 28 27  1  0
 29 30  1  0
 31 25  1  0
 31 33  1  0
 32 31  2  0
M  END
$$$$
