YFK.pdb
     RDKit          3D

 33 34  0  0  1  0  0  0  0  0999 V2000
    8.3275  -22.0821   17.0279 O   0  0  0  0  0  0  0  0  0  0  0  0
    8.6705  -21.2092   18.0715 C   0  0  0  0  0  0  0  0  0  0  0  0
    8.7728  -21.6501   19.3733 C   0  0  0  0  0  0  0  0  0  0  0  0
    9.1098  -20.7918   20.3975 C   0  0  0  0  0  0  0  0  0  0  0  0
    9.3637  -19.4349   20.1654 C   0  0  0  0  0  0  0  0  0  0  0  0
    9.7174  -18.5185   21.2760 C   0  0  0  0  0  0  0  0  0  0  0  0
    9.7788  -17.0938   20.8740 C   0  0  2  0  0  0  0  0  0  0  0  0
   10.9453  -16.8055   20.0345 N   0  0  0  0  0  0  0  0  0  0  0  0
    9.7317  -16.0954   21.9363 C   0  0  0  0  0  0  0  0  0  0  0  0
   10.8638  -15.7013   22.3897 O   0  0  0  0  0  0  0  0  0  0  0  0
    9.2537  -19.0234   18.8542 C   0  0  0  0  0  0  0  0  0  0  0  0
    8.9173  -19.8761   17.8259 C   0  0  0  0  0  0  0  0  0  0  0  0
    8.5440  -15.5513   22.4810 N   0  0  0  0  0  0  0  0  0  0  0  0
    8.5913  -14.8222   23.7242 C   0  0  1  0  0  0  0  0  0  0  0  0
    7.3724  -13.9366   23.8855 C   0  0  0  0  0  0  0  0  0  0  0  0
    7.3562  -13.2100   25.1556 C   0  0  0  0  0  0  0  0  0  0  0  0
    6.4481  -13.5034   26.1428 C   0  0  0  0  0  0  0  0  0  0  0  0
    6.4240  -12.8122   27.3538 C   0  0  0  0  0  0  0  0  0  0  0  0
    7.3238  -11.8004   27.5985 C   0  0  0  0  0  0  0  0  0  0  0  0
    8.2394  -11.4985   26.6141 C   0  0  0  0  0  0  0  0  0  0  0  0
    8.2566  -12.1950   25.4050 C   0  0  0  0  0  0  0  0  0  0  0  0
    8.7898  -15.7715   24.8350 C   0  0  0  0  0  0  0  0  0  0  0  0
    7.9140  -16.6606   25.0773 O   0  0  0  0  0  0  0  0  0  0  0  0
    9.9261  -15.7820   25.6959 N   0  0  0  0  0  0  0  0  0  0  0  0
   10.0308  -16.7008   26.8435 C   0  0  1  0  0  0  0  0  0  0  0  0
   11.1651  -17.6484   26.4945 C   0  0  0  0  0  0  0  0  0  0  0  0
   11.3136  -17.9063   25.0297 C   0  0  0  0  0  0  0  0  0  0  0  0
   11.6562  -19.3955   24.8869 C   0  0  0  0  0  0  0  0  0  0  0  0
   11.8544  -19.7605   23.4357 C   0  0  0  0  0  0  0  0  0  0  0  0
   12.4639  -21.0633   23.3102 N   0  0  0  0  0  0  0  0  0  0  0  0
   10.2304  -15.9681   28.0870 C   0  0  0  0  0  0  0  0  0  0  0  0
   10.5903  -14.7674   28.0491 O   0  0  0  0  0  0  0  0  0  0  0  0
   10.0379  -16.5431   29.3279 O   0  0  0  0  0  0  0  0  0  0  0  0
  2  1  1  0
  3  2  2  0
  4  3  1  0
  5 11  1  0
  5  4  2  0
  6  5  1  0
  7  6  1  0
  7  8  1  1
  9  7  1  0
  9 10  2  0
 11 12  2  0
 12  2  1  0
 13  9  1  0
 14 13  1  0
 14 15  1  1
 16 15  1  0
 16 17  2  0
 17 18  1  0
 19 18  2  0
 20 19  1  0
 21 20  2  0
 21 16  1  0
 22 14  1  0
 23 22  2  0
 24 22  1  0
 25 24  1  0
 26 27  1  0
 25 26  1  6
 28 29  1  0
 28 27  1  0
 29 30  1  0
 31 25  1  0
 31 33  1  0
 32 31  2  0
M  END
$$$$
