YFK.pdb
     RDKit          3D

 33 34  0  0  1  0  0  0  0  0999 V2000
    6.3523  -19.5961   15.2356 O   0  0  0  0  0  0  0  0  0  0  0  0
    6.8953  -19.1257   16.4408 C   0  0  0  0  0  0  0  0  0  0  0  0
    7.0075  -19.9417   17.5458 C   0  0  0  0  0  0  0  0  0  0  0  0
    7.5411  -19.4785   18.7290 C   0  0  0  0  0  0  0  0  0  0  0  0
    7.9936  -18.1608   18.8648 C   0  0  0  0  0  0  0  0  0  0  0  0
    8.5583  -17.6705   20.1451 C   0  0  0  0  0  0  0  0  0  0  0  0
    8.9026  -16.2295   20.1294 C   0  0  2  0  0  0  0  0  0  0  0  0
   10.1131  -15.9583   19.3486 N   0  0  0  0  0  0  0  0  0  0  0  0
    9.0390  -15.5593   21.4177 C   0  0  0  0  0  0  0  0  0  0  0  0
   10.2321  -15.4510   21.8728 O   0  0  0  0  0  0  0  0  0  0  0  0
    7.8685  -17.3688   17.7434 C   0  0  0  0  0  0  0  0  0  0  0  0
    7.3360  -17.8255   16.5578 C   0  0  0  0  0  0  0  0  0  0  0  0
    7.9628  -15.0364   22.1739 N   0  0  0  0  0  0  0  0  0  0  0  0
    8.2142  -14.4279   23.4567 C   0  0  1  0  0  0  0  0  0  0  0  0
    7.0760  -13.5130   23.8606 C   0  0  0  0  0  0  0  0  0  0  0  0
    7.1837  -13.0395   25.2410 C   0  0  0  0  0  0  0  0  0  0  0  0
    6.3871  -13.5421   26.2401 C   0  0  0  0  0  0  0  0  0  0  0  0
    6.4812  -13.0924   27.5568 C   0  0  0  0  0  0  0  0  0  0  0  0
    7.3894  -12.1169   27.8985 C   0  0  0  0  0  0  0  0  0  0  0  0
    8.1936  -11.6062   26.9030 C   0  0  0  0  0  0  0  0  0  0  0  0
    8.0929  -12.0617   25.5878 C   0  0  0  0  0  0  0  0  0  0  0  0
    8.5099  -15.4831   24.4435 C   0  0  0  0  0  0  0  0  0  0  0  0
    7.6900  -16.4386   24.6193 O   0  0  0  0  0  0  0  0  0  0  0  0
    9.6846  -15.5293   25.2500 N   0  0  0  0  0  0  0  0  0  0  0  0
   10.0227  -16.7031   26.0748 C   0  0  1  0  0  0  0  0  0  0  0  0
   11.1479  -17.4023   25.3323 C   0  0  0  0  0  0  0  0  0  0  0  0
   10.6859  -18.4649   24.3880 C   0  0  0  0  0  0  0  0  0  0  0  0
   11.9364  -18.9548   23.6453 C   0  0  0  0  0  0  0  0  0  0  0  0
   11.5705  -19.9906   22.6101 C   0  0  0  0  0  0  0  0  0  0  0  0
   12.7344  -20.4093   21.8655 N   0  0  0  0  0  0  0  0  0  0  0  0
   10.3639  -16.3088   27.4353 C   0  0  0  0  0  0  0  0  0  0  0  0
   10.8487  -15.1722   27.6491 O   0  0  0  0  0  0  0  0  0  0  0  0
   10.1747  -17.1420   28.5205 O   0  0  0  0  0  0  0  0  0  0  0  0
  2  1  1  0
  3  2  2  0
  4  3  1  0
  5 11  1  0
  5  4  2  0
  6  5  1  0
  7  6  1  0
  7  8  1  1
  9  7  1  0
  9 10  2  0
 11 12  2  0
 12  2  1  0
 13  9  1  0
 14 13  1  0
 14 15  1  1
 16 15  1  0
 16 17  2  0
 17 18  1  0
 19 18  2  0
 20 19  1  0
 21 20  2  0
 21 16  1  0
 22 14  1  0
 23 22  2  0
 24 22  1  0
 25 24  1  0
 26 27  1  0
 25 26  1  6
 28 29  1  0
 28 27  1  0
 29 30  1  0
 31 25  1  0
 31 33  1  0
 32 31  2  0
M  END
$$$$
