YFK.pdb
     RDKit          3D

 33 34  0  0  1  0  0  0  0  0999 V2000
    7.3931  -19.7276   14.9026 O   0  0  0  0  0  0  0  0  0  0  0  0
    7.6242  -19.2524   16.2024 C   0  0  0  0  0  0  0  0  0  0  0  0
    8.1227  -20.0740   17.1904 C   0  0  0  0  0  0  0  0  0  0  0  0
    8.3493  -19.6061   18.4666 C   0  0  0  0  0  0  0  0  0  0  0  0
    8.0849  -18.2776   18.8199 C   0  0  0  0  0  0  0  0  0  0  0  0
    8.3246  -17.7868   20.1983 C   0  0  0  0  0  0  0  0  0  0  0  0
    9.0765  -16.5113   20.2524 C   0  0  2  0  0  0  0  0  0  0  0  0
   10.4283  -16.6420   19.7008 N   0  0  0  0  0  0  0  0  0  0  0  0
    9.1818  -15.8503   21.5483 C   0  0  0  0  0  0  0  0  0  0  0  0
   10.3194  -15.9335   22.1324 O   0  0  0  0  0  0  0  0  0  0  0  0
    7.5873  -17.4802   17.8114 C   0  0  0  0  0  0  0  0  0  0  0  0
    7.3585  -17.9416   16.5337 C   0  0  0  0  0  0  0  0  0  0  0  0
    8.1321  -15.1425   22.1814 N   0  0  0  0  0  0  0  0  0  0  0  0
    8.3280  -14.5940   23.5005 C   0  0  1  0  0  0  0  0  0  0  0  0
    7.2496  -13.5848   23.8388 C   0  0  0  0  0  0  0  0  0  0  0  0
    7.3436  -13.0840   25.2106 C   0  0  0  0  0  0  0  0  0  0  0  0
    6.3154  -13.2394   26.1072 C   0  0  0  0  0  0  0  0  0  0  0  0
    6.3964  -12.7608   27.4146 C   0  0  0  0  0  0  0  0  0  0  0  0
    7.5268  -12.1090   27.8510 C   0  0  0  0  0  0  0  0  0  0  0  0
    8.5644  -11.9482   26.9587 C   0  0  0  0  0  0  0  0  0  0  0  0
    8.4752  -12.4300   25.6522 C   0  0  0  0  0  0  0  0  0  0  0  0
    8.4380  -15.6976   24.4723 C   0  0  0  0  0  0  0  0  0  0  0  0
    7.4424  -16.4582   24.6878 O   0  0  0  0  0  0  0  0  0  0  0  0
    9.6124  -16.0009   25.2215 N   0  0  0  0  0  0  0  0  0  0  0  0
    9.6693  -17.1318   26.1649 C   0  0  1  0  0  0  0  0  0  0  0  0
   10.6659  -18.1059   25.5614 C   0  0  0  0  0  0  0  0  0  0  0  0
   10.2561  -18.6493   24.2306 C   0  0  0  0  0  0  0  0  0  0  0  0
   11.3504  -19.6418   23.8149 C   0  0  0  0  0  0  0  0  0  0  0  0
   11.1084  -20.1464   22.4130 C   0  0  0  0  0  0  0  0  0  0  0  0
   12.1680  -21.0330   21.9939 N   0  0  0  0  0  0  0  0  0  0  0  0
   10.0174  -16.6806   27.5059 C   0  0  0  0  0  0  0  0  0  0  0  0
   10.4834  -15.5281   27.6716 O   0  0  0  0  0  0  0  0  0  0  0  0
    9.8551  -17.4757   28.6235 O   0  0  0  0  0  0  0  0  0  0  0  0
  2  1  1  0
  3  2  2  0
  4  3  1  0
  5 11  1  0
  5  4  2  0
  6  5  1  0
  7  6  1  0
  7  8  1  1
  9  7  1  0
  9 10  2  0
 11 12  2  0
 12  2  1  0
 13  9  1  0
 14 13  1  0
 14 15  1  1
 16 15  1  0
 16 17  2  0
 17 18  1  0
 19 18  2  0
 20 19  1  0
 21 20  2  0
 21 16  1  0
 22 14  1  0
 23 22  2  0
 24 22  1  0
 25 24  1  0
 26 27  1  0
 25 26  1  6
 28 29  1  0
 28 27  1  0
 29 30  1  0
 31 25  1  0
 31 33  1  0
 32 31  2  0
M  END
$$$$
