YFK.pdb
     RDKit          3D

 33 34  0  0  1  0  0  0  0  0999 V2000
    7.4658  -13.9905   15.5217 O   0  0  0  0  0  0  0  0  0  0  0  0
    7.8219  -14.0058   16.8788 C   0  0  0  0  0  0  0  0  0  0  0  0
    8.7508  -14.8985   17.3684 C   0  0  0  0  0  0  0  0  0  0  0  0
    9.0997  -14.9126   18.7015 C   0  0  0  0  0  0  0  0  0  0  0  0
    8.5291  -14.0233   19.6197 C   0  0  0  0  0  0  0  0  0  0  0  0
    8.9057  -14.0526   21.0535 C   0  0  0  0  0  0  0  0  0  0  0  0
    8.8218  -15.4008   21.6623 C   0  0  2  0  0  0  0  0  0  0  0  0
    7.5620  -16.0766   21.3386 N   0  0  0  0  0  0  0  0  0  0  0  0
    9.0275  -15.4992   23.1029 C   0  0  0  0  0  0  0  0  0  0  0  0
   10.1681  -15.1082   23.5371 O   0  0  0  0  0  0  0  0  0  0  0  0
    7.6038  -13.1427   19.1010 C   0  0  0  0  0  0  0  0  0  0  0  0
    7.2506  -13.1235   17.7696 C   0  0  0  0  0  0  0  0  0  0  0  0
    8.0698  -15.9871   24.0239 N   0  0  0  0  0  0  0  0  0  0  0  0
    8.3690  -15.9978   25.4344 C   0  0  1  0  0  0  0  0  0  0  0  0
    7.1568  -15.6041   26.2537 C   0  0  0  0  0  0  0  0  0  0  0  0
    7.0228  -14.1564   26.4195 C   0  0  0  0  0  0  0  0  0  0  0  0
    7.9064  -13.4330   27.1819 C   0  0  0  0  0  0  0  0  0  0  0  0
    7.7823  -12.0539   27.3478 C   0  0  0  0  0  0  0  0  0  0  0  0
    6.7549  -11.3672   26.7427 C   0  0  0  0  0  0  0  0  0  0  0  0
    5.8630  -12.0843   25.9754 C   0  0  0  0  0  0  0  0  0  0  0  0
    5.9942  -13.4642   25.8146 C   0  0  0  0  0  0  0  0  0  0  0  0
    8.9349  -17.3098   25.7994 C   0  0  0  0  0  0  0  0  0  0  0  0
    8.2246  -18.3595   25.7008 O   0  0  0  0  0  0  0  0  0  0  0  0
   10.2648  -17.5135   26.2707 N   0  0  0  0  0  0  0  0  0  0  0  0
   10.7720  -18.8496   26.6311 C   0  0  1  0  0  0  0  0  0  0  0  0
   12.1287  -18.9571   25.9573 C   0  0  0  0  0  0  0  0  0  0  0  0
   12.8422  -20.2425   26.2276 C   0  0  0  0  0  0  0  0  0  0  0  0
   14.1528  -20.1836   25.4311 C   0  0  0  0  0  0  0  0  0  0  0  0
   14.9594  -21.4427   25.6371 C   0  0  0  0  0  0  0  0  0  0  0  0
   15.2540  -22.0789   24.3750 N   0  0  0  0  0  0  0  0  0  0  0  0
   10.8115  -19.0244   28.0771 C   0  0  0  0  0  0  0  0  0  0  0  0
   10.8773  -20.1793   28.5612 O   0  0  0  0  0  0  0  0  0  0  0  0
   10.7802  -17.9593   28.9559 O   0  0  0  0  0  0  0  0  0  0  0  0
  2  1  1  0
  3  2  2  0
  4  3  1  0
  5 11  1  0
  5  4  2  0
  6  5  1  0
  7  6  1  0
  7  8  1  1
  9  7  1  0
  9 10  2  0
 11 12  2  0
 12  2  1  0
 13  9  1  0
 14 13  1  0
 14 15  1  1
 16 15  1  0
 16 17  2  0
 17 18  1  0
 19 18  2  0
 20 19  1  0
 21 20  2  0
 21 16  1  0
 22 14  1  0
 23 22  2  0
 24 22  1  0
 25 24  1  0
 26 27  1  0
 25 26  1  1
 28 29  1  0
 28 27  1  0
 29 30  1  0
 31 25  1  0
 31 33  1  0
 32 31  2  0
M  END
$$$$
