YFK.pdb
     RDKit          3D

 33 34  0  0  1  0  0  0  0  0999 V2000
    2.2706  -23.2227   20.9434 O   0  0  0  0  0  0  0  0  0  0  0  0
    3.4232  -22.4548   21.1683 C   0  0  0  0  0  0  0  0  0  0  0  0
    4.5985  -22.7076   20.4941 C   0  0  0  0  0  0  0  0  0  0  0  0
    5.7299  -21.9527   20.7159 C   0  0  0  0  0  0  0  0  0  0  0  0
    5.7398  -20.8959   21.6339 C   0  0  0  0  0  0  0  0  0  0  0  0
    6.9652  -20.0955   21.8708 C   0  0  0  0  0  0  0  0  0  0  0  0
    6.8380  -18.6782   21.4580 C   0  0  2  0  0  0  0  0  0  0  0  0
    6.5764  -18.5414   20.0222 N   0  0  0  0  0  0  0  0  0  0  0  0
    7.9334  -17.7791   21.8031 C   0  0  0  0  0  0  0  0  0  0  0  0
    9.0424  -17.9827   21.1939 O   0  0  0  0  0  0  0  0  0  0  0  0
    4.5506  -20.6671   22.2926 C   0  0  0  0  0  0  0  0  0  0  0  0
    3.4161  -21.4179   22.0756 C   0  0  0  0  0  0  0  0  0  0  0  0
    7.8472  -16.7252   22.7440 N   0  0  0  0  0  0  0  0  0  0  0  0
    9.0078  -15.9178   23.0276 C   0  0  1  0  0  0  0  0  0  0  0  0
    8.6093  -14.5402   23.5168 C   0  0  0  0  0  0  0  0  0  0  0  0
    7.9448  -13.7375   22.4896 C   0  0  0  0  0  0  0  0  0  0  0  0
    8.6300  -12.8112   21.7427 C   0  0  0  0  0  0  0  0  0  0  0  0
    8.0022  -12.0397   20.7652 C   0  0  0  0  0  0  0  0  0  0  0  0
    6.6569  -12.1865   20.5168 C   0  0  0  0  0  0  0  0  0  0  0  0
    5.9604  -13.1136   21.2610 C   0  0  0  0  0  0  0  0  0  0  0  0
    6.5962  -13.8816   22.2373 C   0  0  0  0  0  0  0  0  0  0  0  0
    9.8905  -16.6481   23.9560 C   0  0  0  0  0  0  0  0  0  0  0  0
    9.4581  -17.6714   24.5740 O   0  0  0  0  0  0  0  0  0  0  0  0
   11.2437  -16.2940   24.2315 N   0  0  0  0  0  0  0  0  0  0  0  0
   12.3706  -17.1796   23.8875 C   0  0  1  0  0  0  0  0  0  0  0  0
   12.2537  -17.4120   22.3913 C   0  0  0  0  0  0  0  0  0  0  0  0
   13.3017  -18.3198   21.8328 C   0  0  0  0  0  0  0  0  0  0  0  0
   13.0122  -18.4394   20.3304 C   0  0  0  0  0  0  0  0  0  0  0  0
   14.0398  -19.3164   19.6572 C   0  0  0  0  0  0  0  0  0  0  0  0
   13.8874  -19.2809   18.2219 N   0  0  0  0  0  0  0  0  0  0  0  0
   13.6411  -16.5983   24.3008 C   0  0  0  0  0  0  0  0  0  0  0  0
   14.6990  -17.2577   24.1646 O   0  0  0  0  0  0  0  0  0  0  0  0
   13.7376  -15.3323   24.8447 O   0  0  0  0  0  0  0  0  0  0  0  0
  2  1  1  0
  3  2  2  0
  4  3  1  0
  5 11  1  0
  5  4  2  0
  6  5  1  0
  7  6  1  0
  7  8  1  6
  9  7  1  0
  9 10  2  0
 11 12  2  0
 12  2  1  0
 13  9  1  0
 14 13  1  0
 14 15  1  1
 16 15  1  0
 16 17  2  0
 17 18  1  0
 19 18  2  0
 20 19  1  0
 21 20  2  0
 21 16  1  0
 22 14  1  0
 23 22  2  0
 24 22  1  0
 25 24  1  0
 26 27  1  0
 25 26  1  6
 28 29  1  0
 28 27  1  0
 29 30  1  0
 31 25  1  0
 31 33  1  0
 32 31  2  0
M  END
$$$$
