YFK.pdb
     RDKit          3D

 33 34  0  0  1  0  0  0  0  0999 V2000
    6.7078  -18.1527   13.9092 O   0  0  0  0  0  0  0  0  0  0  0  0
    7.0222  -17.9216   15.2570 C   0  0  0  0  0  0  0  0  0  0  0  0
    6.5069  -18.7122   16.2614 C   0  0  0  0  0  0  0  0  0  0  0  0
    6.8164  -18.4843   17.5847 C   0  0  0  0  0  0  0  0  0  0  0  0
    7.6669  -17.4418   17.9713 C   0  0  0  0  0  0  0  0  0  0  0  0
    7.9867  -17.2003   19.3988 C   0  0  0  0  0  0  0  0  0  0  0  0
    8.8658  -16.0285   19.6207 C   0  0  2  0  0  0  0  0  0  0  0  0
   10.2292  -16.2596   19.1346 N   0  0  0  0  0  0  0  0  0  0  0  0
    8.9555  -15.5061   20.9796 C   0  0  0  0  0  0  0  0  0  0  0  0
   10.0277  -15.7889   21.6221 O   0  0  0  0  0  0  0  0  0  0  0  0
    8.1667  -16.6684   16.9453 C   0  0  0  0  0  0  0  0  0  0  0  0
    7.8611  -16.8908   15.6205 C   0  0  0  0  0  0  0  0  0  0  0  0
    7.9573  -14.7278   21.6130 N   0  0  0  0  0  0  0  0  0  0  0  0
    8.1260  -14.3215   22.9862 C   0  0  1  0  0  0  0  0  0  0  0  0
    7.0592  -13.3271   23.3974 C   0  0  0  0  0  0  0  0  0  0  0  0
    7.1729  -12.9101   24.7954 C   0  0  0  0  0  0  0  0  0  0  0  0
    8.1114  -11.9934   25.2006 C   0  0  0  0  0  0  0  0  0  0  0  0
    8.2282  -11.5947   26.5318 C   0  0  0  0  0  0  0  0  0  0  0  0
    7.3934  -12.1164   27.4931 C   0  0  0  0  0  0  0  0  0  0  0  0
    6.4480  -13.0371   27.0965 C   0  0  0  0  0  0  0  0  0  0  0  0
    6.3378  -13.4307   25.7622 C   0  0  0  0  0  0  0  0  0  0  0  0
    8.1851  -15.5207   23.8423 C   0  0  0  0  0  0  0  0  0  0  0  0
    7.2796  -16.4090   23.7575 O   0  0  0  0  0  0  0  0  0  0  0  0
    9.2124  -15.7839   24.7950 N   0  0  0  0  0  0  0  0  0  0  0  0
    9.2429  -17.0235   25.5916 C   0  0  1  0  0  0  0  0  0  0  0  0
   10.2014  -17.9459   24.8589 C   0  0  0  0  0  0  0  0  0  0  0  0
   10.4402  -19.2492   25.5507 C   0  0  0  0  0  0  0  0  0  0  0  0
   11.4439  -20.0203   24.6826 C   0  0  0  0  0  0  0  0  0  0  0  0
   11.7659  -21.3591   25.3008 C   0  0  0  0  0  0  0  0  0  0  0  0
   12.6607  -22.1151   24.4570 N   0  0  0  0  0  0  0  0  0  0  0  0
    9.6193  -16.7517   26.9727 C   0  0  0  0  0  0  0  0  0  0  0  0
    9.3647  -17.5970   27.8634 O   0  0  0  0  0  0  0  0  0  0  0  0
   10.2554  -15.5867   27.3544 O   0  0  0  0  0  0  0  0  0  0  0  0
  2  1  1  0
  3  2  2  0
  4  3  1  0
  5 11  1  0
  5  4  2  0
  6  5  1  0
  7  6  1  0
  7  8  1  1
  9  7  1  0
  9 10  2  0
 11 12  2  0
 12  2  1  0
 13  9  1  0
 14 13  1  0
 14 15  1  1
 16 15  1  0
 16 17  2  0
 17 18  1  0
 19 18  2  0
 20 19  1  0
 21 20  2  0
 21 16  1  0
 22 14  1  0
 23 22  2  0
 24 22  1  0
 25 24  1  0
 26 27  1  0
 25 26  1  6
 28 29  1  0
 28 27  1  0
 29 30  1  0
 31 25  1  0
 31 33  1  0
 32 31  2  0
M  END
$$$$
