YFK.pdb
     RDKit          3D

 33 34  0  0  1  0  0  0  0  0999 V2000
    7.6150  -14.5902   14.2456 O   0  0  0  0  0  0  0  0  0  0  0  0
    8.0510  -14.4858   15.5751 C   0  0  0  0  0  0  0  0  0  0  0  0
    7.8573  -13.3340   16.3070 C   0  0  0  0  0  0  0  0  0  0  0  0
    8.2859  -13.2326   17.6128 C   0  0  0  0  0  0  0  0  0  0  0  0
    8.9366  -14.2916   18.2568 C   0  0  0  0  0  0  0  0  0  0  0  0
    9.4010  -14.1688   19.6595 C   0  0  0  0  0  0  0  0  0  0  0  0
    9.4606  -15.4615   20.3809 C   0  0  2  0  0  0  0  0  0  0  0  0
    8.3822  -16.3695   19.9794 N   0  0  0  0  0  0  0  0  0  0  0  0
    9.4894  -15.4145   21.8385 C   0  0  0  0  0  0  0  0  0  0  0  0
   10.6472  -15.2991   22.3756 O   0  0  0  0  0  0  0  0  0  0  0  0
    9.1160  -15.4299   17.5000 C   0  0  0  0  0  0  0  0  0  0  0  0
    8.6900  -15.5377   16.1944 C   0  0  0  0  0  0  0  0  0  0  0  0
    8.3472  -15.4869   22.6714 N   0  0  0  0  0  0  0  0  0  0  0  0
    8.4011  -14.9606   24.0128 C   0  0  1  0  0  0  0  0  0  0  0  0
    7.2649  -13.9906   24.2657 C   0  0  0  0  0  0  0  0  0  0  0  0
    7.3194  -13.3779   25.5935 C   0  0  0  0  0  0  0  0  0  0  0  0
    6.3004  -13.5312   26.5009 C   0  0  0  0  0  0  0  0  0  0  0  0
    6.3437  -12.9466   27.7663 C   0  0  0  0  0  0  0  0  0  0  0  0
    7.4258  -12.1875   28.1484 C   0  0  0  0  0  0  0  0  0  0  0  0
    8.4537  -12.0279   27.2448 C   0  0  0  0  0  0  0  0  0  0  0  0
    8.4025  -12.6162   25.9805 C   0  0  0  0  0  0  0  0  0  0  0  0
    8.4534  -16.0805   24.9707 C   0  0  0  0  0  0  0  0  0  0  0  0
    7.4220  -16.7963   25.1707 O   0  0  0  0  0  0  0  0  0  0  0  0
    9.6077  -16.4481   25.7221 N   0  0  0  0  0  0  0  0  0  0  0  0
    9.6147  -17.6100   26.6289 C   0  0  1  0  0  0  0  0  0  0  0  0
   10.6730  -18.5456   26.0713 C   0  0  0  0  0  0  0  0  0  0  0  0
   10.4168  -18.9856   24.6659 C   0  0  0  0  0  0  0  0  0  0  0  0
   11.5844  -19.9048   24.2825 C   0  0  0  0  0  0  0  0  0  0  0  0
   11.5166  -20.2717   22.8199 C   0  0  0  0  0  0  0  0  0  0  0  0
   12.6561  -21.0702   22.4349 N   0  0  0  0  0  0  0  0  0  0  0  0
    9.8512  -17.1999   28.0069 C   0  0  0  0  0  0  0  0  0  0  0  0
    9.8185  -18.0553   28.9234 O   0  0  0  0  0  0  0  0  0  0  0  0
   10.1151  -15.8905   28.3582 O   0  0  0  0  0  0  0  0  0  0  0  0
  2  1  1  0
  3  2  2  0
  4  3  1  0
  5 11  1  0
  5  4  2  0
  6  5  1  0
  7  6  1  0
  7  8  1  1
  9  7  1  0
  9 10  2  0
 11 12  2  0
 12  2  1  0
 13  9  1  0
 14 13  1  0
 14 15  1  1
 16 15  1  0
 16 17  2  0
 17 18  1  0
 19 18  2  0
 20 19  1  0
 21 20  2  0
 21 16  1  0
 22 14  1  0
 23 22  2  0
 24 22  1  0
 25 24  1  0
 26 27  1  0
 25 26  1  6
 28 29  1  0
 28 27  1  0
 29 30  1  0
 31 25  1  0
 31 33  1  0
 32 31  2  0
M  END
$$$$
