YFK.pdb
     RDKit          3D

 33 34  0  0  1  0  0  0  0  0999 V2000
    8.7285  -22.3083   16.8943 O   0  0  0  0  0  0  0  0  0  0  0  0
    8.9338  -21.4297   17.9689 C   0  0  0  0  0  0  0  0  0  0  0  0
    7.8879  -21.0023   18.7581 C   0  0  0  0  0  0  0  0  0  0  0  0
    8.0907  -20.1394   19.8133 C   0  0  0  0  0  0  0  0  0  0  0  0
    9.3652  -19.6570   20.1333 C   0  0  0  0  0  0  0  0  0  0  0  0
    9.5710  -18.7224   21.2658 C   0  0  0  0  0  0  0  0  0  0  0  0
    9.6914  -17.3048   20.8517 C   0  0  2  0  0  0  0  0  0  0  0  0
   10.8835  -17.0670   20.0326 N   0  0  0  0  0  0  0  0  0  0  0  0
    9.6599  -16.2948   21.9035 C   0  0  0  0  0  0  0  0  0  0  0  0
   10.7938  -15.9633   22.4003 O   0  0  0  0  0  0  0  0  0  0  0  0
   10.3910  -20.1017   19.3267 C   0  0  0  0  0  0  0  0  0  0  0  0
   10.1950  -20.9641   18.2704 C   0  0  0  0  0  0  0  0  0  0  0  0
    8.4850  -15.6766   22.3945 N   0  0  0  0  0  0  0  0  0  0  0  0
    8.5325  -14.9086   23.6139 C   0  0  1  0  0  0  0  0  0  0  0  0
    7.3065  -14.0293   23.7546 C   0  0  0  0  0  0  0  0  0  0  0  0
    7.2779  -13.2832   25.0130 C   0  0  0  0  0  0  0  0  0  0  0  0
    6.3408  -13.5405   25.9829 C   0  0  0  0  0  0  0  0  0  0  0  0
    6.3049  -12.8304   27.1827 C   0  0  0  0  0  0  0  0  0  0  0  0
    7.2220  -11.8358   27.4333 C   0  0  0  0  0  0  0  0  0  0  0  0
    8.1667  -11.5701   26.4662 C   0  0  0  0  0  0  0  0  0  0  0  0
    8.1956  -12.2853   25.2683 C   0  0  0  0  0  0  0  0  0  0  0  0
    8.7459  -15.8208   24.7527 C   0  0  0  0  0  0  0  0  0  0  0  0
    7.8912  -16.7251   25.0132 O   0  0  0  0  0  0  0  0  0  0  0  0
    9.8746  -15.7776   25.6224 N   0  0  0  0  0  0  0  0  0  0  0  0
   10.0822  -16.7761   26.6864 C   0  0  1  0  0  0  0  0  0  0  0  0
   11.4058  -17.4432   26.3556 C   0  0  0  0  0  0  0  0  0  0  0  0
   11.4025  -18.1942   25.0633 C   0  0  0  0  0  0  0  0  0  0  0  0
   12.8150  -18.7706   24.8962 C   0  0  0  0  0  0  0  0  0  0  0  0
   12.9084  -19.5974   23.6368 C   0  0  0  0  0  0  0  0  0  0  0  0
   14.2746  -19.9819   23.3723 N   0  0  0  0  0  0  0  0  0  0  0  0
   10.0427  -16.1559   28.0043 C   0  0  0  0  0  0  0  0  0  0  0  0
   10.1033  -14.9073   28.1048 O   0  0  0  0  0  0  0  0  0  0  0  0
    9.9392  -16.8908   29.1691 O   0  0  0  0  0  0  0  0  0  0  0  0
  2  1  1  0
  3  2  2  0
  4  3  1  0
  5 11  1  0
  5  4  2  0
  6  5  1  0
  7  6  1  0
  7  8  1  1
  9  7  1  0
  9 10  2  0
 11 12  2  0
 12  2  1  0
 13  9  1  0
 14 13  1  0
 14 15  1  1
 16 15  1  0
 16 17  2  0
 17 18  1  0
 19 18  2  0
 20 19  1  0
 21 20  2  0
 21 16  1  0
 22 14  1  0
 23 22  2  0
 24 22  1  0
 25 24  1  0
 26 27  1  0
 25 26  1  6
 28 29  1  0
 28 27  1  0
 29 30  1  0
 31 25  1  0
 31 33  1  0
 32 31  2  0
M  END
$$$$
