EQF.pdb
     RDKit          3D

 30 30  0  0  1  0  0  0  0  0999 V2000
    8.4378  -17.9800   19.6723 N   0  0  0  0  0  0  0  0  0  0  0  0
    8.4871  -16.5585   19.9050 C   0  0  1  0  0  0  0  0  0  0  0  0
    7.6814  -15.7533   18.9361 C   0  0  0  0  0  0  0  0  0  0  0  0
    7.2211  -16.5021   17.7343 C   0  0  0  0  0  0  0  0  0  0  0  0
    7.6065  -15.7608   16.5126 C   0  0  0  0  0  0  0  0  0  0  0  0
    8.3026  -14.7247   16.6313 O   0  0  0  0  0  0  0  0  0  0  0  0
    8.1137  -16.3190   21.3162 C   0  0  0  0  0  0  0  0  0  0  0  0
    8.1861  -15.1446   21.7533 O   0  0  0  0  0  0  0  0  0  0  0  0
    7.2407  -16.1481   15.2399 O   0  0  0  0  0  0  0  0  0  0  0  0
    5.4506  -20.8017   23.2606 N   0  0  0  0  0  0  0  0  0  0  0  0
    6.2100  -20.4856   24.4047 C   0  0  0  0  0  0  0  0  0  0  0  0
    6.1764  -21.1456   25.4692 O   0  0  0  0  0  0  0  0  0  0  0  0
    7.1072  -19.2967   24.3493 C   0  0  0  0  0  0  0  0  0  0  0  0
    6.3214  -18.0273   24.1254 C   0  0  0  0  0  0  0  0  0  0  0  0
    7.2490  -16.9883   23.5425 C   0  0  2  0  0  0  0  0  0  0  0  0
    7.6773  -17.3343   22.2122 N   0  0  0  0  0  0  0  0  0  0  0  0
    8.3940  -16.8353   24.4804 C   0  0  0  0  0  0  0  0  0  0  0  0
    9.3462  -17.6301   24.3309 O   0  0  0  0  0  0  0  0  0  0  0  0
    8.3801  -15.8449   25.4694 N   0  0  0  0  0  0  0  0  0  0  0  0
    9.4189  -15.6148   26.4147 C   0  0  1  0  0  0  0  0  0  0  0  0
    9.5468  -14.1507   26.7571 C   0  0  0  0  0  0  0  0  0  0  0  0
    8.3152  -13.4167   26.3780 C   0  0  0  0  0  0  0  0  0  0  0  0
    7.3567  -13.1868   27.3396 C   0  0  0  0  0  0  0  0  0  0  0  0
    6.2256  -12.4937   26.9235 C   0  0  0  0  0  0  0  0  0  0  0  0
    6.0512  -12.0543   25.6363 C   0  0  0  0  0  0  0  0  0  0  0  0
    7.0236  -12.2991   24.7027 C   0  0  0  0  0  0  0  0  0  0  0  0
    8.1431  -12.9774   25.0863 C   0  0  0  0  0  0  0  0  0  0  0  0
    9.2822  -16.4141   27.6817 C   0  0  0  0  0  0  0  0  0  0  0  0
   10.3794  -16.4235   28.5591 O   0  0  0  0  0  0  0  0  0  0  0  0
    8.2973  -17.0559   28.0120 O   0  0  0  0  0  0  0  0  0  0  0  0
  2  1  1  6
  2  3  1  0
  3  4  1  0
  5  4  1  0
  5  6  2  0
  7  2  1  0
  7  8  2  0
  9  5  1  0
 10 11  1  0
 11 12  2  0
 11 13  1  0
 13 14  1  0
 15 14  1  1
 15 16  1  0
 16  7  1  0
 17 15  1  0
 18 17  2  0
 19 17  1  0
 20 28  1  0
 20 19  1  0
 21 22  1  0
 20 21  1  1
 22 23  2  0
 23 24  1  0
 25 24  2  0
 26 25  1  0
 27 22  1  0
 27 26  2  0
 28 29  1  0
 30 28  2  0
M  END
$$$$
