EQF.pdb
     RDKit          3D

 30 30  0  0  1  0  0  0  0  0999 V2000
    6.4424  -15.4165   19.9694 N   0  0  0  0  0  0  0  0  0  0  0  0
    7.7244  -15.0188   20.4943 C   0  0  1  0  0  0  0  0  0  0  0  0
    7.9442  -13.5398   20.5124 C   0  0  0  0  0  0  0  0  0  0  0  0
    7.8050  -12.8725   19.1888 C   0  0  0  0  0  0  0  0  0  0  0  0
    8.9843  -13.1857   18.3510 C   0  0  0  0  0  0  0  0  0  0  0  0
    9.8770  -13.9295   18.8220 O   0  0  0  0  0  0  0  0  0  0  0  0
    7.8833  -15.6494   21.8230 C   0  0  0  0  0  0  0  0  0  0  0  0
    6.8511  -15.8416   22.5108 O   0  0  0  0  0  0  0  0  0  0  0  0
    9.1589  -12.7020   17.0708 O   0  0  0  0  0  0  0  0  0  0  0  0
   11.2656  -20.3978   22.8225 N   0  0  0  0  0  0  0  0  0  0  0  0
   10.1307  -20.1381   22.0288 C   0  0  0  0  0  0  0  0  0  0  0  0
    9.7446  -20.8827   21.0979 O   0  0  0  0  0  0  0  0  0  0  0  0
    9.3402  -18.9062   22.3098 C   0  0  0  0  0  0  0  0  0  0  0  0
    9.9613  -18.0991   23.4242 C   0  0  0  0  0  0  0  0  0  0  0  0
    9.1695  -16.8241   23.5888 C   0  0  2  0  0  0  0  0  0  0  0  0
    9.1316  -16.0529   22.3735 N   0  0  0  0  0  0  0  0  0  0  0  0
    9.7734  -16.0659   24.7177 C   0  0  0  0  0  0  0  0  0  0  0  0
   10.9004  -15.5668   24.5135 O   0  0  0  0  0  0  0  0  0  0  0  0
    9.0939  -15.9337   25.9342 N   0  0  0  0  0  0  0  0  0  0  0  0
    9.6046  -15.2837   27.0928 C   0  0  1  0  0  0  0  0  0  0  0  0
    8.5004  -14.6796   27.9254 C   0  0  0  0  0  0  0  0  0  0  0  0
    7.8040  -13.6095   27.1710 C   0  0  0  0  0  0  0  0  0  0  0  0
    8.5568  -12.6865   26.4799 C   0  0  0  0  0  0  0  0  0  0  0  0
    7.8469  -11.7087   25.7922 C   0  0  0  0  0  0  0  0  0  0  0  0
    6.4770  -11.6459   25.7869 C   0  0  0  0  0  0  0  0  0  0  0  0
    5.7566  -12.5794   26.4846 C   0  0  0  0  0  0  0  0  0  0  0  0
    6.4301  -13.5491   27.1676 C   0  0  0  0  0  0  0  0  0  0  0  0
   10.4610  -16.1638   27.9616 C   0  0  0  0  0  0  0  0  0  0  0  0
   11.1359  -15.5524   29.0313 O   0  0  0  0  0  0  0  0  0  0  0  0
   10.6191  -17.3658   27.8152 O   0  0  0  0  0  0  0  0  0  0  0  0
  2  1  1  1
  2  3  1  0
  3  4  1  0
  5  4  1  0
  5  6  2  0
  7  2  1  0
  7  8  2  0
  9  5  1  0
 10 11  1  0
 11 12  2  0
 11 13  1  0
 13 14  1  0
 15 14  1  6
 15 16  1  0
 16  7  1  0
 17 15  1  0
 18 17  2  0
 19 17  1  0
 20 28  1  0
 20 19  1  0
 21 22  1  0
 20 21  1  1
 22 23  2  0
 23 24  1  0
 25 24  2  0
 26 25  1  0
 27 22  1  0
 27 26  2  0
 28 29  1  0
 30 28  2  0
M  END
$$$$
