EQF.pdb
     RDKit          3D

 30 30  0  0  1  0  0  0  0  0999 V2000
    6.0637  -15.7478   19.5858 N   0  0  0  0  0  0  0  0  0  0  0  0
    7.3593  -16.0774   20.1244 C   0  0  1  0  0  0  0  0  0  0  0  0
    8.3984  -15.0254   19.9017 C   0  0  0  0  0  0  0  0  0  0  0  0
    7.9993  -13.9448   18.9584 C   0  0  0  0  0  0  0  0  0  0  0  0
    9.0942  -12.9548   18.8492 C   0  0  0  0  0  0  0  0  0  0  0  0
   10.1754  -13.3085   18.3219 O   0  0  0  0  0  0  0  0  0  0  0  0
    7.1792  -16.4282   21.5502 C   0  0  0  0  0  0  0  0  0  0  0  0
    6.2425  -15.8773   22.1784 O   0  0  0  0  0  0  0  0  0  0  0  0
    8.9923  -11.6542   19.2982 O   0  0  0  0  0  0  0  0  0  0  0  0
    5.8154  -20.0513   25.4362 N   0  0  0  0  0  0  0  0  0  0  0  0
    5.7087  -20.2953   24.0526 C   0  0  0  0  0  0  0  0  0  0  0  0
    4.7221  -20.8503   23.5155 O   0  0  0  0  0  0  0  0  0  0  0  0
    6.8338  -19.8695   23.1724 C   0  0  0  0  0  0  0  0  0  0  0  0
    7.8812  -19.1105   23.9508 C   0  0  0  0  0  0  0  0  0  0  0  0
    7.7328  -17.6400   23.6424 C   0  0  2  0  0  0  0  0  0  0  0  0
    7.9997  -17.3505   22.2575 N   0  0  0  0  0  0  0  0  0  0  0  0
    8.6414  -16.8978   24.5577 C   0  0  0  0  0  0  0  0  0  0  0  0
    9.8259  -16.7684   24.1820 O   0  0  0  0  0  0  0  0  0  0  0  0
    8.1690  -16.3819   25.7701 N   0  0  0  0  0  0  0  0  0  0  0  0
    8.9781  -15.7926   26.7818 C   0  0  1  0  0  0  0  0  0  0  0  0
    8.1636  -14.9315   27.7158 C   0  0  0  0  0  0  0  0  0  0  0  0
    7.4706  -13.8573   26.9640 C   0  0  0  0  0  0  0  0  0  0  0  0
    6.0942  -13.8569   26.9233 C   0  0  0  0  0  0  0  0  0  0  0  0
    5.5030  -12.8246   26.2036 C   0  0  0  0  0  0  0  0  0  0  0  0
    6.2267  -11.8517   25.5630 C   0  0  0  0  0  0  0  0  0  0  0  0
    7.5952  -11.8802   25.6224 C   0  0  0  0  0  0  0  0  0  0  0  0
    8.1990  -12.8830   26.3225 C   0  0  0  0  0  0  0  0  0  0  0  0
    9.7750  -16.7846   27.5841 C   0  0  0  0  0  0  0  0  0  0  0  0
   10.7844  -16.2760   28.4183 O   0  0  0  0  0  0  0  0  0  0  0  0
    9.6182  -17.9955   27.5713 O   0  0  0  0  0  0  0  0  0  0  0  0
  2  1  1  1
  2  3  1  0
  3  4  1  0
  5  4  1  0
  5  6  2  0
  7  2  1  0
  7  8  2  0
  9  5  1  0
 10 11  1  0
 11 12  2  0
 11 13  1  0
 13 14  1  0
 15 14  1  6
 15 16  1  0
 16  7  1  0
 17 15  1  0
 18 17  2  0
 19 17  1  0
 20 28  1  0
 20 19  1  0
 21 22  1  0
 20 21  1  1
 22 23  2  0
 23 24  1  0
 25 24  2  0
 26 25  1  0
 27 22  1  0
 27 26  2  0
 28 29  1  0
 30 28  2  0
M  END
$$$$
