EQF.pdb
     RDKit          3D

 30 30  0  0  1  0  0  0  0  0999 V2000
    5.6812  -16.0122   20.0055 N   0  0  0  0  0  0  0  0  0  0  0  0
    6.9270  -15.7092   20.6639 C   0  0  1  0  0  0  0  0  0  0  0  0
    7.3724  -14.2907   20.5041 C   0  0  0  0  0  0  0  0  0  0  0  0
    7.3909  -13.7976   19.0994 C   0  0  0  0  0  0  0  0  0  0  0  0
    8.7921  -13.6404   18.6491 C   0  0  0  0  0  0  0  0  0  0  0  0
    9.3775  -14.6287   18.1465 O   0  0  0  0  0  0  0  0  0  0  0  0
    6.8035  -16.1270   22.0776 C   0  0  0  0  0  0  0  0  0  0  0  0
    5.8184  -15.7063   22.7320 O   0  0  0  0  0  0  0  0  0  0  0  0
    9.4968  -12.4587   18.7518 O   0  0  0  0  0  0  0  0  0  0  0  0
    7.7462  -21.5035   24.9171 N   0  0  0  0  0  0  0  0  0  0  0  0
    7.3412  -20.6649   25.9746 C   0  0  0  0  0  0  0  0  0  0  0  0
    7.0072  -21.0822   27.1079 O   0  0  0  0  0  0  0  0  0  0  0  0
    7.3067  -19.1942   25.7350 C   0  0  0  0  0  0  0  0  0  0  0  0
    7.5621  -18.8697   24.2829 C   0  0  0  0  0  0  0  0  0  0  0  0
    7.4930  -17.3714   24.1094 C   0  0  2  0  0  0  0  0  0  0  0  0
    7.7297  -16.9757   22.7454 N   0  0  0  0  0  0  0  0  0  0  0  0
    8.4757  -16.7672   25.0492 C   0  0  0  0  0  0  0  0  0  0  0  0
    9.6635  -16.7286   24.6639 O   0  0  0  0  0  0  0  0  0  0  0  0
    8.0651  -16.2754   26.2937 N   0  0  0  0  0  0  0  0  0  0  0  0
    8.9356  -15.8249   27.3256 C   0  0  1  0  0  0  0  0  0  0  0  0
    8.2773  -14.7812   28.1943 C   0  0  0  0  0  0  0  0  0  0  0  0
    7.8713  -13.6080   27.3831 C   0  0  0  0  0  0  0  0  0  0  0  0
    6.5791  -13.5415   26.9120 C   0  0  0  0  0  0  0  0  0  0  0  0
    6.2589  -12.4178   26.1586 C   0  0  0  0  0  0  0  0  0  0  0  0
    7.1596  -11.4201   25.8868 C   0  0  0  0  0  0  0  0  0  0  0  0
    8.4380  -11.5159   26.3701 C   0  0  0  0  0  0  0  0  0  0  0  0
    8.7768  -12.6091   27.1121 C   0  0  0  0  0  0  0  0  0  0  0  0
    9.4786  -16.9272   28.1936 C   0  0  0  0  0  0  0  0  0  0  0  0
   10.4517  -16.5781   29.1447 O   0  0  0  0  0  0  0  0  0  0  0  0
    9.1444  -18.1005   28.1409 O   0  0  0  0  0  0  0  0  0  0  0  0
  2  1  1  1
  2  3  1  0
  3  4  1  0
  5  4  1  0
  5  6  2  0
  7  2  1  0
  7  8  2  0
  9  5  1  0
 10 11  1  0
 11 12  2  0
 11 13  1  0
 13 14  1  0
 15 14  1  6
 15 16  1  0
 16  7  1  0
 17 15  1  0
 18 17  2  0
 19 17  1  0
 20 28  1  0
 20 19  1  0
 21 22  1  0
 20 21  1  1
 22 23  2  0
 23 24  1  0
 25 24  2  0
 26 25  1  0
 27 22  1  0
 27 26  2  0
 28 29  1  0
 30 28  2  0
M  END
$$$$
