EQF.pdb
     RDKit          3D

 30 30  0  0  1  0  0  0  0  0999 V2000
    8.2661  -13.9275   18.8561 N   0  0  0  0  0  0  0  0  0  0  0  0
    8.9294  -14.9283   19.6534 C   0  0  1  0  0  0  0  0  0  0  0  0
   10.4071  -15.0013   19.4355 C   0  0  0  0  0  0  0  0  0  0  0  0
   10.9037  -14.2262   18.2654 C   0  0  0  0  0  0  0  0  0  0  0  0
   12.3710  -14.3861   18.1534 C   0  0  0  0  0  0  0  0  0  0  0  0
   12.8295  -15.1117   17.2395 O   0  0  0  0  0  0  0  0  0  0  0  0
    8.5579  -14.6984   21.0666 C   0  0  0  0  0  0  0  0  0  0  0  0
    9.4139  -14.1786   21.8235 O   0  0  0  0  0  0  0  0  0  0  0  0
   13.2703  -13.7772   19.0043 O   0  0  0  0  0  0  0  0  0  0  0  0
    6.3942  -20.2729   21.1973 N   0  0  0  0  0  0  0  0  0  0  0  0
    6.2475  -19.5547   22.4006 C   0  0  0  0  0  0  0  0  0  0  0  0
    5.2674  -19.6769   23.1716 O   0  0  0  0  0  0  0  0  0  0  0  0
    7.3192  -18.5917   22.7825 C   0  0  0  0  0  0  0  0  0  0  0  0
    7.4247  -17.4650   21.7833 C   0  0  0  0  0  0  0  0  0  0  0  0
    7.1632  -16.1633   22.5022 C   0  0  2  0  0  0  0  0  0  0  0  0
    7.2919  -15.0285   21.6255 N   0  0  0  0  0  0  0  0  0  0  0  0
    8.1019  -16.0933   23.6547 C   0  0  0  0  0  0  0  0  0  0  0  0
    9.3174  -16.2098   23.3906 O   0  0  0  0  0  0  0  0  0  0  0  0
    7.6225  -15.9062   24.9564 N   0  0  0  0  0  0  0  0  0  0  0  0
    8.4330  -15.7929   26.1208 C   0  0  1  0  0  0  0  0  0  0  0  0
    7.7461  -14.9961   27.2027 C   0  0  0  0  0  0  0  0  0  0  0  0
    7.3053  -13.6797   26.6810 C   0  0  0  0  0  0  0  0  0  0  0  0
    5.9990  -13.2911   26.8778 C   0  0  0  0  0  0  0  0  0  0  0  0
    5.6464  -12.0473   26.3663 C   0  0  0  0  0  0  0  0  0  0  0  0
    6.5298  -11.2363   25.7010 C   0  0  0  0  0  0  0  0  0  0  0  0
    7.8229  -11.6519   25.5216 C   0  0  0  0  0  0  0  0  0  0  0  0
    8.1934  -12.8687   26.0142 C   0  0  0  0  0  0  0  0  0  0  0  0
    8.8852  -17.1128   26.6831 C   0  0  0  0  0  0  0  0  0  0  0  0
    9.7655  -17.0793   27.7774 O   0  0  0  0  0  0  0  0  0  0  0  0
    8.5514  -18.2117   26.2682 O   0  0  0  0  0  0  0  0  0  0  0  0
  2  1  1  6
  2  3  1  0
  3  4  1  0
  5  4  1  0
  5  6  2  0
  7  2  1  0
  7  8  2  0
  9  5  1  0
 10 11  1  0
 11 12  2  0
 11 13  1  0
 13 14  1  0
 15 14  1  6
 15 16  1  0
 16  7  1  0
 17 15  1  0
 18 17  2  0
 19 17  1  0
 20 28  1  0
 20 19  1  0
 21 22  1  0
 20 21  1  1
 22 23  2  0
 23 24  1  0
 25 24  2  0
 26 25  1  0
 27 22  1  0
 27 26  2  0
 28 29  1  0
 30 28  2  0
M  END
$$$$
