EQF.pdb
     RDKit          3D

 30 30  0  0  1  0  0  0  0  0999 V2000
    7.1818  -19.4941   21.6683 N   0  0  0  0  0  0  0  0  0  0  0  0
    8.1404  -19.3025   20.6093 C   0  0  1  0  0  0  0  0  0  0  0  0
    7.6551  -19.7327   19.2618 C   0  0  0  0  0  0  0  0  0  0  0  0
    6.3640  -19.1227   18.8402 C   0  0  0  0  0  0  0  0  0  0  0  0
    6.0339  -19.5647   17.4667 C   0  0  0  0  0  0  0  0  0  0  0  0
    6.8609  -19.3484   16.5494 O   0  0  0  0  0  0  0  0  0  0  0  0
    8.5799  -17.8906   20.6486 C   0  0  0  0  0  0  0  0  0  0  0  0
    9.5068  -17.5407   19.8778 O   0  0  0  0  0  0  0  0  0  0  0  0
    4.8584  -20.2065   17.1353 O   0  0  0  0  0  0  0  0  0  0  0  0
    7.8853  -11.7530   18.9276 N   0  0  0  0  0  0  0  0  0  0  0  0
    8.4632  -12.8921   19.5224 C   0  0  0  0  0  0  0  0  0  0  0  0
    9.2536  -13.6636   18.9308 O   0  0  0  0  0  0  0  0  0  0  0  0
    8.1165  -13.2009   20.9387 C   0  0  0  0  0  0  0  0  0  0  0  0
    7.4713  -14.5603   21.0608 C   0  0  0  0  0  0  0  0  0  0  0  0
    8.5278  -15.5543   21.4799 C   0  0  2  0  0  0  0  0  0  0  0  0
    8.0203  -16.9014   21.5045 N   0  0  0  0  0  0  0  0  0  0  0  0
    9.0450  -15.1234   22.8069 C   0  0  0  0  0  0  0  0  0  0  0  0
    9.7741  -14.1089   22.8177 O   0  0  0  0  0  0  0  0  0  0  0  0
    8.7171  -15.8349   23.9669 N   0  0  0  0  0  0  0  0  0  0  0  0
    9.2489  -15.5816   25.2625 C   0  0  1  0  0  0  0  0  0  0  0  0
    8.1585  -15.4608   26.2988 C   0  0  0  0  0  0  0  0  0  0  0  0
    7.6298  -14.0759   26.3408 C   0  0  0  0  0  0  0  0  0  0  0  0
    8.5195  -13.0249   26.3306 C   0  0  0  0  0  0  0  0  0  0  0  0
    7.9634  -11.7513   26.3711 C   0  0  0  0  0  0  0  0  0  0  0  0
    6.6111  -11.5287   26.4187 C   0  0  0  0  0  0  0  0  0  0  0  0
    5.7520  -12.5959   26.4277 C   0  0  0  0  0  0  0  0  0  0  0  0
    6.2732  -13.8558   26.3886 C   0  0  0  0  0  0  0  0  0  0  0  0
   10.2612  -16.5966   25.7183 C   0  0  0  0  0  0  0  0  0  0  0  0
   10.8465  -16.4009   26.9804 O   0  0  0  0  0  0  0  0  0  0  0  0
   10.6173  -17.5770   25.0834 O   0  0  0  0  0  0  0  0  0  0  0  0
  2  1  1  1
  2  3  1  0
  3  4  1  0
  5  4  1  0
  5  6  2  0
  7  2  1  0
  7  8  2  0
  9  5  1  0
 10 11  1  0
 11 12  2  0
 11 13  1  0
 13 14  1  0
 15 14  1  1
 15 16  1  0
 16  7  1  0
 17 15  1  0
 18 17  2  0
 19 17  1  0
 20 28  1  0
 20 19  1  0
 21 22  1  0
 20 21  1  1
 22 23  2  0
 23 24  1  0
 25 24  2  0
 26 25  1  0
 27 22  1  0
 27 26  2  0
 28 29  1  0
 30 28  2  0
M  END
$$$$
