EQF.pdb
     RDKit          3D

 30 30  0  0  1  0  0  0  0  0999 V2000
    7.9639  -13.3817   18.9058 N   0  0  0  0  0  0  0  0  0  0  0  0
    8.4783  -14.6915   19.2174 C   0  0  1  0  0  0  0  0  0  0  0  0
    9.9411  -14.8517   18.9510 C   0  0  0  0  0  0  0  0  0  0  0  0
   10.8283  -14.0590   19.8461 C   0  0  0  0  0  0  0  0  0  0  0  0
   12.2430  -14.3249   19.5014 C   0  0  0  0  0  0  0  0  0  0  0  0
   12.8842  -15.1551   20.1881 O   0  0  0  0  0  0  0  0  0  0  0  0
    8.1009  -15.0042   20.6130 C   0  0  0  0  0  0  0  0  0  0  0  0
    7.4536  -14.1417   21.2554 O   0  0  0  0  0  0  0  0  0  0  0  0
   12.9018  -13.7062   18.4589 O   0  0  0  0  0  0  0  0  0  0  0  0
    6.4618  -20.5622   22.8552 N   0  0  0  0  0  0  0  0  0  0  0  0
    6.0079  -19.6538   23.8321 C   0  0  0  0  0  0  0  0  0  0  0  0
    5.2498  -19.9679   24.7790 O   0  0  0  0  0  0  0  0  0  0  0  0
    6.4535  -18.2347   23.7369 C   0  0  0  0  0  0  0  0  0  0  0  0
    7.3174  -18.0123   22.5190 C   0  0  0  0  0  0  0  0  0  0  0  0
    7.7634  -16.5699   22.5070 C   0  0  2  0  0  0  0  0  0  0  0  0
    8.4242  -16.2206   21.2763 N   0  0  0  0  0  0  0  0  0  0  0  0
    8.6373  -16.3628   23.6933 C   0  0  0  0  0  0  0  0  0  0  0  0
    9.8520  -16.6117   23.5403 O   0  0  0  0  0  0  0  0  0  0  0  0
    8.1017  -15.9121   24.9055 N   0  0  0  0  0  0  0  0  0  0  0  0
    8.8466  -15.6803   26.0958 C   0  0  1  0  0  0  0  0  0  0  0  0
    7.9911  -15.0699   27.1788 C   0  0  0  0  0  0  0  0  0  0  0  0
    7.4843  -13.7416   26.7567 C   0  0  0  0  0  0  0  0  0  0  0  0
    8.3798  -12.7065   26.6057 C   0  0  0  0  0  0  0  0  0  0  0  0
    7.8444  -11.4866   26.2080 C   0  0  0  0  0  0  0  0  0  0  0  0
    6.5063  -11.2999   25.9734 C   0  0  0  0  0  0  0  0  0  0  0  0
    5.6409  -12.3501   26.1327 C   0  0  0  0  0  0  0  0  0  0  0  0
    6.1418  -13.5574   26.5224 C   0  0  0  0  0  0  0  0  0  0  0  0
    9.5370  -16.9035   26.6344 C   0  0  0  0  0  0  0  0  0  0  0  0
   10.5460  -16.7049   27.5915 O   0  0  0  0  0  0  0  0  0  0  0  0
    9.2941  -18.0552   26.3095 O   0  0  0  0  0  0  0  0  0  0  0  0
  2  1  1  1
  2  3  1  0
  3  4  1  0
  5  4  1  0
  5  6  2  0
  7  2  1  0
  7  8  2  0
  9  5  1  0
 10 11  1  0
 11 12  2  0
 11 13  1  0
 13 14  1  0
 15 14  1  6
 15 16  1  0
 16  7  1  0
 17 15  1  0
 18 17  2  0
 19 17  1  0
 20 28  1  0
 20 19  1  0
 21 22  1  0
 20 21  1  1
 22 23  2  0
 23 24  1  0
 25 24  2  0
 26 25  1  0
 27 22  1  0
 27 26  2  0
 28 29  1  0
 30 28  2  0
M  END
$$$$
