EQF.pdb
     RDKit          3D

 30 30  0  0  1  0  0  0  0  0999 V2000
    6.4752  -15.7696   19.9259 N   0  0  0  0  0  0  0  0  0  0  0  0
    7.7881  -15.3497   20.3469 C   0  0  1  0  0  0  0  0  0  0  0  0
    7.9614  -13.8659   20.4157 C   0  0  0  0  0  0  0  0  0  0  0  0
    7.6158  -13.1391   19.1631 C   0  0  0  0  0  0  0  0  0  0  0  0
    8.8395  -12.5379   18.5869 C   0  0  0  0  0  0  0  0  0  0  0  0
    9.9403  -12.7629   19.1434 O   0  0  0  0  0  0  0  0  0  0  0  0
    8.0930  -16.0333   21.6228 C   0  0  0  0  0  0  0  0  0  0  0  0
    7.1334  -16.4947   22.2876 O   0  0  0  0  0  0  0  0  0  0  0  0
    8.8380  -11.7375   17.4632 O   0  0  0  0  0  0  0  0  0  0  0  0
   12.6797  -18.7493   21.2589 N   0  0  0  0  0  0  0  0  0  0  0  0
   11.4170  -19.3060   20.9739 C   0  0  0  0  0  0  0  0  0  0  0  0
   11.1919  -20.0656   20.0031 O   0  0  0  0  0  0  0  0  0  0  0  0
   10.2794  -18.9743   21.8780 C   0  0  0  0  0  0  0  0  0  0  0  0
   10.7213  -18.0747   23.0070 C   0  0  0  0  0  0  0  0  0  0  0  0
    9.6258  -17.0706   23.2740 C   0  0  2  0  0  0  0  0  0  0  0  0
    9.4048  -16.2022   22.1470 N   0  0  0  0  0  0  0  0  0  0  0  0
   10.0008  -16.3163   24.5006 C   0  0  0  0  0  0  0  0  0  0  0  0
   10.9862  -15.5542   24.4061 O   0  0  0  0  0  0  0  0  0  0  0  0
    9.2713  -16.4704   25.6852 N   0  0  0  0  0  0  0  0  0  0  0  0
    9.5765  -15.8406   26.9245 C   0  0  1  0  0  0  0  0  0  0  0  0
    8.3311  -15.3534   27.6238 C   0  0  0  0  0  0  0  0  0  0  0  0
    7.7829  -14.1572   26.9398 C   0  0  0  0  0  0  0  0  0  0  0  0
    6.5882  -14.2679   26.2640 C   0  0  0  0  0  0  0  0  0  0  0  0
    6.1260  -13.1126   25.6438 C   0  0  0  0  0  0  0  0  0  0  0  0
    6.8021  -11.9203   25.6882 C   0  0  0  0  0  0  0  0  0  0  0  0
    7.9885  -11.8429   26.3690 C   0  0  0  0  0  0  0  0  0  0  0  0
    8.4632  -12.9630   26.9860 C   0  0  0  0  0  0  0  0  0  0  0  0
   10.3756  -16.6984   27.8671 C   0  0  0  0  0  0  0  0  0  0  0  0
   10.9042  -16.0783   29.0115 O   0  0  0  0  0  0  0  0  0  0  0  0
   10.6037  -17.8891   27.7212 O   0  0  0  0  0  0  0  0  0  0  0  0
  2  1  1  1
  2  3  1  0
  3  4  1  0
  5  4  1  0
  5  6  2  0
  7  2  1  0
  7  8  2  0
  9  5  1  0
 10 11  1  0
 11 12  2  0
 11 13  1  0
 13 14  1  0
 15 14  1  6
 15 16  1  0
 16  7  1  0
 17 15  1  0
 18 17  2  0
 19 17  1  0
 20 28  1  0
 20 19  1  0
 21 22  1  0
 20 21  1  1
 22 23  2  0
 23 24  1  0
 25 24  2  0
 26 25  1  0
 27 22  1  0
 27 26  2  0
 28 29  1  0
 30 28  2  0
M  END
$$$$
