EQF.pdb
     RDKit          3D

 30 30  0  0  1  0  0  0  0  0999 V2000
    7.0600  -15.6094   21.0028 N   0  0  0  0  0  0  0  0  0  0  0  0
    7.4439  -16.9985   20.9825 C   0  0  1  0  0  0  0  0  0  0  0  0
    7.5126  -17.5926   19.6119 C   0  0  0  0  0  0  0  0  0  0  0  0
    8.3993  -16.8666   18.6614 C   0  0  0  0  0  0  0  0  0  0  0  0
    8.3242  -17.5062   17.3287 C   0  0  0  0  0  0  0  0  0  0  0  0
    7.3436  -18.2431   17.0690 O   0  0  0  0  0  0  0  0  0  0  0  0
    8.7081  -17.1283   21.7396 C   0  0  0  0  0  0  0  0  0  0  0  0
    9.0827  -18.2807   22.0672 O   0  0  0  0  0  0  0  0  0  0  0  0
    9.2794  -17.3364   16.3478 O   0  0  0  0  0  0  0  0  0  0  0  0
   13.9183  -13.9983   21.4190 N   0  0  0  0  0  0  0  0  0  0  0  0
   12.9988  -14.5117   20.4828 C   0  0  0  0  0  0  0  0  0  0  0  0
   13.0792  -14.3191   19.2473 O   0  0  0  0  0  0  0  0  0  0  0  0
   11.8620  -15.3328   20.9880 C   0  0  0  0  0  0  0  0  0  0  0  0
   11.8606  -15.3972   22.4963 C   0  0  0  0  0  0  0  0  0  0  0  0
   10.6953  -16.2504   22.9365 C   0  0  2  0  0  0  0  0  0  0  0  0
    9.5288  -16.0307   22.1216 N   0  0  0  0  0  0  0  0  0  0  0  0
   10.4424  -15.9542   24.3726 C   0  0  0  0  0  0  0  0  0  0  0  0
   11.3099  -15.2755   24.9623 O   0  0  0  0  0  0  0  0  0  0  0  0
    9.2856  -16.4231   25.0060 N   0  0  0  0  0  0  0  0  0  0  0  0
    9.0273  -16.3473   26.4035 C   0  0  1  0  0  0  0  0  0  0  0  0
    7.5983  -15.9528   26.6858 C   0  0  0  0  0  0  0  0  0  0  0  0
    7.3369  -14.5699   26.2184 C   0  0  0  0  0  0  0  0  0  0  0  0
    6.5358  -14.3825   25.1141 C   0  0  0  0  0  0  0  0  0  0  0  0
    6.3277  -13.0641   24.7251 C   0  0  0  0  0  0  0  0  0  0  0  0
    6.8769  -11.9955   25.3861 C   0  0  0  0  0  0  0  0  0  0  0  0
    7.6697  -12.2154   26.4817 C   0  0  0  0  0  0  0  0  0  0  0  0
    7.8891  -13.5003   26.8832 C   0  0  0  0  0  0  0  0  0  0  0  0
    9.3558  -17.6076   27.1564 C   0  0  0  0  0  0  0  0  0  0  0  0
    9.3685  -17.5352   28.5593 O   0  0  0  0  0  0  0  0  0  0  0  0
    9.6124  -18.6889   26.6505 O   0  0  0  0  0  0  0  0  0  0  0  0
  2  1  1  6
  2  3  1  0
  3  4  1  0
  5  4  1  0
  5  6  2  0
  7  2  1  0
  7  8  2  0
  9  5  1  0
 10 11  1  0
 11 12  2  0
 11 13  1  0
 13 14  1  0
 15 14  1  6
 15 16  1  0
 16  7  1  0
 17 15  1  0
 18 17  2  0
 19 17  1  0
 20 28  1  0
 20 19  1  0
 21 22  1  0
 20 21  1  6
 22 23  2  0
 23 24  1  0
 25 24  2  0
 26 25  1  0
 27 22  1  0
 27 26  2  0
 28 29  1  0
 30 28  2  0
M  END
$$$$
