EQF.pdb
     RDKit          3D

 30 30  0  0  1  0  0  0  0  0999 V2000
    7.7301  -19.2734   19.5739 N   0  0  0  0  0  0  0  0  0  0  0  0
    8.1099  -17.9172   19.8802 C   0  0  1  0  0  0  0  0  0  0  0  0
    7.7536  -16.9287   18.8163 C   0  0  0  0  0  0  0  0  0  0  0  0
    8.3923  -17.1777   17.4947 C   0  0  0  0  0  0  0  0  0  0  0  0
    8.0481  -16.0790   16.5645 C   0  0  0  0  0  0  0  0  0  0  0  0
    6.8429  -15.8912   16.2743 O   0  0  0  0  0  0  0  0  0  0  0  0
    7.5452  -17.5788   21.2049 C   0  0  0  0  0  0  0  0  0  0  0  0
    6.5688  -16.7910   21.2451 O   0  0  0  0  0  0  0  0  0  0  0  0
    8.9855  -15.2428   15.9938 O   0  0  0  0  0  0  0  0  0  0  0  0
    6.5287  -21.5713   24.5541 N   0  0  0  0  0  0  0  0  0  0  0  0
    5.5683  -20.8971   23.7740 C   0  0  0  0  0  0  0  0  0  0  0  0
    4.6301  -21.4701   23.1727 O   0  0  0  0  0  0  0  0  0  0  0  0
    5.6709  -19.4149   23.6545 C   0  0  0  0  0  0  0  0  0  0  0  0
    6.8550  -18.8839   24.4259 C   0  0  0  0  0  0  0  0  0  0  0  0
    7.4186  -17.6988   23.6792 C   0  0  2  0  0  0  0  0  0  0  0  0
    8.0372  -18.0884   22.4388 N   0  0  0  0  0  0  0  0  0  0  0  0
    8.3709  -17.0085   24.5905 C   0  0  0  0  0  0  0  0  0  0  0  0
    9.5865  -17.1738   24.3544 O   0  0  0  0  0  0  0  0  0  0  0  0
    7.9035  -16.2212   25.6492 N   0  0  0  0  0  0  0  0  0  0  0  0
    8.7208  -15.6178   26.6461 C   0  0  1  0  0  0  0  0  0  0  0  0
    8.0179  -14.4655   27.3208 C   0  0  0  0  0  0  0  0  0  0  0  0
    7.5867  -13.4594   26.3202 C   0  0  0  0  0  0  0  0  0  0  0  0
    6.3816  -12.8178   26.5004 C   0  0  0  0  0  0  0  0  0  0  0  0
    6.0329  -11.8857   25.5296 C   0  0  0  0  0  0  0  0  0  0  0  0
    6.8256  -11.6040   24.4467 C   0  0  0  0  0  0  0  0  0  0  0  0
    8.0191  -12.2597   24.2959 C   0  0  0  0  0  0  0  0  0  0  0  0
    8.3837  -13.1791   25.2352 C   0  0  0  0  0  0  0  0  0  0  0  0
    9.2224  -16.5775   27.6902 C   0  0  0  0  0  0  0  0  0  0  0  0
   10.1824  -16.0987   28.5972 O   0  0  0  0  0  0  0  0  0  0  0  0
    8.8653  -17.7384   27.8158 O   0  0  0  0  0  0  0  0  0  0  0  0
  2  1  1  6
  2  3  1  0
  3  4  1  0
  5  4  1  0
  5  6  2  0
  7  2  1  0
  7  8  2  0
  9  5  1  0
 10 11  1  0
 11 12  2  0
 11 13  1  0
 13 14  1  0
 15 14  1  1
 15 16  1  0
 16  7  1  0
 17 15  1  0
 18 17  2  0
 19 17  1  0
 20 28  1  0
 20 19  1  0
 21 22  1  0
 20 21  1  1
 22 23  2  0
 23 24  1  0
 25 24  2  0
 26 25  1  0
 27 22  1  0
 27 26  2  0
 28 29  1  0
 30 28  2  0
M  END
$$$$
