EQF.pdb
     RDKit          3D

 30 30  0  0  1  0  0  0  0  0999 V2000
   10.0663  -16.3606   15.1007 N   0  0  0  0  0  0  0  0  0  0  0  0
   10.8739  -17.2925   15.8468 C   0  0  1  0  0  0  0  0  0  0  0  0
   12.3439  -17.1498   15.6126 C   0  0  0  0  0  0  0  0  0  0  0  0
   12.9510  -15.9197   16.1915 C   0  0  0  0  0  0  0  0  0  0  0  0
   14.4143  -15.9392   15.9695 C   0  0  0  0  0  0  0  0  0  0  0  0
   14.9099  -16.8795   15.3045 O   0  0  0  0  0  0  0  0  0  0  0  0
   10.4955  -17.1771   17.2722 C   0  0  0  0  0  0  0  0  0  0  0  0
    9.8002  -16.1912   17.6189 O   0  0  0  0  0  0  0  0  0  0  0  0
   15.2711  -14.9737   16.4564 O   0  0  0  0  0  0  0  0  0  0  0  0
   10.7499  -21.8667   21.3785 N   0  0  0  0  0  0  0  0  0  0  0  0
    9.7154  -21.7625   20.4274 C   0  0  0  0  0  0  0  0  0  0  0  0
    8.9485  -22.7057   20.1238 O   0  0  0  0  0  0  0  0  0  0  0  0
    9.5185  -20.4548   19.7398 C   0  0  0  0  0  0  0  0  0  0  0  0
   10.4252  -19.3926   20.3129 C   0  0  0  0  0  0  0  0  0  0  0  0
   10.1974  -18.1089   19.5514 C   0  0  2  0  0  0  0  0  0  0  0  0
   10.8687  -18.1118   18.2777 N   0  0  0  0  0  0  0  0  0  0  0  0
   10.6458  -16.9880   20.4213 C   0  0  0  0  0  0  0  0  0  0  0  0
   11.8147  -16.5824   20.2485 O   0  0  0  0  0  0  0  0  0  0  0  0
    9.7837  -16.4350   21.3754 N   0  0  0  0  0  0  0  0  0  0  0  0
   10.1454  -15.4453   22.3321 C   0  0  1  0  0  0  0  0  0  0  0  0
    9.0219  -14.4674   22.5744 C   0  0  0  0  0  0  0  0  0  0  0  0
    8.6269  -13.8026   21.3090 C   0  0  0  0  0  0  0  0  0  0  0  0
    9.5051  -12.9205   20.7200 C   0  0  0  0  0  0  0  0  0  0  0  0
    9.0782  -12.3300   19.5360 C   0  0  0  0  0  0  0  0  0  0  0  0
    7.8585  -12.5943   18.9677 C   0  0  0  0  0  0  0  0  0  0  0  0
    7.0071  -13.4770   19.5785 C   0  0  0  0  0  0  0  0  0  0  0  0
    7.4030  -14.0696   20.7415 C   0  0  0  0  0  0  0  0  0  0  0  0
   10.6117  -16.0065   23.6477 C   0  0  0  0  0  0  0  0  0  0  0  0
   10.4009  -17.3768   23.8746 O   0  0  0  0  0  0  0  0  0  0  0  0
   11.1583  -15.3708   24.5354 O   0  0  0  0  0  0  0  0  0  0  0  0
  2  1  1  6
  2  3  1  0
  3  4  1  0
  5  4  1  0
  5  6  2  0
  7  2  1  0
  7  8  2  0
  9  5  1  0
 10 11  1  0
 11 12  2  0
 11 13  1  0
 13 14  1  0
 15 14  1  1
 15 16  1  0
 16  7  1  0
 17 15  1  0
 18 17  2  0
 19 17  1  0
 20 28  1  0
 20 19  1  0
 21 22  1  0
 20 21  1  1
 22 23  2  0
 23 24  1  0
 25 24  2  0
 26 25  1  0
 27 22  1  0
 27 26  2  0
 28 29  1  0
 30 28  2  0
M  END
$$$$
