EQF.pdb
     RDKit          3D

 30 30  0  0  1  0  0  0  0  0999 V2000
    8.2832  -13.0729   19.0678 N   0  0  0  0  0  0  0  0  0  0  0  0
    8.6975  -14.4486   19.1820 C   0  0  1  0  0  0  0  0  0  0  0  0
   10.1524  -14.6716   18.9178 C   0  0  0  0  0  0  0  0  0  0  0  0
   11.0100  -13.4675   19.0949 C   0  0  0  0  0  0  0  0  0  0  0  0
   12.4315  -13.8442   18.9272 C   0  0  0  0  0  0  0  0  0  0  0  0
   13.2453  -13.5417   19.8319 O   0  0  0  0  0  0  0  0  0  0  0  0
    8.2619  -14.9425   20.5065 C   0  0  0  0  0  0  0  0  0  0  0  0
    7.7522  -14.1180   21.3040 O   0  0  0  0  0  0  0  0  0  0  0  0
   12.9164  -14.5147   17.8233 O   0  0  0  0  0  0  0  0  0  0  0  0
    5.2279  -20.5458   21.3697 N   0  0  0  0  0  0  0  0  0  0  0  0
    6.4356  -20.0149   20.8747 C   0  0  0  0  0  0  0  0  0  0  0  0
    7.3390  -20.7064   20.3497 O   0  0  0  0  0  0  0  0  0  0  0  0
    6.6554  -18.5444   20.9801 C   0  0  0  0  0  0  0  0  0  0  0  0
    7.4989  -18.2015   22.1841 C   0  0  0  0  0  0  0  0  0  0  0  0
    7.7707  -16.7163   22.1692 C   0  0  2  0  0  0  0  0  0  0  0  0
    8.3831  -16.2932   20.9368 N   0  0  0  0  0  0  0  0  0  0  0  0
    8.6160  -16.4051   23.3535 C   0  0  0  0  0  0  0  0  0  0  0  0
    9.8527  -16.4401   23.1796 O   0  0  0  0  0  0  0  0  0  0  0  0
    8.0315  -16.0927   24.5864 N   0  0  0  0  0  0  0  0  0  0  0  0
    8.7454  -15.8108   25.7849 C   0  0  1  0  0  0  0  0  0  0  0  0
    7.8748  -15.1138   26.8016 C   0  0  0  0  0  0  0  0  0  0  0  0
    7.4030  -13.8092   26.2775 C   0  0  0  0  0  0  0  0  0  0  0  0
    6.1548  -13.3582   26.6448 C   0  0  0  0  0  0  0  0  0  0  0  0
    5.7693  -12.1291   26.1218 C   0  0  0  0  0  0  0  0  0  0  0  0
    6.5676  -11.3899   25.2870 C   0  0  0  0  0  0  0  0  0  0  0  0
    7.8045  -11.8664   24.9403 C   0  0  0  0  0  0  0  0  0  0  0  0
    8.2057  -13.0702   25.4405 C   0  0  0  0  0  0  0  0  0  0  0  0
    9.3827  -17.0181   26.4167 C   0  0  0  0  0  0  0  0  0  0  0  0
    9.1066  -18.2687   25.8394 O   0  0  0  0  0  0  0  0  0  0  0  0
   10.1203  -17.0026   27.3897 O   0  0  0  0  0  0  0  0  0  0  0  0
  2  1  1  1
  2  3  1  0
  3  4  1  0
  5  4  1  0
  5  6  2  0
  7  2  1  0
  7  8  2  0
  9  5  1  0
 10 11  1  0
 11 12  2  0
 11 13  1  0
 13 14  1  0
 15 14  1  6
 15 16  1  0
 16  7  1  0
 17 15  1  0
 18 17  2  0
 19 17  1  0
 20 28  1  0
 20 19  1  0
 21 22  1  0
 20 21  1  1
 22 23  2  0
 23 24  1  0
 25 24  2  0
 26 25  1  0
 27 22  1  0
 27 26  2  0
 28 29  1  0
 30 28  2  0
M  END
$$$$
