EQF.pdb
     RDKit          3D

 30 30  0  0  1  0  0  0  0  0999 V2000
   10.6848  -16.9296   20.2626 N   0  0  0  0  0  0  0  0  0  0  0  0
    9.5416  -16.0619   20.3951 C   0  0  1  0  0  0  0  0  0  0  0  0
    8.5701  -16.1552   19.2622 C   0  0  0  0  0  0  0  0  0  0  0  0
    9.0894  -16.8479   18.0509 C   0  0  0  0  0  0  0  0  0  0  0  0
    8.0073  -16.9682   17.0483 C   0  0  0  0  0  0  0  0  0  0  0  0
    6.9899  -17.6411   17.3383 O   0  0  0  0  0  0  0  0  0  0  0  0
    8.9270  -16.3237   21.7149 C   0  0  0  0  0  0  0  0  0  0  0  0
    7.9030  -15.6688   22.0280 O   0  0  0  0  0  0  0  0  0  0  0  0
    8.0546  -16.3773   15.8024 O   0  0  0  0  0  0  0  0  0  0  0  0
    8.0734  -21.4896   24.9847 N   0  0  0  0  0  0  0  0  0  0  0  0
    7.5236  -20.5027   25.8269 C   0  0  0  0  0  0  0  0  0  0  0  0
    6.8448  -20.7564   26.8492 O   0  0  0  0  0  0  0  0  0  0  0  0
    7.7610  -19.0715   25.4851 C   0  0  0  0  0  0  0  0  0  0  0  0
    8.6319  -18.9383   24.2592 C   0  0  0  0  0  0  0  0  0  0  0  0
    8.7352  -17.4745   23.9038 C   0  0  2  0  0  0  0  0  0  0  0  0
    9.4214  -17.2707   22.6545 N   0  0  0  0  0  0  0  0  0  0  0  0
    9.4121  -16.7867   25.0364 C   0  0  0  0  0  0  0  0  0  0  0  0
   10.6591  -16.7291   24.9876 O   0  0  0  0  0  0  0  0  0  0  0  0
    8.6676  -16.2414   26.0889 N   0  0  0  0  0  0  0  0  0  0  0  0
    9.2162  -15.6349   27.2537 C   0  0  1  0  0  0  0  0  0  0  0  0
    8.2355  -14.6908   27.9051 C   0  0  0  0  0  0  0  0  0  0  0  0
    7.9039  -13.5709   26.9914 C   0  0  0  0  0  0  0  0  0  0  0  0
    8.7880  -12.5211   26.8795 C   0  0  0  0  0  0  0  0  0  0  0  0
    8.4217  -11.5021   26.0074 C   0  0  0  0  0  0  0  0  0  0  0  0
    7.2536  -11.5186   25.2892 C   0  0  0  0  0  0  0  0  0  0  0  0
    6.3948  -12.5777   25.4228 C   0  0  0  0  0  0  0  0  0  0  0  0
    6.7317  -13.5901   26.2725 C   0  0  0  0  0  0  0  0  0  0  0  0
    9.7193  -16.6166   28.2764 C   0  0  0  0  0  0  0  0  0  0  0  0
    9.5387  -17.9825   28.0018 O   0  0  0  0  0  0  0  0  0  0  0  0
   10.2718  -16.3261   29.3259 O   0  0  0  0  0  0  0  0  0  0  0  0
  2  1  1  6
  2  3  1  0
  3  4  1  0
  5  4  1  0
  5  6  2  0
  7  2  1  0
  7  8  2  0
  9  5  1  0
 10 11  1  0
 11 12  2  0
 11 13  1  0
 13 14  1  0
 15 14  1  1
 15 16  1  0
 16  7  1  0
 17 15  1  0
 18 17  2  0
 19 17  1  0
 20 28  1  0
 20 19  1  0
 21 22  1  0
 20 21  1  1
 22 23  2  0
 23 24  1  0
 25 24  2  0
 26 25  1  0
 27 22  1  0
 27 26  2  0
 28 29  1  0
 30 28  2  0
M  END
$$$$
