EQF.pdb
     RDKit          3D

 30 30  0  0  1  0  0  0  0  0999 V2000
    9.6178  -17.1825   19.5636 N   0  0  0  0  0  0  0  0  0  0  0  0
    8.9993  -16.5845   20.7200 C   0  0  1  0  0  0  0  0  0  0  0  0
    7.5346  -16.8607   20.8399 C   0  0  0  0  0  0  0  0  0  0  0  0
    6.8025  -16.9162   19.5447 C   0  0  0  0  0  0  0  0  0  0  0  0
    5.3983  -17.3165   19.7874 C   0  0  0  0  0  0  0  0  0  0  0  0
    4.7472  -16.7194   20.6770 O   0  0  0  0  0  0  0  0  0  0  0  0
    9.7718  -17.0009   21.9108 C   0  0  0  0  0  0  0  0  0  0  0  0
    9.6109  -18.1702   22.3379 O   0  0  0  0  0  0  0  0  0  0  0  0
    4.7597  -18.3175   19.0847 O   0  0  0  0  0  0  0  0  0  0  0  0
   15.7316  -17.5525   23.0051 N   0  0  0  0  0  0  0  0  0  0  0  0
   14.8068  -16.7698   22.2854 C   0  0  0  0  0  0  0  0  0  0  0  0
   15.1330  -15.8508   21.4986 O   0  0  0  0  0  0  0  0  0  0  0  0
   13.3541  -17.0484   22.4682 C   0  0  0  0  0  0  0  0  0  0  0  0
   12.8340  -16.4306   23.7437 C   0  0  0  0  0  0  0  0  0  0  0  0
   11.3391  -16.6351   23.7982 C   0  0  2  0  0  0  0  0  0  0  0  0
   10.6867  -16.1614   22.6053 N   0  0  0  0  0  0  0  0  0  0  0  0
   10.8392  -15.9521   25.0220 C   0  0  0  0  0  0  0  0  0  0  0  0
   10.9742  -14.7107   25.0612 O   0  0  0  0  0  0  0  0  0  0  0  0
   10.2527  -16.6850   26.0603 N   0  0  0  0  0  0  0  0  0  0  0  0
    9.8926  -16.1602   27.3333 C   0  0  1  0  0  0  0  0  0  0  0  0
    8.4057  -15.9249   27.4388 C   0  0  0  0  0  0  0  0  0  0  0  0
    8.0481  -14.5937   26.8917 C   0  0  0  0  0  0  0  0  0  0  0  0
    7.1252  -14.5209   25.8723 C   0  0  0  0  0  0  0  0  0  0  0  0
    6.8313  -13.2459   25.4021 C   0  0  0  0  0  0  0  0  0  0  0  0
    7.4130  -12.1116   25.9077 C   0  0  0  0  0  0  0  0  0  0  0  0
    8.3278  -12.2178   26.9221 C   0  0  0  0  0  0  0  0  0  0  0  0
    8.6331  -13.4580   27.4007 C   0  0  0  0  0  0  0  0  0  0  0  0
   10.3490  -17.0012   28.4940 C   0  0  0  0  0  0  0  0  0  0  0  0
   11.0192  -18.1996   28.1971 O   0  0  0  0  0  0  0  0  0  0  0  0
   10.1858  -16.7298   29.6733 O   0  0  0  0  0  0  0  0  0  0  0  0
  2  1  1  6
  2  3  1  0
  3  4  1  0
  5  4  1  0
  5  6  2  0
  7  2  1  0
  7  8  2  0
  9  5  1  0
 10 11  1  0
 11 12  2  0
 11 13  1  0
 13 14  1  0
 15 14  1  6
 15 16  1  0
 16  7  1  0
 17 15  1  0
 18 17  2  0
 19 17  1  0
 20 28  1  0
 20 19  1  0
 21 22  1  0
 20 21  1  6
 22 23  2  0
 23 24  1  0
 25 24  2  0
 26 25  1  0
 27 22  1  0
 27 26  2  0
 28 29  1  0
 30 28  2  0
M  END
$$$$
