FYY.pdb
     RDKit          3D

 36 38  0  0  1  0  0  0  0  0999 V2000
    6.6419  -17.9347   26.3559 N   0  0  0  0  0  0  0  0  0  0  0  0
    6.8855  -16.6402   25.7571 C   0  0  1  0  0  0  0  0  0  0  0  0
    7.9435  -15.8637   26.5142 C   0  0  0  0  0  0  0  0  0  0  0  0
    7.4643  -14.4690   26.6738 C   0  0  0  0  0  0  0  0  0  0  0  0
    7.7122  -13.8453   27.8791 C   0  0  0  0  0  0  0  0  0  0  0  0
    7.2718  -12.5484   28.0400 C   0  0  0  0  0  0  0  0  0  0  0  0
    6.6116  -11.9185   27.0234 C   0  0  0  0  0  0  0  0  0  0  0  0
    6.3680  -12.5469   25.8241 C   0  0  0  0  0  0  0  0  0  0  0  0
    6.8036  -13.8521   25.6435 C   0  0  0  0  0  0  0  0  0  0  0  0
    7.3694  -16.7771   24.3587 C   0  0  0  0  0  0  0  0  0  0  0  0
    7.8092  -17.8623   23.8920 O   0  0  0  0  0  0  0  0  0  0  0  0
    9.4360  -14.1026   16.3015 O   0  0  0  0  0  0  0  0  0  0  0  0
    8.9069  -14.1617   17.5868 C   0  0  0  0  0  0  0  0  0  0  0  0
    8.1385  -15.2232   18.0128 C   0  0  0  0  0  0  0  0  0  0  0  0
    7.6346  -15.2410   19.2939 C   0  0  0  0  0  0  0  0  0  0  0  0
    7.8606  -14.2289   20.2027 C   0  0  0  0  0  0  0  0  0  0  0  0
    7.2930  -14.3012   21.5688 C   0  0  0  0  0  0  0  0  0  0  0  0
    7.7360  -15.6259   22.2019 C   0  0  2  0  0  0  0  0  0  0  0  0
    7.3087  -15.6000   23.5624 N   0  0  0  0  0  0  0  0  0  0  0  0
    9.2330  -15.6640   22.1852 C   0  0  0  0  0  0  0  0  0  0  0  0
    9.8804  -14.5999   22.3427 O   0  0  0  0  0  0  0  0  0  0  0  0
    8.6306  -13.1634   19.7788 C   0  0  0  0  0  0  0  0  0  0  0  0
    9.1410  -13.1420   18.4859 C   0  0  0  0  0  0  0  0  0  0  0  0
   14.3340  -13.9490   17.6175 O   0  0  0  0  0  0  0  0  0  0  0  0
   13.7148  -14.3097   18.8132 C   0  0  0  0  0  0  0  0  0  0  0  0
   12.6137  -13.6342   19.3096 C   0  0  0  0  0  0  0  0  0  0  0  0
   11.9964  -13.9828   20.4882 C   0  0  0  0  0  0  0  0  0  0  0  0
   12.4671  -15.0403   21.2277 C   0  0  0  0  0  0  0  0  0  0  0  0
   11.8621  -15.4624   22.4971 C   0  0  0  0  0  0  0  0  0  0  0  0
   11.3729  -16.8860   22.3832 C   0  0  2  0  0  0  0  0  0  0  0  0
    9.9488  -16.8668   21.9967 N   0  0  0  0  0  0  0  0  0  0  0  0
   11.5362  -17.5557   23.6877 C   0  0  0  0  0  0  0  0  0  0  0  0
   11.2467  -16.9856   24.8993 O   0  0  0  0  0  0  0  0  0  0  0  0
   13.5584  -15.7347   20.7663 C   0  0  0  0  0  0  0  0  0  0  0  0
   14.1577  -15.3656   19.5840 C   0  0  0  0  0  0  0  0  0  0  0  0
   11.9752  -18.7345   23.6990 O   0  0  0  0  0  0  0  0  0  0  0  0
  2  1  1  1
  3  2  1  0
  4  9  1  0
  4  3  1  0
  5  4  2  0
  6  7  2  0
  6  5  1  0
  7  8  1  0
  8  9  2  0
 10  2  1  0
 11 10  2  0
 12 13  1  0
 13 14  2  0
 14 15  1  0
 16 17  1  0
 16 15  2  0
 18 17  1  6
 18 19  1  0
 19 10  1  0
 20 21  2  0
 20 18  1  0
 22 16  1  0
 23 22  2  0
 23 13  1  0
 24 25  1  0
 25 35  2  0
 26 25  1  0
 26 27  2  0
 27 28  1  0
 28 34  2  0
 28 29  1  0
 30 29  1  1
 30 31  1  0
 31 20  1  0
 32 33  1  0
 32 30  1  0
 35 34  1  0
 36 32  2  0
M  END
$$$$
