FYY.pdb
     RDKit          3D

 36 38  0  0  1  0  0  0  0  0999 V2000
    6.0433  -17.9976   19.5863 N   0  0  0  0  0  0  0  0  0  0  0  0
    6.5391  -16.9758   20.4827 C   0  0  1  0  0  0  0  0  0  0  0  0
    5.8792  -17.0574   21.8440 C   0  0  0  0  0  0  0  0  0  0  0  0
    6.3664  -15.9188   22.6604 C   0  0  0  0  0  0  0  0  0  0  0  0
    7.0862  -16.2149   23.7995 C   0  0  0  0  0  0  0  0  0  0  0  0
    7.5447  -15.1650   24.5670 C   0  0  0  0  0  0  0  0  0  0  0  0
    7.2830  -13.8776   24.1926 C   0  0  0  0  0  0  0  0  0  0  0  0
    6.5645  -13.5901   23.0553 C   0  0  0  0  0  0  0  0  0  0  0  0
    6.0947  -14.6334   22.2700 C   0  0  0  0  0  0  0  0  0  0  0  0
    8.0019  -17.1180   20.7036 C   0  0  0  0  0  0  0  0  0  0  0  0
    8.5756  -18.2381   20.7740 O   0  0  0  0  0  0  0  0  0  0  0  0
    7.7318  -13.6570   15.2315 O   0  0  0  0  0  0  0  0  0  0  0  0
    8.4162  -13.8695   16.4239 C   0  0  0  0  0  0  0  0  0  0  0  0
    9.3130  -14.9044   16.5774 C   0  0  0  0  0  0  0  0  0  0  0  0
    9.9688  -15.0782   17.7754 C   0  0  0  0  0  0  0  0  0  0  0  0
    9.7750  -14.2529   18.8629 C   0  0  0  0  0  0  0  0  0  0  0  0
   10.5085  -14.4874   20.1281 C   0  0  0  0  0  0  0  0  0  0  0  0
   10.1444  -15.8863   20.6403 C   0  0  2  0  0  0  0  0  0  0  0  0
    8.7314  -15.9038   20.8333 N   0  0  0  0  0  0  0  0  0  0  0  0
   10.7984  -16.0705   21.9749 C   0  0  0  0  0  0  0  0  0  0  0  0
   11.3450  -15.0895   22.5363 O   0  0  0  0  0  0  0  0  0  0  0  0
    8.8766  -13.2145   18.7123 C   0  0  0  0  0  0  0  0  0  0  0  0
    8.2126  -13.0359   17.5041 C   0  0  0  0  0  0  0  0  0  0  0  0
    6.4454  -14.3841   26.1579 O   0  0  0  0  0  0  0  0  0  0  0  0
    7.4864  -15.2658   25.8714 C   0  0  0  0  0  0  0  0  0  0  0  0
    8.7753  -15.0644   26.3333 C   0  0  0  0  0  0  0  0  0  0  0  0
    9.8085  -15.9287   26.0557 C   0  0  0  0  0  0  0  0  0  0  0  0
    9.5860  -17.0477   25.2908 C   0  0  0  0  0  0  0  0  0  0  0  0
   10.6428  -18.0081   24.9498 C   0  0  0  0  0  0  0  0  0  0  0  0
   11.5577  -17.4141   23.9062 C   0  0  2  0  0  0  0  0  0  0  0  0
   10.8219  -17.3212   22.6304 N   0  0  0  0  0  0  0  0  0  0  0  0
   12.7377  -18.2859   23.7498 C   0  0  0  0  0  0  0  0  0  0  0  0
   13.0446  -18.9876   22.6139 O   0  0  0  0  0  0  0  0  0  0  0  0
    8.3191  -17.2808   24.8148 C   0  0  0  0  0  0  0  0  0  0  0  0
    7.3028  -16.4005   25.1070 C   0  0  0  0  0  0  0  0  0  0  0  0
   13.5233  -18.4023   24.7253 O   0  0  0  0  0  0  0  0  0  0  0  0
  2  1  1  6
  3  2  1  0
  4  9  1  0
  4  3  1  0
  5  4  2  0
  6  7  2  0
  6  5  1  0
  7  8  1  0
  8  9  2  0
 10  2  1  0
 11 10  2  0
 12 13  1  0
 13 14  2  0
 14 15  1  0
 16 17  1  0
 16 15  2  0
 18 17  1  1
 18 19  1  0
 19 10  1  0
 20 21  2  0
 20 18  1  0
 22 16  1  0
 23 22  2  0
 23 13  1  0
 24 25  1  0
 25 35  2  0
 26 25  1  0
 26 27  2  0
 27 28  1  0
 28 34  2  0
 28 29  1  0
 30 29  1  1
 30 31  1  0
 31 20  1  0
 32 33  1  0
 32 30  1  0
 35 34  1  0
 36 32  2  0
M  END
$$$$
