FYY.pdb
     RDKit          3D

 36 38  0  0  1  0  0  0  0  0999 V2000
    5.5299  -18.4375   23.1995 N   0  0  0  0  0  0  0  0  0  0  0  0
    6.1391  -17.1813   23.5794 C   0  0  1  0  0  0  0  0  0  0  0  0
    6.2510  -17.0463   25.0843 C   0  0  0  0  0  0  0  0  0  0  0  0
    6.4335  -15.6096   25.4049 C   0  0  0  0  0  0  0  0  0  0  0  0
    7.6719  -15.2131   25.8661 C   0  0  0  0  0  0  0  0  0  0  0  0
    7.8544  -13.8799   26.1676 C   0  0  0  0  0  0  0  0  0  0  0  0
    6.8263  -12.9947   26.0072 C   0  0  0  0  0  0  0  0  0  0  0  0
    5.5941  -13.3974   25.5469 C   0  0  0  0  0  0  0  0  0  0  0  0
    5.3913  -14.7352   25.2381 C   0  0  0  0  0  0  0  0  0  0  0  0
    7.5160  -17.0643   23.0327 C   0  0  0  0  0  0  0  0  0  0  0  0
    8.2207  -18.0671   22.7383 O   0  0  0  0  0  0  0  0  0  0  0  0
    7.7323  -13.4641   16.0591 O   0  0  0  0  0  0  0  0  0  0  0  0
    8.0375  -13.5806   17.4114 C   0  0  0  0  0  0  0  0  0  0  0  0
    7.9661  -12.5067   18.2719 C   0  0  0  0  0  0  0  0  0  0  0  0
    8.2771  -12.6667   19.6035 C   0  0  0  0  0  0  0  0  0  0  0  0
    8.6674  -13.8743   20.1425 C   0  0  0  0  0  0  0  0  0  0  0  0
    8.9902  -13.9881   21.5836 C   0  0  0  0  0  0  0  0  0  0  0  0
    9.0658  -15.4775   21.9411 C   0  0  2  0  0  0  0  0  0  0  0  0
    8.0039  -15.7399   22.8563 N   0  0  0  0  0  0  0  0  0  0  0  0
   10.3621  -15.7129   22.6530 C   0  0  0  0  0  0  0  0  0  0  0  0
   11.3416  -14.9633   22.4182 O   0  0  0  0  0  0  0  0  0  0  0  0
    8.7400  -14.9528   19.2825 C   0  0  0  0  0  0  0  0  0  0  0  0
    8.4267  -14.7950   17.9374 C   0  0  0  0  0  0  0  0  0  0  0  0
   11.6754  -14.4655   30.9519 O   0  0  0  0  0  0  0  0  0  0  0  0
   11.3612  -14.6714   29.6095 C   0  0  0  0  0  0  0  0  0  0  0  0
   12.2629  -15.2192   28.7139 C   0  0  0  0  0  0  0  0  0  0  0  0
   11.9619  -15.4259   27.3879 C   0  0  0  0  0  0  0  0  0  0  0  0
   10.7240  -15.0855   26.8997 C   0  0  0  0  0  0  0  0  0  0  0  0
   10.3378  -15.2715   25.4955 C   0  0  0  0  0  0  0  0  0  0  0  0
   11.1111  -16.4229   24.8995 C   0  0  2  0  0  0  0  0  0  0  0  0
   10.5230  -16.7587   23.5884 N   0  0  0  0  0  0  0  0  0  0  0  0
   11.0226  -17.5822   25.8079 C   0  0  0  0  0  0  0  0  0  0  0  0
   11.9274  -17.8709   26.7952 O   0  0  0  0  0  0  0  0  0  0  0  0
    9.8027  -14.5393   27.7592 C   0  0  0  0  0  0  0  0  0  0  0  0
   10.1289  -14.3428   29.0814 C   0  0  0  0  0  0  0  0  0  0  0  0
   10.0515  -18.3700   25.6720 O   0  0  0  0  0  0  0  0  0  0  0  0
  2  1  1  1
  3  2  1  0
  4  9  1  0
  4  3  1  0
  5  4  2  0
  6  7  2  0
  6  5  1  0
  7  8  1  0
  8  9  2  0
 10  2  1  0
 11 10  2  0
 12 13  1  0
 13 14  2  0
 14 15  1  0
 16 17  1  0
 16 15  2  0
 18 17  1  1
 18 19  1  0
 19 10  1  0
 20 21  2  0
 20 18  1  0
 22 16  1  0
 23 22  2  0
 23 13  1  0
 24 25  1  0
 25 35  2  0
 26 25  1  0
 26 27  2  0
 27 28  1  0
 28 34  2  0
 28 29  1  0
 30 29  1  1
 30 31  1  0
 31 20  1  0
 32 33  1  0
 32 30  1  0
 35 34  1  0
 36 32  2  0
M  END
$$$$
