FYY.pdb
     RDKit          3D

 36 38  0  0  1  0  0  0  0  0999 V2000
    5.4816  -17.8565   21.4919 N   0  0  0  0  0  0  0  0  0  0  0  0
    6.1757  -16.8419   22.2550 C   0  0  1  0  0  0  0  0  0  0  0  0
    5.8675  -16.9461   23.7348 C   0  0  0  0  0  0  0  0  0  0  0  0
    6.4225  -15.7453   24.4058 C   0  0  0  0  0  0  0  0  0  0  0  0
    6.1823  -14.5203   23.8184 C   0  0  0  0  0  0  0  0  0  0  0  0
    6.6928  -13.3962   24.4326 C   0  0  0  0  0  0  0  0  0  0  0  0
    7.4124  -13.5143   25.5878 C   0  0  0  0  0  0  0  0  0  0  0  0
    7.6479  -14.7393   26.1678 C   0  0  0  0  0  0  0  0  0  0  0  0
    7.1421  -15.8821   25.5643 C   0  0  0  0  0  0  0  0  0  0  0  0
    7.6489  -16.9747   22.1112 C   0  0  0  0  0  0  0  0  0  0  0  0
    8.2215  -18.0864   21.9528 O   0  0  0  0  0  0  0  0  0  0  0  0
    6.8220  -13.7857   16.4834 O   0  0  0  0  0  0  0  0  0  0  0  0
    7.6073  -13.9291   17.6229 C   0  0  0  0  0  0  0  0  0  0  0  0
    8.5703  -14.9090   17.7282 C   0  0  0  0  0  0  0  0  0  0  0  0
    9.3252  -15.0151   18.8746 C   0  0  0  0  0  0  0  0  0  0  0  0
    9.1696  -14.1733   19.9556 C   0  0  0  0  0  0  0  0  0  0  0  0
   10.0106  -14.3340   21.1641 C   0  0  0  0  0  0  0  0  0  0  0  0
    9.7531  -15.7300   21.7443 C   0  0  2  0  0  0  0  0  0  0  0  0
    8.3898  -15.7617   22.1625 N   0  0  0  0  0  0  0  0  0  0  0  0
   10.6156  -15.8883   22.9583 C   0  0  0  0  0  0  0  0  0  0  0  0
   11.5567  -15.0815   23.1576 O   0  0  0  0  0  0  0  0  0  0  0  0
    8.2050  -13.1898   19.8530 C   0  0  0  0  0  0  0  0  0  0  0  0
    7.4408  -13.0797   18.6970 C   0  0  0  0  0  0  0  0  0  0  0  0
   11.1637  -15.3419   31.4567 O   0  0  0  0  0  0  0  0  0  0  0  0
   10.9306  -15.3895   30.0832 C   0  0  0  0  0  0  0  0  0  0  0  0
    9.9220  -16.1587   29.5299 C   0  0  0  0  0  0  0  0  0  0  0  0
    9.6846  -16.2118   28.1762 C   0  0  0  0  0  0  0  0  0  0  0  0
   10.4627  -15.4836   27.3097 C   0  0  0  0  0  0  0  0  0  0  0  0
   10.2702  -15.4988   25.8542 C   0  0  0  0  0  0  0  0  0  0  0  0
   10.9220  -16.7259   25.2640 C   0  0  2  0  0  0  0  0  0  0  0  0
   10.4054  -16.9234   23.8958 N   0  0  0  0  0  0  0  0  0  0  0  0
   10.5953  -17.8942   26.1038 C   0  0  0  0  0  0  0  0  0  0  0  0
    9.6482  -18.8354   25.7973 O   0  0  0  0  0  0  0  0  0  0  0  0
   11.4735  -14.7081   27.8225 C   0  0  0  0  0  0  0  0  0  0  0  0
   11.6901  -14.6724   29.1808 C   0  0  0  0  0  0  0  0  0  0  0  0
   11.2242  -18.0441   27.1828 O   0  0  0  0  0  0  0  0  0  0  0  0
  2  1  1  6
  3  2  1  0
  4  9  1  0
  4  3  1  0
  5  4  2  0
  6  7  2  0
  6  5  1  0
  7  8  1  0
  8  9  2  0
 10  2  1  0
 11 10  2  0
 12 13  1  0
 13 14  2  0
 14 15  1  0
 16 17  1  0
 16 15  2  0
 18 17  1  1
 18 19  1  0
 19 10  1  0
 20 21  2  0
 20 18  1  0
 22 16  1  0
 23 22  2  0
 23 13  1  0
 24 25  1  0
 25 35  2  0
 26 25  1  0
 26 27  2  0
 27 28  1  0
 28 34  2  0
 28 29  1  0
 30 29  1  1
 30 31  1  0
 31 20  1  0
 32 33  1  0
 32 30  1  0
 35 34  1  0
 36 32  2  0
M  END
$$$$
