FYY.pdb
     RDKit          3D

 36 38  0  0  1  0  0  0  0  0999 V2000
    5.5346  -17.7845   23.7868 N   0  0  0  0  0  0  0  0  0  0  0  0
    6.3593  -16.6237   24.0440 C   0  0  1  0  0  0  0  0  0  0  0  0
    6.8095  -16.5663   25.4895 C   0  0  0  0  0  0  0  0  0  0  0  0
    7.1692  -15.1620   25.8037 C   0  0  0  0  0  0  0  0  0  0  0  0
    6.1382  -14.2881   26.0806 C   0  0  0  0  0  0  0  0  0  0  0  0
    6.4595  -12.9796   26.3744 C   0  0  0  0  0  0  0  0  0  0  0  0
    7.7662  -12.5814   26.3855 C   0  0  0  0  0  0  0  0  0  0  0  0
    8.7890  -13.4586   26.1084 C   0  0  0  0  0  0  0  0  0  0  0  0
    8.4853  -14.7796   25.8104 C   0  0  0  0  0  0  0  0  0  0  0  0
    7.5891  -16.6425   23.2099 C   0  0  0  0  0  0  0  0  0  0  0  0
    8.1778  -17.7091   22.8862 O   0  0  0  0  0  0  0  0  0  0  0  0
    7.1476  -14.3311   16.0045 O   0  0  0  0  0  0  0  0  0  0  0  0
    7.6384  -14.2131   17.3009 C   0  0  0  0  0  0  0  0  0  0  0  0
    7.2020  -13.2287   18.1608 C   0  0  0  0  0  0  0  0  0  0  0  0
    7.7149  -13.1484   19.4360 C   0  0  0  0  0  0  0  0  0  0  0  0
    8.6678  -14.0211   19.9173 C   0  0  0  0  0  0  0  0  0  0  0  0
    9.1840  -13.8872   21.2991 C   0  0  0  0  0  0  0  0  0  0  0  0
    9.2133  -15.2817   21.9365 C   0  0  2  0  0  0  0  0  0  0  0  0
    8.0741  -15.3731   22.7897 N   0  0  0  0  0  0  0  0  0  0  0  0
   10.4412  -15.3704   22.7891 C   0  0  0  0  0  0  0  0  0  0  0  0
   11.2203  -14.3880   22.8555 O   0  0  0  0  0  0  0  0  0  0  0  0
    9.1072  -15.0090   19.0577 C   0  0  0  0  0  0  0  0  0  0  0  0
    8.5917  -15.0932   17.7695 C   0  0  0  0  0  0  0  0  0  0  0  0
   11.5425  -15.2589   31.1733 O   0  0  0  0  0  0  0  0  0  0  0  0
   11.1713  -15.4015   29.8373 C   0  0  0  0  0  0  0  0  0  0  0  0
   10.7757  -16.6159   29.3045 C   0  0  0  0  0  0  0  0  0  0  0  0
   10.4079  -16.7660   27.9878 C   0  0  0  0  0  0  0  0  0  0  0  0
   10.4227  -15.6860   27.1393 C   0  0  0  0  0  0  0  0  0  0  0  0
   10.0499  -15.7755   25.7221 C   0  0  0  0  0  0  0  0  0  0  0  0
   11.1937  -16.3575   24.9271 C   0  0  2  0  0  0  0  0  0  0  0  0
   10.7566  -16.5316   23.5285 N   0  0  0  0  0  0  0  0  0  0  0  0
   11.5682  -17.6609   25.5083 C   0  0  0  0  0  0  0  0  0  0  0  0
   12.6459  -17.8692   26.3280 O   0  0  0  0  0  0  0  0  0  0  0  0
   10.8097  -14.4641   27.6327 C   0  0  0  0  0  0  0  0  0  0  0  0
   11.1729  -14.3407   28.9540 C   0  0  0  0  0  0  0  0  0  0  0  0
   10.8543  -18.6599   25.2349 O   0  0  0  0  0  0  0  0  0  0  0  0
  2  1  1  1
  3  2  1  0
  4  9  1  0
  4  3  1  0
  5  4  2  0
  6  7  2  0
  6  5  1  0
  7  8  1  0
  8  9  2  0
 10  2  1  0
 11 10  2  0
 12 13  1  0
 13 14  2  0
 14 15  1  0
 16 17  1  0
 16 15  2  0
 18 17  1  1
 18 19  1  0
 19 10  1  0
 20 21  2  0
 20 18  1  0
 22 16  1  0
 23 22  2  0
 23 13  1  0
 24 25  1  0
 25 35  2  0
 26 25  1  0
 26 27  2  0
 27 28  1  0
 28 34  2  0
 28 29  1  0
 30 29  1  1
 30 31  1  0
 31 20  1  0
 32 33  1  0
 32 30  1  0
 35 34  1  0
 36 32  2  0
M  END
$$$$
