FYY.pdb
     RDKit          3D

 36 38  0  0  1  0  0  0  0  0999 V2000
    6.8296  -20.6182   25.0477 N   0  0  0  0  0  0  0  0  0  0  0  0
    6.3139  -19.2955   24.7681 C   0  0  1  0  0  0  0  0  0  0  0  0
    6.2361  -18.4487   26.0221 C   0  0  0  0  0  0  0  0  0  0  0  0
    7.4750  -18.6734   26.8063 C   0  0  0  0  0  0  0  0  0  0  0  0
    7.8089  -19.9774   27.1083 C   0  0  0  0  0  0  0  0  0  0  0  0
    8.9585  -20.1995   27.8370 C   0  0  0  0  0  0  0  0  0  0  0  0
    9.7293  -19.1454   28.2379 C   0  0  0  0  0  0  0  0  0  0  0  0
    9.3899  -17.8476   27.9330 C   0  0  0  0  0  0  0  0  0  0  0  0
    8.2366  -17.6042   27.2005 C   0  0  0  0  0  0  0  0  0  0  0  0
    7.1882  -18.5688   23.8109 C   0  0  0  0  0  0  0  0  0  0  0  0
    8.1059  -19.1360   23.1591 O   0  0  0  0  0  0  0  0  0  0  0  0
    7.9240  -12.3279   17.7236 O   0  0  0  0  0  0  0  0  0  0  0  0
    7.6225  -12.9973   18.9053 C   0  0  0  0  0  0  0  0  0  0  0  0
    7.9170  -12.4657   20.1420 C   0  0  0  0  0  0  0  0  0  0  0  0
    7.6009  -13.1627   21.2865 C   0  0  0  0  0  0  0  0  0  0  0  0
    6.9889  -14.3982   21.2671 C   0  0  0  0  0  0  0  0  0  0  0  0
    6.6720  -15.1029   22.5307 C   0  0  0  0  0  0  0  0  0  0  0  0
    7.3305  -16.4872   22.4850 C   0  0  2  0  0  0  0  0  0  0  0  0
    6.9301  -17.1774   23.6671 N   0  0  0  0  0  0  0  0  0  0  0  0
    8.8141  -16.2912   22.5409 C   0  0  0  0  0  0  0  0  0  0  0  0
    9.3767  -15.5781   21.6741 O   0  0  0  0  0  0  0  0  0  0  0  0
    6.6924  -14.9338   20.0289 C   0  0  0  0  0  0  0  0  0  0  0  0
    7.0100  -14.2329   18.8712 C   0  0  0  0  0  0  0  0  0  0  0  0
    9.4128  -15.1565   30.1150 O   0  0  0  0  0  0  0  0  0  0  0  0
    9.6662  -15.0929   28.7458 C   0  0  0  0  0  0  0  0  0  0  0  0
   10.2004  -16.1578   28.0417 C   0  0  0  0  0  0  0  0  0  0  0  0
   10.4538  -16.1043   26.6910 C   0  0  0  0  0  0  0  0  0  0  0  0
   10.1770  -14.9613   25.9813 C   0  0  0  0  0  0  0  0  0  0  0  0
   10.4287  -14.8320   24.5407 C   0  0  0  0  0  0  0  0  0  0  0  0
   10.8289  -16.1704   23.9683 C   0  0  2  0  0  0  0  0  0  0  0  0
    9.6103  -16.8863   23.5441 N   0  0  0  0  0  0  0  0  0  0  0  0
   11.5373  -16.9440   25.0059 C   0  0  0  0  0  0  0  0  0  0  0  0
   11.0849  -18.1170   25.5501 O   0  0  0  0  0  0  0  0  0  0  0  0
    9.6458  -13.8835   26.6465 C   0  0  0  0  0  0  0  0  0  0  0  0
    9.4016  -13.9630   27.9983 C   0  0  0  0  0  0  0  0  0  0  0  0
   12.6355  -16.5011   25.4304 O   0  0  0  0  0  0  0  0  0  0  0  0
  2  1  1  1
  3  2  1  0
  4  9  1  0
  4  3  1  0
  5  4  2  0
  6  7  2  0
  6  5  1  0
  7  8  1  0
  8  9  2  0
 10  2  1  0
 11 10  2  0
 12 13  1  0
 13 14  2  0
 14 15  1  0
 16 17  1  0
 16 15  2  0
 18 17  1  1
 18 19  1  0
 19 10  1  0
 20 21  2  0
 20 18  1  0
 22 16  1  0
 23 22  2  0
 23 13  1  0
 24 25  1  0
 25 35  2  0
 26 25  1  0
 26 27  2  0
 27 28  1  0
 28 34  2  0
 28 29  1  0
 30 29  1  1
 30 31  1  0
 31 20  1  0
 32 33  1  0
 32 30  1  0
 35 34  1  0
 36 32  2  0
M  END
$$$$
