FYY.pdb
     RDKit          3D

 36 38  0  0  1  0  0  0  0  0999 V2000
    6.3172  -16.1094   24.9143 N   0  0  0  0  0  0  0  0  0  0  0  0
    7.1479  -15.7594   23.7825 C   0  0  1  0  0  0  0  0  0  0  0  0
    8.2083  -14.7449   24.1591 C   0  0  0  0  0  0  0  0  0  0  0  0
    7.6825  -13.9235   25.2768 C   0  0  0  0  0  0  0  0  0  0  0  0
    8.2888  -12.7068   25.5119 C   0  0  0  0  0  0  0  0  0  0  0  0
    7.8092  -11.9336   26.5481 C   0  0  0  0  0  0  0  0  0  0  0  0
    6.7639  -12.3780   27.3071 C   0  0  0  0  0  0  0  0  0  0  0  0
    6.1643  -13.5926   27.0666 C   0  0  0  0  0  0  0  0  0  0  0  0
    6.6331  -14.3848   26.0281 C   0  0  0  0  0  0  0  0  0  0  0  0
    7.8603  -16.9499   23.2498 C   0  0  0  0  0  0  0  0  0  0  0  0
    7.9077  -18.0488   23.8655 O   0  0  0  0  0  0  0  0  0  0  0  0
    7.4986  -13.4874   16.4191 O   0  0  0  0  0  0  0  0  0  0  0  0
    7.9000  -13.7268   17.7295 C   0  0  0  0  0  0  0  0  0  0  0  0
    7.5843  -12.8671   18.7591 C   0  0  0  0  0  0  0  0  0  0  0  0
    8.0021  -13.1427   20.0417 C   0  0  0  0  0  0  0  0  0  0  0  0
    8.7396  -14.2617   20.3660 C   0  0  0  0  0  0  0  0  0  0  0  0
    9.1621  -14.5076   21.7641 C   0  0  0  0  0  0  0  0  0  0  0  0
    9.6535  -15.9566   21.8679 C   0  0  2  0  0  0  0  0  0  0  0  0
    8.4957  -16.7808   21.9885 N   0  0  0  0  0  0  0  0  0  0  0  0
   10.4473  -16.0822   23.1315 C   0  0  0  0  0  0  0  0  0  0  0  0
   11.5754  -15.5366   23.2099 O   0  0  0  0  0  0  0  0  0  0  0  0
    9.0577  -15.1255   19.3360 C   0  0  0  0  0  0  0  0  0  0  0  0
    8.6376  -14.8505   18.0397 C   0  0  0  0  0  0  0  0  0  0  0  0
   12.4226  -16.3077   31.6283 O   0  0  0  0  0  0  0  0  0  0  0  0
   11.8124  -16.2359   30.3770 C   0  0  0  0  0  0  0  0  0  0  0  0
   12.2791  -15.4062   29.3725 C   0  0  0  0  0  0  0  0  0  0  0  0
   11.6838  -15.3288   28.1351 C   0  0  0  0  0  0  0  0  0  0  0  0
   10.5782  -16.0930   27.8518 C   0  0  0  0  0  0  0  0  0  0  0  0
    9.8888  -16.0551   26.5561 C   0  0  0  0  0  0  0  0  0  0  0  0
   10.7418  -16.7189   25.5021 C   0  0  2  0  0  0  0  0  0  0  0  0
    9.9667  -16.7998   24.2490 N   0  0  0  0  0  0  0  0  0  0  0  0
   11.1068  -18.0725   25.9620 C   0  0  0  0  0  0  0  0  0  0  0  0
   12.1863  -18.3631   26.7538 O   0  0  0  0  0  0  0  0  0  0  0  0
   10.0865  -16.9287   28.8243 C   0  0  0  0  0  0  0  0  0  0  0  0
   10.7007  -16.9877   30.0541 C   0  0  0  0  0  0  0  0  0  0  0  0
   10.3823  -19.0364   25.6041 O   0  0  0  0  0  0  0  0  0  0  0  0
  2  1  1  1
  3  2  1  0
  4  9  1  0
  4  3  1  0
  5  4  2  0
  6  7  2  0
  6  5  1  0
  7  8  1  0
  8  9  2  0
 10  2  1  0
 11 10  2  0
 12 13  1  0
 13 14  2  0
 14 15  1  0
 16 17  1  0
 16 15  2  0
 18 17  1  1
 18 19  1  0
 19 10  1  0
 20 21  2  0
 20 18  1  0
 22 16  1  0
 23 22  2  0
 23 13  1  0
 24 25  1  0
 25 35  2  0
 26 25  1  0
 26 27  2  0
 27 28  1  0
 28 34  2  0
 28 29  1  0
 30 29  1  1
 30 31  1  0
 31 20  1  0
 32 33  1  0
 32 30  1  0
 35 34  1  0
 36 32  2  0
M  END
$$$$
