YDT.pdb
     RDKit          3D

 28 28  0  0  1  0  0  0  0  0999 V2000
    7.6911  -12.5498   17.1410 O   0  0  0  0  0  0  0  0  0  0  0  0
    7.7942  -13.1021   18.4289 C   0  0  0  0  0  0  0  0  0  0  0  0
    9.0220  -13.5311   18.8663 C   0  0  0  0  0  0  0  0  0  0  0  0
    9.1422  -14.0796   20.1362 C   0  0  0  0  0  0  0  0  0  0  0  0
    8.0308  -14.1847   20.9369 C   0  0  0  0  0  0  0  0  0  0  0  0
    8.1525  -14.7742   22.2829 C   0  0  0  0  0  0  0  0  0  0  0  0
    8.3477  -16.2747   22.0956 C   0  0  2  0  0  0  0  0  0  0  0  0
    7.0136  -16.8396   21.9226 N   0  0  0  0  0  0  0  0  0  0  0  0
    8.9409  -16.8581   23.3066 C   0  0  0  0  0  0  0  0  0  0  0  0
    8.2512  -17.1686   24.2800 O   0  0  0  0  0  0  0  0  0  0  0  0
    6.8092  -13.7546   20.4933 C   0  0  0  0  0  0  0  0  0  0  0  0
    6.6906  -13.2096   19.2310 C   0  0  0  0  0  0  0  0  0  0  0  0
   10.3574  -17.0863   23.3932 N   0  0  0  0  0  0  0  0  0  0  0  0
   11.0429  -17.4738   24.5788 C   0  0  1  0  0  0  0  0  0  0  0  0
   12.3509  -18.2007   24.2948 C   0  0  0  0  0  0  0  0  0  0  0  0
   12.6182  -19.0294   25.5145 C   0  0  0  0  0  0  0  0  0  0  0  0
   11.8522  -19.0386   26.5241 O   0  0  0  0  0  0  0  0  0  0  0  0
   11.1891  -16.4009   25.5873 C   0  0  0  0  0  0  0  0  0  0  0  0
   12.1134  -15.5563   25.5607 O   0  0  0  0  0  0  0  0  0  0  0  0
   13.7525  -19.8620   25.6137 O   0  0  0  0  0  0  0  0  0  0  0  0
    9.0623  -13.2510   28.5190 C   0  0  0  0  0  0  0  0  0  0  0  0
    9.0033  -14.5559   27.8007 C   0  0  1  0  0  0  0  0  0  0  0  0
    8.5276  -14.2988   26.5034 O   0  0  0  0  0  0  0  0  0  0  0  0
   10.3377  -15.2620   27.7013 C   0  0  2  0  0  0  0  0  0  0  0  0
   10.2537  -16.2722   26.6724 N   0  0  0  0  0  0  0  0  0  0  0  0
   10.7728  -15.8157   28.9945 C   0  0  0  0  0  0  0  0  0  0  0  0
   10.6233  -17.2053   29.2260 O   0  0  0  0  0  0  0  0  0  0  0  0
   11.2692  -15.1664   29.9195 O   0  0  0  0  0  0  0  0  0  0  0  0
  1  2  1  0
  2 12  2  0
  3  4  2  0
  3  2  1  0
  4  5  1  0
  5  6  1  0
  5 11  2  0
  7  8  1  1
  7  6  1  0
  9  7  1  0
 10  9  2  0
 12 11  1  0
 13  9  1  0
 14 13  1  0
 14 15  1  6
 15 16  1  0
 16 20  1  0
 17 16  2  0
 18 14  1  0
 19 18  2  0
 22 21  1  1
 22 24  1  0
 23 22  1  0
 24 26  1  0
 24 25  1  6
 25 18  1  0
 26 27  1  0
 28 26  2  0
M  END
$$$$
