YDT.pdb
     RDKit          3D

 28 28  0  0  1  0  0  0  0  0999 V2000
    7.5025  -11.8946   17.4101 O   0  0  0  0  0  0  0  0  0  0  0  0
    7.7014  -12.7374   18.5166 C   0  0  0  0  0  0  0  0  0  0  0  0
    8.9720  -12.8852   19.0134 C   0  0  0  0  0  0  0  0  0  0  0  0
    9.1867  -13.7142   20.1063 C   0  0  0  0  0  0  0  0  0  0  0  0
    8.1247  -14.3744   20.6751 C   0  0  0  0  0  0  0  0  0  0  0  0
    8.3497  -15.2623   21.8306 C   0  0  0  0  0  0  0  0  0  0  0  0
    8.9779  -16.5429   21.2922 C   0  0  2  0  0  0  0  0  0  0  0  0
    7.8695  -17.4382   20.9776 N   0  0  0  0  0  0  0  0  0  0  0  0
    9.7987  -17.1752   22.3339 C   0  0  0  0  0  0  0  0  0  0  0  0
    9.2945  -17.8483   23.2353 O   0  0  0  0  0  0  0  0  0  0  0  0
    6.8600  -14.2220   20.1737 C   0  0  0  0  0  0  0  0  0  0  0  0
    6.6474  -13.3979   19.0873 C   0  0  0  0  0  0  0  0  0  0  0  0
   11.2283  -17.0261   22.3331 N   0  0  0  0  0  0  0  0  0  0  0  0
   12.0927  -17.5150   23.3526 C   0  0  1  0  0  0  0  0  0  0  0  0
   13.5649  -17.2718   23.0466 C   0  0  0  0  0  0  0  0  0  0  0  0
   13.8684  -18.1225   21.8509 C   0  0  0  0  0  0  0  0  0  0  0  0
   13.2314  -19.1840   21.5795 O   0  0  0  0  0  0  0  0  0  0  0  0
   11.7175  -17.1137   24.7266 C   0  0  0  0  0  0  0  0  0  0  0  0
   12.1906  -16.1057   25.2996 O   0  0  0  0  0  0  0  0  0  0  0  0
   14.8938  -17.7884   20.9417 O   0  0  0  0  0  0  0  0  0  0  0  0
    8.8690  -15.7974   26.4430 C   0  0  0  0  0  0  0  0  0  0  0  0
    9.0798  -17.1483   27.0369 C   0  0  1  0  0  0  0  0  0  0  0  0
    8.2004  -18.0327   26.3888 O   0  0  0  0  0  0  0  0  0  0  0  0
   10.4929  -17.6688   26.8905 C   0  0  2  0  0  0  0  0  0  0  0  0
   10.7679  -17.8796   25.4884 N   0  0  0  0  0  0  0  0  0  0  0  0
   10.7265  -18.8800   27.6946 C   0  0  0  0  0  0  0  0  0  0  0  0
   10.6755  -18.7809   29.1070 O   0  0  0  0  0  0  0  0  0  0  0  0
   10.9678  -20.0028   27.2424 O   0  0  0  0  0  0  0  0  0  0  0  0
  1  2  1  0
  2 12  2  0
  3  4  2  0
  3  2  1  0
  4  5  1  0
  5  6  1  0
  5 11  2  0
  7  8  1  1
  7  6  1  0
  9  7  1  0
 10  9  2  0
 12 11  1  0
 13  9  1  0
 14 13  1  0
 14 15  1  6
 15 16  1  0
 16 20  1  0
 17 16  2  0
 18 14  1  0
 19 18  2  0
 22 21  1  6
 22 24  1  0
 23 22  1  0
 24 26  1  0
 24 25  1  6
 25 18  1  0
 26 27  1  0
 28 26  2  0
M  END
$$$$
