YDT.pdb
     RDKit          3D

 28 28  0  0  1  0  0  0  0  0999 V2000
    7.3870  -12.0274   17.2583 O   0  0  0  0  0  0  0  0  0  0  0  0
    7.6959  -12.7964   18.3930 C   0  0  0  0  0  0  0  0  0  0  0  0
    6.6817  -13.4604   19.0360 C   0  0  0  0  0  0  0  0  0  0  0  0
    6.9690  -14.2248   20.1590 C   0  0  0  0  0  0  0  0  0  0  0  0
    8.2640  -14.3059   20.6103 C   0  0  0  0  0  0  0  0  0  0  0  0
    8.5721  -15.1097   21.8074 C   0  0  0  0  0  0  0  0  0  0  0  0
    9.2423  -16.3906   21.3230 C   0  0  2  0  0  0  0  0  0  0  0  0
    8.1844  -17.2054   20.7349 N   0  0  0  0  0  0  0  0  0  0  0  0
    9.8071  -17.1236   22.4643 C   0  0  0  0  0  0  0  0  0  0  0  0
    9.1004  -17.8070   23.2081 O   0  0  0  0  0  0  0  0  0  0  0  0
    9.2704  -13.6403   19.9635 C   0  0  0  0  0  0  0  0  0  0  0  0
    8.9840  -12.8808   18.8475 C   0  0  0  0  0  0  0  0  0  0  0  0
   11.2144  -17.0648   22.7505 N   0  0  0  0  0  0  0  0  0  0  0  0
   11.8238  -17.5935   23.9229 C   0  0  1  0  0  0  0  0  0  0  0  0
   13.3372  -17.4210   23.9321 C   0  0  0  0  0  0  0  0  0  0  0  0
   13.8062  -17.9540   22.6124 C   0  0  0  0  0  0  0  0  0  0  0  0
   13.5434  -19.1263   22.2088 O   0  0  0  0  0  0  0  0  0  0  0  0
   11.1900  -17.1737   25.1924 C   0  0  0  0  0  0  0  0  0  0  0  0
   11.4818  -16.1098   25.7853 O   0  0  0  0  0  0  0  0  0  0  0  0
   14.5774  -17.1728   21.7266 O   0  0  0  0  0  0  0  0  0  0  0  0
    7.7908  -16.2382   26.0898 C   0  0  0  0  0  0  0  0  0  0  0  0
    8.1028  -17.4492   26.9011 C   0  0  1  0  0  0  0  0  0  0  0  0
    7.5500  -18.5551   26.2326 O   0  0  0  0  0  0  0  0  0  0  0  0
    9.5832  -17.6887   27.1012 C   0  0  2  0  0  0  0  0  0  0  0  0
   10.1834  -17.9859   25.8215 N   0  0  0  0  0  0  0  0  0  0  0  0
    9.8479  -18.7375   28.1003 C   0  0  0  0  0  0  0  0  0  0  0  0
    9.3709  -18.5561   29.4218 O   0  0  0  0  0  0  0  0  0  0  0  0
   10.4612  -19.7876   27.8890 O   0  0  0  0  0  0  0  0  0  0  0  0
  1  2  1  0
  2 12  2  0
  3  4  2  0
  3  2  1  0
  4  5  1  0
  5  6  1  0
  5 11  2  0
  7  8  1  1
  7  6  1  0
  9  7  1  0
 10  9  2  0
 12 11  1  0
 13  9  1  0
 14 13  1  0
 14 15  1  1
 15 16  1  0
 16 20  1  0
 17 16  2  0
 18 14  1  0
 19 18  2  0
 22 21  1  6
 22 24  1  0
 23 22  1  0
 24 26  1  0
 24 25  1  6
 25 18  1  0
 26 27  1  0
 28 26  2  0
M  END
$$$$
