YDT.pdb
     RDKit          3D

 28 28  0  0  1  0  0  0  0  0999 V2000
    7.6833  -12.3535   17.2812 O   0  0  0  0  0  0  0  0  0  0  0  0
    7.6779  -12.9130   18.5701 C   0  0  0  0  0  0  0  0  0  0  0  0
    8.8597  -12.9827   19.2640 C   0  0  0  0  0  0  0  0  0  0  0  0
    8.8727  -13.5327   20.5388 C   0  0  0  0  0  0  0  0  0  0  0  0
    7.7028  -13.9988   21.0877 C   0  0  0  0  0  0  0  0  0  0  0  0
    7.7136  -14.5913   22.4379 C   0  0  0  0  0  0  0  0  0  0  0  0
    8.0773  -16.0629   22.2753 C   0  0  2  0  0  0  0  0  0  0  0  0
    6.8133  -16.7882   22.2027 N   0  0  0  0  0  0  0  0  0  0  0  0
    8.8098  -16.5323   23.4593 C   0  0  0  0  0  0  0  0  0  0  0  0
    8.2424  -16.7260   24.5365 O   0  0  0  0  0  0  0  0  0  0  0  0
    6.5277  -13.9260   20.3891 C   0  0  0  0  0  0  0  0  0  0  0  0
    6.5157  -13.3792   19.1220 C   0  0  0  0  0  0  0  0  0  0  0  0
   10.2239  -16.7817   23.3963 N   0  0  0  0  0  0  0  0  0  0  0  0
   11.0431  -17.0806   24.5211 C   0  0  1  0  0  0  0  0  0  0  0  0
   12.3767  -17.7052   24.1322 C   0  0  0  0  0  0  0  0  0  0  0  0
   12.0614  -18.6521   23.0143 C   0  0  0  0  0  0  0  0  0  0  0  0
   11.3792  -19.7079   23.1759 O   0  0  0  0  0  0  0  0  0  0  0  0
   11.1886  -15.9733   25.4918 C   0  0  0  0  0  0  0  0  0  0  0  0
   12.0190  -15.0459   25.3544 O   0  0  0  0  0  0  0  0  0  0  0  0
   12.5090  -18.4221   21.6966 O   0  0  0  0  0  0  0  0  0  0  0  0
    9.3716  -13.0664   26.6791 C   0  0  0  0  0  0  0  0  0  0  0  0
    9.4236  -14.0190   27.8244 C   0  0  1  0  0  0  0  0  0  0  0  0
    8.2209  -14.7462   27.8195 O   0  0  0  0  0  0  0  0  0  0  0  0
   10.5824  -14.9899   27.7625 C   0  0  2  0  0  0  0  0  0  0  0  0
   10.3632  -15.9062   26.6678 N   0  0  0  0  0  0  0  0  0  0  0  0
   10.7939  -15.6873   29.0420 C   0  0  0  0  0  0  0  0  0  0  0  0
   10.7049  -17.1009   29.0706 O   0  0  0  0  0  0  0  0  0  0  0  0
   11.0491  -15.1422   30.1196 O   0  0  0  0  0  0  0  0  0  0  0  0
  1  2  1  0
  2 12  2  0
  3  4  2  0
  3  2  1  0
  4  5  1  0
  5  6  1  0
  5 11  2  0
  7  8  1  1
  7  6  1  0
  9  7  1  0
 10  9  2  0
 12 11  1  0
 13  9  1  0
 14 13  1  0
 14 15  1  6
 15 16  1  0
 16 20  1  0
 17 16  2  0
 18 14  1  0
 19 18  2  0
 22 21  1  6
 22 24  1  0
 23 22  1  0
 24 26  1  0
 24 25  1  6
 25 18  1  0
 26 27  1  0
 28 26  2  0
M  END
$$$$
