YDT.pdb
     RDKit          3D

 28 28  0  0  1  0  0  0  0  0999 V2000
    8.6091  -12.1735   18.3843 O   0  0  0  0  0  0  0  0  0  0  0  0
    8.0960  -12.9205   19.4580 C   0  0  0  0  0  0  0  0  0  0  0  0
    7.0737  -13.8039   19.2182 C   0  0  0  0  0  0  0  0  0  0  0  0
    6.5546  -14.5502   20.2677 C   0  0  0  0  0  0  0  0  0  0  0  0
    7.0716  -14.3942   21.5309 C   0  0  0  0  0  0  0  0  0  0  0  0
    6.5175  -15.1786   22.6498 C   0  0  0  0  0  0  0  0  0  0  0  0
    7.1314  -16.5716   22.5637 C   0  0  2  0  0  0  0  0  0  0  0  0
    6.0363  -17.5121   22.7765 N   0  0  0  0  0  0  0  0  0  0  0  0
    8.1117  -16.7550   23.6426 C   0  0  0  0  0  0  0  0  0  0  0  0
    7.7620  -16.9370   24.8106 O   0  0  0  0  0  0  0  0  0  0  0  0
    8.0914  -13.5107   21.7623 C   0  0  0  0  0  0  0  0  0  0  0  0
    8.6068  -12.7693   20.7186 C   0  0  0  0  0  0  0  0  0  0  0  0
    9.5218  -16.7273   23.3654 N   0  0  0  0  0  0  0  0  0  0  0  0
   10.5409  -16.9346   24.3370 C   0  0  1  0  0  0  0  0  0  0  0  0
   11.8787  -17.3186   23.7182 C   0  0  0  0  0  0  0  0  0  0  0  0
   11.6977  -18.7193   23.2172 C   0  0  0  0  0  0  0  0  0  0  0  0
   11.0226  -19.5930   23.8394 O   0  0  0  0  0  0  0  0  0  0  0  0
   10.6622  -15.8585   25.3455 C   0  0  0  0  0  0  0  0  0  0  0  0
   11.3476  -14.8257   25.1668 O   0  0  0  0  0  0  0  0  0  0  0  0
   12.2738  -19.1560   22.0060 O   0  0  0  0  0  0  0  0  0  0  0  0
    8.6301  -13.2792   26.7818 C   0  0  0  0  0  0  0  0  0  0  0  0
    8.9220  -14.2190   27.9014 C   0  0  1  0  0  0  0  0  0  0  0  0
    7.8288  -15.0959   28.0081 O   0  0  0  0  0  0  0  0  0  0  0  0
   10.1836  -15.0314   27.7071 C   0  0  2  0  0  0  0  0  0  0  0  0
    9.9817  -15.9482   26.6095 N   0  0  0  0  0  0  0  0  0  0  0  0
   10.5990  -15.7190   28.9411 C   0  0  0  0  0  0  0  0  0  0  0  0
   10.7216  -17.1303   28.9268 O   0  0  0  0  0  0  0  0  0  0  0  0
   10.8582  -15.1671   30.0143 O   0  0  0  0  0  0  0  0  0  0  0  0
  1  2  1  0
  2 12  2  0
  3  4  2  0
  3  2  1  0
  4  5  1  0
  5  6  1  0
  5 11  2  0
  7  8  1  1
  7  6  1  0
  9  7  1  0
 10  9  2  0
 12 11  1  0
 13  9  1  0
 14 13  1  0
 14 15  1  6
 15 16  1  0
 16 20  1  0
 17 16  2  0
 18 14  1  0
 19 18  2  0
 22 21  1  6
 22 24  1  0
 23 22  1  0
 24 26  1  0
 24 25  1  6
 25 18  1  0
 26 27  1  0
 28 26  2  0
M  END
$$$$
