YDT.pdb
     RDKit          3D

 28 28  0  0  1  0  0  0  0  0999 V2000
    7.3602  -12.1779   27.5312 O   0  0  0  0  0  0  0  0  0  0  0  0
    7.2335  -13.1534   26.5279 C   0  0  0  0  0  0  0  0  0  0  0  0
    6.3289  -14.1697   26.7063 C   0  0  0  0  0  0  0  0  0  0  0  0
    6.1907  -15.1423   25.7250 C   0  0  0  0  0  0  0  0  0  0  0  0
    6.9609  -15.0734   24.5895 C   0  0  0  0  0  0  0  0  0  0  0  0
    6.8233  -16.1088   23.5488 C   0  0  0  0  0  0  0  0  0  0  0  0
    8.0068  -15.9475   22.6013 C   0  0  2  0  0  0  0  0  0  0  0  0
    7.6223  -16.6028   21.3556 N   0  0  0  0  0  0  0  0  0  0  0  0
    9.1818  -16.6432   23.1436 C   0  0  0  0  0  0  0  0  0  0  0  0
    9.1076  -17.7927   23.5828 O   0  0  0  0  0  0  0  0  0  0  0  0
    7.8614  -14.0565   24.4188 C   0  0  0  0  0  0  0  0  0  0  0  0
    7.9981  -13.0903   25.3947 C   0  0  0  0  0  0  0  0  0  0  0  0
   10.4655  -15.9976   23.1787 N   0  0  0  0  0  0  0  0  0  0  0  0
   11.6554  -16.5912   23.6860 C   0  0  1  0  0  0  0  0  0  0  0  0
   12.9054  -16.1398   22.9416 C   0  0  0  0  0  0  0  0  0  0  0  0
   12.8877  -16.8889   21.6439 C   0  0  0  0  0  0  0  0  0  0  0  0
   13.2854  -16.3854   20.5509 O   0  0  0  0  0  0  0  0  0  0  0  0
   11.8046  -16.5185   25.1564 C   0  0  0  0  0  0  0  0  0  0  0  0
   12.7564  -17.0466   25.7758 O   0  0  0  0  0  0  0  0  0  0  0  0
   12.4232  -18.2180   21.5589 O   0  0  0  0  0  0  0  0  0  0  0  0
   10.6694  -13.1881   27.1894 C   0  0  0  0  0  0  0  0  0  0  0  0
   10.1727  -14.4442   27.8199 C   0  0  1  0  0  0  0  0  0  0  0  0
    8.8239  -14.5920   27.4533 O   0  0  0  0  0  0  0  0  0  0  0  0
   10.9325  -15.6833   27.3996 C   0  0  2  0  0  0  0  0  0  0  0  0
   10.8414  -15.8202   25.9647 N   0  0  0  0  0  0  0  0  0  0  0  0
   10.4679  -16.8882   28.1070 C   0  0  0  0  0  0  0  0  0  0  0  0
   10.6191  -16.9534   29.5141 O   0  0  0  0  0  0  0  0  0  0  0  0
    9.9447  -17.8719   27.5759 O   0  0  0  0  0  0  0  0  0  0  0  0
  1  2  1  0
  2 12  2  0
  3  4  2  0
  3  2  1  0
  4  5  1  0
  5  6  1  0
  5 11  2  0
  7  8  1  6
  7  6  1  0
  9  7  1  0
 10  9  2  0
 12 11  1  0
 13  9  1  0
 14 13  1  0
 14 15  1  6
 15 16  1  0
 16 20  1  0
 17 16  2  0
 18 14  1  0
 19 18  2  0
 22 21  1  6
 22 24  1  0
 23 22  1  0
 24 26  1  0
 24 25  1  6
 25 18  1  0
 26 27  1  0
 28 26  2  0
M  END
$$$$
