YDT.pdb
     RDKit          3D

 28 28  0  0  1  0  0  0  0  0999 V2000
    7.5224  -12.9077   16.6355 O   0  0  0  0  0  0  0  0  0  0  0  0
    7.5776  -13.3811   17.9572 C   0  0  0  0  0  0  0  0  0  0  0  0
    8.1635  -12.5936   18.9162 C   0  0  0  0  0  0  0  0  0  0  0  0
    8.2268  -13.0459   20.2274 C   0  0  0  0  0  0  0  0  0  0  0  0
    7.7018  -14.2746   20.5465 C   0  0  0  0  0  0  0  0  0  0  0  0
    7.7744  -14.7623   21.9361 C   0  0  0  0  0  0  0  0  0  0  0  0
    9.2200  -15.1767   22.1874 C   0  0  2  0  0  0  0  0  0  0  0  0
    9.5509  -16.1471   21.1492 N   0  0  0  0  0  0  0  0  0  0  0  0
    9.3310  -15.8429   23.4922 C   0  0  0  0  0  0  0  0  0  0  0  0
    8.7165  -15.4365   24.4806 O   0  0  0  0  0  0  0  0  0  0  0  0
    7.1190  -15.0547   19.5841 C   0  0  0  0  0  0  0  0  0  0  0  0
    7.0565  -14.6044   18.2811 C   0  0  0  0  0  0  0  0  0  0  0  0
   10.1681  -16.9997   23.6567 N   0  0  0  0  0  0  0  0  0  0  0  0
   10.4044  -17.6569   24.8968 C   0  0  1  0  0  0  0  0  0  0  0  0
   11.1135  -18.9948   24.7313 C   0  0  0  0  0  0  0  0  0  0  0  0
   10.3792  -19.7009   23.6323 C   0  0  0  0  0  0  0  0  0  0  0  0
   10.9021  -19.9573   22.5067 O   0  0  0  0  0  0  0  0  0  0  0  0
   11.0185  -16.8064   25.9403 C   0  0  0  0  0  0  0  0  0  0  0  0
   12.1674  -16.3184   25.8385 O   0  0  0  0  0  0  0  0  0  0  0  0
    9.0445  -20.1305   23.7863 O   0  0  0  0  0  0  0  0  0  0  0  0
   10.0932  -13.5061   27.4540 C   0  0  0  0  0  0  0  0  0  0  0  0
   10.0242  -14.5390   28.5266 C   0  0  1  0  0  0  0  0  0  0  0  0
    8.6813  -14.9390   28.6372 O   0  0  0  0  0  0  0  0  0  0  0  0
   10.8775  -15.7593   28.2586 C   0  0  2  0  0  0  0  0  0  0  0  0
   10.3084  -16.4905   27.1506 N   0  0  0  0  0  0  0  0  0  0  0  0
   11.0416  -16.5985   29.4573 C   0  0  0  0  0  0  0  0  0  0  0  0
   11.5986  -16.0192   30.6240 O   0  0  0  0  0  0  0  0  0  0  0  0
   10.7304  -17.7899   29.5440 O   0  0  0  0  0  0  0  0  0  0  0  0
  1  2  1  0
  2 12  2  0
  3  4  2  0
  3  2  1  0
  4  5  1  0
  5  6  1  0
  5 11  2  0
  7  8  1  6
  7  6  1  0
  9  7  1  0
 10  9  2  0
 12 11  1  0
 13  9  1  0
 14 13  1  0
 14 15  1  6
 15 16  1  0
 16 20  1  0
 17 16  2  0
 18 14  1  0
 19 18  2  0
 22 21  1  6
 22 24  1  0
 23 22  1  0
 24 26  1  0
 24 25  1  6
 25 18  1  0
 26 27  1  0
 28 26  2  0
M  END
$$$$
