YDT.pdb
     RDKit          3D

 28 28  0  0  1  0  0  0  0  0999 V2000
    8.3123  -12.0925   18.0507 O   0  0  0  0  0  0  0  0  0  0  0  0
    8.0049  -12.7753   19.2396 C   0  0  0  0  0  0  0  0  0  0  0  0
    8.9145  -12.7539   20.2668 C   0  0  0  0  0  0  0  0  0  0  0  0
    8.6271  -13.4234   21.4488 C   0  0  0  0  0  0  0  0  0  0  0  0
    7.4365  -14.0973   21.5736 C   0  0  0  0  0  0  0  0  0  0  0  0
    7.1310  -14.8166   22.8239 C   0  0  0  0  0  0  0  0  0  0  0  0
    7.4947  -16.2796   22.5960 C   0  0  2  0  0  0  0  0  0  0  0  0
    6.2600  -17.0372   22.7709 N   0  0  0  0  0  0  0  0  0  0  0  0
    8.4547  -16.7224   23.6163 C   0  0  0  0  0  0  0  0  0  0  0  0
    8.0869  -17.0979   24.7314 O   0  0  0  0  0  0  0  0  0  0  0  0
    6.5341  -14.1142   20.5442 C   0  0  0  0  0  0  0  0  0  0  0  0
    6.8206  -13.4486   19.3698 C   0  0  0  0  0  0  0  0  0  0  0  0
    9.8657  -16.7306   23.3419 N   0  0  0  0  0  0  0  0  0  0  0  0
   10.8703  -17.0900   24.2838 C   0  0  1  0  0  0  0  0  0  0  0  0
   12.1802  -17.5005   23.6236 C   0  0  0  0  0  0  0  0  0  0  0  0
   13.0462  -18.0046   24.7378 C   0  0  0  0  0  0  0  0  0  0  0  0
   14.0763  -17.3882   25.1443 O   0  0  0  0  0  0  0  0  0  0  0  0
   11.0612  -16.1200   25.3849 C   0  0  0  0  0  0  0  0  0  0  0  0
   11.8316  -15.1359   25.3056 O   0  0  0  0  0  0  0  0  0  0  0  0
   12.7631  -19.2107   25.4121 O   0  0  0  0  0  0  0  0  0  0  0  0
    9.0353  -13.5786   26.8576 C   0  0  0  0  0  0  0  0  0  0  0  0
    9.2706  -14.5685   27.9470 C   0  0  1  0  0  0  0  0  0  0  0  0
    8.1622  -15.4322   27.9748 O   0  0  0  0  0  0  0  0  0  0  0  0
   10.5275  -15.3913   27.7670 C   0  0  2  0  0  0  0  0  0  0  0  0
   10.3534  -16.2632   26.6288 N   0  0  0  0  0  0  0  0  0  0  0  0
   10.8888  -16.1308   28.9880 C   0  0  0  0  0  0  0  0  0  0  0  0
   11.1938  -15.3998   30.1625 O   0  0  0  0  0  0  0  0  0  0  0  0
   10.9516  -17.3595   29.0874 O   0  0  0  0  0  0  0  0  0  0  0  0
  1  2  1  0
  2 12  2  0
  3  4  2  0
  3  2  1  0
  4  5  1  0
  5  6  1  0
  5 11  2  0
  7  8  1  1
  7  6  1  0
  9  7  1  0
 10  9  2  0
 12 11  1  0
 13  9  1  0
 14 13  1  0
 14 15  1  6
 15 16  1  0
 16 20  1  0
 17 16  2  0
 18 14  1  0
 19 18  2  0
 22 21  1  6
 22 24  1  0
 23 22  1  0
 24 26  1  0
 24 25  1  6
 25 18  1  0
 26 27  1  0
 28 26  2  0
M  END
$$$$
