YDT.pdb
     RDKit          3D

 28 28  0  0  1  0  0  0  0  0999 V2000
    8.9345  -11.6078   18.8807 O   0  0  0  0  0  0  0  0  0  0  0  0
    8.2991  -12.5942   19.6537 C   0  0  0  0  0  0  0  0  0  0  0  0
    8.3937  -12.5235   21.0208 C   0  0  0  0  0  0  0  0  0  0  0  0
    7.7721  -13.4899   21.8001 C   0  0  0  0  0  0  0  0  0  0  0  0
    7.0710  -14.5028   21.1921 C   0  0  0  0  0  0  0  0  0  0  0  0
    6.4164  -15.5360   22.0158 C   0  0  0  0  0  0  0  0  0  0  0  0
    7.1778  -16.8367   21.7861 C   0  0  2  0  0  0  0  0  0  0  0  0
    6.1700  -17.8525   21.5002 N   0  0  0  0  0  0  0  0  0  0  0  0
    7.8879  -17.2253   23.0123 C   0  0  0  0  0  0  0  0  0  0  0  0
    7.2959  -17.7211   23.9733 O   0  0  0  0  0  0  0  0  0  0  0  0
    6.9813  -14.5668   19.8275 C   0  0  0  0  0  0  0  0  0  0  0  0
    7.5995  -13.6058   19.0537 C   0  0  0  0  0  0  0  0  0  0  0  0
    9.3080  -17.0368   23.1290 N   0  0  0  0  0  0  0  0  0  0  0  0
   10.0691  -17.3288   24.2956 C   0  0  1  0  0  0  0  0  0  0  0  0
   11.2510  -18.2481   24.0160 C   0  0  0  0  0  0  0  0  0  0  0  0
   11.8026  -18.6075   25.3621 C   0  0  0  0  0  0  0  0  0  0  0  0
   12.3736  -17.7679   26.1206 O   0  0  0  0  0  0  0  0  0  0  0  0
   10.4399  -16.1463   25.1043 C   0  0  0  0  0  0  0  0  0  0  0  0
   11.4150  -15.4088   24.8331 O   0  0  0  0  0  0  0  0  0  0  0  0
   11.7171  -19.9189   25.8747 O   0  0  0  0  0  0  0  0  0  0  0  0
    8.6749  -12.9596   25.8341 C   0  0  0  0  0  0  0  0  0  0  0  0
    8.8427  -13.6909   27.1221 C   0  0  1  0  0  0  0  0  0  0  0  0
    7.6529  -14.4008   27.3588 O   0  0  0  0  0  0  0  0  0  0  0  0
   10.0019  -14.6631   27.1288 C   0  0  2  0  0  0  0  0  0  0  0  0
    9.6795  -15.7772   26.2680 N   0  0  0  0  0  0  0  0  0  0  0  0
   10.3599  -15.0938   28.4907 C   0  0  0  0  0  0  0  0  0  0  0  0
   10.7621  -14.1143   29.4318 O   0  0  0  0  0  0  0  0  0  0  0  0
   10.3411  -16.2580   28.9004 O   0  0  0  0  0  0  0  0  0  0  0  0
  1  2  1  0
  2 12  2  0
  3  4  2  0
  3  2  1  0
  4  5  1  0
  5  6  1  0
  5 11  2  0
  7  8  1  1
  7  6  1  0
  9  7  1  0
 10  9  2  0
 12 11  1  0
 13  9  1  0
 14 13  1  0
 14 15  1  6
 15 16  1  0
 16 20  1  0
 17 16  2  0
 18 14  1  0
 19 18  2  0
 22 21  1  6
 22 24  1  0
 23 22  1  0
 24 26  1  0
 24 25  1  6
 25 18  1  0
 26 27  1  0
 28 26  2  0
M  END
$$$$
