YDT.pdb
     RDKit          3D

 28 28  0  0  1  0  0  0  0  0999 V2000
    7.2976  -12.2773   17.8458 O   0  0  0  0  0  0  0  0  0  0  0  0
    7.5356  -12.9328   19.0656 C   0  0  0  0  0  0  0  0  0  0  0  0
    6.4733  -13.4854   19.7358 C   0  0  0  0  0  0  0  0  0  0  0  0
    6.6903  -14.1367   20.9427 C   0  0  0  0  0  0  0  0  0  0  0  0
    7.9648  -14.2192   21.4487 C   0  0  0  0  0  0  0  0  0  0  0  0
    8.1984  -14.9028   22.7341 C   0  0  0  0  0  0  0  0  0  0  0  0
    8.7536  -16.2850   22.4088 C   0  0  2  0  0  0  0  0  0  0  0  0
    7.5993  -17.1705   22.2970 N   0  0  0  0  0  0  0  0  0  0  0  0
    9.5934  -16.7614   23.5162 C   0  0  0  0  0  0  0  0  0  0  0  0
    9.1044  -17.2736   24.5253 O   0  0  0  0  0  0  0  0  0  0  0  0
    9.0196  -13.6652   20.7743 C   0  0  0  0  0  0  0  0  0  0  0  0
    8.8030  -13.0180   19.5748 C   0  0  0  0  0  0  0  0  0  0  0  0
   11.0246  -16.6428   23.4555 N   0  0  0  0  0  0  0  0  0  0  0  0
   11.9070  -16.9413   24.5316 C   0  0  1  0  0  0  0  0  0  0  0  0
   13.3441  -17.1574   24.0755 C   0  0  0  0  0  0  0  0  0  0  0  0
   13.2533  -18.0816   22.8994 C   0  0  0  0  0  0  0  0  0  0  0  0
   12.7643  -19.2484   22.9747 O   0  0  0  0  0  0  0  0  0  0  0  0
   11.8032  -16.0248   25.6888 C   0  0  0  0  0  0  0  0  0  0  0  0
   12.5407  -15.0239   25.8388 O   0  0  0  0  0  0  0  0  0  0  0  0
   13.7108  -17.7037   21.6197 O   0  0  0  0  0  0  0  0  0  0  0  0
    9.4902  -13.5745   27.0615 C   0  0  0  0  0  0  0  0  0  0  0  0
    9.5242  -14.7050   28.0325 C   0  0  1  0  0  0  0  0  0  0  0  0
    8.4305  -15.5389   27.7429 O   0  0  0  0  0  0  0  0  0  0  0  0
   10.7939  -15.5256   27.9741 C   0  0  2  0  0  0  0  0  0  0  0  0
   10.8262  -16.2438   26.7214 N   0  0  0  0  0  0  0  0  0  0  0  0
   10.9330  -16.4202   29.1354 C   0  0  0  0  0  0  0  0  0  0  0  0
   11.0627  -15.8479   30.4250 O   0  0  0  0  0  0  0  0  0  0  0  0
   10.9467  -17.6536   29.0902 O   0  0  0  0  0  0  0  0  0  0  0  0
  1  2  1  0
  2 12  2  0
  3  4  2  0
  3  2  1  0
  4  5  1  0
  5  6  1  0
  5 11  2  0
  7  8  1  1
  7  6  1  0
  9  7  1  0
 10  9  2  0
 12 11  1  0
 13  9  1  0
 14 13  1  0
 14 15  1  6
 15 16  1  0
 16 20  1  0
 17 16  2  0
 18 14  1  0
 19 18  2  0
 22 21  1  6
 22 24  1  0
 23 22  1  0
 24 26  1  0
 24 25  1  6
 25 18  1  0
 26 27  1  0
 28 26  2  0
M  END
$$$$
