YDT.pdb
     RDKit          3D

 28 28  0  0  1  0  0  0  0  0999 V2000
    7.6898  -12.9107   16.7227 O   0  0  0  0  0  0  0  0  0  0  0  0
    7.8479  -13.3303   18.0544 C   0  0  0  0  0  0  0  0  0  0  0  0
    8.7877  -14.2896   18.3366 C   0  0  0  0  0  0  0  0  0  0  0  0
    8.9572  -14.7161   19.6470 C   0  0  0  0  0  0  0  0  0  0  0  0
    8.1824  -14.1718   20.6424 C   0  0  0  0  0  0  0  0  0  0  0  0
    8.3534  -14.6279   22.0341 C   0  0  0  0  0  0  0  0  0  0  0  0
    8.3510  -16.1523   22.0064 C   0  0  2  0  0  0  0  0  0  0  0  0
    6.9529  -16.5543   21.8934 N   0  0  0  0  0  0  0  0  0  0  0  0
    8.8800  -16.6776   23.2724 C   0  0  0  0  0  0  0  0  0  0  0  0
    8.1452  -16.9066   24.2354 O   0  0  0  0  0  0  0  0  0  0  0  0
    7.2468  -13.2152   20.3529 C   0  0  0  0  0  0  0  0  0  0  0  0
    7.0789  -12.7920   19.0501 C   0  0  0  0  0  0  0  0  0  0  0  0
   10.2842  -16.9427   23.4273 N   0  0  0  0  0  0  0  0  0  0  0  0
   10.8946  -17.3887   24.6332 C   0  0  1  0  0  0  0  0  0  0  0  0
   12.0895  -18.3012   24.3890 C   0  0  0  0  0  0  0  0  0  0  0  0
   12.2458  -19.0975   25.6488 C   0  0  0  0  0  0  0  0  0  0  0  0
   11.4668  -18.9788   26.6414 O   0  0  0  0  0  0  0  0  0  0  0  0
   11.1800  -16.3184   25.6144 C   0  0  0  0  0  0  0  0  0  0  0  0
   12.1309  -15.5125   25.4925 O   0  0  0  0  0  0  0  0  0  0  0  0
   13.2818  -20.0414   25.8080 O   0  0  0  0  0  0  0  0  0  0  0  0
    9.5591  -13.2700   26.5604 C   0  0  0  0  0  0  0  0  0  0  0  0
    9.5310  -14.1228   27.7826 C   0  0  1  0  0  0  0  0  0  0  0  0
    8.2786  -14.7597   27.8203 O   0  0  0  0  0  0  0  0  0  0  0  0
   10.6166  -15.1760   27.8207 C   0  0  2  0  0  0  0  0  0  0  0  0
   10.3592  -16.1470   26.7829 N   0  0  0  0  0  0  0  0  0  0  0  0
   10.7433  -15.7977   29.1495 C   0  0  0  0  0  0  0  0  0  0  0  0
   10.5970  -17.2024   29.2615 O   0  0  0  0  0  0  0  0  0  0  0  0
   10.9718  -15.1949   30.2020 O   0  0  0  0  0  0  0  0  0  0  0  0
  1  2  1  0
  2 12  2  0
  3  4  2  0
  3  2  1  0
  4  5  1  0
  5  6  1  0
  5 11  2  0
  7  8  1  1
  7  6  1  0
  9  7  1  0
 10  9  2  0
 12 11  1  0
 13  9  1  0
 14 13  1  0
 14 15  1  6
 15 16  1  0
 16 20  1  0
 17 16  2  0
 18 14  1  0
 19 18  2  0
 22 21  1  6
 22 24  1  0
 23 22  1  0
 24 26  1  0
 24 25  1  6
 25 18  1  0
 26 27  1  0
 28 26  2  0
M  END
$$$$
