YDT.pdb
     RDKit          3D

 28 28  0  0  1  0  0  0  0  0999 V2000
    7.4657  -12.9738   16.1777 O   0  0  0  0  0  0  0  0  0  0  0  0
    7.5410  -13.4427   17.5001 C   0  0  0  0  0  0  0  0  0  0  0  0
    8.0869  -12.6272   18.4592 C   0  0  0  0  0  0  0  0  0  0  0  0
    8.1694  -13.0746   19.7710 C   0  0  0  0  0  0  0  0  0  0  0  0
    7.7031  -14.3267   20.0905 C   0  0  0  0  0  0  0  0  0  0  0  0
    7.7964  -14.8089   21.4808 C   0  0  0  0  0  0  0  0  0  0  0  0
    9.2701  -15.0842   21.7585 C   0  0  2  0  0  0  0  0  0  0  0  0
    9.6967  -16.0583   20.7594 N   0  0  0  0  0  0  0  0  0  0  0  0
    9.4252  -15.6904   23.0878 C   0  0  0  0  0  0  0  0  0  0  0  0
    8.6800  -15.3953   24.0245 O   0  0  0  0  0  0  0  0  0  0  0  0
    7.1599  -15.1346   19.1281 C   0  0  0  0  0  0  0  0  0  0  0  0
    7.0784  -14.6892   17.8244 C   0  0  0  0  0  0  0  0  0  0  0  0
   10.4609  -16.6550   23.3382 N   0  0  0  0  0  0  0  0  0  0  0  0
   10.7455  -17.2236   24.6115 C   0  0  1  0  0  0  0  0  0  0  0  0
   11.7586  -18.3587   24.5393 C   0  0  0  0  0  0  0  0  0  0  0  0
   11.3096  -19.2205   23.3985 C   0  0  0  0  0  0  0  0  0  0  0  0
   12.0424  -19.4759   22.3965 O   0  0  0  0  0  0  0  0  0  0  0  0
   11.0592  -16.2401   25.6718 C   0  0  0  0  0  0  0  0  0  0  0  0
   12.0760  -15.5094   25.6499 O   0  0  0  0  0  0  0  0  0  0  0  0
   10.0280  -19.8091   23.3709 O   0  0  0  0  0  0  0  0  0  0  0  0
    9.5232  -13.1309   26.8020 C   0  0  0  0  0  0  0  0  0  0  0  0
    9.4157  -14.0943   27.9344 C   0  0  1  0  0  0  0  0  0  0  0  0
    8.1427  -14.6856   27.8619 O   0  0  0  0  0  0  0  0  0  0  0  0
   10.4637  -15.1853   27.9131 C   0  0  2  0  0  0  0  0  0  0  0  0
   10.1903  -16.0711   26.8055 N   0  0  0  0  0  0  0  0  0  0  0  0
   10.5468  -15.9032   29.1960 C   0  0  0  0  0  0  0  0  0  0  0  0
   10.9219  -15.1831   30.3570 O   0  0  0  0  0  0  0  0  0  0  0  0
   10.3134  -17.1041   29.3597 O   0  0  0  0  0  0  0  0  0  0  0  0
  1  2  1  0
  2 12  2  0
  3  4  2  0
  3  2  1  0
  4  5  1  0
  5  6  1  0
  5 11  2  0
  7  8  1  6
  7  6  1  0
  9  7  1  0
 10  9  2  0
 12 11  1  0
 13  9  1  0
 14 13  1  0
 14 15  1  6
 15 16  1  0
 16 20  1  0
 17 16  2  0
 18 14  1  0
 19 18  2  0
 22 21  1  6
 22 24  1  0
 23 22  1  0
 24 26  1  0
 24 25  1  6
 25 18  1  0
 26 27  1  0
 28 26  2  0
M  END
$$$$
