TEY.pdb
     RDKit          3D

 29 29  0  0  1  0  0  0  0  0999 V2000
    8.8203  -12.8945   20.3931 C   0  0  0  0  0  0  0  0  0  0  0  0
    7.8280  -13.4599   19.4191 C   0  0  1  0  0  0  0  0  0  0  0  0
    7.6174  -12.6239   18.3220 O   0  0  0  0  0  0  0  0  0  0  0  0
    8.3027  -14.8258   18.9732 C   0  0  2  0  0  0  0  0  0  0  0  0
    7.4165  -15.4347   18.0047 N   0  0  0  0  0  0  0  0  0  0  0  0
    8.4890  -15.7643   20.0991 C   0  0  0  0  0  0  0  0  0  0  0  0
    7.5442  -16.4859   20.5188 O   0  0  0  0  0  0  0  0  0  0  0  0
    9.7303  -15.8705   20.7293 N   0  0  0  0  0  0  0  0  0  0  0  0
   10.0265  -16.8521   21.7661 C   0  0  1  0  0  0  0  0  0  0  0  0
   11.4586  -17.2585   21.5957 C   0  0  0  0  0  0  0  0  0  0  0  0
   11.7349  -18.1224   20.4030 C   0  0  0  0  0  0  0  0  0  0  0  0
   13.2113  -18.4217   20.4516 C   0  0  0  0  0  0  0  0  0  0  0  0
   13.7346  -18.5364   21.6035 O   0  0  0  0  0  0  0  0  0  0  0  0
    9.9058  -16.2488   23.1119 C   0  0  0  0  0  0  0  0  0  0  0  0
   10.4864  -15.1781   23.4329 O   0  0  0  0  0  0  0  0  0  0  0  0
   14.0033  -18.5762   19.3428 O   0  0  0  0  0  0  0  0  0  0  0  0
    6.9426  -10.2995   26.3696 O   0  0  0  0  0  0  0  0  0  0  0  0
    7.0679  -11.6927   26.1902 C   0  0  0  0  0  0  0  0  0  0  0  0
    8.3089  -12.1869   25.8539 C   0  0  0  0  0  0  0  0  0  0  0  0
    8.4230  -13.5615   25.6807 C   0  0  0  0  0  0  0  0  0  0  0  0
    7.3617  -14.4225   25.8314 C   0  0  0  0  0  0  0  0  0  0  0  0
    7.5900  -15.8491   25.6150 C   0  0  0  0  0  0  0  0  0  0  0  0
    9.0294  -16.2545   25.4495 C   0  0  2  0  0  0  0  0  0  0  0  0
    9.1175  -16.8640   24.1092 N   0  0  0  0  0  0  0  0  0  0  0  0
    9.3735  -17.2437   26.4932 C   0  0  0  0  0  0  0  0  0  0  0  0
    9.3283  -18.4864   26.3087 O   0  0  0  0  0  0  0  0  0  0  0  0
    6.1388  -13.8779   26.1690 C   0  0  0  0  0  0  0  0  0  0  0  0
    5.9895  -12.5273   26.3471 C   0  0  0  0  0  0  0  0  0  0  0  0
    9.7799  -16.8430   27.7824 O   0  0  0  0  0  0  0  0  0  0  0  0
  2  3  1  0
  2  1  1  1
  4  2  1  0
  4  5  1  6
  6  7  2  0
  6  4  1  0
  8  6  1  0
  9  8  1  0
  9 10  1  6
 11 12  1  0
 11 10  1  0
 12 13  2  0
 14 24  1  0
 14  9  1  0
 15 14  2  0
 16 12  1  0
 18 17  1  0
 19 18  2  0
 20 19  1  0
 21 27  1  0
 21 20  2  0
 23 22  1  1
 22 21  1  0
 23 24  1  0
 23 25  1  0
 25 29  1  0
 26 25  2  0
 27 28  2  0
 28 18  1  0
M  END
$$$$
