TEY.pdb
     RDKit          3D

 29 29  0  0  1  0  0  0  0  0999 V2000
   10.0606  -12.7101   20.5633 C   0  0  0  0  0  0  0  0  0  0  0  0
    8.8063  -12.6440   19.7415 C   0  0  1  0  0  0  0  0  0  0  0  0
    8.9384  -11.8148   18.6271 O   0  0  0  0  0  0  0  0  0  0  0  0
    8.4176  -14.0466   19.3272 C   0  0  2  0  0  0  0  0  0  0  0  0
    7.2757  -14.0685   18.4385 N   0  0  0  0  0  0  0  0  0  0  0  0
    8.1369  -14.9282   20.4792 C   0  0  0  0  0  0  0  0  0  0  0  0
    6.9809  -15.0180   20.9742 O   0  0  0  0  0  0  0  0  0  0  0  0
    9.1599  -15.6874   21.0505 N   0  0  0  0  0  0  0  0  0  0  0  0
    8.9352  -16.7039   22.0715 C   0  0  1  0  0  0  0  0  0  0  0  0
    9.6590  -17.9405   21.6328 C   0  0  0  0  0  0  0  0  0  0  0  0
    9.0964  -18.6054   20.4135 C   0  0  0  0  0  0  0  0  0  0  0  0
   10.2376  -19.3862   19.8138 C   0  0  0  0  0  0  0  0  0  0  0  0
   10.6273  -20.4127   20.4528 O   0  0  0  0  0  0  0  0  0  0  0  0
    9.5276  -16.2921   23.3636 C   0  0  0  0  0  0  0  0  0  0  0  0
   10.5881  -15.6169   23.4422 O   0  0  0  0  0  0  0  0  0  0  0  0
   10.8634  -19.0569   18.6389 O   0  0  0  0  0  0  0  0  0  0  0  0
    5.8441  -10.9759   25.7610 O   0  0  0  0  0  0  0  0  0  0  0  0
    6.5161  -12.1869   26.0271 C   0  0  0  0  0  0  0  0  0  0  0  0
    5.8662  -13.3619   25.7200 C   0  0  0  0  0  0  0  0  0  0  0  0
    6.5371  -14.5503   25.9845 C   0  0  0  0  0  0  0  0  0  0  0  0
    7.7989  -14.5888   26.5292 C   0  0  0  0  0  0  0  0  0  0  0  0
    8.4080  -15.8934   26.7765 C   0  0  0  0  0  0  0  0  0  0  0  0
    9.5434  -16.2597   25.8598 C   0  0  2  0  0  0  0  0  0  0  0  0
    8.9127  -16.6479   24.5841 N   0  0  0  0  0  0  0  0  0  0  0  0
   10.2824  -17.4006   26.4417 C   0  0  0  0  0  0  0  0  0  0  0  0
   10.2395  -18.5647   25.9690 O   0  0  0  0  0  0  0  0  0  0  0  0
    8.4078  -13.3841   26.8191 C   0  0  0  0  0  0  0  0  0  0  0  0
    7.7759  -12.1933   26.5723 C   0  0  0  0  0  0  0  0  0  0  0  0
   11.0944  -17.2464   27.5840 O   0  0  0  0  0  0  0  0  0  0  0  0
  2  3  1  0
  2  1  1  6
  4  2  1  0
  4  5  1  6
  6  7  2  0
  6  4  1  0
  8  6  1  0
  9  8  1  0
  9 10  1  6
 11 12  1  0
 11 10  1  0
 12 13  2  0
 14 24  1  0
 14  9  1  0
 15 14  2  0
 16 12  1  0
 18 17  1  0
 19 18  2  0
 20 19  1  0
 21 27  1  0
 21 20  2  0
 23 22  1  1
 22 21  1  0
 23 24  1  0
 23 25  1  0
 25 29  1  0
 26 25  2  0
 27 28  2  0
 28 18  1  0
M  END
$$$$
