TEY.pdb
     RDKit          3D

 29 29  0  0  1  0  0  0  0  0999 V2000
   10.2050  -12.7246   19.6482 C   0  0  0  0  0  0  0  0  0  0  0  0
    8.9610  -12.8553   18.8186 C   0  0  1  0  0  0  0  0  0  0  0  0
    8.9833  -12.0399   17.6864 O   0  0  0  0  0  0  0  0  0  0  0  0
    8.7787  -14.3074   18.4340 C   0  0  2  0  0  0  0  0  0  0  0  0
    7.5896  -14.5281   17.6393 N   0  0  0  0  0  0  0  0  0  0  0  0
    8.7402  -15.2101   19.6031 C   0  0  0  0  0  0  0  0  0  0  0  0
    7.6776  -15.4000   20.2545 O   0  0  0  0  0  0  0  0  0  0  0  0
    9.8949  -15.8777   20.0156 N   0  0  0  0  0  0  0  0  0  0  0  0
    9.9565  -16.7241   21.2014 C   0  0  1  0  0  0  0  0  0  0  0  0
   11.0994  -17.6739   21.0092 C   0  0  0  0  0  0  0  0  0  0  0  0
   11.3067  -18.6506   22.1265 C   0  0  0  0  0  0  0  0  0  0  0  0
   12.4708  -19.5099   21.7040 C   0  0  0  0  0  0  0  0  0  0  0  0
   13.1494  -20.0511   22.6316 O   0  0  0  0  0  0  0  0  0  0  0  0
   10.2605  -15.9205   22.4063 C   0  0  0  0  0  0  0  0  0  0  0  0
   10.7190  -14.7489   22.3457 O   0  0  0  0  0  0  0  0  0  0  0  0
   12.8279  -19.7365   20.3995 O   0  0  0  0  0  0  0  0  0  0  0  0
    5.6507  -11.5117   27.9163 O   0  0  0  0  0  0  0  0  0  0  0  0
    6.3432  -12.3652   27.0325 C   0  0  0  0  0  0  0  0  0  0  0  0
    5.6030  -13.2659   26.2988 C   0  0  0  0  0  0  0  0  0  0  0  0
    6.2943  -14.1018   25.4294 C   0  0  0  0  0  0  0  0  0  0  0  0
    7.6606  -14.0583   25.2820 C   0  0  0  0  0  0  0  0  0  0  0  0
    8.2872  -14.9904   24.3476 C   0  0  0  0  0  0  0  0  0  0  0  0
    9.6104  -15.5544   24.7886 C   0  0  2  0  0  0  0  0  0  0  0  0
   10.0429  -16.4483   23.6980 N   0  0  0  0  0  0  0  0  0  0  0  0
    9.4146  -16.3185   26.0393 C   0  0  0  0  0  0  0  0  0  0  0  0
    9.7703  -15.8971   27.1690 O   0  0  0  0  0  0  0  0  0  0  0  0
    8.3571  -13.1381   26.0397 C   0  0  0  0  0  0  0  0  0  0  0  0
    7.7086  -12.2987   26.9074 C   0  0  0  0  0  0  0  0  0  0  0  0
    8.8057  -17.5902   26.0377 O   0  0  0  0  0  0  0  0  0  0  0  0
  2  3  1  0
  2  1  1  6
  4  2  1  0
  4  5  1  1
  6  7  2  0
  6  4  1  0
  8  6  1  0
  9  8  1  0
  9 10  1  6
 11 12  1  0
 11 10  1  0
 12 13  2  0
 14 24  1  0
 14  9  1  0
 15 14  2  0
 16 12  1  0
 18 17  1  0
 19 18  2  0
 20 19  1  0
 21 27  1  0
 21 20  2  0
 23 22  1  6
 22 21  1  0
 23 24  1  0
 23 25  1  0
 25 29  1  0
 26 25  2  0
 27 28  2  0
 28 18  1  0
M  END
$$$$
