TEY.pdb
     RDKit          3D

 29 29  0  0  1  0  0  0  0  0999 V2000
    7.1275  -12.6588   18.7588 C   0  0  0  0  0  0  0  0  0  0  0  0
    7.2488  -13.9437   19.5251 C   0  0  1  0  0  0  0  0  0  0  0  0
    7.5680  -15.0280   18.7069 O   0  0  0  0  0  0  0  0  0  0  0  0
    8.2830  -13.7681   20.6157 C   0  0  2  0  0  0  0  0  0  0  0  0
    9.6011  -13.4804   20.0923 N   0  0  0  0  0  0  0  0  0  0  0  0
    8.3757  -14.9387   21.5126 C   0  0  0  0  0  0  0  0  0  0  0  0
    7.3779  -15.3505   22.1640 O   0  0  0  0  0  0  0  0  0  0  0  0
    9.5858  -15.6193   21.6592 N   0  0  0  0  0  0  0  0  0  0  0  0
    9.7731  -16.7436   22.5688 C   0  0  1  0  0  0  0  0  0  0  0  0
   10.6921  -17.7138   21.8910 C   0  0  0  0  0  0  0  0  0  0  0  0
   10.1029  -18.4281   20.7129 C   0  0  0  0  0  0  0  0  0  0  0  0
   11.2100  -19.2934   20.1675 C   0  0  0  0  0  0  0  0  0  0  0  0
   11.1594  -20.5316   20.4470 O   0  0  0  0  0  0  0  0  0  0  0  0
   10.4461  -16.3077   23.8126 C   0  0  0  0  0  0  0  0  0  0  0  0
   11.5642  -15.7277   23.8147 O   0  0  0  0  0  0  0  0  0  0  0  0
   12.2459  -18.8266   19.3997 O   0  0  0  0  0  0  0  0  0  0  0  0
    5.1762  -12.4458   26.7583 O   0  0  0  0  0  0  0  0  0  0  0  0
    6.4720  -12.9770   26.5919 C   0  0  0  0  0  0  0  0  0  0  0  0
    7.3042  -12.9935   27.6894 C   0  0  0  0  0  0  0  0  0  0  0  0
    8.5789  -13.5205   27.5159 C   0  0  0  0  0  0  0  0  0  0  0  0
    9.0239  -14.0143   26.3124 C   0  0  0  0  0  0  0  0  0  0  0  0
   10.3868  -14.5354   26.2380 C   0  0  0  0  0  0  0  0  0  0  0  0
   10.5086  -16.0339   26.2932 C   0  0  2  0  0  0  0  0  0  0  0  0
    9.8468  -16.5301   25.0719 N   0  0  0  0  0  0  0  0  0  0  0  0
    9.8110  -16.5290   27.4992 C   0  0  0  0  0  0  0  0  0  0  0  0
   10.1572  -16.2283   28.6697 O   0  0  0  0  0  0  0  0  0  0  0  0
    8.1519  -13.9753   25.2428 C   0  0  0  0  0  0  0  0  0  0  0  0
    6.8882  -13.4624   25.3772 C   0  0  0  0  0  0  0  0  0  0  0  0
    8.6946  -17.3850   27.4050 O   0  0  0  0  0  0  0  0  0  0  0  0
  2  3  1  0
  2  1  1  6
  4  2  1  0
  4  5  1  6
  6  7  2  0
  6  4  1  0
  8  6  1  0
  9  8  1  0
  9 10  1  6
 11 12  1  0
 11 10  1  0
 12 13  2  0
 14 24  1  0
 14  9  1  0
 15 14  2  0
 16 12  1  0
 18 17  1  0
 19 18  2  0
 20 19  1  0
 21 27  1  0
 21 20  2  0
 23 22  1  6
 22 21  1  0
 23 24  1  0
 23 25  1  0
 25 29  1  0
 26 25  2  0
 27 28  2  0
 28 18  1  0
M  END
$$$$
