TEY.pdb
     RDKit          3D

 29 29  0  0  1  0  0  0  0  0999 V2000
    8.5517  -12.5375   20.4528 C   0  0  0  0  0  0  0  0  0  0  0  0
    7.9438  -13.1354   19.2175 C   0  0  1  0  0  0  0  0  0  0  0  0
    8.0997  -12.3211   18.0951 O   0  0  0  0  0  0  0  0  0  0  0  0
    8.5536  -14.5002   18.9826 C   0  0  2  0  0  0  0  0  0  0  0  0
    8.0939  -15.1118   17.7543 N   0  0  0  0  0  0  0  0  0  0  0  0
    8.3087  -15.4378   20.0980 C   0  0  0  0  0  0  0  0  0  0  0  0
    7.1821  -15.9768   20.2706 O   0  0  0  0  0  0  0  0  0  0  0  0
    9.3326  -15.7477   20.9951 N   0  0  0  0  0  0  0  0  0  0  0  0
    9.2269  -16.7892   22.0102 C   0  0  1  0  0  0  0  0  0  0  0  0
   10.2153  -17.8576   21.6538 C   0  0  0  0  0  0  0  0  0  0  0  0
   11.6008  -17.3675   21.3615 C   0  0  0  0  0  0  0  0  0  0  0  0
   12.3829  -18.5863   20.9436 C   0  0  0  0  0  0  0  0  0  0  0  0
   13.1666  -18.4517   19.9528 O   0  0  0  0  0  0  0  0  0  0  0  0
    9.6142  -16.2689   23.3403 C   0  0  0  0  0  0  0  0  0  0  0  0
   10.5577  -15.4504   23.5032 O   0  0  0  0  0  0  0  0  0  0  0  0
   12.2979  -19.8066   21.5634 O   0  0  0  0  0  0  0  0  0  0  0  0
    6.5171  -10.5458   26.3253 O   0  0  0  0  0  0  0  0  0  0  0  0
    6.8898  -11.9044   26.3909 C   0  0  0  0  0  0  0  0  0  0  0  0
    8.1963  -12.1960   26.7153 C   0  0  0  0  0  0  0  0  0  0  0  0
    8.5538  -13.5379   26.7789 C   0  0  0  0  0  0  0  0  0  0  0  0
    7.6655  -14.5584   26.5347 C   0  0  0  0  0  0  0  0  0  0  0  0
    8.1498  -15.9342   26.6183 C   0  0  0  0  0  0  0  0  0  0  0  0
    9.3949  -16.2292   25.8268 C   0  0  2  0  0  0  0  0  0  0  0  0
    8.9252  -16.6790   24.5029 N   0  0  0  0  0  0  0  0  0  0  0  0
   10.1506  -17.3056   26.5027 C   0  0  0  0  0  0  0  0  0  0  0  0
   10.1903  -18.4900   26.0830 O   0  0  0  0  0  0  0  0  0  0  0  0
    6.3677  -14.2141   26.2136 C   0  0  0  0  0  0  0  0  0  0  0  0
    5.9801  -12.9016   26.1411 C   0  0  0  0  0  0  0  0  0  0  0  0
   10.8851  -17.0616   27.6812 O   0  0  0  0  0  0  0  0  0  0  0  0
  2  3  1  0
  2  1  1  1
  4  2  1  0
  4  5  1  6
  6  7  2  0
  6  4  1  0
  8  6  1  0
  9  8  1  0
  9 10  1  6
 11 12  1  0
 11 10  1  0
 12 13  2  0
 14 24  1  0
 14  9  1  0
 15 14  2  0
 16 12  1  0
 18 17  1  0
 19 18  2  0
 20 19  1  0
 21 27  1  0
 21 20  2  0
 23 22  1  1
 22 21  1  0
 23 24  1  0
 23 25  1  0
 25 29  1  0
 26 25  2  0
 27 28  2  0
 28 18  1  0
M  END
$$$$
