TEY.pdb
     RDKit          3D

 29 29  0  0  1  0  0  0  0  0999 V2000
    8.9079  -12.8515   20.6395 C   0  0  0  0  0  0  0  0  0  0  0  0
    7.7438  -13.4280   19.8874 C   0  0  1  0  0  0  0  0  0  0  0  0
    7.3846  -12.6562   18.7818 O   0  0  0  0  0  0  0  0  0  0  0  0
    8.0819  -14.8429   19.4707 C   0  0  2  0  0  0  0  0  0  0  0  0
    7.0293  -15.4612   18.6937 N   0  0  0  0  0  0  0  0  0  0  0  0
    8.3995  -15.7185   20.6177 C   0  0  0  0  0  0  0  0  0  0  0  0
    7.4931  -16.2965   21.2763 O   0  0  0  0  0  0  0  0  0  0  0  0
    9.7263  -15.9241   21.0004 N   0  0  0  0  0  0  0  0  0  0  0  0
   10.1273  -16.8511   22.0522 C   0  0  1  0  0  0  0  0  0  0  0  0
   11.5834  -17.1438   21.8536 C   0  0  0  0  0  0  0  0  0  0  0  0
   12.1719  -18.1208   22.8254 C   0  0  0  0  0  0  0  0  0  0  0  0
   13.6145  -18.2794   22.4185 C   0  0  0  0  0  0  0  0  0  0  0  0
   13.8552  -19.0833   21.4646 O   0  0  0  0  0  0  0  0  0  0  0  0
    9.9906  -16.2247   23.3859 C   0  0  0  0  0  0  0  0  0  0  0  0
   10.4529  -15.0839   23.6533 O   0  0  0  0  0  0  0  0  0  0  0  0
   14.6592  -17.6149   23.0080 O   0  0  0  0  0  0  0  0  0  0  0  0
    6.4959  -10.4585   25.7472 O   0  0  0  0  0  0  0  0  0  0  0  0
    6.8104  -11.8332   25.7636 C   0  0  0  0  0  0  0  0  0  0  0  0
    7.1139  -12.4072   26.9784 C   0  0  0  0  0  0  0  0  0  0  0  0
    7.4210  -13.7629   26.9848 C   0  0  0  0  0  0  0  0  0  0  0  0
    7.4305  -14.5305   25.8441 C   0  0  0  0  0  0  0  0  0  0  0  0
    7.7784  -15.9444   25.9626 C   0  0  0  0  0  0  0  0  0  0  0  0
    9.2339  -16.2697   25.7645 C   0  0  2  0  0  0  0  0  0  0  0  0
    9.3216  -16.8969   24.4324 N   0  0  0  0  0  0  0  0  0  0  0  0
    9.6617  -17.2190   26.8144 C   0  0  0  0  0  0  0  0  0  0  0  0
    9.7194  -18.4625   26.6392 O   0  0  0  0  0  0  0  0  0  0  0  0
    7.1192  -13.9084   24.6516 C   0  0  0  0  0  0  0  0  0  0  0  0
    6.8121  -12.5736   24.6077 C   0  0  0  0  0  0  0  0  0  0  0  0
   10.0370  -16.7760   28.0992 O   0  0  0  0  0  0  0  0  0  0  0  0
  2  3  1  0
  2  1  1  6
  4  2  1  0
  4  5  1  1
  6  7  2  0
  6  4  1  0
  8  6  1  0
  9  8  1  0
  9 10  1  6
 11 12  1  0
 11 10  1  0
 12 13  2  0
 14 24  1  0
 14  9  1  0
 15 14  2  0
 16 12  1  0
 18 17  1  0
 19 18  2  0
 20 19  1  0
 21 27  1  0
 21 20  2  0
 23 22  1  1
 22 21  1  0
 23 24  1  0
 23 25  1  0
 25 29  1  0
 26 25  2  0
 27 28  2  0
 28 18  1  0
M  END
$$$$
