TEY.pdb
     RDKit          3D

 29 29  0  0  1  0  0  0  0  0999 V2000
    6.7967  -13.0070   18.2547 C   0  0  0  0  0  0  0  0  0  0  0  0
    7.1456  -14.2437   19.0305 C   0  0  1  0  0  0  0  0  0  0  0  0
    7.9013  -15.1492   18.2849 O   0  0  0  0  0  0  0  0  0  0  0  0
    7.8775  -13.8405   20.2921 C   0  0  2  0  0  0  0  0  0  0  0  0
    9.1181  -13.1474   20.0190 N   0  0  0  0  0  0  0  0  0  0  0  0
    8.1617  -14.9858   21.1815 C   0  0  0  0  0  0  0  0  0  0  0  0
    7.2353  -15.6950   21.6592 O   0  0  0  0  0  0  0  0  0  0  0  0
    9.4784  -15.3079   21.5158 N   0  0  0  0  0  0  0  0  0  0  0  0
    9.8421  -16.4440   22.3544 C   0  0  1  0  0  0  0  0  0  0  0  0
   11.0647  -17.0664   21.7518 C   0  0  0  0  0  0  0  0  0  0  0  0
   10.8171  -17.8937   20.5273 C   0  0  0  0  0  0  0  0  0  0  0  0
   12.1702  -18.4019   20.1001 C   0  0  0  0  0  0  0  0  0  0  0  0
   12.5708  -19.4825   20.6346 O   0  0  0  0  0  0  0  0  0  0  0  0
   10.2115  -15.9964   23.7157 C   0  0  0  0  0  0  0  0  0  0  0  0
   10.6105  -14.8276   23.9635 O   0  0  0  0  0  0  0  0  0  0  0  0
   12.9745  -17.7754   19.1829 O   0  0  0  0  0  0  0  0  0  0  0  0
    6.2366  -10.8856   26.8415 O   0  0  0  0  0  0  0  0  0  0  0  0
    6.7299  -12.1758   26.5569 C   0  0  0  0  0  0  0  0  0  0  0  0
    5.8221  -13.1408   26.1801 C   0  0  0  0  0  0  0  0  0  0  0  0
    6.3180  -14.4090   25.9001 C   0  0  0  0  0  0  0  0  0  0  0  0
    7.6540  -14.7225   25.9849 C   0  0  0  0  0  0  0  0  0  0  0  0
    8.0661  -16.0903   25.6790 C   0  0  0  0  0  0  0  0  0  0  0  0
    9.4788  -16.4393   26.0608 C   0  0  2  0  0  0  0  0  0  0  0  0
   10.1283  -16.8820   24.8126 N   0  0  0  0  0  0  0  0  0  0  0  0
    9.4522  -17.5379   27.0500 C   0  0  0  0  0  0  0  0  0  0  0  0
    9.2161  -17.3614   28.2720 O   0  0  0  0  0  0  0  0  0  0  0  0
    8.5235  -13.7204   26.3668 C   0  0  0  0  0  0  0  0  0  0  0  0
    8.0698  -12.4589   26.6510 C   0  0  0  0  0  0  0  0  0  0  0  0
    9.6955  -18.8745   26.6728 O   0  0  0  0  0  0  0  0  0  0  0  0
  2  3  1  0
  2  1  1  6
  4  2  1  0
  4  5  1  6
  6  7  2  0
  6  4  1  0
  8  6  1  0
  9  8  1  0
  9 10  1  6
 11 12  1  0
 11 10  1  0
 12 13  2  0
 14 24  1  0
 14  9  1  0
 15 14  2  0
 16 12  1  0
 18 17  1  0
 19 18  2  0
 20 19  1  0
 21 27  1  0
 21 20  2  0
 23 22  1  6
 22 21  1  0
 23 24  1  0
 23 25  1  0
 25 29  1  0
 26 25  2  0
 27 28  2  0
 28 18  1  0
M  END
$$$$
