TEY.pdb
     RDKit          3D

 29 29  0  0  1  0  0  0  0  0999 V2000
   15.1899  -14.4030   17.6243 C   0  0  0  0  0  0  0  0  0  0  0  0
   14.3381  -14.7818   18.8008 C   0  0  1  0  0  0  0  0  0  0  0  0
   14.1233  -13.7143   19.6732 O   0  0  0  0  0  0  0  0  0  0  0  0
   13.0248  -15.3386   18.2958 C   0  0  2  0  0  0  0  0  0  0  0  0
   12.3270  -14.4169   17.4253 N   0  0  0  0  0  0  0  0  0  0  0  0
   12.1136  -15.7392   19.3878 C   0  0  0  0  0  0  0  0  0  0  0  0
   11.2394  -14.9510   19.8393 O   0  0  0  0  0  0  0  0  0  0  0  0
   12.2053  -17.0142   19.9493 N   0  0  0  0  0  0  0  0  0  0  0  0
   11.3166  -17.4983   20.9992 C   0  0  1  0  0  0  0  0  0  0  0  0
   11.4300  -18.9922   21.0220 C   0  0  0  0  0  0  0  0  0  0  0  0
   12.8216  -19.5199   21.1959 C   0  0  0  0  0  0  0  0  0  0  0  0
   12.6912  -21.0214   21.1816 C   0  0  0  0  0  0  0  0  0  0  0  0
   12.0284  -21.5476   22.1290 O   0  0  0  0  0  0  0  0  0  0  0  0
   11.7555  -17.0115   22.3260 C   0  0  0  0  0  0  0  0  0  0  0  0
   12.9481  -16.6903   22.5734 O   0  0  0  0  0  0  0  0  0  0  0  0
   13.2359  -21.8332   20.2199 O   0  0  0  0  0  0  0  0  0  0  0  0
   10.4967  -14.3477   30.7841 O   0  0  0  0  0  0  0  0  0  0  0  0
   10.4049  -14.7442   29.4337 C   0  0  0  0  0  0  0  0  0  0  0  0
    9.8982  -13.8351   28.5315 C   0  0  0  0  0  0  0  0  0  0  0  0
    9.8129  -14.2344   27.2027 C   0  0  0  0  0  0  0  0  0  0  0  0
   10.2095  -15.4781   26.7711 C   0  0  0  0  0  0  0  0  0  0  0  0
   10.0662  -15.7983   25.3529 C   0  0  0  0  0  0  0  0  0  0  0  0
   11.2900  -16.3749   24.6946 C   0  0  2  0  0  0  0  0  0  0  0  0
   10.8334  -16.8855   23.3883 N   0  0  0  0  0  0  0  0  0  0  0  0
   11.8107  -17.4782   25.5300 C   0  0  0  0  0  0  0  0  0  0  0  0
   11.3347  -18.6416   25.5125 O   0  0  0  0  0  0  0  0  0  0  0  0
   10.7106  -16.3530   27.7142 C   0  0  0  0  0  0  0  0  0  0  0  0
   10.8085  -15.9935   29.0330 C   0  0  0  0  0  0  0  0  0  0  0  0
   12.8929  -17.2859   26.4129 O   0  0  0  0  0  0  0  0  0  0  0  0
  2  3  1  0
  2  1  1  6
  4  2  1  0
  4  5  1  1
  6  7  2  0
  6  4  1  0
  8  6  1  0
  9  8  1  0
  9 10  1  1
 11 12  1  0
 11 10  1  0
 12 13  2  0
 14 24  1  0
 14  9  1  0
 15 14  2  0
 16 12  1  0
 18 17  1  0
 19 18  2  0
 20 19  1  0
 21 27  1  0
 21 20  2  0
 23 22  1  1
 22 21  1  0
 23 24  1  0
 23 25  1  0
 25 29  1  0
 26 25  2  0
 27 28  2  0
 28 18  1  0
M  END
$$$$
