TEY.pdb
     RDKit          3D

 29 29  0  0  1  0  0  0  0  0999 V2000
    7.8344  -12.6758   17.5853 C   0  0  0  0  0  0  0  0  0  0  0  0
    7.6533  -13.9844   18.2978 C   0  0  1  0  0  0  0  0  0  0  0  0
    7.8802  -15.0828   17.4677 O   0  0  0  0  0  0  0  0  0  0  0  0
    8.5708  -14.0186   19.5006 C   0  0  2  0  0  0  0  0  0  0  0  0
    9.9695  -14.0696   19.1330 N   0  0  0  0  0  0  0  0  0  0  0  0
    8.2802  -15.1446   20.4122 C   0  0  0  0  0  0  0  0  0  0  0  0
    7.2025  -15.2038   21.0637 O   0  0  0  0  0  0  0  0  0  0  0  0
    9.2060  -16.1772   20.5731 N   0  0  0  0  0  0  0  0  0  0  0  0
    9.0657  -17.2383   21.5634 C   0  0  1  0  0  0  0  0  0  0  0  0
    9.9732  -18.3557   21.1474 C   0  0  0  0  0  0  0  0  0  0  0  0
   11.4374  -18.0489   21.2339 C   0  0  0  0  0  0  0  0  0  0  0  0
   12.1403  -19.2687   20.6957 C   0  0  0  0  0  0  0  0  0  0  0  0
   13.3485  -19.1196   20.3324 O   0  0  0  0  0  0  0  0  0  0  0  0
    9.5255  -16.7808   22.8936 C   0  0  0  0  0  0  0  0  0  0  0  0
   10.4569  -15.9460   23.0422 O   0  0  0  0  0  0  0  0  0  0  0  0
   11.5593  -20.5056   20.5818 O   0  0  0  0  0  0  0  0  0  0  0  0
    6.5293  -11.3719   28.6576 O   0  0  0  0  0  0  0  0  0  0  0  0
    6.8911  -12.3641   27.7229 C   0  0  0  0  0  0  0  0  0  0  0  0
    6.1983  -12.4075   26.5332 C   0  0  0  0  0  0  0  0  0  0  0  0
    6.5630  -13.3879   25.6176 C   0  0  0  0  0  0  0  0  0  0  0  0
    7.5697  -14.2934   25.8564 C   0  0  0  0  0  0  0  0  0  0  0  0
    7.8641  -15.2898   24.8294 C   0  0  0  0  0  0  0  0  0  0  0  0
    8.7961  -16.3936   25.2495 C   0  0  2  0  0  0  0  0  0  0  0  0
    8.9238  -17.2734   24.0725 N   0  0  0  0  0  0  0  0  0  0  0  0
    8.1929  -17.1271   26.3828 C   0  0  0  0  0  0  0  0  0  0  0  0
    8.4493  -16.8707   27.5864 O   0  0  0  0  0  0  0  0  0  0  0  0
    8.2339  -14.2083   27.0637 C   0  0  0  0  0  0  0  0  0  0  0  0
    7.9006  -13.2551   27.9901 C   0  0  0  0  0  0  0  0  0  0  0  0
    7.2767  -18.1786   26.1754 O   0  0  0  0  0  0  0  0  0  0  0  0
  2  3  1  0
  2  1  1  6
  4  2  1  0
  4  5  1  6
  6  7  2  0
  6  4  1  0
  8  6  1  0
  9  8  1  0
  9 10  1  6
 11 12  1  0
 11 10  1  0
 12 13  2  0
 14 24  1  0
 14  9  1  0
 15 14  2  0
 16 12  1  0
 18 17  1  0
 19 18  2  0
 20 19  1  0
 21 27  1  0
 21 20  2  0
 23 22  1  6
 22 21  1  0
 23 24  1  0
 23 25  1  0
 25 29  1  0
 26 25  2  0
 27 28  2  0
 28 18  1  0
M  END
$$$$
