TEY.pdb
     RDKit          3D

 29 29  0  0  1  0  0  0  0  0999 V2000
    7.7760  -12.4160   18.4571 C   0  0  0  0  0  0  0  0  0  0  0  0
    8.3995  -13.3670   19.4369 C   0  0  1  0  0  0  0  0  0  0  0  0
    8.3283  -12.9054   20.7517 O   0  0  0  0  0  0  0  0  0  0  0  0
    7.7306  -14.7177   19.3023 C   0  0  2  0  0  0  0  0  0  0  0  0
    6.2900  -14.6395   19.4150 N   0  0  0  0  0  0  0  0  0  0  0  0
    8.2286  -15.7048   20.2826 C   0  0  0  0  0  0  0  0  0  0  0  0
    7.5703  -15.9952   21.3179 O   0  0  0  0  0  0  0  0  0  0  0  0
    9.4541  -16.3420   20.0797 N   0  0  0  0  0  0  0  0  0  0  0  0
   10.0532  -17.2614   21.0400 C   0  0  1  0  0  0  0  0  0  0  0  0
   11.2554  -17.8678   20.3826 C   0  0  0  0  0  0  0  0  0  0  0  0
   12.0241  -18.8325   21.2333 C   0  0  0  0  0  0  0  0  0  0  0  0
   13.1625  -19.3158   20.3717 C   0  0  0  0  0  0  0  0  0  0  0  0
   14.2186  -18.6097   20.3693 O   0  0  0  0  0  0  0  0  0  0  0  0
   10.5353  -16.5337   22.2350 C   0  0  0  0  0  0  0  0  0  0  0  0
   11.1720  -15.4494   22.1613 O   0  0  0  0  0  0  0  0  0  0  0  0
   13.1218  -20.4542   19.6082 O   0  0  0  0  0  0  0  0  0  0  0  0
   10.5289  -14.2263   30.7978 O   0  0  0  0  0  0  0  0  0  0  0  0
   10.2707  -14.6783   29.4870 C   0  0  0  0  0  0  0  0  0  0  0  0
   10.3230  -16.0350   29.2546 C   0  0  0  0  0  0  0  0  0  0  0  0
   10.0656  -16.4711   27.9600 C   0  0  0  0  0  0  0  0  0  0  0  0
    9.7671  -15.6115   26.9293 C   0  0  0  0  0  0  0  0  0  0  0  0
    9.5241  -16.1759   25.6039 C   0  0  0  0  0  0  0  0  0  0  0  0
   10.7304  -16.2645   24.7092 C   0  0  2  0  0  0  0  0  0  0  0  0
   10.2941  -17.0384   23.5318 N   0  0  0  0  0  0  0  0  0  0  0  0
   11.8101  -16.9757   25.4267 C   0  0  0  0  0  0  0  0  0  0  0  0
   12.7200  -16.3872   26.0641 O   0  0  0  0  0  0  0  0  0  0  0  0
    9.7269  -14.2610   27.2136 C   0  0  0  0  0  0  0  0  0  0  0  0
    9.9759  -13.7954   28.4782 C   0  0  0  0  0  0  0  0  0  0  0  0
   11.8840  -18.3836   25.4377 O   0  0  0  0  0  0  0  0  0  0  0  0
  2  3  1  0
  2  1  1  6
  4  2  1  0
  4  5  1  1
  6  7  2  0
  6  4  1  0
  8  6  1  0
  9  8  1  0
  9 10  1  6
 11 12  1  0
 11 10  1  0
 12 13  2  0
 14 24  1  0
 14  9  1  0
 15 14  2  0
 16 12  1  0
 18 17  1  0
 19 18  2  0
 20 19  1  0
 21 27  1  0
 21 20  2  0
 23 22  1  1
 22 21  1  0
 23 24  1  0
 23 25  1  0
 25 29  1  0
 26 25  2  0
 27 28  2  0
 28 18  1  0
M  END
$$$$
