TEY.pdb
     RDKit          3D

 29 29  0  0  1  0  0  0  0  0999 V2000
    9.3407  -12.8253   20.2608 C   0  0  0  0  0  0  0  0  0  0  0  0
    7.9864  -13.2373   19.7618 C   0  0  1  0  0  0  0  0  0  0  0  0
    7.5435  -12.4487   18.6994 O   0  0  0  0  0  0  0  0  0  0  0  0
    8.0329  -14.6974   19.3671 C   0  0  2  0  0  0  0  0  0  0  0  0
    6.7923  -15.1553   18.7794 N   0  0  0  0  0  0  0  0  0  0  0  0
    8.3777  -15.5863   20.4958 C   0  0  0  0  0  0  0  0  0  0  0  0
    7.4933  -16.0401   21.2713 O   0  0  0  0  0  0  0  0  0  0  0  0
    9.7068  -15.9443   20.7297 N   0  0  0  0  0  0  0  0  0  0  0  0
   10.1367  -16.7478   21.8680 C   0  0  1  0  0  0  0  0  0  0  0  0
   11.5238  -17.2307   21.5712 C   0  0  0  0  0  0  0  0  0  0  0  0
   11.6085  -18.3321   20.5588 C   0  0  0  0  0  0  0  0  0  0  0  0
   13.0804  -18.5912   20.3630 C   0  0  0  0  0  0  0  0  0  0  0  0
   13.6626  -17.9254   19.4510 O   0  0  0  0  0  0  0  0  0  0  0  0
   10.2197  -15.9223   23.0935 C   0  0  0  0  0  0  0  0  0  0  0  0
   10.2617  -14.6638   23.0653 O   0  0  0  0  0  0  0  0  0  0  0  0
   13.8105  -19.4863   21.1022 O   0  0  0  0  0  0  0  0  0  0  0  0
    5.8700  -10.8371   26.7271 O   0  0  0  0  0  0  0  0  0  0  0  0
    6.4117  -12.0686   26.3041 C   0  0  0  0  0  0  0  0  0  0  0  0
    7.5661  -12.5054   26.9157 C   0  0  0  0  0  0  0  0  0  0  0  0
    8.0916  -13.7210   26.4931 C   0  0  0  0  0  0  0  0  0  0  0  0
    7.5090  -14.4829   25.5080 C   0  0  0  0  0  0  0  0  0  0  0  0
    8.1513  -15.7403   25.1328 C   0  0  0  0  0  0  0  0  0  0  0  0
    9.6022  -15.8619   25.5116 C   0  0  2  0  0  0  0  0  0  0  0  0
   10.2552  -16.5278   24.3689 N   0  0  0  0  0  0  0  0  0  0  0  0
    9.7133  -16.6931   26.7294 C   0  0  0  0  0  0  0  0  0  0  0  0
    9.6358  -17.9478   26.7186 O   0  0  0  0  0  0  0  0  0  0  0  0
    6.3532  -14.0016   24.9261 C   0  0  0  0  0  0  0  0  0  0  0  0
    5.8074  -12.8070   25.3173 C   0  0  0  0  0  0  0  0  0  0  0  0
    9.9162  -16.1154   27.9994 O   0  0  0  0  0  0  0  0  0  0  0  0
  2  3  1  0
  2  1  1  6
  4  2  1  0
  4  5  1  1
  6  7  2  0
  6  4  1  0
  8  6  1  0
  9  8  1  0
  9 10  1  6
 11 12  1  0
 11 10  1  0
 12 13  2  0
 14 24  1  0
 14  9  1  0
 15 14  2  0
 16 12  1  0
 18 17  1  0
 19 18  2  0
 20 19  1  0
 21 27  1  0
 21 20  2  0
 23 22  1  6
 22 21  1  0
 23 24  1  0
 23 25  1  0
 25 29  1  0
 26 25  2  0
 27 28  2  0
 28 18  1  0
M  END
$$$$
