TEY.pdb
     RDKit          3D

 29 29  0  0  1  0  0  0  0  0999 V2000
    2.8965  -18.8107   21.2635 C   0  0  0  0  0  0  0  0  0  0  0  0
    4.1569  -18.9488   22.0668 C   0  0  1  0  0  0  0  0  0  0  0  0
    4.9532  -20.0108   21.6368 O   0  0  0  0  0  0  0  0  0  0  0  0
    4.9207  -17.6437   22.0083 C   0  0  2  0  0  0  0  0  0  0  0  0
    5.3571  -17.3134   20.6687 N   0  0  0  0  0  0  0  0  0  0  0  0
    6.0942  -17.6249   22.9059 C   0  0  0  0  0  0  0  0  0  0  0  0
    5.9785  -17.8198   24.1461 O   0  0  0  0  0  0  0  0  0  0  0  0
    7.3701  -17.3863   22.3919 N   0  0  0  0  0  0  0  0  0  0  0  0
    8.5728  -17.3296   23.2145 C   0  0  1  0  0  0  0  0  0  0  0  0
    9.7426  -17.5546   22.3055 C   0  0  0  0  0  0  0  0  0  0  0  0
   11.0836  -17.4941   22.9713 C   0  0  0  0  0  0  0  0  0  0  0  0
   12.0942  -17.6505   21.8640 C   0  0  0  0  0  0  0  0  0  0  0  0
   12.7152  -16.6026   21.5034 O   0  0  0  0  0  0  0  0  0  0  0  0
    8.7404  -15.9850   23.8094 C   0  0  0  0  0  0  0  0  0  0  0  0
    8.5961  -14.9239   23.1462 O   0  0  0  0  0  0  0  0  0  0  0  0
   12.3755  -18.8385   21.2395 O   0  0  0  0  0  0  0  0  0  0  0  0
   10.0568  -18.0364   31.0266 O   0  0  0  0  0  0  0  0  0  0  0  0
    9.6720  -17.1117   30.0337 C   0  0  0  0  0  0  0  0  0  0  0  0
    8.8076  -17.5461   29.0532 C   0  0  0  0  0  0  0  0  0  0  0  0
    8.4330  -16.6271   28.0798 C   0  0  0  0  0  0  0  0  0  0  0  0
    8.8867  -15.3293   28.0657 C   0  0  0  0  0  0  0  0  0  0  0  0
    8.4380  -14.4494   26.9893 C   0  0  0  0  0  0  0  0  0  0  0  0
    9.2690  -14.4876   25.7358 C   0  0  2  0  0  0  0  0  0  0  0  0
    9.0755  -15.8374   25.1735 N   0  0  0  0  0  0  0  0  0  0  0  0
   10.6878  -14.2726   26.0926 C   0  0  0  0  0  0  0  0  0  0  0  0
   11.5569  -15.1796   26.0455 O   0  0  0  0  0  0  0  0  0  0  0  0
    9.7513  -14.9428   29.0703 C   0  0  0  0  0  0  0  0  0  0  0  0
   10.1425  -15.8222   30.0458 C   0  0  0  0  0  0  0  0  0  0  0  0
   11.1579  -13.0124   26.5155 O   0  0  0  0  0  0  0  0  0  0  0  0
  2  3  1  0
  2  1  1  6
  4  2  1  0
  4  5  1  6
  6  7  2  0
  6  4  1  0
  8  6  1  0
  9  8  1  0
  9 10  1  6
 11 12  1  0
 11 10  1  0
 12 13  2  0
 14 24  1  0
 14  9  1  0
 15 14  2  0
 16 12  1  0
 18 17  1  0
 19 18  2  0
 20 19  1  0
 21 27  1  0
 21 20  2  0
 23 22  1  1
 22 21  1  0
 23 24  1  0
 23 25  1  0
 25 29  1  0
 26 25  2  0
 27 28  2  0
 28 18  1  0
M  END
$$$$
