TEY.pdb
     RDKit          3D

 29 29  0  0  1  0  0  0  0  0999 V2000
    6.2115  -14.5640   20.0649 C   0  0  0  0  0  0  0  0  0  0  0  0
    7.0458  -15.6004   20.7597 C   0  0  1  0  0  0  0  0  0  0  0  0
    7.7039  -16.4463   19.8662 O   0  0  0  0  0  0  0  0  0  0  0  0
    8.0335  -14.9042   21.6706 C   0  0  2  0  0  0  0  0  0  0  0  0
    8.9896  -14.0979   20.9428 N   0  0  0  0  0  0  0  0  0  0  0  0
    8.7719  -15.8429   22.5406 C   0  0  0  0  0  0  0  0  0  0  0  0
    8.1716  -16.6935   23.2516 O   0  0  0  0  0  0  0  0  0  0  0  0
   10.1665  -15.8046   22.5941 N   0  0  0  0  0  0  0  0  0  0  0  0
   10.9622  -16.6438   23.4823 C   0  0  1  0  0  0  0  0  0  0  0  0
   12.4002  -16.4423   23.1122 C   0  0  0  0  0  0  0  0  0  0  0  0
   13.3815  -17.2210   23.9343 C   0  0  0  0  0  0  0  0  0  0  0  0
   14.7011  -17.0972   23.2164 C   0  0  0  0  0  0  0  0  0  0  0  0
   15.1297  -18.1357   22.6232 O   0  0  0  0  0  0  0  0  0  0  0  0
   10.8135  -16.2099   24.8893 C   0  0  0  0  0  0  0  0  0  0  0  0
   11.2577  -15.1103   25.3136 O   0  0  0  0  0  0  0  0  0  0  0  0
   15.4473  -15.9478   23.1678 O   0  0  0  0  0  0  0  0  0  0  0  0
    6.7145  -11.4105   25.9570 O   0  0  0  0  0  0  0  0  0  0  0  0
    7.1862  -12.6806   26.3485 C   0  0  0  0  0  0  0  0  0  0  0  0
    8.2167  -12.7286   27.2612 C   0  0  0  0  0  0  0  0  0  0  0  0
    8.6739  -13.9850   27.6420 C   0  0  0  0  0  0  0  0  0  0  0  0
    8.1422  -15.1529   27.1486 C   0  0  0  0  0  0  0  0  0  0  0  0
    8.7055  -16.4200   27.6085 C   0  0  0  0  0  0  0  0  0  0  0  0
   10.1498  -16.6501   27.2554 C   0  0  2  0  0  0  0  0  0  0  0  0
   10.1531  -17.0304   25.8302 N   0  0  0  0  0  0  0  0  0  0  0  0
   10.6788  -17.7517   28.0878 C   0  0  0  0  0  0  0  0  0  0  0  0
   10.9954  -18.8767   27.6246 O   0  0  0  0  0  0  0  0  0  0  0  0
    7.1109  -15.0513   26.2364 C   0  0  0  0  0  0  0  0  0  0  0  0
    6.6354  -13.8295   25.8377 C   0  0  0  0  0  0  0  0  0  0  0  0
   10.8623  -17.6018   29.4776 O   0  0  0  0  0  0  0  0  0  0  0  0
  2  3  1  0
  2  1  1  6
  4  2  1  0
  4  5  1  6
  6  7  2  0
  6  4  1  0
  8  6  1  0
  9  8  1  0
  9 10  1  6
 11 12  1  0
 11 10  1  0
 12 13  2  0
 14 24  1  0
 14  9  1  0
 15 14  2  0
 16 12  1  0
 18 17  1  0
 19 18  2  0
 20 19  1  0
 21 27  1  0
 21 20  2  0
 23 22  1  1
 22 21  1  0
 23 24  1  0
 23 25  1  0
 25 29  1  0
 26 25  2  0
 27 28  2  0
 28 18  1  0
M  END
$$$$
