TEY.pdb
     RDKit          3D

 29 29  0  0  1  0  0  0  0  0999 V2000
    9.1064  -12.6138   20.8712 C   0  0  0  0  0  0  0  0  0  0  0  0
    7.8180  -12.9746   20.1908 C   0  0  1  0  0  0  0  0  0  0  0  0
    7.5161  -12.1229   19.1276 O   0  0  0  0  0  0  0  0  0  0  0  0
    7.8958  -14.4123   19.7249 C   0  0  2  0  0  0  0  0  0  0  0  0
    6.7207  -14.8230   18.9870 N   0  0  0  0  0  0  0  0  0  0  0  0
    8.1140  -15.3639   20.8340 C   0  0  0  0  0  0  0  0  0  0  0  0
    7.1561  -15.7923   21.5329 O   0  0  0  0  0  0  0  0  0  0  0  0
    9.4018  -15.8115   21.1346 N   0  0  0  0  0  0  0  0  0  0  0  0
    9.6846  -16.8528   22.1155 C   0  0  1  0  0  0  0  0  0  0  0  0
   10.9200  -17.5677   21.6594 C   0  0  0  0  0  0  0  0  0  0  0  0
   11.3525  -18.7061   22.5326 C   0  0  0  0  0  0  0  0  0  0  0  0
   12.6061  -19.2512   21.8976 C   0  0  0  0  0  0  0  0  0  0  0  0
   12.6277  -20.4973   21.6511 O   0  0  0  0  0  0  0  0  0  0  0  0
    9.9907  -16.2616   23.4371 C   0  0  0  0  0  0  0  0  0  0  0  0
   10.9666  -15.4885   23.6279 O   0  0  0  0  0  0  0  0  0  0  0  0
   13.7008  -18.4905   21.5761 O   0  0  0  0  0  0  0  0  0  0  0  0
    5.8733  -10.8432   25.5880 O   0  0  0  0  0  0  0  0  0  0  0  0
    6.5221  -12.0647   25.8636 C   0  0  0  0  0  0  0  0  0  0  0  0
    5.8297  -13.2291   25.6145 C   0  0  0  0  0  0  0  0  0  0  0  0
    6.4780  -14.4281   25.8878 C   0  0  0  0  0  0  0  0  0  0  0  0
    7.7580  -14.4867   26.3864 C   0  0  0  0  0  0  0  0  0  0  0  0
    8.3407  -15.8005   26.6482 C   0  0  0  0  0  0  0  0  0  0  0  0
    9.6098  -16.1044   25.8994 C   0  0  2  0  0  0  0  0  0  0  0  0
    9.1821  -16.5478   24.5591 N   0  0  0  0  0  0  0  0  0  0  0  0
   10.3328  -17.1883   26.5984 C   0  0  0  0  0  0  0  0  0  0  0  0
   11.2099  -16.9803   27.4747 O   0  0  0  0  0  0  0  0  0  0  0  0
    8.4095  -13.2919   26.6190 C   0  0  0  0  0  0  0  0  0  0  0  0
    7.8010  -12.0913   26.3617 C   0  0  0  0  0  0  0  0  0  0  0  0
   10.0760  -18.5458   26.3170 O   0  0  0  0  0  0  0  0  0  0  0  0
  2  3  1  0
  2  1  1  6
  4  2  1  0
  4  5  1  1
  6  7  2  0
  6  4  1  0
  8  6  1  0
  9  8  1  0
  9 10  1  6
 11 12  1  0
 11 10  1  0
 12 13  2  0
 14 24  1  0
 14  9  1  0
 15 14  2  0
 16 12  1  0
 18 17  1  0
 19 18  2  0
 20 19  1  0
 21 27  1  0
 21 20  2  0
 23 22  1  1
 22 21  1  0
 23 24  1  0
 23 25  1  0
 25 29  1  0
 26 25  2  0
 27 28  2  0
 28 18  1  0
M  END
$$$$
