TEY.pdb
     RDKit          3D

 29 29  0  0  1  0  0  0  0  0999 V2000
    7.7791  -12.4364   18.9664 C   0  0  0  0  0  0  0  0  0  0  0  0
    8.5197  -13.4994   19.7244 C   0  0  1  0  0  0  0  0  0  0  0  0
    8.1311  -13.5731   21.0625 O   0  0  0  0  0  0  0  0  0  0  0  0
    8.3165  -14.8283   19.0297 C   0  0  2  0  0  0  0  0  0  0  0  0
    6.9190  -15.1368   18.8154 N   0  0  0  0  0  0  0  0  0  0  0  0
    8.9441  -15.9547   19.7510 C   0  0  0  0  0  0  0  0  0  0  0  0
    8.2539  -16.7962   20.3875 O   0  0  0  0  0  0  0  0  0  0  0  0
   10.3315  -16.1103   19.7432 N   0  0  0  0  0  0  0  0  0  0  0  0
   11.0347  -17.1114   20.5366 C   0  0  1  0  0  0  0  0  0  0  0  0
   12.3025  -17.4427   19.8098 C   0  0  0  0  0  0  0  0  0  0  0  0
   12.1458  -18.3946   18.6633 C   0  0  0  0  0  0  0  0  0  0  0  0
   13.5440  -18.6790   18.1776 C   0  0  0  0  0  0  0  0  0  0  0  0
   14.1486  -17.7310   17.5863 O   0  0  0  0  0  0  0  0  0  0  0  0
   11.4234  -16.5608   21.8541 C   0  0  0  0  0  0  0  0  0  0  0  0
   12.4612  -15.8673   22.0231 O   0  0  0  0  0  0  0  0  0  0  0  0
   14.1864  -19.8799   18.3383 O   0  0  0  0  0  0  0  0  0  0  0  0
   10.7245  -14.2100   30.3355 O   0  0  0  0  0  0  0  0  0  0  0  0
   10.4637  -14.6307   29.0149 C   0  0  0  0  0  0  0  0  0  0  0  0
   11.4792  -14.5124   28.0918 C   0  0  0  0  0  0  0  0  0  0  0  0
   11.2132  -14.9311   26.7932 C   0  0  0  0  0  0  0  0  0  0  0  0
    9.9978  -15.4476   26.4107 C   0  0  0  0  0  0  0  0  0  0  0  0
    9.8219  -15.8470   25.0165 C   0  0  0  0  0  0  0  0  0  0  0  0
   11.0723  -16.2981   24.3118 C   0  0  2  0  0  0  0  0  0  0  0  0
   10.6276  -16.7968   22.9967 N   0  0  0  0  0  0  0  0  0  0  0  0
   11.6996  -17.3849   25.0939 C   0  0  0  0  0  0  0  0  0  0  0  0
   12.7818  -17.2499   25.7192 O   0  0  0  0  0  0  0  0  0  0  0  0
    9.0126  -15.5455   27.3729 C   0  0  0  0  0  0  0  0  0  0  0  0
    9.2394  -15.1419   28.6628 C   0  0  0  0  0  0  0  0  0  0  0  0
   11.1090  -18.6619   25.1855 O   0  0  0  0  0  0  0  0  0  0  0  0
  2  3  1  0
  2  1  1  6
  4  2  1  0
  4  5  1  1
  6  7  2  0
  6  4  1  0
  8  6  1  0
  9  8  1  0
  9 10  1  6
 11 12  1  0
 11 10  1  0
 12 13  2  0
 14 24  1  0
 14  9  1  0
 15 14  2  0
 16 12  1  0
 18 17  1  0
 19 18  2  0
 20 19  1  0
 21 27  1  0
 21 20  2  0
 23 22  1  1
 22 21  1  0
 23 24  1  0
 23 25  1  0
 25 29  1  0
 26 25  2  0
 27 28  2  0
 28 18  1  0
M  END
$$$$
