SGN.pdb
     RDKit          3D

 19 18  0  0  1  0  0  0  0  0999 V2000
   29.0970  -22.7029  -16.0082 O   0  0  0  0  0  0  0  0  0  0  0  0
   28.2026  -22.0367  -15.1456 C   0  0  0  0  0  0  0  0  0  0  0  0
   26.9926  -21.6813  -15.9586 C   0  0  2  0  0  0  0  0  0  0  0  0
   27.3330  -20.9566  -17.1395 N   0  0  0  0  0  0  0  0  0  0  0  0
   26.0032  -20.9585  -15.1136 C   0  0  0  0  0  0  0  0  0  0  0  0
   26.2659  -19.8236  -14.6056 O   0  0  0  0  0  0  0  0  0  0  0  0
   24.7095  -21.4804  -14.8179 N   0  0  0  0  0  0  0  0  0  0  0  0
   23.7598  -20.7156  -14.0321 C   0  0  0  0  0  0  0  0  0  0  0  0
   22.5072  -21.5294  -13.9092 C   0  0  0  0  0  0  0  0  0  0  0  0
   22.3558  -22.6469  -14.4595 O   0  0  0  0  0  0  0  0  0  0  0  0
   18.3519  -23.0788  -10.3366 N   0  0  0  0  0  0  0  0  0  0  0  0
   18.3673  -22.0412  -11.3375 C   0  0  0  0  0  0  0  0  0  0  0  0
   17.2768  -21.7367  -11.8773 O   0  0  0  0  0  0  0  0  0  0  0  0
   19.6466  -21.4117  -11.6584 C   0  0  0  0  0  0  0  0  0  0  0  0
   20.2266  -21.8264  -13.0067 C   0  0  2  0  0  0  0  0  0  0  0  0
   21.4443  -21.0124  -13.1349 N   0  0  0  0  0  0  0  0  0  0  0  0
   19.3262  -21.5052  -14.1385 C   0  0  0  0  0  0  0  0  0  0  0  0
   19.3103  -20.3755  -14.6579 O   0  0  0  0  0  0  0  0  0  0  0  0
   18.4713  -22.4694  -14.6491 O   0  0  0  0  0  0  0  0  0  0  0  0
  1  2  1  0
  3  2  1  0
  3  5  1  0
  3  4  1  6
  5  6  2  0
  7  8  1  0
  7  5  1  0
  8  9  1  0
  9 10  2  0
  9 16  1  0
 12 11  1  0
 12 13  2  0
 14 12  1  0
 15 14  1  1
 16 15  1  0
 17 15  1  0
 17 19  1  0
 18 17  2  0
M  END
$$$$
