SGN.pdb
     RDKit          3D

 19 18  0  0  1  0  0  0  0  0999 V2000
   15.7864  -14.7639  -15.1184 O   0  0  0  0  0  0  0  0  0  0  0  0
   16.0618  -13.5472  -15.7753 C   0  0  0  0  0  0  0  0  0  0  0  0
   17.5272  -13.5455  -16.0981 C   0  0  2  0  0  0  0  0  0  0  0  0
   18.3263  -13.8925  -14.9682 N   0  0  0  0  0  0  0  0  0  0  0  0
   17.9186  -12.2375  -16.6909 C   0  0  0  0  0  0  0  0  0  0  0  0
   17.3600  -11.7897  -17.7409 O   0  0  0  0  0  0  0  0  0  0  0  0
   18.9332  -11.4064  -16.1315 N   0  0  0  0  0  0  0  0  0  0  0  0
   19.2556  -10.1227  -16.7254 C   0  0  0  0  0  0  0  0  0  0  0  0
   19.4207   -9.1323  -15.6126 C   0  0  0  0  0  0  0  0  0  0  0  0
   18.9754   -9.3181  -14.4543 O   0  0  0  0  0  0  0  0  0  0  0  0
   21.2678   -5.1960  -12.8883 N   0  0  0  0  0  0  0  0  0  0  0  0
   22.1200   -5.4199  -14.0294 C   0  0  0  0  0  0  0  0  0  0  0  0
   23.1969   -4.7792  -14.0865 O   0  0  0  0  0  0  0  0  0  0  0  0
   21.6781   -6.3754  -15.0431 C   0  0  0  0  0  0  0  0  0  0  0  0
   20.3062   -6.9844  -14.7724 C   0  0  2  0  0  0  0  0  0  0  0  0
   20.1122   -7.9298  -15.8816 N   0  0  0  0  0  0  0  0  0  0  0  0
   19.2175   -5.9805  -14.8156 C   0  0  0  0  0  0  0  0  0  0  0  0
   18.8277   -5.4882  -15.8889 O   0  0  0  0  0  0  0  0  0  0  0  0
   18.6023   -5.5633  -13.6457 O   0  0  0  0  0  0  0  0  0  0  0  0
  1  2  1  0
  3  2  1  0
  3  5  1  0
  3  4  1  1
  5  6  2  0
  7  8  1  0
  7  5  1  0
  8  9  1  0
  9 10  2  0
  9 16  1  0
 12 11  1  0
 12 13  2  0
 14 12  1  0
 15 14  1  6
 16 15  1  0
 17 15  1  0
 17 19  1  0
 18 17  2  0
M  END
$$$$
