SGN.pdb
     RDKit          3D

 19 18  0  0  1  0  0  0  0  0999 V2000
   15.2521  -13.3858  -13.8068 O   0  0  0  0  0  0  0  0  0  0  0  0
   15.7731  -12.2555  -14.4693 C   0  0  0  0  0  0  0  0  0  0  0  0
   16.5107  -12.7564  -15.6762 C   0  0  2  0  0  0  0  0  0  0  0  0
   17.4409  -13.7871  -15.3475 N   0  0  0  0  0  0  0  0  0  0  0  0
   17.1515  -11.6195  -16.3920 C   0  0  0  0  0  0  0  0  0  0  0  0
   17.1638  -11.5551  -17.6611 O   0  0  0  0  0  0  0  0  0  0  0  0
   17.7881  -10.5381  -15.7149 N   0  0  0  0  0  0  0  0  0  0  0  0
   18.3272   -9.4116  -16.4529 C   0  0  0  0  0  0  0  0  0  0  0  0
   18.8656   -8.4283  -15.4581 C   0  0  0  0  0  0  0  0  0  0  0  0
   18.6787   -8.5283  -14.2213 O   0  0  0  0  0  0  0  0  0  0  0  0
   21.7609   -5.2650  -12.9502 N   0  0  0  0  0  0  0  0  0  0  0  0
   22.0698   -6.6437  -13.2368 C   0  0  0  0  0  0  0  0  0  0  0  0
   23.0028   -7.1779  -12.5907 O   0  0  0  0  0  0  0  0  0  0  0  0
   21.2795   -7.3296  -14.2571 C   0  0  0  0  0  0  0  0  0  0  0  0
   20.2472   -6.4446  -14.9480 C   0  0  2  0  0  0  0  0  0  0  0  0
   19.6214   -7.3346  -15.9369 N   0  0  0  0  0  0  0  0  0  0  0  0
   20.8622   -5.3040  -15.6660 C   0  0  0  0  0  0  0  0  0  0  0  0
   21.0420   -5.3293  -16.8962 O   0  0  0  0  0  0  0  0  0  0  0  0
   21.2554   -4.1698  -14.9731 O   0  0  0  0  0  0  0  0  0  0  0  0
  1  2  1  0
  3  2  1  0
  3  5  1  0
  3  4  1  1
  5  6  2  0
  7  8  1  0
  7  5  1  0
  8  9  1  0
  9 10  2  0
  9 16  1  0
 12 11  1  0
 12 13  2  0
 14 12  1  0
 15 14  1  6
 16 15  1  0
 17 15  1  0
 17 19  1  0
 18 17  2  0
M  END
$$$$
