SGN.pdb
     RDKit          3D

 19 18  0  0  1  0  0  0  0  0999 V2000
   17.4555  -15.6393  -16.2639 O   0  0  0  0  0  0  0  0  0  0  0  0
   17.3712  -14.2959  -16.6834 C   0  0  0  0  0  0  0  0  0  0  0  0
   18.4951  -13.5576  -16.0175 C   0  0  2  0  0  0  0  0  0  0  0  0
   18.3848  -13.5811  -14.5952 N   0  0  0  0  0  0  0  0  0  0  0  0
   18.5886  -12.1738  -16.5576 C   0  0  0  0  0  0  0  0  0  0  0  0
   18.9588  -11.9500  -17.7526 O   0  0  0  0  0  0  0  0  0  0  0  0
   18.2747  -11.0178  -15.7841 N   0  0  0  0  0  0  0  0  0  0  0  0
   18.4215   -9.6865  -16.3414 C   0  0  0  0  0  0  0  0  0  0  0  0
   19.1114   -8.8357  -15.3183 C   0  0  0  0  0  0  0  0  0  0  0  0
   19.3451   -9.2211  -14.1473 O   0  0  0  0  0  0  0  0  0  0  0  0
   21.7671   -5.0699  -13.1145 N   0  0  0  0  0  0  0  0  0  0  0  0
   22.3788   -5.6310  -14.2932 C   0  0  0  0  0  0  0  0  0  0  0  0
   23.5759   -5.3363  -14.5244 O   0  0  0  0  0  0  0  0  0  0  0  0
   21.5696   -6.5046  -15.1405 C   0  0  0  0  0  0  0  0  0  0  0  0
   20.1327   -6.6841  -14.6616 C   0  0  2  0  0  0  0  0  0  0  0  0
   19.5188   -7.5352  -15.6915 N   0  0  0  0  0  0  0  0  0  0  0  0
   19.3865   -5.4055  -14.6035 C   0  0  0  0  0  0  0  0  0  0  0  0
   19.3858   -4.6976  -13.5812 O   0  0  0  0  0  0  0  0  0  0  0  0
   18.6639   -4.9656  -15.7015 O   0  0  0  0  0  0  0  0  0  0  0  0
  1  2  1  0
  3  2  1  0
  3  5  1  0
  3  4  1  1
  5  6  2  0
  7  8  1  0
  7  5  1  0
  8  9  1  0
  9 10  2  0
  9 16  1  0
 12 11  1  0
 12 13  2  0
 14 12  1  0
 15 14  1  6
 16 15  1  0
 17 15  1  0
 17 19  1  0
 18 17  2  0
M  END
$$$$
