SGN.pdb
     RDKit          3D

 19 18  0  0  1  0  0  0  0  0999 V2000
   23.8034  -16.1613  -17.0029 O   0  0  0  0  0  0  0  0  0  0  0  0
   22.7118  -16.4544  -17.8458 C   0  0  0  0  0  0  0  0  0  0  0  0
   21.6495  -17.0752  -16.9871 C   0  0  2  0  0  0  0  0  0  0  0  0
   21.1779  -16.1776  -15.9833 N   0  0  0  0  0  0  0  0  0  0  0  0
   22.1393  -18.3596  -16.4163 C   0  0  0  0  0  0  0  0  0  0  0  0
   22.5061  -19.3214  -17.1616 O   0  0  0  0  0  0  0  0  0  0  0  0
   22.2301  -18.5991  -15.0135 N   0  0  0  0  0  0  0  0  0  0  0  0
   22.6846  -19.8792  -14.5045 C   0  0  0  0  0  0  0  0  0  0  0  0
   24.1053  -19.7150  -14.0560 C   0  0  0  0  0  0  0  0  0  0  0  0
   24.8171  -18.7310  -14.3714 O   0  0  0  0  0  0  0  0  0  0  0  0
   24.3409  -20.6938  -10.3048 N   0  0  0  0  0  0  0  0  0  0  0  0
   25.7469  -20.9943  -10.4107 C   0  0  0  0  0  0  0  0  0  0  0  0
   26.4659  -20.7779   -9.4059 O   0  0  0  0  0  0  0  0  0  0  0  0
   26.2440  -21.5303  -11.6762 C   0  0  0  0  0  0  0  0  0  0  0  0
   26.0858  -20.5834  -12.8614 C   0  0  2  0  0  0  0  0  0  0  0  0
   24.6707  -20.7181  -13.2371 N   0  0  0  0  0  0  0  0  0  0  0  0
   26.9188  -20.9771  -14.0216 C   0  0  0  0  0  0  0  0  0  0  0  0
   26.6234  -21.9521  -14.7346 O   0  0  0  0  0  0  0  0  0  0  0  0
   28.0598  -20.2578  -14.3410 O   0  0  0  0  0  0  0  0  0  0  0  0
  1  2  1  0
  3  2  1  0
  3  5  1  0
  3  4  1  1
  5  6  2  0
  7  8  1  0
  7  5  1  0
  8  9  1  0
  9 10  2  0
  9 16  1  0
 12 11  1  0
 12 13  2  0
 14 12  1  0
 15 14  1  1
 16 15  1  0
 17 15  1  0
 17 19  1  0
 18 17  2  0
M  END
$$$$
