SGN.pdb
     RDKit          3D

 19 18  0  0  1  0  0  0  0  0999 V2000
   16.4760  -13.4353  -16.7300 O   0  0  0  0  0  0  0  0  0  0  0  0
   17.6089  -13.0980  -15.9615 C   0  0  0  0  0  0  0  0  0  0  0  0
   18.8132  -13.5442  -16.7374 C   0  0  2  0  0  0  0  0  0  0  0  0
   18.9982  -14.9576  -16.6761 N   0  0  0  0  0  0  0  0  0  0  0  0
   20.0175  -12.7934  -16.2886 C   0  0  0  0  0  0  0  0  0  0  0  0
   21.1322  -13.3746  -16.1023 O   0  0  0  0  0  0  0  0  0  0  0  0
   20.0064  -11.3895  -16.0390 N   0  0  0  0  0  0  0  0  0  0  0  0
   21.2286  -10.6828  -15.7056 C   0  0  0  0  0  0  0  0  0  0  0  0
   20.9160   -9.2173  -15.6748 C   0  0  0  0  0  0  0  0  0  0  0  0
   19.8045   -8.7435  -16.0137 O   0  0  0  0  0  0  0  0  0  0  0  0
   21.3739   -4.2022  -14.5357 N   0  0  0  0  0  0  0  0  0  0  0  0
   22.1400   -5.0003  -13.6113 C   0  0  0  0  0  0  0  0  0  0  0  0
   22.5847   -4.4350  -12.5838 O   0  0  0  0  0  0  0  0  0  0  0  0
   22.3489   -6.4118  -13.9278 C   0  0  0  0  0  0  0  0  0  0  0  0
   21.5861   -6.8966  -15.1564 C   0  0  2  0  0  0  0  0  0  0  0  0
   21.9229   -8.3252  -15.2426 N   0  0  0  0  0  0  0  0  0  0  0  0
   22.0323   -6.2333  -16.4038 C   0  0  0  0  0  0  0  0  0  0  0  0
   23.1223   -6.5098  -16.9346 O   0  0  0  0  0  0  0  0  0  0  0  0
   21.2342   -5.2781  -17.0135 O   0  0  0  0  0  0  0  0  0  0  0  0
  1  2  1  0
  3  2  1  0
  3  5  1  0
  3  4  1  1
  5  6  2  0
  7  8  1  0
  7  5  1  0
  8  9  1  0
  9 10  2  0
  9 16  1  0
 12 11  1  0
 12 13  2  0
 14 12  1  0
 15 14  1  1
 16 15  1  0
 17 15  1  0
 17 19  1  0
 18 17  2  0
M  END
$$$$
