SGN.pdb
     RDKit          3D

 19 18  0  0  1  0  0  0  0  0999 V2000
   18.4228  -14.1663  -17.0694 O   0  0  0  0  0  0  0  0  0  0  0  0
   18.7983  -12.8715  -16.6565 C   0  0  0  0  0  0  0  0  0  0  0  0
   17.7083  -12.3647  -15.7584 C   0  0  2  0  0  0  0  0  0  0  0  0
   16.4976  -12.1161  -16.4711 N   0  0  0  0  0  0  0  0  0  0  0  0
   18.1801  -11.1706  -15.0054 C   0  0  0  0  0  0  0  0  0  0  0  0
   19.1670  -11.2350  -14.2074 O   0  0  0  0  0  0  0  0  0  0  0  0
   17.5673   -9.8885  -15.1238 N   0  0  0  0  0  0  0  0  0  0  0  0
   18.0659   -8.7526  -14.3719 C   0  0  0  0  0  0  0  0  0  0  0  0
   16.9825   -8.3136  -13.4338 C   0  0  0  0  0  0  0  0  0  0  0  0
   15.7993   -8.1075  -13.7974 O   0  0  0  0  0  0  0  0  0  0  0  0
   14.7963   -6.6560   -9.0278 N   0  0  0  0  0  0  0  0  0  0  0  0
   15.6190   -7.8150   -8.7865 C   0  0  0  0  0  0  0  0  0  0  0  0
   15.5514   -8.3517   -7.6548 O   0  0  0  0  0  0  0  0  0  0  0  0
   16.4757   -8.2902   -9.8710 C   0  0  0  0  0  0  0  0  0  0  0  0
   16.2816   -7.5510  -11.1909 C   0  0  2  0  0  0  0  0  0  0  0  0
   17.3099   -8.1227  -12.0727 N   0  0  0  0  0  0  0  0  0  0  0  0
   16.5240   -6.0944  -11.0703 C   0  0  0  0  0  0  0  0  0  0  0  0
   17.6743   -5.6222  -11.0826 O   0  0  0  0  0  0  0  0  0  0  0  0
   15.4601   -5.2156  -10.9395 O   0  0  0  0  0  0  0  0  0  0  0  0
  1  2  1  0
  3  2  1  0
  3  5  1  0
  3  4  1  6
  5  6  2  0
  7  8  1  0
  7  5  1  0
  8  9  1  0
  9 10  2  0
  9 16  1  0
 12 11  1  0
 12 13  2  0
 14 12  1  0
 15 14  1  1
 16 15  1  0
 17 15  1  0
 17 19  1  0
 18 17  2  0
M  END
$$$$
