SGN.pdb
     RDKit          3D

 19 18  0  0  1  0  0  0  0  0999 V2000
   28.9197  -19.2495   -3.6508 O   0  0  0  0  0  0  0  0  0  0  0  0
   29.1229  -19.8119   -4.9276 C   0  0  0  0  0  0  0  0  0  0  0  0
   28.0937  -19.2116   -5.8397 C   0  0  2  0  0  0  0  0  0  0  0  0
   26.7807  -19.2785   -5.2855 N   0  0  0  0  0  0  0  0  0  0  0  0
   28.1750  -19.8404   -7.1863 C   0  0  0  0  0  0  0  0  0  0  0  0
   29.2912  -20.1476   -7.7104 O   0  0  0  0  0  0  0  0  0  0  0  0
   27.0233  -20.1380   -7.9728 N   0  0  0  0  0  0  0  0  0  0  0  0
   27.1520  -20.7699   -9.2722 C   0  0  0  0  0  0  0  0  0  0  0  0
   25.7710  -21.0317   -9.7925 C   0  0  0  0  0  0  0  0  0  0  0  0
   24.7355  -20.8879   -9.0985 O   0  0  0  0  0  0  0  0  0  0  0  0
   21.8713  -20.7882  -12.9150 N   0  0  0  0  0  0  0  0  0  0  0  0
   22.6116  -19.6856  -12.3543 C   0  0  0  0  0  0  0  0  0  0  0  0
   22.1110  -18.5395  -12.4501 O   0  0  0  0  0  0  0  0  0  0  0  0
   23.8928  -19.9710  -11.7118 C   0  0  0  0  0  0  0  0  0  0  0  0
   24.2809  -21.4461  -11.7190 C   0  0  2  0  0  0  0  0  0  0  0  0
   25.6284  -21.4616  -11.1309 N   0  0  0  0  0  0  0  0  0  0  0  0
   24.3596  -22.0088  -13.0872 C   0  0  0  0  0  0  0  0  0  0  0  0
   23.4611  -22.7365  -13.5450 O   0  0  0  0  0  0  0  0  0  0  0  0
   25.4504  -21.7327  -13.8967 O   0  0  0  0  0  0  0  0  0  0  0  0
  1  2  1  0
  3  2  1  0
  3  5  1  0
  3  4  1  1
  5  6  2  0
  7  8  1  0
  7  5  1  0
  8  9  1  0
  9 10  2  0
  9 16  1  0
 12 11  1  0
 12 13  2  0
 14 12  1  0
 15 14  1  6
 16 15  1  0
 17 15  1  0
 17 19  1  0
 18 17  2  0
M  END
$$$$
