SGN.pdb
     RDKit          3D

 19 18  0  0  1  0  0  0  0  0999 V2000
   28.9315  -21.2977  -15.9313 O   0  0  0  0  0  0  0  0  0  0  0  0
   27.9428  -21.1427  -14.9382 C   0  0  0  0  0  0  0  0  0  0  0  0
   26.6342  -20.9559  -15.6482 C   0  0  2  0  0  0  0  0  0  0  0  0
   26.5928  -19.7351  -16.3854 N   0  0  0  0  0  0  0  0  0  0  0  0
   25.5073  -21.0755  -14.6832 C   0  0  0  0  0  0  0  0  0  0  0  0
   25.4199  -22.0578  -13.8815 O   0  0  0  0  0  0  0  0  0  0  0  0
   24.4609  -20.1113  -14.5910 N   0  0  0  0  0  0  0  0  0  0  0  0
   23.4394  -20.2165  -13.5665 C   0  0  0  0  0  0  0  0  0  0  0  0
   22.1908  -20.7314  -14.2163 C   0  0  0  0  0  0  0  0  0  0  0  0
   22.0671  -20.8679  -15.4576 O   0  0  0  0  0  0  0  0  0  0  0  0
   17.5328  -24.2246  -12.4329 N   0  0  0  0  0  0  0  0  0  0  0  0
   18.1291  -23.3039  -13.3683 C   0  0  0  0  0  0  0  0  0  0  0  0
   17.5793  -23.1738  -14.4881 O   0  0  0  0  0  0  0  0  0  0  0  0
   19.3311  -22.5826  -12.9547 C   0  0  0  0  0  0  0  0  0  0  0  0
   19.9129  -21.6694  -14.0289 C   0  0  2  0  0  0  0  0  0  0  0  0
   21.0991  -21.0806  -13.3900 N   0  0  0  0  0  0  0  0  0  0  0  0
   18.9907  -20.5732  -14.4068 C   0  0  0  0  0  0  0  0  0  0  0  0
   18.8571  -19.5607  -13.6974 O   0  0  0  0  0  0  0  0  0  0  0  0
   18.2477  -20.6539  -15.5741 O   0  0  0  0  0  0  0  0  0  0  0  0
  1  2  1  0
  3  2  1  0
  3  5  1  0
  3  4  1  1
  5  6  2  0
  7  8  1  0
  7  5  1  0
  8  9  1  0
  9 10  2  0
  9 16  1  0
 12 11  1  0
 12 13  2  0
 14 12  1  0
 15 14  1  1
 16 15  1  0
 17 15  1  0
 17 19  1  0
 18 17  2  0
M  END
$$$$
