SGN.pdb
     RDKit          3D

 19 18  0  0  1  0  0  0  0  0999 V2000
   22.6381   -6.0321  -16.6083 O   0  0  0  0  0  0  0  0  0  0  0  0
   22.7208   -7.1202  -17.5010 C   0  0  0  0  0  0  0  0  0  0  0  0
   22.3322   -8.3485  -16.7318 C   0  0  2  0  0  0  0  0  0  0  0  0
   22.5854   -9.5449  -17.4667 N   0  0  0  0  0  0  0  0  0  0  0  0
   20.9163   -8.2451  -16.2846 C   0  0  0  0  0  0  0  0  0  0  0  0
   19.9561   -8.2238  -17.1169 O   0  0  0  0  0  0  0  0  0  0  0  0
   20.5419   -8.1633  -14.9112 N   0  0  0  0  0  0  0  0  0  0  0  0
   19.1575   -7.9616  -14.5275 C   0  0  0  0  0  0  0  0  0  0  0  0
   19.0830   -8.0271  -13.0319 C   0  0  0  0  0  0  0  0  0  0  0  0
   20.0476   -8.3769  -12.3095 O   0  0  0  0  0  0  0  0  0  0  0  0
   15.4694   -6.3797   -8.5281 N   0  0  0  0  0  0  0  0  0  0  0  0
   16.8090   -6.5250   -9.0408 C   0  0  0  0  0  0  0  0  0  0  0  0
   17.7488   -6.5660   -8.2111 O   0  0  0  0  0  0  0  0  0  0  0  0
   16.9871   -6.6156  -10.4886 C   0  0  0  0  0  0  0  0  0  0  0  0
   17.7714   -7.8409  -10.9466 C   0  0  2  0  0  0  0  0  0  0  0  0
   17.8662   -7.6773  -12.4047 N   0  0  0  0  0  0  0  0  0  0  0  0
   17.0636   -9.1109  -10.6619 C   0  0  0  0  0  0  0  0  0  0  0  0
   17.2588   -9.7436   -9.6093 O   0  0  0  0  0  0  0  0  0  0  0  0
   16.1571   -9.6275  -11.5744 O   0  0  0  0  0  0  0  0  0  0  0  0
  1  2  1  0
  3  2  1  0
  3  5  1  0
  3  4  1  6
  5  6  2  0
  7  8  1  0
  7  5  1  0
  8  9  1  0
  9 10  2  0
  9 16  1  0
 12 11  1  0
 12 13  2  0
 14 12  1  0
 15 14  1  6
 16 15  1  0
 17 15  1  0
 17 19  1  0
 18 17  2  0
M  END
$$$$
