SGN.pdb
     RDKit          3D

 19 18  0  0  1  0  0  0  0  0999 V2000
   15.9255  -14.8442  -15.0751 O   0  0  0  0  0  0  0  0  0  0  0  0
   16.2111  -13.6923  -15.8363 C   0  0  0  0  0  0  0  0  0  0  0  0
   16.7016  -12.6455  -14.8796 C   0  0  2  0  0  0  0  0  0  0  0  0
   15.7262  -12.3238  -13.8893 N   0  0  0  0  0  0  0  0  0  0  0  0
   17.1681  -11.4467  -15.6285 C   0  0  0  0  0  0  0  0  0  0  0  0
   17.1285  -11.3988  -16.8979 O   0  0  0  0  0  0  0  0  0  0  0  0
   17.6852  -10.2842  -14.9848 N   0  0  0  0  0  0  0  0  0  0  0  0
   17.9790   -9.0823  -15.7420 C   0  0  0  0  0  0  0  0  0  0  0  0
   18.4864   -8.0492  -14.7819 C   0  0  0  0  0  0  0  0  0  0  0  0
   18.4753   -8.2028  -13.5365 O   0  0  0  0  0  0  0  0  0  0  0  0
   22.7797   -4.9645  -13.4751 N   0  0  0  0  0  0  0  0  0  0  0  0
   21.6635   -4.4824  -14.2497 C   0  0  0  0  0  0  0  0  0  0  0  0
   21.4202   -3.2523  -14.2173 O   0  0  0  0  0  0  0  0  0  0  0  0
   20.8893   -5.4527  -15.0212 C   0  0  0  0  0  0  0  0  0  0  0  0
   19.5802   -5.8742  -14.3617 C   0  0  2  0  0  0  0  0  0  0  0  0
   19.0029   -6.8427  -15.3054 N   0  0  0  0  0  0  0  0  0  0  0  0
   18.6308   -4.7475  -14.2061 C   0  0  0  0  0  0  0  0  0  0  0  0
   17.8624   -4.4117  -15.1243 O   0  0  0  0  0  0  0  0  0  0  0  0
   18.5782   -4.0346  -13.0186 O   0  0  0  0  0  0  0  0  0  0  0  0
  1  2  1  0
  3  2  1  0
  3  5  1  0
  3  4  1  1
  5  6  2  0
  7  8  1  0
  7  5  1  0
  8  9  1  0
  9 10  2  0
  9 16  1  0
 12 11  1  0
 12 13  2  0
 14 12  1  0
 15 14  1  6
 16 15  1  0
 17 15  1  0
 17 19  1  0
 18 17  2  0
M  END
$$$$
