SGN.pdb
     RDKit          3D

 19 18  0  0  1  0  0  0  0  0999 V2000
   17.4203  -27.3238   -7.1837 O   0  0  0  0  0  0  0  0  0  0  0  0
   17.2208  -26.7314   -8.4475 C   0  0  0  0  0  0  0  0  0  0  0  0
   18.4071  -25.8511   -8.7109 C   0  0  2  0  0  0  0  0  0  0  0  0
   18.6179  -24.9063   -7.6627 N   0  0  0  0  0  0  0  0  0  0  0  0
   18.2759  -25.2015  -10.0436 C   0  0  0  0  0  0  0  0  0  0  0  0
   17.2037  -25.2842  -10.7209 O   0  0  0  0  0  0  0  0  0  0  0  0
   19.3282  -24.4518  -10.6467 N   0  0  0  0  0  0  0  0  0  0  0  0
   19.1565  -23.8456  -11.9534 C   0  0  0  0  0  0  0  0  0  0  0  0
   20.4302  -23.1354  -12.2993 C   0  0  0  0  0  0  0  0  0  0  0  0
   21.4068  -23.0530  -11.5157 O   0  0  0  0  0  0  0  0  0  0  0  0
   24.9741  -23.9211  -13.8541 N   0  0  0  0  0  0  0  0  0  0  0  0
   23.8568  -23.7001  -14.7380 C   0  0  0  0  0  0  0  0  0  0  0  0
   24.1018  -23.5428  -15.9581 O   0  0  0  0  0  0  0  0  0  0  0  0
   22.5149  -23.6738  -14.1597 C   0  0  0  0  0  0  0  0  0  0  0  0
   21.8836  -22.2863  -14.1077 C   0  0  2  0  0  0  0  0  0  0  0  0
   20.5364  -22.5290  -13.5711 N   0  0  0  0  0  0  0  0  0  0  0  0
   21.7506  -21.6691  -15.4480 C   0  0  0  0  0  0  0  0  0  0  0  0
   20.9795  -22.1340  -16.3056 O   0  0  0  0  0  0  0  0  0  0  0  0
   22.4924  -20.5459  -15.7788 O   0  0  0  0  0  0  0  0  0  0  0  0
  1  2  1  0
  3  2  1  0
  3  5  1  0
  3  4  1  1
  5  6  2  0
  7  8  1  0
  7  5  1  0
  8  9  1  0
  9 10  2  0
  9 16  1  0
 12 11  1  0
 12 13  2  0
 14 12  1  0
 15 14  1  6
 16 15  1  0
 17 15  1  0
 17 19  1  0
 18 17  2  0
M  END
$$$$
