SGN.pdb
     RDKit          3D

 19 18  0  0  1  0  0  0  0  0999 V2000
   14.7949  -12.8539  -15.3966 O   0  0  0  0  0  0  0  0  0  0  0  0
   16.0828  -13.3222  -15.0654 C   0  0  0  0  0  0  0  0  0  0  0  0
   17.0163  -12.1527  -15.1769 C   0  0  2  0  0  0  0  0  0  0  0  0
   18.1551  -12.4495  -15.9836 N   0  0  0  0  0  0  0  0  0  0  0  0
   17.3915  -11.6669  -13.8209 C   0  0  0  0  0  0  0  0  0  0  0  0
   18.2998  -12.2363  -13.1384 O   0  0  0  0  0  0  0  0  0  0  0  0
   16.7674  -10.5451  -13.2000 N   0  0  0  0  0  0  0  0  0  0  0  0
   17.2114  -10.0692  -11.9036 C   0  0  0  0  0  0  0  0  0  0  0  0
   16.4003   -8.8568  -11.5590 C   0  0  0  0  0  0  0  0  0  0  0  0
   15.6083   -8.3075  -12.3625 O   0  0  0  0  0  0  0  0  0  0  0  0
   13.8151   -8.7262   -8.8805 N   0  0  0  0  0  0  0  0  0  0  0  0
   14.6122   -7.9976   -7.9254 C   0  0  0  0  0  0  0  0  0  0  0  0
   14.3661   -8.1723   -6.7079 O   0  0  0  0  0  0  0  0  0  0  0  0
   15.6526   -7.1058   -8.4333 C   0  0  0  0  0  0  0  0  0  0  0  0
   15.7725   -7.0869   -9.9537 C   0  0  2  0  0  0  0  0  0  0  0  0
   16.5343   -8.3053  -10.2650 N   0  0  0  0  0  0  0  0  0  0  0  0
   16.5337   -5.9175  -10.4517 C   0  0  0  0  0  0  0  0  0  0  0  0
   17.7730   -5.9409  -10.5502 O   0  0  0  0  0  0  0  0  0  0  0  0
   15.8721   -4.7576  -10.8233 O   0  0  0  0  0  0  0  0  0  0  0  0
  1  2  1  0
  3  2  1  0
  3  5  1  0
  3  4  1  1
  5  6  2  0
  7  8  1  0
  7  5  1  0
  8  9  1  0
  9 10  2  0
  9 16  1  0
 12 11  1  0
 12 13  2  0
 14 12  1  0
 15 14  1  1
 16 15  1  0
 17 15  1  0
 17 19  1  0
 18 17  2  0
M  END
$$$$
