YLA.pdb
     RDKit          3D

 26 26  0  0  1  0  0  0  0  0999 V2000
   12.1507  -16.9083   32.0602 O   0  0  0  0  0  0  0  0  0  0  0  0
   11.6260  -16.8525   30.7714 C   0  0  0  0  0  0  0  0  0  0  0  0
   11.0572  -15.6986   30.2516 C   0  0  0  0  0  0  0  0  0  0  0  0
   10.5457  -15.6907   28.9580 C   0  0  0  0  0  0  0  0  0  0  0  0
   10.5882  -16.8156   28.1629 C   0  0  0  0  0  0  0  0  0  0  0  0
   10.0365  -16.7840   26.7860 C   0  0  0  0  0  0  0  0  0  0  0  0
    8.5361  -16.9438   26.8967 C   0  0  2  0  0  0  0  0  0  0  0  0
    8.2342  -18.3297   27.0319 N   0  0  0  0  0  0  0  0  0  0  0  0
    7.8374  -16.3926   25.7001 C   0  0  0  0  0  0  0  0  0  0  0  0
    7.1801  -17.1843   24.9946 O   0  0  0  0  0  0  0  0  0  0  0  0
   11.1615  -17.9477   28.7116 C   0  0  0  0  0  0  0  0  0  0  0  0
   11.6733  -17.9725   29.9926 C   0  0  0  0  0  0  0  0  0  0  0  0
    7.1034  -10.8716   25.8616 C   0  0  0  0  0  0  0  0  0  0  0  0
    6.9240  -12.3948   25.7910 C   0  0  1  0  0  0  0  0  0  0  0  0
    5.4702  -12.6072   26.2469 C   0  0  0  0  0  0  0  0  0  0  0  0
    7.1330  -12.8639   24.4025 C   0  0  0  0  0  0  0  0  0  0  0  0
    7.3989  -14.3393   24.2427 C   0  0  2  0  0  0  0  0  0  0  0  0
    7.9235  -15.0197   25.3855 N   0  0  0  0  0  0  0  0  0  0  0  0
    8.1028  -14.7188   23.0184 C   0  0  0  0  0  0  0  0  0  0  0  0
    7.6288  -14.3823   21.8792 O   0  0  0  0  0  0  0  0  0  0  0  0
   11.4816  -15.5610   21.9697 C   0  0  0  0  0  0  0  0  0  0  0  0
    9.9931  -15.7744   21.7353 C   0  0  2  0  0  0  0  0  0  0  0  0
    9.3134  -15.4568   22.9828 N   0  0  0  0  0  0  0  0  0  0  0  0
    9.7885  -17.1674   21.3390 C   0  0  0  0  0  0  0  0  0  0  0  0
    9.0794  -18.0043   22.1848 O   0  0  0  0  0  0  0  0  0  0  0  0
   10.2241  -17.6487   20.2662 O   0  0  0  0  0  0  0  0  0  0  0  0
  2  1  1  0
  2  3  2  0
  4  3  1  0
  5  4  2  0
  6  5  1  0
  7  6  1  0
  7  9  1  0
  7  8  1  6
  9 18  1  0
  9 10  2  0
 11 12  2  0
 11  5  1  0
 12  2  1  0
 14 13  1  6
 14 15  1  0
 16 14  1  0
 17 16  1  1
 18 17  1  0
 19 23  1  0
 19 17  1  0
 20 19  2  0
 22 21  1  1
 22 23  1  0
 22 24  1  0
 24 25  1  0
 26 24  2  0
M  END
$$$$
