YLA.pdb
     RDKit          3D

 26 26  0  0  1  0  0  0  0  0999 V2000
    5.8170  -10.9763   26.9078 O   0  0  0  0  0  0  0  0  0  0  0  0
    6.2510  -12.2910   26.7580 C   0  0  0  0  0  0  0  0  0  0  0  0
    5.6737  -13.1631   25.8462 C   0  0  0  0  0  0  0  0  0  0  0  0
    6.1413  -14.4683   25.7320 C   0  0  0  0  0  0  0  0  0  0  0  0
    7.1799  -14.9290   26.5120 C   0  0  0  0  0  0  0  0  0  0  0  0
    7.6622  -16.3252   26.3730 C   0  0  0  0  0  0  0  0  0  0  0  0
    6.8064  -16.9962   25.3213 C   0  0  2  0  0  0  0  0  0  0  0  0
    6.6485  -18.3686   25.6698 N   0  0  0  0  0  0  0  0  0  0  0  0
    7.4208  -16.8902   23.9666 C   0  0  0  0  0  0  0  0  0  0  0  0
    7.9378  -17.9164   23.4808 O   0  0  0  0  0  0  0  0  0  0  0  0
    7.7321  -14.0344   27.4098 C   0  0  0  0  0  0  0  0  0  0  0  0
    7.2804  -12.7369   27.5356 C   0  0  0  0  0  0  0  0  0  0  0  0
    7.1855  -12.5706   19.3935 C   0  0  0  0  0  0  0  0  0  0  0  0
    7.8050  -13.8756   19.9136 C   0  0  1  0  0  0  0  0  0  0  0  0
    9.3184  -13.6312   19.7855 C   0  0  0  0  0  0  0  0  0  0  0  0
    7.4068  -14.0972   21.3221 C   0  0  0  0  0  0  0  0  0  0  0  0
    7.8398  -15.4089   21.9264 C   0  0  2  0  0  0  0  0  0  0  0  0
    7.4121  -15.6651   23.2663 N   0  0  0  0  0  0  0  0  0  0  0  0
    9.2486  -15.7509   21.7348 C   0  0  0  0  0  0  0  0  0  0  0  0
    9.7190  -15.8803   20.5526 O   0  0  0  0  0  0  0  0  0  0  0  0
   12.4281  -15.4510   23.4245 C   0  0  0  0  0  0  0  0  0  0  0  0
   11.5603  -16.3348   22.5403 C   0  0  2  0  0  0  0  0  0  0  0  0
   10.1757  -15.9599   22.7876 N   0  0  0  0  0  0  0  0  0  0  0  0
   11.8215  -17.7301   22.8930 C   0  0  0  0  0  0  0  0  0  0  0  0
   13.0812  -18.2540   22.6537 O   0  0  0  0  0  0  0  0  0  0  0  0
   10.9595  -18.4836   23.4044 O   0  0  0  0  0  0  0  0  0  0  0  0
  2  1  1  0
  2  3  2  0
  4  3  1  0
  5  4  2  0
  6  5  1  0
  7  6  1  0
  7  9  1  0
  7  8  1  1
  9 18  1  0
  9 10  2  0
 11 12  2  0
 11  5  1  0
 12  2  1  0
 14 13  1  1
 14 15  1  0
 16 14  1  0
 17 16  1  1
 18 17  1  0
 19 23  1  0
 19 17  1  0
 20 19  2  0
 22 21  1  1
 22 23  1  0
 22 24  1  0
 24 25  1  0
 26 24  2  0
M  END
$$$$
