YLA.pdb
     RDKit          3D

 26 26  0  0  1  0  0  0  0  0999 V2000
    6.4832  -23.8005   28.8700 O   0  0  0  0  0  0  0  0  0  0  0  0
    6.7966  -22.5371   28.3753 C   0  0  0  0  0  0  0  0  0  0  0  0
    5.8479  -21.5318   28.2542 C   0  0  0  0  0  0  0  0  0  0  0  0
    6.2082  -20.2846   27.7543 C   0  0  0  0  0  0  0  0  0  0  0  0
    7.5031  -20.0131   27.3687 C   0  0  0  0  0  0  0  0  0  0  0  0
    7.8646  -18.6756   26.8382 C   0  0  0  0  0  0  0  0  0  0  0  0
    7.1569  -18.5094   25.5113 C   0  0  2  0  0  0  0  0  0  0  0  0
    7.5930  -19.5406   24.6301 N   0  0  0  0  0  0  0  0  0  0  0  0
    7.4395  -17.1774   24.9035 C   0  0  0  0  0  0  0  0  0  0  0  0
    8.3160  -17.1166   24.0177 O   0  0  0  0  0  0  0  0  0  0  0  0
    8.4229  -21.0366   27.5024 C   0  0  0  0  0  0  0  0  0  0  0  0
    8.0823  -22.2790   27.9962 C   0  0  0  0  0  0  0  0  0  0  0  0
    6.6136  -11.7370   24.3065 C   0  0  0  0  0  0  0  0  0  0  0  0
    6.6417  -12.2357   25.7584 C   0  0  1  0  0  0  0  0  0  0  0  0
    5.6624  -11.2946   26.4808 C   0  0  0  0  0  0  0  0  0  0  0  0
    6.1875  -13.6434   25.8174 C   0  0  0  0  0  0  0  0  0  0  0  0
    7.1814  -14.6727   25.3423 C   0  0  2  0  0  0  0  0  0  0  0  0
    6.7332  -16.0302   25.3236 N   0  0  0  0  0  0  0  0  0  0  0  0
    8.5235  -14.5552   25.9110 C   0  0  0  0  0  0  0  0  0  0  0  0
    9.2645  -13.5609   25.5982 O   0  0  0  0  0  0  0  0  0  0  0  0
   10.2231  -14.0893   28.4041 C   0  0  0  0  0  0  0  0  0  0  0  0
   10.3907  -15.2587   27.4447 C   0  0  2  0  0  0  0  0  0  0  0  0
    9.0978  -15.4848   26.8152 N   0  0  0  0  0  0  0  0  0  0  0  0
   10.8361  -16.4202   28.2141 C   0  0  0  0  0  0  0  0  0  0  0  0
   10.0503  -17.5608   28.2154 O   0  0  0  0  0  0  0  0  0  0  0  0
   11.8997  -16.4390   28.8781 O   0  0  0  0  0  0  0  0  0  0  0  0
  2  1  1  0
  2  3  2  0
  4  3  1  0
  5  4  2  0
  6  5  1  0
  7  6  1  0
  7  9  1  0
  7  8  1  6
  9 18  1  0
  9 10  2  0
 11 12  2  0
 11  5  1  0
 12  2  1  0
 14 13  1  6
 14 15  1  0
 16 14  1  0
 17 16  1  1
 18 17  1  0
 19 23  1  0
 19 17  1  0
 20 19  2  0
 22 21  1  1
 22 23  1  0
 22 24  1  0
 24 25  1  0
 26 24  2  0
M  END
$$$$
