YLA.pdb
     RDKit          3D

 26 26  0  0  1  0  0  0  0  0999 V2000
    7.8552  -13.2347   16.1059 O   0  0  0  0  0  0  0  0  0  0  0  0
    7.8711  -13.5963   17.4506 C   0  0  0  0  0  0  0  0  0  0  0  0
    8.4224  -12.7834   18.4307 C   0  0  0  0  0  0  0  0  0  0  0  0
    8.4152  -13.1871   19.7619 C   0  0  0  0  0  0  0  0  0  0  0  0
    7.8668  -14.3926   20.1429 C   0  0  0  0  0  0  0  0  0  0  0  0
    7.8703  -14.8026   21.5688 C   0  0  0  0  0  0  0  0  0  0  0  0
    9.3057  -15.0860   21.9539 C   0  0  2  0  0  0  0  0  0  0  0  0
    9.7213  -16.2875   21.3109 N   0  0  0  0  0  0  0  0  0  0  0  0
    9.4582  -15.2286   23.4304 C   0  0  0  0  0  0  0  0  0  0  0  0
   10.5785  -15.5571   23.8702 O   0  0  0  0  0  0  0  0  0  0  0  0
    7.3263  -15.1779   19.1417 C   0  0  0  0  0  0  0  0  0  0  0  0
    7.3252  -14.7925   17.8169 C   0  0  0  0  0  0  0  0  0  0  0  0
    5.6419  -12.1900   26.3810 C   0  0  0  0  0  0  0  0  0  0  0  0
    6.9297  -12.7555   25.7653 C   0  0  1  0  0  0  0  0  0  0  0  0
    8.0068  -11.7433   26.1917 C   0  0  0  0  0  0  0  0  0  0  0  0
    7.2019  -14.1033   26.3139 C   0  0  0  0  0  0  0  0  0  0  0  0
    8.3779  -14.8301   25.7122 C   0  0  2  0  0  0  0  0  0  0  0  0
    8.3651  -14.9973   24.2924 N   0  0  0  0  0  0  0  0  0  0  0  0
    8.7691  -16.0614   26.3972 C   0  0  0  0  0  0  0  0  0  0  0  0
    8.8588  -16.0813   27.6728 O   0  0  0  0  0  0  0  0  0  0  0  0
    9.3242  -19.6531   25.4976 C   0  0  0  0  0  0  0  0  0  0  0  0
    9.4123  -18.4931   26.4789 C   0  0  2  0  0  0  0  0  0  0  0  0
    9.0695  -17.2841   25.7443 N   0  0  0  0  0  0  0  0  0  0  0  0
   10.7750  -18.4452   27.0079 C   0  0  0  0  0  0  0  0  0  0  0  0
   11.2158  -19.4842   27.8110 O   0  0  0  0  0  0  0  0  0  0  0  0
   11.5723  -17.5066   26.7717 O   0  0  0  0  0  0  0  0  0  0  0  0
  2  1  1  0
  2  3  2  0
  4  3  1  0
  5  4  2  0
  6  5  1  0
  7  6  1  0
  7  9  1  0
  7  8  1  6
  9 18  1  0
  9 10  2  0
 11 12  2  0
 11  5  1  0
 12  2  1  0
 14 13  1  1
 14 15  1  0
 16 14  1  0
 17 16  1  1
 18 17  1  0
 19 23  1  0
 19 17  1  0
 20 19  2  0
 22 21  1  6
 22 23  1  0
 22 24  1  0
 24 25  1  0
 26 24  2  0
M  END
$$$$
