YLA.pdb
     RDKit          3D

 26 26  0  0  1  0  0  0  0  0999 V2000
   11.2144  -14.9175   31.7305 O   0  0  0  0  0  0  0  0  0  0  0  0
   10.8617  -15.4396   30.4887 C   0  0  0  0  0  0  0  0  0  0  0  0
   10.4114  -14.6393   29.4485 C   0  0  0  0  0  0  0  0  0  0  0  0
   10.0704  -15.2063   28.2248 C   0  0  0  0  0  0  0  0  0  0  0  0
   10.1686  -16.5643   28.0113 C   0  0  0  0  0  0  0  0  0  0  0  0
    9.7994  -17.1471   26.6978 C   0  0  0  0  0  0  0  0  0  0  0  0
    8.3145  -17.4345   26.7324 C   0  0  2  0  0  0  0  0  0  0  0  0
    8.1243  -18.8458   26.7771 N   0  0  0  0  0  0  0  0  0  0  0  0
    7.6204  -16.8725   25.5381 C   0  0  0  0  0  0  0  0  0  0  0  0
    7.1190  -17.6755   24.7256 O   0  0  0  0  0  0  0  0  0  0  0  0
   10.6206  -17.3323   29.0682 C   0  0  0  0  0  0  0  0  0  0  0  0
   10.9628  -16.7860   30.2880 C   0  0  0  0  0  0  0  0  0  0  0  0
    7.8181  -11.4656   25.4115 C   0  0  0  0  0  0  0  0  0  0  0  0
    7.0185  -12.7383   25.7250 C   0  0  1  0  0  0  0  0  0  0  0  0
    5.8459  -12.2252   26.5783 C   0  0  0  0  0  0  0  0  0  0  0  0
    6.5453  -13.3598   24.4674 C   0  0  0  0  0  0  0  0  0  0  0  0
    7.0155  -14.7701   24.2165 C   0  0  2  0  0  0  0  0  0  0  0  0
    7.5393  -15.4771   25.3433 N   0  0  0  0  0  0  0  0  0  0  0  0
    7.8524  -14.9486   23.0306 C   0  0  0  0  0  0  0  0  0  0  0  0
    7.4340  -14.5530   21.8887 O   0  0  0  0  0  0  0  0  0  0  0  0
   11.3628  -15.3702   22.1645 C   0  0  0  0  0  0  0  0  0  0  0  0
    9.9213  -15.7175   21.8214 C   0  0  2  0  0  0  0  0  0  0  0  0
    9.1387  -15.5459   23.0368 N   0  0  0  0  0  0  0  0  0  0  0  0
    9.8868  -17.0974   21.3378 C   0  0  0  0  0  0  0  0  0  0  0  0
    9.1629  -18.0371   22.0529 O   0  0  0  0  0  0  0  0  0  0  0  0
   10.4823  -17.4787   20.3021 O   0  0  0  0  0  0  0  0  0  0  0  0
  2  1  1  0
  2  3  2  0
  4  3  1  0
  5  4  2  0
  6  5  1  0
  7  6  1  0
  7  9  1  0
  7  8  1  6
  9 18  1  0
  9 10  2  0
 11 12  2  0
 11  5  1  0
 12  2  1  0
 14 13  1  6
 14 15  1  0
 16 14  1  0
 17 16  1  1
 18 17  1  0
 19 23  1  0
 19 17  1  0
 20 19  2  0
 22 21  1  1
 22 23  1  0
 22 24  1  0
 24 25  1  0
 26 24  2  0
M  END
$$$$
