YLA.pdb
     RDKit          3D

 26 26  0  0  1  0  0  0  0  0999 V2000
    8.8492  -20.0410   16.9919 O   0  0  0  0  0  0  0  0  0  0  0  0
    8.9864  -19.4800   18.2590 C   0  0  0  0  0  0  0  0  0  0  0  0
    7.8945  -19.1983   19.0675 C   0  0  0  0  0  0  0  0  0  0  0  0
    8.0809  -18.6374   20.3268 C   0  0  0  0  0  0  0  0  0  0  0  0
    9.3411  -18.3481   20.8038 C   0  0  0  0  0  0  0  0  0  0  0  0
    9.5161  -17.7501   22.1502 C   0  0  0  0  0  0  0  0  0  0  0  0
    9.7871  -16.2742   21.9573 C   0  0  2  0  0  0  0  0  0  0  0  0
   11.0481  -16.1230   21.3116 N   0  0  0  0  0  0  0  0  0  0  0  0
    9.7992  -15.5454   23.2583 C   0  0  0  0  0  0  0  0  0  0  0  0
   10.8964  -15.4027   23.8346 O   0  0  0  0  0  0  0  0  0  0  0  0
   10.4066  -18.6413   19.9731 C   0  0  0  0  0  0  0  0  0  0  0  0
   10.2392  -19.1975   18.7216 C   0  0  0  0  0  0  0  0  0  0  0  0
    7.7687  -11.7653   26.8064 C   0  0  0  0  0  0  0  0  0  0  0  0
    6.9273  -13.0321   26.5951 C   0  0  1  0  0  0  0  0  0  0  0  0
    5.4808  -12.5339   26.7554 C   0  0  0  0  0  0  0  0  0  0  0  0
    7.1680  -13.5777   25.2402 C   0  0  0  0  0  0  0  0  0  0  0  0
    8.4103  -14.4175   25.0835 C   0  0  2  0  0  0  0  0  0  0  0  0
    8.6035  -15.0382   23.8102 N   0  0  0  0  0  0  0  0  0  0  0  0
    8.6816  -15.3437   26.1822 C   0  0  0  0  0  0  0  0  0  0  0  0
    8.7663  -14.9052   27.3806 O   0  0  0  0  0  0  0  0  0  0  0  0
    8.8760  -19.0449   26.6858 C   0  0  0  0  0  0  0  0  0  0  0  0
    9.1233  -17.6202   27.1602 C   0  0  2  0  0  0  0  0  0  0  0  0
    8.8664  -16.7415   26.0284 N   0  0  0  0  0  0  0  0  0  0  0  0
   10.5076  -17.5270   27.6231 C   0  0  0  0  0  0  0  0  0  0  0  0
   11.4369  -16.8837   26.8223 O   0  0  0  0  0  0  0  0  0  0  0  0
   10.9017  -18.0020   28.7146 O   0  0  0  0  0  0  0  0  0  0  0  0
  2  1  1  0
  2  3  2  0
  4  3  1  0
  5  4  2  0
  6  5  1  0
  7  6  1  0
  7  9  1  0
  7  8  1  1
  9 18  1  0
  9 10  2  0
 11 12  2  0
 11  5  1  0
 12  2  1  0
 14 13  1  6
 14 15  1  0
 16 14  1  0
 17 16  1  6
 18 17  1  0
 19 23  1  0
 19 17  1  0
 20 19  2  0
 22 21  1  6
 22 23  1  0
 22 24  1  0
 24 25  1  0
 26 24  2  0
M  END
$$$$
