YLA.pdb
     RDKit          3D

 26 26  0  0  1  0  0  0  0  0999 V2000
    7.6833  -14.5512   15.7148 O   0  0  0  0  0  0  0  0  0  0  0  0
    7.9240  -14.3034   17.0639 C   0  0  0  0  0  0  0  0  0  0  0  0
    7.4872  -13.1475   17.6950 C   0  0  0  0  0  0  0  0  0  0  0  0
    7.7514  -12.9436   19.0455 C   0  0  0  0  0  0  0  0  0  0  0  0
    8.4468  -13.8728   19.7886 C   0  0  0  0  0  0  0  0  0  0  0  0
    8.7171  -13.6342   21.2277 C   0  0  0  0  0  0  0  0  0  0  0  0
    8.8048  -14.9861   21.9012 C   0  0  2  0  0  0  0  0  0  0  0  0
    7.5758  -15.6774   21.6971 N   0  0  0  0  0  0  0  0  0  0  0  0
    9.0688  -14.8532   23.3628 C   0  0  0  0  0  0  0  0  0  0  0  0
   10.2283  -14.5625   23.7202 O   0  0  0  0  0  0  0  0  0  0  0  0
    8.8674  -15.0128   19.1290 C   0  0  0  0  0  0  0  0  0  0  0  0
    8.6137  -15.2305   17.7905 C   0  0  0  0  0  0  0  0  0  0  0  0
    5.5225  -12.3540   26.9017 C   0  0  0  0  0  0  0  0  0  0  0  0
    6.7803  -12.8668   26.1858 C   0  0  1  0  0  0  0  0  0  0  0  0
    7.9176  -12.0588   26.8340 C   0  0  0  0  0  0  0  0  0  0  0  0
    6.9401  -14.3191   26.4243 C   0  0  0  0  0  0  0  0  0  0  0  0
    8.1065  -14.9727   25.7276 C   0  0  2  0  0  0  0  0  0  0  0  0
    8.0343  -15.0517   24.3019 N   0  0  0  0  0  0  0  0  0  0  0  0
    8.5601  -16.2324   26.3157 C   0  0  0  0  0  0  0  0  0  0  0  0
    8.6971  -16.3322   27.5833 O   0  0  0  0  0  0  0  0  0  0  0  0
    9.0538  -19.7639   25.2339 C   0  0  0  0  0  0  0  0  0  0  0  0
    9.3224  -18.6286   26.2112 C   0  0  2  0  0  0  0  0  0  0  0  0
    8.8739  -17.3994   25.5733 N   0  0  0  0  0  0  0  0  0  0  0  0
   10.7560  -18.6045   26.5001 C   0  0  0  0  0  0  0  0  0  0  0  0
   11.5239  -17.5752   25.9809 O   0  0  0  0  0  0  0  0  0  0  0  0
   11.3321  -19.4725   27.1980 O   0  0  0  0  0  0  0  0  0  0  0  0
  2  1  1  0
  2  3  2  0
  4  3  1  0
  5  4  2  0
  6  5  1  0
  7  6  1  0
  7  9  1  0
  7  8  1  1
  9 18  1  0
  9 10  2  0
 11 12  2  0
 11  5  1  0
 12  2  1  0
 14 13  1  1
 14 15  1  0
 16 14  1  0
 17 16  1  1
 18 17  1  0
 19 23  1  0
 19 17  1  0
 20 19  2  0
 22 21  1  6
 22 23  1  0
 22 24  1  0
 24 25  1  0
 26 24  2  0
M  END
$$$$
