YLA.pdb
     RDKit          3D

 26 26  0  0  1  0  0  0  0  0999 V2000
    7.3560  -14.2780   15.8311 O   0  0  0  0  0  0  0  0  0  0  0  0
    7.7420  -14.1289   17.1608 C   0  0  0  0  0  0  0  0  0  0  0  0
    8.7006  -14.9407   17.7503 C   0  0  0  0  0  0  0  0  0  0  0  0
    9.0539  -14.7539   19.0828 C   0  0  0  0  0  0  0  0  0  0  0  0
    8.4693  -13.7685   19.8485 C   0  0  0  0  0  0  0  0  0  0  0  0
    8.8618  -13.5876   21.2678 C   0  0  0  0  0  0  0  0  0  0  0  0
    8.9116  -14.9605   21.9014 C   0  0  2  0  0  0  0  0  0  0  0  0
    7.6390  -15.5815   21.7438 N   0  0  0  0  0  0  0  0  0  0  0  0
    9.2557  -14.8824   23.3502 C   0  0  0  0  0  0  0  0  0  0  0  0
   10.4260  -14.5749   23.6541 O   0  0  0  0  0  0  0  0  0  0  0  0
    7.5185  -12.9778   19.2304 C   0  0  0  0  0  0  0  0  0  0  0  0
    7.1565  -13.1497   17.9102 C   0  0  0  0  0  0  0  0  0  0  0  0
    5.7143  -12.5711   26.8947 C   0  0  0  0  0  0  0  0  0  0  0  0
    6.9747  -13.0388   26.1532 C   0  0  1  0  0  0  0  0  0  0  0  0
    8.0651  -12.0766   26.6551 C   0  0  0  0  0  0  0  0  0  0  0  0
    7.2800  -14.4422   26.5121 C   0  0  0  0  0  0  0  0  0  0  0  0
    8.4200  -15.0780   25.7577 C   0  0  2  0  0  0  0  0  0  0  0  0
    8.2823  -15.1495   24.3365 N   0  0  0  0  0  0  0  0  0  0  0  0
    8.9150  -16.3357   26.3160 C   0  0  0  0  0  0  0  0  0  0  0  0
    9.0105  -16.4777   27.5834 O   0  0  0  0  0  0  0  0  0  0  0  0
    9.6336  -19.7967   25.1454 C   0  0  0  0  0  0  0  0  0  0  0  0
    9.8351  -18.6724   26.1510 C   0  0  2  0  0  0  0  0  0  0  0  0
    9.3142  -17.4563   25.5437 N   0  0  0  0  0  0  0  0  0  0  0  0
   11.2650  -18.5707   26.4416 C   0  0  0  0  0  0  0  0  0  0  0  0
   11.8787  -19.5982   27.1390 O   0  0  0  0  0  0  0  0  0  0  0  0
   11.9709  -17.5956   26.0905 O   0  0  0  0  0  0  0  0  0  0  0  0
  2  1  1  0
  2  3  2  0
  4  3  1  0
  5  4  2  0
  6  5  1  0
  7  6  1  0
  7  9  1  0
  7  8  1  1
  9 18  1  0
  9 10  2  0
 11 12  2  0
 11  5  1  0
 12  2  1  0
 14 13  1  1
 14 15  1  0
 16 14  1  0
 17 16  1  1
 18 17  1  0
 19 23  1  0
 19 17  1  0
 20 19  2  0
 22 21  1  6
 22 23  1  0
 22 24  1  0
 24 25  1  0
 26 24  2  0
M  END
$$$$
