YLA.pdb
     RDKit          3D

 26 26  0  0  1  0  0  0  0  0999 V2000
    4.9259  -23.5440   28.2960 O   0  0  0  0  0  0  0  0  0  0  0  0
    5.5610  -22.5091   27.6141 C   0  0  0  0  0  0  0  0  0  0  0  0
    6.1685  -22.6966   26.3808 C   0  0  0  0  0  0  0  0  0  0  0  0
    6.7911  -21.6321   25.7371 C   0  0  0  0  0  0  0  0  0  0  0  0
    6.8228  -20.3739   26.2984 C   0  0  0  0  0  0  0  0  0  0  0  0
    7.4926  -19.2533   25.5936 C   0  0  0  0  0  0  0  0  0  0  0  0
    6.4105  -18.4060   24.9611 C   0  0  2  0  0  0  0  0  0  0  0  0
    5.8437  -19.1291   23.8722 N   0  0  0  0  0  0  0  0  0  0  0  0
    6.9501  -17.1046   24.4723 C   0  0  0  0  0  0  0  0  0  0  0  0
    7.2612  -17.0201   23.2671 O   0  0  0  0  0  0  0  0  0  0  0  0
    6.2082  -20.2218   27.5274 C   0  0  0  0  0  0  0  0  0  0  0  0
    5.5864  -21.2668   28.1792 C   0  0  0  0  0  0  0  0  0  0  0  0
    6.2549  -12.1498   27.2590 C   0  0  0  0  0  0  0  0  0  0  0  0
    6.4642  -13.1178   26.0856 C   0  0  1  0  0  0  0  0  0  0  0  0
    6.3794  -12.2071   24.8487 C   0  0  0  0  0  0  0  0  0  0  0  0
    7.7913  -13.7645   26.1953 C   0  0  0  0  0  0  0  0  0  0  0  0
    8.0306  -14.9297   25.2690 C   0  0  2  0  0  0  0  0  0  0  0  0
    7.0997  -16.0115   25.3522 N   0  0  0  0  0  0  0  0  0  0  0  0
    9.4110  -15.4088   25.2105 C   0  0  0  0  0  0  0  0  0  0  0  0
   10.3657  -14.5818   25.0097 O   0  0  0  0  0  0  0  0  0  0  0  0
   11.7792  -16.3537   24.0797 C   0  0  0  0  0  0  0  0  0  0  0  0
   11.1760  -17.2027   25.1895 C   0  0  2  0  0  0  0  0  0  0  0  0
    9.7988  -16.7645   25.3632 N   0  0  0  0  0  0  0  0  0  0  0  0
   11.9715  -17.0031   26.4005 C   0  0  0  0  0  0  0  0  0  0  0  0
   13.3026  -17.3862   26.3950 O   0  0  0  0  0  0  0  0  0  0  0  0
   11.5096  -16.4998   27.4521 O   0  0  0  0  0  0  0  0  0  0  0  0
  2  1  1  0
  2  3  2  0
  4  3  1  0
  5  4  2  0
  6  5  1  0
  7  6  1  0
  7  9  1  0
  7  8  1  6
  9 18  1  0
  9 10  2  0
 11 12  2  0
 11  5  1  0
 12  2  1  0
 14 13  1  1
 14 15  1  0
 16 14  1  0
 17 16  1  1
 18 17  1  0
 19 23  1  0
 19 17  1  0
 20 19  2  0
 22 21  1  6
 22 23  1  0
 22 24  1  0
 24 25  1  0
 26 24  2  0
M  END
$$$$
