YLA.pdb
     RDKit          3D

 26 26  0  0  1  0  0  0  0  0999 V2000
   11.9910  -23.0185   15.8568 O   0  0  0  0  0  0  0  0  0  0  0  0
   12.0128  -21.9685   16.7713 C   0  0  0  0  0  0  0  0  0  0  0  0
   13.1825  -21.3021   17.1076 C   0  0  0  0  0  0  0  0  0  0  0  0
   13.1551  -20.2585   18.0270 C   0  0  0  0  0  0  0  0  0  0  0  0
   11.9791  -19.8597   18.6246 C   0  0  0  0  0  0  0  0  0  0  0  0
   11.9737  -18.7439   19.6025 C   0  0  0  0  0  0  0  0  0  0  0  0
   11.3318  -17.5529   18.9255 C   0  0  2  0  0  0  0  0  0  0  0  0
   12.1583  -17.1464   17.8385 N   0  0  0  0  0  0  0  0  0  0  0  0
   11.1537  -16.4153   19.8730 C   0  0  0  0  0  0  0  0  0  0  0  0
   12.1514  -15.7123   20.1316 O   0  0  0  0  0  0  0  0  0  0  0  0
   10.8326  -20.5446   18.2672 C   0  0  0  0  0  0  0  0  0  0  0  0
   10.8423  -21.5817   17.3573 C   0  0  0  0  0  0  0  0  0  0  0  0
    6.2363  -13.5839   20.1952 C   0  0  0  0  0  0  0  0  0  0  0  0
    7.7023  -14.0291   20.0939 C   0  0  1  0  0  0  0  0  0  0  0  0
    8.4566  -12.7197   19.8055 C   0  0  0  0  0  0  0  0  0  0  0  0
    8.1350  -14.6361   21.3728 C   0  0  0  0  0  0  0  0  0  0  0  0
    9.5536  -15.1454   21.4091 C   0  0  2  0  0  0  0  0  0  0  0  0
    9.8941  -16.1515   20.4521 N   0  0  0  0  0  0  0  0  0  0  0  0
   10.0678  -15.4695   22.7392 C   0  0  0  0  0  0  0  0  0  0  0  0
    9.8433  -14.6802   23.7201 O   0  0  0  0  0  0  0  0  0  0  0  0
   10.0504  -17.1185   25.2621 C   0  0  0  0  0  0  0  0  0  0  0  0
   11.2869  -16.9172   24.3980 C   0  0  2  0  0  0  0  0  0  0  0  0
   10.8238  -16.6290   23.0484 N   0  0  0  0  0  0  0  0  0  0  0  0
   12.0866  -18.1406   24.4534 C   0  0  0  0  0  0  0  0  0  0  0  0
   12.7287  -18.4649   25.6371 O   0  0  0  0  0  0  0  0  0  0  0  0
   12.2234  -18.9180   23.4791 O   0  0  0  0  0  0  0  0  0  0  0  0
  2  1  1  0
  2  3  2  0
  4  3  1  0
  5  4  2  0
  6  5  1  0
  7  6  1  0
  7  9  1  0
  7  8  1  6
  9 18  1  0
  9 10  2  0
 11 12  2  0
 11  5  1  0
 12  2  1  0
 14 13  1  1
 14 15  1  0
 16 14  1  0
 17 16  1  1
 18 17  1  0
 19 23  1  0
 19 17  1  0
 20 19  2  0
 22 21  1  1
 22 23  1  0
 22 24  1  0
 24 25  1  0
 26 24  2  0
M  END
$$$$
