YLA.pdb
     RDKit          3D

 26 26  0  0  1  0  0  0  0  0999 V2000
    7.8033  -12.9189   16.5758 O   0  0  0  0  0  0  0  0  0  0  0  0
    7.7994  -13.4508   17.8629 C   0  0  0  0  0  0  0  0  0  0  0  0
    7.1467  -12.8316   18.9192 C   0  0  0  0  0  0  0  0  0  0  0  0
    7.1705  -13.4009   20.1883 C   0  0  0  0  0  0  0  0  0  0  0  0
    7.8355  -14.5832   20.4317 C   0  0  0  0  0  0  0  0  0  0  0  0
    7.8475  -15.1720   21.7934 C   0  0  0  0  0  0  0  0  0  0  0  0
    9.2947  -15.3209   22.2085 C   0  0  2  0  0  0  0  0  0  0  0  0
    9.8296  -16.4860   21.5868 N   0  0  0  0  0  0  0  0  0  0  0  0
    9.4303  -15.4354   23.6891 C   0  0  0  0  0  0  0  0  0  0  0  0
   10.5124  -15.8595   24.1428 O   0  0  0  0  0  0  0  0  0  0  0  0
    8.4751  -15.1734   19.3575 C   0  0  0  0  0  0  0  0  0  0  0  0
    8.4612  -14.6222   18.0928 C   0  0  0  0  0  0  0  0  0  0  0  0
    5.8756  -12.1738   26.7966 C   0  0  0  0  0  0  0  0  0  0  0  0
    7.1079  -12.8220   26.1495 C   0  0  1  0  0  0  0  0  0  0  0  0
    8.2759  -11.9580   26.6552 C   0  0  0  0  0  0  0  0  0  0  0  0
    7.2348  -14.2264   26.6001 C   0  0  0  0  0  0  0  0  0  0  0  0
    8.3510  -15.0186   25.9681 C   0  0  2  0  0  0  0  0  0  0  0  0
    8.3639  -15.0735   24.5396 N   0  0  0  0  0  0  0  0  0  0  0  0
    8.5989  -16.3322   26.5610 C   0  0  0  0  0  0  0  0  0  0  0  0
    8.7435  -16.4443   27.8268 O   0  0  0  0  0  0  0  0  0  0  0  0
    8.5266  -19.9053   25.4814 C   0  0  0  0  0  0  0  0  0  0  0  0
    8.9419  -18.8237   26.4682 C   0  0  2  0  0  0  0  0  0  0  0  0
    8.6970  -17.5408   25.8254 N   0  0  0  0  0  0  0  0  0  0  0  0
   10.3564  -19.0156   26.7872 C   0  0  0  0  0  0  0  0  0  0  0  0
   11.2657  -18.0463   26.3969 O   0  0  0  0  0  0  0  0  0  0  0  0
   10.7937  -20.0184   27.4000 O   0  0  0  0  0  0  0  0  0  0  0  0
  2  1  1  0
  2  3  2  0
  4  3  1  0
  5  4  2  0
  6  5  1  0
  7  6  1  0
  7  9  1  0
  7  8  1  6
  9 18  1  0
  9 10  2  0
 11 12  2  0
 11  5  1  0
 12  2  1  0
 14 13  1  1
 14 15  1  0
 16 14  1  0
 17 16  1  6
 18 17  1  0
 19 23  1  0
 19 17  1  0
 20 19  2  0
 22 21  1  6
 22 23  1  0
 22 24  1  0
 24 25  1  0
 26 24  2  0
M  END
$$$$
