MSM.pdb
     RDKit          3D

 23 22  0  0  1  0  0  0  0  0999 V2000
   26.7961  -18.7337  -15.7331 C   0  0  0  0  0  0  0  0  0  0  0  0
   27.6366  -19.8076  -14.5555 S   0  0  0  0  0  0  0  0  0  0  0  0
   27.5428  -21.5153  -15.1561 C   0  0  0  0  0  0  0  0  0  0  0  0
   26.0689  -21.9089  -15.2883 C   0  0  0  0  0  0  0  0  0  0  0  0
   25.9716  -23.3586  -15.7818 C   0  0  2  0  0  0  0  0  0  0  0  0
   26.5054  -23.3915  -17.1329 N   0  0  0  0  0  0  0  0  0  0  0  0
   24.5699  -23.7785  -15.7187 C   0  0  0  0  0  0  0  0  0  0  0  0
   23.7147  -23.0014  -16.2389 O   0  0  0  0  0  0  0  0  0  0  0  0
   22.8935  -26.7798  -13.1920 O   0  0  0  0  0  0  0  0  0  0  0  0
   22.5150  -26.7298  -14.5242 C   0  0  0  0  0  0  0  0  0  0  0  0
   22.6733  -25.3032  -15.0064 C   0  0  2  0  0  0  0  0  0  0  0  0
   24.0827  -24.9604  -15.1368 N   0  0  0  0  0  0  0  0  0  0  0  0
   21.9717  -24.3370  -14.1286 C   0  0  0  0  0  0  0  0  0  0  0  0
   22.6782  -23.6661  -13.3130 O   0  0  0  0  0  0  0  0  0  0  0  0
   22.4812  -19.0128  -13.7596 C   0  0  0  0  0  0  0  0  0  0  0  0
   20.6865  -18.9140  -13.9632 S   0  0  0  0  0  0  0  0  0  0  0  0
   19.9797  -20.4629  -13.2889 C   0  0  0  0  0  0  0  0  0  0  0  0
   20.5816  -21.6594  -13.9669 C   0  0  0  0  0  0  0  0  0  0  0  0
   20.0033  -22.9202  -13.4407 C   0  0  2  0  0  0  0  0  0  0  0  0
   20.5858  -24.0887  -14.1131 N   0  0  0  0  0  0  0  0  0  0  0  0
   18.5530  -22.9401  -13.4891 C   0  0  0  0  0  0  0  0  0  0  0  0
   17.8635  -23.1051  -14.5065 O   0  0  0  0  0  0  0  0  0  0  0  0
   17.8445  -22.7576  -12.2847 O   0  0  0  0  0  0  0  0  0  0  0  0
  1  2  1  0
  3  2  1  0
  4  3  1  0
  5  6  1  6
  5  7  1  0
  5  4  1  0
  7  8  2  0
 10  9  1  0
 11 10  1  1
 11 13  1  0
 12  7  1  0
 12 11  1  0
 13 14  2  0
 13 20  1  0
 15 16  1  0
 17 16  1  0
 18 17  1  0
 19 18  1  6
 20 19  1  0
 21 19  1  0
 21 23  1  0
 22 21  2  0
M  END
$$$$
