MSM.pdb
     RDKit          3D

 23 22  0  0  1  0  0  0  0  0999 V2000
   20.9984  -33.2128  -10.3706 C   0  0  0  0  0  0  0  0  0  0  0  0
   22.0304  -31.7486  -10.1766 S   0  0  0  0  0  0  0  0  0  0  0  0
   23.7277  -32.1657  -10.6572 C   0  0  0  0  0  0  0  0  0  0  0  0
   24.2589  -33.2380   -9.7018 C   0  0  0  0  0  0  0  0  0  0  0  0
   24.7217  -32.5739   -8.3981 C   0  0  2  0  0  0  0  0  0  0  0  0
   25.9726  -31.8910   -8.6818 N   0  0  0  0  0  0  0  0  0  0  0  0
   24.8646  -33.6103   -7.3732 C   0  0  0  0  0  0  0  0  0  0  0  0
   23.8068  -34.2049   -7.0078 O   0  0  0  0  0  0  0  0  0  0  0  0
   28.1508  -33.9624   -4.9002 O   0  0  0  0  0  0  0  0  0  0  0  0
   27.6002  -35.1806   -5.2651 C   0  0  0  0  0  0  0  0  0  0  0  0
   26.1537  -34.9488   -5.6481 C   0  0  2  0  0  0  0  0  0  0  0  0
   26.0621  -34.0084   -6.7564 N   0  0  0  0  0  0  0  0  0  0  0  0
   25.3386  -34.4930   -4.4974 C   0  0  0  0  0  0  0  0  0  0  0  0
   24.9688  -33.2775   -4.4860 O   0  0  0  0  0  0  0  0  0  0  0  0
   20.6845  -32.1095   -3.8126 C   0  0  0  0  0  0  0  0  0  0  0  0
   20.2852  -33.2167   -2.4389 S   0  0  0  0  0  0  0  0  0  0  0  0
   21.8715  -33.8318   -1.7615 C   0  0  0  0  0  0  0  0  0  0  0  0
   22.7907  -34.2588   -2.8688 C   0  0  0  0  0  0  0  0  0  0  0  0
   24.0778  -34.7641   -2.3313 C   0  0  2  0  0  0  0  0  0  0  0  0
   24.9306  -35.2854   -3.4073 N   0  0  0  0  0  0  0  0  0  0  0  0
   23.9035  -35.7343   -1.2662 C   0  0  0  0  0  0  0  0  0  0  0  0
   23.6611  -36.9411   -1.4169 O   0  0  0  0  0  0  0  0  0  0  0  0
   24.0152  -35.2876    0.0656 O   0  0  0  0  0  0  0  0  0  0  0  0
  1  2  1  0
  3  2  1  0
  4  3  1  0
  5  6  1  6
  5  7  1  0
  5  4  1  0
  7  8  2  0
 10  9  1  0
 11 10  1  1
 11 13  1  0
 12  7  1  0
 12 11  1  0
 13 14  2  0
 13 20  1  0
 15 16  1  0
 17 16  1  0
 18 17  1  0
 19 18  1  6
 20 19  1  0
 21 19  1  0
 21 23  1  0
 22 21  2  0
M  END
$$$$
