MSM.pdb
     RDKit          3D

 23 22  0  0  1  0  0  0  0  0999 V2000
   23.4052   -8.9704  -22.1476 C   0  0  0  0  0  0  0  0  0  0  0  0
   24.3924  -10.0342  -21.0799 S   0  0  0  0  0  0  0  0  0  0  0  0
   23.3236  -10.7051  -19.7787 C   0  0  0  0  0  0  0  0  0  0  0  0
   22.5711   -9.5476  -19.1162 C   0  0  0  0  0  0  0  0  0  0  0  0
   21.6941  -10.0938  -17.9816 C   0  0  2  0  0  0  0  0  0  0  0  0
   20.6930  -10.9560  -18.5866 N   0  0  0  0  0  0  0  0  0  0  0  0
   21.1042   -8.9620  -17.2634 C   0  0  0  0  0  0  0  0  0  0  0  0
   20.5006   -8.0925  -17.9604 O   0  0  0  0  0  0  0  0  0  0  0  0
   21.8111   -8.1942  -13.3075 O   0  0  0  0  0  0  0  0  0  0  0  0
   20.5282   -7.8401  -13.6937 C   0  0  0  0  0  0  0  0  0  0  0  0
   20.5307   -7.6175  -15.1914 C   0  0  2  0  0  0  0  0  0  0  0  0
   21.1432   -8.7478  -15.8758 N   0  0  0  0  0  0  0  0  0  0  0  0
   21.1967   -6.3474  -15.5651 C   0  0  0  0  0  0  0  0  0  0  0  0
   22.2131   -6.4197  -16.3241 O   0  0  0  0  0  0  0  0  0  0  0  0
   22.6346   -0.8983  -20.0268 C   0  0  0  0  0  0  0  0  0  0  0  0
   21.8643   -2.4471  -19.4978 S   0  0  0  0  0  0  0  0  0  0  0  0
   22.0341   -2.5412  -17.6769 C   0  0  0  0  0  0  0  0  0  0  0  0
   21.4208   -3.8069  -17.1520 C   0  0  0  0  0  0  0  0  0  0  0  0
   21.4510   -3.8415  -15.6691 C   0  0  2  0  0  0  0  0  0  0  0  0
   20.8064   -5.0576  -15.1567 N   0  0  0  0  0  0  0  0  0  0  0  0
   20.8967   -2.6442  -15.0646 C   0  0  0  0  0  0  0  0  0  0  0  0
   19.6917   -2.4160  -14.8802 O   0  0  0  0  0  0  0  0  0  0  0  0
   21.7884   -1.6383  -14.6420 O   0  0  0  0  0  0  0  0  0  0  0  0
  1  2  1  0
  3  2  1  0
  4  3  1  0
  5  6  1  6
  5  7  1  0
  5  4  1  0
  7  8  2  0
 10  9  1  0
 11 10  1  1
 11 13  1  0
 12  7  1  0
 12 11  1  0
 13 14  2  0
 13 20  1  0
 15 16  1  0
 17 16  1  0
 18 17  1  0
 19 18  1  6
 20 19  1  0
 21 19  1  0
 21 23  1  0
 22 21  2  0
M  END
$$$$
