MSM.pdb
     RDKit          3D

 23 22  0  0  1  0  0  0  0  0999 V2000
   27.0123  -15.8936  -14.6122 C   0  0  0  0  0  0  0  0  0  0  0  0
   26.4746  -15.1806  -16.1771 S   0  0  0  0  0  0  0  0  0  0  0  0
   24.7940  -14.5326  -15.9739 C   0  0  0  0  0  0  0  0  0  0  0  0
   23.8209  -15.7115  -15.8837 C   0  0  0  0  0  0  0  0  0  0  0  0
   24.1341  -16.7165  -17.0002 C   0  0  2  0  0  0  0  0  0  0  0  0
   23.6135  -16.1622  -18.2385 N   0  0  0  0  0  0  0  0  0  0  0  0
   23.5210  -18.0011  -16.6555 C   0  0  0  0  0  0  0  0  0  0  0  0
   22.2546  -18.0476  -16.6457 O   0  0  0  0  0  0  0  0  0  0  0  0
   25.3826  -21.2781  -14.8163 O   0  0  0  0  0  0  0  0  0  0  0  0
   24.5974  -21.5611  -15.9226 C   0  0  0  0  0  0  0  0  0  0  0  0
   23.5615  -20.4652  -16.0589 C   0  0  2  0  0  0  0  0  0  0  0  0
   24.2022  -19.1868  -16.3346 N   0  0  0  0  0  0  0  0  0  0  0  0
   22.6869  -20.3734  -14.8660 C   0  0  0  0  0  0  0  0  0  0  0  0
   22.9295  -19.4467  -14.0313 O   0  0  0  0  0  0  0  0  0  0  0  0
   19.5391  -16.6008  -12.9675 C   0  0  0  0  0  0  0  0  0  0  0  0
   18.2706  -17.8205  -12.5485 S   0  0  0  0  0  0  0  0  0  0  0  0
   19.1113  -19.4385  -12.3789 C   0  0  0  0  0  0  0  0  0  0  0  0
   20.1083  -19.6362  -13.4836 C   0  0  0  0  0  0  0  0  0  0  0  0
   20.7143  -20.9889  -13.4221 C   0  0  2  0  0  0  0  0  0  0  0  0
   21.6030  -21.2214  -14.5679 N   0  0  0  0  0  0  0  0  0  0  0  0
   19.7277  -22.0443  -13.2846 C   0  0  0  0  0  0  0  0  0  0  0  0
   19.4269  -22.8740  -14.1559 O   0  0  0  0  0  0  0  0  0  0  0  0
   19.0380  -22.1551  -12.0608 O   0  0  0  0  0  0  0  0  0  0  0  0
  1  2  1  0
  3  2  1  0
  4  3  1  0
  5  6  1  6
  5  7  1  0
  5  4  1  0
  7  8  2  0
 10  9  1  0
 11 10  1  1
 11 13  1  0
 12  7  1  0
 12 11  1  0
 13 14  2  0
 13 20  1  0
 15 16  1  0
 17 16  1  0
 18 17  1  0
 19 18  1  6
 20 19  1  0
 21 19  1  0
 21 23  1  0
 22 21  2  0
M  END
$$$$
