MSM.pdb
     RDKit          3D

 23 22  0  0  1  0  0  0  0  0999 V2000
   26.2414  -20.0451   -3.9945 C   0  0  0  0  0  0  0  0  0  0  0  0
   28.0280  -20.1707   -4.1916 S   0  0  0  0  0  0  0  0  0  0  0  0
   28.4643  -19.6642   -5.8765 C   0  0  0  0  0  0  0  0  0  0  0  0
   27.2640  -19.9201   -6.7923 C   0  0  0  0  0  0  0  0  0  0  0  0
   27.6161  -19.4941   -8.2238 C   0  0  2  0  0  0  0  0  0  0  0  0
   27.9811  -18.0883   -8.1784 N   0  0  0  0  0  0  0  0  0  0  0  0
   26.4580  -19.7488   -9.0833 C   0  0  0  0  0  0  0  0  0  0  0  0
   25.5396  -18.8756   -9.0813 O   0  0  0  0  0  0  0  0  0  0  0  0
   26.0550  -23.1552  -11.4982 O   0  0  0  0  0  0  0  0  0  0  0  0
   26.6299  -22.0145  -12.0356 C   0  0  0  0  0  0  0  0  0  0  0  0
   26.0247  -20.8108  -11.3447 C   0  0  2  0  0  0  0  0  0  0  0  0
   26.2677  -20.8683   -9.9099 N   0  0  0  0  0  0  0  0  0  0  0  0
   24.5774  -20.6723  -11.6320 C   0  0  0  0  0  0  0  0  0  0  0  0
   23.7634  -21.0033  -10.7143 O   0  0  0  0  0  0  0  0  0  0  0  0
   20.9903  -16.6304  -15.6967 C   0  0  0  0  0  0  0  0  0  0  0  0
   20.3639  -18.3048  -15.9730 S   0  0  0  0  0  0  0  0  0  0  0  0
   20.7518  -19.2816  -14.4734 C   0  0  0  0  0  0  0  0  0  0  0  0
   22.2365  -19.4212  -14.3011 C   0  0  0  0  0  0  0  0  0  0  0  0
   22.5637  -20.1706  -13.0632 C   0  0  2  0  0  0  0  0  0  0  0  0
   24.0140  -20.2040  -12.8345 N   0  0  0  0  0  0  0  0  0  0  0  0
   21.9853  -21.5014  -13.0388 C   0  0  0  0  0  0  0  0  0  0  0  0
   22.4430  -22.5018  -13.6111 O   0  0  0  0  0  0  0  0  0  0  0  0
   20.7978  -21.6974  -12.3057 O   0  0  0  0  0  0  0  0  0  0  0  0
  1  2  1  0
  3  2  1  0
  4  3  1  0
  5  6  1  1
  5  7  1  0
  5  4  1  0
  7  8  2  0
 10  9  1  0
 11 10  1  6
 11 13  1  0
 12  7  1  0
 12 11  1  0
 13 14  2  0
 13 20  1  0
 15 16  1  0
 17 16  1  0
 18 17  1  0
 19 18  1  6
 20 19  1  0
 21 19  1  0
 21 23  1  0
 22 21  2  0
M  END
$$$$
