MSM.pdb
     RDKit          3D

 23 22  0  0  1  0  0  0  0  0999 V2000
   29.2980  -18.6880  -18.5980 C   0  0  0  0  0  0  0  0  0  0  0  0
   29.2741  -20.4850  -18.7279 S   0  0  0  0  0  0  0  0  0  0  0  0
   27.7415  -21.1017  -17.9820 C   0  0  0  0  0  0  0  0  0  0  0  0
   27.6375  -20.5586  -16.5540 C   0  0  0  0  0  0  0  0  0  0  0  0
   26.3666  -21.1076  -15.8920 C   0  0  2  0  0  0  0  0  0  0  0  0
   25.2474  -20.7589  -16.7507 N   0  0  0  0  0  0  0  0  0  0  0  0
   26.2519  -20.5273  -14.5523 C   0  0  0  0  0  0  0  0  0  0  0  0
   26.9105  -19.4681  -14.3280 O   0  0  0  0  0  0  0  0  0  0  0  0
   23.0963  -21.3702  -12.2538 O   0  0  0  0  0  0  0  0  0  0  0  0
   23.7031  -20.1367  -12.0783 C   0  0  0  0  0  0  0  0  0  0  0  0
   25.1960  -20.3156  -12.2567 C   0  0  2  0  0  0  0  0  0  0  0  0
   25.4816  -21.0324  -13.4918 N   0  0  0  0  0  0  0  0  0  0  0  0
   25.8190  -20.9925  -11.0948 C   0  0  0  0  0  0  0  0  0  0  0  0
   25.7756  -22.2620  -11.0635 O   0  0  0  0  0  0  0  0  0  0  0  0
   27.9325  -18.0645   -5.0953 C   0  0  0  0  0  0  0  0  0  0  0  0
   28.4353  -19.7931   -5.2716 S   0  0  0  0  0  0  0  0  0  0  0  0
   27.1841  -20.6154   -6.3259 C   0  0  0  0  0  0  0  0  0  0  0  0
   27.2195  -20.0614   -7.7207 C   0  0  0  0  0  0  0  0  0  0  0  0
   26.3955  -20.8806   -8.6432 C   0  0  2  0  0  0  0  0  0  0  0  0
   26.4608  -20.3578  -10.0140 N   0  0  0  0  0  0  0  0  0  0  0  0
   25.0249  -21.0339   -8.1915 C   0  0  0  0  0  0  0  0  0  0  0  0
   24.0590  -20.3486   -8.5593 O   0  0  0  0  0  0  0  0  0  0  0  0
   24.7434  -22.0451   -7.2512 O   0  0  0  0  0  0  0  0  0  0  0  0
  1  2  1  0
  3  2  1  0
  4  3  1  0
  5  6  1  6
  5  7  1  0
  5  4  1  0
  7  8  2  0
 10  9  1  0
 11 10  1  1
 11 13  1  0
 12  7  1  0
 12 11  1  0
 13 14  2  0
 13 20  1  0
 15 16  1  0
 17 16  1  0
 18 17  1  0
 19 18  1  1
 20 19  1  0
 21 19  1  0
 21 23  1  0
 22 21  2  0
M  END
$$$$
