MSM.pdb
     RDKit          3D

 23 22  0  0  1  0  0  0  0  0999 V2000
   19.3873  -17.5035  -15.7993 C   0  0  0  0  0  0  0  0  0  0  0  0
   20.3981  -16.2293  -15.0237 S   0  0  0  0  0  0  0  0  0  0  0  0
   22.0610  -16.2886  -15.7425 C   0  0  0  0  0  0  0  0  0  0  0  0
   22.5024  -17.7518  -15.8384 C   0  0  0  0  0  0  0  0  0  0  0  0
   23.9098  -17.8200  -16.4463 C   0  0  2  0  0  0  0  0  0  0  0  0
   23.8091  -17.3592  -17.8207 N   0  0  0  0  0  0  0  0  0  0  0  0
   24.3929  -19.1990  -16.3476 C   0  0  0  0  0  0  0  0  0  0  0  0
   23.8097  -20.0637  -17.0675 O   0  0  0  0  0  0  0  0  0  0  0  0
   27.0431  -20.6115  -13.4259 O   0  0  0  0  0  0  0  0  0  0  0  0
   27.1843  -21.1475  -14.6960 C   0  0  0  0  0  0  0  0  0  0  0  0
   25.8483  -21.0474  -15.4017 C   0  0  2  0  0  0  0  0  0  0  0  0
   25.4411  -19.6552  -15.5314 N   0  0  0  0  0  0  0  0  0  0  0  0
   24.7991  -21.8456  -14.7246 C   0  0  0  0  0  0  0  0  0  0  0  0
   24.0087  -21.2312  -13.9422 O   0  0  0  0  0  0  0  0  0  0  0  0
   19.7612  -21.4801  -13.7135 C   0  0  0  0  0  0  0  0  0  0  0  0
   19.5121  -23.2649  -13.8702 S   0  0  0  0  0  0  0  0  0  0  0  0
   21.1399  -24.0629  -13.6114 C   0  0  0  0  0  0  0  0  0  0  0  0
   22.2224  -23.3007  -14.3191 C   0  0  0  0  0  0  0  0  0  0  0  0
   23.5433  -23.9501  -14.1335 C   0  0  2  0  0  0  0  0  0  0  0  0
   24.5924  -23.2311  -14.8679 N   0  0  0  0  0  0  0  0  0  0  0  0
   23.5294  -25.3634  -14.4628 C   0  0  0  0  0  0  0  0  0  0  0  0
   24.1217  -25.8920  -15.4156 O   0  0  0  0  0  0  0  0  0  0  0  0
   22.7831  -26.2308  -13.6405 O   0  0  0  0  0  0  0  0  0  0  0  0
  1  2  1  0
  3  2  1  0
  4  3  1  0
  5  6  1  6
  5  7  1  0
  5  4  1  0
  7  8  2  0
 10  9  1  0
 11 10  1  1
 11 13  1  0
 12  7  1  0
 12 11  1  0
 13 14  2  0
 13 20  1  0
 15 16  1  0
 17 16  1  0
 18 17  1  0
 19 18  1  6
 20 19  1  0
 21 19  1  0
 21 23  1  0
 22 21  2  0
M  END
$$$$
