MSM.pdb
     RDKit          3D

 23 22  0  0  1  0  0  0  0  0999 V2000
   19.0210  -18.4156  -11.1276 C   0  0  0  0  0  0  0  0  0  0  0  0
   18.8554  -17.7007  -12.7732 S   0  0  0  0  0  0  0  0  0  0  0  0
   19.9014  -18.6354  -13.9212 C   0  0  0  0  0  0  0  0  0  0  0  0
   20.8190  -19.5554  -13.1111 C   0  0  0  0  0  0  0  0  0  0  0  0
   21.8488  -20.2006  -14.0482 C   0  0  2  0  0  0  0  0  0  0  0  0
   21.1218  -21.0782  -14.9498 N   0  0  0  0  0  0  0  0  0  0  0  0
   22.8332  -20.9176  -13.2349 C   0  0  0  0  0  0  0  0  0  0  0  0
   22.4177  -21.9250  -12.5878 O   0  0  0  0  0  0  0  0  0  0  0  0
   26.8522  -20.9995  -13.8559 O   0  0  0  0  0  0  0  0  0  0  0  0
   26.2007  -21.9873  -13.1347 C   0  0  0  0  0  0  0  0  0  0  0  0
   25.1446  -21.3250  -12.2751 C   0  0  2  0  0  0  0  0  0  0  0  0
   24.1941  -20.5958  -13.1032 N   0  0  0  0  0  0  0  0  0  0  0  0
   25.7385  -20.4401  -11.2453 C   0  0  0  0  0  0  0  0  0  0  0  0
   26.0197  -19.2492  -11.5873 O   0  0  0  0  0  0  0  0  0  0  0  0
   29.1784  -18.8167   -4.4198 C   0  0  0  0  0  0  0  0  0  0  0  0
   27.9035  -19.8479   -5.1836 S   0  0  0  0  0  0  0  0  0  0  0  0
   28.1864  -19.8066   -6.9924 C   0  0  0  0  0  0  0  0  0  0  0  0
   26.9998  -20.3591   -7.7272 C   0  0  0  0  0  0  0  0  0  0  0  0
   27.1983  -20.2869   -9.1957 C   0  0  2  0  0  0  0  0  0  0  0  0
   26.0221  -20.7960   -9.9127 N   0  0  0  0  0  0  0  0  0  0  0  0
   28.4184  -20.9393   -9.6337 C   0  0  0  0  0  0  0  0  0  0  0  0
   28.5674  -22.1584   -9.8057 O   0  0  0  0  0  0  0  0  0  0  0  0
   29.5467  -20.1357   -9.8924 O   0  0  0  0  0  0  0  0  0  0  0  0
  1  2  1  0
  3  2  1  0
  4  3  1  0
  5  6  1  6
  5  7  1  0
  5  4  1  0
  7  8  2  0
 10  9  1  0
 11 10  1  6
 11 13  1  0
 12  7  1  0
 12 11  1  0
 13 14  2  0
 13 20  1  0
 15 16  1  0
 17 16  1  0
 18 17  1  0
 19 18  1  1
 20 19  1  0
 21 19  1  0
 21 23  1  0
 22 21  2  0
M  END
$$$$
