MSM.pdb
     RDKit          3D

 23 22  0  0  1  0  0  0  0  0999 V2000
   34.1456   -8.9459  -15.8568 C   0  0  0  0  0  0  0  0  0  0  0  0
   34.8829  -10.0436  -17.0808 S   0  0  0  0  0  0  0  0  0  0  0  0
   33.7271  -11.3986  -17.4180 C   0  0  0  0  0  0  0  0  0  0  0  0
   32.4066  -10.8047  -17.9166 C   0  0  0  0  0  0  0  0  0  0  0  0
   31.3421  -11.9085  -17.9751 C   0  0  2  0  0  0  0  0  0  0  0  0
   31.7704  -12.8686  -18.9783 N   0  0  0  0  0  0  0  0  0  0  0  0
   30.0521  -11.2943  -18.2965 C   0  0  0  0  0  0  0  0  0  0  0  0
   29.8273  -11.0383  -19.5171 O   0  0  0  0  0  0  0  0  0  0  0  0
   27.3420  -10.3226  -15.4232 O   0  0  0  0  0  0  0  0  0  0  0  0
   26.7449  -10.5553  -16.6520 C   0  0  0  0  0  0  0  0  0  0  0  0
   27.7801  -10.3204  -17.7317 C   0  0  2  0  0  0  0  0  0  0  0  0
   29.0398  -10.9617  -17.3813 N   0  0  0  0  0  0  0  0  0  0  0  0
   27.9787   -8.8781  -18.0091 C   0  0  0  0  0  0  0  0  0  0  0  0
   28.7554   -8.2343  -17.2367 O   0  0  0  0  0  0  0  0  0  0  0  0
   31.7746   -4.5582  -20.8213 C   0  0  0  0  0  0  0  0  0  0  0  0
   30.1987   -4.6964  -21.6985 S   0  0  0  0  0  0  0  0  0  0  0  0
   28.9023   -4.9888  -20.4386 C   0  0  0  0  0  0  0  0  0  0  0  0
   28.6626   -6.4594  -20.2562 C   0  0  0  0  0  0  0  0  0  0  0  0
   27.6117   -6.7084  -19.2390 C   0  0  2  0  0  0  0  0  0  0  0  0
   27.3848   -8.1478  -19.0563 N   0  0  0  0  0  0  0  0  0  0  0  0
   26.3758   -6.0010  -19.5185 C   0  0  0  0  0  0  0  0  0  0  0  0
   25.3337   -6.5081  -19.9599 O   0  0  0  0  0  0  0  0  0  0  0  0
   26.3333   -4.6138  -19.2742 O   0  0  0  0  0  0  0  0  0  0  0  0
  1  2  1  0
  3  2  1  0
  4  3  1  0
  5  6  1  6
  5  7  1  0
  5  4  1  0
  7  8  2  0
 10  9  1  0
 11 10  1  1
 11 13  1  0
 12  7  1  0
 12 11  1  0
 13 14  2  0
 13 20  1  0
 15 16  1  0
 17 16  1  0
 18 17  1  0
 19 18  1  6
 20 19  1  0
 21 19  1  0
 21 23  1  0
 22 21  2  0
M  END
$$$$
