MSM.pdb
     RDKit          3D

 23 22  0  0  1  0  0  0  0  0999 V2000
   28.5139  -12.6538  -17.1527 C   0  0  0  0  0  0  0  0  0  0  0  0
   28.0312  -13.1371  -15.4854 S   0  0  0  0  0  0  0  0  0  0  0  0
   26.2831  -13.6160  -15.5018 C   0  0  0  0  0  0  0  0  0  0  0  0
   25.4493  -12.4147  -15.9563 C   0  0  0  0  0  0  0  0  0  0  0  0
   23.9850  -12.8438  -16.1188 C   0  0  2  0  0  0  0  0  0  0  0  0
   23.9450  -13.8573  -17.1593 N   0  0  0  0  0  0  0  0  0  0  0  0
   23.1878  -11.6613  -16.4522 C   0  0  0  0  0  0  0  0  0  0  0  0
   23.4379  -11.0944  -17.5576 O   0  0  0  0  0  0  0  0  0  0  0  0
   20.1351  -10.2449  -14.0706 O   0  0  0  0  0  0  0  0  0  0  0  0
   19.9982  -10.0082  -15.4292 C   0  0  0  0  0  0  0  0  0  0  0  0
   21.3831   -9.9294  -16.0364 C   0  0  2  0  0  0  0  0  0  0  0  0
   22.1723  -11.0953  -15.6639 N   0  0  0  0  0  0  0  0  0  0  0  0
   22.0827   -8.6759  -15.6680 C   0  0  0  0  0  0  0  0  0  0  0  0
   22.8698   -8.7152  -14.6713 O   0  0  0  0  0  0  0  0  0  0  0  0
   24.7259   -1.4231  -17.0699 C   0  0  0  0  0  0  0  0  0  0  0  0
   23.7953   -2.8144  -17.7557 S   0  0  0  0  0  0  0  0  0  0  0  0
   23.5650   -4.0293  -16.4050 C   0  0  0  0  0  0  0  0  0  0  0  0
   22.9169   -5.2806  -16.9225 C   0  0  0  0  0  0  0  0  0  0  0  0
   22.5874   -6.2104  -15.8143 C   0  0  2  0  0  0  0  0  0  0  0  0
   21.9583   -7.4359  -16.3234 N   0  0  0  0  0  0  0  0  0  0  0  0
   21.7889   -5.5890  -14.7740 C   0  0  0  0  0  0  0  0  0  0  0  0
   20.5550   -5.6560  -14.6692 O   0  0  0  0  0  0  0  0  0  0  0  0
   22.4537   -4.8378  -13.7842 O   0  0  0  0  0  0  0  0  0  0  0  0
  1  2  1  0
  3  2  1  0
  4  3  1  0
  5  6  1  6
  5  7  1  0
  5  4  1  0
  7  8  2  0
 10  9  1  0
 11 10  1  1
 11 13  1  0
 12  7  1  0
 12 11  1  0
 13 14  2  0
 13 20  1  0
 15 16  1  0
 17 16  1  0
 18 17  1  0
 19 18  1  6
 20 19  1  0
 21 19  1  0
 21 23  1  0
 22 21  2  0
M  END
$$$$
