MSM.pdb
     RDKit          3D

 23 22  0  0  1  0  0  0  0  0999 V2000
   25.1018  -26.0737  -15.0415 C   0  0  0  0  0  0  0  0  0  0  0  0
   25.8552  -24.8696  -16.1501 S   0  0  0  0  0  0  0  0  0  0  0  0
   24.5542  -23.7954  -16.8127 C   0  0  0  0  0  0  0  0  0  0  0  0
   23.7472  -23.2234  -15.6437 C   0  0  0  0  0  0  0  0  0  0  0  0
   22.3305  -23.8124  -15.6669 C   0  0  2  0  0  0  0  0  0  0  0  0
   21.7075  -23.3900  -16.9098 N   0  0  0  0  0  0  0  0  0  0  0  0
   21.6093  -23.3367  -14.4843 C   0  0  0  0  0  0  0  0  0  0  0  0
   22.1052  -23.6276  -13.3549 O   0  0  0  0  0  0  0  0  0  0  0  0
   17.9179  -21.5709  -14.6372 O   0  0  0  0  0  0  0  0  0  0  0  0
   18.7404  -21.0124  -13.6718 C   0  0  0  0  0  0  0  0  0  0  0  0
   19.7864  -22.0390  -13.2916 C   0  0  2  0  0  0  0  0  0  0  0  0
   20.4205  -22.5886  -14.4819 N   0  0  0  0  0  0  0  0  0  0  0  0
   19.2264  -23.1175  -12.4433 C   0  0  0  0  0  0  0  0  0  0  0  0
   18.8185  -24.1699  -13.0268 O   0  0  0  0  0  0  0  0  0  0  0  0
   17.7445  -26.5737   -5.5450 C   0  0  0  0  0  0  0  0  0  0  0  0
   18.4868  -25.1174   -6.3198 S   0  0  0  0  0  0  0  0  0  0  0  0
   17.9694  -25.1166   -8.0764 C   0  0  0  0  0  0  0  0  0  0  0  0
   18.7017  -24.0547   -8.8442 C   0  0  0  0  0  0  0  0  0  0  0  0
   18.3842  -24.1255  -10.2917 C   0  0  2  0  0  0  0  0  0  0  0  0
   19.1036  -23.0873  -11.0409 N   0  0  0  0  0  0  0  0  0  0  0  0
   16.9583  -24.0907  -10.5598 C   0  0  0  0  0  0  0  0  0  0  0  0
   16.2202  -25.0789  -10.6883 O   0  0  0  0  0  0  0  0  0  0  0  0
   16.3361  -22.8330  -10.6894 O   0  0  0  0  0  0  0  0  0  0  0  0
  1  2  1  0
  3  2  1  0
  4  3  1  0
  5  6  1  6
  5  7  1  0
  5  4  1  0
  7  8  2  0
 10  9  1  0
 11 10  1  6
 11 13  1  0
 12  7  1  0
 12 11  1  0
 13 14  2  0
 13 20  1  0
 15 16  1  0
 17 16  1  0
 18 17  1  0
 19 18  1  1
 20 19  1  0
 21 19  1  0
 21 23  1  0
 22 21  2  0
M  END
$$$$
