MSM.pdb
     RDKit          3D

 23 22  0  0  1  0  0  0  0  0999 V2000
   15.8856  -15.2308  -14.5495 C   0  0  0  0  0  0  0  0  0  0  0  0
   16.9938  -13.8103  -14.5233 S   0  0  0  0  0  0  0  0  0  0  0  0
   16.6793  -12.8002  -15.9951 C   0  0  0  0  0  0  0  0  0  0  0  0
   17.6334  -11.6026  -15.9815 C   0  0  0  0  0  0  0  0  0  0  0  0
   17.4221  -10.7691  -17.2525 C   0  0  2  0  0  0  0  0  0  0  0  0
   17.9091  -11.5575  -18.3718 N   0  0  0  0  0  0  0  0  0  0  0  0
   18.1388   -9.5008  -17.1018 C   0  0  0  0  0  0  0  0  0  0  0  0
   19.3371   -9.4670  -17.5128 O   0  0  0  0  0  0  0  0  0  0  0  0
   16.1998   -6.4926  -15.6942 O   0  0  0  0  0  0  0  0  0  0  0  0
   17.4158   -5.9346  -16.0554 C   0  0  0  0  0  0  0  0  0  0  0  0
   18.3487   -7.0569  -16.4590 C   0  0  2  0  0  0  0  0  0  0  0  0
   17.6251   -8.3179  -16.5451 N   0  0  0  0  0  0  0  0  0  0  0  0
   19.5092   -7.1731  -15.5447 C   0  0  0  0  0  0  0  0  0  0  0  0
   19.5794   -8.2114  -14.8157 O   0  0  0  0  0  0  0  0  0  0  0  0
   25.6161  -10.1965  -13.6987 C   0  0  0  0  0  0  0  0  0  0  0  0
   24.2885   -9.7730  -14.8521 S   0  0  0  0  0  0  0  0  0  0  0  0
   23.5846   -8.1741  -14.3027 C   0  0  0  0  0  0  0  0  0  0  0  0
   22.3803   -7.8152  -15.1238 C   0  0  0  0  0  0  0  0  0  0  0  0
   21.7855   -6.5340  -14.6700 C   0  0  2  0  0  0  0  0  0  0  0  0
   20.5506   -6.2355  -15.4068 N   0  0  0  0  0  0  0  0  0  0  0  0
   22.7223   -5.4268  -14.7208 C   0  0  0  0  0  0  0  0  0  0  0  0
   23.5623   -5.1470  -13.8524 O   0  0  0  0  0  0  0  0  0  0  0  0
   22.6927   -4.5814  -15.8478 O   0  0  0  0  0  0  0  0  0  0  0  0
  1  2  1  0
  3  2  1  0
  4  3  1  0
  5  6  1  6
  5  7  1  0
  5  4  1  0
  7  8  2  0
 10  9  1  0
 11 10  1  1
 11 13  1  0
 12  7  1  0
 12 11  1  0
 13 14  2  0
 13 20  1  0
 15 16  1  0
 17 16  1  0
 18 17  1  0
 19 18  1  6
 20 19  1  0
 21 19  1  0
 21 23  1  0
 22 21  2  0
M  END
$$$$
