MSM.pdb
     RDKit          3D

 23 22  0  0  1  0  0  0  0  0999 V2000
   26.3186  -16.9263  -17.6567 C   0  0  0  0  0  0  0  0  0  0  0  0
   27.4981  -16.3830  -16.4077 S   0  0  0  0  0  0  0  0  0  0  0  0
   28.2499  -17.8444  -15.6430 C   0  0  0  0  0  0  0  0  0  0  0  0
   27.1359  -18.7322  -15.0811 C   0  0  0  0  0  0  0  0  0  0  0  0
   27.7479  -20.0226  -14.5197 C   0  0  2  0  0  0  0  0  0  0  0  0
   28.2438  -20.7919  -15.6483 N   0  0  0  0  0  0  0  0  0  0  0  0
   26.7173  -20.7346  -13.7609 C   0  0  0  0  0  0  0  0  0  0  0  0
   25.9691  -21.5239  -14.4113 O   0  0  0  0  0  0  0  0  0  0  0  0
   24.2364  -21.3573   -9.6153 O   0  0  0  0  0  0  0  0  0  0  0  0
   25.4048  -20.9018  -10.2050 C   0  0  0  0  0  0  0  0  0  0  0  0
   25.3275  -21.1900  -11.6895 C   0  0  2  0  0  0  0  0  0  0  0  0
   26.4787  -20.6264  -12.3809 N   0  0  0  0  0  0  0  0  0  0  0  0
   24.0608  -20.7045  -12.2864 C   0  0  0  0  0  0  0  0  0  0  0  0
   23.9380  -19.4522  -12.4625 O   0  0  0  0  0  0  0  0  0  0  0  0
   21.5541  -21.7817  -17.7256 C   0  0  0  0  0  0  0  0  0  0  0  0
   19.9559  -21.6674  -16.8861 S   0  0  0  0  0  0  0  0  0  0  0  0
   20.2630  -20.9349  -15.2360 C   0  0  0  0  0  0  0  0  0  0  0  0
   21.5198  -21.4930  -14.6340 C   0  0  0  0  0  0  0  0  0  0  0  0
   21.7549  -20.9402  -13.2775 C   0  0  2  0  0  0  0  0  0  0  0  0
   22.9721  -21.5055  -12.6812 N   0  0  0  0  0  0  0  0  0  0  0  0
   20.6083  -21.0884  -12.4004 C   0  0  0  0  0  0  0  0  0  0  0  0
   20.5452  -21.8294  -11.4080 O   0  0  0  0  0  0  0  0  0  0  0  0
   19.4527  -20.3328  -12.6824 O   0  0  0  0  0  0  0  0  0  0  0  0
  1  2  1  0
  3  2  1  0
  4  3  1  0
  5  6  1  6
  5  7  1  0
  5  4  1  0
  7  8  2  0
 10  9  1  0
 11 10  1  1
 11 13  1  0
 12  7  1  0
 12 11  1  0
 13 14  2  0
 13 20  1  0
 15 16  1  0
 17 16  1  0
 18 17  1  0
 19 18  1  6
 20 19  1  0
 21 19  1  0
 21 23  1  0
 22 21  2  0
M  END
$$$$
