YIP.pdb
     RDKit          3D

 28 29  0  0  1  0  0  0  0  0999 V2000
    6.9201  -19.5971   17.1344 O   0  0  0  0  0  0  0  0  0  0  0  0
    7.4455  -19.0111   18.2965 C   0  0  0  0  0  0  0  0  0  0  0  0
    6.6558  -18.7506   19.3985 C   0  0  0  0  0  0  0  0  0  0  0  0
    7.1718  -18.1809   20.5254 C   0  0  0  0  0  0  0  0  0  0  0  0
    8.5176  -17.8599   20.5567 C   0  0  0  0  0  0  0  0  0  0  0  0
    9.0687  -17.2387   21.7925 C   0  0  0  0  0  0  0  0  0  0  0  0
    8.8382  -15.7397   21.6900 C   0  0  2  0  0  0  0  0  0  0  0  0
    9.6705  -15.1516   20.6799 N   0  0  0  0  0  0  0  0  0  0  0  0
    9.1068  -15.1359   22.9981 C   0  0  0  0  0  0  0  0  0  0  0  0
   10.2927  -14.7670   23.2254 O   0  0  0  0  0  0  0  0  0  0  0  0
    9.3548  -18.0987   19.4817 C   0  0  0  0  0  0  0  0  0  0  0  0
    8.7810  -18.6759   18.3691 C   0  0  0  0  0  0  0  0  0  0  0  0
    5.3037  -12.0929   25.5743 C   0  0  0  0  0  0  0  0  0  0  0  0
    6.6412  -12.6333   24.9841 C   0  0  0  0  0  0  0  0  0  0  0  0
    7.1156  -13.7758   25.8246 C   0  0  2  0  0  0  0  0  0  0  0  0
    7.2978  -13.3073   27.2572 C   0  0  0  0  0  0  0  0  0  0  0  0
    8.3251  -14.4310   25.2722 C   0  0  2  0  0  0  0  0  0  0  0  0
    8.0763  -14.9791   23.9534 N   0  0  0  0  0  0  0  0  0  0  0  0
    8.9781  -15.3980   26.1487 C   0  0  0  0  0  0  0  0  0  0  0  0
    8.6221  -16.6404   26.0114 O   0  0  0  0  0  0  0  0  0  0  0  0
    9.9533  -15.1858   27.1391 N   0  0  0  0  0  0  0  0  0  0  0  0
   10.3595  -13.9296   27.7165 C   0  0  0  0  0  0  0  0  0  0  0  0
   11.3107  -14.2858   28.8560 C   0  0  0  0  0  0  0  0  0  0  0  0
   11.9428  -15.5398   28.2857 C   0  0  0  0  0  0  0  0  0  0  0  0
   10.7422  -16.2570   27.7619 C   0  0  1  0  0  0  0  0  0  0  0  0
    9.9646  -16.9492   28.8094 C   0  0  0  0  0  0  0  0  0  0  0  0
   10.3782  -18.0985   29.4657 O   0  0  0  0  0  0  0  0  0  0  0  0
    8.8490  -16.4735   29.1378 O   0  0  0  0  0  0  0  0  0  0  0  0
  1  2  1  0
  2 12  2  0
  3  4  2  0
  3  2  1  0
  4  5  1  0
  5 11  2  0
  5  6  1  0
  7  6  1  0
  7  8  1  6
  9  7  1  0
  9 10  2  0
 12 11  1  0
 14 15  1  0
 14 13  1  0
 15 17  1  0
 15 16  1  1
 17 18  1  6
 17 19  1  0
 18  9  1  0
 19 21  1  0
 20 19  2  0
 21 25  1  0
 21 22  1  0
 23 22  1  0
 24 25  1  0
 24 23  1  0
 26 27  1  0
 25 26  1  1
 28 26  2  0
M  END
$$$$
