YIP.pdb
     RDKit          3D

 28 29  0  0  1  0  0  0  0  0999 V2000
   10.8629  -14.2223   30.6589 O   0  0  0  0  0  0  0  0  0  0  0  0
   10.4158  -15.2379   29.7995 C   0  0  0  0  0  0  0  0  0  0  0  0
    9.9322  -16.4371   30.2832 C   0  0  0  0  0  0  0  0  0  0  0  0
    9.4990  -17.4207   29.4432 C   0  0  0  0  0  0  0  0  0  0  0  0
    9.5488  -17.2039   28.0773 C   0  0  0  0  0  0  0  0  0  0  0  0
    9.0729  -18.2852   27.1712 C   0  0  0  0  0  0  0  0  0  0  0  0
    7.5805  -18.0826   26.9655 C   0  0  2  0  0  0  0  0  0  0  0  0
    6.9139  -19.3290   26.7183 N   0  0  0  0  0  0  0  0  0  0  0  0
    7.3852  -17.1599   25.8437 C   0  0  0  0  0  0  0  0  0  0  0  0
    7.0341  -17.6655   24.7414 O   0  0  0  0  0  0  0  0  0  0  0  0
   10.0237  -16.0219   27.5381 C   0  0  0  0  0  0  0  0  0  0  0  0
   10.4484  -15.0626   28.4323 C   0  0  0  0  0  0  0  0  0  0  0  0
    6.5088  -11.7024   26.9071 C   0  0  0  0  0  0  0  0  0  0  0  0
    6.2881  -13.1175   26.2922 C   0  0  0  0  0  0  0  0  0  0  0  0
    7.4292  -13.4325   25.3781 C   0  0  2  0  0  0  0  0  0  0  0  0
    7.4599  -12.4248   24.2428 C   0  0  0  0  0  0  0  0  0  0  0  0
    7.4141  -14.8370   24.9043 C   0  0  2  0  0  0  0  0  0  0  0  0
    7.5838  -15.7690   26.0016 N   0  0  0  0  0  0  0  0  0  0  0  0
    8.3072  -15.1396   23.7906 C   0  0  0  0  0  0  0  0  0  0  0  0
    9.5424  -15.4087   24.0923 O   0  0  0  0  0  0  0  0  0  0  0  0
    8.0291  -15.1852   22.4130 N   0  0  0  0  0  0  0  0  0  0  0  0
    6.8330  -14.7411   21.7436 C   0  0  0  0  0  0  0  0  0  0  0  0
    7.1273  -14.8552   20.2502 C   0  0  0  0  0  0  0  0  0  0  0  0
    8.0554  -16.0535   20.2582 C   0  0  0  0  0  0  0  0  0  0  0  0
    8.9535  -15.7168   21.4028 C   0  0  1  0  0  0  0  0  0  0  0  0
    9.9961  -14.7272   21.0636 C   0  0  0  0  0  0  0  0  0  0  0  0
   10.0129  -13.4165   21.5157 O   0  0  0  0  0  0  0  0  0  0  0  0
   10.9386  -15.0857   20.3142 O   0  0  0  0  0  0  0  0  0  0  0  0
  1  2  1  0
  2 12  2  0
  3  4  2  0
  3  2  1  0
  4  5  1  0
  5 11  2  0
  5  6  1  0
  7  6  1  0
  7  8  1  6
  9  7  1  0
  9 10  2  0
 12 11  1  0
 14 15  1  0
 14 13  1  0
 15 17  1  0
 15 16  1  6
 17 18  1  1
 17 19  1  0
 18  9  1  0
 19 21  1  0
 20 19  2  0
 21 25  1  0
 21 22  1  0
 23 22  1  0
 24 25  1  0
 24 23  1  0
 26 27  1  0
 25 26  1  6
 28 26  2  0
M  END
$$$$
