YIP.pdb
     RDKit          3D

 28 29  0  0  1  0  0  0  0  0999 V2000
   10.8862  -14.3672   30.7304 O   0  0  0  0  0  0  0  0  0  0  0  0
   10.4308  -15.3864   29.8796 C   0  0  0  0  0  0  0  0  0  0  0  0
    9.8881  -16.5556   30.3739 C   0  0  0  0  0  0  0  0  0  0  0  0
    9.4471  -17.5430   29.5424 C   0  0  0  0  0  0  0  0  0  0  0  0
    9.5495  -17.3607   28.1743 C   0  0  0  0  0  0  0  0  0  0  0  0
    9.0645  -18.4457   27.2775 C   0  0  0  0  0  0  0  0  0  0  0  0
    7.5786  -18.2186   27.0508 C   0  0  2  0  0  0  0  0  0  0  0  0
    6.9014  -19.4492   26.7576 N   0  0  0  0  0  0  0  0  0  0  0  0
    7.4150  -17.2631   25.9516 C   0  0  0  0  0  0  0  0  0  0  0  0
    7.0946  -17.7358   24.8256 O   0  0  0  0  0  0  0  0  0  0  0  0
   10.0846  -16.2097   27.6247 C   0  0  0  0  0  0  0  0  0  0  0  0
   10.5145  -15.2450   28.5107 C   0  0  0  0  0  0  0  0  0  0  0  0
    6.7018  -11.8771   27.2898 C   0  0  0  0  0  0  0  0  0  0  0  0
    6.3962  -13.2289   26.5766 C   0  0  0  0  0  0  0  0  0  0  0  0
    7.4921  -13.5215   25.6019 C   0  0  2  0  0  0  0  0  0  0  0  0
    7.4764  -12.4804   24.4969 C   0  0  0  0  0  0  0  0  0  0  0  0
    7.4467  -14.9111   25.0877 C   0  0  2  0  0  0  0  0  0  0  0  0
    7.6098  -15.8777   26.1557 N   0  0  0  0  0  0  0  0  0  0  0  0
    8.3234  -15.1972   23.9567 C   0  0  0  0  0  0  0  0  0  0  0  0
    9.5629  -15.4705   24.2363 O   0  0  0  0  0  0  0  0  0  0  0  0
    8.0252  -15.2225   22.5828 N   0  0  0  0  0  0  0  0  0  0  0  0
    6.8615  -14.6824   21.9268 C   0  0  0  0  0  0  0  0  0  0  0  0
    7.1267  -14.8236   20.4303 C   0  0  0  0  0  0  0  0  0  0  0  0
    7.9526  -16.0944   20.4305 C   0  0  0  0  0  0  0  0  0  0  0  0
    8.8898  -15.8307   21.5629 C   0  0  1  0  0  0  0  0  0  0  0  0
   10.0062  -14.9314   21.2078 C   0  0  0  0  0  0  0  0  0  0  0  0
   10.0750  -13.5898   21.5516 O   0  0  0  0  0  0  0  0  0  0  0  0
   10.9663  -15.4026   20.5485 O   0  0  0  0  0  0  0  0  0  0  0  0
  1  2  1  0
  2 12  2  0
  3  4  2  0
  3  2  1  0
  4  5  1  0
  5 11  2  0
  5  6  1  0
  7  6  1  0
  7  8  1  6
  9  7  1  0
  9 10  2  0
 12 11  1  0
 14 15  1  0
 14 13  1  0
 15 17  1  0
 15 16  1  6
 17 18  1  1
 17 19  1  0
 18  9  1  0
 19 21  1  0
 20 19  2  0
 21 25  1  0
 21 22  1  0
 23 22  1  0
 24 25  1  0
 24 23  1  0
 26 27  1  0
 25 26  1  6
 28 26  2  0
M  END
$$$$
