YIP.pdb
     RDKit          3D

 28 29  0  0  1  0  0  0  0  0999 V2000
   10.6851  -15.4293   31.5627 O   0  0  0  0  0  0  0  0  0  0  0  0
   10.2636  -16.1459   30.4318 C   0  0  0  0  0  0  0  0  0  0  0  0
   10.0347  -15.5223   29.2215 C   0  0  0  0  0  0  0  0  0  0  0  0
    9.6251  -16.2238   28.1257 C   0  0  0  0  0  0  0  0  0  0  0  0
    9.4372  -17.5903   28.2379 C   0  0  0  0  0  0  0  0  0  0  0  0
    8.9903  -18.3446   27.0345 C   0  0  0  0  0  0  0  0  0  0  0  0
    7.4934  -18.1233   26.8887 C   0  0  2  0  0  0  0  0  0  0  0  0
    6.8073  -19.3551   26.6226 N   0  0  0  0  0  0  0  0  0  0  0  0
    7.2673  -17.1607   25.8070 C   0  0  0  0  0  0  0  0  0  0  0  0
    6.8524  -17.6225   24.7076 O   0  0  0  0  0  0  0  0  0  0  0  0
    9.6517  -18.2661   29.4256 C   0  0  0  0  0  0  0  0  0  0  0  0
   10.0645  -17.5085   30.5007 C   0  0  0  0  0  0  0  0  0  0  0  0
    6.7918  -11.6969   27.0314 C   0  0  0  0  0  0  0  0  0  0  0  0
    6.4227  -13.0450   26.3416 C   0  0  0  0  0  0  0  0  0  0  0  0
    7.5259  -13.4302   25.4082 C   0  0  2  0  0  0  0  0  0  0  0  0
    7.6174  -12.4110   24.2866 C   0  0  0  0  0  0  0  0  0  0  0  0
    7.4006  -14.8226   24.9153 C   0  0  2  0  0  0  0  0  0  0  0  0
    7.5064  -15.7804   25.9984 N   0  0  0  0  0  0  0  0  0  0  0  0
    8.2603  -15.1764   23.7905 C   0  0  0  0  0  0  0  0  0  0  0  0
    9.4582  -15.5884   24.0812 O   0  0  0  0  0  0  0  0  0  0  0  0
    7.9844  -15.1385   22.4123 N   0  0  0  0  0  0  0  0  0  0  0  0
    6.8448  -14.5440   21.7610 C   0  0  0  0  0  0  0  0  0  0  0  0
    7.1313  -14.6306   20.2642 C   0  0  0  0  0  0  0  0  0  0  0  0
    7.9267  -15.9202   20.2251 C   0  0  0  0  0  0  0  0  0  0  0  0
    8.8511  -15.7257   21.3818 C   0  0  1  0  0  0  0  0  0  0  0  0
    9.9942  -14.8401   21.0814 C   0  0  0  0  0  0  0  0  0  0  0  0
   11.1315  -15.2310   20.3912 O   0  0  0  0  0  0  0  0  0  0  0  0
    9.9448  -13.6473   21.4730 O   0  0  0  0  0  0  0  0  0  0  0  0
  1  2  1  0
  2 12  2  0
  3  4  2  0
  3  2  1  0
  4  5  1  0
  5 11  2  0
  5  6  1  0
  7  6  1  0
  7  8  1  6
  9  7  1  0
  9 10  2  0
 12 11  1  0
 14 15  1  0
 14 13  1  0
 15 17  1  0
 15 16  1  6
 17 18  1  1
 17 19  1  0
 18  9  1  0
 19 21  1  0
 20 19  2  0
 21 25  1  0
 21 22  1  0
 23 22  1  0
 24 25  1  0
 24 23  1  0
 26 27  1  0
 25 26  1  6
 28 26  2  0
M  END
$$$$
