YIP.pdb
     RDKit          3D

 28 29  0  0  1  0  0  0  0  0999 V2000
    6.7186  -18.9178   16.8695 O   0  0  0  0  0  0  0  0  0  0  0  0
    7.1998  -18.4454   18.1004 C   0  0  0  0  0  0  0  0  0  0  0  0
    6.3512  -18.1719   19.1545 C   0  0  0  0  0  0  0  0  0  0  0  0
    6.8245  -17.7129   20.3487 C   0  0  0  0  0  0  0  0  0  0  0  0
    8.1867  -17.5199   20.4988 C   0  0  0  0  0  0  0  0  0  0  0  0
    8.6906  -17.0187   21.8071 C   0  0  0  0  0  0  0  0  0  0  0  0
    8.7363  -15.5015   21.7262 C   0  0  2  0  0  0  0  0  0  0  0  0
    9.6763  -15.0598   20.7360 N   0  0  0  0  0  0  0  0  0  0  0  0
    9.0901  -14.9743   23.0471 C   0  0  0  0  0  0  0  0  0  0  0  0
   10.3132  -14.7497   23.2648 O   0  0  0  0  0  0  0  0  0  0  0  0
    9.0821  -17.7776   19.4764 C   0  0  0  0  0  0  0  0  0  0  0  0
    8.5496  -18.2394   18.2917 C   0  0  0  0  0  0  0  0  0  0  0  0
    5.5400  -11.8464   25.9958 C   0  0  0  0  0  0  0  0  0  0  0  0
    6.7959  -12.4222   25.2745 C   0  0  0  0  0  0  0  0  0  0  0  0
    7.2711  -13.6298   26.0179 C   0  0  2  0  0  0  0  0  0  0  0  0
    7.5414  -13.2580   27.4649 C   0  0  0  0  0  0  0  0  0  0  0  0
    8.4275  -14.2877   25.3643 C   0  0  2  0  0  0  0  0  0  0  0  0
    8.0974  -14.7323   24.0244 N   0  0  0  0  0  0  0  0  0  0  0  0
    9.0812  -15.3368   26.1398 C   0  0  0  0  0  0  0  0  0  0  0  0
    8.6861  -16.5551   25.9190 O   0  0  0  0  0  0  0  0  0  0  0  0
   10.0938  -15.2280   27.1093 N   0  0  0  0  0  0  0  0  0  0  0  0
   10.5682  -14.0290   27.7526 C   0  0  0  0  0  0  0  0  0  0  0  0
   11.5381  -14.4957   28.8350 C   0  0  0  0  0  0  0  0  0  0  0  0
   12.1009  -15.7332   28.1649 C   0  0  0  0  0  0  0  0  0  0  0  0
   10.8568  -16.3675   27.6358 C   0  0  1  0  0  0  0  0  0  0  0  0
   10.0835  -17.0961   28.6616 C   0  0  0  0  0  0  0  0  0  0  0  0
   10.4714  -18.2992   29.2315 O   0  0  0  0  0  0  0  0  0  0  0  0
    8.9970  -16.6019   29.0536 O   0  0  0  0  0  0  0  0  0  0  0  0
  1  2  1  0
  2 12  2  0
  3  4  2  0
  3  2  1  0
  4  5  1  0
  5 11  2  0
  5  6  1  0
  7  6  1  0
  7  8  1  6
  9  7  1  0
  9 10  2  0
 12 11  1  0
 14 15  1  0
 14 13  1  0
 15 17  1  0
 15 16  1  1
 17 18  1  6
 17 19  1  0
 18  9  1  0
 19 21  1  0
 20 19  2  0
 21 25  1  0
 21 22  1  0
 23 22  1  0
 24 25  1  0
 24 23  1  0
 26 27  1  0
 25 26  1  1
 28 26  2  0
M  END
$$$$
