YIP.pdb
     RDKit          3D

 28 29  0  0  1  0  0  0  0  0999 V2000
    7.9041  -22.4526   28.1916 O   0  0  0  0  0  0  0  0  0  0  0  0
    8.3798  -21.2252   27.7045 C   0  0  0  0  0  0  0  0  0  0  0  0
    7.5838  -20.3863   26.9505 C   0  0  0  0  0  0  0  0  0  0  0  0
    8.0514  -19.1945   26.4796 C   0  0  0  0  0  0  0  0  0  0  0  0
    9.3536  -18.8256   26.7685 C   0  0  0  0  0  0  0  0  0  0  0  0
    9.8519  -17.5223   26.2489 C   0  0  0  0  0  0  0  0  0  0  0  0
   10.0742  -17.6835   24.7538 C   0  0  2  0  0  0  0  0  0  0  0  0
   11.3712  -18.2303   24.4750 N   0  0  0  0  0  0  0  0  0  0  0  0
    9.9163  -16.3741   24.1148 C   0  0  0  0  0  0  0  0  0  0  0  0
   10.9386  -15.6349   24.0646 O   0  0  0  0  0  0  0  0  0  0  0  0
   10.1947  -19.6271   27.5191 C   0  0  0  0  0  0  0  0  0  0  0  0
    9.6708  -20.8200   27.9694 C   0  0  0  0  0  0  0  0  0  0  0  0
    7.8207  -14.1796   19.7016 C   0  0  0  0  0  0  0  0  0  0  0  0
    8.5763  -14.5119   21.0237 C   0  0  0  0  0  0  0  0  0  0  0  0
    7.6591  -14.2711   22.1802 C   0  0  2  0  0  0  0  0  0  0  0  0
    7.1073  -12.8588   22.1016 C   0  0  0  0  0  0  0  0  0  0  0  0
    8.2913  -14.5729   23.4865 C   0  0  2  0  0  0  0  0  0  0  0  0
    8.6707  -15.9688   23.5825 N   0  0  0  0  0  0  0  0  0  0  0  0
    7.5549  -14.1272   24.6649 C   0  0  0  0  0  0  0  0  0  0  0  0
    6.7109  -14.9724   25.1773 O   0  0  0  0  0  0  0  0  0  0  0  0
    7.6207  -12.8977   25.3440 N   0  0  0  0  0  0  0  0  0  0  0  0
    8.3890  -11.7341   24.9807 C   0  0  0  0  0  0  0  0  0  0  0  0
    7.9604  -10.6356   25.9500 C   0  0  0  0  0  0  0  0  0  0  0  0
    7.6645  -11.4727   27.1784 C   0  0  0  0  0  0  0  0  0  0  0  0
    6.8871  -12.5991   26.5810 C   0  0  1  0  0  0  0  0  0  0  0  0
    5.4791  -12.2579   26.2945 C   0  0  0  0  0  0  0  0  0  0  0  0
    4.4815  -12.1657   27.2532 O   0  0  0  0  0  0  0  0  0  0  0  0
    5.1495  -12.0332   25.1031 O   0  0  0  0  0  0  0  0  0  0  0  0
  1  2  1  0
  2 12  2  0
  3  4  2  0
  3  2  1  0
  4  5  1  0
  5 11  2  0
  5  6  1  0
  7  6  1  0
  7  8  1  1
  9  7  1  0
  9 10  2  0
 12 11  1  0
 14 15  1  0
 14 13  1  0
 15 17  1  0
 15 16  1  1
 17 18  1  1
 17 19  1  0
 18  9  1  0
 19 21  1  0
 20 19  2  0
 21 25  1  0
 21 22  1  0
 23 22  1  0
 24 25  1  0
 24 23  1  0
 26 27  1  0
 25 26  1  6
 28 26  2  0
M  END
$$$$
