YIP.pdb
     RDKit          3D

 28 29  0  0  1  0  0  0  0  0999 V2000
    6.4081  -19.7913   17.5990 O   0  0  0  0  0  0  0  0  0  0  0  0
    7.0530  -19.1247   18.6525 C   0  0  0  0  0  0  0  0  0  0  0  0
    6.6081  -19.2258   19.9555 C   0  0  0  0  0  0  0  0  0  0  0  0
    7.2389  -18.5758   20.9755 C   0  0  0  0  0  0  0  0  0  0  0  0
    8.3485  -17.7998   20.6894 C   0  0  0  0  0  0  0  0  0  0  0  0
    9.0280  -17.0956   21.8115 C   0  0  0  0  0  0  0  0  0  0  0  0
    8.6439  -15.6273   21.7265 C   0  0  2  0  0  0  0  0  0  0  0  0
    9.3237  -14.9717   20.6461 N   0  0  0  0  0  0  0  0  0  0  0  0
    8.9648  -14.9863   23.0048 C   0  0  0  0  0  0  0  0  0  0  0  0
   10.1391  -14.5441   23.1443 O   0  0  0  0  0  0  0  0  0  0  0  0
    8.8373  -17.6632   19.4027 C   0  0  0  0  0  0  0  0  0  0  0  0
    8.1618  -18.3416   18.4108 C   0  0  0  0  0  0  0  0  0  0  0  0
    5.3380  -11.9802   25.8082 C   0  0  0  0  0  0  0  0  0  0  0  0
    6.6141  -12.5571   25.1240 C   0  0  0  0  0  0  0  0  0  0  0  0
    7.1456  -13.6797   25.9570 C   0  0  2  0  0  0  0  0  0  0  0  0
    7.4241  -13.1777   27.3626 C   0  0  0  0  0  0  0  0  0  0  0  0
    8.3155  -14.3485   25.3395 C   0  0  2  0  0  0  0  0  0  0  0  0
    7.9946  -14.8742   24.0271 N   0  0  0  0  0  0  0  0  0  0  0  0
    8.9915  -15.3386   26.1716 C   0  0  0  0  0  0  0  0  0  0  0  0
    8.6492  -16.5796   25.9931 O   0  0  0  0  0  0  0  0  0  0  0  0
    9.9768  -15.1504   27.1570 N   0  0  0  0  0  0  0  0  0  0  0  0
   10.3793  -13.9103   27.7707 C   0  0  0  0  0  0  0  0  0  0  0  0
   11.3469  -14.2953   28.8866 C   0  0  0  0  0  0  0  0  0  0  0  0
   11.9827  -15.5243   28.2680 C   0  0  0  0  0  0  0  0  0  0  0  0
   10.7821  -16.2345   27.7350 C   0  0  1  0  0  0  0  0  0  0  0  0
   10.0228  -16.9675   28.7681 C   0  0  0  0  0  0  0  0  0  0  0  0
   10.4463  -18.1431   29.3692 O   0  0  0  0  0  0  0  0  0  0  0  0
    8.9148  -16.5038   29.1367 O   0  0  0  0  0  0  0  0  0  0  0  0
  1  2  1  0
  2 12  2  0
  3  4  2  0
  3  2  1  0
  4  5  1  0
  5 11  2  0
  5  6  1  0
  7  6  1  0
  7  8  1  6
  9  7  1  0
  9 10  2  0
 12 11  1  0
 14 15  1  0
 14 13  1  0
 15 17  1  0
 15 16  1  1
 17 18  1  6
 17 19  1  0
 18  9  1  0
 19 21  1  0
 20 19  2  0
 21 25  1  0
 21 22  1  0
 23 22  1  0
 24 25  1  0
 24 23  1  0
 26 27  1  0
 25 26  1  1
 28 26  2  0
M  END
$$$$
