YIP.pdb
     RDKit          3D

 28 29  0  0  1  0  0  0  0  0999 V2000
   11.5789  -16.0191   31.4053 O   0  0  0  0  0  0  0  0  0  0  0  0
   10.9339  -16.5318   30.2690 C   0  0  0  0  0  0  0  0  0  0  0  0
   10.8181  -15.7961   29.1065 C   0  0  0  0  0  0  0  0  0  0  0  0
   10.1901  -16.2995   28.0052 C   0  0  0  0  0  0  0  0  0  0  0  0
    9.6601  -17.5766   28.0625 C   0  0  0  0  0  0  0  0  0  0  0  0
    8.9774  -18.1146   26.8537 C   0  0  0  0  0  0  0  0  0  0  0  0
    7.4868  -17.8717   27.0270 C   0  0  2  0  0  0  0  0  0  0  0  0
    6.7497  -19.1022   26.9884 N   0  0  0  0  0  0  0  0  0  0  0  0
    7.0357  -16.9647   25.9679 C   0  0  0  0  0  0  0  0  0  0  0  0
    6.4132  -17.4815   24.9987 O   0  0  0  0  0  0  0  0  0  0  0  0
    9.7474  -18.3576   29.2009 C   0  0  0  0  0  0  0  0  0  0  0  0
   10.3921  -17.7996   30.2840 C   0  0  0  0  0  0  0  0  0  0  0  0
    6.3791  -11.5296   26.8523 C   0  0  0  0  0  0  0  0  0  0  0  0
    6.0663  -12.9119   26.2037 C   0  0  0  0  0  0  0  0  0  0  0  0
    7.1836  -13.2779   25.2794 C   0  0  2  0  0  0  0  0  0  0  0  0
    7.1823  -12.3368   24.0880 C   0  0  0  0  0  0  0  0  0  0  0  0
    7.1590  -14.7072   24.8872 C   0  0  2  0  0  0  0  0  0  0  0  0
    7.2920  -15.5762   26.0400 N   0  0  0  0  0  0  0  0  0  0  0  0
    8.0715  -15.0853   23.8130 C   0  0  0  0  0  0  0  0  0  0  0  0
    9.2727  -15.4339   24.1660 O   0  0  0  0  0  0  0  0  0  0  0  0
    7.8443  -15.1307   22.4261 N   0  0  0  0  0  0  0  0  0  0  0  0
    6.6780  -14.6765   21.7121 C   0  0  0  0  0  0  0  0  0  0  0  0
    7.0266  -14.7960   20.2308 C   0  0  0  0  0  0  0  0  0  0  0  0
    7.9423  -16.0029   20.2749 C   0  0  0  0  0  0  0  0  0  0  0  0
    8.8006  -15.6726   21.4516 C   0  0  1  0  0  0  0  0  0  0  0  0
    9.8642  -14.6934   21.1500 C   0  0  0  0  0  0  0  0  0  0  0  0
   11.0616  -15.0015   20.5223 O   0  0  0  0  0  0  0  0  0  0  0  0
    9.6836  -13.4947   21.4800 O   0  0  0  0  0  0  0  0  0  0  0  0
  1  2  1  0
  2 12  2  0
  3  4  2  0
  3  2  1  0
  4  5  1  0
  5 11  2  0
  5  6  1  0
  7  6  1  0
  7  8  1  6
  9  7  1  0
  9 10  2  0
 12 11  1  0
 14 15  1  0
 14 13  1  0
 15 17  1  0
 15 16  1  6
 17 18  1  1
 17 19  1  0
 18  9  1  0
 19 21  1  0
 20 19  2  0
 21 25  1  0
 21 22  1  0
 23 22  1  0
 24 25  1  0
 24 23  1  0
 26 27  1  0
 25 26  1  6
 28 26  2  0
M  END
$$$$
