YIP.pdb
     RDKit          3D

 28 29  0  0  1  0  0  0  0  0999 V2000
   11.5736  -15.2789   31.6194 O   0  0  0  0  0  0  0  0  0  0  0  0
   11.0148  -15.8906   30.4864 C   0  0  0  0  0  0  0  0  0  0  0  0
   10.6274  -15.1572   29.3828 C   0  0  0  0  0  0  0  0  0  0  0  0
   10.0848  -15.7571   28.2843 C   0  0  0  0  0  0  0  0  0  0  0  0
    9.9227  -17.1314   28.2841 C   0  0  0  0  0  0  0  0  0  0  0  0
    9.3295  -17.7740   27.0791 C   0  0  0  0  0  0  0  0  0  0  0  0
    7.8217  -17.6028   27.1677 C   0  0  2  0  0  0  0  0  0  0  0  0
    7.1521  -18.8719   27.1779 N   0  0  0  0  0  0  0  0  0  0  0  0
    7.3766  -16.7919   26.0309 C   0  0  0  0  0  0  0  0  0  0  0  0
    6.7237  -17.3837   25.1268 O   0  0  0  0  0  0  0  0  0  0  0  0
   10.2932  -17.9149   29.3622 C   0  0  0  0  0  0  0  0  0  0  0  0
   10.8360  -17.2571   30.4453 C   0  0  0  0  0  0  0  0  0  0  0  0
    6.4629  -11.3339   26.4659 C   0  0  0  0  0  0  0  0  0  0  0  0
    6.2802  -12.8173   26.0237 C   0  0  0  0  0  0  0  0  0  0  0  0
    7.3745  -13.1773   25.0699 C   0  0  2  0  0  0  0  0  0  0  0  0
    7.2622  -12.3164   23.8243 C   0  0  0  0  0  0  0  0  0  0  0  0
    7.4184  -14.6279   24.7681 C   0  0  2  0  0  0  0  0  0  0  0  0
    7.6711  -15.4108   25.9618 N   0  0  0  0  0  0  0  0  0  0  0  0
    8.2909  -15.0196   23.6660 C   0  0  0  0  0  0  0  0  0  0  0  0
    9.5247  -15.2930   23.9698 O   0  0  0  0  0  0  0  0  0  0  0  0
    7.9940  -15.1489   22.2977 N   0  0  0  0  0  0  0  0  0  0  0  0
    6.7702  -14.7899   21.6270 C   0  0  0  0  0  0  0  0  0  0  0  0
    7.0462  -14.9703   20.1367 C   0  0  0  0  0  0  0  0  0  0  0  0
    8.0236  -16.1275   20.1906 C   0  0  0  0  0  0  0  0  0  0  0  0
    8.9243  -15.6945   21.3004 C   0  0  1  0  0  0  0  0  0  0  0  0
    9.9192  -14.6823   20.8922 C   0  0  0  0  0  0  0  0  0  0  0  0
   11.1325  -14.9718   20.2866 O   0  0  0  0  0  0  0  0  0  0  0  0
    9.6600  -13.4711   21.1028 O   0  0  0  0  0  0  0  0  0  0  0  0
  1  2  1  0
  2 12  2  0
  3  4  2  0
  3  2  1  0
  4  5  1  0
  5 11  2  0
  5  6  1  0
  7  6  1  0
  7  8  1  6
  9  7  1  0
  9 10  2  0
 12 11  1  0
 14 15  1  0
 14 13  1  0
 15 17  1  0
 15 16  1  6
 17 18  1  1
 17 19  1  0
 18  9  1  0
 19 21  1  0
 20 19  2  0
 21 25  1  0
 21 22  1  0
 23 22  1  0
 24 25  1  0
 24 23  1  0
 26 27  1  0
 25 26  1  6
 28 26  2  0
M  END
$$$$
