YIP.pdb
     RDKit          3D

 28 29  0  0  1  0  0  0  0  0999 V2000
   11.0403  -14.0925   29.9137 O   0  0  0  0  0  0  0  0  0  0  0  0
   10.4553  -15.2070   29.2926 C   0  0  0  0  0  0  0  0  0  0  0  0
   10.6456  -15.4732   27.9513 C   0  0  0  0  0  0  0  0  0  0  0  0
   10.0745  -16.5578   27.3529 C   0  0  0  0  0  0  0  0  0  0  0  0
    9.2885  -17.4052   28.1140 C   0  0  0  0  0  0  0  0  0  0  0  0
    8.6710  -18.5856   27.4491 C   0  0  0  0  0  0  0  0  0  0  0  0
    7.2308  -18.2234   27.1246 C   0  0  2  0  0  0  0  0  0  0  0  0
    6.4635  -19.3877   26.7858 N   0  0  0  0  0  0  0  0  0  0  0  0
    7.2293  -17.2626   26.0179 C   0  0  0  0  0  0  0  0  0  0  0  0
    7.1263  -17.7339   24.8512 O   0  0  0  0  0  0  0  0  0  0  0  0
    9.0642  -17.1866   29.4613 C   0  0  0  0  0  0  0  0  0  0  0  0
    9.6652  -16.0762   30.0146 C   0  0  0  0  0  0  0  0  0  0  0  0
    6.3763  -11.7730   27.1835 C   0  0  0  0  0  0  0  0  0  0  0  0
    6.1683  -13.1819   26.5502 C   0  0  0  0  0  0  0  0  0  0  0  0
    7.3572  -13.5145   25.7061 C   0  0  2  0  0  0  0  0  0  0  0  0
    7.5064  -12.4733   24.6112 C   0  0  0  0  0  0  0  0  0  0  0  0
    7.3203  -14.9014   25.1839 C   0  0  2  0  0  0  0  0  0  0  0  0
    7.3387  -15.8738   26.2590 N   0  0  0  0  0  0  0  0  0  0  0  0
    8.3008  -15.2153   24.1497 C   0  0  0  0  0  0  0  0  0  0  0  0
    9.4838  -15.5668   24.5574 O   0  0  0  0  0  0  0  0  0  0  0  0
    8.1576  -15.1949   22.7511 N   0  0  0  0  0  0  0  0  0  0  0  0
    7.0847  -14.6111   21.9867 C   0  0  0  0  0  0  0  0  0  0  0  0
    7.5128  -14.7153   20.5253 C   0  0  0  0  0  0  0  0  0  0  0  0
    8.3099  -16.0033   20.5783 C   0  0  0  0  0  0  0  0  0  0  0  0
    9.1194  -15.7925   21.8153 C   0  0  1  0  0  0  0  0  0  0  0  0
   10.2849  -14.9079   21.6144 C   0  0  0  0  0  0  0  0  0  0  0  0
   11.5018  -15.3175   21.0910 O   0  0  0  0  0  0  0  0  0  0  0  0
   10.1790  -13.6981   21.9360 O   0  0  0  0  0  0  0  0  0  0  0  0
  1  2  1  0
  2 12  2  0
  3  4  2  0
  3  2  1  0
  4  5  1  0
  5 11  2  0
  5  6  1  0
  7  6  1  0
  7  8  1  6
  9  7  1  0
  9 10  2  0
 12 11  1  0
 14 15  1  0
 14 13  1  0
 15 17  1  0
 15 16  1  6
 17 18  1  1
 17 19  1  0
 18  9  1  0
 19 21  1  0
 20 19  2  0
 21 25  1  0
 21 22  1  0
 23 22  1  0
 24 25  1  0
 24 23  1  0
 26 27  1  0
 25 26  1  6
 28 26  2  0
M  END
$$$$
