YIP.pdb
     RDKit          3D

 28 29  0  0  1  0  0  0  0  0999 V2000
    7.0881  -20.0820   17.4312 O   0  0  0  0  0  0  0  0  0  0  0  0
    7.6245  -19.3816   18.5228 C   0  0  0  0  0  0  0  0  0  0  0  0
    8.8360  -18.7249   18.4391 C   0  0  0  0  0  0  0  0  0  0  0  0
    9.3525  -18.0456   19.5034 C   0  0  0  0  0  0  0  0  0  0  0  0
    8.6401  -18.0190   20.6895 C   0  0  0  0  0  0  0  0  0  0  0  0
    9.2145  -17.2741   21.8436 C   0  0  0  0  0  0  0  0  0  0  0  0
    8.6919  -15.8485   21.7707 C   0  0  2  0  0  0  0  0  0  0  0  0
    9.2507  -15.1445   20.6521 N   0  0  0  0  0  0  0  0  0  0  0  0
    9.0184  -15.1671   23.0265 C   0  0  0  0  0  0  0  0  0  0  0  0
   10.1580  -14.6298   23.1064 O   0  0  0  0  0  0  0  0  0  0  0  0
    7.4219  -18.6592   20.8292 C   0  0  0  0  0  0  0  0  0  0  0  0
    6.9470  -19.3302   19.7226 C   0  0  0  0  0  0  0  0  0  0  0  0
    5.4102  -12.0935   25.5959 C   0  0  0  0  0  0  0  0  0  0  0  0
    6.7149  -12.6960   24.9926 C   0  0  0  0  0  0  0  0  0  0  0  0
    7.2214  -13.7673   25.9050 C   0  0  2  0  0  0  0  0  0  0  0  0
    7.4737  -13.1802   27.2822 C   0  0  0  0  0  0  0  0  0  0  0  0
    8.3996  -14.4794   25.3553 C   0  0  2  0  0  0  0  0  0  0  0  0
    8.0906  -15.1205   24.0923 N   0  0  0  0  0  0  0  0  0  0  0  0
    9.0768  -15.3878   26.2750 C   0  0  0  0  0  0  0  0  0  0  0  0
    8.7255  -16.6379   26.2217 O   0  0  0  0  0  0  0  0  0  0  0  0
   10.0716  -15.1107   27.2293 N   0  0  0  0  0  0  0  0  0  0  0  0
   10.4614  -13.8219   27.7425 C   0  0  0  0  0  0  0  0  0  0  0  0
   11.4499  -14.1068   28.8701 C   0  0  0  0  0  0  0  0  0  0  0  0
   12.0980  -15.3686   28.3363 C   0  0  0  0  0  0  0  0  0  0  0  0
   10.9024  -16.1355   27.8752 C   0  0  1  0  0  0  0  0  0  0  0  0
   10.1692  -16.8007   28.9711 C   0  0  0  0  0  0  0  0  0  0  0  0
   10.6227  -17.9176   29.6563 O   0  0  0  0  0  0  0  0  0  0  0  0
    9.0559  -16.3314   29.3160 O   0  0  0  0  0  0  0  0  0  0  0  0
  1  2  1  0
  2 12  2  0
  3  4  2  0
  3  2  1  0
  4  5  1  0
  5 11  2  0
  5  6  1  0
  7  6  1  0
  7  8  1  6
  9  7  1  0
  9 10  2  0
 12 11  1  0
 14 15  1  0
 14 13  1  0
 15 17  1  0
 15 16  1  1
 17 18  1  6
 17 19  1  0
 18  9  1  0
 19 21  1  0
 20 19  2  0
 21 25  1  0
 21 22  1  0
 23 22  1  0
 24 25  1  0
 24 23  1  0
 26 27  1  0
 25 26  1  1
 28 26  2  0
M  END
$$$$
