YIP.pdb
     RDKit          3D

 28 29  0  0  1  0  0  0  0  0999 V2000
   11.4772  -19.9324   30.6125 O   0  0  0  0  0  0  0  0  0  0  0  0
   10.7188  -19.7011   29.4544 C   0  0  0  0  0  0  0  0  0  0  0  0
    9.9379  -20.6894   28.8890 C   0  0  0  0  0  0  0  0  0  0  0  0
    9.2028  -20.4589   27.7633 C   0  0  0  0  0  0  0  0  0  0  0  0
    9.2461  -19.2041   27.1813 C   0  0  0  0  0  0  0  0  0  0  0  0
    8.4391  -18.9654   25.9530 C   0  0  0  0  0  0  0  0  0  0  0  0
    7.0986  -18.3989   26.3923 C   0  0  2  0  0  0  0  0  0  0  0  0
    6.0662  -19.3936   26.3301 N   0  0  0  0  0  0  0  0  0  0  0  0
    6.7703  -17.2578   25.5332 C   0  0  0  0  0  0  0  0  0  0  0  0
    5.9780  -17.4730   24.5741 O   0  0  0  0  0  0  0  0  0  0  0  0
   10.0110  -18.1775   27.7050 C   0  0  0  0  0  0  0  0  0  0  0  0
   10.7338  -18.4653   28.8431 C   0  0  0  0  0  0  0  0  0  0  0  0
    6.6501  -12.0882   27.2801 C   0  0  0  0  0  0  0  0  0  0  0  0
    6.2531  -13.2902   26.3708 C   0  0  0  0  0  0  0  0  0  0  0  0
    7.3805  -13.5816   25.4323 C   0  0  2  0  0  0  0  0  0  0  0  0
    7.5036  -12.4524   24.4248 C   0  0  0  0  0  0  0  0  0  0  0  0
    7.2667  -14.9151   24.7952 C   0  0  2  0  0  0  0  0  0  0  0  0
    7.3221  -15.9793   25.7781 N   0  0  0  0  0  0  0  0  0  0  0  0
    8.1695  -15.1615   23.6754 C   0  0  0  0  0  0  0  0  0  0  0  0
    9.3390  -15.6474   23.9674 O   0  0  0  0  0  0  0  0  0  0  0  0
    7.9625  -14.9487   22.3010 N   0  0  0  0  0  0  0  0  0  0  0  0
    6.8741  -14.2407   21.6763 C   0  0  0  0  0  0  0  0  0  0  0  0
    7.2306  -14.1569   20.1945 C   0  0  0  0  0  0  0  0  0  0  0  0
    7.9888  -15.4596   20.0347 C   0  0  0  0  0  0  0  0  0  0  0  0
    8.8608  -15.4379   21.2468 C   0  0  1  0  0  0  0  0  0  0  0  0
   10.0428  -14.5633   21.1079 C   0  0  0  0  0  0  0  0  0  0  0  0
   10.2138  -13.3605   21.7763 O   0  0  0  0  0  0  0  0  0  0  0  0
   10.9643  -14.9230   20.3334 O   0  0  0  0  0  0  0  0  0  0  0  0
  1  2  1  0
  2 12  2  0
  3  4  2  0
  3  2  1  0
  4  5  1  0
  5 11  2  0
  5  6  1  0
  7  6  1  0
  7  8  1  6
  9  7  1  0
  9 10  2  0
 12 11  1  0
 14 15  1  0
 14 13  1  0
 15 17  1  0
 15 16  1  6
 17 18  1  1
 17 19  1  0
 18  9  1  0
 19 21  1  0
 20 19  2  0
 21 25  1  0
 21 22  1  0
 23 22  1  0
 24 25  1  0
 24 23  1  0
 26 27  1  0
 25 26  1  6
 28 26  2  0
M  END
$$$$
