YIP.pdb
     RDKit          3D

 28 29  0  0  1  0  0  0  0  0999 V2000
    8.4389  -17.5299   15.4232 O   0  0  0  0  0  0  0  0  0  0  0  0
    8.7301  -16.8780   16.6316 C   0  0  0  0  0  0  0  0  0  0  0  0
    9.1528  -17.5726   17.7473 C   0  0  0  0  0  0  0  0  0  0  0  0
    9.4343  -16.9337   18.9192 C   0  0  0  0  0  0  0  0  0  0  0  0
    9.2906  -15.5587   18.9828 C   0  0  0  0  0  0  0  0  0  0  0  0
    9.6012  -14.8732   20.2675 C   0  0  0  0  0  0  0  0  0  0  0  0
    8.3300  -14.8709   21.1010 C   0  0  2  0  0  0  0  0  0  0  0  0
    7.2665  -14.1807   20.4290 N   0  0  0  0  0  0  0  0  0  0  0  0
    8.6202  -14.2421   22.3926 C   0  0  0  0  0  0  0  0  0  0  0  0
    9.3080  -13.1836   22.3720 O   0  0  0  0  0  0  0  0  0  0  0  0
    8.8706  -14.8131   17.8960 C   0  0  0  0  0  0  0  0  0  0  0  0
    8.5999  -15.5094   16.7375 C   0  0  0  0  0  0  0  0  0  0  0  0
    6.0737  -11.8383   26.9020 C   0  0  0  0  0  0  0  0  0  0  0  0
    7.3549  -12.6706   26.5933 C   0  0  0  0  0  0  0  0  0  0  0  0
    7.1347  -13.4519   25.3372 C   0  0  2  0  0  0  0  0  0  0  0  0
    5.9431  -14.3751   25.5190 C   0  0  0  0  0  0  0  0  0  0  0  0
    8.3532  -14.1634   24.8830 C   0  0  2  0  0  0  0  0  0  0  0  0
    8.1457  -14.8050   23.5997 N   0  0  0  0  0  0  0  0  0  0  0  0
    8.9560  -15.0710   25.8538 C   0  0  0  0  0  0  0  0  0  0  0  0
    8.7767  -16.3422   25.6508 O   0  0  0  0  0  0  0  0  0  0  0  0
    9.7165  -14.7736   26.9985 N   0  0  0  0  0  0  0  0  0  0  0  0
    9.6956  -13.5604   27.7756 C   0  0  0  0  0  0  0  0  0  0  0  0
   10.5712  -13.8348   28.9955 C   0  0  0  0  0  0  0  0  0  0  0  0
   11.5824  -14.7831   28.3827 C   0  0  0  0  0  0  0  0  0  0  0  0
   10.6912  -15.6920   27.6019 C   0  0  1  0  0  0  0  0  0  0  0  0
   10.0175  -16.7126   28.4301 C   0  0  0  0  0  0  0  0  0  0  0  0
   10.6514  -17.8060   29.0005 O   0  0  0  0  0  0  0  0  0  0  0  0
    8.7845  -16.5930   28.6397 O   0  0  0  0  0  0  0  0  0  0  0  0
  1  2  1  0
  2 12  2  0
  3  4  2  0
  3  2  1  0
  4  5  1  0
  5 11  2  0
  5  6  1  0
  7  6  1  0
  7  8  1  6
  9  7  1  0
  9 10  2  0
 12 11  1  0
 14 15  1  0
 14 13  1  0
 15 17  1  0
 15 16  1  1
 17 18  1  6
 17 19  1  0
 18  9  1  0
 19 21  1  0
 20 19  2  0
 21 25  1  0
 21 22  1  0
 23 22  1  0
 24 25  1  0
 24 23  1  0
 26 27  1  0
 25 26  1  1
 28 26  2  0
M  END
$$$$
