YIP.pdb
     RDKit          3D

 28 29  0  0  1  0  0  0  0  0999 V2000
   11.5716  -20.0138   30.4321 O   0  0  0  0  0  0  0  0  0  0  0  0
   10.7641  -19.7576   29.3131 C   0  0  0  0  0  0  0  0  0  0  0  0
   11.0092  -18.6921   28.4700 C   0  0  0  0  0  0  0  0  0  0  0  0
   10.2210  -18.4479   27.3838 C   0  0  0  0  0  0  0  0  0  0  0  0
    9.1541  -19.2915   27.1283 C   0  0  0  0  0  0  0  0  0  0  0  0
    8.3015  -19.0142   25.9395 C   0  0  0  0  0  0  0  0  0  0  0  0
    7.0470  -18.3119   26.4331 C   0  0  2  0  0  0  0  0  0  0  0  0
    5.9322  -19.2136   26.4897 N   0  0  0  0  0  0  0  0  0  0  0  0
    6.7586  -17.1880   25.5378 C   0  0  0  0  0  0  0  0  0  0  0  0
    6.0674  -17.4370   24.5111 O   0  0  0  0  0  0  0  0  0  0  0  0
    8.8625  -20.3734   27.9393 C   0  0  0  0  0  0  0  0  0  0  0  0
    9.6912  -20.5734   29.0226 C   0  0  0  0  0  0  0  0  0  0  0  0
    6.7190  -11.9819   27.3242 C   0  0  0  0  0  0  0  0  0  0  0  0
    6.2718  -13.1667   26.4155 C   0  0  0  0  0  0  0  0  0  0  0  0
    7.3802  -13.4958   25.4671 C   0  0  2  0  0  0  0  0  0  0  0  0
    7.5286  -12.3740   24.4548 C   0  0  0  0  0  0  0  0  0  0  0  0
    7.2186  -14.8270   24.8352 C   0  0  2  0  0  0  0  0  0  0  0  0
    7.2382  -15.8887   25.8222 N   0  0  0  0  0  0  0  0  0  0  0  0
    8.1102  -15.1092   23.7150 C   0  0  0  0  0  0  0  0  0  0  0  0
    9.2434  -15.6771   24.0025 O   0  0  0  0  0  0  0  0  0  0  0  0
    7.9263  -14.8549   22.3444 N   0  0  0  0  0  0  0  0  0  0  0  0
    6.8305  -14.1582   21.7199 C   0  0  0  0  0  0  0  0  0  0  0  0
    7.2160  -14.0123   20.2503 C   0  0  0  0  0  0  0  0  0  0  0  0
    8.0167  -15.2855   20.0631 C   0  0  0  0  0  0  0  0  0  0  0  0
    8.8615  -15.2802   21.2945 C   0  0  1  0  0  0  0  0  0  0  0  0
   10.0190  -14.3666   21.2122 C   0  0  0  0  0  0  0  0  0  0  0  0
   11.1903  -14.6416   20.5230 O   0  0  0  0  0  0  0  0  0  0  0  0
    9.9499  -13.2602   21.8036 O   0  0  0  0  0  0  0  0  0  0  0  0
  1  2  1  0
  2 12  2  0
  3  4  2  0
  3  2  1  0
  4  5  1  0
  5 11  2  0
  5  6  1  0
  7  6  1  0
  7  8  1  6
  9  7  1  0
  9 10  2  0
 12 11  1  0
 14 15  1  0
 14 13  1  0
 15 17  1  0
 15 16  1  6
 17 18  1  1
 17 19  1  0
 18  9  1  0
 19 21  1  0
 20 19  2  0
 21 25  1  0
 21 22  1  0
 23 22  1  0
 24 25  1  0
 24 23  1  0
 26 27  1  0
 25 26  1  6
 28 26  2  0
M  END
$$$$
