WPP.pdb
     RDKit          3D

 29 32  0  0  1  0  0  0  0  0999 V2000
   25.4362  -22.4021  -12.1460 N   0  0  0  0  0  0  0  0  0  0  0  0
   25.7266  -21.1984  -11.3514 C   0  0  1  0  0  0  0  0  0  0  0  0
   24.4343  -20.5939  -10.8446 C   0  0  0  0  0  0  0  0  0  0  0  0
   23.6612  -19.9544  -11.9306 C   0  0  0  0  0  0  0  0  0  0  0  0
   24.0494  -19.7297  -13.2275 C   0  0  0  0  0  0  0  0  0  0  0  0
   22.9952  -19.1212  -13.8261 N   0  0  0  0  0  0  0  0  0  0  0  0
   21.9821  -18.9666  -12.9480 C   0  0  0  0  0  0  0  0  0  0  0  0
   20.7199  -18.4141  -13.0692 C   0  0  0  0  0  0  0  0  0  0  0  0
   19.8548  -18.3724  -12.0125 C   0  0  0  0  0  0  0  0  0  0  0  0
   20.2474  -18.8960  -10.7840 C   0  0  0  0  0  0  0  0  0  0  0  0
   21.5071  -19.4498  -10.6559 C   0  0  0  0  0  0  0  0  0  0  0  0
   22.3709  -19.4856  -11.7312 C   0  0  0  0  0  0  0  0  0  0  0  0
   26.5302  -21.6616  -10.1813 C   0  0  0  0  0  0  0  0  0  0  0  0
   25.9864  -22.4050   -9.3072 O   0  0  0  0  0  0  0  0  0  0  0  0
   27.8818  -21.2627  -10.0728 N   0  0  0  0  0  0  0  0  0  0  0  0
   28.7005  -20.6856  -11.1096 C   0  0  0  0  0  0  0  0  0  0  0  0
   30.0935  -21.2314  -10.7433 C   0  0  0  0  0  0  0  0  0  0  0  0
   30.0895  -21.0184   -9.2462 C   0  0  0  0  0  0  0  0  0  0  0  0
   28.6719  -21.3843   -8.8631 C   0  0  1  0  0  0  0  0  0  0  0  0
   28.1424  -20.5058   -7.8027 C   0  0  0  0  0  0  0  0  0  0  0  0
   27.1854  -19.7251   -8.1100 O   0  0  0  0  0  0  0  0  0  0  0  0
   28.6453  -20.4929   -6.4768 N   0  0  0  0  0  0  0  0  0  0  0  0
   29.7093  -21.3081   -5.9429 C   0  0  0  0  0  0  0  0  0  0  0  0
   29.2766  -21.5711   -4.5315 C   0  0  0  0  0  0  0  0  0  0  0  0
   28.0913  -20.6590   -4.2509 C   0  0  0  0  0  0  0  0  0  0  0  0
   28.1940  -19.6572   -5.3887 C   0  0  1  0  0  0  0  0  0  0  0  0
   29.0842  -18.5421   -5.0978 C   0  0  0  0  0  0  0  0  0  0  0  0
   28.7575  -17.6822   -4.2473 O   0  0  0  0  0  0  0  0  0  0  0  0
   30.2949  -18.4189   -5.7536 O   0  0  0  0  0  0  0  0  0  0  0  0
  2  1  1  6
  2 13  1  0
  3  4  1  0
  3  2  1  0
  4 12  1  0
  5  6  1  0
  5  4  2  0
  6  7  1  0
  7 12  2  0
  7  8  1  0
  8  9  2  0
  9 10  1  0
 11 10  2  0
 12 11  1  0
 13 14  2  0
 13 15  1  0
 15 16  1  0
 16 17  1  0
 18 17  1  0
 19 20  1  1
 19 15  1  0
 19 18  1  0
 20 21  2  0
 22 20  1  0
 23 24  1  0
 23 22  1  0
 25 26  1  0
 25 24  1  0
 26 22  1  0
 26 27  1  1
 27 28  2  0
 27 29  1  0
M  END
$$$$
