WPP.pdb
     RDKit          3D

 29 32  0  0  1  0  0  0  0  0999 V2000
   16.7674  -21.0270    2.5132 N   0  0  0  0  0  0  0  0  0  0  0  0
   17.0776  -21.5353    3.8586 C   0  0  1  0  0  0  0  0  0  0  0  0
   18.3383  -22.3725    3.8129 C   0  0  0  0  0  0  0  0  0  0  0  0
   18.1809  -23.5598    2.9459 C   0  0  0  0  0  0  0  0  0  0  0  0
   17.0470  -24.2990    2.7200 C   0  0  0  0  0  0  0  0  0  0  0  0
   17.4127  -25.2767    1.8537 N   0  0  0  0  0  0  0  0  0  0  0  0
   18.7211  -25.1630    1.5430 C   0  0  0  0  0  0  0  0  0  0  0  0
   19.5510  -25.9023    0.7197 C   0  0  0  0  0  0  0  0  0  0  0  0
   20.8704  -25.5833    0.5647 C   0  0  0  0  0  0  0  0  0  0  0  0
   21.3966  -24.4910    1.2487 C   0  0  0  0  0  0  0  0  0  0  0  0
   20.5730  -23.7480    2.0728 C   0  0  0  0  0  0  0  0  0  0  0  0
   19.2421  -24.0809    2.2202 C   0  0  0  0  0  0  0  0  0  0  0  0
   17.3322  -20.3317    4.7047 C   0  0  0  0  0  0  0  0  0  0  0  0
   17.8974  -19.3172    4.1908 O   0  0  0  0  0  0  0  0  0  0  0  0
   16.9366  -20.3474    6.0614 N   0  0  0  0  0  0  0  0  0  0  0  0
   16.0484  -21.2904    6.6938 C   0  0  0  0  0  0  0  0  0  0  0  0
   15.3748  -20.4110    7.7641 C   0  0  0  0  0  0  0  0  0  0  0  0
   16.5732  -19.6609    8.3007 C   0  0  0  0  0  0  0  0  0  0  0  0
   17.3767  -19.3812    7.0491 C   0  0  1  0  0  0  0  0  0  0  0  0
   18.8279  -19.5009    7.2864 C   0  0  0  0  0  0  0  0  0  0  0  0
   19.4314  -20.4856    6.7518 O   0  0  0  0  0  0  0  0  0  0  0  0
   19.5684  -18.5815    8.0724 N   0  0  0  0  0  0  0  0  0  0  0  0
   19.0742  -17.3809    8.7016 C   0  0  0  0  0  0  0  0  0  0  0  0
   20.2292  -16.4300    8.6011 C   0  0  0  0  0  0  0  0  0  0  0  0
   21.4338  -17.2384    8.1417 C   0  0  0  0  0  0  0  0  0  0  0  0
   20.9715  -18.6617    8.4048 C   0  0  1  0  0  0  0  0  0  0  0  0
   21.2267  -19.1093    9.7668 C   0  0  0  0  0  0  0  0  0  0  0  0
   20.3308  -19.0157   10.6375 O   0  0  0  0  0  0  0  0  0  0  0  0
   22.4549  -19.6402   10.1143 O   0  0  0  0  0  0  0  0  0  0  0  0
  2  1  1  6
  2 13  1  0
  3  4  1  0
  3  2  1  0
  4 12  1  0
  5  6  1  0
  5  4  2  0
  6  7  1  0
  7 12  2  0
  7  8  1  0
  8  9  2  0
  9 10  1  0
 11 10  2  0
 12 11  1  0
 13 14  2  0
 13 15  1  0
 15 16  1  0
 16 17  1  0
 18 17  1  0
 19 20  1  1
 19 15  1  0
 19 18  1  0
 20 21  2  0
 22 20  1  0
 23 24  1  0
 23 22  1  0
 25 26  1  0
 25 24  1  0
 26 22  1  0
 26 27  1  1
 27 28  2  0
 27 29  1  0
M  END
$$$$
