WPP.pdb
     RDKit          3D

 29 32  0  0  1  0  0  0  0  0999 V2000
   22.9459  -20.2372  -17.2383 N   0  0  0  0  0  0  0  0  0  0  0  0
   23.4356  -19.2334  -16.2805 C   0  0  1  0  0  0  0  0  0  0  0  0
   22.3020  -18.7847  -15.3829 C   0  0  0  0  0  0  0  0  0  0  0  0
   21.2980  -17.9870  -16.1190 C   0  0  0  0  0  0  0  0  0  0  0  0
   21.4860  -16.8121  -16.8028 C   0  0  0  0  0  0  0  0  0  0  0  0
   20.2697  -16.4801  -17.3032 N   0  0  0  0  0  0  0  0  0  0  0  0
   19.3500  -17.4035  -16.9527 C   0  0  0  0  0  0  0  0  0  0  0  0
   17.9958  -17.5148  -17.2110 C   0  0  0  0  0  0  0  0  0  0  0  0
   17.2629  -18.5654  -16.7359 C   0  0  0  0  0  0  0  0  0  0  0  0
   17.8879  -19.5485  -15.9741 C   0  0  0  0  0  0  0  0  0  0  0  0
   19.2408  -19.4436  -15.7123 C   0  0  0  0  0  0  0  0  0  0  0  0
   19.9693  -18.3774  -16.1983 C   0  0  0  0  0  0  0  0  0  0  0  0
   24.4616  -19.9267  -15.4463 C   0  0  0  0  0  0  0  0  0  0  0  0
   24.2855  -21.1426  -15.1251 O   0  0  0  0  0  0  0  0  0  0  0  0
   25.6095  -19.2134  -15.0327 N   0  0  0  0  0  0  0  0  0  0  0  0
   26.0332  -17.9137  -15.4903 C   0  0  0  0  0  0  0  0  0  0  0  0
   27.5660  -18.0401  -15.4043 C   0  0  0  0  0  0  0  0  0  0  0  0
   27.7131  -18.7170  -14.0601 C   0  0  0  0  0  0  0  0  0  0  0  0
   26.5651  -19.7031  -14.0581 C   0  0  1  0  0  0  0  0  0  0  0  0
   25.9401  -19.8200  -12.7268 C   0  0  0  0  0  0  0  0  0  0  0  0
   24.7880  -19.3020  -12.5711 O   0  0  0  0  0  0  0  0  0  0  0  0
   26.5572  -20.4736  -11.6299 N   0  0  0  0  0  0  0  0  0  0  0  0
   27.8421  -21.1298  -11.6202 C   0  0  0  0  0  0  0  0  0  0  0  0
   27.6379  -22.2893  -10.6917 C   0  0  0  0  0  0  0  0  0  0  0  0
   26.2957  -22.0806  -10.0057 C   0  0  0  0  0  0  0  0  0  0  0  0
   26.0236  -20.6140  -10.2952 C   0  0  1  0  0  0  0  0  0  0  0  0
   26.6275  -19.7120   -9.3246 C   0  0  0  0  0  0  0  0  0  0  0  0
   27.7134  -19.1440   -9.5849 O   0  0  0  0  0  0  0  0  0  0  0  0
   26.0133  -19.4727   -8.1095 O   0  0  0  0  0  0  0  0  0  0  0  0
  2  1  1  6
  2 13  1  0
  3  4  1  0
  3  2  1  0
  4 12  1  0
  5  6  1  0
  5  4  2  0
  6  7  1  0
  7 12  2  0
  7  8  1  0
  8  9  2  0
  9 10  1  0
 11 10  2  0
 12 11  1  0
 13 14  2  0
 13 15  1  0
 15 16  1  0
 16 17  1  0
 18 17  1  0
 19 20  1  1
 19 15  1  0
 19 18  1  0
 20 21  2  0
 22 20  1  0
 23 24  1  0
 23 22  1  0
 25 26  1  0
 25 24  1  0
 26 22  1  0
 26 27  1  1
 27 28  2  0
 27 29  1  0
M  END
$$$$
