WPP.pdb
     RDKit          3D

 29 32  0  0  1  0  0  0  0  0999 V2000
   21.1266  -19.0113  -14.5777 N   0  0  0  0  0  0  0  0  0  0  0  0
   21.9001  -20.1624  -14.0863 C   0  0  1  0  0  0  0  0  0  0  0  0
   21.9265  -21.2500  -15.1391 C   0  0  0  0  0  0  0  0  0  0  0  0
   20.8105  -22.2057  -14.9733 C   0  0  0  0  0  0  0  0  0  0  0  0
   20.7318  -23.2753  -14.1173 C   0  0  0  0  0  0  0  0  0  0  0  0
   19.5162  -23.8347  -14.3396 N   0  0  0  0  0  0  0  0  0  0  0  0
   18.8522  -23.1502  -15.2945 C   0  0  0  0  0  0  0  0  0  0  0  0
   17.6035  -23.3195  -15.8645 C   0  0  0  0  0  0  0  0  0  0  0  0
   17.1429  -22.4772  -16.8368 C   0  0  0  0  0  0  0  0  0  0  0  0
   17.9444  -21.4238  -17.2673 C   0  0  0  0  0  0  0  0  0  0  0  0
   19.1932  -21.2487  -16.7019 C   0  0  0  0  0  0  0  0  0  0  0  0
   19.6461  -22.1066  -15.7207 C   0  0  0  0  0  0  0  0  0  0  0  0
   23.2920  -19.6639  -13.8772 C   0  0  0  0  0  0  0  0  0  0  0  0
   23.6830  -18.6287  -14.5000 O   0  0  0  0  0  0  0  0  0  0  0  0
   24.1451  -20.3560  -12.9879 N   0  0  0  0  0  0  0  0  0  0  0  0
   23.7565  -21.3196  -11.9886 C   0  0  0  0  0  0  0  0  0  0  0  0
   24.8140  -21.0750  -10.8955 C   0  0  0  0  0  0  0  0  0  0  0  0
   26.0644  -20.9673  -11.7391 C   0  0  0  0  0  0  0  0  0  0  0  0
   25.5848  -20.1888  -12.9449 C   0  0  1  0  0  0  0  0  0  0  0  0
   26.2041  -20.6697  -14.1947 C   0  0  0  0  0  0  0  0  0  0  0  0
   25.5409  -21.4973  -14.8983 O   0  0  0  0  0  0  0  0  0  0  0  0
   27.4861  -20.2574  -14.6390 N   0  0  0  0  0  0  0  0  0  0  0  0
   28.4373  -19.4477  -13.9170 C   0  0  0  0  0  0  0  0  0  0  0  0
   29.0890  -18.6288  -14.9908 C   0  0  0  0  0  0  0  0  0  0  0  0
   28.6481  -19.2114  -16.3256 C   0  0  0  0  0  0  0  0  0  0  0  0
   28.1023  -20.5666  -15.9081 C   0  0  1  0  0  0  0  0  0  0  0  0
   29.1244  -21.6007  -15.8270 C   0  0  0  0  0  0  0  0  0  0  0  0
   29.6176  -21.9115  -14.7181 O   0  0  0  0  0  0  0  0  0  0  0  0
   29.5613  -22.2489  -16.9672 O   0  0  0  0  0  0  0  0  0  0  0  0
  2  1  1  6
  2 13  1  0
  3  4  1  0
  3  2  1  0
  4 12  1  0
  5  6  1  0
  5  4  2  0
  6  7  1  0
  7 12  2  0
  7  8  1  0
  8  9  2  0
  9 10  1  0
 11 10  2  0
 12 11  1  0
 13 14  2  0
 13 15  1  0
 15 16  1  0
 16 17  1  0
 18 17  1  0
 19 20  1  6
 19 15  1  0
 19 18  1  0
 20 21  2  0
 22 20  1  0
 23 24  1  0
 23 22  1  0
 25 26  1  0
 25 24  1  0
 26 22  1  0
 26 27  1  1
 27 28  2  0
 27 29  1  0
M  END
$$$$
