WPP.pdb
     RDKit          3D

 29 32  0  0  1  0  0  0  0  0999 V2000
   25.2622  -22.3952  -11.8189 N   0  0  0  0  0  0  0  0  0  0  0  0
   26.2126  -21.3154  -11.5097 C   0  0  1  0  0  0  0  0  0  0  0  0
   25.4809  -19.9917  -11.4417 C   0  0  0  0  0  0  0  0  0  0  0  0
   25.0439  -19.5336  -12.7778 C   0  0  0  0  0  0  0  0  0  0  0  0
   23.7810  -19.5677  -13.3136 C   0  0  0  0  0  0  0  0  0  0  0  0
   23.8948  -19.0354  -14.5560 N   0  0  0  0  0  0  0  0  0  0  0  0
   25.1736  -18.6788  -14.7984 C   0  0  0  0  0  0  0  0  0  0  0  0
   25.7889  -18.1052  -15.8963 C   0  0  0  0  0  0  0  0  0  0  0  0
   27.1280  -17.8336  -15.9028 C   0  0  0  0  0  0  0  0  0  0  0  0
   27.8949  -18.1394  -14.7821 C   0  0  0  0  0  0  0  0  0  0  0  0
   27.2864  -18.7125  -13.6816 C   0  0  0  0  0  0  0  0  0  0  0  0
   25.9331  -18.9814  -13.6882 C   0  0  0  0  0  0  0  0  0  0  0  0
   26.7647  -21.6277  -10.1580 C   0  0  0  0  0  0  0  0  0  0  0  0
   25.9908  -22.0783   -9.2578 O   0  0  0  0  0  0  0  0  0  0  0  0
   28.1399  -21.4156   -9.9100 N   0  0  0  0  0  0  0  0  0  0  0  0
   29.1475  -21.0496  -10.8739 C   0  0  0  0  0  0  0  0  0  0  0  0
   30.3926  -21.7535  -10.3020 C   0  0  0  0  0  0  0  0  0  0  0  0
   30.2520  -21.4161   -8.8347 C   0  0  0  0  0  0  0  0  0  0  0  0
   28.7615  -21.5447   -8.6063 C   0  0  1  0  0  0  0  0  0  0  0  0
   28.2537  -20.5137   -7.6811 C   0  0  0  0  0  0  0  0  0  0  0  0
   27.4910  -19.6161   -8.1631 O   0  0  0  0  0  0  0  0  0  0  0  0
   28.5737  -20.4792   -6.3000 N   0  0  0  0  0  0  0  0  0  0  0  0
   29.3371  -21.4546   -5.5601 C   0  0  0  0  0  0  0  0  0  0  0  0
   28.6797  -21.4674   -4.2126 C   0  0  0  0  0  0  0  0  0  0  0  0
   27.7196  -20.2874   -4.1734 C   0  0  0  0  0  0  0  0  0  0  0  0
   28.2004  -19.4564   -5.3511 C   0  0  1  0  0  0  0  0  0  0  0  0
   29.2861  -18.5473   -5.0115 C   0  0  0  0  0  0  0  0  0  0  0  0
   30.4509  -18.7833   -5.4080 O   0  0  0  0  0  0  0  0  0  0  0  0
   29.0463  -17.4184   -4.2506 O   0  0  0  0  0  0  0  0  0  0  0  0
  2  1  1  1
  2 13  1  0
  3  4  1  0
  3  2  1  0
  4 12  1  0
  5  6  1  0
  5  4  2  0
  6  7  1  0
  7 12  2  0
  7  8  1  0
  8  9  2  0
  9 10  1  0
 11 10  2  0
 12 11  1  0
 13 14  2  0
 13 15  1  0
 15 16  1  0
 16 17  1  0
 18 17  1  0
 19 20  1  1
 19 15  1  0
 19 18  1  0
 20 21  2  0
 22 20  1  0
 23 24  1  0
 23 22  1  0
 25 26  1  0
 25 24  1  0
 26 22  1  0
 26 27  1  1
 27 28  2  0
 27 29  1  0
M  END
$$$$
