WPP.pdb
     RDKit          3D

 29 32  0  0  1  0  0  0  0  0999 V2000
   25.1198  -22.2025  -11.8117 N   0  0  0  0  0  0  0  0  0  0  0  0
   26.0818  -21.1327  -11.5037 C   0  0  1  0  0  0  0  0  0  0  0  0
   25.3562  -19.8095  -11.3821 C   0  0  0  0  0  0  0  0  0  0  0  0
   24.8291  -19.3476  -12.6840 C   0  0  0  0  0  0  0  0  0  0  0  0
   23.5465  -19.4473  -13.1617 C   0  0  0  0  0  0  0  0  0  0  0  0
   23.5683  -18.8796  -14.3934 N   0  0  0  0  0  0  0  0  0  0  0  0
   24.8100  -18.4385  -14.6849 C   0  0  0  0  0  0  0  0  0  0  0  0
   25.3363  -17.8018  -15.7942 C   0  0  0  0  0  0  0  0  0  0  0  0
   26.6545  -17.4475  -15.8550 C   0  0  0  0  0  0  0  0  0  0  0  0
   27.4911  -17.7317  -14.7794 C   0  0  0  0  0  0  0  0  0  0  0  0
   26.9718  -18.3675  -13.6678 C   0  0  0  0  0  0  0  0  0  0  0  0
   25.6386  -18.7197  -13.6193 C   0  0  0  0  0  0  0  0  0  0  0  0
   26.6718  -21.4794  -10.1767 C   0  0  0  0  0  0  0  0  0  0  0  0
   25.9309  -21.9868   -9.2789 O   0  0  0  0  0  0  0  0  0  0  0  0
   28.0453  -21.2359   -9.9488 N   0  0  0  0  0  0  0  0  0  0  0  0
   29.0134  -20.7699  -10.9100 C   0  0  0  0  0  0  0  0  0  0  0  0
   30.2966  -21.4662  -10.4188 C   0  0  0  0  0  0  0  0  0  0  0  0
   30.1846  -21.2342   -8.9287 C   0  0  0  0  0  0  0  0  0  0  0  0
   28.7060  -21.4308   -8.6729 C   0  0  1  0  0  0  0  0  0  0  0  0
   28.1891  -20.4836   -7.6668 C   0  0  0  0  0  0  0  0  0  0  0  0
   27.3923  -19.5763   -8.0690 O   0  0  0  0  0  0  0  0  0  0  0  0
   28.5359  -20.5385   -6.2928 N   0  0  0  0  0  0  0  0  0  0  0  0
   29.3683  -21.5232   -5.6453 C   0  0  0  0  0  0  0  0  0  0  0  0
   28.7414  -21.6787   -4.2921 C   0  0  0  0  0  0  0  0  0  0  0  0
   27.7179  -20.5625   -4.1436 C   0  0  0  0  0  0  0  0  0  0  0  0
   28.1263  -19.6160   -5.2599 C   0  0  1  0  0  0  0  0  0  0  0  0
   29.1665  -18.6753   -4.8678 C   0  0  0  0  0  0  0  0  0  0  0  0
   30.3300  -18.8025   -5.3147 O   0  0  0  0  0  0  0  0  0  0  0  0
   28.8845  -17.6356   -4.0016 O   0  0  0  0  0  0  0  0  0  0  0  0
  2  1  1  1
  2 13  1  0
  3  4  1  0
  3  2  1  0
  4 12  1  0
  5  6  1  0
  5  4  2  0
  6  7  1  0
  7 12  2  0
  7  8  1  0
  8  9  2  0
  9 10  1  0
 11 10  2  0
 12 11  1  0
 13 14  2  0
 13 15  1  0
 15 16  1  0
 16 17  1  0
 18 17  1  0
 19 20  1  1
 19 15  1  0
 19 18  1  0
 20 21  2  0
 22 20  1  0
 23 24  1  0
 23 22  1  0
 25 26  1  0
 25 24  1  0
 26 22  1  0
 26 27  1  1
 27 28  2  0
 27 29  1  0
M  END
$$$$
