WPP.pdb
     RDKit          3D

 29 32  0  0  1  0  0  0  0  0999 V2000
   24.6372  -22.7372  -12.3246 N   0  0  0  0  0  0  0  0  0  0  0  0
   25.3053  -21.4749  -11.9708 C   0  0  1  0  0  0  0  0  0  0  0  0
   24.2773  -20.4594  -11.5188 C   0  0  0  0  0  0  0  0  0  0  0  0
   23.3255  -20.1200  -12.5982 C   0  0  0  0  0  0  0  0  0  0  0  0
   22.0309  -20.5488  -12.7514 C   0  0  0  0  0  0  0  0  0  0  0  0
   21.5817  -19.9611  -13.8884 N   0  0  0  0  0  0  0  0  0  0  0  0
   22.5483  -19.1927  -14.4330 C   0  0  0  0  0  0  0  0  0  0  0  0
   22.5834  -18.4058  -15.5699 C   0  0  0  0  0  0  0  0  0  0  0  0
   23.7041  -17.7069  -15.9196 C   0  0  0  0  0  0  0  0  0  0  0  0
   24.8390  -17.7852  -15.1174 C   0  0  0  0  0  0  0  0  0  0  0  0
   24.8108  -18.5695  -13.9799 C   0  0  0  0  0  0  0  0  0  0  0  0
   23.6723  -19.2701  -13.6382 C   0  0  0  0  0  0  0  0  0  0  0  0
   26.2028  -21.7925  -10.8207 C   0  0  0  0  0  0  0  0  0  0  0  0
   25.8160  -22.6200   -9.9386 O   0  0  0  0  0  0  0  0  0  0  0  0
   27.4666  -21.1649  -10.7395 N   0  0  0  0  0  0  0  0  0  0  0  0
   28.1296  -20.4153  -11.7771 C   0  0  0  0  0  0  0  0  0  0  0  0
   29.6103  -20.7188  -11.4799 C   0  0  0  0  0  0  0  0  0  0  0  0
   29.6282  -20.5637   -9.9758 C   0  0  0  0  0  0  0  0  0  0  0  0
   28.3131  -21.1882   -9.5625 C   0  0  1  0  0  0  0  0  0  0  0  0
   27.6800  -20.4559   -8.4491 C   0  0  0  0  0  0  0  0  0  0  0  0
   26.5873  -19.8498   -8.6907 O   0  0  0  0  0  0  0  0  0  0  0  0
   28.2272  -20.3981   -7.1421 N   0  0  0  0  0  0  0  0  0  0  0  0
   29.3992  -21.0874   -6.6594 C   0  0  0  0  0  0  0  0  0  0  0  0
   29.0538  -21.4154   -5.2376 C   0  0  0  0  0  0  0  0  0  0  0  0
   27.7806  -20.6532   -4.9006 C   0  0  0  0  0  0  0  0  0  0  0  0
   27.7217  -19.6338   -6.0258 C   0  0  1  0  0  0  0  0  0  0  0  0
   28.4844  -18.4244   -5.7499 C   0  0  0  0  0  0  0  0  0  0  0  0
   29.5444  -18.1931   -6.3764 O   0  0  0  0  0  0  0  0  0  0  0  0
   28.0507  -17.5211   -4.7977 O   0  0  0  0  0  0  0  0  0  0  0  0
  2  1  1  1
  2 13  1  0
  3  4  1  0
  3  2  1  0
  4 12  1  0
  5  6  1  0
  5  4  2  0
  6  7  1  0
  7 12  2  0
  7  8  1  0
  8  9  2  0
  9 10  1  0
 11 10  2  0
 12 11  1  0
 13 14  2  0
 13 15  1  0
 15 16  1  0
 16 17  1  0
 18 17  1  0
 19 20  1  1
 19 15  1  0
 19 18  1  0
 20 21  2  0
 22 20  1  0
 23 24  1  0
 23 22  1  0
 25 26  1  0
 25 24  1  0
 26 22  1  0
 26 27  1  1
 27 28  2  0
 27 29  1  0
M  END
$$$$
