WPP.pdb
     RDKit          3D

 29 32  0  0  1  0  0  0  0  0999 V2000
   25.2389  -22.2811  -12.1199 N   0  0  0  0  0  0  0  0  0  0  0  0
   26.3267  -21.3366  -11.8213 C   0  0  1  0  0  0  0  0  0  0  0  0
   25.7913  -19.9204  -11.8221 C   0  0  0  0  0  0  0  0  0  0  0  0
   24.3268  -19.8844  -12.0223 C   0  0  0  0  0  0  0  0  0  0  0  0
   23.6360  -19.7658  -13.2021 C   0  0  0  0  0  0  0  0  0  0  0  0
   22.3230  -19.7840  -12.8621 N   0  0  0  0  0  0  0  0  0  0  0  0
   22.1860  -19.9089  -11.5254 C   0  0  0  0  0  0  0  0  0  0  0  0
   21.0747  -19.9745  -10.7046 C   0  0  0  0  0  0  0  0  0  0  0  0
   21.1951  -20.1035   -9.3497 C   0  0  0  0  0  0  0  0  0  0  0  0
   22.4621  -20.1705   -8.7773 C   0  0  0  0  0  0  0  0  0  0  0  0
   23.5768  -20.1058   -9.5916 C   0  0  0  0  0  0  0  0  0  0  0  0
   23.4411  -19.9756  -10.9585 C   0  0  0  0  0  0  0  0  0  0  0  0
   26.7954  -21.6708  -10.4436 C   0  0  0  0  0  0  0  0  0  0  0  0
   25.9619  -22.1072   -9.5908 O   0  0  0  0  0  0  0  0  0  0  0  0
   28.1596  -21.4950  -10.1187 N   0  0  0  0  0  0  0  0  0  0  0  0
   29.2244  -21.1297  -11.0192 C   0  0  0  0  0  0  0  0  0  0  0  0
   30.4223  -21.8738  -10.3996 C   0  0  0  0  0  0  0  0  0  0  0  0
   30.2111  -21.5668   -8.9341 C   0  0  0  0  0  0  0  0  0  0  0  0
   28.7082  -21.6674   -8.7876 C   0  0  1  0  0  0  0  0  0  0  0  0
   28.1738  -20.6467   -7.8660 C   0  0  0  0  0  0  0  0  0  0  0  0
   27.3953  -19.7655   -8.3530 O   0  0  0  0  0  0  0  0  0  0  0  0
   28.4850  -20.6047   -6.4831 N   0  0  0  0  0  0  0  0  0  0  0  0
   29.3042  -21.5375   -5.7479 C   0  0  0  0  0  0  0  0  0  0  0  0
   28.6430  -21.6029   -4.4037 C   0  0  0  0  0  0  0  0  0  0  0  0
   27.6115  -20.4850   -4.3591 C   0  0  0  0  0  0  0  0  0  0  0  0
   28.0449  -19.6154   -5.5273 C   0  0  1  0  0  0  0  0  0  0  0  0
   29.0708  -18.6439   -5.1746 C   0  0  0  0  0  0  0  0  0  0  0  0
   30.2396  -18.7797   -5.6047 O   0  0  0  0  0  0  0  0  0  0  0  0
   28.7693  -17.5652   -4.3645 O   0  0  0  0  0  0  0  0  0  0  0  0
  2  1  1  1
  2 13  1  0
  3  4  1  0
  3  2  1  0
  4 12  1  0
  5  6  1  0
  5  4  2  0
  6  7  1  0
  7 12  2  0
  7  8  1  0
  8  9  2  0
  9 10  1  0
 11 10  2  0
 12 11  1  0
 13 14  2  0
 13 15  1  0
 15 16  1  0
 16 17  1  0
 18 17  1  0
 19 20  1  1
 19 15  1  0
 19 18  1  0
 20 21  2  0
 22 20  1  0
 23 24  1  0
 23 22  1  0
 25 26  1  0
 25 24  1  0
 26 22  1  0
 26 27  1  1
 27 28  2  0
 27 29  1  0
M  END
$$$$
