WPP.pdb
     RDKit          3D

 29 32  0  0  1  0  0  0  0  0999 V2000
   24.8777  -22.2696  -11.9215 N   0  0  0  0  0  0  0  0  0  0  0  0
   25.4732  -21.1015  -11.2539 C   0  0  1  0  0  0  0  0  0  0  0  0
   24.3949  -20.3121  -10.5424 C   0  0  0  0  0  0  0  0  0  0  0  0
   23.3513  -19.8377  -11.4762 C   0  0  0  0  0  0  0  0  0  0  0  0
   23.4865  -19.5112  -12.8022 C   0  0  0  0  0  0  0  0  0  0  0  0
   22.2501  -19.1369  -13.2160 N   0  0  0  0  0  0  0  0  0  0  0  0
   21.3686  -19.2224  -12.1977 C   0  0  0  0  0  0  0  0  0  0  0  0
   20.0140  -18.9564  -12.1131 C   0  0  0  0  0  0  0  0  0  0  0  0
   19.3258  -19.1229  -10.9445 C   0  0  0  0  0  0  0  0  0  0  0  0
   19.9983  -19.5696   -9.8106 C   0  0  0  0  0  0  0  0  0  0  0  0
   21.3518  -19.8374   -9.8882 C   0  0  0  0  0  0  0  0  0  0  0  0
   22.0347  -19.6652  -11.0747 C   0  0  0  0  0  0  0  0  0  0  0  0
   26.4187  -21.6472  -10.2353 C   0  0  0  0  0  0  0  0  0  0  0  0
   26.0302  -22.5726   -9.4574 O   0  0  0  0  0  0  0  0  0  0  0  0
   27.7284  -21.1215  -10.1599 N   0  0  0  0  0  0  0  0  0  0  0  0
   28.4411  -20.4194  -11.1979 C   0  0  0  0  0  0  0  0  0  0  0  0
   29.8953  -20.8404  -10.9137 C   0  0  0  0  0  0  0  0  0  0  0  0
   29.9360  -20.6972   -9.4088 C   0  0  0  0  0  0  0  0  0  0  0  0
   28.5788  -21.2191   -8.9894 C   0  0  1  0  0  0  0  0  0  0  0  0
   28.0131  -20.4466   -7.8669 C   0  0  0  0  0  0  0  0  0  0  0  0
   26.9580  -19.7712   -8.0912 O   0  0  0  0  0  0  0  0  0  0  0  0
   28.5848  -20.4236   -6.5693 N   0  0  0  0  0  0  0  0  0  0  0  0
   29.7435  -21.1547   -6.1170 C   0  0  0  0  0  0  0  0  0  0  0  0
   29.4133  -21.4917   -4.6937 C   0  0  0  0  0  0  0  0  0  0  0  0
   28.1701  -20.6961   -4.3237 C   0  0  0  0  0  0  0  0  0  0  0  0
   28.1225  -19.6598   -5.4340 C   0  0  1  0  0  0  0  0  0  0  0  0
   28.9266  -18.4781   -5.1558 C   0  0  0  0  0  0  0  0  0  0  0  0
   29.9517  -18.2409   -5.8358 O   0  0  0  0  0  0  0  0  0  0  0  0
   28.5707  -17.6076   -4.1426 O   0  0  0  0  0  0  0  0  0  0  0  0
  2  1  1  1
  2 13  1  0
  3  4  1  0
  3  2  1  0
  4 12  1  0
  5  6  1  0
  5  4  2  0
  6  7  1  0
  7 12  2  0
  7  8  1  0
  8  9  2  0
  9 10  1  0
 11 10  2  0
 12 11  1  0
 13 14  2  0
 13 15  1  0
 15 16  1  0
 16 17  1  0
 18 17  1  0
 19 20  1  1
 19 15  1  0
 19 18  1  0
 20 21  2  0
 22 20  1  0
 23 24  1  0
 23 22  1  0
 25 26  1  0
 25 24  1  0
 26 22  1  0
 26 27  1  1
 27 28  2  0
 27 29  1  0
M  END
$$$$
