WPP.pdb
     RDKit          3D

 29 32  0  0  1  0  0  0  0  0999 V2000
   25.6258  -23.3958  -15.7662 N   0  0  0  0  0  0  0  0  0  0  0  0
   25.1799  -22.2791  -14.9183 C   0  0  1  0  0  0  0  0  0  0  0  0
   23.8220  -22.5940  -14.3274 C   0  0  0  0  0  0  0  0  0  0  0  0
   23.0741  -21.3671  -13.9786 C   0  0  0  0  0  0  0  0  0  0  0  0
   22.4397  -20.4928  -14.8250 C   0  0  0  0  0  0  0  0  0  0  0  0
   21.9024  -19.5354  -14.0284 N   0  0  0  0  0  0  0  0  0  0  0  0
   22.1830  -19.7907  -12.7332 C   0  0  0  0  0  0  0  0  0  0  0  0
   21.8663  -19.1257  -11.5625 C   0  0  0  0  0  0  0  0  0  0  0  0
   22.2745  -19.5916  -10.3446 C   0  0  0  0  0  0  0  0  0  0  0  0
   23.0264  -20.7609  -10.2747 C   0  0  0  0  0  0  0  0  0  0  0  0
   23.3462  -21.4304  -11.4406 C   0  0  0  0  0  0  0  0  0  0  0  0
   22.9275  -20.9491  -12.6641 C   0  0  0  0  0  0  0  0  0  0  0  0
   26.1744  -22.1821  -13.8088 C   0  0  0  0  0  0  0  0  0  0  0  0
   26.3811  -23.1921  -13.0674 O   0  0  0  0  0  0  0  0  0  0  0  0
   26.8664  -20.9661  -13.6086 N   0  0  0  0  0  0  0  0  0  0  0  0
   26.7554  -19.7659  -14.3995 C   0  0  0  0  0  0  0  0  0  0  0  0
   28.1812  -19.1928  -14.2935 C   0  0  0  0  0  0  0  0  0  0  0  0
   28.4498  -19.3895  -12.8184 C   0  0  0  0  0  0  0  0  0  0  0  0
   27.8263  -20.7411  -12.5453 C   0  0  1  0  0  0  0  0  0  0  0  0
   27.1660  -20.7883  -11.2268 C   0  0  0  0  0  0  0  0  0  0  0  0
   25.9111  -20.9993  -11.2054 O   0  0  0  0  0  0  0  0  0  0  0  0
   27.8573  -20.6111  -10.0013 N   0  0  0  0  0  0  0  0  0  0  0  0
   29.2720  -20.3884   -9.8258 C   0  0  0  0  0  0  0  0  0  0  0  0
   29.5869  -21.1138   -8.5519 C   0  0  0  0  0  0  0  0  0  0  0  0
   28.2585  -21.5023   -7.9196 C   0  0  0  0  0  0  0  0  0  0  0  0
   27.2833  -20.6160   -8.6760 C   0  0  1  0  0  0  0  0  0  0  0  0
   27.1390  -19.2886   -8.0947 C   0  0  0  0  0  0  0  0  0  0  0  0
   27.6874  -18.3016   -8.6376 O   0  0  0  0  0  0  0  0  0  0  0  0
   26.3990  -19.1021   -6.9421 O   0  0  0  0  0  0  0  0  0  0  0  0
  2  1  1  6
  2 13  1  0
  3  4  1  0
  3  2  1  0
  4 12  1  0
  5  6  1  0
  5  4  2  0
  6  7  1  0
  7 12  2  0
  7  8  1  0
  8  9  2  0
  9 10  1  0
 11 10  2  0
 12 11  1  0
 13 14  2  0
 13 15  1  0
 15 16  1  0
 16 17  1  0
 18 17  1  0
 19 20  1  1
 19 15  1  0
 19 18  1  0
 20 21  2  0
 22 20  1  0
 23 24  1  0
 23 22  1  0
 25 26  1  0
 25 24  1  0
 26 22  1  0
 26 27  1  1
 27 28  2  0
 27 29  1  0
M  END
$$$$
