WPP.pdb
     RDKit          3D

 29 32  0  0  1  0  0  0  0  0999 V2000
   25.3601  -23.0629  -16.9204 N   0  0  0  0  0  0  0  0  0  0  0  0
   25.0497  -22.1236  -15.8314 C   0  0  1  0  0  0  0  0  0  0  0  0
   23.9303  -22.6800  -14.9773 C   0  0  0  0  0  0  0  0  0  0  0  0
   23.3965  -21.6688  -14.0399 C   0  0  0  0  0  0  0  0  0  0  0  0
   22.4526  -20.7030  -14.2836 C   0  0  0  0  0  0  0  0  0  0  0  0
   22.3041  -20.0316  -13.1144 N   0  0  0  0  0  0  0  0  0  0  0  0
   23.1176  -20.5485  -12.1698 C   0  0  0  0  0  0  0  0  0  0  0  0
   23.3317  -20.2205  -10.8433 C   0  0  0  0  0  0  0  0  0  0  0  0
   24.2286  -20.9069  -10.0744 C   0  0  0  0  0  0  0  0  0  0  0  0
   24.9460  -21.9606  -10.6336 C   0  0  0  0  0  0  0  0  0  0  0  0
   24.7369  -22.2937  -11.9584 C   0  0  0  0  0  0  0  0  0  0  0  0
   23.8279  -21.5924  -12.7237 C   0  0  0  0  0  0  0  0  0  0  0  0
   26.2869  -22.0334  -15.0004 C   0  0  0  0  0  0  0  0  0  0  0  0
   26.8250  -23.0987  -14.5667 O   0  0  0  0  0  0  0  0  0  0  0  0
   26.8339  -20.7618  -14.7152 N   0  0  0  0  0  0  0  0  0  0  0  0
   26.3821  -19.4907  -15.2238 C   0  0  0  0  0  0  0  0  0  0  0  0
   27.7025  -18.7011  -15.2996 C   0  0  0  0  0  0  0  0  0  0  0  0
   28.3260  -19.0761  -13.9739 C   0  0  0  0  0  0  0  0  0  0  0  0
   27.9719  -20.5417  -13.8440 C   0  0  1  0  0  0  0  0  0  0  0  0
   27.6439  -20.9092  -12.4533 C   0  0  0  0  0  0  0  0  0  0  0  0
   26.4722  -21.3495  -12.2228 O   0  0  0  0  0  0  0  0  0  0  0  0
   28.5622  -20.7947  -11.3787 N   0  0  0  0  0  0  0  0  0  0  0  0
   29.9525  -20.4177  -11.4601 C   0  0  0  0  0  0  0  0  0  0  0  0
   30.6045  -21.2453  -10.3933 C   0  0  0  0  0  0  0  0  0  0  0  0
   29.4884  -21.8719   -9.5702 C   0  0  0  0  0  0  0  0  0  0  0  0
   28.2907  -21.0314   -9.9801 C   0  0  1  0  0  0  0  0  0  0  0  0
   28.1452  -19.8126   -9.1967 C   0  0  0  0  0  0  0  0  0  0  0  0
   27.6831  -19.8644   -8.0333 O   0  0  0  0  0  0  0  0  0  0  0  0
   28.5131  -18.5890   -9.7244 O   0  0  0  0  0  0  0  0  0  0  0  0
  2  1  1  6
  2 13  1  0
  3  4  1  0
  3  2  1  0
  4 12  1  0
  5  6  1  0
  5  4  2  0
  6  7  1  0
  7 12  2  0
  7  8  1  0
  8  9  2  0
  9 10  1  0
 11 10  2  0
 12 11  1  0
 13 14  2  0
 13 15  1  0
 15 16  1  0
 16 17  1  0
 18 17  1  0
 19 20  1  1
 19 15  1  0
 19 18  1  0
 20 21  2  0
 22 20  1  0
 23 24  1  0
 23 22  1  0
 25 26  1  0
 25 24  1  0
 26 22  1  0
 26 27  1  1
 27 28  2  0
 27 29  1  0
M  END
$$$$
