WPP.pdb
     RDKit          3D

 29 32  0  0  1  0  0  0  0  0999 V2000
   25.7887  -21.9396  -12.6595 N   0  0  0  0  0  0  0  0  0  0  0  0
   25.7497  -21.0889  -11.4597 C   0  0  1  0  0  0  0  0  0  0  0  0
   24.3851  -21.1798  -10.8103 C   0  0  0  0  0  0  0  0  0  0  0  0
   23.3341  -20.5605  -11.6458 C   0  0  0  0  0  0  0  0  0  0  0  0
   23.3688  -20.2959  -12.9919 C   0  0  0  0  0  0  0  0  0  0  0  0
   22.1719  -19.7293  -13.2856 N   0  0  0  0  0  0  0  0  0  0  0  0
   21.4106  -19.6383  -12.1750 C   0  0  0  0  0  0  0  0  0  0  0  0
   20.1370  -19.1455  -11.9560 C   0  0  0  0  0  0  0  0  0  0  0  0
   19.5690  -19.1631  -10.7135 C   0  0  0  0  0  0  0  0  0  0  0  0
   20.2838  -19.6874   -9.6403 C   0  0  0  0  0  0  0  0  0  0  0  0
   21.5568  -20.1817   -9.8521 C   0  0  0  0  0  0  0  0  0  0  0  0
   22.1186  -20.1580  -11.1121 C   0  0  0  0  0  0  0  0  0  0  0  0
   26.7652  -21.6532  -10.5219 C   0  0  0  0  0  0  0  0  0  0  0  0
   26.5061  -22.7270   -9.8956 O   0  0  0  0  0  0  0  0  0  0  0  0
   27.9959  -20.9791  -10.3524 N   0  0  0  0  0  0  0  0  0  0  0  0
   28.6535  -20.1233  -11.3081 C   0  0  0  0  0  0  0  0  0  0  0  0
   30.1373  -20.3839  -10.9868 C   0  0  0  0  0  0  0  0  0  0  0  0
   30.1044  -20.3446   -9.4755 C   0  0  0  0  0  0  0  0  0  0  0  0
   28.8080  -21.0560   -9.1536 C   0  0  1  0  0  0  0  0  0  0  0  0
   28.1097  -20.4402   -8.0091 C   0  0  0  0  0  0  0  0  0  0  0  0
   26.9646  -19.9288   -8.2257 O   0  0  0  0  0  0  0  0  0  0  0  0
   28.6502  -20.3932   -6.6989 N   0  0  0  0  0  0  0  0  0  0  0  0
   29.8632  -21.0227   -6.2361 C   0  0  0  0  0  0  0  0  0  0  0  0
   29.5374  -21.4213   -4.8278 C   0  0  0  0  0  0  0  0  0  0  0  0
   28.2176  -20.7541   -4.4693 C   0  0  0  0  0  0  0  0  0  0  0  0
   28.0953  -19.7020   -5.5587 C   0  0  1  0  0  0  0  0  0  0  0  0
   28.7788  -18.4568   -5.2382 C   0  0  0  0  0  0  0  0  0  0  0  0
   29.8186  -18.1330   -5.8576 O   0  0  0  0  0  0  0  0  0  0  0  0
   28.2916  -17.6207   -4.2511 O   0  0  0  0  0  0  0  0  0  0  0  0
  2  1  1  6
  2 13  1  0
  3  4  1  0
  3  2  1  0
  4 12  1  0
  5  6  1  0
  5  4  2  0
  6  7  1  0
  7 12  2  0
  7  8  1  0
  8  9  2  0
  9 10  1  0
 11 10  2  0
 12 11  1  0
 13 14  2  0
 13 15  1  0
 15 16  1  0
 16 17  1  0
 18 17  1  0
 19 20  1  1
 19 15  1  0
 19 18  1  0
 20 21  2  0
 22 20  1  0
 23 24  1  0
 23 22  1  0
 25 26  1  0
 25 24  1  0
 26 22  1  0
 26 27  1  1
 27 28  2  0
 27 29  1  0
M  END
$$$$
