WPP.pdb
     RDKit          3D

 29 32  0  0  1  0  0  0  0  0999 V2000
   24.7745  -23.0012  -15.0811 N   0  0  0  0  0  0  0  0  0  0  0  0
   24.5434  -21.8977  -14.1358 C   0  0  1  0  0  0  0  0  0  0  0  0
   23.2710  -22.1492  -13.3547 C   0  0  0  0  0  0  0  0  0  0  0  0
   22.5261  -20.8984  -13.0961 C   0  0  0  0  0  0  0  0  0  0  0  0
   22.1060  -19.9598  -14.0047 C   0  0  0  0  0  0  0  0  0  0  0  0
   21.4694  -19.0063  -13.2797 N   0  0  0  0  0  0  0  0  0  0  0  0
   21.4844  -19.3256  -11.9686 C   0  0  0  0  0  0  0  0  0  0  0  0
   20.9792  -18.6900  -10.8488 C   0  0  0  0  0  0  0  0  0  0  0  0
   21.1246  -19.2233   -9.5993 C   0  0  0  0  0  0  0  0  0  0  0  0
   21.7957  -20.4328   -9.4439 C   0  0  0  0  0  0  0  0  0  0  0  0
   22.3028  -21.0733  -10.5585 C   0  0  0  0  0  0  0  0  0  0  0  0
   22.1488  -20.5239  -11.8148 C   0  0  0  0  0  0  0  0  0  0  0  0
   25.6983  -21.9177  -13.1896 C   0  0  0  0  0  0  0  0  0  0  0  0
   25.9522  -22.9780  -12.5388 O   0  0  0  0  0  0  0  0  0  0  0  0
   26.4860  -20.7538  -13.0399 N   0  0  0  0  0  0  0  0  0  0  0  0
   26.3713  -19.5278  -13.7896 C   0  0  0  0  0  0  0  0  0  0  0  0
   27.8350  -19.0491  -13.8253 C   0  0  0  0  0  0  0  0  0  0  0  0
   28.2443  -19.3026  -12.3918 C   0  0  0  0  0  0  0  0  0  0  0  0
   27.5655  -20.6191  -12.0812 C   0  0  1  0  0  0  0  0  0  0  0  0
   27.0465  -20.6604  -10.7007 C   0  0  0  0  0  0  0  0  0  0  0  0
   25.7857  -20.7462  -10.5495 O   0  0  0  0  0  0  0  0  0  0  0  0
   27.8776  -20.6088   -9.5528 N   0  0  0  0  0  0  0  0  0  0  0  0
   29.3176  -20.5239   -9.5256 C   0  0  0  0  0  0  0  0  0  0  0  0
   29.6955  -21.3386   -8.3249 C   0  0  0  0  0  0  0  0  0  0  0  0
   28.4107  -21.6374   -7.5662 C   0  0  0  0  0  0  0  0  0  0  0  0
   27.4496  -20.6294   -8.1736 C   0  0  1  0  0  0  0  0  0  0  0  0
   27.4948  -19.3257   -7.5263 C   0  0  0  0  0  0  0  0  0  0  0  0
   28.0681  -18.3641   -8.0886 O   0  0  0  0  0  0  0  0  0  0  0  0
   26.9089  -19.1341   -6.2889 O   0  0  0  0  0  0  0  0  0  0  0  0
  2  1  1  6
  2 13  1  0
  3  4  1  0
  3  2  1  0
  4 12  1  0
  5  6  1  0
  5  4  2  0
  6  7  1  0
  7 12  2  0
  7  8  1  0
  8  9  2  0
  9 10  1  0
 11 10  2  0
 12 11  1  0
 13 14  2  0
 13 15  1  0
 15 16  1  0
 16 17  1  0
 18 17  1  0
 19 20  1  1
 19 15  1  0
 19 18  1  0
 20 21  2  0
 22 20  1  0
 23 24  1  0
 23 22  1  0
 25 26  1  0
 25 24  1  0
 26 22  1  0
 26 27  1  1
 27 28  2  0
 27 29  1  0
M  END
$$$$
