WPP.pdb
     RDKit          3D

 29 32  0  0  1  0  0  0  0  0999 V2000
   26.0515  -21.5375  -18.8607 N   0  0  0  0  0  0  0  0  0  0  0  0
   25.3966  -20.6055  -17.9294 C   0  0  1  0  0  0  0  0  0  0  0  0
   23.9584  -21.0248  -17.7106 C   0  0  0  0  0  0  0  0  0  0  0  0
   23.2094  -20.0311  -16.9121 C   0  0  0  0  0  0  0  0  0  0  0  0
   22.8312  -18.7633  -17.2767 C   0  0  0  0  0  0  0  0  0  0  0  0
   22.1699  -18.2555  -16.2067 N   0  0  0  0  0  0  0  0  0  0  0  0
   22.1298  -19.1611  -15.2069 C   0  0  0  0  0  0  0  0  0  0  0  0
   21.5822  -19.1239  -13.9373 C   0  0  0  0  0  0  0  0  0  0  0  0
   21.6738  -20.1912  -13.0892 C   0  0  0  0  0  0  0  0  0  0  0  0
   22.3323  -21.3442  -13.5070 C   0  0  0  0  0  0  0  0  0  0  0  0
   22.8816  -21.3882  -14.7743 C   0  0  0  0  0  0  0  0  0  0  0  0
   22.7818  -20.3032  -15.6209 C   0  0  0  0  0  0  0  0  0  0  0  0
   26.1338  -20.7293  -16.6369 C   0  0  0  0  0  0  0  0  0  0  0  0
   26.4574  -21.8814  -16.2122 O   0  0  0  0  0  0  0  0  0  0  0  0
   26.4569  -19.5589  -15.9135 N   0  0  0  0  0  0  0  0  0  0  0  0
   26.2299  -18.1960  -16.3250 C   0  0  0  0  0  0  0  0  0  0  0  0
   27.4224  -17.4729  -15.6710 C   0  0  0  0  0  0  0  0  0  0  0  0
   27.4155  -18.1113  -14.3002 C   0  0  0  0  0  0  0  0  0  0  0  0
   27.0907  -19.5567  -14.6094 C   0  0  1  0  0  0  0  0  0  0  0  0
   26.2000  -20.1516  -13.5947 C   0  0  0  0  0  0  0  0  0  0  0  0
   24.9985  -20.3940  -13.9373 O   0  0  0  0  0  0  0  0  0  0  0  0
   26.6172  -20.4600  -12.2749 N   0  0  0  0  0  0  0  0  0  0  0  0
   27.9390  -20.2954  -11.7204 C   0  0  0  0  0  0  0  0  0  0  0  0
   28.0756  -21.4593  -10.7851 C   0  0  0  0  0  0  0  0  0  0  0  0
   26.6985  -22.0943  -10.6590 C   0  0  0  0  0  0  0  0  0  0  0  0
   25.8004  -21.0015  -11.2140 C   0  0  1  0  0  0  0  0  0  0  0  0
   25.4059  -20.0164  -10.2167 C   0  0  0  0  0  0  0  0  0  0  0  0
   26.0774  -18.9693  -10.0674 O   0  0  0  0  0  0  0  0  0  0  0  0
   24.2911  -20.2235   -9.4260 O   0  0  0  0  0  0  0  0  0  0  0  0
  2  1  1  6
  2 13  1  0
  3  4  1  0
  3  2  1  0
  4 12  1  0
  5  6  1  0
  5  4  2  0
  6  7  1  0
  7 12  2  0
  7  8  1  0
  8  9  2  0
  9 10  1  0
 11 10  2  0
 12 11  1  0
 13 14  2  0
 13 15  1  0
 15 16  1  0
 16 17  1  0
 18 17  1  0
 19 20  1  1
 19 15  1  0
 19 18  1  0
 20 21  2  0
 22 20  1  0
 23 24  1  0
 23 22  1  0
 25 26  1  0
 25 24  1  0
 26 22  1  0
 26 27  1  1
 27 28  2  0
 27 29  1  0
M  END
$$$$
