KIC.pdb
     RDKit          3D

 24 23  0  0  1  0  0  0  0  0999 V2000
   26.5520  -21.4214  -13.2638 N   0  0  0  0  0  0  0  0  0  0  0  0
   25.5989  -20.5800  -12.6154 C   0  0  1  0  0  0  0  0  0  0  0  0
   24.3664  -20.2959  -13.3947 C   0  0  0  0  0  0  0  0  0  0  0  0
   24.5880  -19.8217  -14.7769 C   0  0  0  0  0  0  0  0  0  0  0  0
   24.3614  -18.3766  -15.0430 C   0  0  0  0  0  0  0  0  0  0  0  0
   24.4966  -18.0564  -16.5399 C   0  0  0  0  0  0  0  0  0  0  0  0
   24.1484  -16.6743  -16.7809 N   0  0  0  0  0  0  0  0  0  0  0  0
   25.3131  -21.1206  -11.2595 C   0  0  0  0  0  0  0  0  0  0  0  0
   25.1183  -22.3596  -11.0740 O   0  0  0  0  0  0  0  0  0  0  0  0
   27.8955  -18.9544   -7.0512 C   0  0  0  0  0  0  0  0  0  0  0  0
   27.1782  -19.9752   -7.8967 C   0  0  0  0  0  0  0  0  0  0  0  0
   25.6982  -19.9755   -7.7388 C   0  0  2  0  0  0  0  0  0  0  0  0
   25.3151  -20.4450   -6.3295 C   0  0  0  0  0  0  0  0  0  0  0  0
   24.9281  -20.7082   -8.7852 C   0  0  2  0  0  0  0  0  0  0  0  0
   25.2477  -20.2734  -10.1246 N   0  0  0  0  0  0  0  0  0  0  0  0
   23.4934  -20.8545   -8.5089 C   0  0  0  0  0  0  0  0  0  0  0  0
   22.6238  -20.0031   -8.8055 O   0  0  0  0  0  0  0  0  0  0  0  0
   23.0230  -22.0284   -7.8661 N   0  0  0  0  0  0  0  0  0  0  0  0
   21.6638  -22.2268   -7.5483 C   0  0  1  0  0  0  0  0  0  0  0  0
   21.1819  -23.5852   -7.2469 C   0  0  0  0  0  0  0  0  0  0  0  0
   19.4319  -23.7773   -6.9648 S   0  0  0  0  0  0  0  0  0  0  0  0
   21.2214  -21.1993   -6.5277 C   0  0  0  0  0  0  0  0  0  0  0  0
   21.9192  -20.9936   -5.3532 O   0  0  0  0  0  0  0  0  0  0  0  0
   20.2001  -20.5097   -6.7362 O   0  0  0  0  0  0  0  0  0  0  0  0
  2  1  1  6
  2  3  1  0
  4  3  1  0
  4  5  1  0
  5  6  1  0
  6  7  1  0
  8  9  2  0
  8  2  1  0
 10 11  1  0
 11 12  1  0
 12 14  1  0
 12 13  1  1
 14 15  1  6
 15  8  1  0
 16 18  1  0
 16 14  1  0
 17 16  2  0
 19 22  1  0
 19 18  1  0
 19 20  1  1
 20 21  1  0
 22 23  1  0
 24 22  2  0
M  END
$$$$
