KIC.pdb
     RDKit          3D

 24 23  0  0  1  0  0  0  0  0999 V2000
   15.3078  -10.6082  -12.2314 N   0  0  0  0  0  0  0  0  0  0  0  0
   16.1583   -9.5843  -11.7169 C   0  0  1  0  0  0  0  0  0  0  0  0
   17.1480   -9.0356  -12.6793 C   0  0  0  0  0  0  0  0  0  0  0  0
   17.9032  -10.0437  -13.4527 C   0  0  0  0  0  0  0  0  0  0  0  0
   18.8728   -9.5391  -14.4604 C   0  0  0  0  0  0  0  0  0  0  0  0
   19.5487  -10.6959  -15.2132 C   0  0  0  0  0  0  0  0  0  0  0  0
   20.5372  -10.1750  -16.1305 N   0  0  0  0  0  0  0  0  0  0  0  0
   15.3234   -8.5292  -11.0826 C   0  0  0  0  0  0  0  0  0  0  0  0
   14.2679   -8.1028  -11.6409 O   0  0  0  0  0  0  0  0  0  0  0  0
   12.3653   -9.0101   -7.1326 C   0  0  0  0  0  0  0  0  0  0  0  0
   13.1301   -8.4948   -8.3246 C   0  0  0  0  0  0  0  0  0  0  0  0
   14.1330   -7.4425   -8.0050 C   0  0  2  0  0  0  0  0  0  0  0  0
   13.4726   -6.3002   -7.2225 C   0  0  0  0  0  0  0  0  0  0  0  0
   14.9292   -6.9255   -9.1556 C   0  0  2  0  0  0  0  0  0  0  0  0
   15.6747   -7.9608   -9.8322 N   0  0  0  0  0  0  0  0  0  0  0  0
   15.6860   -5.6974   -8.8822 C   0  0  0  0  0  0  0  0  0  0  0  0
   16.7168   -5.6429   -8.1726 O   0  0  0  0  0  0  0  0  0  0  0  0
   15.2516   -4.4702   -9.4460 N   0  0  0  0  0  0  0  0  0  0  0  0
   15.9906   -3.2756   -9.3249 C   0  0  1  0  0  0  0  0  0  0  0  0
   16.4501   -2.5826  -10.5401 C   0  0  0  0  0  0  0  0  0  0  0  0
   16.7049   -3.5837  -11.9933 S   0  0  0  0  0  0  0  0  0  0  0  0
   15.3123   -2.3522   -8.3348 C   0  0  0  0  0  0  0  0  0  0  0  0
   15.9536   -1.2432   -7.8175 O   0  0  0  0  0  0  0  0  0  0  0  0
   14.1414   -2.5834   -7.9642 O   0  0  0  0  0  0  0  0  0  0  0  0
  2  1  1  6
  2  3  1  0
  4  3  1  0
  4  5  1  0
  5  6  1  0
  6  7  1  0
  8  9  2  0
  8  2  1  0
 10 11  1  0
 11 12  1  0
 12 14  1  0
 12 13  1  6
 14 15  1  1
 15  8  1  0
 16 18  1  0
 16 14  1  0
 17 16  2  0
 19 22  1  0
 19 18  1  0
 19 20  1  6
 20 21  1  0
 22 23  1  0
 24 22  2  0
M  END
$$$$
