KIC.pdb
     RDKit          3D

 24 23  0  0  1  0  0  0  0  0999 V2000
   24.9020  -19.4569  -13.0293 N   0  0  0  0  0  0  0  0  0  0  0  0
   25.3211  -20.8196  -12.9682 C   0  0  1  0  0  0  0  0  0  0  0  0
   26.7563  -21.0583  -13.2684 C   0  0  0  0  0  0  0  0  0  0  0  0
   27.1490  -20.8556  -14.6788 C   0  0  0  0  0  0  0  0  0  0  0  0
   26.4578  -21.6843  -15.7014 C   0  0  0  0  0  0  0  0  0  0  0  0
   26.9388  -21.3378  -17.1192 C   0  0  0  0  0  0  0  0  0  0  0  0
   28.1735  -22.0337  -17.4038 N   0  0  0  0  0  0  0  0  0  0  0  0
   24.8988  -21.4022  -11.6663 C   0  0  0  0  0  0  0  0  0  0  0  0
   25.1145  -22.6210  -11.3913 O   0  0  0  0  0  0  0  0  0  0  0  0
   26.4035  -19.3404   -7.2831 C   0  0  0  0  0  0  0  0  0  0  0  0
   25.8432  -20.3243   -8.2777 C   0  0  0  0  0  0  0  0  0  0  0  0
   24.3609  -20.4546   -8.2472 C   0  0  2  0  0  0  0  0  0  0  0  0
   23.9126  -21.1081   -6.9338 C   0  0  0  0  0  0  0  0  0  0  0  0
   23.7375  -21.1205   -9.4275 C   0  0  2  0  0  0  0  0  0  0  0  0
   24.2403  -20.6192  -10.6849 N   0  0  0  0  0  0  0  0  0  0  0  0
   22.2777  -21.2626   -9.3582 C   0  0  0  0  0  0  0  0  0  0  0  0
   21.4626  -20.3576   -9.6506 O   0  0  0  0  0  0  0  0  0  0  0  0
   21.7161  -22.4959   -8.9388 N   0  0  0  0  0  0  0  0  0  0  0  0
   20.3259  -22.7306   -8.9235 C   0  0  1  0  0  0  0  0  0  0  0  0
   19.7143  -23.5250  -10.0020 C   0  0  0  0  0  0  0  0  0  0  0  0
   17.9331  -23.5432  -10.0811 S   0  0  0  0  0  0  0  0  0  0  0  0
   19.8970  -23.1758   -7.5412 C   0  0  0  0  0  0  0  0  0  0  0  0
   18.6086  -22.9818   -7.0819 O   0  0  0  0  0  0  0  0  0  0  0  0
   20.7167  -23.7353   -6.7816 O   0  0  0  0  0  0  0  0  0  0  0  0
  2  1  1  1
  2  3  1  0
  4  3  1  0
  4  5  1  0
  5  6  1  0
  6  7  1  0
  8  9  2  0
  8  2  1  0
 10 11  1  0
 11 12  1  0
 12 14  1  0
 12 13  1  1
 14 15  1  6
 15  8  1  0
 16 18  1  0
 16 14  1  0
 17 16  2  0
 19 22  1  0
 19 18  1  0
 19 20  1  6
 20 21  1  0
 22 23  1  0
 24 22  2  0
M  END
$$$$
