KIC.pdb
     RDKit          3D

 24 23  0  0  1  0  0  0  0  0999 V2000
   20.4340  -20.0629  -13.1323 N   0  0  0  0  0  0  0  0  0  0  0  0
   21.4224  -21.0861  -13.2453 C   0  0  1  0  0  0  0  0  0  0  0  0
   21.4308  -21.8233  -14.5351 C   0  0  0  0  0  0  0  0  0  0  0  0
   20.4056  -22.8799  -14.6657 C   0  0  0  0  0  0  0  0  0  0  0  0
   19.0219  -22.5389  -14.2421 C   0  0  0  0  0  0  0  0  0  0  0  0
   17.9955  -22.9369  -15.3143 C   0  0  0  0  0  0  0  0  0  0  0  0
   17.5928  -24.3121  -15.1234 N   0  0  0  0  0  0  0  0  0  0  0  0
   22.7527  -20.5206  -12.8946 C   0  0  0  0  0  0  0  0  0  0  0  0
   23.0951  -19.3613  -13.2771 O   0  0  0  0  0  0  0  0  0  0  0  0
   24.4990  -20.4076   -7.9660 C   0  0  0  0  0  0  0  0  0  0  0  0
   24.2291  -20.2703   -9.4423 C   0  0  0  0  0  0  0  0  0  0  0  0
   25.2881  -20.8422  -10.3179 C   0  0  2  0  0  0  0  0  0  0  0  0
   26.6483  -20.2171   -9.9830 C   0  0  0  0  0  0  0  0  0  0  0  0
   25.0171  -20.8036  -11.7842 C   0  0  2  0  0  0  0  0  0  0  0  0
   23.6871  -21.2542  -12.1210 N   0  0  0  0  0  0  0  0  0  0  0  0
   26.0873  -21.3530  -12.6260 C   0  0  0  0  0  0  0  0  0  0  0  0
   26.6732  -22.4388  -12.4091 O   0  0  0  0  0  0  0  0  0  0  0  0
   26.5109  -20.6343  -13.7733 N   0  0  0  0  0  0  0  0  0  0  0  0
   26.9543  -21.2742  -14.9488 C   0  0  1  0  0  0  0  0  0  0  0  0
   26.2763  -22.4987  -15.4060 C   0  0  0  0  0  0  0  0  0  0  0  0
   27.3153  -23.8477  -15.9349 S   0  0  0  0  0  0  0  0  0  0  0  0
   27.1396  -20.2512  -16.0499 C   0  0  0  0  0  0  0  0  0  0  0  0
   28.2754  -20.2265  -16.8360 O   0  0  0  0  0  0  0  0  0  0  0  0
   26.2520  -19.3988  -16.2678 O   0  0  0  0  0  0  0  0  0  0  0  0
  2  1  1  6
  2  3  1  0
  4  3  1  0
  4  5  1  0
  5  6  1  0
  6  7  1  0
  8  9  2  0
  8  2  1  0
 10 11  1  0
 11 12  1  0
 12 14  1  0
 12 13  1  6
 14 15  1  1
 15  8  1  0
 16 18  1  0
 16 14  1  0
 17 16  2  0
 19 22  1  0
 19 18  1  0
 19 20  1  6
 20 21  1  0
 22 23  1  0
 24 22  2  0
M  END
$$$$
