KIC.pdb
     RDKit          3D

 24 23  0  0  1  0  0  0  0  0999 V2000
   23.1728  -15.4052  -18.8127 N   0  0  0  0  0  0  0  0  0  0  0  0
   23.5114  -14.0788  -19.2159 C   0  0  1  0  0  0  0  0  0  0  0  0
   22.6931  -13.5217  -20.3237 C   0  0  0  0  0  0  0  0  0  0  0  0
   22.6131  -14.3641  -21.5356 C   0  0  0  0  0  0  0  0  0  0  0  0
   21.8577  -13.8172  -22.6934 C   0  0  0  0  0  0  0  0  0  0  0  0
   21.8318  -14.8127  -23.8638 C   0  0  0  0  0  0  0  0  0  0  0  0
   21.3616  -16.1002  -23.4044 N   0  0  0  0  0  0  0  0  0  0  0  0
   23.5392  -13.1967  -18.0185 C   0  0  0  0  0  0  0  0  0  0  0  0
   22.6870  -13.3246  -17.0886 O   0  0  0  0  0  0  0  0  0  0  0  0
   28.1246  -12.3081  -15.4895 C   0  0  0  0  0  0  0  0  0  0  0  0
   26.6756  -12.4508  -15.8784 C   0  0  0  0  0  0  0  0  0  0  0  0
   25.9968  -11.1677  -16.2072 C   0  0  2  0  0  0  0  0  0  0  0  0
   26.0554  -10.2138  -15.0073 C   0  0  0  0  0  0  0  0  0  0  0  0
   24.6108  -11.2796  -16.7470 C   0  0  2  0  0  0  0  0  0  0  0  0
   24.5175  -12.1813  -17.8711 N   0  0  0  0  0  0  0  0  0  0  0  0
   23.9092  -10.0014  -16.9203 C   0  0  0  0  0  0  0  0  0  0  0  0
   24.1629   -9.1700  -17.8223 O   0  0  0  0  0  0  0  0  0  0  0  0
   22.8651   -9.6519  -16.0259 N   0  0  0  0  0  0  0  0  0  0  0  0
   22.1418   -8.4467  -16.1375 C   0  0  1  0  0  0  0  0  0  0  0  0
   20.8590   -8.4369  -16.8603 C   0  0  0  0  0  0  0  0  0  0  0  0
   19.8337   -6.9912  -16.6663 S   0  0  0  0  0  0  0  0  0  0  0  0
   22.0676   -7.7672  -14.7863 C   0  0  0  0  0  0  0  0  0  0  0  0
   22.0559   -6.3911  -14.6639 O   0  0  0  0  0  0  0  0  0  0  0  0
   22.0150   -8.4532  -13.7429 O   0  0  0  0  0  0  0  0  0  0  0  0
  2  1  1  1
  2  3  1  0
  4  3  1  0
  4  5  1  0
  5  6  1  0
  6  7  1  0
  8  9  2  0
  8  2  1  0
 10 11  1  0
 11 12  1  0
 12 14  1  0
 12 13  1  1
 14 15  1  6
 15  8  1  0
 16 18  1  0
 16 14  1  0
 17 16  2  0
 19 22  1  0
 19 18  1  0
 19 20  1  1
 20 21  1  0
 22 23  1  0
 24 22  2  0
M  END
$$$$
