KIC.pdb
     RDKit          3D

 24 23  0  0  1  0  0  0  0  0999 V2000
   25.5288  -21.2753  -13.7842 N   0  0  0  0  0  0  0  0  0  0  0  0
   24.5780  -20.4333  -13.1334 C   0  0  1  0  0  0  0  0  0  0  0  0
   23.4327  -19.9982  -13.9737 C   0  0  0  0  0  0  0  0  0  0  0  0
   23.7965  -19.3459  -15.2491 C   0  0  0  0  0  0  0  0  0  0  0  0
   24.0026  -20.2281  -16.4279 C   0  0  0  0  0  0  0  0  0  0  0  0
   24.1656  -19.4082  -17.7173 C   0  0  0  0  0  0  0  0  0  0  0  0
   25.5311  -18.9495  -17.8394 N   0  0  0  0  0  0  0  0  0  0  0  0
   24.1503  -21.0728  -11.8604 C   0  0  0  0  0  0  0  0  0  0  0  0
   23.8999  -22.3143  -11.8008 O   0  0  0  0  0  0  0  0  0  0  0  0
   26.6085  -20.7751   -7.6343 C   0  0  0  0  0  0  0  0  0  0  0  0
   25.6879  -19.8458   -8.3827 C   0  0  0  0  0  0  0  0  0  0  0  0
   24.2410  -20.1632   -8.2374 C   0  0  2  0  0  0  0  0  0  0  0  0
   23.9913  -20.9104   -6.9212 C   0  0  0  0  0  0  0  0  0  0  0  0
   23.6053  -20.8637   -9.3907 C   0  0  2  0  0  0  0  0  0  0  0  0
   24.0063  -20.3208  -10.6673 N   0  0  0  0  0  0  0  0  0  0  0  0
   22.1644  -21.1080   -9.2482 C   0  0  0  0  0  0  0  0  0  0  0  0
   21.2757  -20.2508   -9.4590 O   0  0  0  0  0  0  0  0  0  0  0  0
   21.7106  -22.3915   -8.8494 N   0  0  0  0  0  0  0  0  0  0  0  0
   20.3450  -22.6905   -8.6660 C   0  0  1  0  0  0  0  0  0  0  0  0
   19.6811  -23.6327   -9.5823 C   0  0  0  0  0  0  0  0  0  0  0  0
   17.9571  -23.9731   -9.2810 S   0  0  0  0  0  0  0  0  0  0  0  0
   20.0789  -22.9939   -7.2065 C   0  0  0  0  0  0  0  0  0  0  0  0
   18.8036  -22.9554   -6.6765 O   0  0  0  0  0  0  0  0  0  0  0  0
   21.0257  -23.2888   -6.4459 O   0  0  0  0  0  0  0  0  0  0  0  0
  2  1  1  6
  2  3  1  0
  4  3  1  0
  4  5  1  0
  5  6  1  0
  6  7  1  0
  8  9  2  0
  8  2  1  0
 10 11  1  0
 11 12  1  0
 12 14  1  0
 12 13  1  1
 14 15  1  6
 15  8  1  0
 16 18  1  0
 16 14  1  0
 17 16  2  0
 19 22  1  0
 19 18  1  0
 19 20  1  6
 20 21  1  0
 22 23  1  0
 24 22  2  0
M  END
$$$$
