KIC.pdb
     RDKit          3D

 24 23  0  0  1  0  0  0  0  0999 V2000
   23.0662  -16.1875  -17.3932 N   0  0  0  0  0  0  0  0  0  0  0  0
   23.0752  -14.8954  -17.9988 C   0  0  1  0  0  0  0  0  0  0  0  0
   21.9016  -14.5857  -18.8555 C   0  0  0  0  0  0  0  0  0  0  0  0
   21.6656  -15.5286  -19.9689 C   0  0  0  0  0  0  0  0  0  0  0  0
   20.6187  -15.1616  -20.9586 C   0  0  0  0  0  0  0  0  0  0  0  0
   20.4555  -16.2519  -22.0293 C   0  0  0  0  0  0  0  0  0  0  0  0
   19.4369  -15.8614  -22.9778 N   0  0  0  0  0  0  0  0  0  0  0  0
   23.3127  -13.8667  -16.9509 C   0  0  0  0  0  0  0  0  0  0  0  0
   22.7847  -13.9650  -15.8024 O   0  0  0  0  0  0  0  0  0  0  0  0
   28.0039  -12.5633  -15.2254 C   0  0  0  0  0  0  0  0  0  0  0  0
   26.5265  -12.7425  -15.4630 C   0  0  0  0  0  0  0  0  0  0  0  0
   25.8216  -11.5119  -15.9149 C   0  0  2  0  0  0  0  0  0  0  0  0
   26.0386  -10.3758  -14.9074 C   0  0  0  0  0  0  0  0  0  0  0  0
   24.3777  -11.6713  -16.2536 C   0  0  2  0  0  0  0  0  0  0  0  0
   24.1368  -12.7393  -17.1952 N   0  0  0  0  0  0  0  0  0  0  0  0
   23.6686  -10.4190  -16.5451 C   0  0  0  0  0  0  0  0  0  0  0  0
   23.9162   -9.6748  -17.5218 O   0  0  0  0  0  0  0  0  0  0  0  0
   22.6239   -9.9925  -15.6854 N   0  0  0  0  0  0  0  0  0  0  0  0
   21.8857   -8.8135  -15.9149 C   0  0  1  0  0  0  0  0  0  0  0  0
   20.4919   -8.9112  -16.3796 C   0  0  0  0  0  0  0  0  0  0  0  0
   19.9359  -10.5118  -16.9346 S   0  0  0  0  0  0  0  0  0  0  0  0
   22.0573   -7.8662  -14.7461 C   0  0  0  0  0  0  0  0  0  0  0  0
   22.6598   -8.2656  -13.5687 O   0  0  0  0  0  0  0  0  0  0  0  0
   21.6493   -6.6879  -14.8304 O   0  0  0  0  0  0  0  0  0  0  0  0
  2  1  1  1
  2  3  1  0
  4  3  1  0
  4  5  1  0
  5  6  1  0
  6  7  1  0
  8  9  2  0
  8  2  1  0
 10 11  1  0
 11 12  1  0
 12 14  1  0
 12 13  1  1
 14 15  1  6
 15  8  1  0
 16 18  1  0
 16 14  1  0
 17 16  2  0
 19 22  1  0
 19 18  1  0
 19 20  1  1
 20 21  1  0
 22 23  1  0
 24 22  2  0
M  END
$$$$
