KIC.pdb
     RDKit          3D

 24 23  0  0  1  0  0  0  0  0999 V2000
   23.5834  -16.6820  -15.4259 N   0  0  0  0  0  0  0  0  0  0  0  0
   23.1977  -15.5553  -16.2122 C   0  0  1  0  0  0  0  0  0  0  0  0
   21.7459  -15.4542  -16.5105 C   0  0  0  0  0  0  0  0  0  0  0  0
   21.0111  -16.7367  -16.5159 C   0  0  0  0  0  0  0  0  0  0  0  0
   20.5015  -17.2213  -17.8257 C   0  0  0  0  0  0  0  0  0  0  0  0
   19.7235  -18.5374  -17.6700 C   0  0  0  0  0  0  0  0  0  0  0  0
   19.2191  -18.9658  -18.9553 N   0  0  0  0  0  0  0  0  0  0  0  0
   23.7481  -14.3184  -15.5958 C   0  0  0  0  0  0  0  0  0  0  0  0
   23.7241  -14.1435  -14.3403 O   0  0  0  0  0  0  0  0  0  0  0  0
   28.6104  -13.0819  -15.7865 C   0  0  0  0  0  0  0  0  0  0  0  0
   27.1305  -13.1449  -15.5089 C   0  0  0  0  0  0  0  0  0  0  0  0
   26.3566  -11.9839  -16.0272 C   0  0  2  0  0  0  0  0  0  0  0  0
   26.9136  -10.6756  -15.4518 C   0  0  0  0  0  0  0  0  0  0  0  0
   24.8753  -12.0613  -15.8696 C   0  0  2  0  0  0  0  0  0  0  0  0
   24.3195  -13.2898  -16.3865 N   0  0  0  0  0  0  0  0  0  0  0  0
   24.1479  -10.8447  -16.2526 C   0  0  0  0  0  0  0  0  0  0  0  0
   23.9474  -10.4810  -17.4344 O   0  0  0  0  0  0  0  0  0  0  0  0
   23.6192  -10.0008  -15.2423 N   0  0  0  0  0  0  0  0  0  0  0  0
   22.8002   -8.8906  -15.5327 C   0  0  1  0  0  0  0  0  0  0  0  0
   21.9768   -8.2996  -14.4644 C   0  0  0  0  0  0  0  0  0  0  0  0
   21.4622   -9.3853  -13.1471 S   0  0  0  0  0  0  0  0  0  0  0  0
   23.5910   -7.8607  -16.3119 C   0  0  0  0  0  0  0  0  0  0  0  0
   22.9785   -6.9785  -17.1808 O   0  0  0  0  0  0  0  0  0  0  0  0
   24.8317   -7.7922  -16.1782 O   0  0  0  0  0  0  0  0  0  0  0  0
  2  1  1  1
  2  3  1  0
  4  3  1  0
  4  5  1  0
  5  6  1  0
  6  7  1  0
  8  9  2  0
  8  2  1  0
 10 11  1  0
 11 12  1  0
 12 14  1  0
 12 13  1  1
 14 15  1  6
 15  8  1  0
 16 18  1  0
 16 14  1  0
 17 16  2  0
 19 22  1  0
 19 18  1  0
 19 20  1  1
 20 21  1  0
 22 23  1  0
 24 22  2  0
M  END
$$$$
