KIC.pdb
     RDKit          3D

 24 23  0  0  1  0  0  0  0  0999 V2000
   22.6436  -15.3926  -17.7273 N   0  0  0  0  0  0  0  0  0  0  0  0
   22.9082  -14.1453  -18.3684 C   0  0  1  0  0  0  0  0  0  0  0  0
   21.9493  -13.7625  -19.4365 C   0  0  0  0  0  0  0  0  0  0  0  0
   21.7564  -14.7680  -20.5025 C   0  0  0  0  0  0  0  0  0  0  0  0
   20.4398  -15.4563  -20.5558 C   0  0  0  0  0  0  0  0  0  0  0  0
   20.3516  -16.4003  -21.7653 C   0  0  0  0  0  0  0  0  0  0  0  0
   19.0334  -16.9896  -21.8345 N   0  0  0  0  0  0  0  0  0  0  0  0
   23.0716  -13.0895  -17.3334 C   0  0  0  0  0  0  0  0  0  0  0  0
   22.3465  -13.0714  -16.2934 O   0  0  0  0  0  0  0  0  0  0  0  0
   27.8998  -11.9888  -15.5309 C   0  0  0  0  0  0  0  0  0  0  0  0
   26.4155  -12.1384  -15.7450 C   0  0  0  0  0  0  0  0  0  0  0  0
   25.7204  -10.8827  -16.1392 C   0  0  2  0  0  0  0  0  0  0  0  0
   25.9285   -9.8028  -15.0698 C   0  0  0  0  0  0  0  0  0  0  0  0
   24.2803  -11.0181  -16.5037 C   0  0  2  0  0  0  0  0  0  0  0  0
   24.0420  -12.0650  -17.4693 N   0  0  0  0  0  0  0  0  0  0  0  0
   23.5909   -9.7519  -16.7823 C   0  0  0  0  0  0  0  0  0  0  0  0
   23.8702   -8.9871  -17.7341 O   0  0  0  0  0  0  0  0  0  0  0  0
   22.5290   -9.3357  -15.9389 N   0  0  0  0  0  0  0  0  0  0  0  0
   21.7070   -8.2311  -16.2425 C   0  0  1  0  0  0  0  0  0  0  0  0
   20.2436   -8.3944  -16.2354 C   0  0  0  0  0  0  0  0  0  0  0  0
   19.6075   -9.9964  -16.6912 S   0  0  0  0  0  0  0  0  0  0  0  0
   22.1732   -7.0174  -15.4662 C   0  0  0  0  0  0  0  0  0  0  0  0
   23.1440   -7.1088  -14.4875 O   0  0  0  0  0  0  0  0  0  0  0  0
   21.6779   -5.8947  -15.7034 O   0  0  0  0  0  0  0  0  0  0  0  0
  2  1  1  1
  2  3  1  0
  4  3  1  0
  4  5  1  0
  5  6  1  0
  6  7  1  0
  8  9  2  0
  8  2  1  0
 10 11  1  0
 11 12  1  0
 12 14  1  0
 12 13  1  1
 14 15  1  6
 15  8  1  0
 16 18  1  0
 16 14  1  0
 17 16  2  0
 19 22  1  0
 19 18  1  0
 19 20  1  1
 20 21  1  0
 22 23  1  0
 24 22  2  0
M  END
$$$$
