KIC.pdb
     RDKit          3D

 24 23  0  0  1  0  0  0  0  0999 V2000
   28.0740  -22.4097  -15.7602 N   0  0  0  0  0  0  0  0  0  0  0  0
   27.2059  -21.2871  -15.6093 C   0  0  1  0  0  0  0  0  0  0  0  0
   26.7061  -20.6940  -16.8764 C   0  0  0  0  0  0  0  0  0  0  0  0
   27.7486  -20.1653  -17.7809 C   0  0  0  0  0  0  0  0  0  0  0  0
   28.2505  -18.7926  -17.5087 C   0  0  0  0  0  0  0  0  0  0  0  0
   29.3099  -18.3708  -18.5390 C   0  0  0  0  0  0  0  0  0  0  0  0
   29.7193  -17.0063  -18.2934 N   0  0  0  0  0  0  0  0  0  0  0  0
   26.1114  -21.6397  -14.6656 C   0  0  0  0  0  0  0  0  0  0  0  0
   25.4100  -22.6825  -14.8334 O   0  0  0  0  0  0  0  0  0  0  0  0
   26.5839  -20.7492   -9.2681 C   0  0  0  0  0  0  0  0  0  0  0  0
   26.1853  -21.3120  -10.6081 C   0  0  0  0  0  0  0  0  0  0  0  0
   25.0188  -20.6355  -11.2380 C   0  0  2  0  0  0  0  0  0  0  0  0
   23.7856  -20.7521  -10.3332 C   0  0  0  0  0  0  0  0  0  0  0  0
   24.7061  -21.0389  -12.6397 C   0  0  2  0  0  0  0  0  0  0  0  0
   25.8110  -20.8254  -13.5447 N   0  0  0  0  0  0  0  0  0  0  0  0
   23.4022  -20.5838  -13.1383 C   0  0  0  0  0  0  0  0  0  0  0  0
   23.1361  -19.4001  -13.4497 O   0  0  0  0  0  0  0  0  0  0  0  0
   22.3489  -21.5213  -13.2937 N   0  0  0  0  0  0  0  0  0  0  0  0
   21.0873  -21.1661  -13.8133 C   0  0  1  0  0  0  0  0  0  0  0  0
   20.4980  -21.9711  -14.8963 C   0  0  0  0  0  0  0  0  0  0  0  0
   18.8175  -21.5959  -15.3589 S   0  0  0  0  0  0  0  0  0  0  0  0
   20.1219  -20.9010  -12.6772 C   0  0  0  0  0  0  0  0  0  0  0  0
   19.1375  -19.9360  -12.7696 O   0  0  0  0  0  0  0  0  0  0  0  0
   20.2025  -21.5629  -11.6202 O   0  0  0  0  0  0  0  0  0  0  0  0
  2  1  1  6
  2  3  1  0
  4  3  1  0
  4  5  1  0
  5  6  1  0
  6  7  1  0
  8  9  2  0
  8  2  1  0
 10 11  1  0
 11 12  1  0
 12 14  1  0
 12 13  1  1
 14 15  1  6
 15  8  1  0
 16 18  1  0
 16 14  1  0
 17 16  2  0
 19 22  1  0
 19 18  1  0
 19 20  1  6
 20 21  1  0
 22 23  1  0
 24 22  2  0
M  END
$$$$
