KIC.pdb
     RDKit          3D

 24 23  0  0  1  0  0  0  0  0999 V2000
   20.8841  -20.8030  -12.5931 N   0  0  0  0  0  0  0  0  0  0  0  0
   21.9196  -21.2872  -13.4473 C   0  0  1  0  0  0  0  0  0  0  0  0
   21.6301  -21.2152  -14.9027 C   0  0  0  0  0  0  0  0  0  0  0  0
   20.6184  -22.1743  -15.3938 C   0  0  0  0  0  0  0  0  0  0  0  0
   19.2235  -21.6787  -15.5305 C   0  0  0  0  0  0  0  0  0  0  0  0
   18.2067  -22.7446  -15.0928 C   0  0  0  0  0  0  0  0  0  0  0  0
   17.7608  -23.5004  -16.2417 N   0  0  0  0  0  0  0  0  0  0  0  0
   23.2024  -20.6295  -13.0805 C   0  0  0  0  0  0  0  0  0  0  0  0
   23.3366  -19.3703  -13.1442 O   0  0  0  0  0  0  0  0  0  0  0  0
   25.2021  -20.5395   -8.4760 C   0  0  0  0  0  0  0  0  0  0  0  0
   24.8791  -20.3846   -9.9398 C   0  0  0  0  0  0  0  0  0  0  0  0
   25.9245  -20.9093  -10.8602 C   0  0  2  0  0  0  0  0  0  0  0  0
   27.2820  -20.2702  -10.5408 C   0  0  0  0  0  0  0  0  0  0  0  0
   25.6143  -20.8297  -12.3171 C   0  0  2  0  0  0  0  0  0  0  0  0
   24.3219  -21.3832  -12.6466 N   0  0  0  0  0  0  0  0  0  0  0  0
   26.7079  -21.2418  -13.2060 C   0  0  0  0  0  0  0  0  0  0  0  0
   27.5474  -22.1302  -12.9323 O   0  0  0  0  0  0  0  0  0  0  0  0
   26.8528  -20.6153  -14.4704 N   0  0  0  0  0  0  0  0  0  0  0  0
   27.3992  -21.2788  -15.5880 C   0  0  1  0  0  0  0  0  0  0  0  0
   27.0443  -22.6856  -15.8393 C   0  0  0  0  0  0  0  0  0  0  0  0
   28.3388  -23.7484  -16.4506 S   0  0  0  0  0  0  0  0  0  0  0  0
   27.2681  -20.4042  -16.8173 C   0  0  0  0  0  0  0  0  0  0  0  0
   28.2328  -20.3902  -17.8061 O   0  0  0  0  0  0  0  0  0  0  0  0
   26.2674  -19.6689  -16.9582 O   0  0  0  0  0  0  0  0  0  0  0  0
  2  1  1  1
  2  3  1  0
  4  3  1  0
  4  5  1  0
  5  6  1  0
  6  7  1  0
  8  9  2  0
  8  2  1  0
 10 11  1  0
 11 12  1  0
 12 14  1  0
 12 13  1  6
 14 15  1  1
 15  8  1  0
 16 18  1  0
 16 14  1  0
 17 16  2  0
 19 22  1  0
 19 18  1  0
 19 20  1  6
 20 21  1  0
 22 23  1  0
 24 22  2  0
M  END
$$$$
