KIC.pdb
     RDKit          3D

 24 23  0  0  1  0  0  0  0  0999 V2000
   27.9481  -22.9176  -18.3506 N   0  0  0  0  0  0  0  0  0  0  0  0
   28.1267  -23.2635  -16.9776 C   0  0  1  0  0  0  0  0  0  0  0  0
   29.5360  -23.4518  -16.5467 C   0  0  0  0  0  0  0  0  0  0  0  0
   30.1426  -24.7473  -16.9183 C   0  0  0  0  0  0  0  0  0  0  0  0
   29.3895  -25.5995  -17.8759 C   0  0  0  0  0  0  0  0  0  0  0  0
   30.1552  -26.8934  -18.1938 C   0  0  0  0  0  0  0  0  0  0  0  0
   31.2751  -27.0369  -17.2909 N   0  0  0  0  0  0  0  0  0  0  0  0
   27.3885  -22.2902  -16.1289 C   0  0  0  0  0  0  0  0  0  0  0  0
   27.4267  -22.3608  -14.8636 O   0  0  0  0  0  0  0  0  0  0  0  0
   28.1299  -17.3301  -17.1400 C   0  0  0  0  0  0  0  0  0  0  0  0
   27.7531  -18.5689  -16.3690 C   0  0  0  0  0  0  0  0  0  0  0  0
   26.2923  -18.8517  -16.3330 C   0  0  2  0  0  0  0  0  0  0  0  0
   25.5714  -17.8100  -15.4679 C   0  0  0  0  0  0  0  0  0  0  0  0
   25.9032  -20.2402  -15.9514 C   0  0  2  0  0  0  0  0  0  0  0  0
   26.6154  -21.2484  -16.7007 N   0  0  0  0  0  0  0  0  0  0  0  0
   24.4574  -20.4664  -15.8303 C   0  0  0  0  0  0  0  0  0  0  0  0
   23.6742  -20.5827  -16.8009 O   0  0  0  0  0  0  0  0  0  0  0  0
   23.8730  -20.5688  -14.5417 N   0  0  0  0  0  0  0  0  0  0  0  0
   22.4932  -20.7860  -14.3493 C   0  0  1  0  0  0  0  0  0  0  0  0
   22.0181  -21.3277  -13.0651 C   0  0  0  0  0  0  0  0  0  0  0  0
   20.2532  -21.4520  -12.8445 S   0  0  0  0  0  0  0  0  0  0  0  0
   21.7150  -19.5697  -14.8054 C   0  0  0  0  0  0  0  0  0  0  0  0
   22.1776  -18.2864  -14.5870 O   0  0  0  0  0  0  0  0  0  0  0  0
   20.6231  -19.7111  -15.3968 O   0  0  0  0  0  0  0  0  0  0  0  0
  2  1  1  6
  2  3  1  0
  4  3  1  0
  4  5  1  0
  5  6  1  0
  6  7  1  0
  8  9  2  0
  8  2  1  0
 10 11  1  0
 11 12  1  0
 12 14  1  0
 12 13  1  1
 14 15  1  6
 15  8  1  0
 16 18  1  0
 16 14  1  0
 17 16  2  0
 19 22  1  0
 19 18  1  0
 19 20  1  1
 20 21  1  0
 22 23  1  0
 24 22  2  0
M  END
$$$$
