KIC.pdb
     RDKit          3D

 24 23  0  0  1  0  0  0  0  0999 V2000
   26.8288  -23.9705  -17.4797 N   0  0  0  0  0  0  0  0  0  0  0  0
   26.0875  -25.0358  -16.8863 C   0  0  1  0  0  0  0  0  0  0  0  0
   26.9036  -26.1351  -16.3096 C   0  0  0  0  0  0  0  0  0  0  0  0
   27.6589  -26.9428  -17.2902 C   0  0  0  0  0  0  0  0  0  0  0  0
   28.5589  -27.9966  -16.7518 C   0  0  0  0  0  0  0  0  0  0  0  0
   29.3338  -28.6982  -17.8782 C   0  0  0  0  0  0  0  0  0  0  0  0
   30.1620  -29.7468  -17.3265 N   0  0  0  0  0  0  0  0  0  0  0  0
   25.1120  -24.4706  -15.9161 C   0  0  0  0  0  0  0  0  0  0  0  0
   25.3172  -23.3527  -15.3540 O   0  0  0  0  0  0  0  0  0  0  0  0
   22.7857  -20.9184  -16.0865 C   0  0  0  0  0  0  0  0  0  0  0  0
   23.3374  -22.2268  -15.5816 C   0  0  0  0  0  0  0  0  0  0  0  0
   22.3244  -23.3077  -15.4372 C   0  0  2  0  0  0  0  0  0  0  0  0
   21.0909  -22.7827  -14.6915 C   0  0  0  0  0  0  0  0  0  0  0  0
   22.8127  -24.5884  -14.8485 C   0  0  2  0  0  0  0  0  0  0  0  0
   23.9178  -25.1581  -15.5830 N   0  0  0  0  0  0  0  0  0  0  0  0
   21.7584  -25.5417  -14.4804 C   0  0  0  0  0  0  0  0  0  0  0  0
   20.9783  -26.0858  -15.2955 O   0  0  0  0  0  0  0  0  0  0  0  0
   21.5840  -25.8971  -13.1182 N   0  0  0  0  0  0  0  0  0  0  0  0
   20.6868  -26.9033  -12.7052 C   0  0  1  0  0  0  0  0  0  0  0  0
   20.9120  -27.5920  -11.4233 C   0  0  0  0  0  0  0  0  0  0  0  0
   22.1517  -28.8733  -11.4016 S   0  0  0  0  0  0  0  0  0  0  0  0
   19.2618  -26.4213  -12.8784 C   0  0  0  0  0  0  0  0  0  0  0  0
   18.2564  -27.2644  -13.3110 O   0  0  0  0  0  0  0  0  0  0  0  0
   18.9686  -25.2325  -12.6282 O   0  0  0  0  0  0  0  0  0  0  0  0
  2  1  1  1
  2  3  1  0
  4  3  1  0
  4  5  1  0
  5  6  1  0
  6  7  1  0
  8  9  2  0
  8  2  1  0
 10 11  1  0
 11 12  1  0
 12 14  1  0
 12 13  1  1
 14 15  1  6
 15  8  1  0
 16 18  1  0
 16 14  1  0
 17 16  2  0
 19 22  1  0
 19 18  1  0
 19 20  1  1
 20 21  1  0
 22 23  1  0
 24 22  2  0
M  END
$$$$
