KIC.pdb
     RDKit          3D

 24 23  0  0  1  0  0  0  0  0999 V2000
   20.0932  -12.3425  -15.8082 N   0  0  0  0  0  0  0  0  0  0  0  0
   19.7728  -11.0745  -16.3794 C   0  0  1  0  0  0  0  0  0  0  0  0
   18.3348  -10.7036  -16.3398 C   0  0  0  0  0  0  0  0  0  0  0  0
   17.4135  -11.6780  -16.9612 C   0  0  0  0  0  0  0  0  0  0  0  0
   16.4679  -12.3880  -16.0601 C   0  0  0  0  0  0  0  0  0  0  0  0
   15.5301  -13.3131  -16.8515 C   0  0  0  0  0  0  0  0  0  0  0  0
   14.7534  -14.1229  -15.9400 N   0  0  0  0  0  0  0  0  0  0  0  0
   20.6541  -10.0344  -15.7844 C   0  0  0  0  0  0  0  0  0  0  0  0
   20.9764  -10.0693  -14.5587 O   0  0  0  0  0  0  0  0  0  0  0  0
   25.4147   -9.3720  -17.4474 C   0  0  0  0  0  0  0  0  0  0  0  0
   24.0755   -9.3481  -16.7566 C   0  0  0  0  0  0  0  0  0  0  0  0
   23.4133   -8.0152  -16.7426 C   0  0  2  0  0  0  0  0  0  0  0  0
   24.3668   -6.9548  -16.1774 C   0  0  0  0  0  0  0  0  0  0  0  0
   22.0775   -7.9545  -16.0815 C   0  0  2  0  0  0  0  0  0  0  0  0
   21.1666   -8.9662  -16.5631 N   0  0  0  0  0  0  0  0  0  0  0  0
   21.5027   -6.6079  -15.9705 C   0  0  0  0  0  0  0  0  0  0  0  0
   21.0791   -5.9358  -16.9389 O   0  0  0  0  0  0  0  0  0  0  0  0
   21.4013   -5.9957  -14.6948 N   0  0  0  0  0  0  0  0  0  0  0  0
   20.8843   -4.6964  -14.5155 C   0  0  1  0  0  0  0  0  0  0  0  0
   19.6311   -4.5135  -13.7643 C   0  0  0  0  0  0  0  0  0  0  0  0
   19.1746   -2.8405  -13.3499 S   0  0  0  0  0  0  0  0  0  0  0  0
   21.9887   -3.7635  -14.0648 C   0  0  0  0  0  0  0  0  0  0  0  0
   22.1188   -2.4882  -14.5799 O   0  0  0  0  0  0  0  0  0  0  0  0
   22.8137   -4.1399  -13.2049 O   0  0  0  0  0  0  0  0  0  0  0  0
  2  1  1  1
  2  3  1  0
  4  3  1  0
  4  5  1  0
  5  6  1  0
  6  7  1  0
  8  9  2  0
  8  2  1  0
 10 11  1  0
 11 12  1  0
 12 14  1  0
 12 13  1  1
 14 15  1  6
 15  8  1  0
 16 18  1  0
 16 14  1  0
 17 16  2  0
 19 22  1  0
 19 18  1  0
 19 20  1  1
 20 21  1  0
 22 23  1  0
 24 22  2  0
M  END
$$$$
