IWD.pdb
     RDKit          3D

 31 32  0  0  1  0  0  0  0  0999 V2000
    8.9009  -14.6208   15.4846 C   0  0  0  0  0  0  0  0  0  0  0  0
    8.2409  -15.4781   16.5439 C   0  0  0  0  0  0  0  0  0  0  0  0
    8.7727  -15.2250   17.9276 C   0  0  2  0  0  0  0  0  0  0  0  0
    8.9452  -16.5088   18.7132 C   0  0  0  0  0  0  0  0  0  0  0  0
    7.9019  -14.2957   18.7272 C   0  0  2  0  0  0  0  0  0  0  0  0
    7.9683  -12.9227   18.2259 N   0  0  0  0  0  0  0  0  0  0  0  0
    8.2104  -14.3028   20.1654 C   0  0  0  0  0  0  0  0  0  0  0  0
    9.2207  -13.6909   20.6024 O   0  0  0  0  0  0  0  0  0  0  0  0
    7.4163  -14.9828   21.1568 N   0  0  0  0  0  0  0  0  0  0  0  0
    7.7546  -14.9603   22.5474 C   0  0  1  0  0  0  0  0  0  0  0  0
    6.5763  -15.1007   23.4868 C   0  0  0  0  0  0  0  0  0  0  0  0
    6.9343  -14.9770   24.9146 C   0  0  0  0  0  0  0  0  0  0  0  0
    7.2681  -16.0125   25.7762 C   0  0  0  0  0  0  0  0  0  0  0  0
    7.5546  -15.4831   26.9717 N   0  0  0  0  0  0  0  0  0  0  0  0
    7.4131  -14.1342   26.9000 C   0  0  0  0  0  0  0  0  0  0  0  0
    7.5741  -13.1229   27.8212 C   0  0  0  0  0  0  0  0  0  0  0  0
    7.3564  -11.7976   27.4943 C   0  0  0  0  0  0  0  0  0  0  0  0
    6.9713  -11.4747   26.2273 C   0  0  0  0  0  0  0  0  0  0  0  0
    6.8062  -12.4626   25.2979 C   0  0  0  0  0  0  0  0  0  0  0  0
    7.0254  -13.8021   25.6217 C   0  0  0  0  0  0  0  0  0  0  0  0
    8.6973  -16.0596   22.8439 C   0  0  0  0  0  0  0  0  0  0  0  0
    8.4436  -17.2415   22.4827 O   0  0  0  0  0  0  0  0  0  0  0  0
    9.8860  -15.7743   23.5356 N   0  0  0  0  0  0  0  0  0  0  0  0
   10.8553  -16.7885   23.9355 C   0  0  1  0  0  0  0  0  0  0  0  0
   12.2577  -16.3576   23.5696 C   0  0  0  0  0  0  0  0  0  0  0  0
   12.6328  -16.5750   22.1780 C   0  0  0  0  0  0  0  0  0  0  0  0
   12.3838  -17.6980   21.6546 O   0  0  0  0  0  0  0  0  0  0  0  0
   10.6849  -17.1410   25.3600 C   0  0  0  0  0  0  0  0  0  0  0  0
    9.8951  -16.4466   26.0559 O   0  0  0  0  0  0  0  0  0  0  0  0
   13.2526  -15.6290   21.3732 O   0  0  0  0  0  0  0  0  0  0  0  0
   11.3272  -18.1828   26.0015 O   0  0  0  0  0  0  0  0  0  0  0  0
  2  3  1  0
  2  1  1  0
  3  4  1  1
  5  6  1  6
  5  3  1  0
  7  8  2  0
  7  5  1  0
  9  7  1  0
 10 21  1  0
 10  9  1  0
 10 11  1  1
 12 11  1  0
 13 12  2  0
 14 13  1  0
 15 14  1  0
 15 20  2  0
 16 15  1  0
 17 16  2  0
 17 18  1  0
 18 19  2  0
 19 20  1  0
 20 12  1  0
 21 23  1  0
 22 21  2  0
 23 24  1  0
 24 28  1  0
 25 26  1  0
 24 25  1  1
 26 30  1  0
 27 26  2  0
 28 29  2  0
 28 31  1  0
M  END
$$$$
