IWD.pdb
     RDKit          3D

 31 32  0  0  1  0  0  0  0  0999 V2000
    7.8829  -16.0306   16.9015 C   0  0  0  0  0  0  0  0  0  0  0  0
    7.1320  -16.1146   18.2137 C   0  0  0  0  0  0  0  0  0  0  0  0
    7.9024  -15.5492   19.3748 C   0  0  2  0  0  0  0  0  0  0  0  0
    9.3074  -16.1106   19.4515 C   0  0  0  0  0  0  0  0  0  0  0  0
    7.2260  -15.7880   20.6965 C   0  0  2  0  0  0  0  0  0  0  0  0
    5.9601  -15.0615   20.7983 N   0  0  0  0  0  0  0  0  0  0  0  0
    8.0722  -15.4530   21.8520 C   0  0  0  0  0  0  0  0  0  0  0  0
    8.4521  -14.2670   22.0398 O   0  0  0  0  0  0  0  0  0  0  0  0
    8.5213  -16.4133   22.8277 N   0  0  0  0  0  0  0  0  0  0  0  0
    9.3640  -16.0449   23.9245 C   0  0  1  0  0  0  0  0  0  0  0  0
    8.7662  -16.2939   25.2924 C   0  0  0  0  0  0  0  0  0  0  0  0
    7.6014  -15.4385   25.5983 C   0  0  0  0  0  0  0  0  0  0  0  0
    6.2659  -15.8145   25.5576 C   0  0  0  0  0  0  0  0  0  0  0  0
    5.5262  -14.7632   25.9306 N   0  0  0  0  0  0  0  0  0  0  0  0
    6.3522  -13.7217   26.2094 C   0  0  0  0  0  0  0  0  0  0  0  0
    6.1250  -12.4277   26.6232 C   0  0  0  0  0  0  0  0  0  0  0  0
    7.1610  -11.5376   26.8354 C   0  0  0  0  0  0  0  0  0  0  0  0
    8.4459  -11.9443   26.6313 C   0  0  0  0  0  0  0  0  0  0  0  0
    8.6935  -13.2238   26.2210 C   0  0  0  0  0  0  0  0  0  0  0  0
    7.6518  -14.1272   26.0062 C   0  0  0  0  0  0  0  0  0  0  0  0
   10.6333  -16.7987   23.8465 C   0  0  0  0  0  0  0  0  0  0  0  0
   10.6454  -18.0042   23.4745 O   0  0  0  0  0  0  0  0  0  0  0  0
   11.8335  -16.1562   24.1921 N   0  0  0  0  0  0  0  0  0  0  0  0
   13.1453  -16.7892   24.1103 C   0  0  1  0  0  0  0  0  0  0  0  0
   14.1834  -15.8012   23.6282 C   0  0  0  0  0  0  0  0  0  0  0  0
   15.5270  -16.3412   23.4617 C   0  0  0  0  0  0  0  0  0  0  0  0
   15.7006  -17.5838   23.6131 O   0  0  0  0  0  0  0  0  0  0  0  0
   13.4875  -17.4489   25.3870 C   0  0  0  0  0  0  0  0  0  0  0  0
   12.9993  -16.9793   26.4507 O   0  0  0  0  0  0  0  0  0  0  0  0
   16.6461  -15.5831   23.1463 O   0  0  0  0  0  0  0  0  0  0  0  0
   14.3084  -18.5531   25.5141 O   0  0  0  0  0  0  0  0  0  0  0  0
  2  3  1  0
  2  1  1  0
  3  4  1  1
  5  6  1  6
  5  3  1  0
  7  8  2  0
  7  5  1  0
  9  7  1  0
 10 21  1  0
 10  9  1  0
 10 11  1  1
 12 11  1  0
 13 12  2  0
 14 13  1  0
 15 14  1  0
 15 20  2  0
 16 15  1  0
 17 16  2  0
 17 18  1  0
 18 19  2  0
 19 20  1  0
 20 12  1  0
 21 23  1  0
 22 21  2  0
 23 24  1  0
 24 28  1  0
 25 26  1  0
 24 25  1  1
 26 30  1  0
 27 26  2  0
 28 29  2  0
 28 31  1  0
M  END
$$$$
