IWD.pdb
     RDKit          3D

 31 32  0  0  1  0  0  0  0  0999 V2000
    8.0102  -18.0197   17.0666 C   0  0  0  0  0  0  0  0  0  0  0  0
    7.2770  -17.5109   18.2898 C   0  0  0  0  0  0  0  0  0  0  0  0
    8.1861  -16.8706   19.3022 C   0  0  2  0  0  0  0  0  0  0  0  0
    9.3847  -17.7408   19.6198 C   0  0  0  0  0  0  0  0  0  0  0  0
    7.4855  -16.5432   20.5920 C   0  0  2  0  0  0  0  0  0  0  0  0
    6.3687  -15.6211   20.3850 N   0  0  0  0  0  0  0  0  0  0  0  0
    8.3842  -15.9945   21.6191 C   0  0  0  0  0  0  0  0  0  0  0  0
    9.0638  -14.9608   21.3833 O   0  0  0  0  0  0  0  0  0  0  0  0
    8.5574  -16.5691   22.9289 N   0  0  0  0  0  0  0  0  0  0  0  0
    9.4602  -16.0117   23.8898 C   0  0  1  0  0  0  0  0  0  0  0  0
    8.9800  -16.0825   25.3234 C   0  0  0  0  0  0  0  0  0  0  0  0
    7.7274  -15.3393   25.5697 C   0  0  0  0  0  0  0  0  0  0  0  0
    6.4401  -15.8575   25.5456 C   0  0  0  0  0  0  0  0  0  0  0  0
    5.5885  -14.8703   25.8488 N   0  0  0  0  0  0  0  0  0  0  0  0
    6.2959  -13.7315   26.0667 C   0  0  0  0  0  0  0  0  0  0  0  0
    5.9276  -12.4464   26.3982 C   0  0  0  0  0  0  0  0  0  0  0  0
    6.8607  -11.4394   26.5601 C   0  0  0  0  0  0  0  0  0  0  0  0
    8.1838  -11.7182   26.3881 C   0  0  0  0  0  0  0  0  0  0  0  0
    8.5707  -12.9868   26.0594 C   0  0  0  0  0  0  0  0  0  0  0  0
    7.6335  -14.0076   25.8957 C   0  0  0  0  0  0  0  0  0  0  0  0
   10.7568  -16.7179   23.8164 C   0  0  0  0  0  0  0  0  0  0  0  0
   10.8022  -17.9651   23.6314 O   0  0  0  0  0  0  0  0  0  0  0  0
   11.9456  -15.9827   23.9549 N   0  0  0  0  0  0  0  0  0  0  0  0
   13.2779  -16.5680   23.8536 C   0  0  1  0  0  0  0  0  0  0  0  0
   14.2432  -15.5879   23.2260 C   0  0  0  0  0  0  0  0  0  0  0  0
   15.6200  -16.0535   23.1162 C   0  0  0  0  0  0  0  0  0  0  0  0
   15.8803  -16.9783   22.2951 O   0  0  0  0  0  0  0  0  0  0  0  0
   13.7181  -17.0943   25.1619 C   0  0  0  0  0  0  0  0  0  0  0  0
   14.7950  -17.7488   25.2098 O   0  0  0  0  0  0  0  0  0  0  0  0
   16.6816  -15.5518   23.8566 O   0  0  0  0  0  0  0  0  0  0  0  0
   13.0392  -16.9259   26.3536 O   0  0  0  0  0  0  0  0  0  0  0  0
  2  3  1  0
  2  1  1  0
  3  4  1  1
  5  6  1  6
  5  3  1  0
  7  8  2  0
  7  5  1  0
  9  7  1  0
 10 21  1  0
 10  9  1  0
 10 11  1  1
 12 11  1  0
 13 12  2  0
 14 13  1  0
 15 14  1  0
 15 20  2  0
 16 15  1  0
 17 16  2  0
 17 18  1  0
 18 19  2  0
 19 20  1  0
 20 12  1  0
 21 23  1  0
 22 21  2  0
 23 24  1  0
 24 28  1  0
 25 26  1  0
 24 25  1  1
 26 30  1  0
 27 26  2  0
 28 29  2  0
 28 31  1  0
M  END
$$$$
