IWD.pdb
     RDKit          3D

 31 32  0  0  1  0  0  0  0  0999 V2000
    7.6279  -11.8852   20.3475 C   0  0  0  0  0  0  0  0  0  0  0  0
    7.6418  -13.2822   20.9314 C   0  0  0  0  0  0  0  0  0  0  0  0
    8.3427  -14.2838   20.0556 C   0  0  2  0  0  0  0  0  0  0  0  0
    7.6595  -14.4402   18.7126 C   0  0  0  0  0  0  0  0  0  0  0  0
    8.4498  -15.6421   20.6917 C   0  0  2  0  0  0  0  0  0  0  0  0
    7.1346  -16.2426   20.9159 N   0  0  0  0  0  0  0  0  0  0  0  0
    9.2020  -15.6349   21.9558 C   0  0  0  0  0  0  0  0  0  0  0  0
   10.3066  -15.0353   22.0353 O   0  0  0  0  0  0  0  0  0  0  0  0
    8.7582  -16.2868   23.1616 N   0  0  0  0  0  0  0  0  0  0  0  0
    9.5162  -16.2378   24.3749 C   0  0  1  0  0  0  0  0  0  0  0  0
    8.6870  -16.2816   25.6402 C   0  0  0  0  0  0  0  0  0  0  0  0
    7.5553  -15.3322   25.6444 C   0  0  0  0  0  0  0  0  0  0  0  0
    6.2266  -15.6282   25.3739 C   0  0  0  0  0  0  0  0  0  0  0  0
    5.5136  -14.5037   25.5109 N   0  0  0  0  0  0  0  0  0  0  0  0
    6.3504  -13.4932   25.8622 C   0  0  0  0  0  0  0  0  0  0  0  0
    6.1502  -12.1550   26.1199 C   0  0  0  0  0  0  0  0  0  0  0  0
    7.1934  -11.3139   26.4590 C   0  0  0  0  0  0  0  0  0  0  0  0
    8.4582  -11.8153   26.5422 C   0  0  0  0  0  0  0  0  0  0  0  0
    8.6787  -13.1401   26.2908 C   0  0  0  0  0  0  0  0  0  0  0  0
    7.6294  -13.9943   25.9491 C   0  0  0  0  0  0  0  0  0  0  0  0
   10.4563  -17.3778   24.4158 C   0  0  0  0  0  0  0  0  0  0  0  0
   10.0501  -18.5560   24.2188 O   0  0  0  0  0  0  0  0  0  0  0  0
   11.8150  -17.1358   24.6772 N   0  0  0  0  0  0  0  0  0  0  0  0
   12.8214  -18.1869   24.7786 C   0  0  1  0  0  0  0  0  0  0  0  0
   13.9582  -17.9295   23.8154 C   0  0  0  0  0  0  0  0  0  0  0  0
   14.6116  -16.6341   23.9552 C   0  0  0  0  0  0  0  0  0  0  0  0
   14.1995  -15.6713   23.2478 O   0  0  0  0  0  0  0  0  0  0  0  0
   13.2484  -18.3676   26.1812 C   0  0  0  0  0  0  0  0  0  0  0  0
   12.8325  -17.5452   27.0421 O   0  0  0  0  0  0  0  0  0  0  0  0
   15.6678  -16.3746   24.8176 O   0  0  0  0  0  0  0  0  0  0  0  0
   14.0762  -19.3769   26.6345 O   0  0  0  0  0  0  0  0  0  0  0  0
  2  3  1  0
  2  1  1  0
  3  4  1  6
  5  6  1  1
  5  3  1  0
  7  8  2  0
  7  5  1  0
  9  7  1  0
 10 21  1  0
 10  9  1  0
 10 11  1  1
 12 11  1  0
 13 12  2  0
 14 13  1  0
 15 14  1  0
 15 20  2  0
 16 15  1  0
 17 16  2  0
 17 18  1  0
 18 19  2  0
 19 20  1  0
 20 12  1  0
 21 23  1  0
 22 21  2  0
 23 24  1  0
 24 28  1  0
 25 26  1  0
 24 25  1  6
 26 30  1  0
 27 26  2  0
 28 29  2  0
 28 31  1  0
M  END
$$$$
