IWD.pdb
     RDKit          3D

 31 32  0  0  1  0  0  0  0  0999 V2000
    7.0232  -12.2573   18.9428 C   0  0  0  0  0  0  0  0  0  0  0  0
    7.2958  -13.7121   19.2621 C   0  0  0  0  0  0  0  0  0  0  0  0
    8.0052  -13.9083   20.5735 C   0  0  2  0  0  0  0  0  0  0  0  0
    9.2943  -13.1158   20.6460 C   0  0  0  0  0  0  0  0  0  0  0  0
    8.3216  -15.3510   20.8564 C   0  0  2  0  0  0  0  0  0  0  0  0
    7.1185  -16.1834   20.8464 N   0  0  0  0  0  0  0  0  0  0  0  0
    9.0399  -15.5512   22.1243 C   0  0  0  0  0  0  0  0  0  0  0  0
   10.2198  -15.1323   22.2601 O   0  0  0  0  0  0  0  0  0  0  0  0
    8.4788  -16.2170   23.2722 N   0  0  0  0  0  0  0  0  0  0  0  0
    9.1547  -16.2565   24.5333 C   0  0  1  0  0  0  0  0  0  0  0  0
    8.2411  -16.2648   25.7400 C   0  0  0  0  0  0  0  0  0  0  0  0
    7.2036  -15.2138   25.7092 C   0  0  0  0  0  0  0  0  0  0  0  0
    5.8550  -15.3910   25.4330 C   0  0  0  0  0  0  0  0  0  0  0  0
    5.2496  -14.2015   25.5348 N   0  0  0  0  0  0  0  0  0  0  0  0
    6.1749  -13.2650   25.8690 C   0  0  0  0  0  0  0  0  0  0  0  0
    6.0993  -11.9078   26.0912 C   0  0  0  0  0  0  0  0  0  0  0  0
    7.2142  -11.1596   26.4195 C   0  0  0  0  0  0  0  0  0  0  0  0
    8.4257  -11.7748   26.5278 C   0  0  0  0  0  0  0  0  0  0  0  0
    8.5228  -13.1205   26.3118 C   0  0  0  0  0  0  0  0  0  0  0  0
    7.4006  -13.8812   25.9811 C   0  0  0  0  0  0  0  0  0  0  0  0
    9.9994  -17.4676   24.6029 C   0  0  0  0  0  0  0  0  0  0  0  0
    9.5101  -18.6088   24.3790 O   0  0  0  0  0  0  0  0  0  0  0  0
   11.3609  -17.3354   24.9221 N   0  0  0  0  0  0  0  0  0  0  0  0
   12.3076  -18.4452   24.9139 C   0  0  1  0  0  0  0  0  0  0  0  0
   13.5207  -18.1033   24.0785 C   0  0  0  0  0  0  0  0  0  0  0  0
   14.5880  -19.0957   24.0953 C   0  0  0  0  0  0  0  0  0  0  0  0
   14.3086  -20.2760   24.4502 O   0  0  0  0  0  0  0  0  0  0  0  0
   12.6250  -18.8711   26.2923 C   0  0  0  0  0  0  0  0  0  0  0  0
   13.4183  -19.8388   26.4499 O   0  0  0  0  0  0  0  0  0  0  0  0
   15.9070  -18.8386   23.7473 O   0  0  0  0  0  0  0  0  0  0  0  0
   12.1189  -18.2890   27.4387 O   0  0  0  0  0  0  0  0  0  0  0  0
  2  3  1  0
  2  1  1  0
  3  4  1  6
  5  6  1  1
  5  3  1  0
  7  8  2  0
  7  5  1  0
  9  7  1  0
 10 21  1  0
 10  9  1  0
 10 11  1  1
 12 11  1  0
 13 12  2  0
 14 13  1  0
 15 14  1  0
 15 20  2  0
 16 15  1  0
 17 16  2  0
 17 18  1  0
 18 19  2  0
 19 20  1  0
 20 12  1  0
 21 23  1  0
 22 21  2  0
 23 24  1  0
 24 28  1  0
 25 26  1  0
 24 25  1  1
 26 30  1  0
 27 26  2  0
 28 29  2  0
 28 31  1  0
M  END
$$$$
