IWD.pdb
     RDKit          3D

 31 32  0  0  1  0  0  0  0  0999 V2000
    7.2552  -12.8688   17.6880 C   0  0  0  0  0  0  0  0  0  0  0  0
    6.9563  -13.9901   18.6606 C   0  0  0  0  0  0  0  0  0  0  0  0
    7.7197  -13.8747   19.9511 C   0  0  2  0  0  0  0  0  0  0  0  0
    9.2117  -13.7506   19.7191 C   0  0  0  0  0  0  0  0  0  0  0  0
    7.4810  -15.0354   20.8769 C   0  0  2  0  0  0  0  0  0  0  0  0
    6.0536  -15.2945   21.0669 N   0  0  0  0  0  0  0  0  0  0  0  0
    8.1240  -14.8741   22.1899 C   0  0  0  0  0  0  0  0  0  0  0  0
    8.2024  -13.7365   22.7245 O   0  0  0  0  0  0  0  0  0  0  0  0
    8.6965  -15.9588   22.9459 N   0  0  0  0  0  0  0  0  0  0  0  0
    9.5528  -15.7325   24.0703 C   0  0  1  0  0  0  0  0  0  0  0  0
    8.9365  -16.0669   25.4116 C   0  0  0  0  0  0  0  0  0  0  0  0
    7.7108  -15.2992   25.7122 C   0  0  0  0  0  0  0  0  0  0  0  0
    6.4095  -15.7819   25.7025 C   0  0  0  0  0  0  0  0  0  0  0  0
    5.5926  -14.7830   26.0581 N   0  0  0  0  0  0  0  0  0  0  0  0
    6.3358  -13.6712   26.2957 C   0  0  0  0  0  0  0  0  0  0  0  0
    6.0107  -12.3884   26.6775 C   0  0  0  0  0  0  0  0  0  0  0  0
    6.9745  -11.4125   26.8493 C   0  0  0  0  0  0  0  0  0  0  0  0
    8.2851  -11.7206   26.6363 C   0  0  0  0  0  0  0  0  0  0  0  0
    8.6293  -12.9874   26.2573 C   0  0  0  0  0  0  0  0  0  0  0  0
    7.6609  -13.9770   26.0834 C   0  0  0  0  0  0  0  0  0  0  0  0
   10.7804  -16.5434   23.9269 C   0  0  0  0  0  0  0  0  0  0  0  0
   10.7324  -17.7049   23.4364 O   0  0  0  0  0  0  0  0  0  0  0  0
   12.0090  -16.0055   24.3441 N   0  0  0  0  0  0  0  0  0  0  0  0
   13.2809  -16.7125   24.2417 C   0  0  1  0  0  0  0  0  0  0  0  0
   14.4189  -15.7353   24.0512 C   0  0  0  0  0  0  0  0  0  0  0  0
   15.7417  -16.3356   23.9318 C   0  0  0  0  0  0  0  0  0  0  0  0
   16.6268  -15.7187   23.2737 O   0  0  0  0  0  0  0  0  0  0  0  0
   13.4605  -17.6324   25.3836 C   0  0  0  0  0  0  0  0  0  0  0  0
   13.0184  -17.2781   26.5103 O   0  0  0  0  0  0  0  0  0  0  0  0
   16.1076  -17.5512   24.4932 O   0  0  0  0  0  0  0  0  0  0  0  0
   14.0802  -18.8657   25.3186 O   0  0  0  0  0  0  0  0  0  0  0  0
  2  3  1  0
  2  1  1  0
  3  4  1  6
  5  6  1  1
  5  3  1  0
  7  8  2  0
  7  5  1  0
  9  7  1  0
 10 21  1  0
 10  9  1  0
 10 11  1  1
 12 11  1  0
 13 12  2  0
 14 13  1  0
 15 14  1  0
 15 20  2  0
 16 15  1  0
 17 16  2  0
 17 18  1  0
 18 19  2  0
 19 20  1  0
 20 12  1  0
 21 23  1  0
 22 21  2  0
 23 24  1  0
 24 28  1  0
 25 26  1  0
 24 25  1  1
 26 30  1  0
 27 26  2  0
 28 29  2  0
 28 31  1  0
M  END
$$$$
