IWD.pdb
     RDKit          3D

 31 32  0  0  1  0  0  0  0  0999 V2000
    7.7514  -12.2835   16.9449 C   0  0  0  0  0  0  0  0  0  0  0  0
    7.5816  -13.6196   17.6367 C   0  0  0  0  0  0  0  0  0  0  0  0
    8.1468  -13.6419   19.0301 C   0  0  2  0  0  0  0  0  0  0  0  0
    9.6316  -13.3417   19.0454 C   0  0  0  0  0  0  0  0  0  0  0  0
    7.9233  -14.9538   19.7303 C   0  0  2  0  0  0  0  0  0  0  0  0
    6.6655  -15.5801   19.3227 N   0  0  0  0  0  0  0  0  0  0  0  0
    7.9579  -14.8438   21.1967 C   0  0  0  0  0  0  0  0  0  0  0  0
    7.9613  -13.7124   21.7499 O   0  0  0  0  0  0  0  0  0  0  0  0
    7.9904  -15.9743   22.0894 N   0  0  0  0  0  0  0  0  0  0  0  0
    8.2690  -15.8318   23.4861 C   0  0  1  0  0  0  0  0  0  0  0  0
    7.0467  -15.8425   24.3786 C   0  0  0  0  0  0  0  0  0  0  0  0
    7.3067  -15.3620   25.7510 C   0  0  0  0  0  0  0  0  0  0  0  0
    7.6783  -16.1358   26.8417 C   0  0  0  0  0  0  0  0  0  0  0  0
    7.8454  -15.3223   27.8914 N   0  0  0  0  0  0  0  0  0  0  0  0
    7.5904  -14.0460   27.5030 C   0  0  0  0  0  0  0  0  0  0  0  0
    7.6067  -12.8407   28.1694 C   0  0  0  0  0  0  0  0  0  0  0  0
    7.2934  -11.6530   27.5356 C   0  0  0  0  0  0  0  0  0  0  0  0
    6.9575  -11.6669   26.2147 C   0  0  0  0  0  0  0  0  0  0  0  0
    6.9355  -12.8518   25.5346 C   0  0  0  0  0  0  0  0  0  0  0  0
    7.2520  -14.0539   26.1688 C   0  0  0  0  0  0  0  0  0  0  0  0
    9.1551  -16.9297   23.9272 C   0  0  0  0  0  0  0  0  0  0  0  0
    8.9450  -18.1169   23.5552 O   0  0  0  0  0  0  0  0  0  0  0  0
   10.2406  -16.6372   24.7692 N   0  0  0  0  0  0  0  0  0  0  0  0
   11.5954  -17.1303   24.5473 C   0  0  1  0  0  0  0  0  0  0  0  0
   12.0948  -16.7172   23.1812 C   0  0  0  0  0  0  0  0  0  0  0  0
   13.4747  -17.0821   22.8861 C   0  0  0  0  0  0  0  0  0  0  0  0
   13.8590  -18.2556   23.1551 O   0  0  0  0  0  0  0  0  0  0  0  0
   12.4839  -16.7348   25.6594 C   0  0  0  0  0  0  0  0  0  0  0  0
   12.0968  -15.8193   26.4354 O   0  0  0  0  0  0  0  0  0  0  0  0
   14.4122  -16.2258   22.3252 O   0  0  0  0  0  0  0  0  0  0  0  0
   13.7200  -17.2929   25.9238 O   0  0  0  0  0  0  0  0  0  0  0  0
  2  3  1  0
  2  1  1  0
  3  4  1  6
  5  6  1  1
  5  3  1  0
  7  8  2  0
  7  5  1  0
  9  7  1  0
 10 21  1  0
 10  9  1  0
 10 11  1  1
 12 11  1  0
 13 12  2  0
 14 13  1  0
 15 14  1  0
 15 20  2  0
 16 15  1  0
 17 16  2  0
 17 18  1  0
 18 19  2  0
 19 20  1  0
 20 12  1  0
 21 23  1  0
 22 21  2  0
 23 24  1  0
 24 28  1  0
 25 26  1  0
 24 25  1  6
 26 30  1  0
 27 26  2  0
 28 29  2  0
 28 31  1  0
M  END
$$$$
