IWD.pdb
     RDKit          3D

 31 32  0  0  1  0  0  0  0  0999 V2000
    7.6979  -12.2648   20.3651 C   0  0  0  0  0  0  0  0  0  0  0  0
    7.8859  -13.5797   21.0918 C   0  0  0  0  0  0  0  0  0  0  0  0
    8.9114  -14.4715   20.4480 C   0  0  2  0  0  0  0  0  0  0  0  0
    8.5862  -14.7547   18.9957 C   0  0  0  0  0  0  0  0  0  0  0  0
    9.0725  -15.7859   21.1606 C   0  0  2  0  0  0  0  0  0  0  0  0
    7.8374  -16.5699   21.1407 N   0  0  0  0  0  0  0  0  0  0  0  0
    9.5336  -15.6417   22.5499 C   0  0  0  0  0  0  0  0  0  0  0  0
   10.4913  -14.8718   22.8257 O   0  0  0  0  0  0  0  0  0  0  0  0
    8.9535  -16.3406   23.6684 N   0  0  0  0  0  0  0  0  0  0  0  0
    9.3783  -16.1048   25.0148 C   0  0  1  0  0  0  0  0  0  0  0  0
    8.2825  -16.2188   26.0524 C   0  0  0  0  0  0  0  0  0  0  0  0
    7.2572  -15.1599   25.9553 C   0  0  0  0  0  0  0  0  0  0  0  0
    5.9192  -15.3318   25.6289 C   0  0  0  0  0  0  0  0  0  0  0  0
    5.3217  -14.1351   25.6785 N   0  0  0  0  0  0  0  0  0  0  0  0
    6.2418  -13.1991   26.0281 C   0  0  0  0  0  0  0  0  0  0  0  0
    6.1703  -11.8364   26.2155 C   0  0  0  0  0  0  0  0  0  0  0  0
    7.2782  -11.0904   26.5713 C   0  0  0  0  0  0  0  0  0  0  0  0
    8.4784  -11.7134   26.7428 C   0  0  0  0  0  0  0  0  0  0  0  0
    8.5712  -13.0646   26.5621 C   0  0  0  0  0  0  0  0  0  0  0  0
    7.4559  -13.8231   26.2040 C   0  0  0  0  0  0  0  0  0  0  0  0
   10.4379  -17.0708   25.3744 C   0  0  0  0  0  0  0  0  0  0  0  0
   10.9972  -17.0235   26.5043 O   0  0  0  0  0  0  0  0  0  0  0  0
   10.8185  -18.0487   24.4406 N   0  0  0  0  0  0  0  0  0  0  0  0
   11.8837  -19.0186   24.6701 C   0  0  1  0  0  0  0  0  0  0  0  0
   13.2077  -18.4815   24.1755 C   0  0  0  0  0  0  0  0  0  0  0  0
   13.6813  -19.0517   22.9205 C   0  0  0  0  0  0  0  0  0  0  0  0
   12.8291  -19.5009   22.1025 O   0  0  0  0  0  0  0  0  0  0  0  0
   11.8987  -19.4536   26.0818 C   0  0  0  0  0  0  0  0  0  0  0  0
   11.1116  -18.8882   26.8886 O   0  0  0  0  0  0  0  0  0  0  0  0
   15.0164  -19.1411   22.5512 O   0  0  0  0  0  0  0  0  0  0  0  0
   12.7139  -20.4426   26.5983 O   0  0  0  0  0  0  0  0  0  0  0  0
  2  3  1  0
  2  1  1  0
  3  4  1  6
  5  6  1  1
  5  3  1  0
  7  8  2  0
  7  5  1  0
  9  7  1  0
 10 21  1  0
 10  9  1  0
 10 11  1  1
 12 11  1  0
 13 12  2  0
 14 13  1  0
 15 14  1  0
 15 20  2  0
 16 15  1  0
 17 16  2  0
 17 18  1  0
 18 19  2  0
 19 20  1  0
 20 12  1  0
 21 23  1  0
 22 21  2  0
 23 24  1  0
 24 28  1  0
 25 26  1  0
 24 25  1  1
 26 30  1  0
 27 26  2  0
 28 29  2  0
 28 31  1  0
M  END
$$$$
