IWD.pdb
     RDKit          3D

 31 32  0  0  1  0  0  0  0  0999 V2000
    6.7397  -12.5974   18.9170 C   0  0  0  0  0  0  0  0  0  0  0  0
    7.3884  -13.9126   19.2943 C   0  0  0  0  0  0  0  0  0  0  0  0
    7.9134  -13.9320   20.7033 C   0  0  2  0  0  0  0  0  0  0  0  0
    8.9708  -12.8710   20.9300 C   0  0  0  0  0  0  0  0  0  0  0  0
    8.4908  -15.2646   21.0933 C   0  0  2  0  0  0  0  0  0  0  0  0
    7.5081  -16.3410   20.9660 N   0  0  0  0  0  0  0  0  0  0  0  0
    9.0537  -15.2795   22.4522 C   0  0  0  0  0  0  0  0  0  0  0  0
    9.9115  -14.4233   22.7949 O   0  0  0  0  0  0  0  0  0  0  0  0
    8.6879  -16.2357   23.4659 N   0  0  0  0  0  0  0  0  0  0  0  0
    9.3709  -16.3107   24.7216 C   0  0  1  0  0  0  0  0  0  0  0  0
    8.4657  -16.3079   25.9345 C   0  0  0  0  0  0  0  0  0  0  0  0
    7.4410  -15.2442   25.9110 C   0  0  0  0  0  0  0  0  0  0  0  0
    6.1322  -15.3664   25.4657 C   0  0  0  0  0  0  0  0  0  0  0  0
    5.5222  -14.1875   25.6380 N   0  0  0  0  0  0  0  0  0  0  0  0
    6.4059  -13.3112   26.1822 C   0  0  0  0  0  0  0  0  0  0  0  0
    6.3089  -11.9882   26.5527 C   0  0  0  0  0  0  0  0  0  0  0  0
    7.3812  -11.3012   27.0903 C   0  0  0  0  0  0  0  0  0  0  0  0
    8.5709  -11.9440   27.2611 C   0  0  0  0  0  0  0  0  0  0  0  0
    8.6885  -13.2567   26.9005 C   0  0  0  0  0  0  0  0  0  0  0  0
    7.6093  -13.9557   26.3584 C   0  0  0  0  0  0  0  0  0  0  0  0
   10.1806  -17.5466   24.7699 C   0  0  0  0  0  0  0  0  0  0  0  0
    9.6938  -18.6511   24.4028 O   0  0  0  0  0  0  0  0  0  0  0  0
   11.5057  -17.4793   25.2309 N   0  0  0  0  0  0  0  0  0  0  0  0
   12.3457  -18.6500   25.4591 C   0  0  1  0  0  0  0  0  0  0  0  0
   13.7993  -18.3190   25.2064 C   0  0  0  0  0  0  0  0  0  0  0  0
   14.0726  -17.6350   23.9488 C   0  0  0  0  0  0  0  0  0  0  0  0
   14.4928  -16.4437   23.9890 O   0  0  0  0  0  0  0  0  0  0  0  0
   12.0820  -19.2303   26.7917 C   0  0  0  0  0  0  0  0  0  0  0  0
   11.3602  -18.5781   27.5942 O   0  0  0  0  0  0  0  0  0  0  0  0
   13.9029  -18.2004   22.6925 O   0  0  0  0  0  0  0  0  0  0  0  0
   12.5663  -20.4453   27.2376 O   0  0  0  0  0  0  0  0  0  0  0  0
  2  3  1  0
  2  1  1  0
  3  4  1  6
  5  6  1  1
  5  3  1  0
  7  8  2  0
  7  5  1  0
  9  7  1  0
 10 21  1  0
 10  9  1  0
 10 11  1  1
 12 11  1  0
 13 12  2  0
 14 13  1  0
 15 14  1  0
 15 20  2  0
 16 15  1  0
 17 16  2  0
 17 18  1  0
 18 19  2  0
 19 20  1  0
 20 12  1  0
 21 23  1  0
 22 21  2  0
 23 24  1  0
 24 28  1  0
 25 26  1  0
 24 25  1  1
 26 30  1  0
 27 26  2  0
 28 29  2  0
 28 31  1  0
M  END
$$$$
