IWD.pdb
     RDKit          3D

 31 32  0  0  1  0  0  0  0  0999 V2000
    7.3186  -11.9562   18.7131 C   0  0  0  0  0  0  0  0  0  0  0  0
    7.5757  -13.3319   19.2911 C   0  0  0  0  0  0  0  0  0  0  0  0
    8.8022  -13.9930   18.7252 C   0  0  2  0  0  0  0  0  0  0  0  0
    8.6900  -14.2133   17.2305 C   0  0  0  0  0  0  0  0  0  0  0  0
    9.1063  -15.3142   19.3755 C   0  0  2  0  0  0  0  0  0  0  0  0
    8.1306  -16.3397   19.0054 N   0  0  0  0  0  0  0  0  0  0  0  0
    9.1942  -15.2344   20.8417 C   0  0  0  0  0  0  0  0  0  0  0  0
   10.1033  -14.5559   21.3885 O   0  0  0  0  0  0  0  0  0  0  0  0
    8.2856  -15.8989   21.7410 N   0  0  0  0  0  0  0  0  0  0  0  0
    8.3046  -15.6620   23.1525 C   0  0  1  0  0  0  0  0  0  0  0  0
    6.9533  -15.7567   23.8276 C   0  0  0  0  0  0  0  0  0  0  0  0
    6.9587  -15.3139   25.2368 C   0  0  0  0  0  0  0  0  0  0  0  0
    7.0116  -16.1283   26.3594 C   0  0  0  0  0  0  0  0  0  0  0  0
    7.0280  -15.3427   27.4430 N   0  0  0  0  0  0  0  0  0  0  0  0
    6.9867  -14.0447   27.0451 C   0  0  0  0  0  0  0  0  0  0  0  0
    6.9764  -12.8516   27.7332 C   0  0  0  0  0  0  0  0  0  0  0  0
    6.9224  -11.6342   27.0807 C   0  0  0  0  0  0  0  0  0  0  0  0
    6.8774  -11.6056   25.7187 C   0  0  0  0  0  0  0  0  0  0  0  0
    6.8870  -12.7778   25.0167 C   0  0  0  0  0  0  0  0  0  0  0  0
    6.9426  -14.0097   25.6698 C   0  0  0  0  0  0  0  0  0  0  0  0
    9.2008  -16.6399   23.8051 C   0  0  0  0  0  0  0  0  0  0  0  0
    9.0369  -17.8791   23.6336 O   0  0  0  0  0  0  0  0  0  0  0  0
   10.2435  -16.1739   24.6226 N   0  0  0  0  0  0  0  0  0  0  0  0
   11.2242  -17.0443   25.2618 C   0  0  1  0  0  0  0  0  0  0  0  0
   12.6029  -16.4263   25.2021 C   0  0  0  0  0  0  0  0  0  0  0  0
   13.3222  -16.6286   23.9506 C   0  0  0  0  0  0  0  0  0  0  0  0
   14.4569  -16.0895   23.8133 O   0  0  0  0  0  0  0  0  0  0  0  0
   10.7867  -17.4123   26.6240 C   0  0  0  0  0  0  0  0  0  0  0  0
    9.8712  -16.7310   27.1609 O   0  0  0  0  0  0  0  0  0  0  0  0
   12.8480  -17.3782   22.8829 O   0  0  0  0  0  0  0  0  0  0  0  0
   11.3034  -18.4555   27.3683 O   0  0  0  0  0  0  0  0  0  0  0  0
  2  3  1  0
  2  1  1  0
  3  4  1  6
  5  6  1  1
  5  3  1  0
  7  8  2  0
  7  5  1  0
  9  7  1  0
 10 21  1  0
 10  9  1  0
 10 11  1  1
 12 11  1  0
 13 12  2  0
 14 13  1  0
 15 14  1  0
 15 20  2  0
 16 15  1  0
 17 16  2  0
 17 18  1  0
 18 19  2  0
 19 20  1  0
 20 12  1  0
 21 23  1  0
 22 21  2  0
 23 24  1  0
 24 28  1  0
 25 26  1  0
 24 25  1  1
 26 30  1  0
 27 26  2  0
 28 29  2  0
 28 31  1  0
M  END
$$$$
