IWD.pdb
     RDKit          3D

 31 32  0  0  1  0  0  0  0  0999 V2000
    6.7129  -12.1998   18.8455 C   0  0  0  0  0  0  0  0  0  0  0  0
    7.1217  -13.6067   19.2278 C   0  0  0  0  0  0  0  0  0  0  0  0
    7.8946  -13.6701   20.5162 C   0  0  2  0  0  0  0  0  0  0  0  0
    9.1488  -12.8217   20.4684 C   0  0  0  0  0  0  0  0  0  0  0  0
    8.2871  -15.0718   20.8937 C   0  0  2  0  0  0  0  0  0  0  0  0
    7.1343  -15.9725   20.9130 N   0  0  0  0  0  0  0  0  0  0  0  0
    8.9875  -15.1521   22.1847 C   0  0  0  0  0  0  0  0  0  0  0  0
    9.9463  -14.3758   22.4376 O   0  0  0  0  0  0  0  0  0  0  0  0
    8.6511  -16.0877   23.2274 N   0  0  0  0  0  0  0  0  0  0  0  0
    9.3394  -16.1067   24.4823 C   0  0  1  0  0  0  0  0  0  0  0  0
    8.4442  -16.2692   25.6918 C   0  0  0  0  0  0  0  0  0  0  0  0
    7.3715  -15.2574   25.7795 C   0  0  0  0  0  0  0  0  0  0  0  0
    6.0145  -15.4718   25.5827 C   0  0  0  0  0  0  0  0  0  0  0  0
    5.3769  -14.3118   25.7815 N   0  0  0  0  0  0  0  0  0  0  0  0
    6.2897  -13.3580   26.1006 C   0  0  0  0  0  0  0  0  0  0  0  0
    6.1825  -12.0164   26.3934 C   0  0  0  0  0  0  0  0  0  0  0  0
    7.2905  -11.2431   26.6852 C   0  0  0  0  0  0  0  0  0  0  0  0
    8.5268  -11.8171   26.6847 C   0  0  0  0  0  0  0  0  0  0  0  0
    8.6554  -13.1466   26.3973 C   0  0  0  0  0  0  0  0  0  0  0  0
    7.5404  -13.9325   26.1031 C   0  0  0  0  0  0  0  0  0  0  0  0
   10.3141  -17.2180   24.4939 C   0  0  0  0  0  0  0  0  0  0  0  0
    9.9611  -18.3885   24.1822 O   0  0  0  0  0  0  0  0  0  0  0  0
   11.6456  -16.9572   24.8572 N   0  0  0  0  0  0  0  0  0  0  0  0
   12.6508  -17.9957   25.0551 C   0  0  1  0  0  0  0  0  0  0  0  0
   14.0392  -17.4429   24.8246 C   0  0  0  0  0  0  0  0  0  0  0  0
   14.2287  -16.7425   23.5605 C   0  0  0  0  0  0  0  0  0  0  0  0
   13.7633  -17.2629   22.5071 O   0  0  0  0  0  0  0  0  0  0  0  0
   12.4728  -18.6518   26.3666 C   0  0  0  0  0  0  0  0  0  0  0  0
   11.6209  -18.1718   27.1630 O   0  0  0  0  0  0  0  0  0  0  0  0
   14.8920  -15.5308   23.4241 O   0  0  0  0  0  0  0  0  0  0  0  0
   13.1710  -19.7632   26.7987 O   0  0  0  0  0  0  0  0  0  0  0  0
  2  3  1  0
  2  1  1  0
  3  4  1  6
  5  6  1  1
  5  3  1  0
  7  8  2  0
  7  5  1  0
  9  7  1  0
 10 21  1  0
 10  9  1  0
 10 11  1  1
 12 11  1  0
 13 12  2  0
 14 13  1  0
 15 14  1  0
 15 20  2  0
 16 15  1  0
 17 16  2  0
 17 18  1  0
 18 19  2  0
 19 20  1  0
 20 12  1  0
 21 23  1  0
 22 21  2  0
 23 24  1  0
 24 28  1  0
 25 26  1  0
 24 25  1  1
 26 30  1  0
 27 26  2  0
 28 29  2  0
 28 31  1  0
M  END
$$$$
