IWD.pdb
     RDKit          3D

 31 32  0  0  1  0  0  0  0  0999 V2000
    7.4936  -12.7006   17.7761 C   0  0  0  0  0  0  0  0  0  0  0  0
    7.1052  -13.8277   18.7096 C   0  0  0  0  0  0  0  0  0  0  0  0
    7.8238  -13.7784   20.0296 C   0  0  2  0  0  0  0  0  0  0  0  0
    9.3283  -13.7398   19.8561 C   0  0  0  0  0  0  0  0  0  0  0  0
    7.4816  -14.9373   20.9247 C   0  0  2  0  0  0  0  0  0  0  0  0
    6.0352  -15.1166   21.0528 N   0  0  0  0  0  0  0  0  0  0  0  0
    8.0783  -14.8331   22.2651 C   0  0  0  0  0  0  0  0  0  0  0  0
    8.0933  -13.7291   22.8708 O   0  0  0  0  0  0  0  0  0  0  0  0
    8.6732  -15.9395   22.9709 N   0  0  0  0  0  0  0  0  0  0  0  0
    9.5304  -15.7472   24.1009 C   0  0  1  0  0  0  0  0  0  0  0  0
    8.9041  -16.0911   25.4351 C   0  0  0  0  0  0  0  0  0  0  0  0
    7.6851  -15.3142   25.7392 C   0  0  0  0  0  0  0  0  0  0  0  0
    6.3771  -15.7760   25.6924 C   0  0  0  0  0  0  0  0  0  0  0  0
    5.5693  -14.7761   26.0656 N   0  0  0  0  0  0  0  0  0  0  0  0
    6.3249  -13.6841   26.3506 C   0  0  0  0  0  0  0  0  0  0  0  0
    6.0126  -12.4089   26.7672 C   0  0  0  0  0  0  0  0  0  0  0  0
    6.9878  -11.4541   26.9859 C   0  0  0  0  0  0  0  0  0  0  0  0
    8.2971  -11.7757   26.7854 C   0  0  0  0  0  0  0  0  0  0  0  0
    8.6288  -13.0352   26.3724 C   0  0  0  0  0  0  0  0  0  0  0  0
    7.6488  -14.0037   26.1511 C   0  0  0  0  0  0  0  0  0  0  0  0
   10.7430  -16.5787   23.9477 C   0  0  0  0  0  0  0  0  0  0  0  0
   10.6564  -17.7849   23.5878 O   0  0  0  0  0  0  0  0  0  0  0  0
   12.0007  -16.0099   24.2077 N   0  0  0  0  0  0  0  0  0  0  0  0
   13.2645  -16.7121   24.0134 C   0  0  1  0  0  0  0  0  0  0  0  0
   14.3537  -15.7447   23.6086 C   0  0  0  0  0  0  0  0  0  0  0  0
   15.6766  -16.3323   23.4382 C   0  0  0  0  0  0  0  0  0  0  0  0
   16.6844  -15.6677   23.8121 O   0  0  0  0  0  0  0  0  0  0  0  0
   13.5946  -17.5309   25.1978 C   0  0  0  0  0  0  0  0  0  0  0  0
   14.4078  -18.4843   25.0561 O   0  0  0  0  0  0  0  0  0  0  0  0
   15.9167  -17.5835   22.8873 O   0  0  0  0  0  0  0  0  0  0  0  0
   13.0801  -17.3357   26.4653 O   0  0  0  0  0  0  0  0  0  0  0  0
  2  3  1  0
  2  1  1  0
  3  4  1  6
  5  6  1  1
  5  3  1  0
  7  8  2  0
  7  5  1  0
  9  7  1  0
 10 21  1  0
 10  9  1  0
 10 11  1  1
 12 11  1  0
 13 12  2  0
 14 13  1  0
 15 14  1  0
 15 20  2  0
 16 15  1  0
 17 16  2  0
 17 18  1  0
 18 19  2  0
 19 20  1  0
 20 12  1  0
 21 23  1  0
 22 21  2  0
 23 24  1  0
 24 28  1  0
 25 26  1  0
 24 25  1  1
 26 30  1  0
 27 26  2  0
 28 29  2  0
 28 31  1  0
M  END
$$$$
