IWD.pdb
     RDKit          3D

 31 32  0  0  1  0  0  0  0  0999 V2000
    7.4853  -12.1447   19.9635 C   0  0  0  0  0  0  0  0  0  0  0  0
    7.6216  -13.4794   20.6655 C   0  0  0  0  0  0  0  0  0  0  0  0
    8.5414  -14.4325   19.9535 C   0  0  2  0  0  0  0  0  0  0  0  0
    8.0831  -14.7126   18.5370 C   0  0  0  0  0  0  0  0  0  0  0  0
    8.6897  -15.7463   20.6700 C   0  0  2  0  0  0  0  0  0  0  0  0
    7.4237  -16.4770   20.7332 N   0  0  0  0  0  0  0  0  0  0  0  0
    9.2396  -15.6098   22.0274 C   0  0  0  0  0  0  0  0  0  0  0  0
   10.2470  -14.8833   22.2356 O   0  0  0  0  0  0  0  0  0  0  0  0
    8.6959  -16.2689   23.1875 N   0  0  0  0  0  0  0  0  0  0  0  0
    9.3131  -16.1723   24.4753 C   0  0  1  0  0  0  0  0  0  0  0  0
    8.3622  -16.3147   25.6442 C   0  0  0  0  0  0  0  0  0  0  0  0
    7.3214  -15.2678   25.6966 C   0  0  0  0  0  0  0  0  0  0  0  0
    5.9670  -15.4349   25.4433 C   0  0  0  0  0  0  0  0  0  0  0  0
    5.3611  -14.2554   25.6254 N   0  0  0  0  0  0  0  0  0  0  0  0
    6.2915  -13.3351   25.9889 C   0  0  0  0  0  0  0  0  0  0  0  0
    6.2175  -11.9926   26.2878 C   0  0  0  0  0  0  0  0  0  0  0  0
    7.3380  -11.2592   26.6304 C   0  0  0  0  0  0  0  0  0  0  0  0
    8.5534  -11.8746   26.6754 C   0  0  0  0  0  0  0  0  0  0  0  0
    8.6490  -13.2058   26.3828 C   0  0  0  0  0  0  0  0  0  0  0  0
    7.5212  -13.9516   26.0373 C   0  0  0  0  0  0  0  0  0  0  0  0
   10.3457  -17.2219   24.6077 C   0  0  0  0  0  0  0  0  0  0  0  0
   10.1354  -18.3907   24.1816 O   0  0  0  0  0  0  0  0  0  0  0  0
   11.5713  -16.9038   25.2157 N   0  0  0  0  0  0  0  0  0  0  0  0
   12.6209  -17.8805   25.4851 C   0  0  1  0  0  0  0  0  0  0  0  0
   13.9794  -17.2167   25.4791 C   0  0  0  0  0  0  0  0  0  0  0  0
   14.4645  -16.8030   24.1683 C   0  0  0  0  0  0  0  0  0  0  0  0
   13.7711  -17.0882   23.1510 O   0  0  0  0  0  0  0  0  0  0  0  0
   12.3252  -18.6382   26.7183 C   0  0  0  0  0  0  0  0  0  0  0  0
   11.3922  -18.2282   27.4611 O   0  0  0  0  0  0  0  0  0  0  0  0
   15.6477  -16.1109   23.9498 O   0  0  0  0  0  0  0  0  0  0  0  0
   12.9945  -19.7746   27.1306 O   0  0  0  0  0  0  0  0  0  0  0  0
  2  3  1  0
  2  1  1  0
  3  4  1  6
  5  6  1  1
  5  3  1  0
  7  8  2  0
  7  5  1  0
  9  7  1  0
 10 21  1  0
 10  9  1  0
 10 11  1  1
 12 11  1  0
 13 12  2  0
 14 13  1  0
 15 14  1  0
 15 20  2  0
 16 15  1  0
 17 16  2  0
 17 18  1  0
 18 19  2  0
 19 20  1  0
 20 12  1  0
 21 23  1  0
 22 21  2  0
 23 24  1  0
 24 28  1  0
 25 26  1  0
 24 25  1  1
 26 30  1  0
 27 26  2  0
 28 29  2  0
 28 31  1  0
M  END
$$$$
