IWD.pdb
     RDKit          3D

 31 32  0  0  1  0  0  0  0  0999 V2000
    7.0061  -17.7401   18.3372 C   0  0  0  0  0  0  0  0  0  0  0  0
    7.3646  -16.2767   18.1865 C   0  0  0  0  0  0  0  0  0  0  0  0
    8.1671  -15.7411   19.3400 C   0  0  2  0  0  0  0  0  0  0  0  0
    9.4861  -16.4688   19.5006 C   0  0  0  0  0  0  0  0  0  0  0  0
    7.4279  -15.8097   20.6478 C   0  0  2  0  0  0  0  0  0  0  0  0
    6.2013  -15.0127   20.6213 N   0  0  0  0  0  0  0  0  0  0  0  0
    8.2462  -15.4032   21.8005 C   0  0  0  0  0  0  0  0  0  0  0  0
    8.6768  -14.2231   21.8905 O   0  0  0  0  0  0  0  0  0  0  0  0
    8.6108  -16.2839   22.8809 N   0  0  0  0  0  0  0  0  0  0  0  0
    9.4730  -15.8656   23.9442 C   0  0  1  0  0  0  0  0  0  0  0  0
    8.8860  -16.0181   25.3309 C   0  0  0  0  0  0  0  0  0  0  0  0
    7.6720  -15.2074   25.5566 C   0  0  0  0  0  0  0  0  0  0  0  0
    6.3599  -15.6593   25.5345 C   0  0  0  0  0  0  0  0  0  0  0  0
    5.5586  -14.6245   25.8150 N   0  0  0  0  0  0  0  0  0  0  0  0
    6.3225  -13.5196   26.0164 C   0  0  0  0  0  0  0  0  0  0  0  0
    6.0190  -12.2114   26.3226 C   0  0  0  0  0  0  0  0  0  0  0  0
    7.0017  -11.2508   26.4717 C   0  0  0  0  0  0  0  0  0  0  0  0
    8.3095  -11.6001   26.3123 C   0  0  0  0  0  0  0  0  0  0  0  0
    8.6325  -12.8926   26.0087 C   0  0  0  0  0  0  0  0  0  0  0  0
    7.6449  -13.8669   25.8581 C   0  0  0  0  0  0  0  0  0  0  0  0
   10.7265  -16.6479   23.9000 C   0  0  0  0  0  0  0  0  0  0  0  0
   10.6995  -17.9093   23.8964 O   0  0  0  0  0  0  0  0  0  0  0  0
   11.9558  -15.9696   23.8612 N   0  0  0  0  0  0  0  0  0  0  0  0
   13.2522  -16.6386   23.8710 C   0  0  1  0  0  0  0  0  0  0  0  0
   14.3520  -15.6727   23.4920 C   0  0  0  0  0  0  0  0  0  0  0  0
   15.6896  -16.2478   23.4238 C   0  0  0  0  0  0  0  0  0  0  0  0
   15.8256  -17.4010   22.9251 O   0  0  0  0  0  0  0  0  0  0  0  0
   13.4735  -17.3299   25.1576 C   0  0  0  0  0  0  0  0  0  0  0  0
   14.2927  -18.2882   25.1866 O   0  0  0  0  0  0  0  0  0  0  0  0
   16.8413  -15.6163   23.8728 O   0  0  0  0  0  0  0  0  0  0  0  0
   12.8496  -17.0089   26.3481 O   0  0  0  0  0  0  0  0  0  0  0  0
  2  3  1  0
  2  1  1  0
  3  4  1  1
  5  6  1  6
  5  3  1  0
  7  8  2  0
  7  5  1  0
  9  7  1  0
 10 21  1  0
 10  9  1  0
 10 11  1  1
 12 11  1  0
 13 12  2  0
 14 13  1  0
 15 14  1  0
 15 20  2  0
 16 15  1  0
 17 16  2  0
 17 18  1  0
 18 19  2  0
 19 20  1  0
 20 12  1  0
 21 23  1  0
 22 21  2  0
 23 24  1  0
 24 28  1  0
 25 26  1  0
 24 25  1  1
 26 30  1  0
 27 26  2  0
 28 29  2  0
 28 31  1  0
M  END
$$$$
