IWD.pdb
     RDKit          3D

 31 32  0  0  1  0  0  0  0  0999 V2000
    7.1475  -13.6832   20.6562 C   0  0  0  0  0  0  0  0  0  0  0  0
    8.5327  -13.7478   20.0482 C   0  0  0  0  0  0  0  0  0  0  0  0
    8.8064  -15.0421   19.3331 C   0  0  2  0  0  0  0  0  0  0  0  0
    7.7496  -15.3504   18.2924 C   0  0  0  0  0  0  0  0  0  0  0  0
    8.9055  -16.2162   20.2674 C   0  0  2  0  0  0  0  0  0  0  0  0
    7.5860  -16.6976   20.6771 N   0  0  0  0  0  0  0  0  0  0  0  0
    9.7147  -15.9405   21.4644 C   0  0  0  0  0  0  0  0  0  0  0  0
   10.8816  -15.4803   21.3513 O   0  0  0  0  0  0  0  0  0  0  0  0
    9.2610  -16.1646   22.8134 N   0  0  0  0  0  0  0  0  0  0  0  0
   10.0505  -15.8015   23.9508 C   0  0  1  0  0  0  0  0  0  0  0  0
    9.6799  -14.4760   24.5803 C   0  0  0  0  0  0  0  0  0  0  0  0
    8.2930  -14.4236   25.0862 C   0  0  0  0  0  0  0  0  0  0  0  0
    7.3295  -15.4148   24.9620 C   0  0  0  0  0  0  0  0  0  0  0  0
    6.2181  -14.9943   25.5781 N   0  0  0  0  0  0  0  0  0  0  0  0
    6.4432  -13.7584   26.0946 C   0  0  0  0  0  0  0  0  0  0  0  0
    5.6558  -12.8806   26.8064 C   0  0  0  0  0  0  0  0  0  0  0  0
    6.1280  -11.6494   27.2212 C   0  0  0  0  0  0  0  0  0  0  0  0
    7.4072  -11.2868   26.9208 C   0  0  0  0  0  0  0  0  0  0  0  0
    8.2053  -12.1429   26.2158 C   0  0  0  0  0  0  0  0  0  0  0  0
    7.7345  -13.3875   25.7954 C   0  0  0  0  0  0  0  0  0  0  0  0
    9.9239  -16.8429   24.9922 C   0  0  0  0  0  0  0  0  0  0  0  0
    8.8406  -17.4706   25.1481 O   0  0  0  0  0  0  0  0  0  0  0  0
   11.0281  -17.1295   25.8118 N   0  0  0  0  0  0  0  0  0  0  0  0
   11.1607  -18.3524   26.5959 C   0  0  1  0  0  0  0  0  0  0  0  0
   12.6068  -18.7892   26.6597 C   0  0  0  0  0  0  0  0  0  0  0  0
   13.1660  -19.2765   25.4050 C   0  0  0  0  0  0  0  0  0  0  0  0
   12.4048  -19.8876   24.6024 O   0  0  0  0  0  0  0  0  0  0  0  0
   10.5184  -18.1978   27.9173 C   0  0  0  0  0  0  0  0  0  0  0  0
   10.2397  -17.0331   28.3124 O   0  0  0  0  0  0  0  0  0  0  0  0
   14.4904  -19.1191   25.0202 O   0  0  0  0  0  0  0  0  0  0  0  0
   10.1925  -19.2374   28.7672 O   0  0  0  0  0  0  0  0  0  0  0  0
  2  3  1  0
  2  1  1  0
  3  4  1  6
  5  6  1  1
  5  3  1  0
  7  8  2  0
  7  5  1  0
  9  7  1  0
 10 21  1  0
 10  9  1  0
 10 11  1  1
 12 11  1  0
 13 12  2  0
 14 13  1  0
 15 14  1  0
 15 20  2  0
 16 15  1  0
 17 16  2  0
 17 18  1  0
 18 19  2  0
 19 20  1  0
 20 12  1  0
 21 23  1  0
 22 21  2  0
 23 24  1  0
 24 28  1  0
 25 26  1  0
 24 25  1  1
 26 30  1  0
 27 26  2  0
 28 29  2  0
 28 31  1  0
M  END
$$$$
