IWD.pdb
     RDKit          3D

 31 32  0  0  1  0  0  0  0  0999 V2000
    6.8608  -11.9907   19.1769 C   0  0  0  0  0  0  0  0  0  0  0  0
    7.1710  -13.4494   19.4392 C   0  0  0  0  0  0  0  0  0  0  0  0
    8.0749  -13.6598   20.6224 C   0  0  2  0  0  0  0  0  0  0  0  0
    9.3947  -12.9328   20.4652 C   0  0  0  0  0  0  0  0  0  0  0  0
    8.3644  -15.1118   20.8855 C   0  0  2  0  0  0  0  0  0  0  0  0
    7.1456  -15.9209   20.8678 N   0  0  0  0  0  0  0  0  0  0  0  0
    9.0818  -15.3424   22.1487 C   0  0  0  0  0  0  0  0  0  0  0  0
   10.1856  -14.7762   22.3660 O   0  0  0  0  0  0  0  0  0  0  0  0
    8.6035  -16.2008   23.2024 N   0  0  0  0  0  0  0  0  0  0  0  0
    9.2713  -16.2989   24.4646 C   0  0  1  0  0  0  0  0  0  0  0  0
    8.3500  -16.4234   25.6589 C   0  0  0  0  0  0  0  0  0  0  0  0
    7.3472  -15.3430   25.7533 C   0  0  0  0  0  0  0  0  0  0  0  0
    5.9768  -15.4686   25.5733 C   0  0  0  0  0  0  0  0  0  0  0  0
    5.4191  -14.2683   25.7729 N   0  0  0  0  0  0  0  0  0  0  0  0
    6.3963  -13.3750   26.0762 C   0  0  0  0  0  0  0  0  0  0  0  0
    6.3809  -12.0279   26.3626 C   0  0  0  0  0  0  0  0  0  0  0  0
    7.5406  -11.3277   26.6373 C   0  0  0  0  0  0  0  0  0  0  0  0
    8.7365  -11.9816   26.6259 C   0  0  0  0  0  0  0  0  0  0  0  0
    8.7741  -13.3182   26.3445 C   0  0  0  0  0  0  0  0  0  0  0  0
    7.6065  -14.0305   26.0675 C   0  0  0  0  0  0  0  0  0  0  0  0
   10.1622  -17.4784   24.4613 C   0  0  0  0  0  0  0  0  0  0  0  0
    9.7117  -18.6275   24.7232 O   0  0  0  0  0  0  0  0  0  0  0  0
   11.5237  -17.3073   24.1615 N   0  0  0  0  0  0  0  0  0  0  0  0
   12.5113  -18.3786   24.2337 C   0  0  1  0  0  0  0  0  0  0  0  0
   13.7931  -17.9677   23.5449 C   0  0  0  0  0  0  0  0  0  0  0  0
   14.8898  -18.9219   23.6497 C   0  0  0  0  0  0  0  0  0  0  0  0
   14.6145  -20.1352   23.8714 O   0  0  0  0  0  0  0  0  0  0  0  0
   12.6936  -18.8278   25.6291 C   0  0  0  0  0  0  0  0  0  0  0  0
   12.6243  -20.0633   25.8719 O   0  0  0  0  0  0  0  0  0  0  0  0
   16.2327  -18.5940   23.5239 O   0  0  0  0  0  0  0  0  0  0  0  0
   12.9378  -17.9955   26.7048 O   0  0  0  0  0  0  0  0  0  0  0  0
  2  3  1  0
  2  1  1  0
  3  4  1  6
  5  6  1  1
  5  3  1  0
  7  8  2  0
  7  5  1  0
  9  7  1  0
 10 21  1  0
 10  9  1  0
 10 11  1  1
 12 11  1  0
 13 12  2  0
 14 13  1  0
 15 14  1  0
 15 20  2  0
 16 15  1  0
 17 16  2  0
 17 18  1  0
 18 19  2  0
 19 20  1  0
 20 12  1  0
 21 23  1  0
 22 21  2  0
 23 24  1  0
 24 28  1  0
 25 26  1  0
 24 25  1  1
 26 30  1  0
 27 26  2  0
 28 29  2  0
 28 31  1  0
M  END
$$$$
