NGW.pdb
     RDKit          3D

 27 28  0  0  1  0  0  0  0  0999 V2000
   10.9268  -20.5712   17.2628 N   0  0  0  0  0  0  0  0  0  0  0  0
    9.9266  -19.6304   16.8819 C   0  0  0  0  0  0  0  0  0  0  0  0
    9.8039  -19.3380   15.6745 O   0  0  0  0  0  0  0  0  0  0  0  0
    9.0324  -18.9919   17.8703 C   0  0  0  0  0  0  0  0  0  0  0  0
    9.2594  -17.5152   17.8784 C   0  0  2  0  0  0  0  0  0  0  0  0
   10.6676  -17.2561   17.7674 N   0  0  0  0  0  0  0  0  0  0  0  0
    8.6773  -16.9041   19.1110 C   0  0  0  0  0  0  0  0  0  0  0  0
    8.4666  -15.6654   19.1326 O   0  0  0  0  0  0  0  0  0  0  0  0
    8.3521  -17.6605   20.2577 N   0  0  0  0  0  0  0  0  0  0  0  0
    7.7297  -17.0783   21.4384 C   0  0  0  0  0  0  0  0  0  0  0  0
    8.8453  -16.6126   22.3232 C   0  0  0  0  0  0  0  0  0  0  0  0
    9.9469  -16.1996   21.8381 O   0  0  0  0  0  0  0  0  0  0  0  0
    8.7309  -16.6088   23.7337 N   0  0  0  0  0  0  0  0  0  0  0  0
    9.7778  -15.9982   24.5670 C   0  0  1  0  0  0  0  0  0  0  0  0
    9.2255  -15.6402   25.9150 C   0  0  0  0  0  0  0  0  0  0  0  0
    7.9806  -14.9096   25.9460 C   0  0  0  0  0  0  0  0  0  0  0  0
    6.7176  -15.5170   25.8812 C   0  0  0  0  0  0  0  0  0  0  0  0
    5.7688  -14.5809   25.9666 N   0  0  0  0  0  0  0  0  0  0  0  0
    6.3359  -13.3718   26.0851 C   0  0  0  0  0  0  0  0  0  0  0  0
    5.8001  -12.1100   26.1960 C   0  0  0  0  0  0  0  0  0  0  0  0
    6.6416  -11.0176   26.2956 C   0  0  0  0  0  0  0  0  0  0  0  0
    7.9897  -11.1803   26.2844 C   0  0  0  0  0  0  0  0  0  0  0  0
    8.5192  -12.4530   26.1727 C   0  0  0  0  0  0  0  0  0  0  0  0
    7.7222  -13.5751   26.0718 C   0  0  0  0  0  0  0  0  0  0  0  0
   10.9522  -16.8412   24.5242 C   0  0  0  0  0  0  0  0  0  0  0  0
   12.0889  -16.4342   24.8676 O   0  0  0  0  0  0  0  0  0  0  0  0
   10.8710  -18.1569   24.0947 O   0  0  0  0  0  0  0  0  0  0  0  0
  2  3  2  0
  2  1  1  0
  4  2  1  0
  5  4  1  0
  5  6  1  1
  7  8  2  0
  7  5  1  0
  9  7  1  0
 10  9  1  0
 11 10  1  0
 11 12  2  0
 13 11  1  0
 14 13  1  0
 14 25  1  0
 14 15  1  1
 16 15  1  0
 17 16  2  0
 18 17  1  0
 19 18  1  0
 19 24  2  0
 20 21  2  0
 20 19  1  0
 21 22  1  0
 22 23  2  0
 24 23  1  0
 24 16  1  0
 25 27  1  0
 26 25  2  0
M  END
$$$$
