NGW.pdb
     RDKit          3D

 27 28  0  0  1  0  0  0  0  0999 V2000
    9.7518  -18.5971   14.1510 N   0  0  0  0  0  0  0  0  0  0  0  0
   10.2085  -18.0900   15.4019 C   0  0  0  0  0  0  0  0  0  0  0  0
   11.3815  -17.6717   15.4897 O   0  0  0  0  0  0  0  0  0  0  0  0
    9.3382  -18.0443   16.5955 C   0  0  0  0  0  0  0  0  0  0  0  0
   10.1571  -18.2547   17.8273 C   0  0  2  0  0  0  0  0  0  0  0  0
   10.4964  -19.6461   17.9334 N   0  0  0  0  0  0  0  0  0  0  0  0
    9.4211  -17.7686   19.0330 C   0  0  0  0  0  0  0  0  0  0  0  0
    9.1032  -16.5547   19.1011 O   0  0  0  0  0  0  0  0  0  0  0  0
    9.0655  -18.6169   20.1038 N   0  0  0  0  0  0  0  0  0  0  0  0
    8.3059  -18.1569   21.2579 C   0  0  0  0  0  0  0  0  0  0  0  0
    9.2885  -17.5101   22.1855 C   0  0  0  0  0  0  0  0  0  0  0  0
   10.5425  -17.5954   21.9859 O   0  0  0  0  0  0  0  0  0  0  0  0
    8.8744  -16.7768   23.3226 N   0  0  0  0  0  0  0  0  0  0  0  0
    9.8599  -16.0759   24.1599 C   0  0  1  0  0  0  0  0  0  0  0  0
    9.4653  -14.6391   24.3338 C   0  0  0  0  0  0  0  0  0  0  0  0
    8.1738  -14.3756   24.9230 C   0  0  0  0  0  0  0  0  0  0  0  0
    7.1771  -15.3493   25.0858 C   0  0  0  0  0  0  0  0  0  0  0  0
    6.1172  -14.8048   25.6892 N   0  0  0  0  0  0  0  0  0  0  0  0
    6.3553  -13.5092   25.9389 C   0  0  0  0  0  0  0  0  0  0  0  0
    5.5902  -12.5285   26.5258 C   0  0  0  0  0  0  0  0  0  0  0  0
    6.0972  -11.2479   26.6460 C   0  0  0  0  0  0  0  0  0  0  0  0
    7.3415  -10.9515   26.1899 C   0  0  0  0  0  0  0  0  0  0  0  0
    8.1034  -11.9443   25.6015 C   0  0  0  0  0  0  0  0  0  0  0  0
    7.6436  -13.2376   25.4591 C   0  0  0  0  0  0  0  0  0  0  0  0
   10.0911  -16.8585   25.3538 C   0  0  0  0  0  0  0  0  0  0  0  0
   11.0351  -16.6195   26.1461 O   0  0  0  0  0  0  0  0  0  0  0  0
    9.2662  -17.9241   25.6797 O   0  0  0  0  0  0  0  0  0  0  0  0
  2  3  2  0
  2  1  1  0
  4  2  1  0
  5  4  1  0
  5  6  1  1
  7  8  2  0
  7  5  1  0
  9  7  1  0
 10  9  1  0
 11 10  1  0
 11 12  2  0
 13 11  1  0
 14 13  1  0
 14 25  1  0
 14 15  1  1
 16 15  1  0
 17 16  2  0
 18 17  1  0
 19 18  1  0
 19 24  2  0
 20 21  2  0
 20 19  1  0
 21 22  1  0
 22 23  2  0
 24 23  1  0
 24 16  1  0
 25 27  1  0
 26 25  2  0
M  END
$$$$
