NGW.pdb
     RDKit          3D

 27 28  0  0  1  0  0  0  0  0999 V2000
    6.9982  -13.1054   15.2430 N   0  0  0  0  0  0  0  0  0  0  0  0
    7.9746  -13.8185   15.9970 C   0  0  0  0  0  0  0  0  0  0  0  0
    9.0235  -14.1862   15.4284 O   0  0  0  0  0  0  0  0  0  0  0  0
    7.7840  -14.1353   17.4279 C   0  0  0  0  0  0  0  0  0  0  0  0
    8.8096  -15.1288   17.8673 C   0  0  2  0  0  0  0  0  0  0  0  0
    8.8356  -16.2205   16.9345 N   0  0  0  0  0  0  0  0  0  0  0  0
    8.5247  -15.5930   19.2584 C   0  0  0  0  0  0  0  0  0  0  0  0
    8.4948  -14.7460   20.1863 O   0  0  0  0  0  0  0  0  0  0  0  0
    8.2866  -16.9473   19.5776 N   0  0  0  0  0  0  0  0  0  0  0  0
    7.9211  -17.3917   20.9153 C   0  0  0  0  0  0  0  0  0  0  0  0
    8.9698  -16.8594   21.8433 C   0  0  0  0  0  0  0  0  0  0  0  0
   10.1062  -16.4824   21.4118 O   0  0  0  0  0  0  0  0  0  0  0  0
    8.7511  -16.7501   23.2370 N   0  0  0  0  0  0  0  0  0  0  0  0
    9.7568  -16.1181   24.1044 C   0  0  1  0  0  0  0  0  0  0  0  0
    9.4228  -14.6714   24.3182 C   0  0  0  0  0  0  0  0  0  0  0  0
    8.1451  -14.3704   24.9194 C   0  0  0  0  0  0  0  0  0  0  0  0
    7.1348  -15.3224   25.1227 C   0  0  0  0  0  0  0  0  0  0  0  0
    6.0936  -14.7441   25.7272 N   0  0  0  0  0  0  0  0  0  0  0  0
    6.3571  -13.4468   25.9390 C   0  0  0  0  0  0  0  0  0  0  0  0
    5.6176  -12.4381   26.5110 C   0  0  0  0  0  0  0  0  0  0  0  0
    6.1477  -11.1636   26.5897 C   0  0  0  0  0  0  0  0  0  0  0  0
    7.3897  -10.9006   26.1076 C   0  0  0  0  0  0  0  0  0  0  0  0
    8.1258  -11.9214   25.5343 C   0  0  0  0  0  0  0  0  0  0  0  0
    7.6422  -13.2099   25.4331 C   0  0  0  0  0  0  0  0  0  0  0  0
    9.9412  -16.9455   25.2762 C   0  0  0  0  0  0  0  0  0  0  0  0
   10.8447  -16.7294   26.1205 O   0  0  0  0  0  0  0  0  0  0  0  0
    9.1140  -18.0309   25.5209 O   0  0  0  0  0  0  0  0  0  0  0  0
  2  3  2  0
  2  1  1  0
  4  2  1  0
  5  4  1  0
  5  6  1  6
  7  8  2  0
  7  5  1  0
  9  7  1  0
 10  9  1  0
 11 10  1  0
 11 12  2  0
 13 11  1  0
 14 13  1  0
 14 25  1  0
 14 15  1  1
 16 15  1  0
 17 16  2  0
 18 17  1  0
 19 18  1  0
 19 24  2  0
 20 21  2  0
 20 19  1  0
 21 22  1  0
 22 23  2  0
 24 23  1  0
 24 16  1  0
 25 27  1  0
 26 25  2  0
M  END
$$$$
