NGW.pdb
     RDKit          3D

 27 28  0  0  1  0  0  0  0  0999 V2000
    7.8805  -20.0783   16.2687 N   0  0  0  0  0  0  0  0  0  0  0  0
    8.5914  -18.8664   16.5064 C   0  0  0  0  0  0  0  0  0  0  0  0
    9.5387  -18.5662   15.7508 O   0  0  0  0  0  0  0  0  0  0  0  0
    8.2423  -17.9565   17.6174 C   0  0  0  0  0  0  0  0  0  0  0  0
    9.4782  -17.5704   18.3628 C   0  0  2  0  0  0  0  0  0  0  0  0
   10.0055  -18.7282   19.0290 N   0  0  0  0  0  0  0  0  0  0  0  0
    9.1853  -16.4627   19.3214 C   0  0  0  0  0  0  0  0  0  0  0  0
    8.7300  -15.3794   18.8758 O   0  0  0  0  0  0  0  0  0  0  0  0
    9.3987  -16.5800   20.7119 N   0  0  0  0  0  0  0  0  0  0  0  0
    9.0119  -15.5456   21.6610 C   0  0  0  0  0  0  0  0  0  0  0  0
    9.4387  -16.0266   23.0141 C   0  0  0  0  0  0  0  0  0  0  0  0
    9.4595  -17.2665   23.2998 O   0  0  0  0  0  0  0  0  0  0  0  0
    9.8372  -15.1322   24.0356 N   0  0  0  0  0  0  0  0  0  0  0  0
   10.1286  -15.6262   25.3901 C   0  0  1  0  0  0  0  0  0  0  0  0
    8.8772  -16.1460   26.0337 C   0  0  0  0  0  0  0  0  0  0  0  0
    7.7146  -15.2906   26.0034 C   0  0  0  0  0  0  0  0  0  0  0  0
    6.4224  -15.7409   25.6939 C   0  0  0  0  0  0  0  0  0  0  0  0
    5.5629  -14.7224   25.7835 N   0  0  0  0  0  0  0  0  0  0  0  0
    6.2181  -13.6078   26.1382 C   0  0  0  0  0  0  0  0  0  0  0  0
    5.7925  -12.3173   26.3506 C   0  0  0  0  0  0  0  0  0  0  0  0
    6.7098  -11.3460   26.7063 C   0  0  0  0  0  0  0  0  0  0  0  0
    8.0245  -11.6554   26.8468 C   0  0  0  0  0  0  0  0  0  0  0  0
    8.4430  -12.9558   26.6314 C   0  0  0  0  0  0  0  0  0  0  0  0
    7.5670  -13.9612   26.2761 C   0  0  0  0  0  0  0  0  0  0  0  0
   11.2682  -16.5140   25.3224 C   0  0  0  0  0  0  0  0  0  0  0  0
   11.6077  -17.2518   26.2796 O   0  0  0  0  0  0  0  0  0  0  0  0
   12.0474  -16.5893   24.1781 O   0  0  0  0  0  0  0  0  0  0  0  0
  2  3  2  0
  2  1  1  0
  4  2  1  0
  5  4  1  0
  5  6  1  1
  7  8  2  0
  7  5  1  0
  9  7  1  0
 10  9  1  0
 11 10  1  0
 11 12  2  0
 13 11  1  0
 14 13  1  0
 14 25  1  0
 14 15  1  6
 16 15  1  0
 17 16  2  0
 18 17  1  0
 19 18  1  0
 19 24  2  0
 20 21  2  0
 20 19  1  0
 21 22  1  0
 22 23  2  0
 24 23  1  0
 24 16  1  0
 25 27  1  0
 26 25  2  0
M  END
$$$$
