NGW.pdb
     RDKit          3D

 27 28  0  0  1  0  0  0  0  0999 V2000
   11.1310  -20.6983   18.0099 N   0  0  0  0  0  0  0  0  0  0  0  0
    9.8306  -20.1165   18.0421 C   0  0  0  0  0  0  0  0  0  0  0  0
    8.8478  -20.8218   17.7336 O   0  0  0  0  0  0  0  0  0  0  0  0
    9.6105  -18.7071   18.4285 C   0  0  0  0  0  0  0  0  0  0  0  0
    9.8874  -18.5329   19.8863 C   0  0  2  0  0  0  0  0  0  0  0  0
    8.8837  -19.2293   20.6413 N   0  0  0  0  0  0  0  0  0  0  0  0
    9.9406  -17.0820   20.2381 C   0  0  0  0  0  0  0  0  0  0  0  0
   10.8422  -16.3677   19.7317 O   0  0  0  0  0  0  0  0  0  0  0  0
    9.0185  -16.4755   21.1182 N   0  0  0  0  0  0  0  0  0  0  0  0
    9.0316  -15.0505   21.4178 C   0  0  0  0  0  0  0  0  0  0  0  0
    9.4034  -14.9216   22.8633 C   0  0  0  0  0  0  0  0  0  0  0  0
    9.5894  -13.7829   23.4002 O   0  0  0  0  0  0  0  0  0  0  0  0
    9.5657  -16.0522   23.6987 N   0  0  0  0  0  0  0  0  0  0  0  0
   10.1157  -15.9069   25.0550 C   0  0  1  0  0  0  0  0  0  0  0  0
    9.0424  -16.1355   26.0779 C   0  0  0  0  0  0  0  0  0  0  0  0
    7.8309  -15.3609   25.9484 C   0  0  0  0  0  0  0  0  0  0  0  0
    6.5974  -15.9015   25.5553 C   0  0  0  0  0  0  0  0  0  0  0  0
    5.6681  -14.9422   25.5641 N   0  0  0  0  0  0  0  0  0  0  0  0
    6.2204  -13.7812   25.9443 C   0  0  0  0  0  0  0  0  0  0  0  0
    5.6958  -12.5196   26.1017 C   0  0  0  0  0  0  0  0  0  0  0  0
    6.5184  -11.4839   26.5043 C   0  0  0  0  0  0  0  0  0  0  0  0
    7.8370  -11.7019   26.7445 C   0  0  0  0  0  0  0  0  0  0  0  0
    8.3553  -12.9739   26.5837 C   0  0  0  0  0  0  0  0  0  0  0  0
    7.5761  -14.0409   26.1852 C   0  0  0  0  0  0  0  0  0  0  0  0
   11.3184  -16.7039   25.1533 C   0  0  0  0  0  0  0  0  0  0  0  0
   11.7489  -17.3979   24.1999 O   0  0  0  0  0  0  0  0  0  0  0  0
   12.0598  -16.7360   26.3245 O   0  0  0  0  0  0  0  0  0  0  0  0
  2  3  2  0
  2  1  1  0
  4  2  1  0
  5  4  1  0
  5  6  1  1
  7  8  2  0
  7  5  1  0
  9  7  1  0
 10  9  1  0
 11 10  1  0
 11 12  2  0
 13 11  1  0
 14 13  1  0
 14 25  1  0
 14 15  1  1
 16 15  1  0
 17 16  2  0
 18 17  1  0
 19 18  1  0
 19 24  2  0
 20 21  2  0
 20 19  1  0
 21 22  1  0
 22 23  2  0
 24 23  1  0
 24 16  1  0
 25 27  1  0
 26 25  2  0
M  END
$$$$
