NGW.pdb
     RDKit          3D

 27 28  0  0  1  0  0  0  0  0999 V2000
   11.1198  -19.0978   14.9631 N   0  0  0  0  0  0  0  0  0  0  0  0
   11.4107  -18.3634   16.1491 C   0  0  0  0  0  0  0  0  0  0  0  0
   12.6042  -18.1649   16.4567 O   0  0  0  0  0  0  0  0  0  0  0  0
   10.3451  -17.8309   17.0239 C   0  0  0  0  0  0  0  0  0  0  0  0
   10.6892  -18.0885   18.4547 C   0  0  2  0  0  0  0  0  0  0  0  0
   10.4664  -19.4765   18.7486 N   0  0  0  0  0  0  0  0  0  0  0  0
    9.8950  -17.1960   19.3517 C   0  0  0  0  0  0  0  0  0  0  0  0
   10.0279  -15.9513   19.2412 O   0  0  0  0  0  0  0  0  0  0  0  0
    8.9977  -17.6919   20.3222 N   0  0  0  0  0  0  0  0  0  0  0  0
    8.2249  -16.8248   21.2004 C   0  0  0  0  0  0  0  0  0  0  0  0
    9.1310  -16.4461   22.3317 C   0  0  0  0  0  0  0  0  0  0  0  0
   10.2270  -15.8330   22.1255 O   0  0  0  0  0  0  0  0  0  0  0  0
    8.8160  -16.7494   23.6775 N   0  0  0  0  0  0  0  0  0  0  0  0
    9.7103  -16.3304   24.7674 C   0  0  1  0  0  0  0  0  0  0  0  0
    9.3925  -14.9263   25.1893 C   0  0  0  0  0  0  0  0  0  0  0  0
    8.0126  -14.6221   25.4857 C   0  0  0  0  0  0  0  0  0  0  0  0
    6.9790  -15.5700   25.4476 C   0  0  0  0  0  0  0  0  0  0  0  0
    5.8297  -14.9897   25.8029 N   0  0  0  0  0  0  0  0  0  0  0  0
    6.0430  -13.6949   26.0774 C   0  0  0  0  0  0  0  0  0  0  0  0
    5.1964  -12.6855   26.4725 C   0  0  0  0  0  0  0  0  0  0  0  0
    5.6994  -11.4142   26.6780 C   0  0  0  0  0  0  0  0  0  0  0  0
    7.0195  -11.1550   26.4929 C   0  0  0  0  0  0  0  0  0  0  0  0
    7.8630  -12.1764   26.0957 C   0  0  0  0  0  0  0  0  0  0  0  0
    7.4104  -13.4619   25.8788 C   0  0  0  0  0  0  0  0  0  0  0  0
    9.7067  -17.3556   25.7874 C   0  0  0  0  0  0  0  0  0  0  0  0
   10.4439  -17.3018   26.8021 O   0  0  0  0  0  0  0  0  0  0  0  0
    8.8750  -18.4603   25.6863 O   0  0  0  0  0  0  0  0  0  0  0  0
  2  3  2  0
  2  1  1  0
  4  2  1  0
  5  4  1  0
  5  6  1  1
  7  8  2  0
  7  5  1  0
  9  7  1  0
 10  9  1  0
 11 10  1  0
 11 12  2  0
 13 11  1  0
 14 13  1  0
 14 25  1  0
 14 15  1  1
 16 15  1  0
 17 16  2  0
 18 17  1  0
 19 18  1  0
 19 24  2  0
 20 21  2  0
 20 19  1  0
 21 22  1  0
 22 23  2  0
 24 23  1  0
 24 16  1  0
 25 27  1  0
 26 25  2  0
M  END
$$$$
