NGW.pdb
     RDKit          3D

 27 28  0  0  1  0  0  0  0  0999 V2000
    6.7202  -14.4239   15.7149 N   0  0  0  0  0  0  0  0  0  0  0  0
    7.8813  -13.9548   16.3949 C   0  0  0  0  0  0  0  0  0  0  0  0
    8.9415  -13.8162   15.7504 O   0  0  0  0  0  0  0  0  0  0  0  0
    7.8686  -13.6282   17.8362 C   0  0  0  0  0  0  0  0  0  0  0  0
    9.0039  -14.3168   18.5211 C   0  0  2  0  0  0  0  0  0  0  0  0
    9.5240  -15.3383   17.6560 N   0  0  0  0  0  0  0  0  0  0  0  0
    8.5609  -14.8735   19.8348 C   0  0  0  0  0  0  0  0  0  0  0  0
    8.0996  -14.0891   20.7015 O   0  0  0  0  0  0  0  0  0  0  0  0
    8.6381  -16.2482   20.1464 N   0  0  0  0  0  0  0  0  0  0  0  0
    8.1591  -16.8013   21.4054 C   0  0  0  0  0  0  0  0  0  0  0  0
    9.1000  -16.3215   22.4679 C   0  0  0  0  0  0  0  0  0  0  0  0
   10.1745  -15.7070   22.1725 O   0  0  0  0  0  0  0  0  0  0  0  0
    8.8429  -16.5263   23.8442 N   0  0  0  0  0  0  0  0  0  0  0  0
    9.7934  -16.0514   24.8612 C   0  0  1  0  0  0  0  0  0  0  0  0
    9.0733  -15.7388   26.1395 C   0  0  0  0  0  0  0  0  0  0  0  0
    7.8462  -14.9847   26.0388 C   0  0  0  0  0  0  0  0  0  0  0  0
    6.6042  -15.5543   25.7207 C   0  0  0  0  0  0  0  0  0  0  0  0
    5.6625  -14.6072   25.7390 N   0  0  0  0  0  0  0  0  0  0  0  0
    6.2146  -13.4268   26.0540 C   0  0  0  0  0  0  0  0  0  0  0  0
    5.6796  -12.1673   26.1920 C   0  0  0  0  0  0  0  0  0  0  0  0
    6.5045  -11.1078   26.5214 C   0  0  0  0  0  0  0  0  0  0  0  0
    7.8356  -11.3006   26.7089 C   0  0  0  0  0  0  0  0  0  0  0  0
    8.3643  -12.5707   26.5681 C   0  0  0  0  0  0  0  0  0  0  0  0
    7.5834  -13.6607   26.2419 C   0  0  0  0  0  0  0  0  0  0  0  0
   10.9030  -16.9769   24.9240 C   0  0  0  0  0  0  0  0  0  0  0  0
   12.0681  -16.6157   25.2205 O   0  0  0  0  0  0  0  0  0  0  0  0
   10.7240  -18.3251   24.6548 O   0  0  0  0  0  0  0  0  0  0  0  0
  2  3  2  0
  2  1  1  0
  4  2  1  0
  5  4  1  0
  5  6  1  6
  7  8  2  0
  7  5  1  0
  9  7  1  0
 10  9  1  0
 11 10  1  0
 11 12  2  0
 13 11  1  0
 14 13  1  0
 14 25  1  0
 14 15  1  1
 16 15  1  0
 17 16  2  0
 18 17  1  0
 19 18  1  0
 19 24  2  0
 20 21  2  0
 20 19  1  0
 21 22  1  0
 22 23  2  0
 24 23  1  0
 24 16  1  0
 25 27  1  0
 26 25  2  0
M  END
$$$$
