NGW.pdb
     RDKit          3D

 27 28  0  0  1  0  0  0  0  0999 V2000
    9.7203  -14.1120   15.3182 N   0  0  0  0  0  0  0  0  0  0  0  0
    8.5333  -13.8520   16.0625 C   0  0  0  0  0  0  0  0  0  0  0  0
    7.5907  -13.2547   15.5029 O   0  0  0  0  0  0  0  0  0  0  0  0
    8.3846  -14.2668   17.4732 C   0  0  0  0  0  0  0  0  0  0  0  0
    8.1743  -15.7442   17.5468 C   0  0  2  0  0  0  0  0  0  0  0  0
    6.8587  -16.0557   17.0625 N   0  0  0  0  0  0  0  0  0  0  0  0
    8.3826  -16.2324   18.9432 C   0  0  0  0  0  0  0  0  0  0  0  0
    9.5571  -16.3889   19.3622 O   0  0  0  0  0  0  0  0  0  0  0  0
    7.3134  -16.5270   19.8165 N   0  0  0  0  0  0  0  0  0  0  0  0
    7.4724  -17.3383   21.0152 C   0  0  0  0  0  0  0  0  0  0  0  0
    8.4273  -16.6029   21.9049 C   0  0  0  0  0  0  0  0  0  0  0  0
    9.0457  -15.5670   21.4998 O   0  0  0  0  0  0  0  0  0  0  0  0
    8.6882  -17.0205   23.2314 N   0  0  0  0  0  0  0  0  0  0  0  0
    9.6971  -16.3290   24.0483 C   0  0  1  0  0  0  0  0  0  0  0  0
    9.3895  -14.8627   24.1220 C   0  0  0  0  0  0  0  0  0  0  0  0
    8.1878  -14.4743   24.8217 C   0  0  0  0  0  0  0  0  0  0  0  0
    7.1423  -15.3586   25.1270 C   0  0  0  0  0  0  0  0  0  0  0  0
    6.1930  -14.7081   25.8050 N   0  0  0  0  0  0  0  0  0  0  0  0
    6.5519  -13.4268   25.9688 C   0  0  0  0  0  0  0  0  0  0  0  0
    5.9260  -12.3660   26.5808 C   0  0  0  0  0  0  0  0  0  0  0  0
    6.5374  -11.1260   26.5903 C   0  0  0  0  0  0  0  0  0  0  0  0
    7.7478  -10.9476   26.0012 C   0  0  0  0  0  0  0  0  0  0  0  0
    8.3694  -12.0203   25.3884 C   0  0  0  0  0  0  0  0  0  0  0  0
    7.8016  -13.2776   25.3529 C   0  0  0  0  0  0  0  0  0  0  0  0
    9.8530  -17.0464   25.2943 C   0  0  0  0  0  0  0  0  0  0  0  0
    9.0530  -17.9406   25.6638 O   0  0  0  0  0  0  0  0  0  0  0  0
   10.9103  -16.7726   26.1483 O   0  0  0  0  0  0  0  0  0  0  0  0
  2  3  2  0
  2  1  1  0
  4  2  1  0
  5  4  1  0
  5  6  1  1
  7  8  2  0
  7  5  1  0
  9  7  1  0
 10  9  1  0
 11 10  1  0
 11 12  2  0
 13 11  1  0
 14 13  1  0
 14 25  1  0
 14 15  1  1
 16 15  1  0
 17 16  2  0
 18 17  1  0
 19 18  1  0
 19 24  2  0
 20 21  2  0
 20 19  1  0
 21 22  1  0
 22 23  2  0
 24 23  1  0
 24 16  1  0
 25 27  1  0
 26 25  2  0
M  END
$$$$
