NGW.pdb
     RDKit          3D

 27 28  0  0  1  0  0  0  0  0999 V2000
    8.1682  -12.3055   16.5494 N   0  0  0  0  0  0  0  0  0  0  0  0
    7.9169  -13.7081   16.5405 C   0  0  0  0  0  0  0  0  0  0  0  0
    8.0267  -14.3323   15.4649 O   0  0  0  0  0  0  0  0  0  0  0  0
    7.5313  -14.4444   17.7625 C   0  0  0  0  0  0  0  0  0  0  0  0
    8.7390  -14.6917   18.6066 C   0  0  2  0  0  0  0  0  0  0  0  0
    9.6656  -15.5074   17.8728 N   0  0  0  0  0  0  0  0  0  0  0  0
    8.3493  -15.3225   19.9035 C   0  0  0  0  0  0  0  0  0  0  0  0
    7.6108  -14.6809   20.6924 O   0  0  0  0  0  0  0  0  0  0  0  0
    8.7762  -16.6133   20.2833 N   0  0  0  0  0  0  0  0  0  0  0  0
    8.3553  -17.2524   21.5222 C   0  0  0  0  0  0  0  0  0  0  0  0
    9.2599  -16.7349   22.5983 C   0  0  0  0  0  0  0  0  0  0  0  0
   10.3213  -16.0909   22.3182 O   0  0  0  0  0  0  0  0  0  0  0  0
    8.9817  -16.9349   23.9712 N   0  0  0  0  0  0  0  0  0  0  0  0
    9.8767  -16.3890   25.0028 C   0  0  1  0  0  0  0  0  0  0  0  0
    9.1208  -16.1601   26.2781 C   0  0  0  0  0  0  0  0  0  0  0  0
    7.9380  -15.3353   26.2058 C   0  0  0  0  0  0  0  0  0  0  0  0
    6.6369  -15.8458   26.0842 C   0  0  0  0  0  0  0  0  0  0  0  0
    5.7618  -14.8367   26.0774 N   0  0  0  0  0  0  0  0  0  0  0  0
    6.4149  -13.6711   26.1881 C   0  0  0  0  0  0  0  0  0  0  0  0
    5.9752  -12.3684   26.2210 C   0  0  0  0  0  0  0  0  0  0  0  0
    6.8932  -11.3409   26.3341 C   0  0  0  0  0  0  0  0  0  0  0  0
    8.2225  -11.6072   26.4125 C   0  0  0  0  0  0  0  0  0  0  0  0
    8.6551  -12.9203   26.3788 C   0  0  0  0  0  0  0  0  0  0  0  0
    7.7792  -13.9809   26.2682 C   0  0  0  0  0  0  0  0  0  0  0  0
   11.0654  -17.2105   25.0644 C   0  0  0  0  0  0  0  0  0  0  0  0
   11.1551  -18.3144   24.4736 O   0  0  0  0  0  0  0  0  0  0  0  0
   12.1752  -16.8069   25.7908 O   0  0  0  0  0  0  0  0  0  0  0  0
  2  3  2  0
  2  1  1  0
  4  2  1  0
  5  4  1  0
  5  6  1  6
  7  8  2  0
  7  5  1  0
  9  7  1  0
 10  9  1  0
 11 10  1  0
 11 12  2  0
 13 11  1  0
 14 13  1  0
 14 25  1  0
 14 15  1  1
 16 15  1  0
 17 16  2  0
 18 17  1  0
 19 18  1  0
 19 24  2  0
 20 21  2  0
 20 19  1  0
 21 22  1  0
 22 23  2  0
 24 23  1  0
 24 16  1  0
 25 27  1  0
 26 25  2  0
M  END
$$$$
