NGW.pdb
     RDKit          3D

 27 28  0  0  1  0  0  0  0  0999 V2000
    6.8480  -16.8382   18.0108 N   0  0  0  0  0  0  0  0  0  0  0  0
    6.9665  -16.4354   19.3726 C   0  0  0  0  0  0  0  0  0  0  0  0
    5.9505  -16.4589   20.0977 O   0  0  0  0  0  0  0  0  0  0  0  0
    8.2521  -15.9919   19.9511 C   0  0  0  0  0  0  0  0  0  0  0  0
    8.8871  -17.1197   20.6974 C   0  0  2  0  0  0  0  0  0  0  0  0
    8.0371  -17.4958   21.7920 N   0  0  0  0  0  0  0  0  0  0  0  0
   10.2538  -16.7346   21.1618 C   0  0  0  0  0  0  0  0  0  0  0  0
   11.1664  -16.5923   20.3095 O   0  0  0  0  0  0  0  0  0  0  0  0
   10.5664  -16.5227   22.5220 N   0  0  0  0  0  0  0  0  0  0  0  0
   11.9097  -16.2017   22.9836 C   0  0  0  0  0  0  0  0  0  0  0  0
   11.8137  -15.9924   24.4639 C   0  0  0  0  0  0  0  0  0  0  0  0
   12.8387  -15.7000   25.1591 O   0  0  0  0  0  0  0  0  0  0  0  0
   10.5866  -16.1089   25.1589 N   0  0  0  0  0  0  0  0  0  0  0  0
   10.5688  -16.3308   26.6127 C   0  0  1  0  0  0  0  0  0  0  0  0
    9.6312  -15.3646   27.2742 C   0  0  0  0  0  0  0  0  0  0  0  0
    8.4019  -15.0581   26.5819 C   0  0  0  0  0  0  0  0  0  0  0  0
    7.5193  -16.0319   26.0909 C   0  0  0  0  0  0  0  0  0  0  0  0
    6.4626  -15.4344   25.5339 N   0  0  0  0  0  0  0  0  0  0  0  0
    6.5946  -14.1035   25.6271 C   0  0  0  0  0  0  0  0  0  0  0  0
    5.7945  -13.0668   25.2067 C   0  0  0  0  0  0  0  0  0  0  0  0
    6.1930  -11.7623   25.4324 C   0  0  0  0  0  0  0  0  0  0  0  0
    7.3655  -11.4973   26.0641 C   0  0  0  0  0  0  0  0  0  0  0  0
    8.1632  -12.5463   26.4834 C   0  0  0  0  0  0  0  0  0  0  0  0
    7.8096  -13.8651   26.2831 C   0  0  0  0  0  0  0  0  0  0  0  0
   10.3666  -17.7410   26.8620 C   0  0  0  0  0  0  0  0  0  0  0  0
   10.4824  -18.2486   28.0042 O   0  0  0  0  0  0  0  0  0  0  0  0
   10.0305  -18.6068   25.8326 O   0  0  0  0  0  0  0  0  0  0  0  0
  2  3  2  0
  2  1  1  0
  4  2  1  0
  5  4  1  0
  5  6  1  1
  7  8  2  0
  7  5  1  0
  9  7  1  0
 10  9  1  0
 11 10  1  0
 11 12  2  0
 13 11  1  0
 14 13  1  0
 14 25  1  0
 14 15  1  1
 16 15  1  0
 17 16  2  0
 18 17  1  0
 19 18  1  0
 19 24  2  0
 20 21  2  0
 20 19  1  0
 21 22  1  0
 22 23  2  0
 24 23  1  0
 24 16  1  0
 25 27  1  0
 26 25  2  0
M  END
$$$$
