NGW.pdb
     RDKit          3D

 27 28  0  0  1  0  0  0  0  0999 V2000
    7.1172  -12.3145   18.9510 N   0  0  0  0  0  0  0  0  0  0  0  0
    7.6504  -13.5414   18.4601 C   0  0  0  0  0  0  0  0  0  0  0  0
    7.0726  -14.1121   17.5119 O   0  0  0  0  0  0  0  0  0  0  0  0
    8.8633  -14.1573   19.0378 C   0  0  0  0  0  0  0  0  0  0  0  0
    8.5374  -15.5152   19.5688 C   0  0  2  0  0  0  0  0  0  0  0  0
    7.5965  -15.3847   20.6459 N   0  0  0  0  0  0  0  0  0  0  0  0
    9.7821  -16.2197   20.0003 C   0  0  0  0  0  0  0  0  0  0  0  0
   10.6145  -16.5706   19.1266 O   0  0  0  0  0  0  0  0  0  0  0  0
   10.0655  -16.5097   21.3525 N   0  0  0  0  0  0  0  0  0  0  0  0
   11.2842  -17.1837   21.7778 C   0  0  0  0  0  0  0  0  0  0  0  0
   11.2621  -17.2009   23.2756 C   0  0  0  0  0  0  0  0  0  0  0  0
   12.1349  -17.8427   23.9434 O   0  0  0  0  0  0  0  0  0  0  0  0
   10.2761  -16.5090   24.0182 N   0  0  0  0  0  0  0  0  0  0  0  0
   10.3999  -16.3693   25.4771 C   0  0  1  0  0  0  0  0  0  0  0  0
    9.9248  -15.0142   25.9112 C   0  0  0  0  0  0  0  0  0  0  0  0
    8.5107  -14.7441   25.8026 C   0  0  0  0  0  0  0  0  0  0  0  0
    7.5562  -15.7110   25.4527 C   0  0  0  0  0  0  0  0  0  0  0  0
    6.3388  -15.1618   25.4715 N   0  0  0  0  0  0  0  0  0  0  0  0
    6.4311  -13.8697   25.8173 C   0  0  0  0  0  0  0  0  0  0  0  0
    5.4812  -12.8866   25.9685 C   0  0  0  0  0  0  0  0  0  0  0  0
    5.8714  -11.6108   26.3312 C   0  0  0  0  0  0  0  0  0  0  0  0
    7.1818  -11.3215   26.5385 C   0  0  0  0  0  0  0  0  0  0  0  0
    8.1297  -12.3166   26.3842 C   0  0  0  0  0  0  0  0  0  0  0  0
    7.7914  -13.6054   26.0248 C   0  0  0  0  0  0  0  0  0  0  0  0
    9.7980  -17.5252   26.1043 C   0  0  0  0  0  0  0  0  0  0  0  0
    9.0366  -18.3092   25.4867 O   0  0  0  0  0  0  0  0  0  0  0  0
   10.0404  -17.8215   27.4368 O   0  0  0  0  0  0  0  0  0  0  0  0
  2  3  2  0
  2  1  1  0
  4  2  1  0
  5  4  1  0
  5  6  1  1
  7  8  2  0
  7  5  1  0
  9  7  1  0
 10  9  1  0
 11 10  1  0
 11 12  2  0
 13 11  1  0
 14 13  1  0
 14 25  1  0
 14 15  1  1
 16 15  1  0
 17 16  2  0
 18 17  1  0
 19 18  1  0
 19 24  2  0
 20 21  2  0
 20 19  1  0
 21 22  1  0
 22 23  2  0
 24 23  1  0
 24 16  1  0
 25 27  1  0
 26 25  2  0
M  END
$$$$
