VRK.pdb
     RDKit          3D

 28 27  0  0  1  0  0  0  0  0999 V2000
   10.5011  -22.3575   18.3216 C   0  0  0  0  0  0  0  0  0  0  0  0
    9.3889  -22.7226   19.2470 C   0  0  2  0  0  0  0  0  0  0  0  0
    8.6917  -23.9776   18.7716 C   0  0  0  0  0  0  0  0  0  0  0  0
    8.3787  -21.6041   19.4078 C   0  0  2  0  0  0  0  0  0  0  0  0
    7.7234  -21.4358   18.1276 N   0  0  0  0  0  0  0  0  0  0  0  0
    9.0286  -20.3232   19.7578 C   0  0  0  0  0  0  0  0  0  0  0  0
   10.1219  -20.0295   19.2222 O   0  0  0  0  0  0  0  0  0  0  0  0
    8.7746  -12.1880   20.3865 N   0  0  0  0  0  0  0  0  0  0  0  0
    8.1064  -13.0972   19.4984 C   0  0  0  0  0  0  0  0  0  0  0  0
    8.1220  -12.8693   18.2490 N   0  0  0  0  0  0  0  0  0  0  0  0
    7.4374  -14.2354   19.9966 N   0  0  0  0  0  0  0  0  0  0  0  0
    7.5892  -14.6996   21.3561 C   0  0  0  0  0  0  0  0  0  0  0  0
    8.7281  -15.7220   21.4271 C   0  0  0  0  0  0  0  0  0  0  0  0
    8.1264  -17.0423   21.0380 C   0  0  0  0  0  0  0  0  0  0  0  0
    9.1662  -18.1668   21.0624 C   0  0  2  0  0  0  0  0  0  0  0  0
    8.4840  -19.3952   20.6735 N   0  0  0  0  0  0  0  0  0  0  0  0
    9.7929  -18.3074   22.4025 C   0  0  0  0  0  0  0  0  0  0  0  0
    9.0938  -18.6901   23.3928 O   0  0  0  0  0  0  0  0  0  0  0  0
    7.5967  -13.4475   17.5651 N   0  0  0  0  0  0  0  0  0  0  0  0
   11.1385  -18.0321   22.6194 C   0  0  2  0  0  0  0  0  0  0  0  0
   11.8364  -18.2934   23.9237 C   0  0  0  0  0  0  0  0  0  0  0  0
   13.2727  -18.1923   23.5188 C   0  0  0  0  0  0  0  0  0  0  0  0
   14.2825  -19.1524   23.9237 C   0  0  0  0  0  0  0  0  0  0  0  0
   15.6803  -18.9229   23.5147 C   0  0  0  0  0  0  0  0  0  0  0  0
   16.5992  -20.0020   24.1663 N   0  0  0  0  0  0  0  0  0  0  0  0
   17.9515  -19.6393   23.7886 C   0  0  0  0  0  0  0  0  0  0  0  0
   11.3352  -17.1699   24.7551 O   0  0  0  0  0  0  0  0  0  0  0  0
   11.2302  -17.1373   26.1273 O   0  0  0  0  0  0  0  0  0  0  0  0
  2  1  1  6
  3  2  1  0
  4  5  1  6
  4  2  1  0
  6  4  1  0
  7  6  2  0
  9 10  2  0
  9  8  1  0
 11  9  1  0
 12 11  1  0
 12 13  1  0
 14 13  1  0
 15 14  1  1
 15 16  1  0
 16  6  1  0
 17 15  1  0
 17 18  2  0
 19 17  1  0
 20 19  1  0
 20 26  1  0
 20 21  1  6
 22 21  1  0
 23 22  1  0
 24 23  1  0
 24 25  1  0
 26 27  1  0
 28 26  2  0
M  END
$$$$
