VRK.pdb
     RDKit          3D

 28 27  0  0  1  0  0  0  0  0999 V2000
    8.4263  -13.3894   18.1380 C   0  0  0  0  0  0  0  0  0  0  0  0
    8.0138  -12.9520   19.5037 C   0  0  2  0  0  0  0  0  0  0  0  0
    9.2185  -12.5240   20.3117 C   0  0  0  0  0  0  0  0  0  0  0  0
    7.2512  -14.0281   20.2507 C   0  0  2  0  0  0  0  0  0  0  0  0
    6.7766  -13.4349   21.4834 N   0  0  0  0  0  0  0  0  0  0  0  0
    8.1185  -15.1728   20.6013 C   0  0  0  0  0  0  0  0  0  0  0  0
    8.8815  -15.0776   21.5899 O   0  0  0  0  0  0  0  0  0  0  0  0
   11.7614  -21.1903   17.6244 N   0  0  0  0  0  0  0  0  0  0  0  0
   11.1150  -22.2928   18.2789 C   0  0  0  0  0  0  0  0  0  0  0  0
   11.7274  -23.4011   18.3796 N   0  0  0  0  0  0  0  0  0  0  0  0
    9.8143  -22.1582   18.8093 N   0  0  0  0  0  0  0  0  0  0  0  0
    9.0181  -20.9655   18.6354 C   0  0  0  0  0  0  0  0  0  0  0  0
    9.5257  -19.8659   19.5738 C   0  0  0  0  0  0  0  0  0  0  0  0
    8.6003  -18.6979   19.3845 C   0  0  0  0  0  0  0  0  0  0  0  0
    9.0706  -17.4706   20.1712 C   0  0  2  0  0  0  0  0  0  0  0  0
    8.1401  -16.3869   19.8789 N   0  0  0  0  0  0  0  0  0  0  0  0
   10.4616  -17.0884   19.8145 C   0  0  0  0  0  0  0  0  0  0  0  0
   10.6798  -16.3781   18.7832 O   0  0  0  0  0  0  0  0  0  0  0  0
   11.3251  -24.2236   18.8691 N   0  0  0  0  0  0  0  0  0  0  0  0
   11.5538  -17.4845   20.5788 C   0  0  2  0  0  0  0  0  0  0  0  0
   12.9631  -17.0491   20.2951 C   0  0  0  0  0  0  0  0  0  0  0  0
   13.5963  -17.1924   21.6427 C   0  0  0  0  0  0  0  0  0  0  0  0
   14.9705  -16.8175   21.9194 C   0  0  0  0  0  0  0  0  0  0  0  0
   15.5060  -17.0450   23.2742 C   0  0  0  0  0  0  0  0  0  0  0  0
   17.0299  -16.7123   23.2963 N   0  0  0  0  0  0  0  0  0  0  0  0
   17.4690  -16.9946   24.6492 C   0  0  0  0  0  0  0  0  0  0  0  0
   13.3851  -18.0570   19.2899 O   0  0  0  0  0  0  0  0  0  0  0  0
   14.2120  -17.8527   18.2084 O   0  0  0  0  0  0  0  0  0  0  0  0
  2  1  1  6
  3  2  1  0
  4  5  1  1
  4  2  1  0
  6  4  1  0
  7  6  2  0
  9 10  2  0
  9  8  1  0
 11  9  1  0
 12 11  1  0
 12 13  1  0
 14 13  1  0
 15 14  1  6
 15 16  1  0
 16  6  1  0
 17 15  1  0
 17 18  2  0
 19 17  1  0
 20 19  1  0
 20 26  1  0
 20 21  1  1
 22 21  1  0
 23 22  1  0
 24 23  1  0
 24 25  1  0
 26 27  1  0
 28 26  2  0
M  END
$$$$
