VRK.pdb
     RDKit          3D

 28 27  0  0  1  0  0  0  0  0999 V2000
    7.5339  -12.6523   19.9175 C   0  0  0  0  0  0  0  0  0  0  0  0
    8.6417  -13.3665   19.2180 C   0  0  2  0  0  0  0  0  0  0  0  0
    8.9321  -12.7192   17.8824 C   0  0  0  0  0  0  0  0  0  0  0  0
    8.3470  -14.8401   19.0206 C   0  0  2  0  0  0  0  0  0  0  0  0
    7.2922  -14.9341   18.0330 N   0  0  0  0  0  0  0  0  0  0  0  0
    7.8627  -15.4748   20.2648 C   0  0  0  0  0  0  0  0  0  0  0  0
    6.6836  -15.2694   20.6334 O   0  0  0  0  0  0  0  0  0  0  0  0
    6.2332  -21.9565   25.1919 N   0  0  0  0  0  0  0  0  0  0  0  0
    7.4269  -21.2413   25.5459 C   0  0  0  0  0  0  0  0  0  0  0  0
    7.4872  -20.6504   26.6687 N   0  0  0  0  0  0  0  0  0  0  0  0
    8.5279  -21.1893   24.6647 N   0  0  0  0  0  0  0  0  0  0  0  0
    8.4623  -20.5582   23.3671 C   0  0  0  0  0  0  0  0  0  0  0  0
    8.0445  -19.0928   23.5275 C   0  0  0  0  0  0  0  0  0  0  0  0
    8.5093  -18.3894   22.2843 C   0  0  0  0  0  0  0  0  0  0  0  0
    8.1878  -16.8924   22.3277 C   0  0  2  0  0  0  0  0  0  0  0  0
    8.6604  -16.3120   21.0766 N   0  0  0  0  0  0  0  0  0  0  0  0
    8.8216  -16.2275   23.4958 C   0  0  0  0  0  0  0  0  0  0  0  0
   10.0740  -16.0098   23.4995 O   0  0  0  0  0  0  0  0  0  0  0  0
    8.3244  -20.1225   26.9823 N   0  0  0  0  0  0  0  0  0  0  0  0
    8.0849  -15.8265   24.6049 C   0  0  2  0  0  0  0  0  0  0  0  0
    8.6813  -15.0951   25.7736 C   0  0  0  0  0  0  0  0  0  0  0  0
    7.5293  -14.2497   26.2156 C   0  0  0  0  0  0  0  0  0  0  0  0
    7.4735  -12.8138   26.0143 C   0  0  0  0  0  0  0  0  0  0  0  0
    6.2706  -12.0844   26.4559 C   0  0  0  0  0  0  0  0  0  0  0  0
    6.4319  -10.5668   26.1330 N   0  0  0  0  0  0  0  0  0  0  0  0
    5.1697   -9.9555   26.5017 C   0  0  0  0  0  0  0  0  0  0  0  0
    9.0224  -16.2199   26.6808 O   0  0  0  0  0  0  0  0  0  0  0  0
   10.0014  -16.2362   27.6484 O   0  0  0  0  0  0  0  0  0  0  0  0
  2  1  1  6
  3  2  1  0
  4  5  1  6
  4  2  1  0
  6  4  1  0
  7  6  2  0
  9 10  2  0
  9  8  1  0
 11  9  1  0
 12 11  1  0
 12 13  1  0
 14 13  1  0
 15 14  1  6
 15 16  1  0
 16  6  1  0
 17 15  1  0
 17 18  2  0
 19 17  1  0
 20 19  1  0
 20 26  1  0
 20 21  1  6
 22 21  1  0
 23 22  1  0
 24 23  1  0
 24 25  1  0
 26 27  1  0
 28 26  2  0
M  END
$$$$
