VRK.pdb
     RDKit          3D

 28 27  0  0  1  0  0  0  0  0999 V2000
    7.1710  -13.5946   19.0539 C   0  0  0  0  0  0  0  0  0  0  0  0
    8.1671  -12.7505   19.7762 C   0  0  2  0  0  0  0  0  0  0  0  0
    8.4015  -11.4529   19.0356 C   0  0  0  0  0  0  0  0  0  0  0  0
    9.4867  -13.4656   19.9884 C   0  0  2  0  0  0  0  0  0  0  0  0
   10.0727  -13.6734   18.6806 N   0  0  0  0  0  0  0  0  0  0  0  0
    9.2986  -14.7898   20.6180 C   0  0  0  0  0  0  0  0  0  0  0  0
    8.7549  -14.8563   21.7442 O   0  0  0  0  0  0  0  0  0  0  0  0
    7.2005  -22.5584   17.0972 N   0  0  0  0  0  0  0  0  0  0  0  0
    6.9486  -22.5996   18.5102 C   0  0  0  0  0  0  0  0  0  0  0  0
    6.2758  -23.5625   18.9934 N   0  0  0  0  0  0  0  0  0  0  0  0
    7.4388  -21.5877   19.3628 N   0  0  0  0  0  0  0  0  0  0  0  0
    8.1503  -20.4295   18.8739 C   0  0  0  0  0  0  0  0  0  0  0  0
    8.7009  -19.6261   20.0566 C   0  0  0  0  0  0  0  0  0  0  0  0
    9.0062  -18.2557   19.5223 C   0  0  0  0  0  0  0  0  0  0  0  0
    9.4740  -17.3078   20.6308 C   0  0  2  0  0  0  0  0  0  0  0  0
    9.7006  -16.0043   20.0182 N   0  0  0  0  0  0  0  0  0  0  0  0
   10.7066  -17.8049   21.2957 C   0  0  0  0  0  0  0  0  0  0  0  0
   11.7238  -18.1124   20.5981 O   0  0  0  0  0  0  0  0  0  0  0  0
    6.0449  -23.6366   20.0029 N   0  0  0  0  0  0  0  0  0  0  0  0
   10.7925  -17.9489   22.6761 C   0  0  1  0  0  0  0  0  0  0  0  0
   12.0048  -18.4922   23.3771 C   0  0  0  0  0  0  0  0  0  0  0  0
   12.9181  -17.3078   23.3543 C   0  0  0  0  0  0  0  0  0  0  0  0
   14.1161  -17.2432   22.5383 C   0  0  0  0  0  0  0  0  0  0  0  0
   14.9695  -16.0442   22.6294 C   0  0  0  0  0  0  0  0  0  0  0  0
   16.0915  -16.1181   21.5483 N   0  0  0  0  0  0  0  0  0  0  0  0
   16.9099  -14.9393   21.7573 C   0  0  0  0  0  0  0  0  0  0  0  0
   11.4458  -18.8317   24.7100 O   0  0  0  0  0  0  0  0  0  0  0  0
   11.9841  -19.6929   25.6393 O   0  0  0  0  0  0  0  0  0  0  0  0
  2  1  1  6
  3  2  1  0
  4  5  1  6
  4  2  1  0
  6  4  1  0
  7  6  2  0
  9 10  2  0
  9  8  1  0
 11  9  1  0
 12 11  1  0
 12 13  1  0
 14 13  1  0
 15 14  1  6
 15 16  1  0
 16  6  1  0
 17 15  1  0
 17 18  2  0
 19 17  1  0
 20 19  1  0
 20 26  1  0
 20 21  1  1
 22 21  1  0
 23 22  1  0
 24 23  1  0
 24 25  1  0
 26 27  1  0
 28 26  2  0
M  END
$$$$
