VRK.pdb
     RDKit          3D

 28 27  0  0  1  0  0  0  0  0999 V2000
    7.7245  -12.8533   20.6877 C   0  0  0  0  0  0  0  0  0  0  0  0
    8.4892  -13.4409   19.5491 C   0  0  2  0  0  0  0  0  0  0  0  0
    8.2747  -12.6311   18.2900 C   0  0  0  0  0  0  0  0  0  0  0  0
    8.1263  -14.8905   19.2946 C   0  0  2  0  0  0  0  0  0  0  0  0
    6.7409  -14.9144   18.8742 N   0  0  0  0  0  0  0  0  0  0  0  0
    8.2439  -15.7092   20.5200 C   0  0  0  0  0  0  0  0  0  0  0  0
    7.2906  -15.7294   21.3318 O   0  0  0  0  0  0  0  0  0  0  0  0
   14.0398  -18.3741   20.0106 N   0  0  0  0  0  0  0  0  0  0  0  0
   13.5661  -19.7209   19.8571 C   0  0  0  0  0  0  0  0  0  0  0  0
   14.3908  -20.6831   19.9433 N   0  0  0  0  0  0  0  0  0  0  0  0
   12.2014  -19.9850   19.6137 N   0  0  0  0  0  0  0  0  0  0  0  0
   11.1697  -18.9879   19.7810 C   0  0  0  0  0  0  0  0  0  0  0  0
   10.4171  -19.2403   21.0915 C   0  0  0  0  0  0  0  0  0  0  0  0
   10.7550  -18.0876   21.9936 C   0  0  0  0  0  0  0  0  0  0  0  0
    9.5790  -17.1165   22.1349 C   0  0  2  0  0  0  0  0  0  0  0  0
    9.3832  -16.4824   20.8367 N   0  0  0  0  0  0  0  0  0  0  0  0
    9.8281  -16.1010   23.1910 C   0  0  0  0  0  0  0  0  0  0  0  0
   10.7153  -15.2078   23.0157 O   0  0  0  0  0  0  0  0  0  0  0  0
   14.1046  -21.6780   19.8643 N   0  0  0  0  0  0  0  0  0  0  0  0
    9.1153  -16.0893   24.3849 C   0  0  1  0  0  0  0  0  0  0  0  0
    9.2577  -15.0126   25.4226 C   0  0  0  0  0  0  0  0  0  0  0  0
    7.9627  -14.2796   25.2712 C   0  0  0  0  0  0  0  0  0  0  0  0
    7.5606  -13.1884   26.1389 C   0  0  0  0  0  0  0  0  0  0  0  0
    6.2588  -12.5384   25.9002 C   0  0  0  0  0  0  0  0  0  0  0  0
    6.0099  -11.4510   26.9906 N   0  0  0  0  0  0  0  0  0  0  0  0
    4.7512  -10.8253   26.6343 C   0  0  0  0  0  0  0  0  0  0  0  0
    9.3856  -15.8165   26.6643 O   0  0  0  0  0  0  0  0  0  0  0  0
    8.8461  -17.0598   26.9055 O   0  0  0  0  0  0  0  0  0  0  0  0
  2  1  1  1
  3  2  1  0
  4  5  1  1
  4  2  1  0
  6  4  1  0
  7  6  2  0
  9 10  2  0
  9  8  1  0
 11  9  1  0
 12 11  1  0
 12 13  1  0
 14 13  1  0
 15 14  1  6
 15 16  1  0
 16  6  1  0
 17 15  1  0
 17 18  2  0
 19 17  1  0
 20 19  1  0
 20 26  1  0
 20 21  1  1
 22 21  1  0
 23 22  1  0
 24 23  1  0
 24 25  1  0
 26 27  1  0
 28 26  2  0
M  END
$$$$
