VRK.pdb
     RDKit          3D

 28 27  0  0  1  0  0  0  0  0999 V2000
    6.2980  -12.1103   27.6106 C   0  0  0  0  0  0  0  0  0  0  0  0
    7.0625  -12.9513   26.6437 C   0  0  2  0  0  0  0  0  0  0  0  0
    8.0362  -12.1039   25.8557 C   0  0  0  0  0  0  0  0  0  0  0  0
    6.1570  -13.7097   25.6937 C   0  0  2  0  0  0  0  0  0  0  0  0
    5.5227  -14.7619   26.4601 N   0  0  0  0  0  0  0  0  0  0  0  0
    6.9191  -14.3426   24.5965 C   0  0  0  0  0  0  0  0  0  0  0  0
    7.5064  -15.4278   24.8107 O   0  0  0  0  0  0  0  0  0  0  0  0
    8.9269  -15.8794   17.7520 N   0  0  0  0  0  0  0  0  0  0  0  0
    8.6102  -14.7399   16.9377 C   0  0  0  0  0  0  0  0  0  0  0  0
    9.2290  -14.5682   15.8419 N   0  0  0  0  0  0  0  0  0  0  0  0
    7.6234  -13.8148   17.3397 N   0  0  0  0  0  0  0  0  0  0  0  0
    7.6401  -13.1638   18.6291 C   0  0  0  0  0  0  0  0  0  0  0  0
    7.8223  -14.2111   19.7325 C   0  0  0  0  0  0  0  0  0  0  0  0
    7.7643  -13.4602   21.0322 C   0  0  0  0  0  0  0  0  0  0  0  0
    7.8085  -14.4074   22.2351 C   0  0  2  0  0  0  0  0  0  0  0  0
    7.0275  -13.7904   23.3005 N   0  0  0  0  0  0  0  0  0  0  0  0
    9.2025  -14.6677   22.6793 C   0  0  0  0  0  0  0  0  0  0  0  0
    9.7193  -13.9559   23.5969 O   0  0  0  0  0  0  0  0  0  0  0  0
    9.0916  -13.7309   15.2435 N   0  0  0  0  0  0  0  0  0  0  0  0
    9.9775  -15.6780   22.1206 C   0  0  2  0  0  0  0  0  0  0  0  0
   11.1943  -16.2523   22.7885 C   0  0  0  0  0  0  0  0  0  0  0  0
   10.5767  -17.1037   23.8520 C   0  0  0  0  0  0  0  0  0  0  0  0
   11.2646  -17.4712   25.0756 C   0  0  0  0  0  0  0  0  0  0  0  0
   10.5479  -18.2895   26.0710 C   0  0  0  0  0  0  0  0  0  0  0  0
   11.4164  -18.4241   27.3597 N   0  0  0  0  0  0  0  0  0  0  0  0
   10.5678  -19.0853   28.3321 C   0  0  0  0  0  0  0  0  0  0  0  0
   11.8198  -16.9985   21.6677 O   0  0  0  0  0  0  0  0  0  0  0  0
   13.1560  -17.2901   21.5101 O   0  0  0  0  0  0  0  0  0  0  0  0
  2  1  1  1
  3  2  1  0
  4  5  1  1
  4  2  1  0
  6  4  1  0
  7  6  2  0
  9 10  2  0
  9  8  1  0
 11  9  1  0
 12 11  1  0
 12 13  1  0
 14 13  1  0
 15 14  1  6
 15 16  1  0
 16  6  1  0
 17 15  1  0
 17 18  2  0
 19 17  1  0
 20 19  1  0
 20 26  1  0
 20 21  1  1
 22 21  1  0
 23 22  1  0
 24 23  1  0
 24 25  1  0
 26 27  1  0
 28 26  2  0
M  END
$$$$
