VRK.pdb
     RDKit          3D

 28 27  0  0  1  0  0  0  0  0999 V2000
    6.9351  -18.0410   26.6825 C   0  0  0  0  0  0  0  0  0  0  0  0
    6.9244  -19.3683   26.0009 C   0  0  2  0  0  0  0  0  0  0  0  0
    8.3313  -19.9050   25.8596 C   0  0  0  0  0  0  0  0  0  0  0  0
    6.2565  -19.3158   24.6413 C   0  0  2  0  0  0  0  0  0  0  0  0
    6.2562  -20.6649   24.1154 N   0  0  0  0  0  0  0  0  0  0  0  0
    7.0029  -18.4593   23.6955 C   0  0  0  0  0  0  0  0  0  0  0  0
    8.0009  -18.9316   23.1045 O   0  0  0  0  0  0  0  0  0  0  0  0
    8.9605  -12.2648   18.9095 N   0  0  0  0  0  0  0  0  0  0  0  0
    8.0704  -13.3693   18.6872 C   0  0  0  0  0  0  0  0  0  0  0  0
    7.1475  -13.2589   17.8215 N   0  0  0  0  0  0  0  0  0  0  0  0
    8.2103  -14.5697   19.4157 N   0  0  0  0  0  0  0  0  0  0  0  0
    8.5722  -14.5987   20.8139 C   0  0  0  0  0  0  0  0  0  0  0  0
    7.4781  -13.9186   21.6433 C   0  0  0  0  0  0  0  0  0  0  0  0
    6.6453  -15.0270   22.2216 C   0  0  0  0  0  0  0  0  0  0  0  0
    7.5072  -16.2207   22.6441 C   0  0  2  0  0  0  0  0  0  0  0  0
    6.6544  -17.1196   23.4124 N   0  0  0  0  0  0  0  0  0  0  0  0
    8.6855  -15.7931   23.4423 C   0  0  0  0  0  0  0  0  0  0  0  0
    8.5176  -15.1761   24.5409 O   0  0  0  0  0  0  0  0  0  0  0  0
    6.5055  -14.0387   17.5812 N   0  0  0  0  0  0  0  0  0  0  0  0
    9.9883  -16.0464   23.0270 C   0  0  2  0  0  0  0  0  0  0  0  0
   11.1895  -15.8522   23.9077 C   0  0  0  0  0  0  0  0  0  0  0  0
   11.0165  -16.9609   24.8967 C   0  0  0  0  0  0  0  0  0  0  0  0
   12.1049  -17.4882   25.6985 C   0  0  0  0  0  0  0  0  0  0  0  0
   11.8175  -18.5743   26.6533 C   0  0  0  0  0  0  0  0  0  0  0  0
   13.1102  -18.9216   27.4542 N   0  0  0  0  0  0  0  0  0  0  0  0
   12.7277  -19.9803   28.3684 C   0  0  0  0  0  0  0  0  0  0  0  0
   12.2980  -16.0399   22.9379 O   0  0  0  0  0  0  0  0  0  0  0  0
   12.1885  -16.4042   21.6149 O   0  0  0  0  0  0  0  0  0  0  0  0
  2  1  1  6
  3  2  1  0
  4  5  1  6
  4  2  1  0
  6  4  1  0
  7  6  2  0
  9 10  2  0
  9  8  1  0
 11  9  1  0
 12 11  1  0
 12 13  1  0
 14 13  1  0
 15 14  1  1
 15 16  1  0
 16  6  1  0
 17 15  1  0
 17 18  2  0
 19 17  1  0
 20 19  1  0
 20 26  1  0
 20 21  1  1
 22 21  1  0
 23 22  1  0
 24 23  1  0
 24 25  1  0
 26 27  1  0
 28 26  2  0
M  END
$$$$
