VRK.pdb
     RDKit          3D

 28 27  0  0  1  0  0  0  0  0999 V2000
    7.0105  -12.4363   20.0189 C   0  0  0  0  0  0  0  0  0  0  0  0
    7.8371  -13.6759   20.1020 C   0  0  2  0  0  0  0  0  0  0  0  0
    9.0811  -13.4314   20.9265 C   0  0  0  0  0  0  0  0  0  0  0  0
    8.2233  -14.2070   18.7358 C   0  0  2  0  0  0  0  0  0  0  0  0
    6.9936  -14.4503   18.0111 N   0  0  0  0  0  0  0  0  0  0  0  0
    8.9557  -15.4876   18.8315 C   0  0  0  0  0  0  0  0  0  0  0  0
    8.3063  -16.5538   18.9310 O   0  0  0  0  0  0  0  0  0  0  0  0
   14.7936  -14.5995   16.3362 N   0  0  0  0  0  0  0  0  0  0  0  0
   15.4388  -14.9798   17.5613 C   0  0  0  0  0  0  0  0  0  0  0  0
   16.2604  -14.1785   18.1055 N   0  0  0  0  0  0  0  0  0  0  0  0
   15.1701  -16.2272   18.1639 N   0  0  0  0  0  0  0  0  0  0  0  0
   14.6388  -17.3523   17.4303 C   0  0  0  0  0  0  0  0  0  0  0  0
   13.3082  -17.7900   18.0510 C   0  0  0  0  0  0  0  0  0  0  0  0
   12.4576  -16.5541   18.1254 C   0  0  0  0  0  0  0  0  0  0  0  0
   11.0746  -16.8539   18.7117 C   0  0  2  0  0  0  0  0  0  0  0  0
   10.3652  -15.5846   18.8173 N   0  0  0  0  0  0  0  0  0  0  0  0
   11.1716  -17.5211   20.0360 C   0  0  0  0  0  0  0  0  0  0  0  0
   11.4235  -18.7653   20.1028 O   0  0  0  0  0  0  0  0  0  0  0  0
   16.9104  -14.4670   18.8619 N   0  0  0  0  0  0  0  0  0  0  0  0
   10.9946  -16.8250   21.2267 C   0  0  2  0  0  0  0  0  0  0  0  0
   11.1390  -17.4553   22.5826 C   0  0  0  0  0  0  0  0  0  0  0  0
   12.3489  -18.3123   22.3856 C   0  0  0  0  0  0  0  0  0  0  0  0
   12.9505  -19.0951   23.4490 C   0  0  0  0  0  0  0  0  0  0  0  0
   14.1729  -19.8654   23.1549 C   0  0  0  0  0  0  0  0  0  0  0  0
   14.5601  -20.7254   24.3973 N   0  0  0  0  0  0  0  0  0  0  0  0
   15.7578  -21.4465   24.0120 C   0  0  0  0  0  0  0  0  0  0  0  0
   11.3451  -16.2614   23.4409 O   0  0  0  0  0  0  0  0  0  0  0  0
   11.7078  -14.9985   23.0304 O   0  0  0  0  0  0  0  0  0  0  0  0
  2  1  1  6
  3  2  1  0
  4  5  1  6
  4  2  1  0
  6  4  1  0
  7  6  2  0
  9 10  2  0
  9  8  1  0
 11  9  1  0
 12 11  1  0
 12 13  1  0
 14 13  1  0
 15 14  1  1
 15 16  1  0
 16  6  1  0
 17 15  1  0
 17 18  2  0
 19 17  1  0
 20 19  1  0
 20 26  1  0
 20 21  1  6
 22 21  1  0
 23 22  1  0
 24 23  1  0
 24 25  1  0
 26 27  1  0
 28 26  2  0
M  END
$$$$
