VRK.pdb
     RDKit          3D

 28 27  0  0  1  0  0  0  0  0999 V2000
    8.6381  -13.5499   17.3650 C   0  0  0  0  0  0  0  0  0  0  0  0
    8.0515  -13.9889   18.6648 C   0  0  2  0  0  0  0  0  0  0  0  0
    8.5413  -13.1095   19.7935 C   0  0  0  0  0  0  0  0  0  0  0  0
    8.3558  -15.4407   18.9766 C   0  0  2  0  0  0  0  0  0  0  0  0
    7.7344  -16.2375   17.9393 N   0  0  0  0  0  0  0  0  0  0  0  0
    7.7816  -15.8558   20.2741 C   0  0  0  0  0  0  0  0  0  0  0  0
    6.5427  -15.7838   20.4419 O   0  0  0  0  0  0  0  0  0  0  0  0
    8.6993  -22.7474   25.3863 N   0  0  0  0  0  0  0  0  0  0  0  0
    7.9204  -21.8283   26.1675 C   0  0  0  0  0  0  0  0  0  0  0  0
    7.3745  -22.2327   27.2407 N   0  0  0  0  0  0  0  0  0  0  0  0
    7.7570  -20.4878   25.7581 N   0  0  0  0  0  0  0  0  0  0  0  0
    8.2524  -19.9892   24.4961 C   0  0  0  0  0  0  0  0  0  0  0  0
    7.8377  -18.5246   24.3224 C   0  0  0  0  0  0  0  0  0  0  0  0
    8.3761  -18.0956   22.9872 C   0  0  0  0  0  0  0  0  0  0  0  0
    7.9923  -16.6490   22.6610 C   0  0  2  0  0  0  0  0  0  0  0  0
    8.5564  -16.3362   21.3535 N   0  0  0  0  0  0  0  0  0  0  0  0
    8.4869  -15.7024   23.6943 C   0  0  0  0  0  0  0  0  0  0  0  0
    9.7365  -15.5278   23.8487 O   0  0  0  0  0  0  0  0  0  0  0  0
    6.8288  -21.6074   27.8645 N   0  0  0  0  0  0  0  0  0  0  0  0
    7.6205  -14.9868   24.5134 C   0  0  2  0  0  0  0  0  0  0  0  0
    8.0776  -13.9285   25.4763 C   0  0  0  0  0  0  0  0  0  0  0  0
    6.8631  -13.0598   25.5633 C   0  0  0  0  0  0  0  0  0  0  0  0
    6.8194  -11.8285   26.3297 C   0  0  0  0  0  0  0  0  0  0  0  0
    5.5712  -11.0437   26.3357 C   0  0  0  0  0  0  0  0  0  0  0  0
    5.7437   -9.7949   27.2545 N   0  0  0  0  0  0  0  0  0  0  0  0
    4.5077   -9.0470   27.1286 C   0  0  0  0  0  0  0  0  0  0  0  0
    8.3622  -14.7375   26.6884 O   0  0  0  0  0  0  0  0  0  0  0  0
    9.2164  -14.4144   27.7184 O   0  0  0  0  0  0  0  0  0  0  0  0
  2  1  1  6
  3  2  1  0
  4  5  1  6
  4  2  1  0
  6  4  1  0
  7  6  2  0
  9 10  2  0
  9  8  1  0
 11  9  1  0
 12 11  1  0
 12 13  1  0
 14 13  1  0
 15 14  1  1
 15 16  1  0
 16  6  1  0
 17 15  1  0
 17 18  2  0
 19 17  1  0
 20 19  1  0
 20 26  1  0
 20 21  1  6
 22 21  1  0
 23 22  1  0
 24 23  1  0
 24 25  1  0
 26 27  1  0
 28 26  2  0
M  END
$$$$
