VRK.pdb
     RDKit          3D

 28 27  0  0  1  0  0  0  0  0999 V2000
    8.0775  -12.6965   27.1445 C   0  0  0  0  0  0  0  0  0  0  0  0
    7.0350  -11.9573   26.3743 C   0  0  2  0  0  0  0  0  0  0  0  0
    6.3194  -10.9657   27.2641 C   0  0  0  0  0  0  0  0  0  0  0  0
    6.0269  -12.8854   25.7262 C   0  0  2  0  0  0  0  0  0  0  0  0
    5.4992  -13.7368   26.7719 N   0  0  0  0  0  0  0  0  0  0  0  0
    6.6551  -13.7529   24.7072 C   0  0  0  0  0  0  0  0  0  0  0  0
    7.1456  -14.8496   25.0608 O   0  0  0  0  0  0  0  0  0  0  0  0
   10.1519  -14.7949   16.5464 N   0  0  0  0  0  0  0  0  0  0  0  0
    8.9309  -15.1694   17.2027 C   0  0  0  0  0  0  0  0  0  0  0  0
    8.7262  -16.3911   17.4836 N   0  0  0  0  0  0  0  0  0  0  0  0
    7.9621  -14.1996   17.5377 N   0  0  0  0  0  0  0  0  0  0  0  0
    8.0759  -13.3490   18.6997 C   0  0  0  0  0  0  0  0  0  0  0  0
    8.1821  -14.2119   19.9613 C   0  0  0  0  0  0  0  0  0  0  0  0
    7.4848  -13.4456   21.0490 C   0  0  0  0  0  0  0  0  0  0  0  0
    7.4219  -14.2460   22.3535 C   0  0  2  0  0  0  0  0  0  0  0  0
    6.7374  -13.4160   23.3375 N   0  0  0  0  0  0  0  0  0  0  0  0
    8.7766  -14.6284   22.8299 C   0  0  0  0  0  0  0  0  0  0  0  0
    9.5865  -13.7322   23.2256 O   0  0  0  0  0  0  0  0  0  0  0  0
    7.8443  -16.7290   17.9149 N   0  0  0  0  0  0  0  0  0  0  0  0
    9.2004  -15.9525   22.8607 C   0  0  2  0  0  0  0  0  0  0  0  0
   10.5401  -16.3800   23.3887 C   0  0  0  0  0  0  0  0  0  0  0  0
   10.1674  -17.5624   24.2254 C   0  0  0  0  0  0  0  0  0  0  0  0
   11.1312  -18.3294   24.9923 C   0  0  0  0  0  0  0  0  0  0  0  0
   10.6473  -19.4566   25.8105 C   0  0  0  0  0  0  0  0  0  0  0  0
   11.8013  -19.9719   26.7247 N   0  0  0  0  0  0  0  0  0  0  0  0
   11.2009  -20.9807   27.5759 C   0  0  0  0  0  0  0  0  0  0  0  0
   11.2627  -16.6998   22.1317 O   0  0  0  0  0  0  0  0  0  0  0  0
   12.6228  -16.6556   21.9237 O   0  0  0  0  0  0  0  0  0  0  0  0
  2  1  1  1
  3  2  1  0
  4  5  1  1
  4  2  1  0
  6  4  1  0
  7  6  2  0
  9 10  2  0
  9  8  1  0
 11  9  1  0
 12 11  1  0
 12 13  1  0
 14 13  1  0
 15 14  1  6
 15 16  1  0
 16  6  1  0
 17 15  1  0
 17 18  2  0
 19 17  1  0
 20 19  1  0
 20 26  1  0
 20 21  1  1
 22 21  1  0
 23 22  1  0
 24 23  1  0
 24 25  1  0
 26 27  1  0
 28 26  2  0
M  END
$$$$
