VRK.pdb
     RDKit          3D

 28 27  0  0  1  0  0  0  0  0999 V2000
    9.2014  -18.3512   27.1234 C   0  0  0  0  0  0  0  0  0  0  0  0
    7.7424  -18.0419   27.0783 C   0  0  2  0  0  0  0  0  0  0  0  0
    7.0583  -18.5190   28.3399 C   0  0  0  0  0  0  0  0  0  0  0  0
    7.0601  -18.6436   25.8659 C   0  0  2  0  0  0  0  0  0  0  0  0
    7.2147  -20.0802   25.9603 N   0  0  0  0  0  0  0  0  0  0  0  0
    7.6907  -18.2002   24.6045 C   0  0  0  0  0  0  0  0  0  0  0  0
    8.5838  -18.9104   24.0885 O   0  0  0  0  0  0  0  0  0  0  0  0
    9.6756  -13.5123   19.0958 N   0  0  0  0  0  0  0  0  0  0  0  0
    8.3879  -13.2765   18.5059 C   0  0  0  0  0  0  0  0  0  0  0  0
    8.3159  -12.9563   17.2788 N   0  0  0  0  0  0  0  0  0  0  0  0
    7.2082  -13.3972   19.2707 N   0  0  0  0  0  0  0  0  0  0  0  0
    7.2102  -13.4106   20.7152 C   0  0  0  0  0  0  0  0  0  0  0  0
    8.1237  -14.5330   21.2185 C   0  0  0  0  0  0  0  0  0  0  0  0
    7.3407  -15.2662   22.2701 C   0  0  0  0  0  0  0  0  0  0  0  0
    8.1300  -16.4480   22.8416 C   0  0  2  0  0  0  0  0  0  0  0  0
    7.3426  -17.0060   23.9344 N   0  0  0  0  0  0  0  0  0  0  0  0
    9.4766  -16.0331   23.3137 C   0  0  0  0  0  0  0  0  0  0  0  0
    9.5988  -15.4103   24.4151 O   0  0  0  0  0  0  0  0  0  0  0  0
    7.4157  -12.7577   16.8011 N   0  0  0  0  0  0  0  0  0  0  0  0
   10.6292  -16.3049   22.5848 C   0  0  2  0  0  0  0  0  0  0  0  0
   12.0118  -16.2383   23.1684 C   0  0  0  0  0  0  0  0  0  0  0  0
   12.1088  -17.5625   23.8571 C   0  0  0  0  0  0  0  0  0  0  0  0
   13.0187  -17.8218   24.9572 C   0  0  0  0  0  0  0  0  0  0  0  0
   13.0005  -19.1531   25.5907 C   0  0  0  0  0  0  0  0  0  0  0  0
   14.0561  -19.2001   26.7383 N   0  0  0  0  0  0  0  0  0  0  0  0
   13.8376  -20.4640   27.4148 C   0  0  0  0  0  0  0  0  0  0  0  0
   12.8409  -16.1022   21.9442 O   0  0  0  0  0  0  0  0  0  0  0  0
   14.0897  -15.5309   21.8488 O   0  0  0  0  0  0  0  0  0  0  0  0
  2  1  1  1
  3  2  1  0
  4  5  1  1
  4  2  1  0
  6  4  1  0
  7  6  2  0
  9 10  2  0
  9  8  1  0
 11  9  1  0
 12 11  1  0
 12 13  1  0
 14 13  1  0
 15 14  1  1
 15 16  1  0
 16  6  1  0
 17 15  1  0
 17 18  2  0
 19 17  1  0
 20 19  1  0
 20 26  1  0
 20 21  1  1
 22 21  1  0
 23 22  1  0
 24 23  1  0
 24 25  1  0
 26 27  1  0
 28 26  2  0
M  END
$$$$
