ILI.pdb
     RDKit          3D

 25 24  0  0  1  0  0  0  0  0999 V2000
    7.8273  -19.8694   22.0355 C   0  0  0  0  0  0  0  0  0  0  0  0
    7.6524  -18.3756   22.0390 C   0  0  0  0  0  0  0  0  0  0  0  0
    8.6980  -17.7354   21.1877 C   0  0  2  0  0  0  0  0  0  0  0  0
   10.1005  -18.1945   21.6123 C   0  0  0  0  0  0  0  0  0  0  0  0
    8.6679  -16.2211   21.1890 C   0  0  2  0  0  0  0  0  0  0  0  0
    9.7746  -15.7813   20.2950 N   0  0  0  0  0  0  0  0  0  0  0  0
    8.9374  -15.6093   22.5044 C   0  0  0  0  0  0  0  0  0  0  0  0
   10.1622  -15.4701   22.8800 O   0  0  0  0  0  0  0  0  0  0  0  0
    5.9561  -12.4952   26.9183 C   0  0  0  0  0  0  0  0  0  0  0  0
    7.3205  -13.1017   26.5203 C   0  0  2  0  0  0  0  0  0  0  0  0
    8.3068  -11.9827   26.6532 C   0  0  0  0  0  0  0  0  0  0  0  0
    7.2461  -13.7259   25.1797 C   0  0  0  0  0  0  0  0  0  0  0  0
    8.4187  -14.5095   24.7126 C   0  0  2  0  0  0  0  0  0  0  0  0
    8.0001  -15.1389   23.4342 N   0  0  0  0  0  0  0  0  0  0  0  0
    8.9141  -15.5627   25.5843 C   0  0  0  0  0  0  0  0  0  0  0  0
    8.1494  -16.5754   25.7705 O   0  0  0  0  0  0  0  0  0  0  0  0
   13.1070  -18.3075   24.6221 C   0  0  0  0  0  0  0  0  0  0  0  0
   11.7924  -17.7474   25.1096 C   0  0  0  0  0  0  0  0  0  0  0  0
   11.8118  -17.3733   26.5674 C   0  0  2  0  0  0  0  0  0  0  0  0
   12.2992  -18.5096   27.3989 C   0  0  0  0  0  0  0  0  0  0  0  0
   10.5332  -16.7504   27.0585 C   0  0  2  0  0  0  0  0  0  0  0  0
   10.1417  -15.6161   26.2572 N   0  0  0  0  0  0  0  0  0  0  0  0
   10.5108  -16.4539   28.5090 C   0  0  0  0  0  0  0  0  0  0  0  0
   10.2278  -17.4455   29.4703 O   0  0  0  0  0  0  0  0  0  0  0  0
   10.7351  -15.3253   29.0079 O   0  0  0  0  0  0  0  0  0  0  0  0
  2  1  1  0
  3  2  1  0
  3  4  1  1
  5  7  1  0
  5  3  1  0
  5  6  1  6
  7  8  2  0
 10  9  1  6
 11 10  1  0
 12 10  1  0
 13 12  1  1
 14 13  1  0
 14  7  1  0
 15 13  1  0
 15 16  2  0
 17 18  1  0
 18 19  1  0
 19 21  1  0
 19 20  1  1
 21 22  1  6
 21 23  1  0
 22 15  1  0
 23 24  1  0
 25 23  2  0
M  END
$$$$
