ILI.pdb
     RDKit          3D

 25 24  0  0  1  0  0  0  0  0999 V2000
    7.4612  -12.9199   17.5384 C   0  0  0  0  0  0  0  0  0  0  0  0
    8.0108  -14.0983   18.2944 C   0  0  0  0  0  0  0  0  0  0  0  0
    8.1244  -13.7683   19.7456 C   0  0  2  0  0  0  0  0  0  0  0  0
    8.9414  -12.4838   19.9484 C   0  0  0  0  0  0  0  0  0  0  0  0
    8.7361  -14.8647   20.5927 C   0  0  2  0  0  0  0  0  0  0  0  0
    7.8529  -16.0536   20.4372 N   0  0  0  0  0  0  0  0  0  0  0  0
    8.7713  -14.5679   22.0376 C   0  0  0  0  0  0  0  0  0  0  0  0
    9.6803  -13.7690   22.4805 O   0  0  0  0  0  0  0  0  0  0  0  0
    7.2859  -12.1211   25.4260 C   0  0  0  0  0  0  0  0  0  0  0  0
    6.1509  -13.1666   25.5066 C   0  0  2  0  0  0  0  0  0  0  0  0
    5.7902  -13.2506   26.9577 C   0  0  0  0  0  0  0  0  0  0  0  0
    6.5676  -14.4426   24.8816 C   0  0  0  0  0  0  0  0  0  0  0  0
    7.9776  -14.5667   24.4302 C   0  0  2  0  0  0  0  0  0  0  0  0
    7.9113  -15.0574   23.0300 N   0  0  0  0  0  0  0  0  0  0  0  0
    8.8454  -15.4653   25.1746 C   0  0  0  0  0  0  0  0  0  0  0  0
    9.3193  -16.4763   24.5434 O   0  0  0  0  0  0  0  0  0  0  0  0
   10.7505  -13.7884   30.0050 C   0  0  0  0  0  0  0  0  0  0  0  0
   10.8799  -14.2949   28.5886 C   0  0  0  0  0  0  0  0  0  0  0  0
   10.6524  -15.7778   28.4665 C   0  0  2  0  0  0  0  0  0  0  0  0
   11.7950  -16.5381   29.0469 C   0  0  0  0  0  0  0  0  0  0  0  0
   10.2473  -16.2254   27.0882 C   0  0  2  0  0  0  0  0  0  0  0  0
    9.2396  -15.3663   26.5152 N   0  0  0  0  0  0  0  0  0  0  0  0
    9.8935  -17.6596   26.9864 C   0  0  0  0  0  0  0  0  0  0  0  0
    8.5953  -18.1311   27.2689 O   0  0  0  0  0  0  0  0  0  0  0  0
   10.6911  -18.5667   26.6489 O   0  0  0  0  0  0  0  0  0  0  0  0
  2  1  1  0
  3  2  1  0
  3  4  1  6
  5  7  1  0
  5  3  1  0
  5  6  1  1
  7  8  2  0
 10  9  1  1
 11 10  1  0
 12 10  1  0
 13 12  1  1
 14 13  1  0
 14  7  1  0
 15 13  1  0
 15 16  2  0
 17 18  1  0
 18 19  1  0
 19 21  1  0
 19 20  1  6
 21 22  1  1
 21 23  1  0
 22 15  1  0
 23 24  1  0
 25 23  2  0
M  END
$$$$
