ILI.pdb
     RDKit          3D

 25 24  0  0  1  0  0  0  0  0999 V2000
    8.4297  -21.7495   22.0728 C   0  0  0  0  0  0  0  0  0  0  0  0
    7.6344  -20.4969   21.8269 C   0  0  0  0  0  0  0  0  0  0  0  0
    8.2383  -19.3523   22.5704 C   0  0  2  0  0  0  0  0  0  0  0  0
    8.3746  -19.6853   24.0633 C   0  0  0  0  0  0  0  0  0  0  0  0
    7.4808  -18.0475   22.4371 C   0  0  2  0  0  0  0  0  0  0  0  0
    7.4566  -17.7259   20.9833 N   0  0  0  0  0  0  0  0  0  0  0  0
    8.1284  -16.8987   23.0991 C   0  0  0  0  0  0  0  0  0  0  0  0
    9.2809  -16.5111   22.6724 O   0  0  0  0  0  0  0  0  0  0  0  0
    7.3428  -12.1844   24.3703 C   0  0  0  0  0  0  0  0  0  0  0  0
    6.5628  -13.3502   25.0187 C   0  0  2  0  0  0  0  0  0  0  0  0
    5.5704  -12.7034   25.9349 C   0  0  0  0  0  0  0  0  0  0  0  0
    7.4904  -14.3080   25.6626 C   0  0  0  0  0  0  0  0  0  0  0  0
    8.4333  -15.0546   24.7905 C   0  0  2  0  0  0  0  0  0  0  0  0
    7.6346  -16.1427   24.1709 N   0  0  0  0  0  0  0  0  0  0  0  0
    9.5955  -15.6606   25.4202 C   0  0  0  0  0  0  0  0  0  0  0  0
   10.7466  -15.3391   24.9548 O   0  0  0  0  0  0  0  0  0  0  0  0
   10.7640  -13.7037   29.8052 C   0  0  0  0  0  0  0  0  0  0  0  0
   10.2153  -14.8728   29.0231 C   0  0  0  0  0  0  0  0  0  0  0  0
   11.1631  -15.3771   27.9681 C   0  0  2  0  0  0  0  0  0  0  0  0
   11.4622  -14.3102   26.9718 C   0  0  0  0  0  0  0  0  0  0  0  0
   10.7627  -16.6951   27.3625 C   0  0  2  0  0  0  0  0  0  0  0  0
    9.6209  -16.5646   26.4901 N   0  0  0  0  0  0  0  0  0  0  0  0
   10.6073  -17.7983   28.3378 C   0  0  0  0  0  0  0  0  0  0  0  0
    9.3981  -18.5099   28.4749 O   0  0  0  0  0  0  0  0  0  0  0  0
   11.5099  -18.1945   29.1133 O   0  0  0  0  0  0  0  0  0  0  0  0
  2  1  1  0
  3  2  1  0
  3  4  1  1
  5  7  1  0
  5  3  1  0
  5  6  1  6
  7  8  2  0
 10  9  1  1
 11 10  1  0
 12 10  1  0
 13 12  1  1
 14 13  1  0
 14  7  1  0
 15 13  1  0
 15 16  2  0
 17 18  1  0
 18 19  1  0
 19 21  1  0
 19 20  1  6
 21 22  1  1
 21 23  1  0
 22 15  1  0
 23 24  1  0
 25 23  2  0
M  END
$$$$
