ILI.pdb
     RDKit          3D

 25 24  0  0  1  0  0  0  0  0999 V2000
    8.1243  -12.3493   19.9781 C   0  0  0  0  0  0  0  0  0  0  0  0
    7.4276  -13.6600   20.2206 C   0  0  0  0  0  0  0  0  0  0  0  0
    8.3061  -14.7921   19.8031 C   0  0  2  0  0  0  0  0  0  0  0  0
    8.6389  -14.6985   18.3069 C   0  0  0  0  0  0  0  0  0  0  0  0
    7.7340  -16.1665   20.0822 C   0  0  2  0  0  0  0  0  0  0  0  0
    6.4540  -16.2470   19.3255 N   0  0  0  0  0  0  0  0  0  0  0  0
    7.3883  -16.4048   21.4968 C   0  0  0  0  0  0  0  0  0  0  0  0
    6.2175  -16.0613   21.9112 O   0  0  0  0  0  0  0  0  0  0  0  0
    8.2599  -20.4620   25.8288 C   0  0  0  0  0  0  0  0  0  0  0  0
    7.7511  -19.0189   25.6136 C   0  0  2  0  0  0  0  0  0  0  0  0
    6.3196  -19.0325   26.0532 C   0  0  0  0  0  0  0  0  0  0  0  0
    7.9818  -18.5840   24.2171 C   0  0  0  0  0  0  0  0  0  0  0  0
    7.7124  -17.1626   23.8790 C   0  0  2  0  0  0  0  0  0  0  0  0
    8.1963  -16.9803   22.4868 N   0  0  0  0  0  0  0  0  0  0  0  0
    8.3417  -16.1441   24.7044 C   0  0  0  0  0  0  0  0  0  0  0  0
    9.5281  -15.7802   24.3804 O   0  0  0  0  0  0  0  0  0  0  0  0
    5.7266  -11.8448   26.6061 C   0  0  0  0  0  0  0  0  0  0  0  0
    6.7691  -12.7733   26.0311 C   0  0  0  0  0  0  0  0  0  0  0  0
    7.6437  -13.4049   27.0807 C   0  0  2  0  0  0  0  0  0  0  0  0
    8.3439  -12.3629   27.8834 C   0  0  0  0  0  0  0  0  0  0  0  0
    8.5433  -14.4918   26.5576 C   0  0  2  0  0  0  0  0  0  0  0  0
    7.8091  -15.4959   25.8263 N   0  0  0  0  0  0  0  0  0  0  0  0
    9.4515  -15.0785   27.5691 C   0  0  0  0  0  0  0  0  0  0  0  0
   10.6986  -14.4990   27.8796 O   0  0  0  0  0  0  0  0  0  0  0  0
    9.2064  -16.1172   28.2279 O   0  0  0  0  0  0  0  0  0  0  0  0
  2  1  1  0
  3  2  1  0
  3  4  1  6
  5  7  1  0
  5  3  1  0
  5  6  1  6
  7  8  2  0
 10  9  1  6
 11 10  1  0
 12 10  1  0
 13 12  1  1
 14 13  1  0
 14  7  1  0
 15 13  1  0
 15 16  2  0
 17 18  1  0
 18 19  1  0
 19 21  1  0
 19 20  1  6
 21 22  1  1
 21 23  1  0
 22 15  1  0
 23 24  1  0
 25 23  2  0
M  END
$$$$
