ILI.pdb
     RDKit          3D

 25 24  0  0  1  0  0  0  0  0999 V2000
   10.9969  -19.5205   21.3141 C   0  0  0  0  0  0  0  0  0  0  0  0
   10.5263  -18.0923   21.2867 C   0  0  0  0  0  0  0  0  0  0  0  0
    9.0541  -18.0424   21.0462 C   0  0  2  0  0  0  0  0  0  0  0  0
    8.6941  -18.7484   19.7308 C   0  0  0  0  0  0  0  0  0  0  0  0
    8.4699  -16.6453   21.0164 C   0  0  2  0  0  0  0  0  0  0  0  0
    9.1900  -15.9151   19.9367 N   0  0  0  0  0  0  0  0  0  0  0  0
    8.6891  -15.8687   22.2518 C   0  0  0  0  0  0  0  0  0  0  0  0
    9.7047  -15.0777   22.3102 O   0  0  0  0  0  0  0  0  0  0  0  0
    7.7761  -12.2282   25.1264 C   0  0  0  0  0  0  0  0  0  0  0  0
    6.5537  -13.1553   24.9421 C   0  0  2  0  0  0  0  0  0  0  0  0
    5.5143  -12.6349   25.8863 C   0  0  0  0  0  0  0  0  0  0  0  0
    6.9357  -14.5724   25.1374 C   0  0  0  0  0  0  0  0  0  0  0  0
    8.2385  -15.0230   24.5834 C   0  0  2  0  0  0  0  0  0  0  0  0
    7.9062  -15.8764   23.4142 N   0  0  0  0  0  0  0  0  0  0  0  0
    9.1123  -15.7890   25.4576 C   0  0  0  0  0  0  0  0  0  0  0  0
    9.3496  -17.0052   25.1270 O   0  0  0  0  0  0  0  0  0  0  0  0
   10.8987  -13.4762   30.0593 C   0  0  0  0  0  0  0  0  0  0  0  0
   11.1129  -14.1327   28.7166 C   0  0  0  0  0  0  0  0  0  0  0  0
   10.9321  -15.6266   28.7520 C   0  0  2  0  0  0  0  0  0  0  0  0
   12.0795  -16.2825   29.4402 C   0  0  0  0  0  0  0  0  0  0  0  0
   10.5789  -16.2339   27.4213 C   0  0  2  0  0  0  0  0  0  0  0  0
    9.7415  -15.3617   26.6341 N   0  0  0  0  0  0  0  0  0  0  0  0
   10.0470  -17.6137   27.4966 C   0  0  0  0  0  0  0  0  0  0  0  0
   10.8788  -18.7439   27.3617 O   0  0  0  0  0  0  0  0  0  0  0  0
    8.8405  -17.9017   27.6823 O   0  0  0  0  0  0  0  0  0  0  0  0
  2  1  1  0
  3  2  1  0
  3  4  1  6
  5  7  1  0
  5  3  1  0
  5  6  1  6
  7  8  2  0
 10  9  1  1
 11 10  1  0
 12 10  1  0
 13 12  1  1
 14 13  1  0
 14  7  1  0
 15 13  1  0
 15 16  2  0
 17 18  1  0
 18 19  1  0
 19 21  1  0
 19 20  1  6
 21 22  1  1
 21 23  1  0
 22 15  1  0
 23 24  1  0
 25 23  2  0
M  END
$$$$
