ILI.pdb
     RDKit          3D

 25 24  0  0  1  0  0  0  0  0999 V2000
    8.0744  -11.8351   19.6713 C   0  0  0  0  0  0  0  0  0  0  0  0
    7.7198  -12.9810   20.5787 C   0  0  0  0  0  0  0  0  0  0  0  0
    8.3943  -14.2292   20.1153 C   0  0  2  0  0  0  0  0  0  0  0  0
    7.9429  -14.5952   18.6938 C   0  0  0  0  0  0  0  0  0  0  0  0
    8.1768  -15.4303   21.0120 C   0  0  2  0  0  0  0  0  0  0  0  0
    6.7288  -15.7649   20.9169 N   0  0  0  0  0  0  0  0  0  0  0  0
    8.4452  -15.1783   22.4408 C   0  0  0  0  0  0  0  0  0  0  0  0
    9.6701  -15.0914   22.8317 O   0  0  0  0  0  0  0  0  0  0  0  0
    8.1952  -12.2120   26.4433 C   0  0  0  0  0  0  0  0  0  0  0  0
    6.8725  -12.5496   25.7193 C   0  0  2  0  0  0  0  0  0  0  0  0
    5.7917  -11.9552   26.5685 C   0  0  0  0  0  0  0  0  0  0  0  0
    6.7624  -14.0067   25.4802 C   0  0  0  0  0  0  0  0  0  0  0  0
    7.9216  -14.6980   24.8594 C   0  0  2  0  0  0  0  0  0  0  0  0
    7.5068  -15.0119   23.4684 N   0  0  0  0  0  0  0  0  0  0  0  0
    8.3768  -15.9337   25.4762 C   0  0  0  0  0  0  0  0  0  0  0  0
    7.5290  -16.8927   25.5584 O   0  0  0  0  0  0  0  0  0  0  0  0
   11.9319  -20.4436   24.7891 C   0  0  0  0  0  0  0  0  0  0  0  0
   11.2464  -19.6600   25.8826 C   0  0  0  0  0  0  0  0  0  0  0  0
   10.8700  -18.2639   25.4644 C   0  0  2  0  0  0  0  0  0  0  0  0
   12.0710  -17.5033   25.0178 C   0  0  0  0  0  0  0  0  0  0  0  0
   10.0109  -17.5348   26.4617 C   0  0  2  0  0  0  0  0  0  0  0  0
    9.6449  -16.2180   25.9994 N   0  0  0  0  0  0  0  0  0  0  0  0
   10.5467  -17.5221   27.8419 C   0  0  0  0  0  0  0  0  0  0  0  0
   10.7846  -16.3208   28.5403 O   0  0  0  0  0  0  0  0  0  0  0  0
   10.8321  -18.5486   28.5036 O   0  0  0  0  0  0  0  0  0  0  0  0
  2  1  1  0
  3  2  1  0
  3  4  1  6
  5  7  1  0
  5  3  1  0
  5  6  1  1
  7  8  2  0
 10  9  1  1
 11 10  1  0
 12 10  1  0
 13 12  1  1
 14 13  1  0
 14  7  1  0
 15 13  1  0
 15 16  2  0
 17 18  1  0
 18 19  1  0
 19 21  1  0
 19 20  1  1
 21 22  1  6
 21 23  1  0
 22 15  1  0
 23 24  1  0
 25 23  2  0
M  END
$$$$
