ILI.pdb
     RDKit          3D

 25 24  0  0  1  0  0  0  0  0999 V2000
    7.6207  -22.3533   24.8238 C   0  0  0  0  0  0  0  0  0  0  0  0
    6.6493  -21.3691   24.2324 C   0  0  0  0  0  0  0  0  0  0  0  0
    7.2094  -19.9877   24.3080 C   0  0  2  0  0  0  0  0  0  0  0  0
    7.5861  -19.6325   25.7537 C   0  0  0  0  0  0  0  0  0  0  0  0
    6.2921  -18.9082   23.7721 C   0  0  2  0  0  0  0  0  0  0  0  0
    6.0894  -19.2120   22.3284 N   0  0  0  0  0  0  0  0  0  0  0  0
    6.8586  -17.5469   23.8278 C   0  0  0  0  0  0  0  0  0  0  0  0
    7.8611  -17.2652   23.0686 O   0  0  0  0  0  0  0  0  0  0  0  0
    5.9264  -12.1130   26.6457 C   0  0  0  0  0  0  0  0  0  0  0  0
    6.9332  -12.9453   25.8200 C   0  0  2  0  0  0  0  0  0  0  0  0
    7.3069  -12.0780   24.6578 C   0  0  0  0  0  0  0  0  0  0  0  0
    6.3598  -14.2645   25.4688 C   0  0  0  0  0  0  0  0  0  0  0  0
    7.2321  -15.2333   24.7563 C   0  0  2  0  0  0  0  0  0  0  0  0
    6.4317  -16.4776   24.6268 N   0  0  0  0  0  0  0  0  0  0  0  0
    8.4983  -15.5831   25.3801 C   0  0  0  0  0  0  0  0  0  0  0  0
    9.5677  -15.2967   24.7325 O   0  0  0  0  0  0  0  0  0  0  0  0
   10.0720  -13.2093   29.3837 C   0  0  0  0  0  0  0  0  0  0  0  0
   10.1043  -14.0414   28.1242 C   0  0  0  0  0  0  0  0  0  0  0  0
   10.2424  -15.5161   28.3917 C   0  0  2  0  0  0  0  0  0  0  0  0
   11.5043  -15.8042   29.1300 C   0  0  0  0  0  0  0  0  0  0  0  0
   10.0213  -16.3829   27.1817 C   0  0  2  0  0  0  0  0  0  0  0  0
    8.7047  -16.2015   26.6201 N   0  0  0  0  0  0  0  0  0  0  0  0
   10.3620  -17.8105   27.3772 C   0  0  0  0  0  0  0  0  0  0  0  0
   11.6948  -18.2698   27.3619 O   0  0  0  0  0  0  0  0  0  0  0  0
    9.5225  -18.7222   27.5695 O   0  0  0  0  0  0  0  0  0  0  0  0
  2  1  1  0
  3  2  1  0
  3  4  1  1
  5  7  1  0
  5  3  1  0
  5  6  1  6
  7  8  2  0
 10  9  1  1
 11 10  1  0
 12 10  1  0
 13 12  1  1
 14 13  1  0
 14  7  1  0
 15 13  1  0
 15 16  2  0
 17 18  1  0
 18 19  1  0
 19 21  1  0
 19 20  1  6
 21 22  1  1
 21 23  1  0
 22 15  1  0
 23 24  1  0
 25 23  2  0
M  END
$$$$
