ILI.pdb
     RDKit          3D

 25 24  0  0  1  0  0  0  0  0999 V2000
    7.7464  -19.8739   18.5099 C   0  0  0  0  0  0  0  0  0  0  0  0
    8.0136  -19.9834   19.9859 C   0  0  0  0  0  0  0  0  0  0  0  0
    8.3514  -18.6420   20.5464 C   0  0  2  0  0  0  0  0  0  0  0  0
    9.5964  -18.0633   19.8583 C   0  0  0  0  0  0  0  0  0  0  0  0
    8.5798  -18.6265   22.0436 C   0  0  2  0  0  0  0  0  0  0  0  0
    7.3310  -19.1520   22.6614 N   0  0  0  0  0  0  0  0  0  0  0  0
    8.7828  -17.2806   22.6133 C   0  0  0  0  0  0  0  0  0  0  0  0
    9.8642  -16.6440   22.3199 O   0  0  0  0  0  0  0  0  0  0  0  0
    5.7830  -13.1696   26.0952 C   0  0  0  0  0  0  0  0  0  0  0  0
    7.1086  -13.4272   25.3440 C   0  0  2  0  0  0  0  0  0  0  0  0
    7.3798  -12.1714   24.5745 C   0  0  0  0  0  0  0  0  0  0  0  0
    7.0200  -14.6622   24.5320 C   0  0  0  0  0  0  0  0  0  0  0  0
    8.2848  -15.2459   24.0155 C   0  0  2  0  0  0  0  0  0  0  0  0
    7.9196  -16.5750   23.4625 N   0  0  0  0  0  0  0  0  0  0  0  0
    9.3707  -15.4425   24.9625 C   0  0  0  0  0  0  0  0  0  0  0  0
   10.5337  -15.0312   24.6116 O   0  0  0  0  0  0  0  0  0  0  0  0
    9.8605  -12.9122   29.1595 C   0  0  0  0  0  0  0  0  0  0  0  0
   10.0755  -13.7832   27.9450 C   0  0  0  0  0  0  0  0  0  0  0  0
   10.3512  -15.2223   28.2893 C   0  0  2  0  0  0  0  0  0  0  0  0
   11.4875  -15.3290   29.2473 C   0  0  0  0  0  0  0  0  0  0  0  0
   10.4622  -16.1292   27.0936 C   0  0  2  0  0  0  0  0  0  0  0  0
    9.3090  -16.0314   26.2321 N   0  0  0  0  0  0  0  0  0  0  0  0
   10.8115  -17.5315   27.4156 C   0  0  0  0  0  0  0  0  0  0  0  0
   12.1492  -17.9604   27.5339 O   0  0  0  0  0  0  0  0  0  0  0  0
    9.9756  -18.4464   27.6085 O   0  0  0  0  0  0  0  0  0  0  0  0
  2  1  1  0
  3  2  1  0
  3  4  1  6
  5  7  1  0
  5  3  1  0
  5  6  1  1
  7  8  2  0
 10  9  1  6
 11 10  1  0
 12 10  1  0
 13 12  1  1
 14 13  1  0
 14  7  1  0
 15 13  1  0
 15 16  2  0
 17 18  1  0
 18 19  1  0
 19 21  1  0
 19 20  1  6
 21 22  1  1
 21 23  1  0
 22 15  1  0
 23 24  1  0
 25 23  2  0
M  END
$$$$
