ILI.pdb
     RDKit          3D

 25 24  0  0  1  0  0  0  0  0999 V2000
   10.8393  -20.2822   19.8837 C   0  0  0  0  0  0  0  0  0  0  0  0
   10.2026  -18.9464   19.6148 C   0  0  0  0  0  0  0  0  0  0  0  0
   10.2500  -18.0996   20.8429 C   0  0  2  0  0  0  0  0  0  0  0  0
    9.7427  -18.8826   22.0628 C   0  0  0  0  0  0  0  0  0  0  0  0
    9.4684  -16.8061   20.7441 C   0  0  2  0  0  0  0  0  0  0  0  0
   10.1400  -15.9923   19.6933 N   0  0  0  0  0  0  0  0  0  0  0  0
    9.4907  -15.9875   21.9716 C   0  0  0  0  0  0  0  0  0  0  0  0
   10.5536  -15.3107   22.2417 O   0  0  0  0  0  0  0  0  0  0  0  0
    5.5691  -13.3905   25.8987 C   0  0  0  0  0  0  0  0  0  0  0  0
    7.0698  -13.6004   25.5960 C   0  0  2  0  0  0  0  0  0  0  0  0
    7.6540  -12.2242   25.5092 C   0  0  0  0  0  0  0  0  0  0  0  0
    7.2493  -14.4429   24.3917 C   0  0  0  0  0  0  0  0  0  0  0  0
    8.6149  -14.9463   24.0937 C   0  0  2  0  0  0  0  0  0  0  0  0
    8.4673  -15.8416   22.9180 N   0  0  0  0  0  0  0  0  0  0  0  0
    9.2989  -15.6933   25.1371 C   0  0  0  0  0  0  0  0  0  0  0  0
    9.2161  -16.9724   25.0901 O   0  0  0  0  0  0  0  0  0  0  0  0
   11.1422  -13.0212   29.5613 C   0  0  0  0  0  0  0  0  0  0  0  0
   11.2948  -13.8677   28.3204 C   0  0  0  0  0  0  0  0  0  0  0  0
   10.8439  -15.2906   28.5145 C   0  0  2  0  0  0  0  0  0  0  0  0
   11.7301  -15.9994   29.4802 C   0  0  0  0  0  0  0  0  0  0  0  0
   10.6027  -16.0387   27.2314 C   0  0  2  0  0  0  0  0  0  0  0  0
   10.0518  -15.1875   26.2048 N   0  0  0  0  0  0  0  0  0  0  0  0
    9.8441  -17.3005   27.3884 C   0  0  0  0  0  0  0  0  0  0  0  0
   10.4816  -18.5576   27.4144 O   0  0  0  0  0  0  0  0  0  0  0  0
    8.5978  -17.3708   27.5097 O   0  0  0  0  0  0  0  0  0  0  0  0
  2  1  1  0
  3  2  1  0
  3  4  1  1
  5  7  1  0
  5  3  1  0
  5  6  1  6
  7  8  2  0
 10  9  1  6
 11 10  1  0
 12 10  1  0
 13 12  1  1
 14 13  1  0
 14  7  1  0
 15 13  1  0
 15 16  2  0
 17 18  1  0
 18 19  1  0
 19 21  1  0
 19 20  1  6
 21 22  1  6
 21 23  1  0
 22 15  1  0
 23 24  1  0
 25 23  2  0
M  END
$$$$
