ILI.pdb
     RDKit          3D

 25 24  0  0  1  0  0  0  0  0999 V2000
   10.8799  -20.2707   20.0110 C   0  0  0  0  0  0  0  0  0  0  0  0
   10.2928  -18.9075   19.7678 C   0  0  0  0  0  0  0  0  0  0  0  0
   10.3068  -18.1109   21.0299 C   0  0  2  0  0  0  0  0  0  0  0  0
    9.6811  -18.9089   22.1831 C   0  0  0  0  0  0  0  0  0  0  0  0
    9.6037  -16.7727   20.9355 C   0  0  2  0  0  0  0  0  0  0  0  0
   10.3923  -15.9542   19.9735 N   0  0  0  0  0  0  0  0  0  0  0  0
    9.5789  -16.0091   22.1978 C   0  0  0  0  0  0  0  0  0  0  0  0
   10.6581  -15.4189   22.5822 O   0  0  0  0  0  0  0  0  0  0  0  0
    5.5252  -13.3010   25.9212 C   0  0  0  0  0  0  0  0  0  0  0  0
    7.0295  -13.5743   25.6969 C   0  0  2  0  0  0  0  0  0  0  0  0
    7.6705  -12.2236   25.6120 C   0  0  0  0  0  0  0  0  0  0  0  0
    7.2339  -14.4487   24.5196 C   0  0  0  0  0  0  0  0  0  0  0  0
    8.5983  -14.9870   24.2830 C   0  0  2  0  0  0  0  0  0  0  0  0
    8.4933  -15.8321   23.0663 N   0  0  0  0  0  0  0  0  0  0  0  0
    9.1938  -15.7956   25.3348 C   0  0  0  0  0  0  0  0  0  0  0  0
    9.4328  -17.0258   25.0618 O   0  0  0  0  0  0  0  0  0  0  0  0
   10.7231  -13.2524   29.9108 C   0  0  0  0  0  0  0  0  0  0  0  0
   10.9734  -14.0174   28.6334 C   0  0  0  0  0  0  0  0  0  0  0  0
   10.7254  -15.4957   28.7698 C   0  0  2  0  0  0  0  0  0  0  0  0
   11.8064  -16.1426   29.5656 C   0  0  0  0  0  0  0  0  0  0  0  0
   10.4137  -16.1884   27.4708 C   0  0  2  0  0  0  0  0  0  0  0  0
    9.5488  -15.3967   26.6300 N   0  0  0  0  0  0  0  0  0  0  0  0
    9.9404  -17.5838   27.6159 C   0  0  0  0  0  0  0  0  0  0  0  0
   10.8294  -18.6778   27.6225 O   0  0  0  0  0  0  0  0  0  0  0  0
    8.7381  -17.9174   27.7432 O   0  0  0  0  0  0  0  0  0  0  0  0
  2  1  1  0
  3  2  1  0
  3  4  1  1
  5  7  1  0
  5  3  1  0
  5  6  1  6
  7  8  2  0
 10  9  1  6
 11 10  1  0
 12 10  1  0
 13 12  1  1
 14 13  1  0
 14  7  1  0
 15 13  1  0
 15 16  2  0
 17 18  1  0
 18 19  1  0
 19 21  1  0
 19 20  1  6
 21 22  1  1
 21 23  1  0
 22 15  1  0
 23 24  1  0
 25 23  2  0
M  END
$$$$
