ILI.pdb
     RDKit          3D

 25 24  0  0  1  0  0  0  0  0999 V2000
   11.2263  -21.5454   22.0188 C   0  0  0  0  0  0  0  0  0  0  0  0
   10.5524  -20.6700   20.9983 C   0  0  0  0  0  0  0  0  0  0  0  0
   10.5072  -19.2591   21.4833 C   0  0  2  0  0  0  0  0  0  0  0  0
    9.8723  -19.1845   22.8795 C   0  0  0  0  0  0  0  0  0  0  0  0
    9.7685  -18.3043   20.5686 C   0  0  2  0  0  0  0  0  0  0  0  0
   10.4937  -18.3273   19.2682 N   0  0  0  0  0  0  0  0  0  0  0  0
    9.7815  -16.8992   21.0191 C   0  0  0  0  0  0  0  0  0  0  0  0
   10.9162  -16.2991   21.1330 O   0  0  0  0  0  0  0  0  0  0  0  0
    8.6400  -12.7523   19.4691 C   0  0  0  0  0  0  0  0  0  0  0  0
    7.5303  -13.7093   19.9597 C   0  0  2  0  0  0  0  0  0  0  0  0
    6.2422  -13.0774   19.5307 C   0  0  0  0  0  0  0  0  0  0  0  0
    7.6600  -13.9619   21.4129 C   0  0  0  0  0  0  0  0  0  0  0  0
    8.8463  -14.7232   21.8822 C   0  0  2  0  0  0  0  0  0  0  0  0
    8.6791  -16.0995   21.3497 N   0  0  0  0  0  0  0  0  0  0  0  0
    9.0552  -14.8253   23.3176 C   0  0  0  0  0  0  0  0  0  0  0  0
   10.2614  -14.7234   23.7414 O   0  0  0  0  0  0  0  0  0  0  0  0
    6.2158  -11.6986   26.1734 C   0  0  0  0  0  0  0  0  0  0  0  0
    7.3094  -12.5807   25.6204 C   0  0  0  0  0  0  0  0  0  0  0  0
    7.4716  -13.8700   26.3800 C   0  0  2  0  0  0  0  0  0  0  0  0
    7.7859  -13.6046   27.8122 C   0  0  0  0  0  0  0  0  0  0  0  0
    8.3901  -14.8611   25.7180 C   0  0  2  0  0  0  0  0  0  0  0  0
    8.0916  -15.0217   24.3155 N   0  0  0  0  0  0  0  0  0  0  0  0
    8.5080  -16.1573   26.4240 C   0  0  0  0  0  0  0  0  0  0  0  0
    9.4466  -16.3639   27.4554 O   0  0  0  0  0  0  0  0  0  0  0  0
    7.8049  -17.1668   26.1799 O   0  0  0  0  0  0  0  0  0  0  0  0
  2  1  1  0
  3  2  1  0
  3  4  1  1
  5  7  1  0
  5  3  1  0
  5  6  1  6
  7  8  2  0
 10  9  1  1
 11 10  1  0
 12 10  1  0
 13 12  1  1
 14 13  1  0
 14  7  1  0
 15 13  1  0
 15 16  2  0
 17 18  1  0
 18 19  1  0
 19 21  1  0
 19 20  1  1
 21 22  1  6
 21 23  1  0
 22 15  1  0
 23 24  1  0
 25 23  2  0
M  END
$$$$
