ILI.pdb
     RDKit          3D

 25 24  0  0  1  0  0  0  0  0999 V2000
    9.2501  -20.8223   21.0375 C   0  0  0  0  0  0  0  0  0  0  0  0
    8.4870  -19.5476   20.8034 C   0  0  0  0  0  0  0  0  0  0  0  0
    8.9316  -18.4996   21.7687 C   0  0  2  0  0  0  0  0  0  0  0  0
    8.9637  -19.0571   23.1993 C   0  0  0  0  0  0  0  0  0  0  0  0
    8.0877  -17.2420   21.7627 C   0  0  2  0  0  0  0  0  0  0  0  0
    8.1876  -16.6793   20.3876 N   0  0  0  0  0  0  0  0  0  0  0  0
    8.5671  -16.1843   22.6730 C   0  0  0  0  0  0  0  0  0  0  0  0
    9.7142  -15.6449   22.4410 O   0  0  0  0  0  0  0  0  0  0  0  0
    7.2368  -11.9442   24.1961 C   0  0  0  0  0  0  0  0  0  0  0  0
    6.5295  -13.2023   24.7482 C   0  0  2  0  0  0  0  0  0  0  0  0
    5.3751  -12.6887   25.5520 C   0  0  0  0  0  0  0  0  0  0  0  0
    7.4848  -14.0599   25.4861 C   0  0  0  0  0  0  0  0  0  0  0  0
    8.5779  -14.7052   24.7143 C   0  0  2  0  0  0  0  0  0  0  0  0
    7.9124  -15.6671   23.7991 N   0  0  0  0  0  0  0  0  0  0  0  0
    9.5906  -15.4328   25.4624 C   0  0  0  0  0  0  0  0  0  0  0  0
   10.7893  -15.4002   25.0074 O   0  0  0  0  0  0  0  0  0  0  0  0
   10.7712  -13.3904   29.6185 C   0  0  0  0  0  0  0  0  0  0  0  0
   10.8059  -14.2525   28.3794 C   0  0  0  0  0  0  0  0  0  0  0  0
   10.6920  -15.7234   28.6776 C   0  0  2  0  0  0  0  0  0  0  0  0
   11.7723  -16.1604   29.6063 C   0  0  0  0  0  0  0  0  0  0  0  0
   10.5392  -16.5876   27.4553 C   0  0  2  0  0  0  0  0  0  0  0  0
    9.4236  -16.1759   26.6382 N   0  0  0  0  0  0  0  0  0  0  0  0
   10.5353  -18.0430   27.7276 C   0  0  0  0  0  0  0  0  0  0  0  0
   11.7191  -18.8085   27.7177 O   0  0  0  0  0  0  0  0  0  0  0  0
    9.5087  -18.7156   27.9857 O   0  0  0  0  0  0  0  0  0  0  0  0
  2  1  1  0
  3  2  1  0
  3  4  1  1
  5  7  1  0
  5  3  1  0
  5  6  1  6
  7  8  2  0
 10  9  1  1
 11 10  1  0
 12 10  1  0
 13 12  1  1
 14 13  1  0
 14  7  1  0
 15 13  1  0
 15 16  2  0
 17 18  1  0
 18 19  1  0
 19 21  1  0
 19 20  1  6
 21 22  1  1
 21 23  1  0
 22 15  1  0
 23 24  1  0
 25 23  2  0
M  END
$$$$
