KRK.pdb
     RDKit          3D

 30 29  0  0  1  0  0  0  0  0999 V2000
    4.9873  -14.9951   19.9208 N   0  0  0  0  0  0  0  0  0  0  0  0
    6.3572  -15.2674   20.2817 C   0  0  1  0  0  0  0  0  0  0  0  0
    7.1122  -13.9307   20.2467 C   0  0  0  0  0  0  0  0  0  0  0  0
    8.1754  -13.9567   19.1914 C   0  0  0  0  0  0  0  0  0  0  0  0
    9.0479  -12.7358   19.2545 C   0  0  0  0  0  0  0  0  0  0  0  0
   10.1439  -12.8488   18.2309 C   0  0  0  0  0  0  0  0  0  0  0  0
   10.9366  -11.6227   18.1915 N   0  0  0  0  0  0  0  0  0  0  0  0
    6.4825  -15.8131   21.6535 C   0  0  0  0  0  0  0  0  0  0  0  0
    5.8402  -15.3041   22.6302 O   0  0  0  0  0  0  0  0  0  0  0  0
    8.7658  -22.4072   27.9362 N   0  0  0  0  0  0  0  0  0  0  0  0
    8.6941  -21.7770   26.6735 C   0  0  0  0  0  0  0  0  0  0  0  0
    9.7507  -21.4410   26.0016 N   0  0  0  0  0  0  0  0  0  0  0  0
    7.3967  -21.4971   26.1116 N   0  0  0  0  0  0  0  0  0  0  0  0
    7.3488  -20.9325   24.7860 C   0  0  0  0  0  0  0  0  0  0  0  0
    7.4247  -19.4218   24.8576 C   0  0  0  0  0  0  0  0  0  0  0  0
    7.2918  -18.9067   23.4405 C   0  0  0  0  0  0  0  0  0  0  0  0
    7.3946  -17.4096   23.3702 C   0  0  2  0  0  0  0  0  0  0  0  0
    7.3065  -16.9211   21.9943 N   0  0  0  0  0  0  0  0  0  0  0  0
    8.6369  -16.9164   24.0231 C   0  0  0  0  0  0  0  0  0  0  0  0
    9.7500  -17.2436   23.5202 O   0  0  0  0  0  0  0  0  0  0  0  0
    9.6456  -21.0426   25.0623 N   0  0  0  0  0  0  0  0  0  0  0  0
    8.5958  -16.1022   25.1764 C   0  0  2  0  0  0  0  0  0  0  0  0
    9.8670  -15.8056   25.9498 C   0  0  0  0  0  0  0  0  0  0  0  0
    9.3734  -15.3333   27.2524 C   0  0  0  0  0  0  0  0  0  0  0  0
   10.1680  -15.1593   28.4464 C   0  0  0  0  0  0  0  0  0  0  0  0
    9.6862  -14.7263   29.7541 C   0  0  0  0  0  0  0  0  0  0  0  0
   10.7620  -14.6019   30.8335 N   0  0  0  0  0  0  0  0  0  0  0  0
   10.2190  -14.1541   32.0850 C   0  0  0  0  0  0  0  0  0  0  0  0
   10.4089  -17.2190   26.0967 O   0  0  0  0  0  0  0  0  0  0  0  0
   11.8167  -17.3706   25.9773 O   0  0  0  0  0  0  0  0  0  0  0  0
  2  1  1  1
  3  2  1  0
  4  5  1  0
  4  3  1  0
  6  7  1  0
  6  5  1  0
  8  2  1  0
  9  8  2  0
 10 11  1  0
 11 12  2  0
 11 13  1  0
 13 14  1  0
 14 15  1  0
 15 16  1  0
 17 16  1  6
 17 19  1  0
 17 18  1  0
 18  8  1  0
 19 20  2  0
 21 22  1  0
 21 19  1  0
 22 28  1  0
 22 23  1  1
 24 23  1  0
 25 24  1  0
 26 25  1  0
 27 26  1  0
 28 30  2  0
 28 29  1  0
M  END
$$$$
