KRK.pdb
     RDKit          3D

 30 29  0  0  1  0  0  0  0  0999 V2000
    7.7046  -21.1033   22.8765 N   0  0  0  0  0  0  0  0  0  0  0  0
    9.1358  -20.9440   22.9621 C   0  0  1  0  0  0  0  0  0  0  0  0
    9.7629  -21.8971   21.9343 C   0  0  0  0  0  0  0  0  0  0  0  0
    8.9562  -21.9111   20.6718 C   0  0  0  0  0  0  0  0  0  0  0  0
    9.5740  -22.7992   19.6301 C   0  0  0  0  0  0  0  0  0  0  0  0
    8.5480  -23.1321   18.5820 C   0  0  0  0  0  0  0  0  0  0  0  0
    9.1103  -24.0384   17.5842 N   0  0  0  0  0  0  0  0  0  0  0  0
    9.5731  -19.5703   22.6195 C   0  0  0  0  0  0  0  0  0  0  0  0
   10.7010  -19.3528   22.0663 O   0  0  0  0  0  0  0  0  0  0  0  0
    8.2776  -13.7874   17.9724 N   0  0  0  0  0  0  0  0  0  0  0  0
    8.3264  -12.7908   18.9730 C   0  0  0  0  0  0  0  0  0  0  0  0
    8.0366  -11.5498   18.7350 N   0  0  0  0  0  0  0  0  0  0  0  0
    8.7132  -13.1688   20.3091 N   0  0  0  0  0  0  0  0  0  0  0  0
    8.2995  -14.4654   20.7843 C   0  0  0  0  0  0  0  0  0  0  0  0
    8.7366  -14.6602   22.2209 C   0  0  0  0  0  0  0  0  0  0  0  0
    8.2384  -16.0230   22.6518 C   0  0  0  0  0  0  0  0  0  0  0  0
    9.3146  -17.0685   22.5786 C   0  0  2  0  0  0  0  0  0  0  0  0
    8.7969  -18.4052   22.8697 N   0  0  0  0  0  0  0  0  0  0  0  0
   10.4556  -16.7414   23.4753 C   0  0  0  0  0  0  0  0  0  0  0  0
   10.2416  -16.6766   24.7199 O   0  0  0  0  0  0  0  0  0  0  0  0
    8.1398  -10.8553   19.4827 N   0  0  0  0  0  0  0  0  0  0  0  0
   11.7528  -16.5056   22.9693 C   0  0  1  0  0  0  0  0  0  0  0  0
   12.9168  -16.2882   23.9180 C   0  0  0  0  0  0  0  0  0  0  0  0
   13.4467  -17.6443   24.1269 C   0  0  0  0  0  0  0  0  0  0  0  0
   13.0506  -18.5558   25.1756 C   0  0  0  0  0  0  0  0  0  0  0  0
   13.5300  -19.9210   25.3657 C   0  0  0  0  0  0  0  0  0  0  0  0
   13.0253  -20.6157   26.6308 N   0  0  0  0  0  0  0  0  0  0  0  0
   13.4794  -21.9753   26.7155 C   0  0  0  0  0  0  0  0  0  0  0  0
   13.8510  -15.5164   22.9988 O   0  0  0  0  0  0  0  0  0  0  0  0
   13.4739  -15.4462   21.6306 O   0  0  0  0  0  0  0  0  0  0  0  0
  2  1  1  6
  3  2  1  0
  4  5  1  0
  4  3  1  0
  6  7  1  0
  6  5  1  0
  8  2  1  0
  9  8  2  0
 10 11  1  0
 11 12  2  0
 11 13  1  0
 13 14  1  0
 14 15  1  0
 15 16  1  0
 17 16  1  1
 17 19  1  0
 17 18  1  0
 18  8  1  0
 19 20  2  0
 21 22  1  0
 21 19  1  0
 22 28  1  0
 22 23  1  1
 24 23  1  0
 25 24  1  0
 26 25  1  0
 27 26  1  0
 28 30  2  0
 28 29  1  0
M  END
$$$$
