KRK.pdb
     RDKit          3D

 30 29  0  0  1  0  0  0  0  0999 V2000
    5.0756  -19.7435   24.7204 N   0  0  0  0  0  0  0  0  0  0  0  0
    6.4199  -20.2283   24.5237 C   0  0  1  0  0  0  0  0  0  0  0  0
    6.3302  -21.4683   23.6224 C   0  0  0  0  0  0  0  0  0  0  0  0
    5.1415  -22.3014   23.9939 C   0  0  0  0  0  0  0  0  0  0  0  0
    5.0041  -23.4998   23.0991 C   0  0  0  0  0  0  0  0  0  0  0  0
    3.7965  -24.2967   23.5095 C   0  0  0  0  0  0  0  0  0  0  0  0
    3.7064  -25.5285   22.7299 N   0  0  0  0  0  0  0  0  0  0  0  0
    7.2823  -19.2396   23.8351 C   0  0  0  0  0  0  0  0  0  0  0  0
    8.4397  -19.5563   23.4044 O   0  0  0  0  0  0  0  0  0  0  0  0
    6.8542  -12.2336   18.8642 N   0  0  0  0  0  0  0  0  0  0  0  0
    8.0855  -12.8982   18.6670 C   0  0  0  0  0  0  0  0  0  0  0  0
    8.9873  -12.4641   17.8429 N   0  0  0  0  0  0  0  0  0  0  0  0
    8.3485  -14.1046   19.4104 N   0  0  0  0  0  0  0  0  0  0  0  0
    7.3596  -14.5290   20.3697 C   0  0  0  0  0  0  0  0  0  0  0  0
    8.0075  -14.7726   21.7164 C   0  0  0  0  0  0  0  0  0  0  0  0
    7.0966  -15.7096   22.4802 C   0  0  0  0  0  0  0  0  0  0  0  0
    7.8099  -16.9539   22.9268 C   0  0  2  0  0  0  0  0  0  0  0  0
    6.9076  -17.8880   23.5997 N   0  0  0  0  0  0  0  0  0  0  0  0
    8.9753  -16.6337   23.7942 C   0  0  0  0  0  0  0  0  0  0  0  0
    8.7565  -16.1116   24.9250 O   0  0  0  0  0  0  0  0  0  0  0  0
    9.8878  -12.9510   17.7782 N   0  0  0  0  0  0  0  0  0  0  0  0
   10.3005  -16.8982   23.3837 C   0  0  2  0  0  0  0  0  0  0  0  0
   11.4662  -16.5561   24.2926 C   0  0  0  0  0  0  0  0  0  0  0  0
   11.6299  -17.7672   25.1109 C   0  0  0  0  0  0  0  0  0  0  0  0
   12.7798  -18.0910   25.9234 C   0  0  0  0  0  0  0  0  0  0  0  0
   13.0101  -19.3394   26.6432 C   0  0  0  0  0  0  0  0  0  0  0  0
   14.3483  -19.4278   27.3776 N   0  0  0  0  0  0  0  0  0  0  0  0
   14.5161  -20.6907   28.0400 C   0  0  0  0  0  0  0  0  0  0  0  0
   12.5806  -16.4892   23.2598 O   0  0  0  0  0  0  0  0  0  0  0  0
   13.7633  -15.8058   23.6511 O   0  0  0  0  0  0  0  0  0  0  0  0
  2  1  1  6
  3  2  1  0
  4  5  1  0
  4  3  1  0
  6  7  1  0
  6  5  1  0
  8  2  1  0
  9  8  2  0
 10 11  1  0
 11 12  2  0
 11 13  1  0
 13 14  1  0
 14 15  1  0
 15 16  1  0
 17 16  1  1
 17 19  1  0
 17 18  1  0
 18  8  1  0
 19 20  2  0
 21 22  1  0
 21 19  1  0
 22 28  1  0
 22 23  1  6
 24 23  1  0
 25 24  1  0
 26 25  1  0
 27 26  1  0
 28 30  2  0
 28 29  1  0
M  END
$$$$
