KRK.pdb
     RDKit          3D

 30 29  0  0  1  0  0  0  0  0999 V2000
    8.6069  -15.7775   18.8937 N   0  0  0  0  0  0  0  0  0  0  0  0
    8.1962  -14.8150   19.8866 C   0  0  1  0  0  0  0  0  0  0  0  0
    7.0171  -14.0271   19.2975 C   0  0  0  0  0  0  0  0  0  0  0  0
    7.4781  -13.1637   18.1631 C   0  0  0  0  0  0  0  0  0  0  0  0
    7.9567  -13.9857   17.0008 C   0  0  0  0  0  0  0  0  0  0  0  0
    8.3590  -13.0748   15.8738 C   0  0  0  0  0  0  0  0  0  0  0  0
    8.6185  -13.8450   14.6603 N   0  0  0  0  0  0  0  0  0  0  0  0
    7.7222  -15.4577   21.1347 C   0  0  0  0  0  0  0  0  0  0  0  0
    7.2083  -14.7722   22.0789 O   0  0  0  0  0  0  0  0  0  0  0  0
    8.5432  -20.6169   26.4019 N   0  0  0  0  0  0  0  0  0  0  0  0
    7.3962  -21.4406   26.3501 C   0  0  0  0  0  0  0  0  0  0  0  0
    6.8941  -22.0027   27.4049 N   0  0  0  0  0  0  0  0  0  0  0  0
    6.7607  -21.6641   25.0759 N   0  0  0  0  0  0  0  0  0  0  0  0
    7.3227  -21.0061   23.9229 C   0  0  0  0  0  0  0  0  0  0  0  0
    7.1223  -19.5086   24.0254 C   0  0  0  0  0  0  0  0  0  0  0  0
    7.5257  -18.9181   22.6914 C   0  0  0  0  0  0  0  0  0  0  0  0
    7.3670  -17.4246   22.6619 C   0  0  2  0  0  0  0  0  0  0  0  0
    7.7960  -16.8558   21.3845 N   0  0  0  0  0  0  0  0  0  0  0  0
    8.0853  -16.7768   23.7921 C   0  0  0  0  0  0  0  0  0  0  0  0
    9.3494  -16.8094   23.7974 O   0  0  0  0  0  0  0  0  0  0  0  0
    6.0192  -22.5323   27.3261 N   0  0  0  0  0  0  0  0  0  0  0  0
    7.3916  -16.1363   24.8423 C   0  0  2  0  0  0  0  0  0  0  0  0
    8.1529  -15.3656   25.9046 C   0  0  0  0  0  0  0  0  0  0  0  0
    7.1688  -14.3855   26.3886 C   0  0  0  0  0  0  0  0  0  0  0  0
    7.2618  -12.9509   26.2455 C   0  0  0  0  0  0  0  0  0  0  0  0
    6.2943  -11.9668   26.7201 C   0  0  0  0  0  0  0  0  0  0  0  0
    6.6937  -10.5070   26.5027 N   0  0  0  0  0  0  0  0  0  0  0  0
    5.6892   -9.5979   26.9785 C   0  0  0  0  0  0  0  0  0  0  0  0
    8.3229  -16.4655   26.9413 O   0  0  0  0  0  0  0  0  0  0  0  0
    7.5538  -17.6437   26.7431 O   0  0  0  0  0  0  0  0  0  0  0  0
  2  1  1  6
  3  2  1  0
  4  5  1  0
  4  3  1  0
  6  7  1  0
  6  5  1  0
  8  2  1  0
  9  8  2  0
 10 11  1  0
 11 12  2  0
 11 13  1  0
 13 14  1  0
 14 15  1  0
 15 16  1  0
 17 16  1  6
 17 19  1  0
 17 18  1  0
 18  8  1  0
 19 20  2  0
 21 22  1  0
 21 19  1  0
 22 28  1  0
 22 23  1  6
 24 23  1  0
 25 24  1  0
 26 25  1  0
 27 26  1  0
 28 30  2  0
 28 29  1  0
M  END
$$$$
