KRK.pdb
     RDKit          3D

 30 29  0  0  1  0  0  0  0  0999 V2000
    6.1114  -16.2500   26.0571 N   0  0  0  0  0  0  0  0  0  0  0  0
    6.4613  -15.2790   25.0493 C   0  0  1  0  0  0  0  0  0  0  0  0
    7.0728  -14.0707   25.7733 C   0  0  0  0  0  0  0  0  0  0  0  0
    6.0140  -13.3125   26.5141 C   0  0  0  0  0  0  0  0  0  0  0  0
    6.5808  -12.1097   27.2126 C   0  0  0  0  0  0  0  0  0  0  0  0
    5.4745  -11.3664   27.9093 C   0  0  0  0  0  0  0  0  0  0  0  0
    6.0077  -10.2168   28.6355 N   0  0  0  0  0  0  0  0  0  0  0  0
    7.4782  -15.7903   24.1007 C   0  0  0  0  0  0  0  0  0  0  0  0
    8.0785  -16.8962   24.3057 O   0  0  0  0  0  0  0  0  0  0  0  0
    8.3530  -12.8423   16.4022 N   0  0  0  0  0  0  0  0  0  0  0  0
    8.5466  -14.2373   16.5179 C   0  0  0  0  0  0  0  0  0  0  0  0
    8.9812  -14.9641   15.5363 N   0  0  0  0  0  0  0  0  0  0  0  0
    8.2495  -14.8761   17.7754 N   0  0  0  0  0  0  0  0  0  0  0  0
    7.6381  -14.0742   18.8056 C   0  0  0  0  0  0  0  0  0  0  0  0
    7.5080  -14.8753   20.0841 C   0  0  0  0  0  0  0  0  0  0  0  0
    8.8938  -14.9735   20.6850 C   0  0  0  0  0  0  0  0  0  0  0  0
    8.8849  -15.6638   22.0191 C   0  0  2  0  0  0  0  0  0  0  0  0
    7.8647  -15.1133   22.9112 N   0  0  0  0  0  0  0  0  0  0  0  0
   10.2243  -15.6213   22.6649 C   0  0  0  0  0  0  0  0  0  0  0  0
   10.4818  -14.6645   23.4507 O   0  0  0  0  0  0  0  0  0  0  0  0
    9.0856  -15.9763   15.6657 N   0  0  0  0  0  0  0  0  0  0  0  0
   11.1979  -16.6145   22.4199 C   0  0  2  0  0  0  0  0  0  0  0  0
   12.4691  -16.6611   23.2469 C   0  0  0  0  0  0  0  0  0  0  0  0
   12.2445  -17.7944   24.1572 C   0  0  0  0  0  0  0  0  0  0  0  0
   12.0498  -17.7070   25.5861 C   0  0  0  0  0  0  0  0  0  0  0  0
   11.7710  -18.8154   26.4935 C   0  0  0  0  0  0  0  0  0  0  0  0
   11.7081  -18.4414   27.9747 N   0  0  0  0  0  0  0  0  0  0  0  0
   11.3445  -19.5609   28.7971 C   0  0  0  0  0  0  0  0  0  0  0  0
   13.4586  -17.0689   22.1664 O   0  0  0  0  0  0  0  0  0  0  0  0
   14.8359  -16.9255   22.4855 O   0  0  0  0  0  0  0  0  0  0  0  0
  2  1  1  1
  3  2  1  0
  4  5  1  0
  4  3  1  0
  6  7  1  0
  6  5  1  0
  8  2  1  0
  9  8  2  0
 10 11  1  0
 11 12  2  0
 11 13  1  0
 13 14  1  0
 14 15  1  0
 15 16  1  0
 17 16  1  6
 17 19  1  0
 17 18  1  0
 18  8  1  0
 19 20  2  0
 21 22  1  0
 21 19  1  0
 22 28  1  0
 22 23  1  1
 24 23  1  0
 25 24  1  0
 26 25  1  0
 27 26  1  0
 28 30  2  0
 28 29  1  0
M  END
$$$$
