KRK.pdb
     RDKit          3D

 30 29  0  0  1  0  0  0  0  0999 V2000
   10.4384  -20.3057   18.6494 N   0  0  0  0  0  0  0  0  0  0  0  0
   11.5162  -19.3491   18.5833 C   0  0  1  0  0  0  0  0  0  0  0  0
   12.0136  -19.3223   17.1307 C   0  0  0  0  0  0  0  0  0  0  0  0
   11.5413  -20.5375   16.3924 C   0  0  0  0  0  0  0  0  0  0  0  0
   12.6524  -21.5269   16.1869 C   0  0  0  0  0  0  0  0  0  0  0  0
   12.1835  -22.6255   15.2731 C   0  0  0  0  0  0  0  0  0  0  0  0
   13.2501  -23.5984   15.0523 N   0  0  0  0  0  0  0  0  0  0  0  0
   11.0759  -17.9769   18.9280 C   0  0  0  0  0  0  0  0  0  0  0  0
   11.8271  -16.9682   18.7191 O   0  0  0  0  0  0  0  0  0  0  0  0
    8.1187  -11.2979   20.0296 N   0  0  0  0  0  0  0  0  0  0  0  0
    8.8671  -12.2766   19.3376 C   0  0  0  0  0  0  0  0  0  0  0  0
   10.1634  -12.2858   19.3300 N   0  0  0  0  0  0  0  0  0  0  0  0
    8.1619  -13.3036   18.6127 N   0  0  0  0  0  0  0  0  0  0  0  0
    7.1157  -14.0136   19.3051 C   0  0  0  0  0  0  0  0  0  0  0  0
    7.6738  -14.6996   20.5344 C   0  0  0  0  0  0  0  0  0  0  0  0
    8.0151  -16.1178   20.1303 C   0  0  0  0  0  0  0  0  0  0  0  0
    9.4947  -16.3199   19.9679 C   0  0  2  0  0  0  0  0  0  0  0  0
    9.8132  -17.6707   19.5061 N   0  0  0  0  0  0  0  0  0  0  0  0
   10.2294  -16.0082   21.2233 C   0  0  0  0  0  0  0  0  0  0  0  0
   10.2063  -14.8191   21.6530 O   0  0  0  0  0  0  0  0  0  0  0  0
   10.6596  -12.9720   18.7511 N   0  0  0  0  0  0  0  0  0  0  0  0
   10.9409  -17.0009   21.9324 C   0  0  1  0  0  0  0  0  0  0  0  0
   11.6716  -16.6501   23.2151 C   0  0  0  0  0  0  0  0  0  0  0  0
   11.2654  -17.7160   24.1435 C   0  0  0  0  0  0  0  0  0  0  0  0
   11.9250  -18.0558   25.3832 C   0  0  0  0  0  0  0  0  0  0  0  0
   11.5872  -19.1640   26.2706 C   0  0  0  0  0  0  0  0  0  0  0  0
   12.4842  -19.3070   27.5007 N   0  0  0  0  0  0  0  0  0  0  0  0
   12.0046  -20.3171   28.4016 C   0  0  0  0  0  0  0  0  0  0  0  0
   13.1039  -16.8912   22.7639 O   0  0  0  0  0  0  0  0  0  0  0  0
   14.1239  -16.3097   23.5641 O   0  0  0  0  0  0  0  0  0  0  0  0
  2  1  1  6
  3  2  1  0
  4  5  1  0
  4  3  1  0
  6  7  1  0
  6  5  1  0
  8  2  1  0
  9  8  2  0
 10 11  1  0
 11 12  2  0
 11 13  1  0
 13 14  1  0
 14 15  1  0
 15 16  1  0
 17 16  1  1
 17 19  1  0
 17 18  1  0
 18  8  1  0
 19 20  2  0
 21 22  1  0
 21 19  1  0
 22 28  1  0
 22 23  1  6
 24 23  1  0
 25 24  1  0
 26 25  1  0
 27 26  1  0
 28 30  2  0
 28 29  1  0
M  END
$$$$
