KRK.pdb
     RDKit          3D

 30 29  0  0  1  0  0  0  0  0999 V2000
    9.9387  -19.1482   16.8346 N   0  0  0  0  0  0  0  0  0  0  0  0
   11.2949  -18.9186   17.2696 C   0  0  1  0  0  0  0  0  0  0  0  0
   11.9717  -18.0397   16.2077 C   0  0  0  0  0  0  0  0  0  0  0  0
   11.8650  -18.6757   14.8553 C   0  0  0  0  0  0  0  0  0  0  0  0
   11.4313  -17.6868   13.8114 C   0  0  0  0  0  0  0  0  0  0  0  0
   11.3112  -18.3804   12.4823 C   0  0  0  0  0  0  0  0  0  0  0  0
   10.8141  -17.4572   11.4657 N   0  0  0  0  0  0  0  0  0  0  0  0
   11.3595  -18.1891   18.5577 C   0  0  0  0  0  0  0  0  0  0  0  0
   12.4715  -17.7939   19.0400 O   0  0  0  0  0  0  0  0  0  0  0  0
    9.1770  -13.2751   21.0248 N   0  0  0  0  0  0  0  0  0  0  0  0
    8.4475  -12.7432   19.9377 C   0  0  0  0  0  0  0  0  0  0  0  0
    8.6529  -11.5481   19.4791 N   0  0  0  0  0  0  0  0  0  0  0  0
    7.4368  -13.5608   19.3153 N   0  0  0  0  0  0  0  0  0  0  0  0
    7.3060  -14.9235   19.7672 C   0  0  0  0  0  0  0  0  0  0  0  0
    8.5604  -15.7061   19.4400 C   0  0  0  0  0  0  0  0  0  0  0  0
    9.1444  -16.1723   20.7563 C   0  0  0  0  0  0  0  0  0  0  0  0
   10.3364  -17.0656   20.5623 C   0  0  2  0  0  0  0  0  0  0  0  0
   10.2204  -17.8737   19.3486 N   0  0  0  0  0  0  0  0  0  0  0  0
   10.5683  -17.9321   21.7490 C   0  0  0  0  0  0  0  0  0  0  0  0
    9.7374  -18.8542   21.9907 O   0  0  0  0  0  0  0  0  0  0  0  0
    8.0182  -11.1635   18.7711 N   0  0  0  0  0  0  0  0  0  0  0  0
   11.6822  -17.7461   22.5970 C   0  0  2  0  0  0  0  0  0  0  0  0
   11.9222  -18.6868   23.7630 C   0  0  0  0  0  0  0  0  0  0  0  0
   13.3880  -18.7202   23.8805 C   0  0  0  0  0  0  0  0  0  0  0  0
   14.1465  -19.5594   24.7792 C   0  0  0  0  0  0  0  0  0  0  0  0
   15.5986  -19.5900   24.9203 C   0  0  0  0  0  0  0  0  0  0  0  0
   16.1247  -20.5149   26.0184 N   0  0  0  0  0  0  0  0  0  0  0  0
   17.5596  -20.5257   26.0710 C   0  0  0  0  0  0  0  0  0  0  0  0
   11.3437  -17.8450   24.8899 O   0  0  0  0  0  0  0  0  0  0  0  0
   11.1187  -18.5121   26.1242 O   0  0  0  0  0  0  0  0  0  0  0  0
  2  1  1  6
  3  2  1  0
  4  5  1  0
  4  3  1  0
  6  7  1  0
  6  5  1  0
  8  2  1  0
  9  8  2  0
 10 11  1  0
 11 12  2  0
 11 13  1  0
 13 14  1  0
 14 15  1  0
 15 16  1  0
 17 16  1  1
 17 19  1  0
 17 18  1  0
 18  8  1  0
 19 20  2  0
 21 22  1  0
 21 19  1  0
 22 28  1  0
 22 23  1  6
 24 23  1  0
 25 24  1  0
 26 25  1  0
 27 26  1  0
 28 30  2  0
 28 29  1  0
M  END
$$$$
