KRK.pdb
     RDKit          3D

 30 29  0  0  1  0  0  0  0  0999 V2000
   11.3109  -20.2799   17.1507 N   0  0  0  0  0  0  0  0  0  0  0  0
   10.4578  -20.4139   18.3062 C   0  0  1  0  0  0  0  0  0  0  0  0
   10.9358  -21.6479   19.0853 C   0  0  0  0  0  0  0  0  0  0  0  0
   10.6822  -22.8963   18.2966 C   0  0  0  0  0  0  0  0  0  0  0  0
   11.1488  -24.1199   19.0320 C   0  0  0  0  0  0  0  0  0  0  0  0
   10.8129  -25.3465   18.2292 C   0  0  0  0  0  0  0  0  0  0  0  0
   11.2986  -26.5482   18.9022 N   0  0  0  0  0  0  0  0  0  0  0  0
   10.5525  -19.2489   19.2169 C   0  0  0  0  0  0  0  0  0  0  0  0
   11.6807  -18.8159   19.6233 O   0  0  0  0  0  0  0  0  0  0  0  0
    8.5768  -12.1028   21.1235 N   0  0  0  0  0  0  0  0  0  0  0  0
    7.9039  -12.6844   20.0255 C   0  0  0  0  0  0  0  0  0  0  0  0
    7.9402  -12.1718   18.8352 N   0  0  0  0  0  0  0  0  0  0  0  0
    7.1486  -13.8936   20.2372 N   0  0  0  0  0  0  0  0  0  0  0  0
    7.2650  -14.5396   21.5207 C   0  0  0  0  0  0  0  0  0  0  0  0
    8.5460  -15.3445   21.5872 C   0  0  0  0  0  0  0  0  0  0  0  0
    8.3777  -16.5184   20.6466 C   0  0  0  0  0  0  0  0  0  0  0  0
    9.5817  -17.4166   20.6408 C   0  0  2  0  0  0  0  0  0  0  0  0
    9.4267  -18.5304   19.7055 N   0  0  0  0  0  0  0  0  0  0  0  0
    9.8954  -17.9180   22.0058 C   0  0  0  0  0  0  0  0  0  0  0  0
    9.1062  -18.7525   22.5348 O   0  0  0  0  0  0  0  0  0  0  0  0
    7.3949  -12.6055   18.0824 N   0  0  0  0  0  0  0  0  0  0  0  0
   11.0405  -17.4854   22.7100 C   0  0  2  0  0  0  0  0  0  0  0  0
   11.3630  -18.0627   24.0756 C   0  0  0  0  0  0  0  0  0  0  0  0
   12.8287  -17.9667   24.1511 C   0  0  0  0  0  0  0  0  0  0  0  0
   13.7204  -18.9926   24.6406 C   0  0  0  0  0  0  0  0  0  0  0  0
   15.1780  -18.9318   24.6744 C   0  0  0  0  0  0  0  0  0  0  0  0
   15.8684  -20.1935   25.1936 N   0  0  0  0  0  0  0  0  0  0  0  0
   17.2991  -20.0869   25.1344 C   0  0  0  0  0  0  0  0  0  0  0  0
   10.7400  -16.9908   24.9565 O   0  0  0  0  0  0  0  0  0  0  0  0
   10.4989  -17.3483   26.3104 O   0  0  0  0  0  0  0  0  0  0  0  0
  2  1  1  6
  3  2  1  0
  4  5  1  0
  4  3  1  0
  6  7  1  0
  6  5  1  0
  8  2  1  0
  9  8  2  0
 10 11  1  0
 11 12  2  0
 11 13  1  0
 13 14  1  0
 14 15  1  0
 15 16  1  0
 17 16  1  1
 17 19  1  0
 17 18  1  0
 18  8  1  0
 19 20  2  0
 21 22  1  0
 21 19  1  0
 22 28  1  0
 22 23  1  6
 24 23  1  0
 25 24  1  0
 26 25  1  0
 27 26  1  0
 28 30  2  0
 28 29  1  0
M  END
$$$$
