KRK.pdb
     RDKit          3D

 30 29  0  0  1  0  0  0  0  0999 V2000
    7.9757  -12.9844   18.1858 N   0  0  0  0  0  0  0  0  0  0  0  0
    8.4013  -14.2789   18.6592 C   0  0  1  0  0  0  0  0  0  0  0  0
    9.9327  -14.2442   18.7666 C   0  0  0  0  0  0  0  0  0  0  0  0
   10.5582  -14.5404   17.4377 C   0  0  0  0  0  0  0  0  0  0  0  0
   12.0463  -14.3394   17.4693 C   0  0  0  0  0  0  0  0  0  0  0  0
   12.6178  -14.6066   16.1041 C   0  0  0  0  0  0  0  0  0  0  0  0
   14.0511  -14.3264   16.0849 N   0  0  0  0  0  0  0  0  0  0  0  0
    7.8681  -14.5916   20.0059 C   0  0  0  0  0  0  0  0  0  0  0  0
    7.4385  -13.6725   20.7780 O   0  0  0  0  0  0  0  0  0  0  0  0
    9.1930  -20.0527   23.7140 N   0  0  0  0  0  0  0  0  0  0  0  0
    9.1108  -21.0325   22.6991 C   0  0  0  0  0  0  0  0  0  0  0  0
   10.0195  -21.9422   22.5338 N   0  0  0  0  0  0  0  0  0  0  0  0
    7.9731  -21.0195   21.8142 N   0  0  0  0  0  0  0  0  0  0  0  0
    7.0237  -19.9446   21.9600 C   0  0  0  0  0  0  0  0  0  0  0  0
    7.7242  -18.6076   21.8386 C   0  0  0  0  0  0  0  0  0  0  0  0
    6.6629  -17.5391   21.9910 C   0  0  0  0  0  0  0  0  0  0  0  0
    7.2325  -16.1542   21.8719 C   0  0  2  0  0  0  0  0  0  0  0  0
    7.7900  -15.9063   20.5425 N   0  0  0  0  0  0  0  0  0  0  0  0
    8.2496  -15.8897   22.9247 C   0  0  0  0  0  0  0  0  0  0  0  0
    9.4611  -16.1437   22.6663 O   0  0  0  0  0  0  0  0  0  0  0  0
    9.9041  -22.6416   21.7923 N   0  0  0  0  0  0  0  0  0  0  0  0
    7.8919  -15.3682   24.1875 C   0  0  2  0  0  0  0  0  0  0  0  0
    8.9590  -15.0796   25.2267 C   0  0  0  0  0  0  0  0  0  0  0  0
    8.2652  -14.2251   26.2023 C   0  0  0  0  0  0  0  0  0  0  0  0
    7.7847  -12.8839   25.9623 C   0  0  0  0  0  0  0  0  0  0  0  0
    6.9659  -12.0808   26.8648 C   0  0  0  0  0  0  0  0  0  0  0  0
    6.6456  -10.6704   26.3686 N   0  0  0  0  0  0  0  0  0  0  0  0
    5.8688   -9.9285   27.3215 C   0  0  0  0  0  0  0  0  0  0  0  0
    9.1296  -16.4747   25.8078 O   0  0  0  0  0  0  0  0  0  0  0  0
    8.4847  -16.7244   27.0491 O   0  0  0  0  0  0  0  0  0  0  0  0
  2  1  1  1
  3  2  1  0
  4  5  1  0
  4  3  1  0
  6  7  1  0
  6  5  1  0
  8  2  1  0
  9  8  2  0
 10 11  1  0
 11 12  2  0
 11 13  1  0
 13 14  1  0
 14 15  1  0
 15 16  1  0
 17 16  1  6
 17 19  1  0
 17 18  1  0
 18  8  1  0
 19 20  2  0
 21 22  1  0
 21 19  1  0
 22 28  1  0
 22 23  1  6
 24 23  1  0
 25 24  1  0
 26 25  1  0
 27 26  1  0
 28 30  2  0
 28 29  1  0
M  END
$$$$
