KRK.pdb
     RDKit          3D

 30 29  0  0  1  0  0  0  0  0999 V2000
    5.7483  -20.0210   21.8786 N   0  0  0  0  0  0  0  0  0  0  0  0
    5.9883  -19.2684   23.0856 C   0  0  1  0  0  0  0  0  0  0  0  0
    6.4702  -20.2610   24.1536 C   0  0  0  0  0  0  0  0  0  0  0  0
    5.6515  -21.5151   24.1111 C   0  0  0  0  0  0  0  0  0  0  0  0
    6.0017  -22.4432   25.2388 C   0  0  0  0  0  0  0  0  0  0  0  0
    5.2518  -23.7366   25.0755 C   0  0  0  0  0  0  0  0  0  0  0  0
    5.7559  -24.7422   26.0071 N   0  0  0  0  0  0  0  0  0  0  0  0
    7.0501  -18.2492   22.9145 C   0  0  0  0  0  0  0  0  0  0  0  0
    8.1396  -18.5224   22.3113 O   0  0  0  0  0  0  0  0  0  0  0  0
    7.7419  -13.9903   18.1496 N   0  0  0  0  0  0  0  0  0  0  0  0
    7.9641  -12.8702   18.9819 C   0  0  0  0  0  0  0  0  0  0  0  0
    7.8997  -11.6522   18.5427 N   0  0  0  0  0  0  0  0  0  0  0  0
    8.2741  -13.0908   20.3721 N   0  0  0  0  0  0  0  0  0  0  0  0
    7.8324  -14.3266   20.9687 C   0  0  0  0  0  0  0  0  0  0  0  0
    6.9045  -14.0441   22.1315 C   0  0  0  0  0  0  0  0  0  0  0  0
    7.5987  -14.5439   23.3803 C   0  0  0  0  0  0  0  0  0  0  0  0
    8.0575  -15.9676   23.2418 C   0  0  2  0  0  0  0  0  0  0  0  0
    6.9524  -16.9138   23.3938 N   0  0  0  0  0  0  0  0  0  0  0  0
    9.1533  -16.2835   24.1970 C   0  0  0  0  0  0  0  0  0  0  0  0
    8.8779  -16.3374   25.4300 O   0  0  0  0  0  0  0  0  0  0  0  0
    8.0471  -10.8729   19.1932 N   0  0  0  0  0  0  0  0  0  0  0  0
   10.4745  -16.5204   23.7581 C   0  0  2  0  0  0  0  0  0  0  0  0
   11.5582  -16.8870   24.7549 C   0  0  0  0  0  0  0  0  0  0  0  0
   11.6152  -18.3545   24.6751 C   0  0  0  0  0  0  0  0  0  0  0  0
   12.4772  -19.2120   25.4553 C   0  0  0  0  0  0  0  0  0  0  0  0
   12.6483  -20.6520   25.2909 C   0  0  0  0  0  0  0  0  0  0  0  0
   13.7169  -21.2846   26.1829 N   0  0  0  0  0  0  0  0  0  0  0  0
   13.2205  -22.4355   26.8835 C   0  0  0  0  0  0  0  0  0  0  0  0
   12.7656  -16.2948   24.0445 O   0  0  0  0  0  0  0  0  0  0  0  0
   13.9638  -16.2071   24.8032 O   0  0  0  0  0  0  0  0  0  0  0  0
  2  1  1  6
  3  2  1  0
  4  5  1  0
  4  3  1  0
  6  7  1  0
  6  5  1  0
  8  2  1  0
  9  8  2  0
 10 11  1  0
 11 12  2  0
 11 13  1  0
 13 14  1  0
 14 15  1  0
 15 16  1  0
 17 16  1  1
 17 19  1  0
 17 18  1  0
 18  8  1  0
 19 20  2  0
 21 22  1  0
 21 19  1  0
 22 28  1  0
 22 23  1  6
 24 23  1  0
 25 24  1  0
 26 25  1  0
 27 26  1  0
 28 30  2  0
 28 29  1  0
M  END
$$$$
