KRK.pdb
     RDKit          3D

 30 29  0  0  1  0  0  0  0  0999 V2000
   10.6081  -18.8027   19.0078 N   0  0  0  0  0  0  0  0  0  0  0  0
   11.7438  -18.7633   19.8965 C   0  0  1  0  0  0  0  0  0  0  0  0
   12.8161  -17.8912   19.2275 C   0  0  0  0  0  0  0  0  0  0  0  0
   13.0532  -18.3409   17.8181 C   0  0  0  0  0  0  0  0  0  0  0  0
   12.2942  -17.4985   16.8332 C   0  0  0  0  0  0  0  0  0  0  0  0
   12.5891  -17.9712   15.4363 C   0  0  0  0  0  0  0  0  0  0  0  0
   11.8601  -17.1674   14.4588 N   0  0  0  0  0  0  0  0  0  0  0  0
   11.4182  -18.1440   21.2026 C   0  0  0  0  0  0  0  0  0  0  0  0
   12.3100  -17.9812   22.0991 O   0  0  0  0  0  0  0  0  0  0  0  0
    8.6047  -12.1532   20.2087 N   0  0  0  0  0  0  0  0  0  0  0  0
    8.3402  -13.1727   19.2667 C   0  0  0  0  0  0  0  0  0  0  0  0
    8.6953  -13.0814   18.0232 N   0  0  0  0  0  0  0  0  0  0  0  0
    7.6494  -14.3591   19.7055 N   0  0  0  0  0  0  0  0  0  0  0  0
    7.5756  -14.6050   21.1240 C   0  0  0  0  0  0  0  0  0  0  0  0
    8.9412  -14.9770   21.6624 C   0  0  0  0  0  0  0  0  0  0  0  0
    8.7232  -16.0345   22.7231 C   0  0  0  0  0  0  0  0  0  0  0  0
    9.8827  -16.9843   22.8227 C   0  0  2  0  0  0  0  0  0  0  0  0
   10.1199  -17.6891   21.5632 N   0  0  0  0  0  0  0  0  0  0  0  0
    9.7023  -17.9511   23.9387 C   0  0  0  0  0  0  0  0  0  0  0  0
    8.7306  -18.7584   23.8824 O   0  0  0  0  0  0  0  0  0  0  0  0
    8.4854  -13.8530   17.3807 N   0  0  0  0  0  0  0  0  0  0  0  0
   10.5829  -17.9829   25.0424 C   0  0  1  0  0  0  0  0  0  0  0  0
   10.3703  -18.9837   26.1628 C   0  0  0  0  0  0  0  0  0  0  0  0
   11.6440  -18.9513   26.8977 C   0  0  0  0  0  0  0  0  0  0  0  0
   11.9417  -19.6810   28.1085 C   0  0  0  0  0  0  0  0  0  0  0  0
   13.2032  -19.6675   28.8420 C   0  0  0  0  0  0  0  0  0  0  0  0
   13.2750  -20.6306   30.0275 N   0  0  0  0  0  0  0  0  0  0  0  0
   14.5062  -20.4982   30.7543 C   0  0  0  0  0  0  0  0  0  0  0  0
    9.3068  -18.2463   26.9617 O   0  0  0  0  0  0  0  0  0  0  0  0
    8.5756  -19.0197   27.9032 O   0  0  0  0  0  0  0  0  0  0  0  0
  2  1  1  6
  3  2  1  0
  4  5  1  0
  4  3  1  0
  6  7  1  0
  6  5  1  0
  8  2  1  0
  9  8  2  0
 10 11  1  0
 11 12  2  0
 11 13  1  0
 13 14  1  0
 14 15  1  0
 15 16  1  0
 17 16  1  6
 17 19  1  0
 17 18  1  0
 18  8  1  0
 19 20  2  0
 21 22  1  0
 21 19  1  0
 22 28  1  0
 22 23  1  6
 24 23  1  0
 25 24  1  0
 26 25  1  0
 27 26  1  0
 28 30  2  0
 28 29  1  0
M  END
$$$$
