KRK.pdb
     RDKit          3D

 30 29  0  0  1  0  0  0  0  0999 V2000
    8.6324  -18.8875   18.0326 N   0  0  0  0  0  0  0  0  0  0  0  0
    9.9388  -18.5234   18.5242 C   0  0  1  0  0  0  0  0  0  0  0  0
   10.6386  -17.7274   17.4130 C   0  0  0  0  0  0  0  0  0  0  0  0
    9.7143  -17.5253   16.2513 C   0  0  0  0  0  0  0  0  0  0  0  0
   10.4119  -16.8635   15.0976 C   0  0  0  0  0  0  0  0  0  0  0  0
    9.4332  -16.6477   13.9763 C   0  0  0  0  0  0  0  0  0  0  0  0
   10.0761  -15.9587   12.8605 N   0  0  0  0  0  0  0  0  0  0  0  0
    9.8699  -17.6513   19.7201 C   0  0  0  0  0  0  0  0  0  0  0  0
   10.9229  -17.1526   20.2378 O   0  0  0  0  0  0  0  0  0  0  0  0
    8.5180  -13.4769   17.6289 N   0  0  0  0  0  0  0  0  0  0  0  0
    8.4627  -12.6273   18.7567 C   0  0  0  0  0  0  0  0  0  0  0  0
    9.0694  -11.4823   18.7967 N   0  0  0  0  0  0  0  0  0  0  0  0
    7.7028  -13.0502   19.9060 N   0  0  0  0  0  0  0  0  0  0  0  0
    7.9617  -14.3672   20.4323 C   0  0  0  0  0  0  0  0  0  0  0  0
    7.0539  -14.6473   21.6115 C   0  0  0  0  0  0  0  0  0  0  0  0
    7.2897  -16.0866   22.0163 C   0  0  0  0  0  0  0  0  0  0  0  0
    8.6640  -16.5628   21.6406 C   0  0  2  0  0  0  0  0  0  0  0  0
    8.6587  -17.3026   20.3788 N   0  0  0  0  0  0  0  0  0  0  0  0
    9.2743  -17.3789   22.7243 C   0  0  0  0  0  0  0  0  0  0  0  0
    8.6778  -18.4316   23.0916 O   0  0  0  0  0  0  0  0  0  0  0  0
    8.9821  -10.8941   19.6325 N   0  0  0  0  0  0  0  0  0  0  0  0
   10.4888  -17.0047   23.3404 C   0  0  2  0  0  0  0  0  0  0  0  0
   11.0879  -17.8652   24.4370 C   0  0  0  0  0  0  0  0  0  0  0  0
   12.4669  -18.0932   23.9790 C   0  0  0  0  0  0  0  0  0  0  0  0
   13.5116  -17.0976   23.9098 C   0  0  0  0  0  0  0  0  0  0  0  0
   14.8839  -17.3093   23.4609 C   0  0  0  0  0  0  0  0  0  0  0  0
   15.7492  -16.0500   23.4024 N   0  0  0  0  0  0  0  0  0  0  0  0
   17.0438  -16.3125   22.8396 C   0  0  0  0  0  0  0  0  0  0  0  0
   11.0934  -16.8564   25.5751 O   0  0  0  0  0  0  0  0  0  0  0  0
   11.5058  -17.3409   26.8456 O   0  0  0  0  0  0  0  0  0  0  0  0
  2  1  1  6
  3  2  1  0
  4  5  1  0
  4  3  1  0
  6  7  1  0
  6  5  1  0
  8  2  1  0
  9  8  2  0
 10 11  1  0
 11 12  2  0
 11 13  1  0
 13 14  1  0
 14 15  1  0
 15 16  1  0
 17 16  1  1
 17 19  1  0
 17 18  1  0
 18  8  1  0
 19 20  2  0
 21 22  1  0
 21 19  1  0
 22 28  1  0
 22 23  1  6
 24 23  1  0
 25 24  1  0
 26 25  1  0
 27 26  1  0
 28 30  2  0
 28 29  1  0
M  END
$$$$
