KRK.pdb
     RDKit          3D

 30 29  0  0  1  0  0  0  0  0999 V2000
    4.8783  -20.7007   20.9808 N   0  0  0  0  0  0  0  0  0  0  0  0
    4.5452  -19.4053   21.5211 C   0  0  1  0  0  0  0  0  0  0  0  0
    3.6746  -19.6398   22.7641 C   0  0  0  0  0  0  0  0  0  0  0  0
    2.2806  -19.1436   22.5289 C   0  0  0  0  0  0  0  0  0  0  0  0
    1.4823  -20.1083   21.6995 C   0  0  0  0  0  0  0  0  0  0  0  0
    0.0915  -19.5704   21.5039 C   0  0  0  0  0  0  0  0  0  0  0  0
   -0.6853  -20.4592   20.6438 N   0  0  0  0  0  0  0  0  0  0  0  0
    5.7432  -18.6483   21.9537 C   0  0  0  0  0  0  0  0  0  0  0  0
    6.7541  -19.2395   22.4577 O   0  0  0  0  0  0  0  0  0  0  0  0
    8.9924  -12.4511   16.8836 N   0  0  0  0  0  0  0  0  0  0  0  0
    8.6180  -12.5072   18.2450 C   0  0  0  0  0  0  0  0  0  0  0  0
    9.2511  -11.8544   19.1690 N   0  0  0  0  0  0  0  0  0  0  0  0
    7.4893  -13.3213   18.6202 N   0  0  0  0  0  0  0  0  0  0  0  0
    7.2433  -13.5171   20.0271 C   0  0  0  0  0  0  0  0  0  0  0  0
    7.4671  -14.9674   20.4007 C   0  0  0  0  0  0  0  0  0  0  0  0
    7.0970  -15.1078   21.8616 C   0  0  0  0  0  0  0  0  0  0  0  0
    7.0745  -16.5430   22.3047 C   0  0  2  0  0  0  0  0  0  0  0  0
    5.8694  -17.2356   21.8491 N   0  0  0  0  0  0  0  0  0  0  0  0
    7.2211  -16.6613   23.7803 C   0  0  0  0  0  0  0  0  0  0  0  0
    6.2167  -16.4075   24.5056 O   0  0  0  0  0  0  0  0  0  0  0  0
    9.0491  -12.0524   20.1550 N   0  0  0  0  0  0  0  0  0  0  0  0
    8.4424  -17.0458   24.3761 C   0  0  2  0  0  0  0  0  0  0  0  0
    8.5657  -17.1262   25.8862 C   0  0  0  0  0  0  0  0  0  0  0  0
    8.0382  -18.4622   26.2026 C   0  0  0  0  0  0  0  0  0  0  0  0
    7.9278  -19.0380   27.5230 C   0  0  0  0  0  0  0  0  0  0  0  0
    7.4678  -20.3845   27.8470 C   0  0  0  0  0  0  0  0  0  0  0  0
    7.5919  -20.7758   29.3199 N   0  0  0  0  0  0  0  0  0  0  0  0
    8.9561  -21.0117   29.7007 C   0  0  0  0  0  0  0  0  0  0  0  0
   10.0811  -17.1373   26.0156 O   0  0  0  0  0  0  0  0  0  0  0  0
   10.8160  -17.3014   24.8106 O   0  0  0  0  0  0  0  0  0  0  0  0
  2  1  1  1
  3  2  1  0
  4  5  1  0
  4  3  1  0
  6  7  1  0
  6  5  1  0
  8  2  1  0
  9  8  2  0
 10 11  1  0
 11 12  2  0
 11 13  1  0
 13 14  1  0
 14 15  1  0
 15 16  1  0
 17 16  1  1
 17 19  1  0
 17 18  1  0
 18  8  1  0
 19 20  2  0
 21 22  1  0
 21 19  1  0
 22 28  1  0
 22 23  1  6
 24 23  1  0
 25 24  1  0
 26 25  1  0
 27 26  1  0
 28 30  2  0
 28 29  1  0
M  END
$$$$
