HDN.pdb
     RDKit          3D

 27 27  0  0  1  0  0  0  0  0999 V2000
   42.5023  -10.1286  -12.1712 N   0  0  0  0  0  0  0  0  0  0  0  0
   41.3837  -10.0037  -11.2520 C   0  0  1  0  0  0  0  0  0  0  0  0
   41.8259  -10.6681   -9.9638 C   0  0  0  0  0  0  0  0  0  0  0  0
   42.1109  -12.1052  -10.0985 C   0  0  0  0  0  0  0  0  0  0  0  0
   42.0664  -12.8697  -11.2681 C   0  0  0  0  0  0  0  0  0  0  0  0
   42.3873  -14.1502  -10.9729 N   0  0  0  0  0  0  0  0  0  0  0  0
   42.6324  -14.2049   -9.6400 C   0  0  0  0  0  0  0  0  0  0  0  0
   42.4606  -12.9619   -9.1306 N   0  0  0  0  0  0  0  0  0  0  0  0
   41.0401   -8.6040  -10.9888 C   0  0  0  0  0  0  0  0  0  0  0  0
   41.9987   -7.7706  -10.9541 O   0  0  0  0  0  0  0  0  0  0  0  0
   39.7168   -8.1251  -10.7726 N   0  0  0  0  0  0  0  0  0  0  0  0
   39.5069   -6.7254  -10.6269 C   0  0  1  0  0  0  0  0  0  0  0  0
   38.2096   -6.2699  -11.2810 C   0  0  0  0  0  0  0  0  0  0  0  0
   38.2027   -6.5293  -12.7213 C   0  0  0  0  0  0  0  0  0  0  0  0
   39.2404   -6.3436  -13.4074 O   0  0  0  0  0  0  0  0  0  0  0  0
   39.4686   -6.2612   -9.2232 C   0  0  0  0  0  0  0  0  0  0  0  0
   38.7217   -6.9117   -8.4403 O   0  0  0  0  0  0  0  0  0  0  0  0
   37.0924   -6.9779  -13.3856 O   0  0  0  0  0  0  0  0  0  0  0  0
   40.4516   -3.8964   -4.5977 N   0  0  0  0  0  0  0  0  0  0  0  0
   41.5992   -4.3246   -5.3072 C   0  0  0  0  0  0  0  0  0  0  0  0
   42.6984   -4.2757   -4.6911 O   0  0  0  0  0  0  0  0  0  0  0  0
   41.5193   -4.8030   -6.6843 C   0  0  0  0  0  0  0  0  0  0  0  0
   40.1638   -4.7895   -7.3001 C   0  0  2  0  0  0  0  0  0  0  0  0
   40.1810   -5.1758   -8.6969 N   0  0  0  0  0  0  0  0  0  0  0  0
   39.5188   -3.4680   -7.1375 C   0  0  0  0  0  0  0  0  0  0  0  0
   39.5159   -2.5445   -8.2113 O   0  0  0  0  0  0  0  0  0  0  0  0
   38.9462   -3.0512   -6.1069 O   0  0  0  0  0  0  0  0  0  0  0  0
  2  1  1  6
  2  9  1  0
  3  2  1  0
  3  4  1  0
  4  8  1  0
  4  5  2  0
  5  6  1  0
  7  6  1  0
  8  7  2  0
  9 10  2  0
 11  9  1  0
 11 12  1  0
 12 16  1  0
 12 13  1  1
 14 13  1  0
 15 14  2  0
 16 17  2  0
 18 14  1  0
 19 20  1  0
 20 22  1  0
 21 20  2  0
 23 22  1  6
 23 25  1  0
 24 16  1  0
 24 23  1  0
 25 27  2  0
 25 26  1  0
M  END
$$$$
