HDN.pdb
     RDKit          3D

 27 27  0  0  1  0  0  0  0  0999 V2000
   24.6631  -33.4349   -8.4360 N   0  0  0  0  0  0  0  0  0  0  0  0
   23.7833  -33.4088   -7.2796 C   0  0  1  0  0  0  0  0  0  0  0  0
   22.6893  -34.4179   -7.5647 C   0  0  0  0  0  0  0  0  0  0  0  0
   21.7859  -34.0285   -8.6587 C   0  0  0  0  0  0  0  0  0  0  0  0
   21.7668  -34.5373   -9.9607 C   0  0  0  0  0  0  0  0  0  0  0  0
   20.7934  -33.9158  -10.6650 N   0  0  0  0  0  0  0  0  0  0  0  0
   20.2005  -33.0262   -9.8303 C   0  0  0  0  0  0  0  0  0  0  0  0
   20.8130  -33.1091   -8.6253 N   0  0  0  0  0  0  0  0  0  0  0  0
   24.4825  -33.7791   -6.0466 C   0  0  0  0  0  0  0  0  0  0  0  0
   25.4310  -34.6184   -6.1501 O   0  0  0  0  0  0  0  0  0  0  0  0
   24.1704  -33.2641   -4.7563 N   0  0  0  0  0  0  0  0  0  0  0  0
   24.9908  -33.6294   -3.6528 C   0  0  1  0  0  0  0  0  0  0  0  0
   24.9520  -32.5893   -2.5415 C   0  0  0  0  0  0  0  0  0  0  0  0
   25.9606  -32.8493   -1.5135 C   0  0  0  0  0  0  0  0  0  0  0  0
   26.0830  -32.0744   -0.5303 O   0  0  0  0  0  0  0  0  0  0  0  0
   24.6391  -34.9288   -3.0401 C   0  0  0  0  0  0  0  0  0  0  0  0
   23.4066  -35.1697   -2.9110 O   0  0  0  0  0  0  0  0  0  0  0  0
   26.8067  -33.9248   -1.5641 O   0  0  0  0  0  0  0  0  0  0  0  0
   24.3101  -39.7940   -2.5818 N   0  0  0  0  0  0  0  0  0  0  0  0
   25.6925  -39.5331   -2.4253 C   0  0  0  0  0  0  0  0  0  0  0  0
   26.4763  -40.5064   -2.5943 O   0  0  0  0  0  0  0  0  0  0  0  0
   26.1920  -38.2035   -2.0874 C   0  0  0  0  0  0  0  0  0  0  0  0
   25.1618  -37.1377   -1.9471 C   0  0  2  0  0  0  0  0  0  0  0  0
   25.5458  -35.9006   -2.5973 N   0  0  0  0  0  0  0  0  0  0  0  0
   24.8384  -36.8947   -0.5241 C   0  0  0  0  0  0  0  0  0  0  0  0
   23.5713  -37.2665   -0.0122 O   0  0  0  0  0  0  0  0  0  0  0  0
   25.5951  -36.3711    0.3228 O   0  0  0  0  0  0  0  0  0  0  0  0
  2  1  1  6
  2  9  1  0
  3  2  1  0
  3  4  1  0
  4  8  1  0
  4  5  2  0
  5  6  1  0
  7  6  1  0
  8  7  2  0
  9 10  2  0
 11  9  1  0
 11 12  1  0
 12 16  1  0
 12 13  1  1
 14 13  1  0
 15 14  2  0
 16 17  2  0
 18 14  1  0
 19 20  1  0
 20 22  1  0
 21 20  2  0
 23 22  1  1
 23 25  1  0
 24 16  1  0
 24 23  1  0
 25 27  2  0
 25 26  1  0
M  END
$$$$
