HDN.pdb
     RDKit          3D

 27 27  0  0  1  0  0  0  0  0999 V2000
   34.1114  -26.1281  -14.2405 N   0  0  0  0  0  0  0  0  0  0  0  0
   33.7481  -25.5404  -15.5189 C   0  0  1  0  0  0  0  0  0  0  0  0
   34.1371  -26.5584  -16.5719 C   0  0  0  0  0  0  0  0  0  0  0  0
   35.5659  -26.5411  -16.9224 C   0  0  0  0  0  0  0  0  0  0  0  0
   36.5545  -25.7027  -16.3989 C   0  0  0  0  0  0  0  0  0  0  0  0
   37.7387  -25.9951  -16.9836 N   0  0  0  0  0  0  0  0  0  0  0  0
   37.5130  -27.0013  -17.8647 C   0  0  0  0  0  0  0  0  0  0  0  0
   36.1969  -27.3165  -17.8132 N   0  0  0  0  0  0  0  0  0  0  0  0
   32.3121  -25.2646  -15.6106 C   0  0  0  0  0  0  0  0  0  0  0  0
   31.5502  -25.8987  -14.8156 O   0  0  0  0  0  0  0  0  0  0  0  0
   31.7243  -24.3425  -16.5225 N   0  0  0  0  0  0  0  0  0  0  0  0
   30.3145  -24.1525  -16.4959 C   0  0  1  0  0  0  0  0  0  0  0  0
   29.9326  -22.6830  -16.6098 C   0  0  0  0  0  0  0  0  0  0  0  0
   28.4866  -22.4839  -16.5051 C   0  0  0  0  0  0  0  0  0  0  0  0
   27.9733  -22.0963  -15.4242 O   0  0  0  0  0  0  0  0  0  0  0  0
   29.5858  -24.8717  -17.5632 C   0  0  0  0  0  0  0  0  0  0  0  0
   30.2472  -25.1472  -18.6027 O   0  0  0  0  0  0  0  0  0  0  0  0
   27.6329  -22.7035  -17.5531 O   0  0  0  0  0  0  0  0  0  0  0  0
   28.9386  -29.9385  -16.1949 N   0  0  0  0  0  0  0  0  0  0  0  0
   29.0165  -28.7784  -17.0020 C   0  0  0  0  0  0  0  0  0  0  0  0
   29.4755  -28.9274  -18.1671 O   0  0  0  0  0  0  0  0  0  0  0  0
   28.5855  -27.4711  -16.5154 C   0  0  0  0  0  0  0  0  0  0  0  0
   27.7999  -26.6466  -17.4744 C   0  0  2  0  0  0  0  0  0  0  0  0
   28.2426  -25.2672  -17.5183 N   0  0  0  0  0  0  0  0  0  0  0  0
   26.3529  -26.7154  -17.1741 C   0  0  0  0  0  0  0  0  0  0  0  0
   25.9156  -27.0511  -15.8696 O   0  0  0  0  0  0  0  0  0  0  0  0
   25.4232  -26.5000  -17.9823 O   0  0  0  0  0  0  0  0  0  0  0  0
  2  1  1  1
  2  9  1  0
  3  2  1  0
  3  4  1  0
  4  8  1  0
  4  5  2  0
  5  6  1  0
  7  6  1  0
  8  7  2  0
  9 10  2  0
 11  9  1  0
 11 12  1  0
 12 16  1  0
 12 13  1  6
 14 13  1  0
 15 14  2  0
 16 17  2  0
 18 14  1  0
 19 20  1  0
 20 22  1  0
 21 20  2  0
 23 22  1  1
 23 25  1  0
 24 16  1  0
 24 23  1  0
 25 27  2  0
 25 26  1  0
M  END
$$$$
