HDN.pdb
     RDKit          3D

 27 27  0  0  1  0  0  0  0  0999 V2000
   26.6934  -14.3983  -18.0805 N   0  0  0  0  0  0  0  0  0  0  0  0
   25.8973  -15.4104  -17.4069 C   0  0  1  0  0  0  0  0  0  0  0  0
   26.8189  -16.0614  -16.3953 C   0  0  0  0  0  0  0  0  0  0  0  0
   27.9442  -16.7948  -16.9956 C   0  0  0  0  0  0  0  0  0  0  0  0
   27.9859  -18.1511  -17.3320 C   0  0  0  0  0  0  0  0  0  0  0  0
   29.1999  -18.4412  -17.8535 N   0  0  0  0  0  0  0  0  0  0  0  0
   29.9218  -17.2929  -17.8511 C   0  0  0  0  0  0  0  0  0  0  0  0
   29.1474  -16.3117  -17.3301 N   0  0  0  0  0  0  0  0  0  0  0  0
   24.7413  -14.8331  -16.7164 C   0  0  0  0  0  0  0  0  0  0  0  0
   24.9700  -13.8894  -15.8968 O   0  0  0  0  0  0  0  0  0  0  0  0
   23.3951  -15.2572  -16.9039 N   0  0  0  0  0  0  0  0  0  0  0  0
   22.3474  -14.5093  -16.2980 C   0  0  1  0  0  0  0  0  0  0  0  0
   22.2531  -13.0972  -16.8598 C   0  0  0  0  0  0  0  0  0  0  0  0
   21.1870  -12.3244  -16.2211 C   0  0  0  0  0  0  0  0  0  0  0  0
   19.9852  -12.6753  -16.3424 O   0  0  0  0  0  0  0  0  0  0  0  0
   21.0075  -15.1197  -16.4382 C   0  0  0  0  0  0  0  0  0  0  0  0
   20.6648  -15.4513  -17.6071 O   0  0  0  0  0  0  0  0  0  0  0  0
   21.4331  -11.2034  -15.4741 O   0  0  0  0  0  0  0  0  0  0  0  0
   17.7740  -18.6492  -15.9522 N   0  0  0  0  0  0  0  0  0  0  0  0
   17.8727  -18.1326  -14.6381 C   0  0  0  0  0  0  0  0  0  0  0  0
   17.4694  -18.8774  -13.7038 O   0  0  0  0  0  0  0  0  0  0  0  0
   18.4166  -16.8042  -14.3715 C   0  0  0  0  0  0  0  0  0  0  0  0
   18.8190  -16.0140  -15.5675 C   0  0  2  0  0  0  0  0  0  0  0  0
   20.0999  -15.3572  -15.3979 N   0  0  0  0  0  0  0  0  0  0  0  0
   17.7769  -15.0281  -15.9290 C   0  0  0  0  0  0  0  0  0  0  0  0
   16.4863  -15.4695  -16.3104 O   0  0  0  0  0  0  0  0  0  0  0  0
   17.9119  -13.7849  -15.9369 O   0  0  0  0  0  0  0  0  0  0  0  0
  2  1  1  1
  2  9  1  0
  3  2  1  0
  3  4  1  0
  4  8  1  0
  4  5  2  0
  5  6  1  0
  7  6  1  0
  8  7  2  0
  9 10  2  0
 11  9  1  0
 11 12  1  0
 12 16  1  0
 12 13  1  6
 14 13  1  0
 15 14  2  0
 16 17  2  0
 18 14  1  0
 19 20  1  0
 20 22  1  0
 21 20  2  0
 23 22  1  1
 23 25  1  0
 24 16  1  0
 24 23  1  0
 25 27  2  0
 25 26  1  0
M  END
$$$$
