HDN.pdb
     RDKit          3D

 27 27  0  0  1  0  0  0  0  0999 V2000
   17.3938  -10.6179  -14.6176 N   0  0  0  0  0  0  0  0  0  0  0  0
   17.8424   -9.8012  -15.7327 C   0  0  1  0  0  0  0  0  0  0  0  0
   16.5857   -9.3175  -16.4279 C   0  0  0  0  0  0  0  0  0  0  0  0
   15.8134  -10.3863  -17.0805 C   0  0  0  0  0  0  0  0  0  0  0  0
   15.6364  -10.5837  -18.4531 C   0  0  0  0  0  0  0  0  0  0  0  0
   14.8551  -11.6709  -18.6472 N   0  0  0  0  0  0  0  0  0  0  0  0
   14.5379  -12.1602  -17.4227 C   0  0  0  0  0  0  0  0  0  0  0  0
   15.1251  -11.3720  -16.4910 N   0  0  0  0  0  0  0  0  0  0  0  0
   18.6318   -8.6491  -15.2898 C   0  0  0  0  0  0  0  0  0  0  0  0
   18.3467   -8.1558  -14.1541 O   0  0  0  0  0  0  0  0  0  0  0  0
   19.6849   -8.0556  -16.0421 N   0  0  0  0  0  0  0  0  0  0  0  0
   20.4493   -7.0116  -15.4504 C   0  0  1  0  0  0  0  0  0  0  0  0
   21.9253   -7.3708  -15.3467 C   0  0  0  0  0  0  0  0  0  0  0  0
   22.1691   -8.3941  -14.3292 C   0  0  0  0  0  0  0  0  0  0  0  0
   21.8896   -8.1726  -13.1230 O   0  0  0  0  0  0  0  0  0  0  0  0
   20.3689   -5.7204  -16.1673 C   0  0  0  0  0  0  0  0  0  0  0  0
   20.5669   -5.7606  -17.4135 O   0  0  0  0  0  0  0  0  0  0  0  0
   22.7023   -9.6196  -14.6271 O   0  0  0  0  0  0  0  0  0  0  0  0
   18.5316   -3.0932  -18.9924 N   0  0  0  0  0  0  0  0  0  0  0  0
   18.0005   -3.1917  -17.6840 C   0  0  0  0  0  0  0  0  0  0  0  0
   16.8736   -3.7459  -17.5693 O   0  0  0  0  0  0  0  0  0  0  0  0
   18.7193   -2.6808  -16.5205 C   0  0  0  0  0  0  0  0  0  0  0  0
   20.0915   -3.2207  -16.3148 C   0  0  2  0  0  0  0  0  0  0  0  0
   20.0952   -4.4746  -15.5879 N   0  0  0  0  0  0  0  0  0  0  0  0
   20.9574   -2.2294  -15.6392 C   0  0  0  0  0  0  0  0  0  0  0  0
   21.5414   -2.5367  -14.3860 O   0  0  0  0  0  0  0  0  0  0  0  0
   21.2478   -1.0920  -16.0703 O   0  0  0  0  0  0  0  0  0  0  0  0
  2  1  1  1
  2  9  1  0
  3  2  1  0
  3  4  1  0
  4  8  1  0
  4  5  2  0
  5  6  1  0
  7  6  1  0
  8  7  2  0
  9 10  2  0
 11  9  1  0
 11 12  1  0
 12 16  1  0
 12 13  1  6
 14 13  1  0
 15 14  2  0
 16 17  2  0
 18 14  1  0
 19 20  1  0
 20 22  1  0
 21 20  2  0
 23 22  1  1
 23 25  1  0
 24 16  1  0
 24 23  1  0
 25 27  2  0
 25 26  1  0
M  END
$$$$
