HDN.pdb
     RDKit          3D

 27 27  0  0  1  0  0  0  0  0999 V2000
   27.7676  -29.4364  -17.9998 N   0  0  0  0  0  0  0  0  0  0  0  0
   26.4980  -29.7581  -17.3701 C   0  0  1  0  0  0  0  0  0  0  0  0
   26.8395  -30.3135  -16.0021 C   0  0  0  0  0  0  0  0  0  0  0  0
   27.4484  -31.6524  -16.0345 C   0  0  0  0  0  0  0  0  0  0  0  0
   28.4186  -32.1609  -15.1659 C   0  0  0  0  0  0  0  0  0  0  0  0
   28.7220  -33.4270  -15.5329 N   0  0  0  0  0  0  0  0  0  0  0  0
   27.9610  -33.7237  -16.6157 C   0  0  0  0  0  0  0  0  0  0  0  0
   27.1998  -32.6410  -16.9027 N   0  0  0  0  0  0  0  0  0  0  0  0
   25.6423  -28.5783  -17.2206 C   0  0  0  0  0  0  0  0  0  0  0  0
   25.6372  -28.0087  -16.0847 O   0  0  0  0  0  0  0  0  0  0  0  0
   24.8270  -28.0367  -18.2546 N   0  0  0  0  0  0  0  0  0  0  0  0
   24.0004  -26.9160  -17.9631 C   0  0  1  0  0  0  0  0  0  0  0  0
   23.6006  -26.1569  -19.2210 C   0  0  0  0  0  0  0  0  0  0  0  0
   24.7350  -25.4503  -19.8173 C   0  0  0  0  0  0  0  0  0  0  0  0
   24.9689  -25.5457  -21.0495 O   0  0  0  0  0  0  0  0  0  0  0  0
   22.7508  -27.2542  -17.2479 C   0  0  0  0  0  0  0  0  0  0  0  0
   22.0804  -28.2146  -17.7190 O   0  0  0  0  0  0  0  0  0  0  0  0
   25.5842  -24.6651  -19.0841 O   0  0  0  0  0  0  0  0  0  0  0  0
   18.7340  -27.6664  -13.8703 N   0  0  0  0  0  0  0  0  0  0  0  0
   19.9624  -27.4018  -13.2188 C   0  0  0  0  0  0  0  0  0  0  0  0
   19.9685  -27.4915  -11.9609 O   0  0  0  0  0  0  0  0  0  0  0  0
   21.1672  -27.0445  -13.9620 C   0  0  0  0  0  0  0  0  0  0  0  0
   21.0190  -26.9636  -15.4413 C   0  0  2  0  0  0  0  0  0  0  0  0
   22.2558  -26.6077  -16.1079 N   0  0  0  0  0  0  0  0  0  0  0  0
   19.9405  -26.0232  -15.8171 C   0  0  0  0  0  0  0  0  0  0  0  0
   18.5920  -26.4561  -15.8183 O   0  0  0  0  0  0  0  0  0  0  0  0
   20.0909  -24.8276  -16.1515 O   0  0  0  0  0  0  0  0  0  0  0  0
  2  1  1  1
  2  9  1  0
  3  2  1  0
  3  4  1  0
  4  8  1  0
  4  5  2  0
  5  6  1  0
  7  6  1  0
  8  7  2  0
  9 10  2  0
 11  9  1  0
 11 12  1  0
 12 16  1  0
 12 13  1  6
 14 13  1  0
 15 14  2  0
 16 17  2  0
 18 14  1  0
 19 20  1  0
 20 22  1  0
 21 20  2  0
 23 22  1  1
 23 25  1  0
 24 16  1  0
 24 23  1  0
 25 27  2  0
 25 26  1  0
M  END
$$$$
