HDN.pdb
     RDKit          3D

 27 27  0  0  1  0  0  0  0  0999 V2000
   22.2123  -17.0443  -19.2772 N   0  0  0  0  0  0  0  0  0  0  0  0
   22.0790  -16.7663  -17.8571 C   0  0  1  0  0  0  0  0  0  0  0  0
   20.8798  -15.8497  -17.7219 C   0  0  0  0  0  0  0  0  0  0  0  0
   21.1817  -14.4296  -17.9599 C   0  0  0  0  0  0  0  0  0  0  0  0
   21.8736  -13.8829  -19.0446 C   0  0  0  0  0  0  0  0  0  0  0  0
   21.9482  -12.5409  -18.8917 N   0  0  0  0  0  0  0  0  0  0  0  0
   21.3164  -12.2341  -17.7314 C   0  0  0  0  0  0  0  0  0  0  0  0
   20.8612  -13.3862  -17.1843 N   0  0  0  0  0  0  0  0  0  0  0  0
   21.8551  -17.9850  -17.0754 C   0  0  0  0  0  0  0  0  0  0  0  0
   21.5209  -19.0296  -17.7172 O   0  0  0  0  0  0  0  0  0  0  0  0
   21.9870  -18.0715  -15.6604 N   0  0  0  0  0  0  0  0  0  0  0  0
   21.7501  -19.3210  -15.0224 C   0  0  1  0  0  0  0  0  0  0  0  0
   22.4454  -19.4148  -13.6710 C   0  0  0  0  0  0  0  0  0  0  0  0
   22.3708  -20.7644  -13.1100 C   0  0  0  0  0  0  0  0  0  0  0  0
   21.9651  -21.7253  -13.8130 O   0  0  0  0  0  0  0  0  0  0  0  0
   20.3205  -19.6235  -14.7939 C   0  0  0  0  0  0  0  0  0  0  0  0
   19.6410  -18.7186  -14.2342 O   0  0  0  0  0  0  0  0  0  0  0  0
   22.7299  -21.0486  -11.8195 O   0  0  0  0  0  0  0  0  0  0  0  0
   16.3374  -22.5586  -13.0404 N   0  0  0  0  0  0  0  0  0  0  0  0
   17.6667  -22.9697  -12.7807 C   0  0  0  0  0  0  0  0  0  0  0  0
   17.8183  -23.9148  -11.9596 O   0  0  0  0  0  0  0  0  0  0  0  0
   18.8100  -22.3360  -13.4310 C   0  0  0  0  0  0  0  0  0  0  0  0
   18.4865  -21.3202  -14.4703 C   0  0  2  0  0  0  0  0  0  0  0  0
   19.6664  -20.8125  -15.1416 N   0  0  0  0  0  0  0  0  0  0  0  0
   17.6981  -20.2066  -13.8985 C   0  0  0  0  0  0  0  0  0  0  0  0
   16.4477  -19.8596  -14.4659 O   0  0  0  0  0  0  0  0  0  0  0  0
   18.0264  -19.4995  -12.9207 O   0  0  0  0  0  0  0  0  0  0  0  0
  2  1  1  6
  2  9  1  0
  3  2  1  0
  3  4  1  0
  4  8  1  0
  4  5  2  0
  5  6  1  0
  7  6  1  0
  8  7  2  0
  9 10  2  0
 11  9  1  0
 11 12  1  0
 12 16  1  0
 12 13  1  1
 14 13  1  0
 15 14  2  0
 16 17  2  0
 18 14  1  0
 19 20  1  0
 20 22  1  0
 21 20  2  0
 23 22  1  1
 23 25  1  0
 24 16  1  0
 24 23  1  0
 25 27  2  0
 25 26  1  0
M  END
$$$$
