HDN.pdb
     RDKit          3D

 27 27  0  0  1  0  0  0  0  0999 V2000
   15.0785  -10.9217  -15.2603 N   0  0  0  0  0  0  0  0  0  0  0  0
   15.3092   -9.6063  -15.8332 C   0  0  1  0  0  0  0  0  0  0  0  0
   14.7529   -8.6123  -14.8336 C   0  0  0  0  0  0  0  0  0  0  0  0
   13.2868   -8.6400  -14.7144 C   0  0  0  0  0  0  0  0  0  0  0  0
   12.3586   -8.0182  -15.5548 C   0  0  0  0  0  0  0  0  0  0  0  0
   11.1098   -8.2770  -15.1040 N   0  0  0  0  0  0  0  0  0  0  0  0
   11.2356   -9.0495  -13.9963 C   0  0  0  0  0  0  0  0  0  0  0  0
   12.5559   -9.2574  -13.7777 N   0  0  0  0  0  0  0  0  0  0  0  0
   16.7340   -9.3406  -16.0475 C   0  0  0  0  0  0  0  0  0  0  0  0
   17.5462   -9.8258  -15.1992 O   0  0  0  0  0  0  0  0  0  0  0  0
   17.2591   -8.5831  -17.1328 N   0  0  0  0  0  0  0  0  0  0  0  0
   18.6702   -8.4957  -17.2917 C   0  0  1  0  0  0  0  0  0  0  0  0
   19.0647   -8.1384  -18.7183 C   0  0  0  0  0  0  0  0  0  0  0  0
   20.5172   -8.1232  -18.8967 C   0  0  0  0  0  0  0  0  0  0  0  0
   21.2031   -9.1425  -18.6272 O   0  0  0  0  0  0  0  0  0  0  0  0
   19.3200   -7.5072  -16.4039 C   0  0  0  0  0  0  0  0  0  0  0  0
   18.6366   -6.4874  -16.1092 O   0  0  0  0  0  0  0  0  0  0  0  0
   21.1935   -7.0246  -19.3557 O   0  0  0  0  0  0  0  0  0  0  0  0
   22.3855   -4.9706  -12.9633 N   0  0  0  0  0  0  0  0  0  0  0  0
   21.9571   -6.2719  -12.6074 C   0  0  0  0  0  0  0  0  0  0  0  0
   22.0862   -6.6006  -11.3968 O   0  0  0  0  0  0  0  0  0  0  0  0
   21.3900   -7.1916  -13.5893 C   0  0  0  0  0  0  0  0  0  0  0  0
   21.1929   -6.6409  -14.9585 C   0  0  2  0  0  0  0  0  0  0  0  0
   20.6115   -7.6059  -15.8703 N   0  0  0  0  0  0  0  0  0  0  0  0
   22.4610   -6.1113  -15.5065 C   0  0  0  0  0  0  0  0  0  0  0  0
   22.9917   -4.8941  -15.0140 O   0  0  0  0  0  0  0  0  0  0  0  0
   23.1542   -6.6430  -16.4014 O   0  0  0  0  0  0  0  0  0  0  0  0
  2  1  1  1
  2  9  1  0
  3  2  1  0
  3  4  1  0
  4  8  1  0
  4  5  2  0
  5  6  1  0
  7  6  1  0
  8  7  2  0
  9 10  2  0
 11  9  1  0
 11 12  1  0
 12 16  1  0
 12 13  1  6
 14 13  1  0
 15 14  2  0
 16 17  2  0
 18 14  1  0
 19 20  1  0
 20 22  1  0
 21 20  2  0
 23 22  1  1
 23 25  1  0
 24 16  1  0
 24 23  1  0
 25 27  2  0
 25 26  1  0
M  END
$$$$
