HDN.pdb
     RDKit          3D

 27 27  0  0  1  0  0  0  0  0999 V2000
   19.0082   -9.8877  -17.1654 N   0  0  0  0  0  0  0  0  0  0  0  0
   19.8041   -8.9224  -17.9047 C   0  0  1  0  0  0  0  0  0  0  0  0
   19.1930   -8.8508  -19.2896 C   0  0  0  0  0  0  0  0  0  0  0  0
   19.2410  -10.1203  -20.0316 C   0  0  0  0  0  0  0  0  0  0  0  0
   19.8164  -10.3451  -21.2856 C   0  0  0  0  0  0  0  0  0  0  0  0
   19.6457  -11.6433  -21.6252 N   0  0  0  0  0  0  0  0  0  0  0  0
   18.9739  -12.2385  -20.6083 C   0  0  0  0  0  0  0  0  0  0  0  0
   18.7390  -11.3038  -19.6569 N   0  0  0  0  0  0  0  0  0  0  0  0
   19.7744   -7.5945  -17.2865 C   0  0  0  0  0  0  0  0  0  0  0  0
   18.6311   -7.0891  -17.0581 O   0  0  0  0  0  0  0  0  0  0  0  0
   20.9310   -6.8445  -16.9299 N   0  0  0  0  0  0  0  0  0  0  0  0
   20.7635   -5.5733  -16.3131 C   0  0  1  0  0  0  0  0  0  0  0  0
   19.7219   -4.7231  -17.0276 C   0  0  0  0  0  0  0  0  0  0  0  0
   19.6472   -3.3702  -16.4745 C   0  0  0  0  0  0  0  0  0  0  0  0
   20.6748   -2.8148  -16.0081 O   0  0  0  0  0  0  0  0  0  0  0  0
   20.3655   -5.6378  -14.8901 C   0  0  0  0  0  0  0  0  0  0  0  0
   20.3743   -4.5450  -14.2581 O   0  0  0  0  0  0  0  0  0  0  0  0
   18.4821   -2.6517  -16.4351 O   0  0  0  0  0  0  0  0  0  0  0  0
   19.0889   -7.1475   -9.9990 N   0  0  0  0  0  0  0  0  0  0  0  0
   18.0970   -7.3808  -10.9814 C   0  0  0  0  0  0  0  0  0  0  0  0
   16.9431   -7.6725  -10.5646 O   0  0  0  0  0  0  0  0  0  0  0  0
   18.3894   -7.2870  -12.4087 C   0  0  0  0  0  0  0  0  0  0  0  0
   19.7673   -6.8480  -12.7630 C   0  0  2  0  0  0  0  0  0  0  0  0
   19.9852   -6.7929  -14.1948 N   0  0  0  0  0  0  0  0  0  0  0  0
   20.7824   -7.7102  -12.1188 C   0  0  0  0  0  0  0  0  0  0  0  0
   21.7433   -8.3855  -12.9103 O   0  0  0  0  0  0  0  0  0  0  0  0
   20.8951   -7.9222  -10.8915 O   0  0  0  0  0  0  0  0  0  0  0  0
  2  1  1  1
  2  9  1  0
  3  2  1  0
  3  4  1  0
  4  8  1  0
  4  5  2  0
  5  6  1  0
  7  6  1  0
  8  7  2  0
  9 10  2  0
 11  9  1  0
 11 12  1  0
 12 16  1  0
 12 13  1  6
 14 13  1  0
 15 14  2  0
 16 17  2  0
 18 14  1  0
 19 20  1  0
 20 22  1  0
 21 20  2  0
 23 22  1  6
 23 25  1  0
 24 16  1  0
 24 23  1  0
 25 27  2  0
 25 26  1  0
M  END
$$$$
