HDN.pdb
     RDKit          3D

 27 27  0  0  1  0  0  0  0  0999 V2000
   22.0664  -17.2012  -17.4560 N   0  0  0  0  0  0  0  0  0  0  0  0
   20.9944  -16.5721  -16.7032 C   0  0  1  0  0  0  0  0  0  0  0  0
   21.4329  -16.5961  -15.2528 C   0  0  0  0  0  0  0  0  0  0  0  0
   21.3487  -17.9233  -14.6238 C   0  0  0  0  0  0  0  0  0  0  0  0
   20.8937  -19.1086  -15.2088 C   0  0  0  0  0  0  0  0  0  0  0  0
   20.9668  -20.1079  -14.3000 N   0  0  0  0  0  0  0  0  0  0  0  0
   21.4590  -19.5730  -13.1550 C   0  0  0  0  0  0  0  0  0  0  0  0
   21.6830  -18.2548  -13.3702 N   0  0  0  0  0  0  0  0  0  0  0  0
   20.7649  -15.1873  -17.1231 C   0  0  0  0  0  0  0  0  0  0  0  0
   21.7840  -14.5129  -17.4713 O   0  0  0  0  0  0  0  0  0  0  0  0
   19.4883  -14.5581  -17.1653 N   0  0  0  0  0  0  0  0  0  0  0  0
   19.3930  -13.2280  -17.6613 C   0  0  1  0  0  0  0  0  0  0  0  0
   18.1546  -13.0260  -18.5238 C   0  0  0  0  0  0  0  0  0  0  0  0
   18.1517  -13.9078  -19.6919 C   0  0  0  0  0  0  0  0  0  0  0  0
   19.1646  -13.9864  -20.4335 O   0  0  0  0  0  0  0  0  0  0  0  0
   19.3597  -12.1895  -16.6087 C   0  0  0  0  0  0  0  0  0  0  0  0
   18.6736  -12.4562  -15.5831 O   0  0  0  0  0  0  0  0  0  0  0  0
   17.0718  -14.6773  -20.0337 O   0  0  0  0  0  0  0  0  0  0  0  0
   20.2676   -7.9288  -13.6015 N   0  0  0  0  0  0  0  0  0  0  0  0
   21.3147   -8.8613  -13.7949 C   0  0  0  0  0  0  0  0  0  0  0  0
   22.3027   -8.7749  -13.0160 O   0  0  0  0  0  0  0  0  0  0  0  0
   21.2576   -9.8774  -14.8417 C   0  0  0  0  0  0  0  0  0  0  0  0
   19.9741   -9.9684  -15.5907 C   0  0  2  0  0  0  0  0  0  0  0  0
   20.0162  -10.9528  -16.6536 N   0  0  0  0  0  0  0  0  0  0  0  0
   19.5754   -8.6478  -16.1252 C   0  0  0  0  0  0  0  0  0  0  0  0
   18.7763   -7.7790  -15.3427 O   0  0  0  0  0  0  0  0  0  0  0  0
   19.8789   -8.1867  -17.2473 O   0  0  0  0  0  0  0  0  0  0  0  0
  2  1  1  6
  2  9  1  0
  3  2  1  0
  3  4  1  0
  4  8  1  0
  4  5  2  0
  5  6  1  0
  7  6  1  0
  8  7  2  0
  9 10  2  0
 11  9  1  0
 11 12  1  0
 12 16  1  0
 12 13  1  1
 14 13  1  0
 15 14  2  0
 16 17  2  0
 18 14  1  0
 19 20  1  0
 20 22  1  0
 21 20  2  0
 23 22  1  6
 23 25  1  0
 24 16  1  0
 24 23  1  0
 25 27  2  0
 25 26  1  0
M  END
$$$$
