HDN.pdb
     RDKit          3D

 27 27  0  0  1  0  0  0  0  0999 V2000
   16.7201  -11.2172  -15.4241 N   0  0  0  0  0  0  0  0  0  0  0  0
   17.8038  -10.9918  -14.4825 C   0  0  1  0  0  0  0  0  0  0  0  0
   19.0857  -11.1877  -15.2666 C   0  0  0  0  0  0  0  0  0  0  0  0
   19.3058  -12.5705  -15.7183 C   0  0  0  0  0  0  0  0  0  0  0  0
   19.4907  -13.0112  -17.0320 C   0  0  0  0  0  0  0  0  0  0  0  0
   19.6540  -14.3540  -17.0301 N   0  0  0  0  0  0  0  0  0  0  0  0
   19.5751  -14.7654  -15.7400 C   0  0  0  0  0  0  0  0  0  0  0  0
   19.3649  -13.6755  -14.9643 N   0  0  0  0  0  0  0  0  0  0  0  0
   17.7742   -9.6385  -13.9217 C   0  0  0  0  0  0  0  0  0  0  0  0
   17.4507   -8.6943  -14.7082 O   0  0  0  0  0  0  0  0  0  0  0  0
   18.0808   -9.3191  -12.5685 N   0  0  0  0  0  0  0  0  0  0  0  0
   18.0282   -7.9592  -12.1537 C   0  0  1  0  0  0  0  0  0  0  0  0
   17.8221   -7.8265  -10.6509 C   0  0  0  0  0  0  0  0  0  0  0  0
   17.6788   -6.4294  -10.2397 C   0  0  0  0  0  0  0  0  0  0  0  0
   17.6539   -5.5114  -11.0992 O   0  0  0  0  0  0  0  0  0  0  0  0
   19.2346   -7.1744  -12.4947 C   0  0  0  0  0  0  0  0  0  0  0  0
   20.3377   -7.6492  -12.1054 O   0  0  0  0  0  0  0  0  0  0  0  0
   17.5667   -6.0534   -8.9277 O   0  0  0  0  0  0  0  0  0  0  0  0
   22.7843   -4.0104  -14.7078 N   0  0  0  0  0  0  0  0  0  0  0  0
   22.3504   -5.2486  -15.2389 C   0  0  0  0  0  0  0  0  0  0  0  0
   23.0659   -5.7607  -16.1422 O   0  0  0  0  0  0  0  0  0  0  0  0
   21.1359   -5.9064  -14.7657 C   0  0  0  0  0  0  0  0  0  0  0  0
   20.4661   -5.2728  -13.5967 C   0  0  2  0  0  0  0  0  0  0  0  0
   19.2557   -5.9660  -13.2031 N   0  0  0  0  0  0  0  0  0  0  0  0
   20.1821   -3.8443  -13.8563 C   0  0  0  0  0  0  0  0  0  0  0  0
   18.8571   -3.3552  -13.7514 O   0  0  0  0  0  0  0  0  0  0  0  0
   21.0216   -2.9737  -14.1745 O   0  0  0  0  0  0  0  0  0  0  0  0
  2  1  1  6
  2  9  1  0
  3  2  1  0
  3  4  1  0
  4  8  1  0
  4  5  2  0
  5  6  1  0
  7  6  1  0
  8  7  2  0
  9 10  2  0
 11  9  1  0
 11 12  1  0
 12 16  1  0
 12 13  1  1
 14 13  1  0
 15 14  2  0
 16 17  2  0
 18 14  1  0
 19 20  1  0
 20 22  1  0
 21 20  2  0
 23 22  1  6
 23 25  1  0
 24 16  1  0
 24 23  1  0
 25 27  2  0
 25 26  1  0
M  END
$$$$
