DTP.pdb
     RDKit          3D

 23 23  0  0  1  0  0  0  0  0999 V2000
   26.9882  -19.7268  -19.2014 N   0  0  0  0  0  0  0  0  0  0  0  0
   28.1983  -20.1703  -18.4962 C   0  0  1  0  0  0  0  0  0  0  0  0
   29.3629  -19.5226  -19.2025 C   0  0  0  0  0  0  0  0  0  0  0  0
   29.7462  -20.4113  -20.3322 C   0  0  0  0  0  0  0  0  0  0  0  0
   29.1517  -21.4604  -20.6326 O   0  0  0  0  0  0  0  0  0  0  0  0
   28.1147  -19.7749  -17.0700 C   0  0  0  0  0  0  0  0  0  0  0  0
   28.9431  -18.9209  -16.6590 O   0  0  0  0  0  0  0  0  0  0  0  0
   30.8490  -20.0180  -21.0880 O   0  0  0  0  0  0  0  0  0  0  0  0
   27.7386  -17.5343  -15.6598 C   0  0  0  0  0  0  0  0  0  0  0  0
   26.6859  -18.3339  -14.9803 C   0  0  1  0  0  0  0  0  0  0  0  0
   25.5772  -18.3513  -15.8713 O   0  0  0  0  0  0  0  0  0  0  0  0
   27.0559  -19.8125  -14.7706 C   0  0  2  0  0  0  0  0  0  0  0  0
   27.1769  -20.2922  -16.1647 N   0  0  0  0  0  0  0  0  0  0  0  0
   26.0079  -20.5682  -14.0734 C   0  0  0  0  0  0  0  0  0  0  0  0
   25.2307  -21.2786  -14.8051 O   0  0  0  0  0  0  0  0  0  0  0  0
   25.7383  -20.6233  -12.6883 N   0  0  0  0  0  0  0  0  0  0  0  0
   26.5597  -19.9766  -11.6535 C   0  0  0  0  0  0  0  0  0  0  0  0
   26.5619  -21.0171  -10.5398 C   0  0  0  0  0  0  0  0  0  0  0  0
   25.1195  -21.4441  -10.5679 C   0  0  0  0  0  0  0  0  0  0  0  0
   24.6965  -21.3121  -11.9875 C   0  0  1  0  0  0  0  0  0  0  0  0
   23.4039  -20.5882  -12.0228 C   0  0  0  0  0  0  0  0  0  0  0  0
   23.3450  -19.4014  -12.3811 O   0  0  0  0  0  0  0  0  0  0  0  0
   22.2527  -21.2476  -11.6510 O   0  0  0  0  0  0  0  0  0  0  0  0
  2  1  1  6
  3  4  1  0
  3  2  1  0
  4  8  1  0
  4  5  2  0
  6  2  1  0
  7  6  2  0
 10  9  1  6
 10 12  1  0
 11 10  1  0
 12 14  1  0
 12 13  1  6
 13  6  1  0
 14 16  1  0
 15 14  2  0
 16 20  1  0
 16 17  1  0
 17 18  1  0
 19 18  1  0
 20 21  1  1
 20 19  1  0
 21 23  1  0
 22 21  2  0
M  END
$$$$
