DTP.pdb
     RDKit          3D

 23 23  0  0  1  0  0  0  0  0999 V2000
   14.3268   -8.5682   -8.9712 N   0  0  0  0  0  0  0  0  0  0  0  0
   15.0261   -7.3554   -9.4165 C   0  0  1  0  0  0  0  0  0  0  0  0
   15.4898   -6.6495   -8.1669 C   0  0  0  0  0  0  0  0  0  0  0  0
   14.4282   -5.6796   -7.7858 C   0  0  0  0  0  0  0  0  0  0  0  0
   14.0993   -4.6949   -8.4689 O   0  0  0  0  0  0  0  0  0  0  0  0
   16.1540   -7.7297  -10.3025 C   0  0  0  0  0  0  0  0  0  0  0  0
   16.8346   -8.7367   -9.9753 O   0  0  0  0  0  0  0  0  0  0  0  0
   13.7747   -5.9139   -6.5774 O   0  0  0  0  0  0  0  0  0  0  0  0
   15.9006   -8.7975  -13.8304 C   0  0  0  0  0  0  0  0  0  0  0  0
   16.7724   -7.5983  -13.7252 C   0  0  1  0  0  0  0  0  0  0  0  0
   15.8935   -6.4797  -13.7227 O   0  0  0  0  0  0  0  0  0  0  0  0
   17.5508   -7.5004  -12.4017 C   0  0  2  0  0  0  0  0  0  0  0  0
   16.5009   -7.0340  -11.4698 N   0  0  0  0  0  0  0  0  0  0  0  0
   18.6415   -6.5189  -12.4540 C   0  0  0  0  0  0  0  0  0  0  0  0
   18.3552   -5.3241  -12.0872 O   0  0  0  0  0  0  0  0  0  0  0  0
   19.9814   -6.7151  -12.8544 N   0  0  0  0  0  0  0  0  0  0  0  0
   20.5700   -8.0229  -13.1814 C   0  0  0  0  0  0  0  0  0  0  0  0
   21.9619   -7.9175  -12.5695 C   0  0  0  0  0  0  0  0  0  0  0  0
   22.3264   -6.5138  -12.9704 C   0  0  0  0  0  0  0  0  0  0  0  0
   21.0427   -5.7632  -12.9896 C   0  0  1  0  0  0  0  0  0  0  0  0
   20.9701   -4.9973  -14.2563 C   0  0  0  0  0  0  0  0  0  0  0  0
   20.2559   -5.3813  -15.1959 O   0  0  0  0  0  0  0  0  0  0  0  0
   21.7089   -3.8419  -14.3877 O   0  0  0  0  0  0  0  0  0  0  0  0
  2  1  1  1
  3  4  1  0
  3  2  1  0
  4  8  1  0
  4  5  2  0
  6  2  1  0
  7  6  2  0
 10  9  1  1
 10 12  1  0
 11 10  1  0
 12 14  1  0
 12 13  1  1
 13  6  1  0
 14 16  1  0
 15 14  2  0
 16 20  1  0
 16 17  1  0
 17 18  1  0
 19 18  1  0
 20 21  1  6
 20 19  1  0
 21 23  1  0
 22 21  2  0
M  END
$$$$
