DTP.pdb
     RDKit          3D

 23 23  0  0  1  0  0  0  0  0999 V2000
   16.5867  -12.2892  -16.1249 N   0  0  0  0  0  0  0  0  0  0  0  0
   16.5511  -10.8487  -15.8389 C   0  0  1  0  0  0  0  0  0  0  0  0
   15.7056  -10.6822  -14.6011 C   0  0  0  0  0  0  0  0  0  0  0  0
   14.2816  -10.7013  -15.0310 C   0  0  0  0  0  0  0  0  0  0  0  0
   13.9065  -10.7309  -16.2154 O   0  0  0  0  0  0  0  0  0  0  0  0
   17.9326  -10.3461  -15.6483 C   0  0  0  0  0  0  0  0  0  0  0  0
   18.7097  -11.0470  -14.9489 O   0  0  0  0  0  0  0  0  0  0  0  0
   13.3246  -10.6843  -14.0181 O   0  0  0  0  0  0  0  0  0  0  0  0
   20.4188   -9.8963  -18.2558 C   0  0  0  0  0  0  0  0  0  0  0  0
   20.2367   -8.5959  -17.5595 C   0  0  1  0  0  0  0  0  0  0  0  0
   19.1311   -7.9670  -18.1963 O   0  0  0  0  0  0  0  0  0  0  0  0
   19.8287   -8.7252  -16.0816 C   0  0  2  0  0  0  0  0  0  0  0  0
   18.4161   -9.1491  -16.1963 N   0  0  0  0  0  0  0  0  0  0  0  0
   19.9088   -7.4517  -15.3554 C   0  0  0  0  0  0  0  0  0  0  0  0
   18.8944   -6.6732  -15.4503 O   0  0  0  0  0  0  0  0  0  0  0  0
   20.9627   -6.9630  -14.5526 N   0  0  0  0  0  0  0  0  0  0  0  0
   22.1923   -7.7102  -14.2468 C   0  0  0  0  0  0  0  0  0  0  0  0
   22.4325   -7.3601  -12.7831 C   0  0  0  0  0  0  0  0  0  0  0  0
   22.1201   -5.8885  -12.8037 C   0  0  0  0  0  0  0  0  0  0  0  0
   21.0726   -5.7221  -13.8462 C   0  0  1  0  0  0  0  0  0  0  0  0
   21.4640   -4.5938  -14.7236 C   0  0  0  0  0  0  0  0  0  0  0  0
   21.8216   -4.7892  -15.8959 O   0  0  0  0  0  0  0  0  0  0  0  0
   21.4287   -3.3098  -14.2252 O   0  0  0  0  0  0  0  0  0  0  0  0
  2  1  1  1
  3  4  1  0
  3  2  1  0
  4  8  1  0
  4  5  2  0
  6  2  1  0
  7  6  2  0
 10  9  1  6
 10 12  1  0
 11 10  1  0
 12 14  1  0
 12 13  1  6
 13  6  1  0
 14 16  1  0
 15 14  2  0
 16 20  1  0
 16 17  1  0
 17 18  1  0
 19 18  1  0
 20 21  1  6
 20 19  1  0
 21 23  1  0
 22 21  2  0
M  END
$$$$
