DTP.pdb
     RDKit          3D

 23 23  0  0  1  0  0  0  0  0999 V2000
   16.5910  -11.3891  -17.9280 N   0  0  0  0  0  0  0  0  0  0  0  0
   17.0257   -9.9920  -17.7958 C   0  0  1  0  0  0  0  0  0  0  0  0
   15.8202   -9.2143  -17.3304 C   0  0  0  0  0  0  0  0  0  0  0  0
   14.8509   -9.1821  -18.4584 C   0  0  0  0  0  0  0  0  0  0  0  0
   13.9107   -9.9826  -18.5987 O   0  0  0  0  0  0  0  0  0  0  0  0
   18.1522   -9.9114  -16.8356 C   0  0  0  0  0  0  0  0  0  0  0  0
   18.0285  -10.5332  -15.7482 O   0  0  0  0  0  0  0  0  0  0  0  0
   15.0318   -8.1774  -19.4070 O   0  0  0  0  0  0  0  0  0  0  0  0
   21.8525  -10.7468  -17.3695 C   0  0  0  0  0  0  0  0  0  0  0  0
   21.6661   -9.3328  -16.9510 C   0  0  1  0  0  0  0  0  0  0  0  0
   21.4210   -8.6039  -18.1477 O   0  0  0  0  0  0  0  0  0  0  0  0
   20.4245   -9.0946  -16.0742 C   0  0  2  0  0  0  0  0  0  0  0  0
   19.3326   -9.1905  -17.0677 N   0  0  0  0  0  0  0  0  0  0  0  0
   20.4145   -7.7655  -15.4505 C   0  0  0  0  0  0  0  0  0  0  0  0
   20.0213   -6.7908  -16.1850 O   0  0  0  0  0  0  0  0  0  0  0  0
   20.7796   -7.4104  -14.1334 N   0  0  0  0  0  0  0  0  0  0  0  0
   21.1401   -8.3727  -13.0808 C   0  0  0  0  0  0  0  0  0  0  0  0
   20.4804   -7.7696  -11.8463 C   0  0  0  0  0  0  0  0  0  0  0  0
   20.8127   -6.3159  -12.0468 C   0  0  0  0  0  0  0  0  0  0  0  0
   20.8425   -6.1177  -13.5204 C   0  0  1  0  0  0  0  0  0  0  0  0
   22.0790   -5.3773  -13.8656 C   0  0  0  0  0  0  0  0  0  0  0  0
   23.0231   -5.9417  -14.4404 O   0  0  0  0  0  0  0  0  0  0  0  0
   22.1768   -4.0419  -13.5412 O   0  0  0  0  0  0  0  0  0  0  0  0
  2  1  1  1
  3  4  1  0
  3  2  1  0
  4  8  1  0
  4  5  2  0
  6  2  1  0
  7  6  2  0
 10  9  1  6
 10 12  1  0
 11 10  1  0
 12 14  1  0
 12 13  1  6
 13  6  1  0
 14 16  1  0
 15 14  2  0
 16 20  1  0
 16 17  1  0
 17 18  1  0
 19 18  1  0
 20 21  1  1
 20 19  1  0
 21 23  1  0
 22 21  2  0
M  END
$$$$
