DTP.pdb
     RDKit          3D

 23 23  0  0  1  0  0  0  0  0999 V2000
   27.4694  -19.4294  -18.8776 N   0  0  0  0  0  0  0  0  0  0  0  0
   28.5682  -18.7852  -18.1455 C   0  0  1  0  0  0  0  0  0  0  0  0
   28.8683  -17.4997  -18.8751 C   0  0  0  0  0  0  0  0  0  0  0  0
   29.2826  -17.8608  -20.2574 C   0  0  0  0  0  0  0  0  0  0  0  0
   30.0440  -18.8019  -20.5385 O   0  0  0  0  0  0  0  0  0  0  0  0
   28.1588  -18.5520  -16.7400 C   0  0  0  0  0  0  0  0  0  0  0  0
   28.9404  -17.8824  -16.0154 O   0  0  0  0  0  0  0  0  0  0  0  0
   28.7684  -17.0752  -21.2873 O   0  0  0  0  0  0  0  0  0  0  0  0
   26.4974  -16.3119  -15.2484 C   0  0  0  0  0  0  0  0  0  0  0  0
   25.7353  -17.5302  -14.8685 C   0  0  1  0  0  0  0  0  0  0  0  0
   24.8357  -17.7749  -15.9428 O   0  0  0  0  0  0  0  0  0  0  0  0
   26.5938  -18.8028  -14.7657 C   0  0  2  0  0  0  0  0  0  0  0  0
   26.9651  -19.0293  -16.1796 N   0  0  0  0  0  0  0  0  0  0  0  0
   25.8421  -19.9571  -14.2576 C   0  0  0  0  0  0  0  0  0  0  0  0
   25.3131  -20.7278  -15.1352 O   0  0  0  0  0  0  0  0  0  0  0  0
   25.6230  -20.3415  -12.9164 N   0  0  0  0  0  0  0  0  0  0  0  0
   26.2326  -19.6827  -11.7510 C   0  0  0  0  0  0  0  0  0  0  0  0
   26.5604  -20.8621  -10.8429 C   0  0  0  0  0  0  0  0  0  0  0  0
   25.3087  -21.6814  -11.0037 C   0  0  0  0  0  0  0  0  0  0  0  0
   24.8431  -21.4219  -12.3921 C   0  0  1  0  0  0  0  0  0  0  0  0
   23.3937  -21.1161  -12.3475 C   0  0  0  0  0  0  0  0  0  0  0  0
   22.9771  -19.9629  -12.5397 O   0  0  0  0  0  0  0  0  0  0  0  0
   22.4991  -22.1313  -12.0883 O   0  0  0  0  0  0  0  0  0  0  0  0
  2  1  1  6
  3  4  1  0
  3  2  1  0
  4  8  1  0
  4  5  2  0
  6  2  1  0
  7  6  2  0
 10  9  1  6
 10 12  1  0
 11 10  1  0
 12 14  1  0
 12 13  1  6
 13  6  1  0
 14 16  1  0
 15 14  2  0
 16 20  1  0
 16 17  1  0
 17 18  1  0
 19 18  1  0
 20 21  1  1
 20 19  1  0
 21 23  1  0
 22 21  2  0
M  END
$$$$
