DTP.pdb
     RDKit          3D

 23 23  0  0  1  0  0  0  0  0999 V2000
   16.5726  -10.8564  -12.2951 N   0  0  0  0  0  0  0  0  0  0  0  0
   17.0874   -9.4817  -12.3545 C   0  0  1  0  0  0  0  0  0  0  0  0
   17.3370   -9.1843  -13.8119 C   0  0  0  0  0  0  0  0  0  0  0  0
   18.5236   -9.9784  -14.2295 C   0  0  0  0  0  0  0  0  0  0  0  0
   18.4759  -11.1541  -14.6291 O   0  0  0  0  0  0  0  0  0  0  0  0
   16.0992   -8.5552  -11.7525 C   0  0  0  0  0  0  0  0  0  0  0  0
   14.8849   -8.7568  -12.0156 O   0  0  0  0  0  0  0  0  0  0  0  0
   19.7589   -9.3372  -14.1582 O   0  0  0  0  0  0  0  0  0  0  0  0
   15.1821   -8.1775   -8.3275 C   0  0  0  0  0  0  0  0  0  0  0  0
   15.6621   -6.8524   -8.7995 C   0  0  1  0  0  0  0  0  0  0  0  0
   17.0759   -6.8749   -8.6445 O   0  0  0  0  0  0  0  0  0  0  0  0
   15.4264   -6.5951  -10.2980 C   0  0  2  0  0  0  0  0  0  0  0  0
   16.4369   -7.4804  -10.9171 N   0  0  0  0  0  0  0  0  0  0  0  0
   15.6824   -5.2017  -10.6835 C   0  0  0  0  0  0  0  0  0  0  0  0
   16.9097   -4.8691  -10.8485 O   0  0  0  0  0  0  0  0  0  0  0  0
   14.7487   -4.1656  -10.9045 N   0  0  0  0  0  0  0  0  0  0  0  0
   13.2934   -4.3076  -10.7442 C   0  0  0  0  0  0  0  0  0  0  0  0
   12.7545   -3.5003  -11.9193 C   0  0  0  0  0  0  0  0  0  0  0  0
   13.6677   -2.3057  -11.8662 C   0  0  0  0  0  0  0  0  0  0  0  0
   14.9641   -2.8227  -11.3528 C   0  0  1  0  0  0  0  0  0  0  0  0
   15.4285   -1.9228  -10.2707 C   0  0  0  0  0  0  0  0  0  0  0  0
   15.4101   -2.2866   -9.0843 O   0  0  0  0  0  0  0  0  0  0  0  0
   15.8868   -0.6639  -10.5923 O   0  0  0  0  0  0  0  0  0  0  0  0
  2  1  1  6
  3  4  1  0
  3  2  1  0
  4  8  1  0
  4  5  2  0
  6  2  1  0
  7  6  2  0
 10  9  1  6
 10 12  1  0
 11 10  1  0
 12 14  1  0
 12 13  1  6
 13  6  1  0
 14 16  1  0
 15 14  2  0
 16 20  1  0
 16 17  1  0
 17 18  1  0
 19 18  1  0
 20 21  1  1
 20 19  1  0
 21 23  1  0
 22 21  2  0
M  END
$$$$
