DTP.pdb
     RDKit          3D

 23 23  0  0  1  0  0  0  0  0999 V2000
   18.4893  -13.3189  -16.9336 N   0  0  0  0  0  0  0  0  0  0  0  0
   18.1920  -11.8804  -16.9117 C   0  0  1  0  0  0  0  0  0  0  0  0
   16.9706  -11.7124  -16.0430 C   0  0  0  0  0  0  0  0  0  0  0  0
   15.8226  -12.3176  -16.7701 C   0  0  0  0  0  0  0  0  0  0  0  0
   15.5646  -12.1132  -17.9684 O   0  0  0  0  0  0  0  0  0  0  0  0
   19.3630  -11.1394  -16.3853 C   0  0  0  0  0  0  0  0  0  0  0  0
   19.9021  -11.5823  -15.3376 O   0  0  0  0  0  0  0  0  0  0  0  0
   14.9972  -13.1666  -16.0352 O   0  0  0  0  0  0  0  0  0  0  0  0
   22.4951  -10.4741  -18.3037 C   0  0  0  0  0  0  0  0  0  0  0  0
   21.9425   -9.1917  -17.7944 C   0  0  1  0  0  0  0  0  0  0  0  0
   21.0074   -8.7568  -18.7741 O   0  0  0  0  0  0  0  0  0  0  0  0
   21.1291   -9.3287  -16.4956 C   0  0  2  0  0  0  0  0  0  0  0  0
   19.8969   -9.9877  -16.9813 N   0  0  0  0  0  0  0  0  0  0  0  0
   20.7957   -8.0320  -15.8933 C   0  0  0  0  0  0  0  0  0  0  0  0
   19.8471   -7.3701  -16.4466 O   0  0  0  0  0  0  0  0  0  0  0  0
   21.3822   -7.4081  -14.7703 N   0  0  0  0  0  0  0  0  0  0  0  0
   22.4098   -8.0245  -13.9172 C   0  0  0  0  0  0  0  0  0  0  0  0
   21.9894   -7.5760  -12.5226 C   0  0  0  0  0  0  0  0  0  0  0  0
   21.6289   -6.1415  -12.7986 C   0  0  0  0  0  0  0  0  0  0  0  0
   21.1108   -6.1262  -14.1926 C   0  0  1  0  0  0  0  0  0  0  0  0
   21.7686   -5.0162  -14.9215 C   0  0  0  0  0  0  0  0  0  0  0  0
   21.5758   -3.8342  -14.5961 O   0  0  0  0  0  0  0  0  0  0  0  0
   22.6064   -5.3064  -15.9762 O   0  0  0  0  0  0  0  0  0  0  0  0
  2  1  1  1
  3  4  1  0
  3  2  1  0
  4  8  1  0
  4  5  2  0
  6  2  1  0
  7  6  2  0
 10  9  1  6
 10 12  1  0
 11 10  1  0
 12 14  1  0
 12 13  1  6
 13  6  1  0
 14 16  1  0
 15 14  2  0
 16 20  1  0
 16 17  1  0
 17 18  1  0
 19 18  1  0
 20 21  1  6
 20 19  1  0
 21 23  1  0
 22 21  2  0
M  END
$$$$
