DTP.pdb
     RDKit          3D

 23 23  0  0  1  0  0  0  0  0999 V2000
   16.6517  -12.4322  -15.4038 N   0  0  0  0  0  0  0  0  0  0  0  0
   18.0314  -11.9773  -15.6221 C   0  0  1  0  0  0  0  0  0  0  0  0
   18.5103  -12.6610  -16.8783 C   0  0  0  0  0  0  0  0  0  0  0  0
   18.6929  -14.1019  -16.5568 C   0  0  0  0  0  0  0  0  0  0  0  0
   19.1524  -14.5287  -15.4840 O   0  0  0  0  0  0  0  0  0  0  0  0
   18.0539  -10.5000  -15.7422 C   0  0  0  0  0  0  0  0  0  0  0  0
   17.3794   -9.9868  -16.6728 O   0  0  0  0  0  0  0  0  0  0  0  0
   18.3156  -15.0128  -17.5417 O   0  0  0  0  0  0  0  0  0  0  0  0
   16.2610   -8.2475  -14.6097 C   0  0  0  0  0  0  0  0  0  0  0  0
   17.5857   -7.7919  -14.1130 C   0  0  1  0  0  0  0  0  0  0  0  0
   17.8063   -8.4959  -12.8968 O   0  0  0  0  0  0  0  0  0  0  0  0
   18.7656   -8.1797  -15.0212 C   0  0  2  0  0  0  0  0  0  0  0  0
   18.7751   -9.6530  -14.8881 N   0  0  0  0  0  0  0  0  0  0  0  0
   20.0455   -7.6299  -14.5574 C   0  0  0  0  0  0  0  0  0  0  0  0
   20.6388   -8.2720  -13.6194 O   0  0  0  0  0  0  0  0  0  0  0  0
   20.7233   -6.4777  -15.0127 N   0  0  0  0  0  0  0  0  0  0  0  0
   20.1921   -5.5400  -16.0138 C   0  0  0  0  0  0  0  0  0  0  0  0
   21.4297   -5.2056  -16.8380 C   0  0  0  0  0  0  0  0  0  0  0  0
   22.4482   -5.0474  -15.7419 C   0  0  0  0  0  0  0  0  0  0  0  0
   22.0261   -5.9905  -14.6722 C   0  0  1  0  0  0  0  0  0  0  0  0
   22.0498   -5.2679  -13.3785 C   0  0  0  0  0  0  0  0  0  0  0  0
   20.9969   -4.9238  -12.8188 O   0  0  0  0  0  0  0  0  0  0  0  0
   23.2621   -4.9760  -12.7925 O   0  0  0  0  0  0  0  0  0  0  0  0
  2  1  1  6
  3  4  1  0
  3  2  1  0
  4  8  1  0
  4  5  2  0
  6  2  1  0
  7  6  2  0
 10  9  1  6
 10 12  1  0
 11 10  1  0
 12 14  1  0
 12 13  1  1
 13  6  1  0
 14 16  1  0
 15 14  2  0
 16 20  1  0
 16 17  1  0
 17 18  1  0
 19 18  1  0
 20 21  1  1
 20 19  1  0
 21 23  1  0
 22 21  2  0
M  END
$$$$
