DTP.pdb
     RDKit          3D

 23 23  0  0  1  0  0  0  0  0999 V2000
   19.3483  -13.2956  -17.3182 N   0  0  0  0  0  0  0  0  0  0  0  0
   20.5840  -12.5852  -16.9624 C   0  0  1  0  0  0  0  0  0  0  0  0
   21.6259  -13.0180  -17.9632 C   0  0  0  0  0  0  0  0  0  0  0  0
   21.8703  -14.4697  -17.7491 C   0  0  0  0  0  0  0  0  0  0  0  0
   22.2327  -14.9686  -16.6701 O   0  0  0  0  0  0  0  0  0  0  0  0
   20.3435  -11.1229  -16.9974 C   0  0  0  0  0  0  0  0  0  0  0  0
   20.3178  -10.5697  -18.1277 O   0  0  0  0  0  0  0  0  0  0  0  0
   21.6725  -15.3037  -18.8479 O   0  0  0  0  0  0  0  0  0  0  0  0
   17.3824   -9.3959  -15.8782 C   0  0  0  0  0  0  0  0  0  0  0  0
   18.5330   -8.7822  -15.1649 C   0  0  1  0  0  0  0  0  0  0  0  0
   18.7174   -9.5586  -13.9873 O   0  0  0  0  0  0  0  0  0  0  0  0
   19.8681   -8.8799  -15.9235 C   0  0  2  0  0  0  0  0  0  0  0  0
   20.1457  -10.3314  -15.8566 N   0  0  0  0  0  0  0  0  0  0  0  0
   20.9508   -8.1355  -15.2684 C   0  0  0  0  0  0  0  0  0  0  0  0
   21.5987   -8.7546  -14.3513 O   0  0  0  0  0  0  0  0  0  0  0  0
   21.3843   -6.8147  -15.5169 N   0  0  0  0  0  0  0  0  0  0  0  0
   20.9052   -5.9756  -16.6260 C   0  0  0  0  0  0  0  0  0  0  0  0
   22.1781   -5.2667  -17.0735 C   0  0  0  0  0  0  0  0  0  0  0  0
   22.7829   -4.9310  -15.7373 C   0  0  0  0  0  0  0  0  0  0  0  0
   22.3642   -6.0303  -14.8274 C   0  0  1  0  0  0  0  0  0  0  0  0
   21.8428   -5.4275  -13.5780 C   0  0  0  0  0  0  0  0  0  0  0  0
   20.6236   -5.3814  -13.3504 O   0  0  0  0  0  0  0  0  0  0  0  0
   22.7295   -4.9117  -12.6583 O   0  0  0  0  0  0  0  0  0  0  0  0
  2  1  1  6
  3  4  1  0
  3  2  1  0
  4  8  1  0
  4  5  2  0
  6  2  1  0
  7  6  2  0
 10  9  1  6
 10 12  1  0
 11 10  1  0
 12 14  1  0
 12 13  1  1
 13  6  1  0
 14 16  1  0
 15 14  2  0
 16 20  1  0
 16 17  1  0
 17 18  1  0
 19 18  1  0
 20 21  1  1
 20 19  1  0
 21 23  1  0
 22 21  2  0
M  END
$$$$
