DTP.pdb
     RDKit          3D

 23 23  0  0  1  0  0  0  0  0999 V2000
   16.4998  -10.6742  -16.2269 N   0  0  0  0  0  0  0  0  0  0  0  0
   17.5898  -11.2968  -15.4637 C   0  0  1  0  0  0  0  0  0  0  0  0
   17.7742  -12.6793  -16.0376 C   0  0  0  0  0  0  0  0  0  0  0  0
   16.5694  -13.4737  -15.6765 C   0  0  0  0  0  0  0  0  0  0  0  0
   16.2069  -13.7082  -14.5112 O   0  0  0  0  0  0  0  0  0  0  0  0
   18.8145  -10.4702  -15.5829 C   0  0  0  0  0  0  0  0  0  0  0  0
   19.8651  -10.9163  -15.0522 O   0  0  0  0  0  0  0  0  0  0  0  0
   15.8146  -13.9766  -16.7345 O   0  0  0  0  0  0  0  0  0  0  0  0
   20.7501   -9.4610  -18.5284 C   0  0  0  0  0  0  0  0  0  0  0  0
   20.2727   -8.2387  -17.8302 C   0  0  1  0  0  0  0  0  0  0  0  0
   18.9649   -7.9918  -18.3322 O   0  0  0  0  0  0  0  0  0  0  0  0
   20.0942   -8.4107  -16.3117 C   0  0  2  0  0  0  0  0  0  0  0  0
   18.8677   -9.2351  -16.2452 N   0  0  0  0  0  0  0  0  0  0  0  0
   19.8755   -7.1363  -15.6163 C   0  0  0  0  0  0  0  0  0  0  0  0
   18.6760   -6.6831  -15.6143 O   0  0  0  0  0  0  0  0  0  0  0  0
   20.8176   -6.3334  -14.9367 N   0  0  0  0  0  0  0  0  0  0  0  0
   22.2421   -6.6678  -14.7857 C   0  0  0  0  0  0  0  0  0  0  0  0
   22.5321   -6.2262  -13.3561 C   0  0  0  0  0  0  0  0  0  0  0  0
   21.7897   -4.9179  -13.3229 C   0  0  0  0  0  0  0  0  0  0  0  0
   20.6282   -5.1003  -14.2336 C   0  0  1  0  0  0  0  0  0  0  0  0
   20.5568   -3.9281  -15.1375 C   0  0  0  0  0  0  0  0  0  0  0  0
   20.8412   -4.0304  -16.3413 O   0  0  0  0  0  0  0  0  0  0  0  0
   20.1683   -2.7082  -14.6286 O   0  0  0  0  0  0  0  0  0  0  0  0
  2  1  1  6
  3  4  1  0
  3  2  1  0
  4  8  1  0
  4  5  2  0
  6  2  1  0
  7  6  2  0
 10  9  1  6
 10 12  1  0
 11 10  1  0
 12 14  1  0
 12 13  1  6
 13  6  1  0
 14 16  1  0
 15 14  2  0
 16 20  1  0
 16 17  1  0
 17 18  1  0
 19 18  1  0
 20 21  1  6
 20 19  1  0
 21 23  1  0
 22 21  2  0
M  END
$$$$
