DTP.pdb
     RDKit          3D

 23 23  0  0  1  0  0  0  0  0999 V2000
   16.1529  -11.8471  -17.2743 N   0  0  0  0  0  0  0  0  0  0  0  0
   16.4750  -10.4890  -16.8160 C   0  0  1  0  0  0  0  0  0  0  0  0
   15.7191  -10.2854  -15.5269 C   0  0  0  0  0  0  0  0  0  0  0  0
   14.3084   -9.9767  -15.8842 C   0  0  0  0  0  0  0  0  0  0  0  0
   13.3357  -10.1754  -15.1367 O   0  0  0  0  0  0  0  0  0  0  0  0
   17.9407  -10.3607  -16.6350 C   0  0  0  0  0  0  0  0  0  0  0  0
   18.5403  -11.3221  -16.0867 O   0  0  0  0  0  0  0  0  0  0  0  0
   14.0910   -9.4290  -17.1471 O   0  0  0  0  0  0  0  0  0  0  0  0
   20.5192   -9.5568  -19.3229 C   0  0  0  0  0  0  0  0  0  0  0  0
   20.6048   -8.5825  -18.2037 C   0  0  1  0  0  0  0  0  0  0  0  0
   19.6704   -7.5553  -18.5122 O   0  0  0  0  0  0  0  0  0  0  0  0
   20.1508   -9.1435  -16.8449 C   0  0  2  0  0  0  0  0  0  0  0  0
   18.6871   -9.2428  -17.0351 N   0  0  0  0  0  0  0  0  0  0  0  0
   20.4471   -8.2383  -15.7276 C   0  0  0  0  0  0  0  0  0  0  0  0
   19.5819   -7.3232  -15.4865 O   0  0  0  0  0  0  0  0  0  0  0  0
   21.5677   -8.2409  -14.8682 N   0  0  0  0  0  0  0  0  0  0  0  0
   22.6628   -9.2210  -14.9305 C   0  0  0  0  0  0  0  0  0  0  0  0
   22.9596   -9.4741  -13.4572 C   0  0  0  0  0  0  0  0  0  0  0  0
   22.8865   -8.0694  -12.9230 C   0  0  0  0  0  0  0  0  0  0  0  0
   21.8764   -7.3782  -13.7677 C   0  0  1  0  0  0  0  0  0  0  0  0
   22.4409   -6.0772  -14.1978 C   0  0  0  0  0  0  0  0  0  0  0  0
   22.7697   -5.8815  -15.3784 O   0  0  0  0  0  0  0  0  0  0  0  0
   22.6011   -5.0727  -13.2685 O   0  0  0  0  0  0  0  0  0  0  0  0
  2  1  1  1
  3  4  1  0
  3  2  1  0
  4  8  1  0
  4  5  2  0
  6  2  1  0
  7  6  2  0
 10  9  1  6
 10 12  1  0
 11 10  1  0
 12 14  1  0
 12 13  1  6
 13  6  1  0
 14 16  1  0
 15 14  2  0
 16 20  1  0
 16 17  1  0
 17 18  1  0
 19 18  1  0
 20 21  1  6
 20 19  1  0
 21 23  1  0
 22 21  2  0
M  END
$$$$
