DTP.pdb
     RDKit          3D

 23 23  0  0  1  0  0  0  0  0999 V2000
   18.4349  -12.3352  -15.7589 N   0  0  0  0  0  0  0  0  0  0  0  0
   18.5843  -10.9943  -16.3401 C   0  0  1  0  0  0  0  0  0  0  0  0
   17.2141  -10.3647  -16.3131 C   0  0  0  0  0  0  0  0  0  0  0  0
   16.3824  -11.0693  -17.3255 C   0  0  0  0  0  0  0  0  0  0  0  0
   15.4219  -11.8091  -17.0526 O   0  0  0  0  0  0  0  0  0  0  0  0
   19.5746  -10.2202  -15.5544 C   0  0  0  0  0  0  0  0  0  0  0  0
   19.4513  -10.2297  -14.3017 O   0  0  0  0  0  0  0  0  0  0  0  0
   16.7245  -10.8691  -18.6615 O   0  0  0  0  0  0  0  0  0  0  0  0
   23.2075  -10.7171  -15.2527 C   0  0  0  0  0  0  0  0  0  0  0  0
   22.9410   -9.3567  -15.7887 C   0  0  1  0  0  0  0  0  0  0  0  0
   22.7907   -9.5168  -17.1942 O   0  0  0  0  0  0  0  0  0  0  0  0
   21.6147   -8.7407  -15.3105 C   0  0  2  0  0  0  0  0  0  0  0  0
   20.6277   -9.4873  -16.1209 N   0  0  0  0  0  0  0  0  0  0  0  0
   21.5154   -7.3054  -15.6034 C   0  0  0  0  0  0  0  0  0  0  0  0
   21.0422   -6.9863  -16.7516 O   0  0  0  0  0  0  0  0  0  0  0  0
   21.8706   -6.2142  -14.7804 N   0  0  0  0  0  0  0  0  0  0  0  0
   22.3280   -6.3356  -13.3877 C   0  0  0  0  0  0  0  0  0  0  0  0
   21.6400   -5.1547  -12.7132 C   0  0  0  0  0  0  0  0  0  0  0  0
   21.8452   -4.0914  -13.7578 C   0  0  0  0  0  0  0  0  0  0  0  0
   21.8342   -4.8101  -15.0597 C   0  0  1  0  0  0  0  0  0  0  0  0
   22.9981   -4.3517  -15.8544 C   0  0  0  0  0  0  0  0  0  0  0  0
   22.9935   -3.2446  -16.4154 O   0  0  0  0  0  0  0  0  0  0  0  0
   24.0998   -5.1711  -15.9689 O   0  0  0  0  0  0  0  0  0  0  0  0
  2  1  1  1
  3  4  1  0
  3  2  1  0
  4  8  1  0
  4  5  2  0
  6  2  1  0
  7  6  2  0
 10  9  1  1
 10 12  1  0
 11 10  1  0
 12 14  1  0
 12 13  1  6
 13  6  1  0
 14 16  1  0
 15 14  2  0
 16 20  1  0
 16 17  1  0
 17 18  1  0
 19 18  1  0
 20 21  1  6
 20 19  1  0
 21 23  1  0
 22 21  2  0
M  END
$$$$
