REY.pdb
     RDKit          3D

 33 33  0  0  1  0  0  0  0  0999 V2000
   28.5263  -28.0652  -17.8153 N   0  0  0  0  0  0  0  0  0  0  0  0
   27.9077  -29.1361  -17.0764 C   0  0  0  0  0  0  0  0  0  0  0  0
   28.6125  -30.1234  -16.6774 N   0  0  0  0  0  0  0  0  0  0  0  0
   26.5281  -29.1176  -16.7875 N   0  0  0  0  0  0  0  0  0  0  0  0
   25.6359  -28.0048  -17.1537 C   0  0  0  0  0  0  0  0  0  0  0  0
   25.8342  -26.8063  -16.3056 C   0  0  0  0  0  0  0  0  0  0  0  0
   25.4776  -25.4838  -16.8773 C   0  0  0  0  0  0  0  0  0  0  0  0
   26.5738  -24.4898  -16.9788 C   0  0  2  0  0  0  0  0  0  0  0  0
   27.6531  -24.8613  -16.0816 N   0  0  0  0  0  0  0  0  0  0  0  0
   26.1073  -23.1039  -16.6652 C   0  0  0  0  0  0  0  0  0  0  0  0
   26.0792  -22.6817  -15.4692 O   0  0  0  0  0  0  0  0  0  0  0  0
   28.2859  -30.9363  -16.1415 N   0  0  0  0  0  0  0  0  0  0  0  0
   25.6746  -22.1813  -17.6410 C   0  0  1  0  0  0  0  0  0  0  0  0
   25.2429  -20.8329  -17.3671 C   0  0  0  0  0  0  0  0  0  0  0  0
   25.1402  -19.9729  -18.5857 C   0  0  0  0  0  0  0  0  0  0  0  0
   26.3733  -19.1032  -18.6884 C   0  0  0  0  0  0  0  0  0  0  0  0
   26.4099  -18.1133  -17.5681 O   0  0  0  0  0  0  0  0  0  0  0  0
   25.4526  -17.3758  -17.3086 C   0  0  0  0  0  0  0  0  0  0  0  0
   23.9549  -20.7866  -16.6401 O   0  0  0  0  0  0  0  0  0  0  0  0
   23.0068  -21.5825  -16.8707 O   0  0  0  0  0  0  0  0  0  0  0  0
   27.5729  -18.0515  -16.8198 O   0  0  0  0  0  0  0  0  0  0  0  0
   18.2594  -19.7095  -10.1048 C   0  0  0  0  0  0  0  0  0  0  0  0
   19.4042  -19.7060  -10.8938 C   0  0  0  0  0  0  0  0  0  0  0  0
   20.1269  -18.5573  -11.1060 C   0  0  0  0  0  0  0  0  0  0  0  0
   21.2549  -18.5750  -11.8878 C   0  0  0  0  0  0  0  0  0  0  0  0
   21.7305  -19.7381  -12.5053 C   0  0  0  0  0  0  0  0  0  0  0  0
   22.9336  -19.7136  -13.3573 C   0  0  2  0  0  0  0  0  0  0  0  0
   22.5674  -19.7327  -14.8167 N   0  0  0  0  0  0  0  0  0  0  0  0
   23.7809  -19.7990  -15.6359 C   0  0  0  0  0  0  0  0  0  0  0  0
   21.8466  -18.5062  -15.1676 O   0  0  0  0  0  0  0  0  0  0  0  0
   21.9740  -17.9603  -16.4283 C   0  0  0  0  0  0  0  0  0  0  0  0
   20.9777  -20.8795  -12.2712 C   0  0  0  0  0  0  0  0  0  0  0  0
   19.8450  -20.8645  -11.4864 O   0  0  0  0  0  0  0  0  0  0  0  0
  2  3  2  0
  2  1  1  0
  4  2  1  0
  5  4  1  0
  6  5  1  0
  7  6  1  0
  8  7  1  0
  8 10  1  0
  8  9  1  1
 10 12  1  0
 10 11  2  0
 12 13  1  0
 13 14  1  1
 14 15  1  0
 16 20  1  0
 16 15  1  0
 17 16  2  0
 18 28  1  0
 18 13  1  0
 19 18  2  0
 22 21  1  0
 23 22  2  0
 24 23  1  0
 25 31  1  0
 25 24  2  0
 27 26  1  1
 26 25  1  0
 27 29  1  0
 27 28  1  0
 29 30  1  0
 31 32  2  0
 32 22  1  0
 33 29  2  0
M  END
$$$$
