REY.pdb
     RDKit          3D

 33 33  0  0  1  0  0  0  0  0999 V2000
   21.1378  -15.9769  -20.8865 N   0  0  0  0  0  0  0  0  0  0  0  0
   22.2434  -15.8086  -21.7947 C   0  0  0  0  0  0  0  0  0  0  0  0
   22.6899  -16.8123  -22.4457 N   0  0  0  0  0  0  0  0  0  0  0  0
   22.8497  -14.5490  -21.9761 N   0  0  0  0  0  0  0  0  0  0  0  0
   22.5397  -13.3710  -21.1487 C   0  0  0  0  0  0  0  0  0  0  0  0
   22.6770  -13.6360  -19.6975 C   0  0  0  0  0  0  0  0  0  0  0  0
   22.4573  -12.5056  -18.7609 C   0  0  0  0  0  0  0  0  0  0  0  0
   23.4914  -11.4425  -18.7533 C   0  0  2  0  0  0  0  0  0  0  0  0
   24.7206  -11.9624  -18.1818 N   0  0  0  0  0  0  0  0  0  0  0  0
   23.0495  -10.2333  -17.9923 C   0  0  0  0  0  0  0  0  0  0  0  0
   22.9837  -10.2496  -16.7255 O   0  0  0  0  0  0  0  0  0  0  0  0
   23.4851  -16.8203  -23.0955 N   0  0  0  0  0  0  0  0  0  0  0  0
   22.6818   -9.0141  -18.5999 C   0  0  2  0  0  0  0  0  0  0  0  0
   22.2647   -7.8310  -17.8885 C   0  0  0  0  0  0  0  0  0  0  0  0
   22.0732   -6.6356  -18.7657 C   0  0  0  0  0  0  0  0  0  0  0  0
   21.8761   -5.4094  -17.9026 C   0  0  0  0  0  0  0  0  0  0  0  0
   21.6605   -4.1994  -18.7545 O   0  0  0  0  0  0  0  0  0  0  0  0
   21.6875   -4.2492  -19.9892 C   0  0  0  0  0  0  0  0  0  0  0  0
   21.0309   -8.0483  -17.1012 O   0  0  0  0  0  0  0  0  0  0  0  0
   20.0556   -8.7230  -17.5246 O   0  0  0  0  0  0  0  0  0  0  0  0
   21.4257   -3.0021  -18.1004 O   0  0  0  0  0  0  0  0  0  0  0  0
   14.9701  -10.0464  -11.4583 C   0  0  0  0  0  0  0  0  0  0  0  0
   16.1322   -9.7966  -12.1797 C   0  0  0  0  0  0  0  0  0  0  0  0
   16.1083   -9.6196  -13.5416 C   0  0  0  0  0  0  0  0  0  0  0  0
   17.2666   -9.3732  -14.2353 C   0  0  0  0  0  0  0  0  0  0  0  0
   18.5184   -9.2885  -13.6139 C   0  0  0  0  0  0  0  0  0  0  0  0
   19.7446   -9.0452  -14.3955 C   0  0  2  0  0  0  0  0  0  0  0  0
   19.7639   -7.6493  -14.9573 N   0  0  0  0  0  0  0  0  0  0  0  0
   20.9433   -7.4692  -15.8085 C   0  0  0  0  0  0  0  0  0  0  0  0
   19.8344   -6.6724  -13.8675 O   0  0  0  0  0  0  0  0  0  0  0  0
   18.6817   -6.2395  -13.2450 C   0  0  0  0  0  0  0  0  0  0  0  0
   18.5073   -9.4723  -12.2390 C   0  0  0  0  0  0  0  0  0  0  0  0
   17.3456   -9.7196  -11.5401 O   0  0  0  0  0  0  0  0  0  0  0  0
  2  3  2  0
  2  1  1  0
  4  2  1  0
  5  4  1  0
  6  5  1  0
  7  6  1  0
  8  7  1  0
  8 10  1  0
  8  9  1  1
 10 12  1  0
 10 11  2  0
 12 13  1  0
 13 14  1  6
 14 15  1  0
 16 20  1  0
 16 15  1  0
 17 16  2  0
 18 28  1  0
 18 13  1  0
 19 18  2  0
 22 21  1  0
 23 22  2  0
 24 23  1  0
 25 31  1  0
 25 24  2  0
 27 26  1  6
 26 25  1  0
 27 29  1  0
 27 28  1  0
 29 30  1  0
 31 32  2  0
 32 22  1  0
 33 29  2  0
M  END
$$$$
