REY.pdb
     RDKit          3D

 33 33  0  0  1  0  0  0  0  0999 V2000
   28.2320  -22.3193  -16.2185 N   0  0  0  0  0  0  0  0  0  0  0  0
   28.2494  -22.5418  -17.6418 C   0  0  0  0  0  0  0  0  0  0  0  0
   27.4986  -23.4385  -18.1545 N   0  0  0  0  0  0  0  0  0  0  0  0
   29.0892  -21.7865  -18.4852 N   0  0  0  0  0  0  0  0  0  0  0  0
   28.7034  -20.4896  -19.0664 C   0  0  0  0  0  0  0  0  0  0  0  0
   28.7488  -19.3828  -18.0825 C   0  0  0  0  0  0  0  0  0  0  0  0
   27.4727  -18.9594  -17.4536 C   0  0  0  0  0  0  0  0  0  0  0  0
   26.4043  -18.4965  -18.3723 C   0  0  2  0  0  0  0  0  0  0  0  0
   26.7935  -17.2346  -18.9758 N   0  0  0  0  0  0  0  0  0  0  0  0
   25.0906  -18.3418  -17.6746 C   0  0  0  0  0  0  0  0  0  0  0  0
   24.9921  -17.6442  -16.6195 O   0  0  0  0  0  0  0  0  0  0  0  0
   27.4682  -23.7265  -19.1398 N   0  0  0  0  0  0  0  0  0  0  0  0
   23.8911  -18.9383  -18.1175 C   0  0  2  0  0  0  0  0  0  0  0  0
   22.6552  -18.9554  -17.3746 C   0  0  0  0  0  0  0  0  0  0  0  0
   21.4810  -19.4326  -18.1677 C   0  0  0  0  0  0  0  0  0  0  0  0
   20.2180  -19.2304  -17.3607 C   0  0  0  0  0  0  0  0  0  0  0  0
   19.0244  -19.6958  -18.1321 O   0  0  0  0  0  0  0  0  0  0  0  0
   18.3572  -18.9320  -18.8383 C   0  0  0  0  0  0  0  0  0  0  0  0
   22.7505  -19.7559  -16.1338 O   0  0  0  0  0  0  0  0  0  0  0  0
   23.2885  -20.8936  -16.0898 O   0  0  0  0  0  0  0  0  0  0  0  0
   18.6882  -21.0345  -18.0253 O   0  0  0  0  0  0  0  0  0  0  0  0
   23.3179  -21.2646   -7.4776 C   0  0  0  0  0  0  0  0  0  0  0  0
   23.1366  -20.6620   -8.7175 C   0  0  0  0  0  0  0  0  0  0  0  0
   21.9093  -20.1899   -9.1142 C   0  0  0  0  0  0  0  0  0  0  0  0
   21.7513  -19.5974  -10.3421 C   0  0  0  0  0  0  0  0  0  0  0  0
   22.8066  -19.4398  -11.2486 C   0  0  0  0  0  0  0  0  0  0  0  0
   22.5937  -18.8187  -12.5687 C   0  0  2  0  0  0  0  0  0  0  0  0
   22.4083  -19.8619  -13.6374 N   0  0  0  0  0  0  0  0  0  0  0  0
   22.2104  -19.2156  -14.9379 C   0  0  0  0  0  0  0  0  0  0  0  0
   21.2227  -20.6719  -13.3454 O   0  0  0  0  0  0  0  0  0  0  0  0
   21.3413  -21.8484  -12.6344 C   0  0  0  0  0  0  0  0  0  0  0  0
   24.0315  -19.9275  -10.8173 C   0  0  0  0  0  0  0  0  0  0  0  0
   24.1929  -20.5225   -9.5849 O   0  0  0  0  0  0  0  0  0  0  0  0
  2  3  2  0
  2  1  1  0
  4  2  1  0
  5  4  1  0
  6  5  1  0
  7  6  1  0
  8  7  1  0
  8 10  1  0
  8  9  1  1
 10 12  1  0
 10 11  2  0
 12 13  1  0
 13 14  1  6
 14 15  1  0
 16 20  1  0
 16 15  1  0
 17 16  2  0
 18 28  1  0
 18 13  1  0
 19 18  2  0
 22 21  1  0
 23 22  2  0
 24 23  1  0
 25 31  1  0
 25 24  2  0
 27 26  1  6
 26 25  1  0
 27 29  1  0
 27 28  1  0
 29 30  1  0
 31 32  2  0
 32 22  1  0
 33 29  2  0
M  END
$$$$
