REY.pdb
     RDKit          3D

 33 33  0  0  1  0  0  0  0  0999 V2000
   28.4795  -26.4431  -18.9541 N   0  0  0  0  0  0  0  0  0  0  0  0
   27.4453  -27.4432  -18.8780 C   0  0  0  0  0  0  0  0  0  0  0  0
   27.7579  -28.6693  -18.7065 N   0  0  0  0  0  0  0  0  0  0  0  0
   26.0851  -27.0924  -18.9951 N   0  0  0  0  0  0  0  0  0  0  0  0
   25.4239  -26.1012  -18.1297 C   0  0  0  0  0  0  0  0  0  0  0  0
   26.3707  -25.1165  -17.5564 C   0  0  0  0  0  0  0  0  0  0  0  0
   26.5008  -25.0563  -16.0790 C   0  0  0  0  0  0  0  0  0  0  0  0
   25.3496  -24.4877  -15.3364 C   0  0  2  0  0  0  0  0  0  0  0  0
   24.2345  -24.2883  -16.2444 N   0  0  0  0  0  0  0  0  0  0  0  0
   25.6953  -23.1966  -14.6655 C   0  0  0  0  0  0  0  0  0  0  0  0
   26.6427  -22.4719  -15.0976 O   0  0  0  0  0  0  0  0  0  0  0  0
   27.1219  -29.4755  -18.7269 N   0  0  0  0  0  0  0  0  0  0  0  0
   25.0186  -22.6936  -13.5343 C   0  0  1  0  0  0  0  0  0  0  0  0
   25.3309  -21.4517  -12.8711 C   0  0  0  0  0  0  0  0  0  0  0  0
   24.2964  -20.3892  -13.0614 C   0  0  0  0  0  0  0  0  0  0  0  0
   23.2690  -20.8665  -14.0635 C   0  0  0  0  0  0  0  0  0  0  0  0
   22.2291  -19.8154  -14.2872 O   0  0  0  0  0  0  0  0  0  0  0  0
   21.6346  -19.2668  -13.3527 C   0  0  0  0  0  0  0  0  0  0  0  0
   25.5733  -21.6280  -11.4221 O   0  0  0  0  0  0  0  0  0  0  0  0
   24.9518  -22.4673  -10.7186 O   0  0  0  0  0  0  0  0  0  0  0  0
   21.9517  -19.4729  -15.5995 O   0  0  0  0  0  0  0  0  0  0  0  0
   28.4885  -19.3688   -3.3407 C   0  0  0  0  0  0  0  0  0  0  0  0
   28.3431  -19.5030   -4.7169 C   0  0  0  0  0  0  0  0  0  0  0  0
   29.3554  -19.9998   -5.5012 C   0  0  0  0  0  0  0  0  0  0  0  0
   29.1917  -20.1250   -6.8581 C   0  0  0  0  0  0  0  0  0  0  0  0
   28.0096  -19.7629   -7.5152 C   0  0  0  0  0  0  0  0  0  0  0  0
   27.8788  -19.8903   -8.9782 C   0  0  1  0  0  0  0  0  0  0  0  0
   26.7549  -20.8214   -9.3451 N   0  0  0  0  0  0  0  0  0  0  0  0
   26.5525  -20.8131  -10.7967 C   0  0  0  0  0  0  0  0  0  0  0  0
   25.5113  -20.3795   -8.7085 O   0  0  0  0  0  0  0  0  0  0  0  0
   25.0717  -20.9812   -7.5473 C   0  0  0  0  0  0  0  0  0  0  0  0
   27.0082  -19.2648   -6.6946 C   0  0  0  0  0  0  0  0  0  0  0  0
   27.1700  -19.1382   -5.3319 O   0  0  0  0  0  0  0  0  0  0  0  0
  2  3  2  0
  2  1  1  0
  4  2  1  0
  5  4  1  0
  6  5  1  0
  7  6  1  0
  8  7  1  0
  8 10  1  0
  8  9  1  6
 10 12  1  0
 10 11  2  0
 12 13  1  0
 13 14  1  6
 14 15  1  0
 16 20  1  0
 16 15  1  0
 17 16  2  0
 18 28  1  0
 18 13  1  0
 19 18  2  0
 22 21  1  0
 23 22  2  0
 24 23  1  0
 25 31  1  0
 25 24  2  0
 27 26  1  6
 26 25  1  0
 27 29  1  0
 27 28  1  0
 29 30  1  0
 31 32  2  0
 32 22  1  0
 33 29  2  0
M  END
$$$$
