REY.pdb
     RDKit          3D

 33 33  0  0  1  0  0  0  0  0999 V2000
   26.9896  -24.8633  -15.7805 N   0  0  0  0  0  0  0  0  0  0  0  0
   27.4696  -26.0124  -16.5047 C   0  0  0  0  0  0  0  0  0  0  0  0
   26.7321  -27.0491  -16.6135 N   0  0  0  0  0  0  0  0  0  0  0  0
   28.7494  -26.0165  -17.0958 N   0  0  0  0  0  0  0  0  0  0  0  0
   29.6974  -24.8948  -16.9893 C   0  0  0  0  0  0  0  0  0  0  0  0
   29.3810  -23.7849  -17.9183 C   0  0  0  0  0  0  0  0  0  0  0  0
   28.5529  -22.6646  -17.4060 C   0  0  0  0  0  0  0  0  0  0  0  0
   28.3608  -21.5124  -18.3199 C   0  0  2  0  0  0  0  0  0  0  0  0
   29.6149  -20.7969  -18.4723 N   0  0  0  0  0  0  0  0  0  0  0  0
   27.2994  -20.5785  -17.8322 C   0  0  0  0  0  0  0  0  0  0  0  0
   27.4742  -19.8848  -16.7844 O   0  0  0  0  0  0  0  0  0  0  0  0
   26.9864  -27.9425  -17.0517 N   0  0  0  0  0  0  0  0  0  0  0  0
   26.0571  -20.3967  -18.4758 C   0  0  1  0  0  0  0  0  0  0  0  0
   25.0177  -19.5042  -18.0254 C   0  0  0  0  0  0  0  0  0  0  0  0
   24.3770  -18.7202  -19.1254 C   0  0  0  0  0  0  0  0  0  0  0  0
   25.3668  -17.7093  -19.6600 C   0  0  0  0  0  0  0  0  0  0  0  0
   25.4618  -16.5337  -18.7407 O   0  0  0  0  0  0  0  0  0  0  0  0
   24.4622  -16.0028  -18.2440 C   0  0  0  0  0  0  0  0  0  0  0  0
   23.9621  -20.2036  -17.2600 O   0  0  0  0  0  0  0  0  0  0  0  0
   23.5341  -21.3474  -17.5671 O   0  0  0  0  0  0  0  0  0  0  0  0
   26.7297  -16.0535  -18.4610 O   0  0  0  0  0  0  0  0  0  0  0  0
   17.5886  -21.3153  -11.1957 C   0  0  0  0  0  0  0  0  0  0  0  0
   18.6750  -20.8316  -11.9161 C   0  0  0  0  0  0  0  0  0  0  0  0
   19.8689  -21.5095  -11.9576 C   0  0  0  0  0  0  0  0  0  0  0  0
   20.9293  -21.0154  -12.6753 C   0  0  0  0  0  0  0  0  0  0  0  0
   20.8639  -19.8160  -13.3947 C   0  0  0  0  0  0  0  0  0  0  0  0
   22.0317  -19.3048  -14.1356 C   0  0  1  0  0  0  0  0  0  0  0  0
   22.3331  -20.1621  -15.3351 N   0  0  0  0  0  0  0  0  0  0  0  0
   23.4066  -19.5547  -16.1267 C   0  0  0  0  0  0  0  0  0  0  0  0
   21.1441  -20.2691  -16.1848 O   0  0  0  0  0  0  0  0  0  0  0  0
   20.4082  -21.4359  -16.2086 C   0  0  0  0  0  0  0  0  0  0  0  0
   19.6452  -19.1566  -13.3314 C   0  0  0  0  0  0  0  0  0  0  0  0
   18.5789  -19.6507  -12.6118 O   0  0  0  0  0  0  0  0  0  0  0  0
  2  3  2  0
  2  1  1  0
  4  2  1  0
  5  4  1  0
  6  5  1  0
  7  6  1  0
  8  7  1  0
  8 10  1  0
  8  9  1  1
 10 12  1  0
 10 11  2  0
 12 13  1  0
 13 14  1  6
 14 15  1  0
 16 20  1  0
 16 15  1  0
 17 16  2  0
 18 28  1  0
 18 13  1  0
 19 18  2  0
 22 21  1  0
 23 22  2  0
 24 23  1  0
 25 31  1  0
 25 24  2  0
 27 26  1  1
 26 25  1  0
 27 29  1  0
 27 28  1  0
 29 30  1  0
 31 32  2  0
 32 22  1  0
 33 29  2  0
M  END
$$$$
