REY.pdb
     RDKit          3D

 33 33  0  0  1  0  0  0  0  0999 V2000
   18.6667  -26.3931  -14.1459 N   0  0  0  0  0  0  0  0  0  0  0  0
   18.3503  -25.2767  -14.9997 C   0  0  0  0  0  0  0  0  0  0  0  0
   17.1469  -25.0912  -15.3843 N   0  0  0  0  0  0  0  0  0  0  0  0
   19.3520  -24.3811  -15.4261 N   0  0  0  0  0  0  0  0  0  0  0  0
   20.7935  -24.6594  -15.3116 C   0  0  0  0  0  0  0  0  0  0  0  0
   21.3881  -24.1092  -14.0711 C   0  0  0  0  0  0  0  0  0  0  0  0
   22.7804  -23.5989  -14.1349 C   0  0  0  0  0  0  0  0  0  0  0  0
   23.6713  -24.2314  -15.1381 C   0  0  2  0  0  0  0  0  0  0  0  0
   24.1721  -25.4915  -14.6194 N   0  0  0  0  0  0  0  0  0  0  0  0
   24.8164  -23.3450  -15.5116 C   0  0  0  0  0  0  0  0  0  0  0  0
   25.8700  -23.3106  -14.8056 O   0  0  0  0  0  0  0  0  0  0  0  0
   16.8070  -24.3486  -16.0070 N   0  0  0  0  0  0  0  0  0  0  0  0
   24.8205  -22.5020  -16.6429 C   0  0  2  0  0  0  0  0  0  0  0  0
   25.9106  -21.6381  -17.0238 C   0  0  0  0  0  0  0  0  0  0  0  0
   26.0296  -21.4316  -18.4997 C   0  0  0  0  0  0  0  0  0  0  0  0
   27.3139  -20.6907  -18.7983 C   0  0  0  0  0  0  0  0  0  0  0  0
   27.5173  -20.5709  -20.2749 O   0  0  0  0  0  0  0  0  0  0  0  0
   26.6599  -20.9295  -21.0897 C   0  0  0  0  0  0  0  0  0  0  0  0
   25.8455  -20.3170  -16.3605 O   0  0  0  0  0  0  0  0  0  0  0  0
   24.7679  -19.6904  -16.1816 O   0  0  0  0  0  0  0  0  0  0  0  0
   28.7196  -20.0351  -20.7038 O   0  0  0  0  0  0  0  0  0  0  0  0
   25.0700  -21.8474  -10.1803 C   0  0  0  0  0  0  0  0  0  0  0  0
   25.7517  -21.0446  -11.0880 C   0  0  0  0  0  0  0  0  0  0  0  0
   25.3529  -19.7563  -11.3485 C   0  0  0  0  0  0  0  0  0  0  0  0
   26.0400  -18.9797  -12.2477 C   0  0  0  0  0  0  0  0  0  0  0  0
   27.1656  -19.4400  -12.9414 C   0  0  0  0  0  0  0  0  0  0  0  0
   27.8645  -18.5840  -13.9175 C   0  0  2  0  0  0  0  0  0  0  0  0
   27.0720  -18.4501  -15.1897 N   0  0  0  0  0  0  0  0  0  0  0  0
   27.0541  -19.7294  -15.9046 C   0  0  0  0  0  0  0  0  0  0  0  0
   27.6914  -17.4487  -16.0618 O   0  0  0  0  0  0  0  0  0  0  0  0
   27.6581  -16.1123  -15.7206 C   0  0  0  0  0  0  0  0  0  0  0  0
   27.5412  -20.7444  -12.6557 C   0  0  0  0  0  0  0  0  0  0  0  0
   26.8532  -21.5262  -11.7531 O   0  0  0  0  0  0  0  0  0  0  0  0
  2  3  2  0
  2  1  1  0
  4  2  1  0
  5  4  1  0
  6  5  1  0
  7  6  1  0
  8  7  1  0
  8 10  1  0
  8  9  1  1
 10 12  1  0
 10 11  2  0
 12 13  1  0
 13 14  1  6
 14 15  1  0
 16 20  1  0
 16 15  1  0
 17 16  2  0
 18 28  1  0
 18 13  1  0
 19 18  2  0
 22 21  1  0
 23 22  2  0
 24 23  1  0
 25 31  1  0
 25 24  2  0
 27 26  1  1
 26 25  1  0
 27 29  1  0
 27 28  1  0
 29 30  1  0
 31 32  2  0
 32 22  1  0
 33 29  2  0
M  END
$$$$
