REY.pdb
     RDKit          3D

 33 33  0  0  1  0  0  0  0  0999 V2000
   30.5962  -22.6426   -8.1286 N   0  0  0  0  0  0  0  0  0  0  0  0
   31.3803  -22.5940   -9.3362 C   0  0  0  0  0  0  0  0  0  0  0  0
   32.4675  -23.2590   -9.4157 N   0  0  0  0  0  0  0  0  0  0  0  0
   30.9699  -21.8168  -10.4383 N   0  0  0  0  0  0  0  0  0  0  0  0
   29.6203  -21.2427  -10.5705 C   0  0  0  0  0  0  0  0  0  0  0  0
   28.6096  -22.2416  -10.9900 C   0  0  0  0  0  0  0  0  0  0  0  0
   27.6721  -21.8667  -12.0780 C   0  0  0  0  0  0  0  0  0  0  0  0
   26.3968  -21.2330  -11.6630 C   0  0  2  0  0  0  0  0  0  0  0  0
   25.7600  -22.0436  -10.6406 N   0  0  0  0  0  0  0  0  0  0  0  0
   25.4624  -21.0426  -12.8150 C   0  0  0  0  0  0  0  0  0  0  0  0
   25.8672  -21.1742  -14.0101 O   0  0  0  0  0  0  0  0  0  0  0  0
   33.1096  -23.2958  -10.2164 N   0  0  0  0  0  0  0  0  0  0  0  0
   24.0980  -20.7125  -12.6731 C   0  0  1  0  0  0  0  0  0  0  0  0
   23.1667  -20.5675  -13.7646 C   0  0  0  0  0  0  0  0  0  0  0  0
   21.8821  -21.3055  -13.5639 C   0  0  0  0  0  0  0  0  0  0  0  0
   21.2775  -20.9038  -12.2371 C   0  0  0  0  0  0  0  0  0  0  0  0
   20.0706  -21.7350  -11.9393 O   0  0  0  0  0  0  0  0  0  0  0  0
   19.3588  -21.5328  -10.9493 C   0  0  0  0  0  0  0  0  0  0  0  0
   22.8618  -19.1512  -14.0654 O   0  0  0  0  0  0  0  0  0  0  0  0
   22.8229  -18.2542  -13.1824 O   0  0  0  0  0  0  0  0  0  0  0  0
   19.7741  -22.7556  -12.8264 O   0  0  0  0  0  0  0  0  0  0  0  0
   22.5602  -11.4686  -18.1407 C   0  0  0  0  0  0  0  0  0  0  0  0
   22.8172  -12.7633  -17.7038 C   0  0  0  0  0  0  0  0  0  0  0  0
   22.6519  -13.8469  -18.5315 C   0  0  0  0  0  0  0  0  0  0  0  0
   22.9117  -15.1171  -18.0811 C   0  0  0  0  0  0  0  0  0  0  0  0
   23.3518  -15.3840  -16.7790 C   0  0  0  0  0  0  0  0  0  0  0  0
   23.5987  -16.7645  -16.3238 C   0  0  1  0  0  0  0  0  0  0  0  0
   22.3379  -17.3993  -15.8024 N   0  0  0  0  0  0  0  0  0  0  0  0
   22.6013  -18.7872  -15.4122 C   0  0  0  0  0  0  0  0  0  0  0  0
   21.3118  -17.4065  -16.8485 O   0  0  0  0  0  0  0  0  0  0  0  0
   20.4142  -16.3637  -16.9504 C   0  0  0  0  0  0  0  0  0  0  0  0
   23.5079  -14.2684  -15.9696 C   0  0  0  0  0  0  0  0  0  0  0  0
   23.2479  -12.9920  -16.4194 O   0  0  0  0  0  0  0  0  0  0  0  0
  2  3  2  0
  2  1  1  0
  4  2  1  0
  5  4  1  0
  6  5  1  0
  7  6  1  0
  8  7  1  0
  8 10  1  0
  8  9  1  1
 10 12  1  0
 10 11  2  0
 12 13  1  0
 13 14  1  6
 14 15  1  0
 16 20  1  0
 16 15  1  0
 17 16  2  0
 18 28  1  0
 18 13  1  0
 19 18  2  0
 22 21  1  0
 23 22  2  0
 24 23  1  0
 25 31  1  0
 25 24  2  0
 27 26  1  1
 26 25  1  0
 27 29  1  0
 27 28  1  0
 29 30  1  0
 31 32  2  0
 32 22  1  0
 33 29  2  0
M  END
$$$$
