REY.pdb
     RDKit          3D

 33 33  0  0  1  0  0  0  0  0999 V2000
   26.3424  -24.5807  -16.6918 N   0  0  0  0  0  0  0  0  0  0  0  0
   26.7992  -25.3092  -17.8477 C   0  0  0  0  0  0  0  0  0  0  0  0
   26.7792  -26.5859  -17.8436 N   0  0  0  0  0  0  0  0  0  0  0  0
   27.2762  -24.6347  -18.9899 N   0  0  0  0  0  0  0  0  0  0  0  0
   27.2740  -23.1687  -19.1283 C   0  0  0  0  0  0  0  0  0  0  0  0
   25.9115  -22.5888  -19.0784 C   0  0  0  0  0  0  0  0  0  0  0  0
   25.2159  -22.3372  -20.3652 C   0  0  0  0  0  0  0  0  0  0  0  0
   24.8329  -20.9321  -20.6463 C   0  0  2  0  0  0  0  0  0  0  0  0
   25.9763  -20.2123  -21.1775 N   0  0  0  0  0  0  0  0  0  0  0  0
   24.3157  -20.2356  -19.4281 C   0  0  0  0  0  0  0  0  0  0  0  0
   24.9571  -19.2729  -18.9072 O   0  0  0  0  0  0  0  0  0  0  0  0
   27.1299  -27.2096  -18.5803 N   0  0  0  0  0  0  0  0  0  0  0  0
   23.1111  -20.5794  -18.7789 C   0  0  2  0  0  0  0  0  0  0  0  0
   22.5419  -19.8637  -17.6637 C   0  0  0  0  0  0  0  0  0  0  0  0
   21.0677  -19.6428  -17.7776 C   0  0  0  0  0  0  0  0  0  0  0  0
   20.7987  -18.6117  -18.8508 C   0  0  0  0  0  0  0  0  0  0  0  0
   19.4665  -17.9676  -18.6350 O   0  0  0  0  0  0  0  0  0  0  0  0
   19.0250  -17.0964  -19.3924 C   0  0  0  0  0  0  0  0  0  0  0  0
   22.8285  -20.5149  -16.3663 O   0  0  0  0  0  0  0  0  0  0  0  0
   22.8681  -21.7649  -16.2189 O   0  0  0  0  0  0  0  0  0  0  0  0
   18.7333  -18.3889  -17.5389 O   0  0  0  0  0  0  0  0  0  0  0  0
   25.3960  -21.1474   -7.8946 C   0  0  0  0  0  0  0  0  0  0  0  0
   25.0844  -20.6788   -9.1660 C   0  0  0  0  0  0  0  0  0  0  0  0
   26.0139  -20.6726  -10.1772 C   0  0  0  0  0  0  0  0  0  0  0  0
   25.6862  -20.2064  -11.4257 C   0  0  0  0  0  0  0  0  0  0  0  0
   24.4126  -19.7181  -11.7418 C   0  0  0  0  0  0  0  0  0  0  0  0
   24.1041  -19.2038  -13.0887 C   0  0  1  0  0  0  0  0  0  0  0  0
   23.4323  -20.2538  -13.9316 N   0  0  0  0  0  0  0  0  0  0  0  0
   23.0702  -19.6918  -15.2358 C   0  0  0  0  0  0  0  0  0  0  0  0
   22.2047  -20.7119  -13.2755 O   0  0  0  0  0  0  0  0  0  0  0  0
   22.2216  -21.8336  -12.4723 C   0  0  0  0  0  0  0  0  0  0  0  0
   23.4984  -19.7378  -10.6987 C   0  0  0  0  0  0  0  0  0  0  0  0
   23.8249  -20.2057   -9.4442 O   0  0  0  0  0  0  0  0  0  0  0  0
  2  3  2  0
  2  1  1  0
  4  2  1  0
  5  4  1  0
  6  5  1  0
  7  6  1  0
  8  7  1  0
  8 10  1  0
  8  9  1  1
 10 12  1  0
 10 11  2  0
 12 13  1  0
 13 14  1  6
 14 15  1  0
 16 20  1  0
 16 15  1  0
 17 16  2  0
 18 28  1  0
 18 13  1  0
 19 18  2  0
 22 21  1  0
 23 22  2  0
 24 23  1  0
 25 31  1  0
 25 24  2  0
 27 26  1  6
 26 25  1  0
 27 29  1  0
 27 28  1  0
 29 30  1  0
 31 32  2  0
 32 22  1  0
 33 29  2  0
M  END
$$$$
