CQN.pdb
     RDKit          3D

 24 23  0  0  1  0  0  0  0  0999 V2000
    6.0932  -20.6275   22.5730 N   0  0  0  0  0  0  0  0  0  0  0  0
    5.8800  -19.2363   22.9327 C   0  0  1  0  0  0  0  0  0  0  0  0
    5.9403  -19.0683   24.4373 C   0  0  0  0  0  0  0  0  0  0  0  0
    7.5427  -19.6468   25.0715 S   0  0  0  0  0  0  0  0  0  0  0  0
    6.9210  -18.4293   22.2579 C   0  0  0  0  0  0  0  0  0  0  0  0
    8.0067  -18.9438   21.8526 O   0  0  0  0  0  0  0  0  0  0  0  0
    6.4911  -12.9566   19.1623 N   0  0  0  0  0  0  0  0  0  0  0  0
    7.8673  -13.2990   19.0398 C   0  0  0  0  0  0  0  0  0  0  0  0
    8.5908  -12.6755   18.2481 O   0  0  0  0  0  0  0  0  0  0  0  0
    8.3839  -14.4012   19.8754 C   0  0  0  0  0  0  0  0  0  0  0  0
    7.2902  -15.0633   20.6869 C   0  0  0  0  0  0  0  0  0  0  0  0
    7.8603  -16.2521   21.4234 C   0  0  2  0  0  0  0  0  0  0  0  0
    6.7864  -17.0238   22.0130 N   0  0  0  0  0  0  0  0  0  0  0  0
    8.8774  -15.8630   22.4219 C   0  0  0  0  0  0  0  0  0  0  0  0
    8.4877  -15.4964   23.5616 O   0  0  0  0  0  0  0  0  0  0  0  0
   12.6483  -19.0338   24.9165 N   0  0  0  0  0  0  0  0  0  0  0  0
   11.9872  -17.7389   24.9196 C   0  0  0  0  0  0  0  0  0  0  0  0
   12.2884  -16.9035   25.7955 O   0  0  0  0  0  0  0  0  0  0  0  0
   10.9811  -17.4282   23.9026 C   0  0  0  0  0  0  0  0  0  0  0  0
   11.2750  -16.1420   23.1994 C   0  0  2  0  0  0  0  0  0  0  0  0
   10.2655  -15.8787   22.1706 N   0  0  0  0  0  0  0  0  0  0  0  0
   12.6249  -16.0579   22.6348 C   0  0  0  0  0  0  0  0  0  0  0  0
   12.7670  -16.2246   21.3658 O   0  0  0  0  0  0  0  0  0  0  0  0
   13.7910  -15.8163   23.3099 O   0  0  0  0  0  0  0  0  0  0  0  0
  2  1  1  1
  2  3  1  0
  4  3  1  0
  5  2  1  0
  6  5  2  0
  7  8  1  0
  8  9  2  0
 10  8  1  0
 10 11  1  0
 12 11  1  1
 12 13  1  0
 13  5  1  0
 14 21  1  0
 14 12  1  0
 15 14  2  0
 16 17  1  0
 17 19  1  0
 18 17  2  0
 20 19  1  6
 20 22  1  0
 20 21  1  0
 22 24  1  0
 23 22  2  0
M  END
$$$$
