CQN.pdb
     RDKit          3D

 24 23  0  0  1  0  0  0  0  0999 V2000
    8.2241  -13.3864   19.6408 N   0  0  0  0  0  0  0  0  0  0  0  0
    8.2772  -14.4969   18.7058 C   0  0  1  0  0  0  0  0  0  0  0  0
    7.8899  -14.0321   17.3167 C   0  0  0  0  0  0  0  0  0  0  0  0
    7.0219  -12.4374   17.4058 S   0  0  0  0  0  0  0  0  0  0  0  0
    9.6529  -15.0422   18.7279 C   0  0  0  0  0  0  0  0  0  0  0  0
    9.9757  -16.0677   18.0559 O   0  0  0  0  0  0  0  0  0  0  0  0
   15.0187  -15.1307   16.5752 N   0  0  0  0  0  0  0  0  0  0  0  0
   15.2575  -14.4561   17.8057 C   0  0  0  0  0  0  0  0  0  0  0  0
   16.1583  -13.6063   17.8793 O   0  0  0  0  0  0  0  0  0  0  0  0
   14.4077  -14.8028   18.9621 C   0  0  0  0  0  0  0  0  0  0  0  0
   13.0312  -14.1788   18.8664 C   0  0  0  0  0  0  0  0  0  0  0  0
   12.0261  -15.0702   19.5562 C   0  0  2  0  0  0  0  0  0  0  0  0
   10.7129  -14.4630   19.4991 N   0  0  0  0  0  0  0  0  0  0  0  0
   12.4235  -15.4045   20.9394 C   0  0  0  0  0  0  0  0  0  0  0  0
   12.7588  -14.4663   21.7090 O   0  0  0  0  0  0  0  0  0  0  0  0
    9.7620  -18.5527   22.4772 N   0  0  0  0  0  0  0  0  0  0  0  0
   10.6786  -17.9046   23.4013 C   0  0  0  0  0  0  0  0  0  0  0  0
   10.2295  -17.0949   24.2370 O   0  0  0  0  0  0  0  0  0  0  0  0
   12.1101  -18.2054   23.3440 C   0  0  0  0  0  0  0  0  0  0  0  0
   12.9013  -17.0592   22.8007 C   0  0  2  0  0  0  0  0  0  0  0  0
   12.4488  -16.7197   21.4491 N   0  0  0  0  0  0  0  0  0  0  0  0
   14.3527  -17.2621   22.8258 C   0  0  0  0  0  0  0  0  0  0  0  0
   14.9305  -17.3949   23.9689 O   0  0  0  0  0  0  0  0  0  0  0  0
   15.1977  -17.3304   21.7511 O   0  0  0  0  0  0  0  0  0  0  0  0
  2  1  1  1
  2  3  1  0
  4  3  1  0
  5  2  1  0
  6  5  2  0
  7  8  1  0
  8  9  2  0
 10  8  1  0
 10 11  1  0
 12 11  1  1
 12 13  1  0
 13  5  1  0
 14 21  1  0
 14 12  1  0
 15 14  2  0
 16 17  1  0
 17 19  1  0
 18 17  2  0
 20 19  1  6
 20 22  1  0
 20 21  1  0
 22 24  1  0
 23 22  2  0
M  END
$$$$
