CQN.pdb
     RDKit          3D

 24 23  0  0  1  0  0  0  0  0999 V2000
    8.2887  -14.7235   16.6478 N   0  0  0  0  0  0  0  0  0  0  0  0
    8.7935  -14.0782   17.8473 C   0  0  1  0  0  0  0  0  0  0  0  0
    7.7936  -14.2152   18.9773 C   0  0  0  0  0  0  0  0  0  0  0  0
    7.9817  -12.8426   20.1542 S   0  0  0  0  0  0  0  0  0  0  0  0
   10.0866  -14.7105   18.1919 C   0  0  0  0  0  0  0  0  0  0  0  0
   10.2882  -15.9513   18.0272 O   0  0  0  0  0  0  0  0  0  0  0  0
   15.8506  -16.6496   18.3354 N   0  0  0  0  0  0  0  0  0  0  0  0
   15.4294  -15.3215   18.0442 C   0  0  0  0  0  0  0  0  0  0  0  0
   15.5274  -14.8820   16.8882 O   0  0  0  0  0  0  0  0  0  0  0  0
   14.8841  -14.5094   19.1501 C   0  0  0  0  0  0  0  0  0  0  0  0
   13.6086  -13.7937   18.7575 C   0  0  0  0  0  0  0  0  0  0  0  0
   12.4191  -14.6477   19.1270 C   0  0  2  0  0  0  0  0  0  0  0  0
   11.1962  -13.9812   18.7309 N   0  0  0  0  0  0  0  0  0  0  0  0
   12.4117  -15.0171   20.5574 C   0  0  0  0  0  0  0  0  0  0  0  0
   11.9619  -14.1850   21.3882 O   0  0  0  0  0  0  0  0  0  0  0  0
   11.3271  -18.7094   24.8050 N   0  0  0  0  0  0  0  0  0  0  0  0
   12.5332  -18.4859   24.0244 C   0  0  0  0  0  0  0  0  0  0  0  0
   13.6459  -18.6771   24.5547 O   0  0  0  0  0  0  0  0  0  0  0  0
   12.4329  -18.0419   22.6331 C   0  0  0  0  0  0  0  0  0  0  0  0
   12.8720  -16.6227   22.4656 C   0  0  2  0  0  0  0  0  0  0  0  0
   12.8817  -16.2537   21.0477 N   0  0  0  0  0  0  0  0  0  0  0  0
   14.1607  -16.3121   23.0909 C   0  0  0  0  0  0  0  0  0  0  0  0
   14.2069  -16.2066   24.3735 O   0  0  0  0  0  0  0  0  0  0  0  0
   15.3599  -16.1138   22.4613 O   0  0  0  0  0  0  0  0  0  0  0  0
  2  1  1  6
  2  3  1  0
  4  3  1  0
  5  2  1  0
  6  5  2  0
  7  8  1  0
  8  9  2  0
 10  8  1  0
 10 11  1  0
 12 11  1  1
 12 13  1  0
 13  5  1  0
 14 21  1  0
 14 12  1  0
 15 14  2  0
 16 17  1  0
 17 19  1  0
 18 17  2  0
 20 19  1  6
 20 22  1  0
 20 21  1  0
 22 24  1  0
 23 22  2  0
M  END
$$$$
