CQN.pdb
     RDKit          3D

 24 23  0  0  1  0  0  0  0  0999 V2000
    8.7580  -15.6784   26.4656 N   0  0  0  0  0  0  0  0  0  0  0  0
    7.9816  -14.8063   25.6015 C   0  0  1  0  0  0  0  0  0  0  0  0
    8.4945  -13.3837   25.6944 C   0  0  0  0  0  0  0  0  0  0  0  0
    8.0076  -12.6413   27.2806 S   0  0  0  0  0  0  0  0  0  0  0  0
    8.0855  -15.3278   24.2203 C   0  0  0  0  0  0  0  0  0  0  0  0
    7.9899  -16.5660   23.9650 O   0  0  0  0  0  0  0  0  0  0  0  0
    7.7455  -12.1198   18.7304 N   0  0  0  0  0  0  0  0  0  0  0  0
    7.8449  -13.4751   18.3070 C   0  0  0  0  0  0  0  0  0  0  0  0
    7.7510  -13.7541   17.1018 O   0  0  0  0  0  0  0  0  0  0  0  0
    8.0595  -14.5093   19.3386 C   0  0  0  0  0  0  0  0  0  0  0  0
    8.0855  -13.9252   20.7356 C   0  0  0  0  0  0  0  0  0  0  0  0
    8.3340  -15.0281   21.7369 C   0  0  2  0  0  0  0  0  0  0  0  0
    8.2993  -14.4872   23.0795 N   0  0  0  0  0  0  0  0  0  0  0  0
    9.5863  -15.7641   21.4670 C   0  0  0  0  0  0  0  0  0  0  0  0
    9.6025  -16.5896   20.5166 O   0  0  0  0  0  0  0  0  0  0  0  0
   12.7135  -14.1611   19.2335 N   0  0  0  0  0  0  0  0  0  0  0  0
   12.9096  -15.4385   19.8996 C   0  0  0  0  0  0  0  0  0  0  0  0
   12.9630  -16.4801   19.2154 O   0  0  0  0  0  0  0  0  0  0  0  0
   13.0419  -15.4917   21.3565 C   0  0  0  0  0  0  0  0  0  0  0  0
   11.9971  -16.3591   21.9819 C   0  0  2  0  0  0  0  0  0  0  0  0
   10.7696  -15.5941   22.2162 N   0  0  0  0  0  0  0  0  0  0  0  0
   12.4290  -17.0348   23.2087 C   0  0  0  0  0  0  0  0  0  0  0  0
   11.7402  -16.8516   24.2811 O   0  0  0  0  0  0  0  0  0  0  0  0
   13.5081  -17.8631   23.3615 O   0  0  0  0  0  0  0  0  0  0  0  0
  2  1  1  1
  2  3  1  0
  4  3  1  0
  5  2  1  0
  6  5  2  0
  7  8  1  0
  8  9  2  0
 10  8  1  0
 10 11  1  0
 12 11  1  6
 12 13  1  0
 13  5  1  0
 14 21  1  0
 14 12  1  0
 15 14  2  0
 16 17  1  0
 17 19  1  0
 18 17  2  0
 20 19  1  1
 20 22  1  0
 20 21  1  0
 22 24  1  0
 23 22  2  0
M  END
$$$$
