CQN.pdb
     RDKit          3D

 24 23  0  0  1  0  0  0  0  0999 V2000
    7.9395  -12.7087   17.9868 N   0  0  0  0  0  0  0  0  0  0  0  0
    7.9087  -14.0775   18.4720 C   0  0  1  0  0  0  0  0  0  0  0  0
    8.6641  -14.9871   17.5246 C   0  0  0  0  0  0  0  0  0  0  0  0
    7.5806  -15.5201   16.1658 S   0  0  0  0  0  0  0  0  0  0  0  0
    8.5073  -14.0920   19.8255 C   0  0  0  0  0  0  0  0  0  0  0  0
    9.6452  -13.5834   20.0580 O   0  0  0  0  0  0  0  0  0  0  0  0
    5.8225  -15.6389   25.4096 N   0  0  0  0  0  0  0  0  0  0  0  0
    7.1823  -15.4054   25.7598 C   0  0  0  0  0  0  0  0  0  0  0  0
    7.5262  -15.4304   26.9516 O   0  0  0  0  0  0  0  0  0  0  0  0
    8.1424  -15.1389   24.6703 C   0  0  0  0  0  0  0  0  0  0  0  0
    7.4571  -14.9999   23.3270 C   0  0  0  0  0  0  0  0  0  0  0  0
    8.4871  -14.6894   22.2671 C   0  0  2  0  0  0  0  0  0  0  0  0
    7.8580  -14.6733   20.9631 N   0  0  0  0  0  0  0  0  0  0  0  0
    9.6418  -15.6098   22.3151 C   0  0  0  0  0  0  0  0  0  0  0  0
    9.5513  -16.7151   21.7192 O   0  0  0  0  0  0  0  0  0  0  0  0
   15.4590  -16.1260   23.6624 N   0  0  0  0  0  0  0  0  0  0  0  0
   14.4297  -16.3276   22.6555 C   0  0  0  0  0  0  0  0  0  0  0  0
   14.5704  -17.2380   21.8145 O   0  0  0  0  0  0  0  0  0  0  0  0
   13.2455  -15.4672   22.6369 C   0  0  0  0  0  0  0  0  0  0  0  0
   12.0050  -16.2144   23.0083 C   0  0  2  0  0  0  0  0  0  0  0  0
   10.8446  -15.3200   22.9931 N   0  0  0  0  0  0  0  0  0  0  0  0
   12.0912  -16.9303   24.2844 C   0  0  0  0  0  0  0  0  0  0  0  0
   11.4676  -16.4434   25.3004 O   0  0  0  0  0  0  0  0  0  0  0  0
   12.7739  -18.0892   24.5389 O   0  0  0  0  0  0  0  0  0  0  0  0
  2  1  1  6
  2  3  1  0
  4  3  1  0
  5  2  1  0
  6  5  2  0
  7  8  1  0
  8  9  2  0
 10  8  1  0
 10 11  1  0
 12 11  1  1
 12 13  1  0
 13  5  1  0
 14 21  1  0
 14 12  1  0
 15 14  2  0
 16 17  1  0
 17 19  1  0
 18 17  2  0
 20 19  1  1
 20 22  1  0
 20 21  1  0
 22 24  1  0
 23 22  2  0
M  END
$$$$
