CQN.pdb
     RDKit          3D

 24 23  0  0  1  0  0  0  0  0999 V2000
    7.0271  -13.2453   18.9936 N   0  0  0  0  0  0  0  0  0  0  0  0
    8.0438  -14.1385   19.5216 C   0  0  1  0  0  0  0  0  0  0  0  0
    9.3126  -13.3681   19.8249 C   0  0  0  0  0  0  0  0  0  0  0  0
    8.9505  -11.9667   20.9247 S   0  0  0  0  0  0  0  0  0  0  0  0
    7.4970  -14.7778   20.7393 C   0  0  0  0  0  0  0  0  0  0  0  0
    6.8036  -14.1297   21.5799 O   0  0  0  0  0  0  0  0  0  0  0  0
    4.6455  -19.8796   20.8097 N   0  0  0  0  0  0  0  0  0  0  0  0
    4.4490  -18.5902   20.2396 C   0  0  0  0  0  0  0  0  0  0  0  0
    3.5907  -18.4288   19.3585 O   0  0  0  0  0  0  0  0  0  0  0  0
    5.2900  -17.4803   20.7302 C   0  0  0  0  0  0  0  0  0  0  0  0
    6.2366  -17.9228   21.8263 C   0  0  0  0  0  0  0  0  0  0  0  0
    7.1108  -16.7610   22.2347 C   0  0  2  0  0  0  0  0  0  0  0  0
    7.7052  -16.1589   21.0597 N   0  0  0  0  0  0  0  0  0  0  0  0
    8.1268  -17.1439   23.2367 C   0  0  0  0  0  0  0  0  0  0  0  0
    7.7419  -17.7105   24.2930 O   0  0  0  0  0  0  0  0  0  0  0  0
   11.5464  -17.5373   21.6011 N   0  0  0  0  0  0  0  0  0  0  0  0
   12.2977  -16.6968   22.5192 C   0  0  0  0  0  0  0  0  0  0  0  0
   13.4006  -16.2378   22.1607 O   0  0  0  0  0  0  0  0  0  0  0  0
   11.7579  -16.3983   23.8468 C   0  0  0  0  0  0  0  0  0  0  0  0
   10.5021  -17.1604   24.1246 C   0  0  2  0  0  0  0  0  0  0  0  0
    9.5089  -16.9100   23.0770 N   0  0  0  0  0  0  0  0  0  0  0  0
    9.9292  -16.9163   25.4514 C   0  0  0  0  0  0  0  0  0  0  0  0
    9.1952  -15.8711   25.6161 O   0  0  0  0  0  0  0  0  0  0  0  0
   10.0819  -17.6856   26.5733 O   0  0  0  0  0  0  0  0  0  0  0  0
  2  1  1  1
  2  3  1  0
  4  3  1  0
  5  2  1  0
  6  5  2  0
  7  8  1  0
  8  9  2  0
 10  8  1  0
 10 11  1  0
 12 11  1  6
 12 13  1  0
 13  5  1  0
 14 21  1  0
 14 12  1  0
 15 14  2  0
 16 17  1  0
 17 19  1  0
 18 17  2  0
 20 19  1  6
 20 22  1  0
 20 21  1  0
 22 24  1  0
 23 22  2  0
M  END
$$$$
