CQN.pdb
     RDKit          3D

 24 23  0  0  1  0  0  0  0  0999 V2000
    7.3573  -13.0039   17.8668 N   0  0  0  0  0  0  0  0  0  0  0  0
    8.6385  -13.2193   18.5166 C   0  0  1  0  0  0  0  0  0  0  0  0
    9.0017  -12.0214   19.3702 C   0  0  0  0  0  0  0  0  0  0  0  0
    9.5500  -10.6429   18.3197 S   0  0  0  0  0  0  0  0  0  0  0  0
    8.5317  -14.4499   19.3319 C   0  0  0  0  0  0  0  0  0  0  0  0
    7.4776  -14.7347   19.9764 O   0  0  0  0  0  0  0  0  0  0  0  0
    8.9206  -19.9267   17.6542 N   0  0  0  0  0  0  0  0  0  0  0  0
    7.9396  -18.8973   17.5899 C   0  0  0  0  0  0  0  0  0  0  0  0
    7.0071  -18.9828   16.7761 O   0  0  0  0  0  0  0  0  0  0  0  0
    8.0763  -17.7515   18.5110 C   0  0  0  0  0  0  0  0  0  0  0  0
    9.3660  -17.8064   19.3028 C   0  0  0  0  0  0  0  0  0  0  0  0
    9.4379  -16.6160   20.2294 C   0  0  2  0  0  0  0  0  0  0  0  0
    9.5953  -15.4023   19.4557 N   0  0  0  0  0  0  0  0  0  0  0  0
   10.4918  -16.7615   21.2546 C   0  0  0  0  0  0  0  0  0  0  0  0
   11.6949  -16.6933   20.8900 O   0  0  0  0  0  0  0  0  0  0  0  0
   13.0718  -17.6919   25.6532 N   0  0  0  0  0  0  0  0  0  0  0  0
   11.6745  -17.5366   26.0237 C   0  0  0  0  0  0  0  0  0  0  0  0
   11.3415  -17.6786   27.2173 O   0  0  0  0  0  0  0  0  0  0  0  0
   10.6772  -17.2171   25.0008 C   0  0  0  0  0  0  0  0  0  0  0  0
   11.2680  -17.2058   23.6275 C   0  0  2  0  0  0  0  0  0  0  0  0
   10.2262  -16.9731   22.6238 N   0  0  0  0  0  0  0  0  0  0  0  0
   12.0489  -18.4012   23.2968 C   0  0  0  0  0  0  0  0  0  0  0  0
   11.4314  -19.4141   22.7959 O   0  0  0  0  0  0  0  0  0  0  0  0
   13.3962  -18.5809   23.4591 O   0  0  0  0  0  0  0  0  0  0  0  0
  2  1  1  1
  2  3  1  0
  4  3  1  0
  5  2  1  0
  6  5  2  0
  7  8  1  0
  8  9  2  0
 10  8  1  0
 10 11  1  0
 12 11  1  6
 12 13  1  0
 13  5  1  0
 14 21  1  0
 14 12  1  0
 15 14  2  0
 16 17  1  0
 17 19  1  0
 18 17  2  0
 20 19  1  1
 20 22  1  0
 20 21  1  0
 22 24  1  0
 23 22  2  0
M  END
$$$$
