CQN.pdb
     RDKit          3D

 24 23  0  0  1  0  0  0  0  0999 V2000
    7.8724  -16.0322   26.9013 N   0  0  0  0  0  0  0  0  0  0  0  0
    8.0582  -14.8832   26.0321 C   0  0  1  0  0  0  0  0  0  0  0  0
    9.3124  -14.1278   26.4220 C   0  0  0  0  0  0  0  0  0  0  0  0
    8.9095  -12.8058   27.6029 S   0  0  0  0  0  0  0  0  0  0  0  0
    8.1372  -15.3769   24.6392 C   0  0  0  0  0  0  0  0  0  0  0  0
    8.2462  -16.6119   24.3734 O   0  0  0  0  0  0  0  0  0  0  0  0
    7.2224  -12.1656   19.1993 N   0  0  0  0  0  0  0  0  0  0  0  0
    7.5099  -13.4841   18.7464 C   0  0  0  0  0  0  0  0  0  0  0  0
    7.5067  -13.7341   17.5312 O   0  0  0  0  0  0  0  0  0  0  0  0
    7.8051  -14.5160   19.7602 C   0  0  0  0  0  0  0  0  0  0  0  0
    7.7030  -13.9755   21.1712 C   0  0  0  0  0  0  0  0  0  0  0  0
    8.1538  -15.0346   22.1489 C   0  0  2  0  0  0  0  0  0  0  0  0
    8.0974  -14.5113   23.4978 N   0  0  0  0  0  0  0  0  0  0  0  0
    9.4881  -15.5764   21.8189 C   0  0  0  0  0  0  0  0  0  0  0  0
    9.6312  -16.1931   20.7307 O   0  0  0  0  0  0  0  0  0  0  0  0
   14.5242  -15.1193   20.2420 N   0  0  0  0  0  0  0  0  0  0  0  0
   14.1997  -15.0743   21.6585 C   0  0  0  0  0  0  0  0  0  0  0  0
   15.0775  -15.3695   22.4941 O   0  0  0  0  0  0  0  0  0  0  0  0
   12.8557  -14.6858   22.0896 C   0  0  0  0  0  0  0  0  0  0  0  0
   11.9644  -15.8710   22.2791 C   0  0  2  0  0  0  0  0  0  0  0  0
   10.6153  -15.4418   22.6565 N   0  0  0  0  0  0  0  0  0  0  0  0
   12.4762  -16.8654   23.2264 C   0  0  0  0  0  0  0  0  0  0  0  0
   12.0497  -16.8273   24.4408 O   0  0  0  0  0  0  0  0  0  0  0  0
   13.3800  -17.8618   22.9729 O   0  0  0  0  0  0  0  0  0  0  0  0
  2  1  1  1
  2  3  1  0
  4  3  1  0
  5  2  1  0
  6  5  2  0
  7  8  1  0
  8  9  2  0
 10  8  1  0
 10 11  1  0
 12 11  1  6
 12 13  1  0
 13  5  1  0
 14 21  1  0
 14 12  1  0
 15 14  2  0
 16 17  1  0
 17 19  1  0
 18 17  2  0
 20 19  1  1
 20 22  1  0
 20 21  1  0
 22 24  1  0
 23 22  2  0
M  END
$$$$
