CQN.pdb
     RDKit          3D

 24 23  0  0  1  0  0  0  0  0999 V2000
    7.2207  -14.9257   19.0642 N   0  0  0  0  0  0  0  0  0  0  0  0
    8.3970  -14.4937   19.7990 C   0  0  1  0  0  0  0  0  0  0  0  0
    8.1432  -13.1508   20.4530 C   0  0  0  0  0  0  0  0  0  0  0  0
    8.2647  -11.8184   19.2223 S   0  0  0  0  0  0  0  0  0  0  0  0
    8.7094  -15.5331   20.8053 C   0  0  0  0  0  0  0  0  0  0  0  0
    7.7971  -16.1572   21.4262 O   0  0  0  0  0  0  0  0  0  0  0  0
   13.1780  -19.6216   20.7058 N   0  0  0  0  0  0  0  0  0  0  0  0
   12.7461  -19.8199   22.0475 C   0  0  0  0  0  0  0  0  0  0  0  0
   13.0362  -20.8701   22.6408 O   0  0  0  0  0  0  0  0  0  0  0  0
   11.9574  -18.7481   22.6871 C   0  0  0  0  0  0  0  0  0  0  0  0
   11.6751  -17.6028   21.7373 C   0  0  0  0  0  0  0  0  0  0  0  0
   10.3142  -17.0225   22.0403 C   0  0  2  0  0  0  0  0  0  0  0  0
   10.0477  -15.9103   21.1522 N   0  0  0  0  0  0  0  0  0  0  0  0
   10.1643  -16.6465   23.4612 C   0  0  0  0  0  0  0  0  0  0  0  0
   10.9308  -15.7654   23.9313 O   0  0  0  0  0  0  0  0  0  0  0  0
    7.6383  -14.8493   24.6043 N   0  0  0  0  0  0  0  0  0  0  0  0
    6.9248  -15.8174   25.4214 C   0  0  0  0  0  0  0  0  0  0  0  0
    5.6797  -15.7674   25.4770 O   0  0  0  0  0  0  0  0  0  0  0  0
    7.6675  -16.8353   26.1665 C   0  0  0  0  0  0  0  0  0  0  0  0
    9.1020  -16.8981   25.7501 C   0  0  2  0  0  0  0  0  0  0  0  0
    9.2077  -17.2206   24.3247 N   0  0  0  0  0  0  0  0  0  0  0  0
    9.9232  -17.8108   26.5505 C   0  0  0  0  0  0  0  0  0  0  0  0
    9.9503  -17.6465   27.8274 O   0  0  0  0  0  0  0  0  0  0  0  0
   10.6896  -18.8497   26.0953 O   0  0  0  0  0  0  0  0  0  0  0  0
  2  1  1  1
  2  3  1  0
  4  3  1  0
  5  2  1  0
  6  5  2  0
  7  8  1  0
  8  9  2  0
 10  8  1  0
 10 11  1  0
 12 11  1  1
 12 13  1  0
 13  5  1  0
 14 21  1  0
 14 12  1  0
 15 14  2  0
 16 17  1  0
 17 19  1  0
 18 17  2  0
 20 19  1  1
 20 22  1  0
 20 21  1  0
 22 24  1  0
 23 22  2  0
M  END
$$$$
