CQN.pdb
     RDKit          3D

 24 23  0  0  1  0  0  0  0  0999 V2000
    5.0859  -14.7045   26.2527 N   0  0  0  0  0  0  0  0  0  0  0  0
    6.2349  -14.0747   25.6257 C   0  0  1  0  0  0  0  0  0  0  0  0
    7.0989  -13.3998   26.6715 C   0  0  0  0  0  0  0  0  0  0  0  0
    6.2410  -11.9514   27.3575 S   0  0  0  0  0  0  0  0  0  0  0  0
    6.9864  -15.1231   24.9002 C   0  0  0  0  0  0  0  0  0  0  0  0
    6.9449  -16.3401   25.2534 O   0  0  0  0  0  0  0  0  0  0  0  0
    9.1725  -14.5713   19.1157 N   0  0  0  0  0  0  0  0  0  0  0  0
    8.9037  -13.5760   20.0971 C   0  0  0  0  0  0  0  0  0  0  0  0
    8.9078  -12.3771   19.7781 O   0  0  0  0  0  0  0  0  0  0  0  0
    8.6264  -14.0210   21.4773 C   0  0  0  0  0  0  0  0  0  0  0  0
    8.7218  -15.5254   21.6219 C   0  0  0  0  0  0  0  0  0  0  0  0
    8.5222  -15.9047   23.0700 C   0  0  2  0  0  0  0  0  0  0  0  0
    7.8081  -14.8498   23.7584 N   0  0  0  0  0  0  0  0  0  0  0  0
    9.7914  -16.2474   23.7441 C   0  0  0  0  0  0  0  0  0  0  0  0
   10.6407  -16.9278   23.1109 O   0  0  0  0  0  0  0  0  0  0  0  0
    9.9837  -13.8933   28.2045 N   0  0  0  0  0  0  0  0  0  0  0  0
   10.9913  -14.3667   27.2693 C   0  0  0  0  0  0  0  0  0  0  0  0
   11.5877  -13.5423   26.5479 O   0  0  0  0  0  0  0  0  0  0  0  0
   11.2954  -15.7960   27.1825 C   0  0  0  0  0  0  0  0  0  0  0  0
   11.3196  -16.2779   25.7676 C   0  0  2  0  0  0  0  0  0  0  0  0
   10.1076  -15.8545   25.0616 N   0  0  0  0  0  0  0  0  0  0  0  0
   11.5245  -17.7223   25.6255 C   0  0  0  0  0  0  0  0  0  0  0  0
   12.6049  -18.2351   26.1029 O   0  0  0  0  0  0  0  0  0  0  0  0
   10.6834  -18.6229   25.0295 O   0  0  0  0  0  0  0  0  0  0  0  0
  2  1  1  1
  2  3  1  0
  4  3  1  0
  5  2  1  0
  6  5  2  0
  7  8  1  0
  8  9  2  0
 10  8  1  0
 10 11  1  0
 12 11  1  6
 12 13  1  0
 13  5  1  0
 14 21  1  0
 14 12  1  0
 15 14  2  0
 16 17  1  0
 17 19  1  0
 18 17  2  0
 20 19  1  1
 20 22  1  0
 20 21  1  0
 22 24  1  0
 23 22  2  0
M  END
$$$$
