CQN.pdb
     RDKit          3D

 24 23  0  0  1  0  0  0  0  0999 V2000
    8.4121  -12.9971   26.5460 N   0  0  0  0  0  0  0  0  0  0  0  0
    7.2477  -13.8439   26.3525 C   0  0  1  0  0  0  0  0  0  0  0  0
    5.9967  -12.9971   26.2366 C   0  0  0  0  0  0  0  0  0  0  0  0
    5.9556  -11.7505   27.5590 S   0  0  0  0  0  0  0  0  0  0  0  0
    7.4702  -14.6475   25.1297 C   0  0  0  0  0  0  0  0  0  0  0  0
    6.6724  -15.5696   24.7822 O   0  0  0  0  0  0  0  0  0  0  0  0
    5.5672  -15.0031   20.8930 N   0  0  0  0  0  0  0  0  0  0  0  0
    6.8483  -14.4901   20.5442 C   0  0  0  0  0  0  0  0  0  0  0  0
    7.2680  -14.6140   19.3834 O   0  0  0  0  0  0  0  0  0  0  0  0
    7.6366  -13.8202   21.5976 C   0  0  0  0  0  0  0  0  0  0  0  0
    8.9498  -14.5260   21.8637 C   0  0  0  0  0  0  0  0  0  0  0  0
    8.8380  -15.3330   23.1353 C   0  0  2  0  0  0  0  0  0  0  0  0
    8.5880  -14.4499   24.2551 N   0  0  0  0  0  0  0  0  0  0  0  0
   10.0153  -16.1965   23.3612 C   0  0  0  0  0  0  0  0  0  0  0  0
   10.2780  -17.0855   22.5093 O   0  0  0  0  0  0  0  0  0  0  0  0
   12.8340  -16.6961   22.1983 N   0  0  0  0  0  0  0  0  0  0  0  0
   13.6976  -16.2222   23.2676 C   0  0  0  0  0  0  0  0  0  0  0  0
   14.7956  -15.7053   22.9798 O   0  0  0  0  0  0  0  0  0  0  0  0
   13.2748  -16.3545   24.6629 C   0  0  0  0  0  0  0  0  0  0  0  0
   11.9444  -17.0257   24.7832 C   0  0  2  0  0  0  0  0  0  0  0  0
   10.8654  -16.0816   24.4813 N   0  0  0  0  0  0  0  0  0  0  0  0
   11.7138  -17.6812   26.0737 C   0  0  0  0  0  0  0  0  0  0  0  0
   12.5096  -18.6299   26.4270 O   0  0  0  0  0  0  0  0  0  0  0  0
   10.7262  -17.4015   26.9794 O   0  0  0  0  0  0  0  0  0  0  0  0
  2  1  1  6
  2  3  1  0
  4  3  1  0
  5  2  1  0
  6  5  2  0
  7  8  1  0
  8  9  2  0
 10  8  1  0
 10 11  1  0
 12 11  1  6
 12 13  1  0
 13  5  1  0
 14 21  1  0
 14 12  1  0
 15 14  2  0
 16 17  1  0
 17 19  1  0
 18 17  2  0
 20 19  1  1
 20 22  1  0
 20 21  1  0
 22 24  1  0
 23 22  2  0
M  END
$$$$
