CQN.pdb
     RDKit          3D

 24 23  0  0  1  0  0  0  0  0999 V2000
    5.7365  -14.4258   26.5756 N   0  0  0  0  0  0  0  0  0  0  0  0
    6.5709  -13.5046   25.8238 C   0  0  1  0  0  0  0  0  0  0  0  0
    7.7136  -13.0085   26.6863 C   0  0  0  0  0  0  0  0  0  0  0  0
    7.1796  -11.5829   27.6796 S   0  0  0  0  0  0  0  0  0  0  0  0
    7.0692  -14.2184   24.6269 C   0  0  0  0  0  0  0  0  0  0  0  0
    7.0549  -15.4838   24.5498 O   0  0  0  0  0  0  0  0  0  0  0  0
    5.9386  -15.2385   20.1511 N   0  0  0  0  0  0  0  0  0  0  0  0
    7.1830  -15.1878   19.4621 C   0  0  0  0  0  0  0  0  0  0  0  0
    7.4471  -16.0405   18.6005 O   0  0  0  0  0  0  0  0  0  0  0  0
    8.1229  -14.1031   19.8082 C   0  0  0  0  0  0  0  0  0  0  0  0
    7.7095  -13.3697   21.0670 C   0  0  0  0  0  0  0  0  0  0  0  0
    7.9259  -14.2646   22.2641 C   0  0  2  0  0  0  0  0  0  0  0  0
    7.5994  -13.5458   23.4779 N   0  0  0  0  0  0  0  0  0  0  0  0
    9.2891  -14.8328   22.3051 C   0  0  0  0  0  0  0  0  0  0  0  0
    9.6960  -15.4848   21.3079 O   0  0  0  0  0  0  0  0  0  0  0  0
   12.3518  -17.6052   25.8271 N   0  0  0  0  0  0  0  0  0  0  0  0
   11.1217  -17.8760   25.1009 C   0  0  0  0  0  0  0  0  0  0  0  0
   10.8005  -19.0583   24.8666 O   0  0  0  0  0  0  0  0  0  0  0  0
   10.2764  -16.7676   24.6539 C   0  0  0  0  0  0  0  0  0  0  0  0
   11.0516  -15.7489   23.8817 C   0  0  2  0  0  0  0  0  0  0  0  0
   10.1643  -14.6861   23.4018 N   0  0  0  0  0  0  0  0  0  0  0  0
   11.8425  -16.3016   22.7784 C   0  0  0  0  0  0  0  0  0  0  0  0
   13.1236  -16.3368   22.9039 O   0  0  0  0  0  0  0  0  0  0  0  0
   11.3740  -16.8011   21.5931 O   0  0  0  0  0  0  0  0  0  0  0  0
  2  1  1  1
  2  3  1  0
  4  3  1  0
  5  2  1  0
  6  5  2  0
  7  8  1  0
  8  9  2  0
 10  8  1  0
 10 11  1  0
 12 11  1  6
 12 13  1  0
 13  5  1  0
 14 21  1  0
 14 12  1  0
 15 14  2  0
 16 17  1  0
 17 19  1  0
 18 17  2  0
 20 19  1  6
 20 22  1  0
 20 21  1  0
 22 24  1  0
 23 22  2  0
M  END
$$$$
