CQN.pdb
     RDKit          3D

 24 23  0  0  1  0  0  0  0  0999 V2000
    7.6814  -14.9530   19.6616 N   0  0  0  0  0  0  0  0  0  0  0  0
    8.4540  -14.3597   20.7391 C   0  0  1  0  0  0  0  0  0  0  0  0
    7.7616  -13.1160   21.2580 C   0  0  0  0  0  0  0  0  0  0  0  0
    8.0400  -11.7216   20.1255 S   0  0  0  0  0  0  0  0  0  0  0  0
    8.6034  -15.3774   21.8031 C   0  0  0  0  0  0  0  0  0  0  0  0
    7.6350  -16.1107   22.1667 O   0  0  0  0  0  0  0  0  0  0  0  0
   12.2406  -19.7924   22.0269 N   0  0  0  0  0  0  0  0  0  0  0  0
   11.0818  -19.4223   21.2877 C   0  0  0  0  0  0  0  0  0  0  0  0
   10.7900  -20.0348   20.2491 O   0  0  0  0  0  0  0  0  0  0  0  0
   10.2620  -18.3055   21.7981 C   0  0  0  0  0  0  0  0  0  0  0  0
   10.8050  -17.7455   23.0962 C   0  0  0  0  0  0  0  0  0  0  0  0
    9.9352  -16.5978   23.5512 C   0  0  2  0  0  0  0  0  0  0  0  0
    9.8357  -15.6110   22.4964 N   0  0  0  0  0  0  0  0  0  0  0  0
   10.4005  -16.0064   24.8227 C   0  0  0  0  0  0  0  0  0  0  0  0
   11.4274  -15.2784   24.8037 O   0  0  0  0  0  0  0  0  0  0  0  0
    9.3493  -12.4990   27.3577 N   0  0  0  0  0  0  0  0  0  0  0  0
    8.7216  -13.8057   27.2475 C   0  0  0  0  0  0  0  0  0  0  0  0
    7.7639  -13.9570   26.4627 O   0  0  0  0  0  0  0  0  0  0  0  0
    9.2146  -14.9249   28.0521 C   0  0  0  0  0  0  0  0  0  0  0  0
   10.2704  -15.7055   27.3373 C   0  0  2  0  0  0  0  0  0  0  0  0
    9.7575  -16.2115   26.0615 N   0  0  0  0  0  0  0  0  0  0  0  0
   10.8569  -16.7916   28.1277 C   0  0  0  0  0  0  0  0  0  0  0  0
   10.7066  -18.0003   27.7099 O   0  0  0  0  0  0  0  0  0  0  0  0
   11.5674  -16.6775   29.2922 O   0  0  0  0  0  0  0  0  0  0  0  0
  2  1  1  6
  2  3  1  0
  4  3  1  0
  5  2  1  0
  6  5  2  0
  7  8  1  0
  8  9  2  0
 10  8  1  0
 10 11  1  0
 12 11  1  6
 12 13  1  0
 13  5  1  0
 14 21  1  0
 14 12  1  0
 15 14  2  0
 16 17  1  0
 17 19  1  0
 18 17  2  0
 20 19  1  1
 20 22  1  0
 20 21  1  0
 22 24  1  0
 23 22  2  0
M  END
$$$$
