CQN.pdb
     RDKit          3D

 24 23  0  0  1  0  0  0  0  0999 V2000
    7.9436  -13.5489   17.4879 N   0  0  0  0  0  0  0  0  0  0  0  0
    8.3591  -13.3356   18.8634 C   0  0  1  0  0  0  0  0  0  0  0  0
    7.1472  -13.1983   19.7623 C   0  0  0  0  0  0  0  0  0  0  0  0
    7.6408  -13.3213   21.5075 S   0  0  0  0  0  0  0  0  0  0  0  0
    9.2014  -14.4842   19.2655 C   0  0  0  0  0  0  0  0  0  0  0  0
    9.0606  -15.6308   18.7432 O   0  0  0  0  0  0  0  0  0  0  0  0
   13.8231  -15.0568   17.2592 N   0  0  0  0  0  0  0  0  0  0  0  0
   13.9324  -14.6316   18.6132 C   0  0  0  0  0  0  0  0  0  0  0  0
   15.0503  -14.4049   19.1010 O   0  0  0  0  0  0  0  0  0  0  0  0
   12.6884  -14.4757   19.3930 C   0  0  0  0  0  0  0  0  0  0  0  0
   12.1584  -15.8031   19.8935 C   0  0  0  0  0  0  0  0  0  0  0  0
   10.9280  -15.5672   20.7368 C   0  0  2  0  0  0  0  0  0  0  0  0
   10.2271  -14.3925   20.2621 N   0  0  0  0  0  0  0  0  0  0  0  0
   11.2393  -15.4830   22.1786 C   0  0  0  0  0  0  0  0  0  0  0  0
   11.3344  -14.3432   22.7049 O   0  0  0  0  0  0  0  0  0  0  0  0
    7.1515  -17.4169   25.2110 N   0  0  0  0  0  0  0  0  0  0  0  0
    8.4657  -16.7974   25.2649 C   0  0  0  0  0  0  0  0  0  0  0  0
    8.9237  -16.4357   26.3673 O   0  0  0  0  0  0  0  0  0  0  0  0
    9.2351  -16.6046   24.0345 C   0  0  0  0  0  0  0  0  0  0  0  0
   10.6948  -16.8517   24.2428 C   0  0  2  0  0  0  0  0  0  0  0  0
   11.4369  -16.6109   23.0027 N   0  0  0  0  0  0  0  0  0  0  0  0
   11.0110  -18.1751   24.7876 C   0  0  0  0  0  0  0  0  0  0  0  0
   11.1518  -19.1558   23.9651 O   0  0  0  0  0  0  0  0  0  0  0  0
   11.1806  -18.5093   26.1042 O   0  0  0  0  0  0  0  0  0  0  0  0
  2  1  1  6
  2  3  1  0
  4  3  1  0
  5  2  1  0
  6  5  2  0
  7  8  1  0
  8  9  2  0
 10  8  1  0
 10 11  1  0
 12 11  1  6
 12 13  1  0
 13  5  1  0
 14 21  1  0
 14 12  1  0
 15 14  2  0
 16 17  1  0
 17 19  1  0
 18 17  2  0
 20 19  1  6
 20 22  1  0
 20 21  1  0
 22 24  1  0
 23 22  2  0
M  END
$$$$
