CQN.pdb
     RDKit          3D

 24 23  0  0  1  0  0  0  0  0999 V2000
    8.2615  -12.1894   18.8162 N   0  0  0  0  0  0  0  0  0  0  0  0
    7.9557  -13.5822   19.0928 C   0  0  1  0  0  0  0  0  0  0  0  0
    8.5673  -14.4743   18.0317 C   0  0  0  0  0  0  0  0  0  0  0  0
    8.2730  -16.2226   18.4332 S   0  0  0  0  0  0  0  0  0  0  0  0
    8.4840  -13.9036   20.4374 C   0  0  0  0  0  0  0  0  0  0  0  0
    9.5955  -13.4493   20.8445 O   0  0  0  0  0  0  0  0  0  0  0  0
    5.7925  -17.2648   25.1717 N   0  0  0  0  0  0  0  0  0  0  0  0
    7.1378  -17.1086   25.6095 C   0  0  0  0  0  0  0  0  0  0  0  0
    7.4797  -17.5406   26.7211 O   0  0  0  0  0  0  0  0  0  0  0  0
    8.0858  -16.4272   24.7057 C   0  0  0  0  0  0  0  0  0  0  0  0
    7.3988  -15.8575   23.4823 C   0  0  0  0  0  0  0  0  0  0  0  0
    8.4250  -15.2014   22.5894 C   0  0  2  0  0  0  0  0  0  0  0  0
    7.7915  -14.7413   21.3715 N   0  0  0  0  0  0  0  0  0  0  0  0
    9.5804  -16.0809   22.3162 C   0  0  0  0  0  0  0  0  0  0  0  0
    9.5789  -16.7587   21.2553 O   0  0  0  0  0  0  0  0  0  0  0  0
   14.1823  -17.2454   20.4791 N   0  0  0  0  0  0  0  0  0  0  0  0
   14.0023  -16.1765   21.4481 C   0  0  0  0  0  0  0  0  0  0  0  0
   15.0071  -15.6359   21.9521 O   0  0  0  0  0  0  0  0  0  0  0  0
   12.6538  -15.7465   21.8215 C   0  0  0  0  0  0  0  0  0  0  0  0
   11.9970  -16.7120   22.7550 C   0  0  2  0  0  0  0  0  0  0  0  0
   10.6894  -16.2050   23.1793 N   0  0  0  0  0  0  0  0  0  0  0  0
   12.8127  -17.0783   23.9163 C   0  0  0  0  0  0  0  0  0  0  0  0
   12.5671  -16.5013   25.0409 O   0  0  0  0  0  0  0  0  0  0  0  0
   13.8361  -17.9867   23.9556 O   0  0  0  0  0  0  0  0  0  0  0  0
  2  1  1  6
  2  3  1  0
  4  3  1  0
  5  2  1  0
  6  5  2  0
  7  8  1  0
  8  9  2  0
 10  8  1  0
 10 11  1  0
 12 11  1  1
 12 13  1  0
 13  5  1  0
 14 21  1  0
 14 12  1  0
 15 14  2  0
 16 17  1  0
 17 19  1  0
 18 17  2  0
 20 19  1  1
 20 22  1  0
 20 21  1  0
 22 24  1  0
 23 22  2  0
M  END
$$$$
