CQN.pdb
     RDKit          3D

 24 23  0  0  1  0  0  0  0  0999 V2000
    7.4358  -16.6326   25.3643 N   0  0  0  0  0  0  0  0  0  0  0  0
    7.9483  -15.4490   24.6962 C   0  0  1  0  0  0  0  0  0  0  0  0
    9.2510  -15.0098   25.3331 C   0  0  0  0  0  0  0  0  0  0  0  0
    8.9802  -13.5441   26.3737 S   0  0  0  0  0  0  0  0  0  0  0  0
    8.1323  -15.7802   23.2655 C   0  0  0  0  0  0  0  0  0  0  0  0
    8.2586  -16.9775   22.8680 O   0  0  0  0  0  0  0  0  0  0  0  0
    7.5600  -11.9999   18.1548 N   0  0  0  0  0  0  0  0  0  0  0  0
    7.9409  -13.2488   17.5878 C   0  0  0  0  0  0  0  0  0  0  0  0
    8.0296  -13.3664   16.3560 O   0  0  0  0  0  0  0  0  0  0  0  0
    8.2192  -14.3706   18.5065 C   0  0  0  0  0  0  0  0  0  0  0  0
    7.9910  -13.9922   19.9550 C   0  0  0  0  0  0  0  0  0  0  0  0
    8.3736  -15.1519   20.8436 C   0  0  2  0  0  0  0  0  0  0  0  0
    8.1817  -14.7887   22.2320 N   0  0  0  0  0  0  0  0  0  0  0  0
    9.7444  -15.6363   20.5808 C   0  0  0  0  0  0  0  0  0  0  0  0
    9.9620  -16.2669   19.5131 O   0  0  0  0  0  0  0  0  0  0  0  0
   12.9977  -15.8632   18.5580 N   0  0  0  0  0  0  0  0  0  0  0  0
   13.5098  -14.8167   19.4277 C   0  0  0  0  0  0  0  0  0  0  0  0
   14.3226  -13.9884   18.9704 O   0  0  0  0  0  0  0  0  0  0  0  0
   13.0709  -14.7440   20.8224 C   0  0  0  0  0  0  0  0  0  0  0  0
   12.1917  -15.8950   21.1930 C   0  0  2  0  0  0  0  0  0  0  0  0
   10.8277  -15.4318   21.4611 N   0  0  0  0  0  0  0  0  0  0  0  0
   12.6935  -16.7029   22.3082 C   0  0  0  0  0  0  0  0  0  0  0  0
   13.8608  -17.2355   22.1990 O   0  0  0  0  0  0  0  0  0  0  0  0
   12.0555  -16.9705   23.4894 O   0  0  0  0  0  0  0  0  0  0  0  0
  2  1  1  1
  2  3  1  0
  4  3  1  0
  5  2  1  0
  6  5  2  0
  7  8  1  0
  8  9  2  0
 10  8  1  0
 10 11  1  0
 12 11  1  6
 12 13  1  0
 13  5  1  0
 14 21  1  0
 14 12  1  0
 15 14  2  0
 16 17  1  0
 17 19  1  0
 18 17  2  0
 20 19  1  1
 20 22  1  0
 20 21  1  0
 22 24  1  0
 23 22  2  0
M  END
$$$$
