CQN.pdb
     RDKit          3D

 24 23  0  0  1  0  0  0  0  0999 V2000
    5.2660  -19.5704   20.7265 N   0  0  0  0  0  0  0  0  0  0  0  0
    5.7328  -18.5431   21.6414 C   0  0  1  0  0  0  0  0  0  0  0  0
    5.7999  -19.0891   23.0531 C   0  0  0  0  0  0  0  0  0  0  0  0
    5.9632  -17.7281   24.2471 S   0  0  0  0  0  0  0  0  0  0  0  0
    7.0623  -18.0908   21.1744 C   0  0  0  0  0  0  0  0  0  0  0  0
    7.7763  -18.8001   20.4033 O   0  0  0  0  0  0  0  0  0  0  0  0
    7.7119  -12.6641   19.1292 N   0  0  0  0  0  0  0  0  0  0  0  0
    7.7841  -12.6962   20.5504 C   0  0  0  0  0  0  0  0  0  0  0  0
    7.4774  -11.6894   21.2072 O   0  0  0  0  0  0  0  0  0  0  0  0
    8.2287  -13.9487   21.1934 C   0  0  0  0  0  0  0  0  0  0  0  0
    8.5121  -15.0400   20.1824 C   0  0  0  0  0  0  0  0  0  0  0  0
    8.8321  -16.3257   20.9071 C   0  0  2  0  0  0  0  0  0  0  0  0
    7.6392  -16.8343   21.5513 N   0  0  0  0  0  0  0  0  0  0  0  0
    9.9542  -16.1747   21.8563 C   0  0  0  0  0  0  0  0  0  0  0  0
   11.0691  -16.6723   21.5490 O   0  0  0  0  0  0  0  0  0  0  0  0
    6.4265  -15.5615   25.2795 N   0  0  0  0  0  0  0  0  0  0  0  0
    7.8604  -15.6355   25.5083 C   0  0  0  0  0  0  0  0  0  0  0  0
    8.4001  -14.8037   26.2651 O   0  0  0  0  0  0  0  0  0  0  0  0
    8.6532  -16.6777   24.8538 C   0  0  0  0  0  0  0  0  0  0  0  0
    9.9794  -16.1647   24.3920 C   0  0  2  0  0  0  0  0  0  0  0  0
    9.8475  -15.5022   23.0918 N   0  0  0  0  0  0  0  0  0  0  0  0
   11.0378  -17.1779   24.3527 C   0  0  0  0  0  0  0  0  0  0  0  0
   12.2077  -16.8551   24.7831 O   0  0  0  0  0  0  0  0  0  0  0  0
   10.9343  -18.4659   23.9009 O   0  0  0  0  0  0  0  0  0  0  0  0
  2  1  1  6
  2  3  1  0
  4  3  1  0
  5  2  1  0
  6  5  2  0
  7  8  1  0
  8  9  2  0
 10  8  1  0
 10 11  1  0
 12 11  1  1
 12 13  1  0
 13  5  1  0
 14 21  1  0
 14 12  1  0
 15 14  2  0
 16 17  1  0
 17 19  1  0
 18 17  2  0
 20 19  1  6
 20 22  1  0
 20 21  1  0
 22 24  1  0
 23 22  2  0
M  END
$$$$
