DFT.pdb
     RDKit          3D

 27 27  0  0  1  0  0  0  0  0999 V2000
    9.2551  -17.3723   20.1987 N   0  0  0  0  0  0  0  0  0  0  0  0
   10.5181  -17.0680   20.8063 C   0  0  1  0  0  0  0  0  0  0  0  0
   11.5665  -16.5742   19.8682 C   0  0  0  0  0  0  0  0  0  0  0  0
   11.6879  -17.4213   18.6704 C   0  0  0  0  0  0  0  0  0  0  0  0
   12.6430  -17.2331   17.8783 O   0  0  0  0  0  0  0  0  0  0  0  0
   10.3632  -16.2489   22.0211 C   0  0  0  0  0  0  0  0  0  0  0  0
   11.3425  -15.7590   22.6490 O   0  0  0  0  0  0  0  0  0  0  0  0
   10.7902  -18.4079   18.3948 O   0  0  0  0  0  0  0  0  0  0  0  0
    9.0906  -15.9785   22.5391 N   0  0  0  0  0  0  0  0  0  0  0  0
    8.8394  -15.2145   23.7363 C   0  0  1  0  0  0  0  0  0  0  0  0
    7.6502  -14.3401   23.7281 C   0  0  0  0  0  0  0  0  0  0  0  0
    7.3817  -13.5750   24.9505 C   0  0  0  0  0  0  0  0  0  0  0  0
    6.4497  -13.9323   25.8979 C   0  0  0  0  0  0  0  0  0  0  0  0
    6.2423  -13.1619   27.0230 C   0  0  0  0  0  0  0  0  0  0  0  0
    6.9665  -12.0014   27.2367 C   0  0  0  0  0  0  0  0  0  0  0  0
    7.8887  -11.6458   26.3016 C   0  0  0  0  0  0  0  0  0  0  0  0
    8.0942  -12.4102   25.1856 C   0  0  0  0  0  0  0  0  0  0  0  0
    8.7214  -16.1950   24.8499 C   0  0  0  0  0  0  0  0  0  0  0  0
    7.6937  -16.9058   24.9715 O   0  0  0  0  0  0  0  0  0  0  0  0
   10.2206  -19.1243   25.0259 C   0  0  0  0  0  0  0  0  0  0  0  0
   10.7217  -18.4803   26.2923 C   0  0  1  0  0  0  0  0  0  0  0  0
   11.9524  -17.8462   26.0175 O   0  0  0  0  0  0  0  0  0  0  0  0
    9.7545  -17.4171   26.7957 C   0  0  2  0  0  0  0  0  0  0  0  0
    9.7619  -16.3500   25.7965 N   0  0  0  0  0  0  0  0  0  0  0  0
   10.1923  -16.8311   28.0695 C   0  0  0  0  0  0  0  0  0  0  0  0
   10.1926  -17.5152   29.2737 O   0  0  0  0  0  0  0  0  0  0  0  0
   10.5916  -15.6371   28.0726 O   0  0  0  0  0  0  0  0  0  0  0  0
  2  1  1  6
  2  3  1  0
  4  8  1  0
  4  3  1  0
  5  4  2  0
  6  2  1  0
  7  6  2  0
  9  6  1  0
 10 11  1  6
 10  9  1  0
 11 12  1  0
 12 17  2  0
 13 14  2  0
 13 12  1  0
 14 15  1  0
 15 16  2  0
 17 16  1  0
 18 24  1  0
 18 10  1  0
 19 18  2  0
 21 20  1  6
 21 22  1  0
 23 21  1  0
 23 24  1  6
 25 23  1  0
 25 26  1  0
 27 25  2  0
M  END
$$$$
