DFT.pdb
     RDKit          3D

 27 27  0  0  1  0  0  0  0  0999 V2000
    9.5117  -16.2000   19.4996 N   0  0  0  0  0  0  0  0  0  0  0  0
   10.2092  -16.8813   20.5514 C   0  0  1  0  0  0  0  0  0  0  0  0
   11.5860  -17.3360   20.2038 C   0  0  0  0  0  0  0  0  0  0  0  0
   11.6566  -17.9220   18.8552 C   0  0  0  0  0  0  0  0  0  0  0  0
   11.6138  -17.1669   17.8536 O   0  0  0  0  0  0  0  0  0  0  0  0
   10.1194  -16.1582   21.8319 C   0  0  0  0  0  0  0  0  0  0  0  0
   11.1287  -15.8858   22.5394 O   0  0  0  0  0  0  0  0  0  0  0  0
   11.7675  -19.2655   18.6610 O   0  0  0  0  0  0  0  0  0  0  0  0
    8.8784  -15.7375   22.3257 N   0  0  0  0  0  0  0  0  0  0  0  0
    8.6894  -15.0249   23.5653 C   0  0  1  0  0  0  0  0  0  0  0  0
    7.5577  -14.0788   23.6208 C   0  0  0  0  0  0  0  0  0  0  0  0
    7.3302  -13.3920   24.8969 C   0  0  0  0  0  0  0  0  0  0  0  0
    8.0875  -12.3378   25.3538 C   0  0  0  0  0  0  0  0  0  0  0  0
    7.8233  -11.7413   26.5691 C   0  0  0  0  0  0  0  0  0  0  0  0
    6.7850  -12.1845   27.3707 C   0  0  0  0  0  0  0  0  0  0  0  0
    6.0345  -13.2267   26.9213 C   0  0  0  0  0  0  0  0  0  0  0  0
    6.2971  -13.8181   25.7158 C   0  0  0  0  0  0  0  0  0  0  0  0
    8.5222  -16.0548   24.6269 C   0  0  0  0  0  0  0  0  0  0  0  0
    7.4927  -16.7722   24.6671 O   0  0  0  0  0  0  0  0  0  0  0  0
    9.6285  -19.0253   24.7304 C   0  0  0  0  0  0  0  0  0  0  0  0
   10.2688  -18.4871   25.9834 C   0  0  1  0  0  0  0  0  0  0  0  0
   11.5431  -17.9775   25.6536 O   0  0  0  0  0  0  0  0  0  0  0  0
    9.4533  -17.3471   26.5787 C   0  0  2  0  0  0  0  0  0  0  0  0
    9.5169  -16.2502   25.6144 N   0  0  0  0  0  0  0  0  0  0  0  0
   10.0262  -16.8585   27.8401 C   0  0  0  0  0  0  0  0  0  0  0  0
   10.0106  -17.5771   29.0239 O   0  0  0  0  0  0  0  0  0  0  0  0
   10.5641  -15.7203   27.8514 O   0  0  0  0  0  0  0  0  0  0  0  0
  2  1  1  6
  2  3  1  0
  4  8  1  0
  4  3  1  0
  5  4  2  0
  6  2  1  0
  7  6  2  0
  9  6  1  0
 10 11  1  6
 10  9  1  0
 11 12  1  0
 12 17  2  0
 13 14  2  0
 13 12  1  0
 14 15  1  0
 15 16  2  0
 17 16  1  0
 18 24  1  0
 18 10  1  0
 19 18  2  0
 21 20  1  6
 21 22  1  0
 23 21  1  0
 23 24  1  6
 25 23  1  0
 25 26  1  0
 27 25  2  0
M  END
$$$$
