DFT.pdb
     RDKit          3D

 27 27  0  0  1  0  0  0  0  0999 V2000
    8.7534  -17.2421   19.7723 N   0  0  0  0  0  0  0  0  0  0  0  0
   10.0529  -17.0615   20.3518 C   0  0  1  0  0  0  0  0  0  0  0  0
   11.1228  -16.6681   19.3909 C   0  0  0  0  0  0  0  0  0  0  0  0
   11.0194  -17.3917   18.1131 C   0  0  0  0  0  0  0  0  0  0  0  0
   10.6011  -18.5750   18.1086 O   0  0  0  0  0  0  0  0  0  0  0  0
   10.0037  -16.2341   21.5700 C   0  0  0  0  0  0  0  0  0  0  0  0
   11.0362  -15.7640   22.1232 O   0  0  0  0  0  0  0  0  0  0  0  0
   11.3657  -16.8127   16.9300 O   0  0  0  0  0  0  0  0  0  0  0  0
    8.7779  -15.9329   22.1762 N   0  0  0  0  0  0  0  0  0  0  0  0
    8.6317  -15.1781   23.3965 C   0  0  1  0  0  0  0  0  0  0  0  0
    7.4764  -14.2628   23.4760 C   0  0  0  0  0  0  0  0  0  0  0  0
    7.2744  -13.5597   24.7475 C   0  0  0  0  0  0  0  0  0  0  0  0
    8.0746  -12.5363   25.2013 C   0  0  0  0  0  0  0  0  0  0  0  0
    7.8322  -11.9222   26.4124 C   0  0  0  0  0  0  0  0  0  0  0  0
    6.7734  -12.3162   27.2129 C   0  0  0  0  0  0  0  0  0  0  0  0
    5.9805  -13.3278   26.7665 C   0  0  0  0  0  0  0  0  0  0  0  0
    6.2213  -13.9367   25.5652 C   0  0  0  0  0  0  0  0  0  0  0  0
    8.5505  -16.1701   24.5032 C   0  0  0  0  0  0  0  0  0  0  0  0
    7.5265  -16.8810   24.6526 O   0  0  0  0  0  0  0  0  0  0  0  0
   10.4011  -19.0399   24.7145 C   0  0  0  0  0  0  0  0  0  0  0  0
   10.7222  -18.3665   26.0232 C   0  0  1  0  0  0  0  0  0  0  0  0
   11.9191  -17.6342   25.8701 O   0  0  0  0  0  0  0  0  0  0  0  0
    9.6281  -17.3874   26.4277 C   0  0  2  0  0  0  0  0  0  0  0  0
    9.6226  -16.3362   25.4119 N   0  0  0  0  0  0  0  0  0  0  0  0
    9.9087  -16.7493   27.7207 C   0  0  0  0  0  0  0  0  0  0  0  0
    9.8582  -17.4127   28.9354 O   0  0  0  0  0  0  0  0  0  0  0  0
   10.2133  -15.5278   27.7312 O   0  0  0  0  0  0  0  0  0  0  0  0
  2  1  1  6
  2  3  1  0
  4  8  1  0
  4  3  1  0
  5  4  2  0
  6  2  1  0
  7  6  2  0
  9  6  1  0
 10 11  1  6
 10  9  1  0
 11 12  1  0
 12 17  2  0
 13 14  2  0
 13 12  1  0
 14 15  1  0
 15 16  2  0
 17 16  1  0
 18 24  1  0
 18 10  1  0
 19 18  2  0
 21 20  1  6
 21 22  1  0
 23 21  1  0
 23 24  1  6
 25 23  1  0
 25 26  1  0
 27 25  2  0
M  END
$$$$
