DFT.pdb
     RDKit          3D

 27 27  0  0  1  0  0  0  0  0999 V2000
    9.0639  -18.0942   20.6126 N   0  0  0  0  0  0  0  0  0  0  0  0
   10.2576  -17.7163   21.3121 C   0  0  1  0  0  0  0  0  0  0  0  0
   11.5045  -17.7501   20.4953 C   0  0  0  0  0  0  0  0  0  0  0  0
   11.7136  -19.0562   19.8491 C   0  0  0  0  0  0  0  0  0  0  0  0
   10.9942  -20.0291   20.1821 O   0  0  0  0  0  0  0  0  0  0  0  0
   10.0760  -16.4737   22.0825 C   0  0  0  0  0  0  0  0  0  0  0  0
   10.6825  -15.4010   21.8091 O   0  0  0  0  0  0  0  0  0  0  0  0
   12.6690  -19.2410   18.8962 O   0  0  0  0  0  0  0  0  0  0  0  0
    9.2029  -16.4363   23.1767 N   0  0  0  0  0  0  0  0  0  0  0  0
    8.8887  -15.2493   23.9331 C   0  0  1  0  0  0  0  0  0  0  0  0
    7.5213  -15.1542   24.4809 C   0  0  0  0  0  0  0  0  0  0  0  0
    7.1575  -13.8950   25.1398 C   0  0  0  0  0  0  0  0  0  0  0  0
    6.3222  -13.8054   26.2297 C   0  0  0  0  0  0  0  0  0  0  0  0
    6.0152  -12.5862   26.7970 C   0  0  0  0  0  0  0  0  0  0  0  0
    6.5386  -11.4101   26.2873 C   0  0  0  0  0  0  0  0  0  0  0  0
    7.3649  -11.4958   25.2098 C   0  0  0  0  0  0  0  0  0  0  0  0
    7.6691  -12.7054   24.6473 C   0  0  0  0  0  0  0  0  0  0  0  0
    9.8714  -15.1833   25.0492 C   0  0  0  0  0  0  0  0  0  0  0  0
   10.8887  -14.4525   24.9648 O   0  0  0  0  0  0  0  0  0  0  0  0
   10.5711  -13.5735   27.8404 C   0  0  0  0  0  0  0  0  0  0  0  0
   10.3009  -14.9741   28.3251 C   0  0  1  0  0  0  0  0  0  0  0  0
    8.9156  -15.1089   28.5600 O   0  0  0  0  0  0  0  0  0  0  0  0
   10.6970  -16.0097   27.2812 C   0  0  2  0  0  0  0  0  0  0  0  0
    9.6837  -15.9406   26.2299 N   0  0  0  0  0  0  0  0  0  0  0  0
   10.6776  -17.3750   27.8230 C   0  0  0  0  0  0  0  0  0  0  0  0
   11.5654  -17.8380   28.7797 O   0  0  0  0  0  0  0  0  0  0  0  0
    9.8048  -18.1755   27.3958 O   0  0  0  0  0  0  0  0  0  0  0  0
  2  1  1  6
  2  3  1  0
  4  8  1  0
  4  3  1  0
  5  4  2  0
  6  2  1  0
  7  6  2  0
  9  6  1  0
 10 11  1  1
 10  9  1  0
 11 12  1  0
 12 17  2  0
 13 14  2  0
 13 12  1  0
 14 15  1  0
 15 16  2  0
 17 16  1  0
 18 24  1  0
 18 10  1  0
 19 18  2  0
 21 20  1  6
 21 22  1  0
 23 21  1  0
 23 24  1  6
 25 23  1  0
 25 26  1  0
 27 25  2  0
M  END
$$$$
