DFT.pdb
     RDKit          3D

 27 27  0  0  1  0  0  0  0  0999 V2000
    9.0633  -17.5342   20.3129 N   0  0  0  0  0  0  0  0  0  0  0  0
   10.3190  -17.3378   20.9775 C   0  0  1  0  0  0  0  0  0  0  0  0
   11.4725  -17.0563   20.0757 C   0  0  0  0  0  0  0  0  0  0  0  0
   11.4749  -17.9221   18.8851 C   0  0  0  0  0  0  0  0  0  0  0  0
   10.7495  -18.9461   18.8680 O   0  0  0  0  0  0  0  0  0  0  0  0
   10.2024  -16.4077   22.1141 C   0  0  0  0  0  0  0  0  0  0  0  0
   11.2016  -15.8713   22.6682 O   0  0  0  0  0  0  0  0  0  0  0  0
   12.2446  -17.6437   17.7965 O   0  0  0  0  0  0  0  0  0  0  0  0
    8.9460  -16.0776   22.6370 N   0  0  0  0  0  0  0  0  0  0  0  0
    8.7348  -15.2538   23.8018 C   0  0  1  0  0  0  0  0  0  0  0  0
    7.5766  -14.3394   23.7666 C   0  0  0  0  0  0  0  0  0  0  0  0
    7.3497  -13.5112   24.9559 C   0  0  0  0  0  0  0  0  0  0  0  0
    8.1534  -12.4589   25.3308 C   0  0  0  0  0  0  0  0  0  0  0  0
    7.8863  -11.7248   26.4675 C   0  0  0  0  0  0  0  0  0  0  0  0
    6.7985  -12.0231   27.2704 C   0  0  0  0  0  0  0  0  0  0  0  0
    6.0021  -13.0630   26.9020 C   0  0  0  0  0  0  0  0  0  0  0  0
    6.2674  -13.7910   25.7744 C   0  0  0  0  0  0  0  0  0  0  0  0
    8.5952  -16.1801   24.9586 C   0  0  0  0  0  0  0  0  0  0  0  0
    7.5378  -16.8344   25.1315 O   0  0  0  0  0  0  0  0  0  0  0  0
   10.1093  -19.1106   25.2026 C   0  0  0  0  0  0  0  0  0  0  0  0
   10.5708  -18.4671   26.4842 C   0  0  1  0  0  0  0  0  0  0  0  0
   11.8311  -17.8725   26.2602 O   0  0  0  0  0  0  0  0  0  0  0  0
    9.6136  -17.3704   26.9316 C   0  0  2  0  0  0  0  0  0  0  0  0
    9.6482  -16.3457   25.8895 N   0  0  0  0  0  0  0  0  0  0  0  0
   10.0454  -16.7384   28.1854 C   0  0  0  0  0  0  0  0  0  0  0  0
   10.5047  -15.4349   28.2740 O   0  0  0  0  0  0  0  0  0  0  0  0
    9.9974  -17.4171   29.2447 O   0  0  0  0  0  0  0  0  0  0  0  0
  2  1  1  6
  2  3  1  0
  4  8  1  0
  4  3  1  0
  5  4  2  0
  6  2  1  0
  7  6  2  0
  9  6  1  0
 10 11  1  6
 10  9  1  0
 11 12  1  0
 12 17  2  0
 13 14  2  0
 13 12  1  0
 14 15  1  0
 15 16  2  0
 17 16  1  0
 18 24  1  0
 18 10  1  0
 19 18  2  0
 21 20  1  6
 21 22  1  0
 23 21  1  0
 23 24  1  6
 25 23  1  0
 25 26  1  0
 27 25  2  0
M  END
$$$$
