DFT.pdb
     RDKit          3D

 27 27  0  0  1  0  0  0  0  0999 V2000
    9.6709  -18.4269   21.3669 N   0  0  0  0  0  0  0  0  0  0  0  0
   10.7536  -17.4884   21.3039 C   0  0  1  0  0  0  0  0  0  0  0  0
   11.1575  -17.0831   19.9270 C   0  0  0  0  0  0  0  0  0  0  0  0
   11.3788  -18.2417   19.0462 C   0  0  0  0  0  0  0  0  0  0  0  0
   10.6791  -18.3706   18.0123 O   0  0  0  0  0  0  0  0  0  0  0  0
   10.5607  -16.3600   22.2314 C   0  0  0  0  0  0  0  0  0  0  0  0
   11.3452  -15.3727   22.2847 O   0  0  0  0  0  0  0  0  0  0  0  0
   12.3247  -19.1824   19.3211 O   0  0  0  0  0  0  0  0  0  0  0  0
    9.4727  -16.3418   23.1128 N   0  0  0  0  0  0  0  0  0  0  0  0
    9.1360  -15.2358   23.9749 C   0  0  1  0  0  0  0  0  0  0  0  0
    7.7435  -15.1733   24.4608 C   0  0  0  0  0  0  0  0  0  0  0  0
    7.3807  -14.0157   25.2855 C   0  0  0  0  0  0  0  0  0  0  0  0
    6.6098  -14.0874   26.4231 C   0  0  0  0  0  0  0  0  0  0  0  0
    6.2995  -12.9564   27.1491 C   0  0  0  0  0  0  0  0  0  0  0  0
    6.7544  -11.7091   26.7561 C   0  0  0  0  0  0  0  0  0  0  0  0
    7.5169  -11.6354   25.6316 C   0  0  0  0  0  0  0  0  0  0  0  0
    7.8245  -12.7575   24.9118 C   0  0  0  0  0  0  0  0  0  0  0  0
   10.0605  -15.3069   25.1392 C   0  0  0  0  0  0  0  0  0  0  0  0
   10.9882  -14.4715   25.2726 O   0  0  0  0  0  0  0  0  0  0  0  0
   10.6066  -13.8742   27.3519 C   0  0  0  0  0  0  0  0  0  0  0  0
   10.4196  -15.1433   28.1418 C   0  0  1  0  0  0  0  0  0  0  0  0
    9.0619  -15.2451   28.5139 O   0  0  0  0  0  0  0  0  0  0  0  0
   10.7660  -16.3715   27.3107 C   0  0  2  0  0  0  0  0  0  0  0  0
    9.9171  -16.3150   26.1220 N   0  0  0  0  0  0  0  0  0  0  0  0
   10.4537  -17.6215   28.0163 C   0  0  0  0  0  0  0  0  0  0  0  0
   11.1455  -18.0738   29.1275 O   0  0  0  0  0  0  0  0  0  0  0  0
    9.5022  -18.3272   27.5899 O   0  0  0  0  0  0  0  0  0  0  0  0
  2  1  1  6
  2  3  1  0
  4  8  1  0
  4  3  1  0
  5  4  2  0
  6  2  1  0
  7  6  2  0
  9  6  1  0
 10 11  1  1
 10  9  1  0
 11 12  1  0
 12 17  2  0
 13 14  2  0
 13 12  1  0
 14 15  1  0
 15 16  2  0
 17 16  1  0
 18 24  1  0
 18 10  1  0
 19 18  2  0
 21 20  1  6
 21 22  1  0
 23 21  1  0
 23 24  1  6
 25 23  1  0
 25 26  1  0
 27 25  2  0
M  END
$$$$
