DFT.pdb
     RDKit          3D

 27 27  0  0  1  0  0  0  0  0999 V2000
    5.7009  -16.0415   21.5600 N   0  0  0  0  0  0  0  0  0  0  0  0
    7.0822  -15.8686   21.2145 C   0  0  1  0  0  0  0  0  0  0  0  0
    7.3428  -14.8703   20.1382 C   0  0  0  0  0  0  0  0  0  0  0  0
    8.3603  -15.3342   19.1809 C   0  0  0  0  0  0  0  0  0  0  0  0
    8.8053  -14.5353   18.3213 O   0  0  0  0  0  0  0  0  0  0  0  0
    7.9329  -15.7051   22.4063 C   0  0  0  0  0  0  0  0  0  0  0  0
    9.1613  -15.4228   22.3400 O   0  0  0  0  0  0  0  0  0  0  0  0
    8.8354  -16.6105   19.2001 O   0  0  0  0  0  0  0  0  0  0  0  0
    7.3966  -15.8631   23.6902 N   0  0  0  0  0  0  0  0  0  0  0  0
    8.1562  -15.7661   24.9123 C   0  0  1  0  0  0  0  0  0  0  0  0
    7.4337  -15.2844   26.1060 C   0  0  0  0  0  0  0  0  0  0  0  0
    7.1945  -13.8400   26.1978 C   0  0  0  0  0  0  0  0  0  0  0  0
    5.9578  -13.2721   26.4017 C   0  0  0  0  0  0  0  0  0  0  0  0
    5.8022  -11.9033   26.4707 C   0  0  0  0  0  0  0  0  0  0  0  0
    6.8875  -11.0541   26.3368 C   0  0  0  0  0  0  0  0  0  0  0  0
    8.1115  -11.6130   26.1352 C   0  0  0  0  0  0  0  0  0  0  0  0
    8.2655  -12.9708   26.0668 C   0  0  0  0  0  0  0  0  0  0  0  0
    8.7026  -17.1240   25.1827 C   0  0  0  0  0  0  0  0  0  0  0  0
    7.9346  -18.1062   25.3293 O   0  0  0  0  0  0  0  0  0  0  0  0
   10.9803  -18.7936   22.9828 C   0  0  0  0  0  0  0  0  0  0  0  0
   11.6602  -18.8737   24.3247 C   0  0  1  0  0  0  0  0  0  0  0  0
   12.6197  -17.8416   24.4047 O   0  0  0  0  0  0  0  0  0  0  0  0
   10.6686  -18.6743   25.4631 C   0  0  2  0  0  0  0  0  0  0  0  0
   10.0977  -17.3409   25.2807 N   0  0  0  0  0  0  0  0  0  0  0  0
   11.3248  -18.6966   26.7772 C   0  0  0  0  0  0  0  0  0  0  0  0
   11.4605  -17.5840   27.5907 O   0  0  0  0  0  0  0  0  0  0  0  0
   11.7933  -19.7886   27.1931 O   0  0  0  0  0  0  0  0  0  0  0  0
  2  1  1  1
  2  3  1  0
  4  8  1  0
  4  3  1  0
  5  4  2  0
  6  2  1  0
  7  6  2  0
  9  6  1  0
 10 11  1  1
 10  9  1  0
 11 12  1  0
 12 17  2  0
 13 14  2  0
 13 12  1  0
 14 15  1  0
 15 16  2  0
 17 16  1  0
 18 24  1  0
 18 10  1  0
 19 18  2  0
 21 20  1  6
 21 22  1  0
 23 21  1  0
 23 24  1  6
 25 23  1  0
 25 26  1  0
 27 25  2  0
M  END
$$$$
