DFT.pdb
     RDKit          3D

 27 27  0  0  1  0  0  0  0  0999 V2000
    9.2594  -18.4342   20.0130 N   0  0  0  0  0  0  0  0  0  0  0  0
   10.4895  -17.8886   20.5093 C   0  0  1  0  0  0  0  0  0  0  0  0
   11.3255  -17.1900   19.4914 C   0  0  0  0  0  0  0  0  0  0  0  0
   11.7086  -18.0760   18.3800 C   0  0  0  0  0  0  0  0  0  0  0  0
   12.3755  -17.6104   17.4242 O   0  0  0  0  0  0  0  0  0  0  0  0
   10.2921  -17.1245   21.7535 C   0  0  0  0  0  0  0  0  0  0  0  0
   11.1969  -16.4158   22.2753 O   0  0  0  0  0  0  0  0  0  0  0  0
   11.3593  -19.3923   18.3579 O   0  0  0  0  0  0  0  0  0  0  0  0
    9.0621  -17.1591   22.4219 N   0  0  0  0  0  0  0  0  0  0  0  0
    8.7320  -16.3526   23.5711 C   0  0  1  0  0  0  0  0  0  0  0  0
    7.5096  -15.5307   23.4757 C   0  0  0  0  0  0  0  0  0  0  0  0
    7.4719  -14.5199   22.4132 C   0  0  0  0  0  0  0  0  0  0  0  0
    7.0556  -14.7667   21.1250 C   0  0  0  0  0  0  0  0  0  0  0  0
    7.0523  -13.7702   20.1713 C   0  0  0  0  0  0  0  0  0  0  0  0
    7.4686  -12.4862   20.4795 C   0  0  0  0  0  0  0  0  0  0  0  0
    7.8806  -12.2394   21.7526 C   0  0  0  0  0  0  0  0  0  0  0  0
    7.8838  -13.2282   22.6983 C   0  0  0  0  0  0  0  0  0  0  0  0
    8.6088  -17.2854   24.7245 C   0  0  0  0  0  0  0  0  0  0  0  0
    7.5831  -17.9950   24.8679 O   0  0  0  0  0  0  0  0  0  0  0  0
   12.0161  -18.9285   25.4958 C   0  0  0  0  0  0  0  0  0  0  0  0
   10.6783  -19.5434   25.8146 C   0  0  1  0  0  0  0  0  0  0  0  0
   10.8847  -20.6569   26.6571 O   0  0  0  0  0  0  0  0  0  0  0  0
    9.7779  -18.5629   26.5542 C   0  0  2  0  0  0  0  0  0  0  0  0
    9.6421  -17.3952   25.6852 N   0  0  0  0  0  0  0  0  0  0  0  0
   10.3772  -18.1063   27.8153 C   0  0  0  0  0  0  0  0  0  0  0  0
   10.7813  -16.8026   28.0498 O   0  0  0  0  0  0  0  0  0  0  0  0
   10.5353  -18.9453   28.7405 O   0  0  0  0  0  0  0  0  0  0  0  0
  2  1  1  6
  2  3  1  0
  4  8  1  0
  4  3  1  0
  5  4  2  0
  6  2  1  0
  7  6  2  0
  9  6  1  0
 10 11  1  6
 10  9  1  0
 11 12  1  0
 12 17  2  0
 13 14  2  0
 13 12  1  0
 14 15  1  0
 15 16  2  0
 17 16  1  0
 18 24  1  0
 18 10  1  0
 19 18  2  0
 21 20  1  1
 21 22  1  0
 23 21  1  0
 23 24  1  6
 25 23  1  0
 25 26  1  0
 27 25  2  0
M  END
$$$$
