DFT.pdb
     RDKit          3D

 27 27  0  0  1  0  0  0  0  0999 V2000
   10.5965  -16.6229   19.7356 N   0  0  0  0  0  0  0  0  0  0  0  0
    9.3864  -16.8021   20.4843 C   0  0  1  0  0  0  0  0  0  0  0  0
    8.8811  -18.2038   20.5400 C   0  0  0  0  0  0  0  0  0  0  0  0
    8.6242  -18.7585   19.2008 C   0  0  0  0  0  0  0  0  0  0  0  0
    8.8578  -18.0544   18.1885 O   0  0  0  0  0  0  0  0  0  0  0  0
    9.4431  -16.1301   21.7942 C   0  0  0  0  0  0  0  0  0  0  0  0
   10.5125  -15.9941   22.4508 O   0  0  0  0  0  0  0  0  0  0  0  0
    8.1382  -20.0189   19.0269 O   0  0  0  0  0  0  0  0  0  0  0  0
    8.2821  -15.6057   22.3755 N   0  0  0  0  0  0  0  0  0  0  0  0
    8.2351  -14.9420   23.6550 C   0  0  1  0  0  0  0  0  0  0  0  0
    7.1639  -13.9445   23.8461 C   0  0  0  0  0  0  0  0  0  0  0  0
    7.0508  -13.3405   25.1781 C   0  0  0  0  0  0  0  0  0  0  0  0
    6.0774  -13.6655   26.0949 C   0  0  0  0  0  0  0  0  0  0  0  0
    6.0243  -13.0524   27.3293 C   0  0  0  0  0  0  0  0  0  0  0  0
    6.9508  -12.0878   27.6873 C   0  0  0  0  0  0  0  0  0  0  0  0
    7.9145  -11.7646   26.7828 C   0  0  0  0  0  0  0  0  0  0  0  0
    7.9667  -12.3730   25.5584 C   0  0  0  0  0  0  0  0  0  0  0  0
    8.1022  -16.0097   24.6836 C   0  0  0  0  0  0  0  0  0  0  0  0
    7.1849  -16.8633   24.6062 O   0  0  0  0  0  0  0  0  0  0  0  0
    8.7654  -18.6476   24.5817 C   0  0  0  0  0  0  0  0  0  0  0  0
    9.6298  -18.3940   25.7892 C   0  0  1  0  0  0  0  0  0  0  0  0
   10.9151  -18.0110   25.3494 O   0  0  0  0  0  0  0  0  0  0  0  0
    9.0748  -17.2609   26.6420 C   0  0  2  0  0  0  0  0  0  0  0  0
    9.0043  -16.0889   25.7712 N   0  0  0  0  0  0  0  0  0  0  0  0
    9.9649  -16.9253   27.7613 C   0  0  0  0  0  0  0  0  0  0  0  0
   10.0939  -17.6985   28.9030 O   0  0  0  0  0  0  0  0  0  0  0  0
   10.6532  -15.8740   27.6836 O   0  0  0  0  0  0  0  0  0  0  0  0
  2  1  1  1
  2  3  1  0
  4  8  1  0
  4  3  1  0
  5  4  2  0
  6  2  1  0
  7  6  2  0
  9  6  1  0
 10 11  1  6
 10  9  1  0
 11 12  1  0
 12 17  2  0
 13 14  2  0
 13 12  1  0
 14 15  1  0
 15 16  2  0
 17 16  1  0
 18 24  1  0
 18 10  1  0
 19 18  2  0
 21 20  1  6
 21 22  1  0
 23 21  1  0
 23 24  1  6
 25 23  1  0
 25 26  1  0
 27 25  2  0
M  END
$$$$
