DFT.pdb
     RDKit          3D

 27 27  0  0  1  0  0  0  0  0999 V2000
    8.9895  -17.2615   20.0074 N   0  0  0  0  0  0  0  0  0  0  0  0
   10.2888  -16.9273   20.5142 C   0  0  1  0  0  0  0  0  0  0  0  0
   11.2655  -16.4623   19.4881 C   0  0  0  0  0  0  0  0  0  0  0  0
   11.6987  -17.5503   18.5960 C   0  0  0  0  0  0  0  0  0  0  0  0
   11.3618  -18.7307   18.8573 O   0  0  0  0  0  0  0  0  0  0  0  0
   10.2112  -16.0646   21.7061 C   0  0  0  0  0  0  0  0  0  0  0  0
   11.2323  -15.6148   22.2963 O   0  0  0  0  0  0  0  0  0  0  0  0
   12.4578  -17.3129   17.4904 O   0  0  0  0  0  0  0  0  0  0  0  0
    8.9694  -15.7044   22.2437 N   0  0  0  0  0  0  0  0  0  0  0  0
    8.7905  -14.9855   23.4811 C   0  0  1  0  0  0  0  0  0  0  0  0
    7.5933  -14.1281   23.5832 C   0  0  0  0  0  0  0  0  0  0  0  0
    7.3494  -13.4819   24.8774 C   0  0  0  0  0  0  0  0  0  0  0  0
    8.0769  -12.4184   25.3604 C   0  0  0  0  0  0  0  0  0  0  0  0
    7.7987  -11.8620   26.5915 C   0  0  0  0  0  0  0  0  0  0  0  0
    6.7760  -12.3563   27.3832 C   0  0  0  0  0  0  0  0  0  0  0  0
    6.0550  -13.4077   26.9079 C   0  0  0  0  0  0  0  0  0  0  0  0
    6.3313  -13.9594   25.6868 C   0  0  0  0  0  0  0  0  0  0  0  0
    8.7592  -16.0052   24.5650 C   0  0  0  0  0  0  0  0  0  0  0  0
    7.7960  -16.8041   24.6655 O   0  0  0  0  0  0  0  0  0  0  0  0
   11.7891  -18.9365   26.9349 C   0  0  0  0  0  0  0  0  0  0  0  0
   11.3907  -17.8208   26.0044 C   0  0  1  0  0  0  0  0  0  0  0  0
   11.3449  -18.3281   24.6881 O   0  0  0  0  0  0  0  0  0  0  0  0
   10.0067  -17.2826   26.3423 C   0  0  2  0  0  0  0  0  0  0  0  0
    9.8117  -16.0992   25.5065 N   0  0  0  0  0  0  0  0  0  0  0  0
    9.9082  -16.8533   27.7437 C   0  0  0  0  0  0  0  0  0  0  0  0
   10.3679  -15.6333   28.2109 O   0  0  0  0  0  0  0  0  0  0  0  0
    9.3758  -17.6366   28.5731 O   0  0  0  0  0  0  0  0  0  0  0  0
  2  1  1  6
  2  3  1  0
  4  8  1  0
  4  3  1  0
  5  4  2  0
  6  2  1  0
  7  6  2  0
  9  6  1  0
 10 11  1  6
 10  9  1  0
 11 12  1  0
 12 17  2  0
 13 14  2  0
 13 12  1  0
 14 15  1  0
 15 16  2  0
 17 16  1  0
 18 24  1  0
 18 10  1  0
 19 18  2  0
 21 20  1  1
 21 22  1  0
 23 21  1  0
 23 24  1  6
 25 23  1  0
 25 26  1  0
 27 25  2  0
M  END
$$$$
