DFT.pdb
     RDKit          3D

 27 27  0  0  1  0  0  0  0  0999 V2000
    9.0507  -17.2651   20.0156 N   0  0  0  0  0  0  0  0  0  0  0  0
   10.3385  -16.9954   20.5866 C   0  0  1  0  0  0  0  0  0  0  0  0
   11.3420  -16.4297   19.6400 C   0  0  0  0  0  0  0  0  0  0  0  0
   11.4960  -17.2547   18.4306 C   0  0  0  0  0  0  0  0  0  0  0  0
   10.5148  -17.9116   18.0053 O   0  0  0  0  0  0  0  0  0  0  0  0
   10.2348  -16.2647   21.8617 C   0  0  0  0  0  0  0  0  0  0  0  0
   11.2415  -15.9314   22.5464 O   0  0  0  0  0  0  0  0  0  0  0  0
   12.6772  -17.3269   17.7563 O   0  0  0  0  0  0  0  0  0  0  0  0
    8.9828  -15.9056   22.3760 N   0  0  0  0  0  0  0  0  0  0  0  0
    8.7817  -15.1487   23.5871 C   0  0  1  0  0  0  0  0  0  0  0  0
    7.6151  -14.2450   23.6186 C   0  0  0  0  0  0  0  0  0  0  0  0
    7.3893  -13.4975   24.8604 C   0  0  0  0  0  0  0  0  0  0  0  0
    8.1500  -12.4253   25.2672 C   0  0  0  0  0  0  0  0  0  0  0  0
    7.8871  -11.7708   26.4526 C   0  0  0  0  0  0  0  0  0  0  0  0
    6.8470  -12.1719   27.2737 C   0  0  0  0  0  0  0  0  0  0  0  0
    6.0932  -13.2317   26.8739 C   0  0  0  0  0  0  0  0  0  0  0  0
    6.3543  -13.8807   25.6980 C   0  0  0  0  0  0  0  0  0  0  0  0
    8.6677  -16.1381   24.6933 C   0  0  0  0  0  0  0  0  0  0  0  0
    7.6476  -16.8615   24.8032 O   0  0  0  0  0  0  0  0  0  0  0  0
   10.1775  -19.0574   24.9135 C   0  0  0  0  0  0  0  0  0  0  0  0
   10.6527  -18.4111   26.1886 C   0  0  1  0  0  0  0  0  0  0  0  0
   11.8950  -17.7885   25.9410 O   0  0  0  0  0  0  0  0  0  0  0  0
    9.6824  -17.3374   26.6627 C   0  0  2  0  0  0  0  0  0  0  0  0
    9.7037  -16.2875   25.6458 N   0  0  0  0  0  0  0  0  0  0  0  0
   10.1071  -16.7307   27.9313 C   0  0  0  0  0  0  0  0  0  0  0  0
   10.1039  -17.3981   29.1449 O   0  0  0  0  0  0  0  0  0  0  0  0
   10.4978  -15.5339   27.9207 O   0  0  0  0  0  0  0  0  0  0  0  0
  2  1  1  6
  2  3  1  0
  4  8  1  0
  4  3  1  0
  5  4  2  0
  6  2  1  0
  7  6  2  0
  9  6  1  0
 10 11  1  6
 10  9  1  0
 11 12  1  0
 12 17  2  0
 13 14  2  0
 13 12  1  0
 14 15  1  0
 15 16  2  0
 17 16  1  0
 18 24  1  0
 18 10  1  0
 19 18  2  0
 21 20  1  6
 21 22  1  0
 23 21  1  0
 23 24  1  6
 25 23  1  0
 25 26  1  0
 27 25  2  0
M  END
$$$$
