DFT.pdb
     RDKit          3D

 27 27  0  0  1  0  0  0  0  0999 V2000
    8.4549  -17.1996   19.9136 N   0  0  0  0  0  0  0  0  0  0  0  0
    9.7677  -17.0969   20.4819 C   0  0  1  0  0  0  0  0  0  0  0  0
   10.8578  -16.8156   19.5044 C   0  0  0  0  0  0  0  0  0  0  0  0
   10.6481  -17.5046   18.2206 C   0  0  0  0  0  0  0  0  0  0  0  0
   10.2132  -18.6818   18.2183 O   0  0  0  0  0  0  0  0  0  0  0  0
    9.7875  -16.2287   21.6722 C   0  0  0  0  0  0  0  0  0  0  0  0
   10.8457  -15.7165   22.1314 O   0  0  0  0  0  0  0  0  0  0  0  0
   10.9133  -16.8997   17.0294 O   0  0  0  0  0  0  0  0  0  0  0  0
    8.6023  -15.9339   22.3573 N   0  0  0  0  0  0  0  0  0  0  0  0
    8.5349  -15.2075   23.6014 C   0  0  1  0  0  0  0  0  0  0  0  0
    7.3928  -14.2880   23.7718 C   0  0  0  0  0  0  0  0  0  0  0  0
    7.2635  -13.6264   25.0747 C   0  0  0  0  0  0  0  0  0  0  0  0
    6.3952  -14.0283   26.0637 C   0  0  0  0  0  0  0  0  0  0  0  0
    6.3188  -13.3551   27.2651 C   0  0  0  0  0  0  0  0  0  0  0  0
    7.1151  -12.2505   27.5160 C   0  0  0  0  0  0  0  0  0  0  0  0
    7.9746  -11.8510   26.5399 C   0  0  0  0  0  0  0  0  0  0  0  0
    8.0500  -12.5190   25.3482 C   0  0  0  0  0  0  0  0  0  0  0  0
    8.5137  -16.2250   24.6877 C   0  0  0  0  0  0  0  0  0  0  0  0
    7.4981  -16.9382   24.8776 O   0  0  0  0  0  0  0  0  0  0  0  0
    9.9511  -19.1503   24.6529 C   0  0  0  0  0  0  0  0  0  0  0  0
   10.5761  -18.5773   25.8980 C   0  0  1  0  0  0  0  0  0  0  0  0
   11.8096  -17.9857   25.5503 O   0  0  0  0  0  0  0  0  0  0  0  0
    9.6993  -17.4944   26.5124 C   0  0  2  0  0  0  0  0  0  0  0  0
    9.6347  -16.4132   25.5307 N   0  0  0  0  0  0  0  0  0  0  0  0
   10.2851  -16.9403   27.7403 C   0  0  0  0  0  0  0  0  0  0  0  0
   10.3595  -17.6300   28.9389 O   0  0  0  0  0  0  0  0  0  0  0  0
   10.7481  -15.7700   27.7067 O   0  0  0  0  0  0  0  0  0  0  0  0
  2  1  1  6
  2  3  1  0
  4  8  1  0
  4  3  1  0
  5  4  2  0
  6  2  1  0
  7  6  2  0
  9  6  1  0
 10 11  1  6
 10  9  1  0
 11 12  1  0
 12 17  2  0
 13 14  2  0
 13 12  1  0
 14 15  1  0
 15 16  2  0
 17 16  1  0
 18 24  1  0
 18 10  1  0
 19 18  2  0
 21 20  1  6
 21 22  1  0
 23 21  1  0
 23 24  1  6
 25 23  1  0
 25 26  1  0
 27 25  2  0
M  END
$$$$
