DFT.pdb
     RDKit          3D

 27 27  0  0  1  0  0  0  0  0999 V2000
    9.5116  -16.3665   18.7564 N   0  0  0  0  0  0  0  0  0  0  0  0
    9.0873  -17.0156   19.9630 C   0  0  1  0  0  0  0  0  0  0  0  0
    9.5467  -18.4258   20.1155 C   0  0  0  0  0  0  0  0  0  0  0  0
    9.1205  -19.2765   18.9923 C   0  0  0  0  0  0  0  0  0  0  0  0
    7.9828  -19.1075   18.4901 O   0  0  0  0  0  0  0  0  0  0  0  0
    9.3168  -16.1757   21.1516 C   0  0  0  0  0  0  0  0  0  0  0  0
   10.4655  -15.8005   21.5162 O   0  0  0  0  0  0  0  0  0  0  0  0
    9.9278  -20.2462   18.4794 O   0  0  0  0  0  0  0  0  0  0  0  0
    8.2413  -15.7536   21.9427 N   0  0  0  0  0  0  0  0  0  0  0  0
    8.3721  -15.0315   23.1842 C   0  0  1  0  0  0  0  0  0  0  0  0
    7.2417  -14.1638   23.5693 C   0  0  0  0  0  0  0  0  0  0  0  0
    7.3422  -13.4798   24.8631 C   0  0  0  0  0  0  0  0  0  0  0  0
    8.2348  -12.4687   25.1364 C   0  0  0  0  0  0  0  0  0  0  0  0
    8.2813  -11.8725   26.3794 C   0  0  0  0  0  0  0  0  0  0  0  0
    7.4296  -12.2726   27.3950 C   0  0  0  0  0  0  0  0  0  0  0  0
    6.5459  -13.2720   27.1274 C   0  0  0  0  0  0  0  0  0  0  0  0
    6.5001  -13.8632   25.8944 C   0  0  0  0  0  0  0  0  0  0  0  0
    8.5953  -16.0493   24.2471 C   0  0  0  0  0  0  0  0  0  0  0  0
    7.7342  -16.9330   24.4789 O   0  0  0  0  0  0  0  0  0  0  0  0
   12.0796  -18.5078   26.6569 C   0  0  0  0  0  0  0  0  0  0  0  0
   11.5792  -17.4693   25.6870 C   0  0  1  0  0  0  0  0  0  0  0  0
   11.6822  -17.9895   24.3789 O   0  0  0  0  0  0  0  0  0  0  0  0
   10.1153  -17.1335   25.9385 C   0  0  2  0  0  0  0  0  0  0  0  0
    9.7805  -16.0463   25.0204 N   0  0  0  0  0  0  0  0  0  0  0  0
    9.8882  -16.6425   27.3043 C   0  0  0  0  0  0  0  0  0  0  0  0
   10.4183  -15.4621   27.7978 O   0  0  0  0  0  0  0  0  0  0  0  0
    9.1705  -17.3314   28.0758 O   0  0  0  0  0  0  0  0  0  0  0  0
  2  1  1  6
  2  3  1  0
  4  8  1  0
  4  3  1  0
  5  4  2  0
  6  2  1  0
  7  6  2  0
  9  6  1  0
 10 11  1  1
 10  9  1  0
 11 12  1  0
 12 17  2  0
 13 14  2  0
 13 12  1  0
 14 15  1  0
 15 16  2  0
 17 16  1  0
 18 24  1  0
 18 10  1  0
 19 18  2  0
 21 20  1  1
 21 22  1  0
 23 21  1  0
 23 24  1  6
 25 23  1  0
 25 26  1  0
 27 25  2  0
M  END
$$$$
