DFT.pdb
     RDKit          3D

 27 27  0  0  1  0  0  0  0  0999 V2000
   10.7382  -16.4883   19.5247 N   0  0  0  0  0  0  0  0  0  0  0  0
    9.7893  -16.9711   20.4857 C   0  0  1  0  0  0  0  0  0  0  0  0
    9.7929  -18.4482   20.6883 C   0  0  0  0  0  0  0  0  0  0  0  0
    9.7963  -19.1865   19.4148 C   0  0  0  0  0  0  0  0  0  0  0  0
   10.4231  -20.2709   19.3343 O   0  0  0  0  0  0  0  0  0  0  0  0
    9.8244  -16.1918   21.7355 C   0  0  0  0  0  0  0  0  0  0  0  0
   10.8974  -15.7869   22.2628 O   0  0  0  0  0  0  0  0  0  0  0  0
    9.1364  -18.7258   18.3160 O   0  0  0  0  0  0  0  0  0  0  0  0
    8.6379  -15.8650   22.4036 N   0  0  0  0  0  0  0  0  0  0  0  0
    8.5675  -15.0749   23.6081 C   0  0  1  0  0  0  0  0  0  0  0  0
    7.3971  -14.1869   23.7517 C   0  0  0  0  0  0  0  0  0  0  0  0
    7.2794  -13.4442   25.0112 C   0  0  0  0  0  0  0  0  0  0  0  0
    8.1298  -12.4328   25.3953 C   0  0  0  0  0  0  0  0  0  0  0  0
    7.9662  -11.7795   26.5991 C   0  0  0  0  0  0  0  0  0  0  0  0
    6.9387  -12.1205   27.4621 C   0  0  0  0  0  0  0  0  0  0  0  0
    6.0962  -13.1201   27.0847 C   0  0  0  0  0  0  0  0  0  0  0  0
    6.2589  -13.7680   25.8906 C   0  0  0  0  0  0  0  0  0  0  0  0
    8.6015  -16.0321   24.7475 C   0  0  0  0  0  0  0  0  0  0  0  0
    7.6927  -16.8857   24.8945 O   0  0  0  0  0  0  0  0  0  0  0  0
   10.7289  -18.5888   25.0168 C   0  0  0  0  0  0  0  0  0  0  0  0
   10.9848  -17.8850   26.3240 C   0  0  1  0  0  0  0  0  0  0  0  0
   12.1015  -17.0363   26.1663 O   0  0  0  0  0  0  0  0  0  0  0  0
    9.7991  -17.0205   26.7313 C   0  0  2  0  0  0  0  0  0  0  0  0
    9.6563  -16.0039   25.6906 N   0  0  0  0  0  0  0  0  0  0  0  0
   10.0363  -16.3210   28.0010 C   0  0  0  0  0  0  0  0  0  0  0  0
   10.1172  -16.9568   29.2287 O   0  0  0  0  0  0  0  0  0  0  0  0
   10.1747  -15.0698   27.9777 O   0  0  0  0  0  0  0  0  0  0  0  0
  2  1  1  6
  2  3  1  0
  4  8  1  0
  4  3  1  0
  5  4  2  0
  6  2  1  0
  7  6  2  0
  9  6  1  0
 10 11  1  6
 10  9  1  0
 11 12  1  0
 12 17  2  0
 13 14  2  0
 13 12  1  0
 14 15  1  0
 15 16  2  0
 17 16  1  0
 18 24  1  0
 18 10  1  0
 19 18  2  0
 21 20  1  6
 21 22  1  0
 23 21  1  0
 23 24  1  6
 25 23  1  0
 25 26  1  0
 27 25  2  0
M  END
$$$$
