DYY.pdb
     RDKit          3D

 33 34  0  0  1  0  0  0  0  0999 V2000
   22.6308    1.6841  -15.1892 N   0  0  0  0  0  0  0  0  0  0  0  0
   22.3067    1.6043  -13.7882 C   0  0  1  0  0  0  0  0  0  0  0  0
   21.8292    0.2331  -13.3830 C   0  0  0  0  0  0  0  0  0  0  0  0
   20.5696   -0.0507  -14.1141 C   0  0  0  0  0  0  0  0  0  0  0  0
   19.5881    0.7211  -14.0736 O   0  0  0  0  0  0  0  0  0  0  0  0
   23.4855    1.9601  -12.9368 C   0  0  0  0  0  0  0  0  0  0  0  0
   24.6025    1.4207  -13.1599 O   0  0  0  0  0  0  0  0  0  0  0  0
   20.4288   -1.2056  -14.8862 O   0  0  0  0  0  0  0  0  0  0  0  0
   28.5549    7.4180   -8.2363 O   0  0  0  0  0  0  0  0  0  0  0  0
   27.5974    6.7426   -8.9841 C   0  0  0  0  0  0  0  0  0  0  0  0
   27.9993    6.0577  -10.1031 C   0  0  0  0  0  0  0  0  0  0  0  0
   27.0559    5.3897  -10.8438 C   0  0  0  0  0  0  0  0  0  0  0  0
   25.7186    5.4088  -10.4641 C   0  0  0  0  0  0  0  0  0  0  0  0
   24.7759    4.6988  -11.3132 C   0  0  0  0  0  0  0  0  0  0  0  0
   24.5734    3.2411  -11.0410 C   0  0  2  0  0  0  0  0  0  0  0  0
   23.4068    2.8793  -11.8855 N   0  0  0  0  0  0  0  0  0  0  0  0
   24.1693    2.8905   -9.6695 C   0  0  0  0  0  0  0  0  0  0  0  0
   22.9620    3.0694   -9.2620 O   0  0  0  0  0  0  0  0  0  0  0  0
   25.3355    6.1010   -9.3390 C   0  0  0  0  0  0  0  0  0  0  0  0
   26.2751    6.7644   -8.6043 C   0  0  0  0  0  0  0  0  0  0  0  0
   30.6566    0.3847   -6.7950 O   0  0  0  0  0  0  0  0  0  0  0  0
   29.2580    0.4684   -6.8241 C   0  0  0  0  0  0  0  0  0  0  0  0
   28.5698    0.7208   -5.6624 C   0  0  0  0  0  0  0  0  0  0  0  0
   27.1959    0.8067   -5.6694 C   0  0  0  0  0  0  0  0  0  0  0  0
   26.4358    0.6455   -6.8319 C   0  0  0  0  0  0  0  0  0  0  0  0
   24.9641    0.7328   -6.8261 C   0  0  0  0  0  0  0  0  0  0  0  0
   24.5193    2.1060   -7.2922 C   0  0  2  0  0  0  0  0  0  0  0  0
   25.0189    2.3295   -8.6657 N   0  0  0  0  0  0  0  0  0  0  0  0
   25.1115    3.1172   -6.4240 C   0  0  0  0  0  0  0  0  0  0  0  0
   26.1120    3.8081   -6.7434 O   0  0  0  0  0  0  0  0  0  0  0  0
   27.1651    0.3917   -7.9875 C   0  0  0  0  0  0  0  0  0  0  0  0
   28.5404    0.3057   -7.9824 C   0  0  0  0  0  0  0  0  0  0  0  0
   24.5772    3.3640   -5.1760 O   0  0  0  0  0  0  0  0  0  0  0  0
  2  1  1  6
  2  3  1  0
  4  8  1  0
  4  3  1  0
  5  4  2  0
  6 16  1  0
  6  2  1  0
  7  6  2  0
  9 10  1  0
 10 11  2  0
 11 12  1  0
 13 12  2  0
 13 14  1  0
 15 14  1  1
 15 16  1  0
 17 28  1  0
 17 15  1  0
 18 17  2  0
 19 13  1  0
 20 10  1  0
 20 19  2  0
 21 22  1  0
 22 23  2  0
 23 24  1  0
 25 24  2  0
 25 26  1  0
 27 26  1  1
 27 29  1  0
 27 28  1  0
 29 33  1  0
 30 29  2  0
 31 25  1  0
 32 22  1  0
 32 31  2  0
M  END
$$$$
