DYY.pdb
     RDKit          3D

 33 34  0  0  1  0  0  0  0  0999 V2000
   22.6258  -10.7452  -16.0447 N   0  0  0  0  0  0  0  0  0  0  0  0
   22.7255   -9.3578  -15.6712 C   0  0  1  0  0  0  0  0  0  0  0  0
   23.9586   -8.6960  -16.2314 C   0  0  0  0  0  0  0  0  0  0  0  0
   25.1468   -9.3742  -15.6570 C   0  0  0  0  0  0  0  0  0  0  0  0
   25.0504  -10.3965  -14.9454 O   0  0  0  0  0  0  0  0  0  0  0  0
   21.5291   -8.5841  -16.1307 C   0  0  0  0  0  0  0  0  0  0  0  0
   20.9157   -8.9426  -17.1717 O   0  0  0  0  0  0  0  0  0  0  0  0
   26.4359   -8.8915  -15.8913 O   0  0  0  0  0  0  0  0  0  0  0  0
   13.5738   -5.9431  -16.9446 O   0  0  0  0  0  0  0  0  0  0  0  0
   14.8622   -6.3861  -16.6688 C   0  0  0  0  0  0  0  0  0  0  0  0
   15.2084   -6.6309  -15.3638 C   0  0  0  0  0  0  0  0  0  0  0  0
   16.4802   -7.0685  -15.0881 C   0  0  0  0  0  0  0  0  0  0  0  0
   17.3979   -7.2592  -16.1149 C   0  0  0  0  0  0  0  0  0  0  0  0
   18.7320   -7.7000  -15.7411 C   0  0  0  0  0  0  0  0  0  0  0  0
   19.8445   -6.7086  -15.8807 C   0  0  2  0  0  0  0  0  0  0  0  0
   21.0493   -7.4613  -15.4486 N   0  0  0  0  0  0  0  0  0  0  0  0
   19.7864   -5.5427  -14.9838 C   0  0  0  0  0  0  0  0  0  0  0  0
   19.9536   -5.6671  -13.7140 O   0  0  0  0  0  0  0  0  0  0  0  0
   17.0317   -7.0086  -17.4168 C   0  0  0  0  0  0  0  0  0  0  0  0
   15.7668   -6.5736  -17.6884 C   0  0  0  0  0  0  0  0  0  0  0  0
   20.3987   -0.0707  -19.9308 O   0  0  0  0  0  0  0  0  0  0  0  0
   20.4686   -0.5951  -18.6330 C   0  0  0  0  0  0  0  0  0  0  0  0
   19.6900   -0.0524  -17.6399 C   0  0  0  0  0  0  0  0  0  0  0  0
   19.7440   -0.5528  -16.3586 C   0  0  0  0  0  0  0  0  0  0  0  0
   20.5752   -1.6181  -15.9990 C   0  0  0  0  0  0  0  0  0  0  0  0
   20.6297   -2.1412  -14.6217 C   0  0  0  0  0  0  0  0  0  0  0  0
   19.4841   -3.1062  -14.3825 C   0  0  2  0  0  0  0  0  0  0  0  0
   19.5549   -4.1902  -15.3854 N   0  0  0  0  0  0  0  0  0  0  0  0
   18.2216   -2.3996  -14.5667 C   0  0  0  0  0  0  0  0  0  0  0  0
   17.4407   -2.6110  -15.5289 O   0  0  0  0  0  0  0  0  0  0  0  0
   21.3480   -2.1418  -17.0287 C   0  0  0  0  0  0  0  0  0  0  0  0
   21.2951   -1.6425  -18.3119 C   0  0  0  0  0  0  0  0  0  0  0  0
   17.8211   -1.4397  -13.6600 O   0  0  0  0  0  0  0  0  0  0  0  0
  2  1  1  6
  2  3  1  0
  4  8  1  0
  4  3  1  0
  5  4  2  0
  6 16  1  0
  6  2  1  0
  7  6  2  0
  9 10  1  0
 10 11  2  0
 11 12  1  0
 13 12  2  0
 13 14  1  0
 15 14  1  1
 15 16  1  0
 17 28  1  0
 17 15  1  0
 18 17  2  0
 19 13  1  0
 20 10  1  0
 20 19  2  0
 21 22  1  0
 22 23  2  0
 23 24  1  0
 25 24  2  0
 25 26  1  0
 27 26  1  6
 27 29  1  0
 27 28  1  0
 29 33  1  0
 30 29  2  0
 31 25  1  0
 32 22  1  0
 32 31  2  0
M  END
$$$$
