DYY.pdb
     RDKit          3D

 33 34  0  0  1  0  0  0  0  0999 V2000
   21.3773  -21.8417  -13.9407 N   0  0  0  0  0  0  0  0  0  0  0  0
   21.3651  -20.5230  -13.3618 C   0  0  1  0  0  0  0  0  0  0  0  0
   20.5584  -20.4579  -12.0900 C   0  0  0  0  0  0  0  0  0  0  0  0
   19.1544  -20.8099  -12.4165 C   0  0  0  0  0  0  0  0  0  0  0  0
   18.5897  -20.4014  -13.4534 O   0  0  0  0  0  0  0  0  0  0  0  0
   22.7528  -20.0490  -13.0607 C   0  0  0  0  0  0  0  0  0  0  0  0
   22.9214  -18.9714  -12.4293 O   0  0  0  0  0  0  0  0  0  0  0  0
   18.3986  -21.6215  -11.5681 O   0  0  0  0  0  0  0  0  0  0  0  0
   26.1801  -20.6059   -6.7305 O   0  0  0  0  0  0  0  0  0  0  0  0
   26.0503  -20.8391   -8.0947 C   0  0  0  0  0  0  0  0  0  0  0  0
   27.1668  -20.7472   -8.8869 C   0  0  0  0  0  0  0  0  0  0  0  0
   27.0420  -20.9770  -10.2347 C   0  0  0  0  0  0  0  0  0  0  0  0
   25.8052  -21.2969  -10.7835 C   0  0  0  0  0  0  0  0  0  0  0  0
   25.7486  -21.5013  -12.2218 C   0  0  0  0  0  0  0  0  0  0  0  0
   25.2675  -20.3565  -13.0573 C   0  0  2  0  0  0  0  0  0  0  0  0
   23.8935  -20.7567  -13.4534 N   0  0  0  0  0  0  0  0  0  0  0  0
   25.9787  -20.1410  -14.3281 C   0  0  0  0  0  0  0  0  0  0  0  0
   25.7108  -20.8446  -15.3717 O   0  0  0  0  0  0  0  0  0  0  0  0
   24.6977  -21.3845   -9.9726 C   0  0  0  0  0  0  0  0  0  0  0  0
   24.8243  -21.1556   -8.6331 C   0  0  0  0  0  0  0  0  0  0  0  0
   30.6651  -16.9435  -21.0963 O   0  0  0  0  0  0  0  0  0  0  0  0
   30.1696  -17.1558  -19.8027 C   0  0  0  0  0  0  0  0  0  0  0  0
   29.0920  -17.9873  -19.6177 C   0  0  0  0  0  0  0  0  0  0  0  0
   28.5900  -18.2090  -18.3552 C   0  0  0  0  0  0  0  0  0  0  0  0
   29.1333  -17.6148  -17.2120 C   0  0  0  0  0  0  0  0  0  0  0  0
   28.5828  -17.8542  -15.8655 C   0  0  0  0  0  0  0  0  0  0  0  0
   27.6184  -19.0247  -15.8947 C   0  0  2  0  0  0  0  0  0  0  0  0
   27.0018  -19.1694  -14.5588 N   0  0  0  0  0  0  0  0  0  0  0  0
   28.3618  -20.2453  -16.1858 C   0  0  0  0  0  0  0  0  0  0  0  0
   29.0864  -20.8351  -15.3449 O   0  0  0  0  0  0  0  0  0  0  0  0
   30.2218  -16.7803  -17.4372 C   0  0  0  0  0  0  0  0  0  0  0  0
   30.7259  -16.5575  -18.7001 C   0  0  0  0  0  0  0  0  0  0  0  0
   28.2948  -20.8203  -17.4383 O   0  0  0  0  0  0  0  0  0  0  0  0
  2  1  1  1
  2  3  1  0
  4  8  1  0
  4  3  1  0
  5  4  2  0
  6 16  1  0
  6  2  1  0
  7  6  2  0
  9 10  1  0
 10 11  2  0
 11 12  1  0
 13 12  2  0
 13 14  1  0
 15 14  1  6
 15 16  1  0
 17 28  1  0
 17 15  1  0
 18 17  2  0
 19 13  1  0
 20 10  1  0
 20 19  2  0
 21 22  1  0
 22 23  2  0
 23 24  1  0
 25 24  2  0
 25 26  1  0
 27 26  1  1
 27 29  1  0
 27 28  1  0
 29 33  1  0
 30 29  2  0
 31 25  1  0
 32 22  1  0
 32 31  2  0
M  END
$$$$
