DYY.pdb
     RDKit          3D

 33 34  0  0  1  0  0  0  0  0999 V2000
   34.1868  -30.8420  -22.1423 N   0  0  0  0  0  0  0  0  0  0  0  0
   35.2686  -31.3848  -21.3616 C   0  0  1  0  0  0  0  0  0  0  0  0
   36.5018  -30.5188  -21.4028 C   0  0  0  0  0  0  0  0  0  0  0  0
   37.6383  -31.3102  -20.8701 C   0  0  0  0  0  0  0  0  0  0  0  0
   37.5274  -32.5191  -20.5752 O   0  0  0  0  0  0  0  0  0  0  0  0
   34.8692  -31.5630  -19.9298 C   0  0  0  0  0  0  0  0  0  0  0  0
   35.2733  -32.5705  -19.2896 O   0  0  0  0  0  0  0  0  0  0  0  0
   38.8927  -30.7288  -20.6745 O   0  0  0  0  0  0  0  0  0  0  0  0
   39.7630  -30.6039  -15.8443 O   0  0  0  0  0  0  0  0  0  0  0  0
   38.4404  -30.3462  -16.1855 C   0  0  0  0  0  0  0  0  0  0  0  0
   37.4452  -30.9891  -15.4934 C   0  0  0  0  0  0  0  0  0  0  0  0
   36.1378  -30.7367  -15.8281 C   0  0  0  0  0  0  0  0  0  0  0  0
   35.8314  -29.8453  -16.8501 C   0  0  0  0  0  0  0  0  0  0  0  0
   34.4251  -29.6497  -17.1626 C   0  0  0  0  0  0  0  0  0  0  0  0
   33.7052  -30.7865  -17.8179 C   0  0  2  0  0  0  0  0  0  0  0  0
   34.0540  -30.6488  -19.2547 N   0  0  0  0  0  0  0  0  0  0  0  0
   32.2347  -30.7274  -17.7794 C   0  0  0  0  0  0  0  0  0  0  0  0
   31.5885  -29.7771  -18.3584 O   0  0  0  0  0  0  0  0  0  0  0  0
   36.8433  -29.2105  -17.5321 C   0  0  0  0  0  0  0  0  0  0  0  0
   38.1422  -29.4631  -17.1976 C   0  0  0  0  0  0  0  0  0  0  0  0
   23.5811  -31.9248  -17.7745 O   0  0  0  0  0  0  0  0  0  0  0  0
   24.9720  -32.0958  -17.7866 C   0  0  0  0  0  0  0  0  0  0  0  0
   25.5743  -32.8217  -16.7880 C   0  0  0  0  0  0  0  0  0  0  0  0
   26.9392  -33.0013  -16.7814 C   0  0  0  0  0  0  0  0  0  0  0  0
   27.7751  -32.4679  -17.7671 C   0  0  0  0  0  0  0  0  0  0  0  0
   29.2366  -32.6609  -17.7459 C   0  0  0  0  0  0  0  0  0  0  0  0
   29.9134  -31.4650  -17.1036 C   0  0  2  0  0  0  0  0  0  0  0  0
   31.3771  -31.6712  -17.1331 N   0  0  0  0  0  0  0  0  0  0  0  0
   29.4959  -31.3753  -15.7091 C   0  0  0  0  0  0  0  0  0  0  0  0
   29.9213  -32.1390  -14.8057 O   0  0  0  0  0  0  0  0  0  0  0  0
   27.1315  -31.7399  -18.7609 C   0  0  0  0  0  0  0  0  0  0  0  0
   25.7655  -31.5593  -18.7693 C   0  0  0  0  0  0  0  0  0  0  0  0
   28.5878  -30.4146  -15.3135 O   0  0  0  0  0  0  0  0  0  0  0  0
  2  1  1  6
  2  3  1  0
  4  8  1  0
  4  3  1  0
  5  4  2  0
  6 16  1  0
  6  2  1  0
  7  6  2  0
  9 10  1  0
 10 11  2  0
 11 12  1  0
 13 12  2  0
 13 14  1  0
 15 14  1  1
 15 16  1  0
 17 28  1  0
 17 15  1  0
 18 17  2  0
 19 13  1  0
 20 10  1  0
 20 19  2  0
 21 22  1  0
 22 23  2  0
 23 24  1  0
 25 24  2  0
 25 26  1  0
 27 26  1  1
 27 29  1  0
 27 28  1  0
 29 33  1  0
 30 29  2  0
 31 25  1  0
 32 22  1  0
 32 31  2  0
M  END
$$$$
