DYY.pdb
     RDKit          3D

 33 34  0  0  1  0  0  0  0  0999 V2000
   19.8727  -15.0365  -16.6644 N   0  0  0  0  0  0  0  0  0  0  0  0
   19.6750  -13.6194  -16.4998 C   0  0  1  0  0  0  0  0  0  0  0  0
   18.5177  -13.2996  -15.5884 C   0  0  0  0  0  0  0  0  0  0  0  0
   17.3120  -13.9839  -16.1173 C   0  0  0  0  0  0  0  0  0  0  0  0
   17.0910  -14.0910  -17.3423 O   0  0  0  0  0  0  0  0  0  0  0  0
   20.9010  -12.9602  -15.9488 C   0  0  0  0  0  0  0  0  0  0  0  0
   21.7555  -13.6491  -15.3294 O   0  0  0  0  0  0  0  0  0  0  0  0
   16.3645  -14.5426  -15.2572 O   0  0  0  0  0  0  0  0  0  0  0  0
   28.7107   -9.8700  -16.6446 O   0  0  0  0  0  0  0  0  0  0  0  0
   27.3847  -10.2854  -16.6817 C   0  0  0  0  0  0  0  0  0  0  0  0
   26.9335  -11.1338  -15.7023 C   0  0  0  0  0  0  0  0  0  0  0  0
   25.6243  -11.5460  -15.7362 C   0  0  0  0  0  0  0  0  0  0  0  0
   24.7740  -11.1095  -16.7459 C   0  0  0  0  0  0  0  0  0  0  0  0
   23.4089  -11.6095  -16.7282 C   0  0  0  0  0  0  0  0  0  0  0  0
   22.4587  -10.9708  -15.7642 C   0  0  2  0  0  0  0  0  0  0  0  0
   21.1495  -11.5911  -16.0900 N   0  0  0  0  0  0  0  0  0  0  0  0
   22.2431   -9.5244  -15.9326 C   0  0  0  0  0  0  0  0  0  0  0  0
   21.6270   -9.0556  -16.9605 O   0  0  0  0  0  0  0  0  0  0  0  0
   25.2451  -10.2588  -17.7186 C   0  0  0  0  0  0  0  0  0  0  0  0
   26.5470   -9.8506  -17.6828 C   0  0  0  0  0  0  0  0  0  0  0  0
   20.4463   -1.0086  -14.9946 O   0  0  0  0  0  0  0  0  0  0  0  0
   20.8542   -2.3266  -14.7486 C   0  0  0  0  0  0  0  0  0  0  0  0
   22.1873   -2.5995  -14.5607 C   0  0  0  0  0  0  0  0  0  0  0  0
   22.6088   -3.8873  -14.3180 C   0  0  0  0  0  0  0  0  0  0  0  0
   21.7264   -4.9699  -14.2501 C   0  0  0  0  0  0  0  0  0  0  0  0
   22.1901   -6.3461  -13.9963 C   0  0  0  0  0  0  0  0  0  0  0  0
   22.3950   -7.0797  -15.3081 C   0  0  2  0  0  0  0  0  0  0  0  0
   22.6625   -8.5053  -15.0217 N   0  0  0  0  0  0  0  0  0  0  0  0
   23.5625   -6.5261  -15.9846 C   0  0  0  0  0  0  0  0  0  0  0  0
   24.7466   -6.7945  -15.6592 O   0  0  0  0  0  0  0  0  0  0  0  0
   20.3864   -4.6564  -14.4448 C   0  0  0  0  0  0  0  0  0  0  0  0
   19.9626   -3.3679  -14.6876 C   0  0  0  0  0  0  0  0  0  0  0  0
   23.4068   -5.6576  -17.0455 O   0  0  0  0  0  0  0  0  0  0  0  0
  2  1  1  1
  2  3  1  0
  4  8  1  0
  4  3  1  0
  5  4  2  0
  6 16  1  0
  6  2  1  0
  7  6  2  0
  9 10  1  0
 10 11  2  0
 11 12  1  0
 13 12  2  0
 13 14  1  0
 15 14  1  6
 15 16  1  0
 17 28  1  0
 17 15  1  0
 18 17  2  0
 19 13  1  0
 20 10  1  0
 20 19  2  0
 21 22  1  0
 22 23  2  0
 23 24  1  0
 25 24  2  0
 25 26  1  0
 27 26  1  1
 27 29  1  0
 27 28  1  0
 29 33  1  0
 30 29  2  0
 31 25  1  0
 32 22  1  0
 32 31  2  0
M  END
$$$$
