DYY.pdb
     RDKit          3D

 33 34  0  0  1  0  0  0  0  0999 V2000
   22.2357  -13.4818  -17.7661 N   0  0  0  0  0  0  0  0  0  0  0  0
   22.3688  -12.0641  -17.9821 C   0  0  1  0  0  0  0  0  0  0  0  0
   21.0709  -11.4183  -18.3949 C   0  0  0  0  0  0  0  0  0  0  0  0
   20.6178  -12.0587  -19.6544 C   0  0  0  0  0  0  0  0  0  0  0  0
   21.3880  -12.7277  -20.3754 O   0  0  0  0  0  0  0  0  0  0  0  0
   22.8658  -11.3714  -16.7515 C   0  0  0  0  0  0  0  0  0  0  0  0
   22.6859  -11.9000  -15.6216 O   0  0  0  0  0  0  0  0  0  0  0  0
   19.2965  -11.9382  -20.0897 O   0  0  0  0  0  0  0  0  0  0  0  0
   28.7154  -13.7494  -16.7872 O   0  0  0  0  0  0  0  0  0  0  0  0
   27.9200  -12.6243  -16.6037 C   0  0  0  0  0  0  0  0  0  0  0  0
   27.8959  -12.0302  -15.3671 C   0  0  0  0  0  0  0  0  0  0  0  0
   27.1112  -10.9188  -15.1827 C   0  0  0  0  0  0  0  0  0  0  0  0
   26.3560  -10.4073  -16.2320 C   0  0  0  0  0  0  0  0  0  0  0  0
   25.5311   -9.2433  -15.9520 C   0  0  0  0  0  0  0  0  0  0  0  0
   24.1005   -9.4900  -15.5879 C   0  0  2  0  0  0  0  0  0  0  0  0
   23.5328  -10.1428  -16.7947 N   0  0  0  0  0  0  0  0  0  0  0  0
   23.2709   -8.2915  -15.3819 C   0  0  0  0  0  0  0  0  0  0  0  0
   23.4565   -7.5155  -14.3723 O   0  0  0  0  0  0  0  0  0  0  0  0
   26.3937  -11.0169  -17.4644 C   0  0  0  0  0  0  0  0  0  0  0  0
   27.1746  -12.1217  -17.6452 C   0  0  0  0  0  0  0  0  0  0  0  0
   26.7730   -3.3656  -17.3588 O   0  0  0  0  0  0  0  0  0  0  0  0
   25.4890   -3.9215  -17.2791 C   0  0  0  0  0  0  0  0  0  0  0  0
   25.1078   -4.8796  -18.1866 C   0  0  0  0  0  0  0  0  0  0  0  0
   23.8510   -5.4381  -18.1257 C   0  0  0  0  0  0  0  0  0  0  0  0
   22.9087   -5.0722  -17.1596 C   0  0  0  0  0  0  0  0  0  0  0  0
   21.5631   -5.6723  -17.1084 C   0  0  0  0  0  0  0  0  0  0  0  0
   21.4564   -6.6184  -15.9275 C   0  0  2  0  0  0  0  0  0  0  0  0
   22.2103   -7.8527  -16.2343 N   0  0  0  0  0  0  0  0  0  0  0  0
   20.0567   -6.9786  -15.7325 C   0  0  0  0  0  0  0  0  0  0  0  0
   19.1702   -6.1588  -15.3826 O   0  0  0  0  0  0  0  0  0  0  0  0
   23.3289   -4.1009  -16.2586 C   0  0  0  0  0  0  0  0  0  0  0  0
   24.5866   -3.5410  -16.3178 C   0  0  0  0  0  0  0  0  0  0  0  0
   19.6366   -8.2776  -15.9329 O   0  0  0  0  0  0  0  0  0  0  0  0
  2  1  1  1
  2  3  1  0
  4  8  1  0
  4  3  1  0
  5  4  2  0
  6 16  1  0
  6  2  1  0
  7  6  2  0
  9 10  1  0
 10 11  2  0
 11 12  1  0
 13 12  2  0
 13 14  1  0
 15 14  1  6
 15 16  1  0
 17 28  1  0
 17 15  1  0
 18 17  2  0
 19 13  1  0
 20 10  1  0
 20 19  2  0
 21 22  1  0
 22 23  2  0
 23 24  1  0
 25 24  2  0
 25 26  1  0
 27 26  1  6
 27 29  1  0
 27 28  1  0
 29 33  1  0
 30 29  2  0
 31 25  1  0
 32 22  1  0
 32 31  2  0
M  END
$$$$
