DYY.pdb
     RDKit          3D

 33 34  0  0  1  0  0  0  0  0999 V2000
   22.8501  -11.8628  -19.3928 N   0  0  0  0  0  0  0  0  0  0  0  0
   23.5201  -11.0330  -18.4248 C   0  0  1  0  0  0  0  0  0  0  0  0
   24.7898  -10.4259  -18.9646 C   0  0  0  0  0  0  0  0  0  0  0  0
   25.7316  -11.5292  -19.2767 C   0  0  0  0  0  0  0  0  0  0  0  0
   25.8860  -12.5078  -18.5156 O   0  0  0  0  0  0  0  0  0  0  0  0
   22.6331   -9.9225  -17.9546 C   0  0  0  0  0  0  0  0  0  0  0  0
   21.8881   -9.3269  -18.7784 O   0  0  0  0  0  0  0  0  0  0  0  0
   26.4924  -11.5182  -20.4475 O   0  0  0  0  0  0  0  0  0  0  0  0
   16.5693  -12.2495  -16.2771 O   0  0  0  0  0  0  0  0  0  0  0  0
   17.6741  -11.4765  -15.9394 C   0  0  0  0  0  0  0  0  0  0  0  0
   17.6364  -10.1287  -16.1936 C   0  0  0  0  0  0  0  0  0  0  0  0
   18.7261   -9.3624  -15.8612 C   0  0  0  0  0  0  0  0  0  0  0  0
   19.8456   -9.9448  -15.2777 C   0  0  0  0  0  0  0  0  0  0  0  0
   20.9691   -9.0722  -14.9776 C   0  0  0  0  0  0  0  0  0  0  0  0
   21.6740   -8.4408  -16.1372 C   0  0  2  0  0  0  0  0  0  0  0  0
   22.5898   -9.5051  -16.6204 N   0  0  0  0  0  0  0  0  0  0  0  0
   22.5526   -7.3038  -15.8173 C   0  0  0  0  0  0  0  0  0  0  0  0
   23.3429   -7.3346  -14.8023 O   0  0  0  0  0  0  0  0  0  0  0  0
   19.8641  -11.2978  -15.0306 C   0  0  0  0  0  0  0  0  0  0  0  0
   18.7797  -12.0574  -15.3620 C   0  0  0  0  0  0  0  0  0  0  0  0
   26.9016    0.4248  -15.7406 O   0  0  0  0  0  0  0  0  0  0  0  0
   26.2315   -0.7474  -16.1158 C   0  0  0  0  0  0  0  0  0  0  0  0
   26.8878   -1.9526  -16.0538 C   0  0  0  0  0  0  0  0  0  0  0  0
   26.2476   -3.1156  -16.4180 C   0  0  0  0  0  0  0  0  0  0  0  0
   24.9223   -3.1399  -16.8631 C   0  0  0  0  0  0  0  0  0  0  0  0
   24.2491   -4.3909  -17.2572 C   0  0  0  0  0  0  0  0  0  0  0  0
   23.4916   -4.9715  -16.0782 C   0  0  2  0  0  0  0  0  0  0  0  0
   22.6425   -6.0834  -16.5565 N   0  0  0  0  0  0  0  0  0  0  0  0
   22.6207   -3.9433  -15.5203 C   0  0  0  0  0  0  0  0  0  0  0  0
   23.0104   -3.0699  -14.7045 O   0  0  0  0  0  0  0  0  0  0  0  0
   24.2902   -1.9030  -16.9129 C   0  0  0  0  0  0  0  0  0  0  0  0
   24.9293   -0.7379  -16.5484 C   0  0  0  0  0  0  0  0  0  0  0  0
   21.2898   -3.8865  -15.8800 O   0  0  0  0  0  0  0  0  0  0  0  0
  2  1  1  6
  2  3  1  0
  4  8  1  0
  4  3  1  0
  5  4  2  0
  6 16  1  0
  6  2  1  0
  7  6  2  0
  9 10  1  0
 10 11  2  0
 11 12  1  0
 13 12  2  0
 13 14  1  0
 15 14  1  1
 15 16  1  0
 17 28  1  0
 17 15  1  0
 18 17  2  0
 19 13  1  0
 20 10  1  0
 20 19  2  0
 21 22  1  0
 22 23  2  0
 23 24  1  0
 25 24  2  0
 25 26  1  0
 27 26  1  6
 27 29  1  0
 27 28  1  0
 29 33  1  0
 30 29  2  0
 31 25  1  0
 32 22  1  0
 32 31  2  0
M  END
$$$$
