DYY.pdb
     RDKit          3D

 33 34  0  0  1  0  0  0  0  0999 V2000
   17.3488  -26.2301   -4.5680 N   0  0  0  0  0  0  0  0  0  0  0  0
   16.9410  -25.5355   -5.7619 C   0  0  1  0  0  0  0  0  0  0  0  0
   16.4674  -24.1323   -5.4806 C   0  0  0  0  0  0  0  0  0  0  0  0
   15.0595  -24.2054   -5.0179 C   0  0  0  0  0  0  0  0  0  0  0  0
   14.2293  -24.9842   -5.5325 O   0  0  0  0  0  0  0  0  0  0  0  0
   18.0579  -25.4622   -6.7561 C   0  0  0  0  0  0  0  0  0  0  0  0
   19.2436  -25.3183   -6.3537 O   0  0  0  0  0  0  0  0  0  0  0  0
   14.6002  -23.3970   -3.9761 O   0  0  0  0  0  0  0  0  0  0  0  0
   21.9573  -26.7796  -14.6026 O   0  0  0  0  0  0  0  0  0  0  0  0
   21.1584  -26.7404  -13.4658 C   0  0  0  0  0  0  0  0  0  0  0  0
   19.9408  -26.1120  -13.5389 C   0  0  0  0  0  0  0  0  0  0  0  0
   19.1492  -26.0716  -12.4178 C   0  0  0  0  0  0  0  0  0  0  0  0
   19.5767  -26.6577  -11.2318 C   0  0  0  0  0  0  0  0  0  0  0  0
   18.6939  -26.5515  -10.0815 C   0  0  0  0  0  0  0  0  0  0  0  0
   18.9430  -25.4239   -9.1295 C   0  0  2  0  0  0  0  0  0  0  0  0
   17.8464  -25.5470   -8.1360 N   0  0  0  0  0  0  0  0  0  0  0  0
   18.7995  -24.0676   -9.6836 C   0  0  0  0  0  0  0  0  0  0  0  0
   17.6405  -23.5637   -9.9260 O   0  0  0  0  0  0  0  0  0  0  0  0
   20.8005  -27.2832  -11.1787 C   0  0  0  0  0  0  0  0  0  0  0  0
   21.5856  -27.3221  -12.2945 C   0  0  0  0  0  0  0  0  0  0  0  0
   20.0821  -16.3969  -13.9144 O   0  0  0  0  0  0  0  0  0  0  0  0
   20.2943  -17.6006  -13.2288 C   0  0  0  0  0  0  0  0  0  0  0  0
   20.1977  -17.6263  -11.8588 C   0  0  0  0  0  0  0  0  0  0  0  0
   20.4026  -18.7984  -11.1664 C   0  0  0  0  0  0  0  0  0  0  0  0
   20.7146  -20.0048  -11.8007 C   0  0  0  0  0  0  0  0  0  0  0  0
   20.9388  -21.2525  -11.0482 C   0  0  0  0  0  0  0  0  0  0  0  0
   19.6120  -21.9043  -10.7081 C   0  0  2  0  0  0  0  0  0  0  0  0
   19.8718  -23.1774  -10.0025 N   0  0  0  0  0  0  0  0  0  0  0  0
   18.9012  -22.2081  -11.9449 C   0  0  0  0  0  0  0  0  0  0  0  0
   17.9040  -21.5593  -12.3509 O   0  0  0  0  0  0  0  0  0  0  0  0
   20.8040  -19.9411  -13.1863 C   0  0  0  0  0  0  0  0  0  0  0  0
   20.5989  -18.7689  -13.8811 C   0  0  0  0  0  0  0  0  0  0  0  0
   19.3110  -23.2545  -12.7455 O   0  0  0  0  0  0  0  0  0  0  0  0
  2  1  1  1
  2  3  1  0
  4  8  1  0
  4  3  1  0
  5  4  2  0
  6 16  1  0
  6  2  1  0
  7  6  2  0
  9 10  1  0
 10 11  2  0
 11 12  1  0
 13 12  2  0
 13 14  1  0
 15 14  1  6
 15 16  1  0
 17 28  1  0
 17 15  1  0
 18 17  2  0
 19 13  1  0
 20 10  1  0
 20 19  2  0
 21 22  1  0
 22 23  2  0
 23 24  1  0
 25 24  2  0
 25 26  1  0
 27 26  1  6
 27 29  1  0
 27 28  1  0
 29 33  1  0
 30 29  2  0
 31 25  1  0
 32 22  1  0
 32 31  2  0
M  END
$$$$
