DYY.pdb
     RDKit          3D

 33 34  0  0  1  0  0  0  0  0999 V2000
   18.1766   -7.8581  -18.1756 N   0  0  0  0  0  0  0  0  0  0  0  0
   18.1640   -7.1128  -16.9433 C   0  0  1  0  0  0  0  0  0  0  0  0
   17.5403   -5.7493  -17.0992 C   0  0  0  0  0  0  0  0  0  0  0  0
   18.6257   -4.7745  -17.3702 C   0  0  0  0  0  0  0  0  0  0  0  0
   19.8275   -5.1126  -17.4178 O   0  0  0  0  0  0  0  0  0  0  0  0
   17.4210   -7.8478  -15.8714 C   0  0  0  0  0  0  0  0  0  0  0  0
   16.2988   -8.3604  -16.1287 O   0  0  0  0  0  0  0  0  0  0  0  0
   18.3445   -3.4239  -17.5855 O   0  0  0  0  0  0  0  0  0  0  0  0
   17.3435  -14.1588  -16.9090 O   0  0  0  0  0  0  0  0  0  0  0  0
   17.5518  -13.1148  -16.0153 C   0  0  0  0  0  0  0  0  0  0  0  0
   16.5422  -12.7792  -15.1489 C   0  0  0  0  0  0  0  0  0  0  0  0
   16.7449  -11.7483  -14.2649 C   0  0  0  0  0  0  0  0  0  0  0  0
   17.9524  -11.0594  -14.2506 C   0  0  0  0  0  0  0  0  0  0  0  0
   18.0820   -9.9642  -13.3032 C   0  0  0  0  0  0  0  0  0  0  0  0
   17.2120   -8.7657  -13.5194 C   0  0  2  0  0  0  0  0  0  0  0  0
   17.9204   -7.9962  -14.5734 N   0  0  0  0  0  0  0  0  0  0  0  0
   17.1006   -7.8356  -12.3839 C   0  0  0  0  0  0  0  0  0  0  0  0
   17.9546   -6.8891  -12.2088 O   0  0  0  0  0  0  0  0  0  0  0  0
   18.9525  -11.4110  -15.1269 C   0  0  0  0  0  0  0  0  0  0  0  0
   18.7486  -12.4360  -16.0048 C   0  0  0  0  0  0  0  0  0  0  0  0
   10.5063   -9.8165   -9.3418 O   0  0  0  0  0  0  0  0  0  0  0  0
   11.5624   -8.9142   -9.5274 C   0  0  0  0  0  0  0  0  0  0  0  0
   12.0123   -8.6494  -10.7979 C   0  0  0  0  0  0  0  0  0  0  0  0
   13.0486   -7.7664  -11.0017 C   0  0  0  0  0  0  0  0  0  0  0  0
   13.6909   -7.1017   -9.9526 C   0  0  0  0  0  0  0  0  0  0  0  0
   14.8044   -6.1633  -10.1824 C   0  0  0  0  0  0  0  0  0  0  0  0
   16.1197   -6.9164  -10.2432 C   0  0  2  0  0  0  0  0  0  0  0  0
   16.0796   -7.8570  -11.3832 N   0  0  0  0  0  0  0  0  0  0  0  0
   16.2790   -7.6936   -9.0194 C   0  0  0  0  0  0  0  0  0  0  0  0
   16.2294   -8.9491   -8.9818 O   0  0  0  0  0  0  0  0  0  0  0  0
   13.2095   -7.3938   -8.6818 C   0  0  0  0  0  0  0  0  0  0  0  0
   12.1722   -8.2771   -8.4759 C   0  0  0  0  0  0  0  0  0  0  0  0
   16.4993   -7.0589   -7.8142 O   0  0  0  0  0  0  0  0  0  0  0  0
  2  1  1  6
  2  3  1  0
  4  8  1  0
  4  3  1  0
  5  4  2  0
  6 16  1  0
  6  2  1  0
  7  6  2  0
  9 10  1  0
 10 11  2  0
 11 12  1  0
 13 12  2  0
 13 14  1  0
 15 14  1  1
 15 16  1  0
 17 28  1  0
 17 15  1  0
 18 17  2  0
 19 13  1  0
 20 10  1  0
 20 19  2  0
 21 22  1  0
 22 23  2  0
 23 24  1  0
 25 24  2  0
 25 26  1  0
 27 26  1  1
 27 29  1  0
 27 28  1  0
 29 33  1  0
 30 29  2  0
 31 25  1  0
 32 22  1  0
 32 31  2  0
M  END
$$$$
