DYY.pdb
     RDKit          3D

 33 34  0  0  1  0  0  0  0  0999 V2000
   28.0247  -22.5142  -17.2736 N   0  0  0  0  0  0  0  0  0  0  0  0
   27.7841  -21.3239  -16.4992 C   0  0  1  0  0  0  0  0  0  0  0  0
   27.0425  -20.2679  -17.2785 C   0  0  0  0  0  0  0  0  0  0  0  0
   27.9156  -19.8178  -18.3906 C   0  0  0  0  0  0  0  0  0  0  0  0
   29.1413  -19.6284  -18.2398 O   0  0  0  0  0  0  0  0  0  0  0  0
   26.9992  -21.6302  -15.2618 C   0  0  0  0  0  0  0  0  0  0  0  0
   26.0640  -22.4737  -15.3083 O   0  0  0  0  0  0  0  0  0  0  0  0
   27.3966  -19.5850  -19.6658 O   0  0  0  0  0  0  0  0  0  0  0  0
   24.9381  -20.7128   -6.6529 O   0  0  0  0  0  0  0  0  0  0  0  0
   25.5444  -20.7185   -7.9037 C   0  0  0  0  0  0  0  0  0  0  0  0
   25.0910  -21.6020   -8.8505 C   0  0  0  0  0  0  0  0  0  0  0  0
   25.6878  -21.6102  -10.0869 C   0  0  0  0  0  0  0  0  0  0  0  0
   26.7323  -20.7377  -10.3710 C   0  0  0  0  0  0  0  0  0  0  0  0
   27.3294  -20.8235  -11.6938 C   0  0  0  0  0  0  0  0  0  0  0  0
   26.4452  -21.2688  -12.8162 C   0  0  2  0  0  0  0  0  0  0  0  0
   27.2576  -21.0145  -14.0328 N   0  0  0  0  0  0  0  0  0  0  0  0
   25.2128  -20.4887  -13.0157 C   0  0  0  0  0  0  0  0  0  0  0  0
   25.2495  -19.2863  -13.4726 O   0  0  0  0  0  0  0  0  0  0  0  0
   27.1724  -19.8592   -9.4086 C   0  0  0  0  0  0  0  0  0  0  0  0
   26.5776  -19.8530   -8.1802 C   0  0  0  0  0  0  0  0  0  0  0  0
   21.0066  -23.9925  -17.4251 O   0  0  0  0  0  0  0  0  0  0  0  0
   21.3919  -22.9015  -16.6344 C   0  0  0  0  0  0  0  0  0  0  0  0
   20.4840  -22.3341  -15.7737 C   0  0  0  0  0  0  0  0  0  0  0  0
   20.8423  -21.2617  -14.9884 C   0  0  0  0  0  0  0  0  0  0  0  0
   22.1216  -20.6981  -15.0191 C   0  0  0  0  0  0  0  0  0  0  0  0
   22.4920  -19.5451  -14.1784 C   0  0  0  0  0  0  0  0  0  0  0  0
   22.7474  -19.9970  -12.7531 C   0  0  2  0  0  0  0  0  0  0  0  0
   23.8838  -20.9427  -12.7478 N   0  0  0  0  0  0  0  0  0  0  0  0
   21.5692  -20.7010  -12.2598 C   0  0  0  0  0  0  0  0  0  0  0  0
   21.5727  -21.9130  -11.9259 O   0  0  0  0  0  0  0  0  0  0  0  0
   23.0133  -21.2976  -15.9008 C   0  0  0  0  0  0  0  0  0  0  0  0
   22.6565  -22.3713  -16.6874 C   0  0  0  0  0  0  0  0  0  0  0  0
   20.3639  -20.0409  -12.1348 O   0  0  0  0  0  0  0  0  0  0  0  0
  2  1  1  6
  2  3  1  0
  4  8  1  0
  4  3  1  0
  5  4  2  0
  6 16  1  0
  6  2  1  0
  7  6  2  0
  9 10  1  0
 10 11  2  0
 11 12  1  0
 13 12  2  0
 13 14  1  0
 15 14  1  1
 15 16  1  0
 17 28  1  0
 17 15  1  0
 18 17  2  0
 19 13  1  0
 20 10  1  0
 20 19  2  0
 21 22  1  0
 22 23  2  0
 23 24  1  0
 25 24  2  0
 25 26  1  0
 27 26  1  6
 27 29  1  0
 27 28  1  0
 29 33  1  0
 30 29  2  0
 31 25  1  0
 32 22  1  0
 32 31  2  0
M  END
$$$$
