DYY.pdb
     RDKit          3D

 33 34  0  0  1  0  0  0  0  0999 V2000
   18.6615   -9.5477  -15.9306 N   0  0  0  0  0  0  0  0  0  0  0  0
   18.0610  -10.4940  -15.0261 C   0  0  1  0  0  0  0  0  0  0  0  0
   18.6508  -11.8748  -15.1595 C   0  0  0  0  0  0  0  0  0  0  0  0
   18.2869  -12.4040  -16.4971 C   0  0  0  0  0  0  0  0  0  0  0  0
   17.1863  -12.1566  -17.0339 O   0  0  0  0  0  0  0  0  0  0  0  0
   18.2117  -10.0560  -13.6026 C   0  0  0  0  0  0  0  0  0  0  0  0
   17.7960  -10.7989  -12.6733 O   0  0  0  0  0  0  0  0  0  0  0  0
   19.1705  -13.2094  -17.2186 O   0  0  0  0  0  0  0  0  0  0  0  0
   22.8573   -4.5498  -15.1665 O   0  0  0  0  0  0  0  0  0  0  0  0
   22.2606   -5.4763  -14.3194 C   0  0  0  0  0  0  0  0  0  0  0  0
   21.5281   -5.0171  -13.2538 C   0  0  0  0  0  0  0  0  0  0  0  0
   20.9374   -5.9297  -12.4152 C   0  0  0  0  0  0  0  0  0  0  0  0
   21.0808   -7.2935  -12.6444 C   0  0  0  0  0  0  0  0  0  0  0  0
   20.4468   -8.1972  -11.6983 C   0  0  0  0  0  0  0  0  0  0  0  0
   18.9713   -8.4068  -11.8358 C   0  0  2  0  0  0  0  0  0  0  0  0
   18.8024   -8.8393  -13.2462 N   0  0  0  0  0  0  0  0  0  0  0  0
   18.1335   -7.2032  -11.7074 C   0  0  0  0  0  0  0  0  0  0  0  0
   17.8744   -6.4575  -12.7236 O   0  0  0  0  0  0  0  0  0  0  0  0
   21.8189   -7.7340  -13.7182 C   0  0  0  0  0  0  0  0  0  0  0  0
   22.4052   -6.8249  -14.5505 C   0  0  0  0  0  0  0  0  0  0  0  0
   12.6071   -9.2178   -7.5220 O   0  0  0  0  0  0  0  0  0  0  0  0
   13.2850   -8.3206   -8.3583 C   0  0  0  0  0  0  0  0  0  0  0  0
   14.0077   -8.8008   -9.4233 C   0  0  0  0  0  0  0  0  0  0  0  0
   14.6809   -7.9363  -10.2567 C   0  0  0  0  0  0  0  0  0  0  0  0
   14.6705   -6.5501  -10.0735 C   0  0  0  0  0  0  0  0  0  0  0  0
   15.4011   -5.6344  -10.9686 C   0  0  0  0  0  0  0  0  0  0  0  0
   16.8193   -5.4345  -10.4689 C   0  0  2  0  0  0  0  0  0  0  0  0
   17.5252   -6.7332  -10.5019 N   0  0  0  0  0  0  0  0  0  0  0  0
   16.7750   -4.9775   -9.0846 C   0  0  0  0  0  0  0  0  0  0  0  0
   17.3400   -5.5782   -8.1358 O   0  0  0  0  0  0  0  0  0  0  0  0
   13.9296   -6.1005   -8.9870 C   0  0  0  0  0  0  0  0  0  0  0  0
   13.2548   -6.9643   -8.1519 C   0  0  0  0  0  0  0  0  0  0  0  0
   16.0887   -3.8276   -8.7516 O   0  0  0  0  0  0  0  0  0  0  0  0
  2  1  1  6
  2  3  1  0
  4  8  1  0
  4  3  1  0
  5  4  2  0
  6 16  1  0
  6  2  1  0
  7  6  2  0
  9 10  1  0
 10 11  2  0
 11 12  1  0
 13 12  2  0
 13 14  1  0
 15 14  1  6
 15 16  1  0
 17 28  1  0
 17 15  1  0
 18 17  2  0
 19 13  1  0
 20 10  1  0
 20 19  2  0
 21 22  1  0
 22 23  2  0
 23 24  1  0
 25 24  2  0
 25 26  1  0
 27 26  1  1
 27 29  1  0
 27 28  1  0
 29 33  1  0
 30 29  2  0
 31 25  1  0
 32 22  1  0
 32 31  2  0
M  END
$$$$
