DYY.pdb
     RDKit          3D

 33 34  0  0  1  0  0  0  0  0999 V2000
   39.8093   -1.0837   -7.9016 N   0  0  0  0  0  0  0  0  0  0  0  0
   39.8510   -0.3900   -6.6402 C   0  0  1  0  0  0  0  0  0  0  0  0
   40.2075    1.0667   -6.7935 C   0  0  0  0  0  0  0  0  0  0  0  0
   41.5810    1.1488   -7.3489 C   0  0  0  0  0  0  0  0  0  0  0  0
   42.4752    0.3342   -7.0364 O   0  0  0  0  0  0  0  0  0  0  0  0
   38.5371   -0.4780   -5.9281 C   0  0  0  0  0  0  0  0  0  0  0  0
   37.4722   -0.5857   -6.5935 O   0  0  0  0  0  0  0  0  0  0  0  0
   41.9339    2.1518   -8.2540 O   0  0  0  0  0  0  0  0  0  0  0  0
   33.9261   -1.8624    1.6002 O   0  0  0  0  0  0  0  0  0  0  0  0
   34.8127   -1.7885    0.5322 C   0  0  0  0  0  0  0  0  0  0  0  0
   36.0577   -1.2530    0.7466 C   0  0  0  0  0  0  0  0  0  0  0  0
   36.9357   -1.1786   -0.3063 C   0  0  0  0  0  0  0  0  0  0  0  0
   36.5668   -1.6386   -1.5654 C   0  0  0  0  0  0  0  0  0  0  0  0
   37.5421   -1.5028   -2.6351 C   0  0  0  0  0  0  0  0  0  0  0  0
   37.1506   -0.6716   -3.8166 C   0  0  2  0  0  0  0  0  0  0  0  0
   38.4310   -0.4459   -4.5338 N   0  0  0  0  0  0  0  0  0  0  0  0
   36.6431    0.6774   -3.5172 C   0  0  0  0  0  0  0  0  0  0  0  0
   37.4236    1.6044   -3.0842 O   0  0  0  0  0  0  0  0  0  0  0  0
   35.3142   -2.1723   -1.7602 C   0  0  0  0  0  0  0  0  0  0  0  0
   34.4431   -2.2451   -0.7120 C   0  0  0  0  0  0  0  0  0  0  0  0
   32.1643    8.2324   -2.7499 O   0  0  0  0  0  0  0  0  0  0  0  0
   32.5122    6.9072   -3.0446 C   0  0  0  0  0  0  0  0  0  0  0  0
   33.5099    6.6548   -3.9545 C   0  0  0  0  0  0  0  0  0  0  0  0
   33.8667    5.3603   -4.2581 C   0  0  0  0  0  0  0  0  0  0  0  0
   33.2494    4.2505   -3.6730 C   0  0  0  0  0  0  0  0  0  0  0  0
   33.6352    2.8684   -4.0111 C   0  0  0  0  0  0  0  0  0  0  0  0
   34.8827    2.4708   -3.2451 C   0  0  2  0  0  0  0  0  0  0  0  0
   35.2896    1.1131   -3.6659 N   0  0  0  0  0  0  0  0  0  0  0  0
   34.5724    2.4302   -1.8206 C   0  0  0  0  0  0  0  0  0  0  0  0
   34.8208    3.3737   -1.0279 O   0  0  0  0  0  0  0  0  0  0  0  0
   32.2453    4.5437   -2.7578 C   0  0  0  0  0  0  0  0  0  0  0  0
   31.8870    5.8388   -2.4524 C   0  0  0  0  0  0  0  0  0  0  0  0
   33.9722    1.3167   -1.2692 O   0  0  0  0  0  0  0  0  0  0  0  0
  2  1  1  6
  2  3  1  0
  4  8  1  0
  4  3  1  0
  5  4  2  0
  6 16  1  0
  6  2  1  0
  7  6  2  0
  9 10  1  0
 10 11  2  0
 11 12  1  0
 13 12  2  0
 13 14  1  0
 15 14  1  1
 15 16  1  0
 17 28  1  0
 17 15  1  0
 18 17  2  0
 19 13  1  0
 20 10  1  0
 20 19  2  0
 21 22  1  0
 22 23  2  0
 23 24  1  0
 25 24  2  0
 25 26  1  0
 27 26  1  6
 27 29  1  0
 27 28  1  0
 29 33  1  0
 30 29  2  0
 31 25  1  0
 32 22  1  0
 32 31  2  0
M  END
$$$$
