DYY.pdb
     RDKit          3D

 33 34  0  0  1  0  0  0  0  0999 V2000
   33.0297  -29.9927  -18.1177 N   0  0  0  0  0  0  0  0  0  0  0  0
   31.7010  -30.0064  -18.6730 C   0  0  1  0  0  0  0  0  0  0  0  0
   31.6996  -30.2416  -20.1620 C   0  0  0  0  0  0  0  0  0  0  0  0
   32.3383  -29.0716  -20.8138 C   0  0  0  0  0  0  0  0  0  0  0  0
   33.5174  -29.1005  -21.2258 O   0  0  0  0  0  0  0  0  0  0  0  0
   30.8550  -31.0618  -18.0316 C   0  0  0  0  0  0  0  0  0  0  0  0
   31.3302  -32.2137  -17.8427 O   0  0  0  0  0  0  0  0  0  0  0  0
   31.6390  -27.8766  -20.9951 O   0  0  0  0  0  0  0  0  0  0  0  0
   26.8720  -35.3881  -11.9227 O   0  0  0  0  0  0  0  0  0  0  0  0
   27.4835  -34.5380  -12.8368 C   0  0  0  0  0  0  0  0  0  0  0  0
   28.1912  -35.0884  -13.8755 C   0  0  0  0  0  0  0  0  0  0  0  0
   28.7964  -34.2514  -14.7801 C   0  0  0  0  0  0  0  0  0  0  0  0
   28.6919  -32.8718  -14.6431 C   0  0  0  0  0  0  0  0  0  0  0  0
   29.3811  -32.0517  -15.6261 C   0  0  0  0  0  0  0  0  0  0  0  0
   28.7074  -31.8574  -16.9484 C   0  0  2  0  0  0  0  0  0  0  0  0
   29.5377  -30.8281  -17.6238 N   0  0  0  0  0  0  0  0  0  0  0  0
   27.3536  -31.2808  -16.9046 C   0  0  0  0  0  0  0  0  0  0  0  0
   27.1705  -30.0083  -16.8489 O   0  0  0  0  0  0  0  0  0  0  0  0
   27.9778  -32.3393  -13.5951 C   0  0  0  0  0  0  0  0  0  0  0  0
   27.3771  -33.1734  -12.6971 C   0  0  0  0  0  0  0  0  0  0  0  0
   19.3352  -28.3010  -18.0344 O   0  0  0  0  0  0  0  0  0  0  0  0
   20.6007  -28.9015  -18.0771 C   0  0  0  0  0  0  0  0  0  0  0  0
   20.7040  -30.2471  -18.3331 C   0  0  0  0  0  0  0  0  0  0  0  0
   21.9377  -30.8563  -18.3791 C   0  0  0  0  0  0  0  0  0  0  0  0
   23.1318  -30.1588  -18.1724 C   0  0  0  0  0  0  0  0  0  0  0  0
   24.4471  -30.8232  -18.2172 C   0  0  0  0  0  0  0  0  0  0  0  0
   24.8272  -31.3253  -16.8373 C   0  0  2  0  0  0  0  0  0  0  0  0
   26.1297  -32.0196  -16.9233 N   0  0  0  0  0  0  0  0  0  0  0  0
   23.8280  -32.2893  -16.3907 C   0  0  0  0  0  0  0  0  0  0  0  0
   23.8828  -33.5180  -16.6504 O   0  0  0  0  0  0  0  0  0  0  0  0
   22.9888  -28.8001  -17.9163 C   0  0  0  0  0  0  0  0  0  0  0  0
   21.7549  -28.1886  -17.8702 C   0  0  0  0  0  0  0  0  0  0  0  0
   22.7475  -31.8758  -15.6388 O   0  0  0  0  0  0  0  0  0  0  0  0
  2  1  1  1
  2  3  1  0
  4  8  1  0
  4  3  1  0
  5  4  2  0
  6 16  1  0
  6  2  1  0
  7  6  2  0
  9 10  1  0
 10 11  2  0
 11 12  1  0
 13 12  2  0
 13 14  1  0
 15 14  1  1
 15 16  1  0
 17 28  1  0
 17 15  1  0
 18 17  2  0
 19 13  1  0
 20 10  1  0
 20 19  2  0
 21 22  1  0
 22 23  2  0
 23 24  1  0
 25 24  2  0
 25 26  1  0
 27 26  1  6
 27 29  1  0
 27 28  1  0
 29 33  1  0
 30 29  2  0
 31 25  1  0
 32 22  1  0
 32 31  2  0
M  END
$$$$
