DYG.pdb
     RDKit          3D

 25 25  0  0  1  0  0  0  0  0999 V2000
    7.7125  -16.8628   21.4632 N   0  0  0  0  0  0  0  0  0  0  0  0
    8.8497  -15.9808   21.3444 C   0  0  1  0  0  0  0  0  0  0  0  0
    8.5035  -14.7166   20.5926 C   0  0  0  0  0  0  0  0  0  0  0  0
    8.0996  -15.0855   19.2263 C   0  0  0  0  0  0  0  0  0  0  0  0
    8.0819  -16.2813   18.8849 O   0  0  0  0  0  0  0  0  0  0  0  0
    9.3961  -15.6501   22.7101 C   0  0  0  0  0  0  0  0  0  0  0  0
   10.3295  -14.7977   22.7928 O   0  0  0  0  0  0  0  0  0  0  0  0
    7.7420  -14.1099   18.3280 O   0  0  0  0  0  0  0  0  0  0  0  0
    5.8942  -10.5627   26.0714 O   0  0  0  0  0  0  0  0  0  0  0  0
    6.5016  -11.8094   26.0857 C   0  0  0  0  0  0  0  0  0  0  0  0
    5.9022  -12.9357   25.5654 C   0  0  0  0  0  0  0  0  0  0  0  0
    6.5547  -14.1729   25.6026 C   0  0  0  0  0  0  0  0  0  0  0  0
    7.8077  -14.3229   26.1527 C   0  0  0  0  0  0  0  0  0  0  0  0
    8.4416  -15.6291   26.1758 C   0  0  0  0  0  0  0  0  0  0  0  0
    9.4944  -15.9101   25.1761 C   0  0  2  0  0  0  0  0  0  0  0  0
    8.9027  -16.2562   23.8822 N   0  0  0  0  0  0  0  0  0  0  0  0
   10.3871  -16.9887   25.6419 C   0  0  0  0  0  0  0  0  0  0  0  0
   11.1096  -16.7945   26.6334 O   0  0  0  0  0  0  0  0  0  0  0  0
    8.3871  -13.1687   26.6695 C   0  0  0  0  0  0  0  0  0  0  0  0
    7.7548  -11.9471   26.6382 C   0  0  0  0  0  0  0  0  0  0  0  0
   10.4603  -18.2546   24.9971 N   0  0  0  0  0  0  0  0  0  0  0  0
   11.7137  -18.7856   24.5437 C   0  0  0  0  0  0  0  0  0  0  0  0
   12.5227  -19.4430   25.5951 C   0  0  0  0  0  0  0  0  0  0  0  0
   13.3829  -20.3154   25.2733 O   0  0  0  0  0  0  0  0  0  0  0  0
   12.4208  -19.1819   26.9519 O   0  0  0  0  0  0  0  0  0  0  0  0
  2  3  1  0
  2  1  1  1
  4  8  1  0
  4  3  1  0
  5  4  2  0
  6  2  1  0
  7  6  2  0
  9 10  1  0
 10 20  2  0
 10 11  1  0
 11 12  2  0
 12 13  1  0
 13 14  1  0
 15 14  1  1
 15 16  1  0
 16  6  1  0
 17 15  1  0
 17 21  1  0
 18 17  2  0
 19 13  2  0
 20 19  1  0
 22 21  1  0
 23 22  1  0
 24 23  2  0
 25 23  1  0
M  END
$$$$
