DYG.pdb
     RDKit          3D

 25 25  0  0  1  0  0  0  0  0999 V2000
    8.8928  -17.3211   22.0768 N   0  0  0  0  0  0  0  0  0  0  0  0
   10.0664  -16.5769   22.4697 C   0  0  1  0  0  0  0  0  0  0  0  0
   10.1792  -15.2697   21.7202 C   0  0  0  0  0  0  0  0  0  0  0  0
   10.3993  -15.5692   20.2961 C   0  0  0  0  0  0  0  0  0  0  0  0
    9.4876  -16.0775   19.6199 O   0  0  0  0  0  0  0  0  0  0  0  0
   10.0533  -16.3331   23.9575 C   0  0  0  0  0  0  0  0  0  0  0  0
   10.9584  -15.5983   24.4531 O   0  0  0  0  0  0  0  0  0  0  0  0
   11.6108  -15.2876   19.7136 O   0  0  0  0  0  0  0  0  0  0  0  0
    6.5927  -10.7371   25.0835 O   0  0  0  0  0  0  0  0  0  0  0  0
    6.8920  -12.0379   25.4602 C   0  0  0  0  0  0  0  0  0  0  0  0
    6.5777  -13.1297   24.6807 C   0  0  0  0  0  0  0  0  0  0  0  0
    6.8999  -14.4242   25.1030 C   0  0  0  0  0  0  0  0  0  0  0  0
    7.5366  -14.6662   26.2993 C   0  0  0  0  0  0  0  0  0  0  0  0
    7.8431  -16.0282   26.6989 C   0  0  0  0  0  0  0  0  0  0  0  0
    9.1182  -16.6188   26.2383 C   0  0  2  0  0  0  0  0  0  0  0  0
    9.0739  -16.8936   24.8009 N   0  0  0  0  0  0  0  0  0  0  0  0
    9.4298  -17.8492   26.9910 C   0  0  0  0  0  0  0  0  0  0  0  0
    9.6425  -17.7773   28.2127 O   0  0  0  0  0  0  0  0  0  0  0  0
    7.8410  -13.5449   27.0640 C   0  0  0  0  0  0  0  0  0  0  0  0
    7.5289  -12.2676   26.6586 C   0  0  0  0  0  0  0  0  0  0  0  0
    9.5012  -19.1282   26.3725 N   0  0  0  0  0  0  0  0  0  0  0  0
   10.7322  -19.8638   26.3279 C   0  0  0  0  0  0  0  0  0  0  0  0
   11.4072  -20.0185   27.6364 C   0  0  0  0  0  0  0  0  0  0  0  0
   11.4026  -21.1442   28.2173 O   0  0  0  0  0  0  0  0  0  0  0  0
   12.0688  -19.0052   28.3109 O   0  0  0  0  0  0  0  0  0  0  0  0
  2  3  1  0
  2  1  1  6
  4  8  1  0
  4  3  1  0
  5  4  2  0
  6  2  1  0
  7  6  2  0
  9 10  1  0
 10 20  2  0
 10 11  1  0
 11 12  2  0
 12 13  1  0
 13 14  1  0
 15 14  1  1
 15 16  1  0
 16  6  1  0
 17 15  1  0
 17 21  1  0
 18 17  2  0
 19 13  2  0
 20 19  1  0
 22 21  1  0
 23 22  1  0
 24 23  2  0
 25 23  1  0
M  END
$$$$
