DYG.pdb
     RDKit          3D

 25 25  0  0  1  0  0  0  0  0999 V2000
    9.6987  -18.1501   20.7084 N   0  0  0  0  0  0  0  0  0  0  0  0
   10.8716  -17.3600   21.0005 C   0  0  1  0  0  0  0  0  0  0  0  0
   11.4232  -16.6945   19.7610 C   0  0  0  0  0  0  0  0  0  0  0  0
   12.0291  -17.7303   18.9091 C   0  0  0  0  0  0  0  0  0  0  0  0
   11.3989  -18.7716   18.6533 O   0  0  0  0  0  0  0  0  0  0  0  0
   10.5556  -16.3310   22.0562 C   0  0  0  0  0  0  0  0  0  0  0  0
   11.4792  -15.5465   22.4250 O   0  0  0  0  0  0  0  0  0  0  0  0
   13.2901  -17.5477   18.3963 O   0  0  0  0  0  0  0  0  0  0  0  0
    6.0271  -10.9605   27.5474 O   0  0  0  0  0  0  0  0  0  0  0  0
    6.4267  -11.8662   26.5762 C   0  0  0  0  0  0  0  0  0  0  0  0
    5.9977  -13.1755   26.5574 C   0  0  0  0  0  0  0  0  0  0  0  0
    6.4285  -14.0531   25.5564 C   0  0  0  0  0  0  0  0  0  0  0  0
    7.2888  -13.6575   24.5572 C   0  0  0  0  0  0  0  0  0  0  0  0
    7.7147  -14.6069   23.5443 C   0  0  0  0  0  0  0  0  0  0  0  0
    9.0474  -15.2306   23.6910 C   0  0  2  0  0  0  0  0  0  0  0  0
    9.2766  -16.2200   22.6362 N   0  0  0  0  0  0  0  0  0  0  0  0
    9.1940  -15.8501   25.0222 C   0  0  0  0  0  0  0  0  0  0  0  0
    9.1495  -15.1326   26.0351 O   0  0  0  0  0  0  0  0  0  0  0  0
    7.7044  -12.3308   24.6024 C   0  0  0  0  0  0  0  0  0  0  0  0
    7.2871  -11.4591   25.5819 C   0  0  0  0  0  0  0  0  0  0  0  0
    9.3895  -17.2480   25.1993 N   0  0  0  0  0  0  0  0  0  0  0  0
    9.4311  -17.8320   26.5092 C   0  0  0  0  0  0  0  0  0  0  0  0
   10.7581  -18.3500   26.9127 C   0  0  0  0  0  0  0  0  0  0  0  0
   11.7992  -17.6711   26.6681 O   0  0  0  0  0  0  0  0  0  0  0  0
   10.9743  -19.5569   27.5577 O   0  0  0  0  0  0  0  0  0  0  0  0
  2  3  1  0
  2  1  1  6
  4  8  1  0
  4  3  1  0
  5  4  2  0
  6  2  1  0
  7  6  2  0
  9 10  1  0
 10 20  2  0
 10 11  1  0
 11 12  2  0
 12 13  1  0
 13 14  1  0
 15 14  1  1
 15 16  1  0
 16  6  1  0
 17 15  1  0
 17 21  1  0
 18 17  2  0
 19 13  2  0
 20 19  1  0
 22 21  1  0
 23 22  1  0
 24 23  2  0
 25 23  1  0
M  END
$$$$
