DYG.pdb
     RDKit          3D

 25 25  0  0  1  0  0  0  0  0999 V2000
    7.9175  -17.7170   20.6505 N   0  0  0  0  0  0  0  0  0  0  0  0
    9.0380  -16.8727   20.3081 C   0  0  1  0  0  0  0  0  0  0  0  0
    8.6666  -15.8414   19.2680 C   0  0  0  0  0  0  0  0  0  0  0  0
    8.4443  -16.5328   17.9880 C   0  0  0  0  0  0  0  0  0  0  0  0
    7.5764  -17.4197   17.9032 O   0  0  0  0  0  0  0  0  0  0  0  0
    9.5816  -16.2034   21.5448 C   0  0  0  0  0  0  0  0  0  0  0  0
   10.6010  -15.4608   21.4264 O   0  0  0  0  0  0  0  0  0  0  0  0
    9.1946  -16.1992   16.8870 O   0  0  0  0  0  0  0  0  0  0  0  0
   10.5317  -14.0908   30.2075 O   0  0  0  0  0  0  0  0  0  0  0  0
   10.0685  -14.4322   28.9456 C   0  0  0  0  0  0  0  0  0  0  0  0
    9.6427  -13.4947   28.0300 C   0  0  0  0  0  0  0  0  0  0  0  0
    9.1833  -13.8874   26.7680 C   0  0  0  0  0  0  0  0  0  0  0  0
    9.1349  -15.2090   26.3858 C   0  0  0  0  0  0  0  0  0  0  0  0
    8.6423  -15.5686   25.0679 C   0  0  0  0  0  0  0  0  0  0  0  0
    9.6315  -15.7887   23.9910 C   0  0  2  0  0  0  0  0  0  0  0  0
    8.9938  -16.3797   22.8129 N   0  0  0  0  0  0  0  0  0  0  0  0
   10.7400  -16.6414   24.4618 C   0  0  0  0  0  0  0  0  0  0  0  0
   10.5548  -17.8627   24.5919 O   0  0  0  0  0  0  0  0  0  0  0  0
    9.5711  -16.1318   27.3308 C   0  0  0  0  0  0  0  0  0  0  0  0
   10.0248  -15.7570   28.5745 C   0  0  0  0  0  0  0  0  0  0  0  0
   12.0251  -16.1209   24.7799 N   0  0  0  0  0  0  0  0  0  0  0  0
   13.1083  -16.9883   25.1443 C   0  0  0  0  0  0  0  0  0  0  0  0
   13.9671  -17.4119   24.0152 C   0  0  0  0  0  0  0  0  0  0  0  0
   13.4433  -17.9423   22.9910 O   0  0  0  0  0  0  0  0  0  0  0  0
   15.3454  -17.2769   23.9745 O   0  0  0  0  0  0  0  0  0  0  0  0
  2  3  1  0
  2  1  1  1
  4  8  1  0
  4  3  1  0
  5  4  2  0
  6  2  1  0
  7  6  2  0
  9 10  1  0
 10 20  2  0
 10 11  1  0
 11 12  2  0
 12 13  1  0
 13 14  1  0
 15 14  1  1
 15 16  1  0
 16  6  1  0
 17 15  1  0
 17 21  1  0
 18 17  2  0
 19 13  2  0
 20 19  1  0
 22 21  1  0
 23 22  1  0
 24 23  2  0
 25 23  1  0
M  END
$$$$
