DYG.pdb
     RDKit          3D

 25 25  0  0  1  0  0  0  0  0999 V2000
    8.2815  -17.8683   20.3372 N   0  0  0  0  0  0  0  0  0  0  0  0
    9.2443  -16.8220   20.0852 C   0  0  1  0  0  0  0  0  0  0  0  0
    8.9503  -16.0865   18.7984 C   0  0  0  0  0  0  0  0  0  0  0  0
    9.0924  -17.0329   17.6804 C   0  0  0  0  0  0  0  0  0  0  0  0
    8.1195  -17.7182   17.3187 O   0  0  0  0  0  0  0  0  0  0  0  0
    9.2831  -15.8606   21.2460 C   0  0  0  0  0  0  0  0  0  0  0  0
   10.1915  -14.9779   21.2640 O   0  0  0  0  0  0  0  0  0  0  0  0
   10.2988  -17.1597   17.0361 O   0  0  0  0  0  0  0  0  0  0  0  0
    6.5184  -10.7728   28.0062 O   0  0  0  0  0  0  0  0  0  0  0  0
    6.6539  -11.6835   26.9691 C   0  0  0  0  0  0  0  0  0  0  0  0
    7.1183  -11.3278   25.7215 C   0  0  0  0  0  0  0  0  0  0  0  0
    7.2379  -12.2827   24.7058 C   0  0  0  0  0  0  0  0  0  0  0  0
    6.9024  -13.6035   24.9003 C   0  0  0  0  0  0  0  0  0  0  0  0
    7.0359  -14.5567   23.8130 C   0  0  0  0  0  0  0  0  0  0  0  0
    8.3986  -14.9118   23.3615 C   0  0  2  0  0  0  0  0  0  0  0  0
    8.3479  -15.9170   22.2981 N   0  0  0  0  0  0  0  0  0  0  0  0
    9.2173  -15.3940   24.4906 C   0  0  0  0  0  0  0  0  0  0  0  0
    9.4259  -14.6406   25.4558 O   0  0  0  0  0  0  0  0  0  0  0  0
    6.4372  -13.9324   26.1692 C   0  0  0  0  0  0  0  0  0  0  0  0
    6.3156  -13.0018   27.1754 C   0  0  0  0  0  0  0  0  0  0  0  0
    9.7874  -16.6969   24.5220 N   0  0  0  0  0  0  0  0  0  0  0  0
   10.5955  -17.1275   25.6265 C   0  0  0  0  0  0  0  0  0  0  0  0
   11.1467  -18.4951   25.4925 C   0  0  0  0  0  0  0  0  0  0  0  0
   11.2285  -19.0308   24.3475 O   0  0  0  0  0  0  0  0  0  0  0  0
   11.5983  -19.2736   26.5458 O   0  0  0  0  0  0  0  0  0  0  0  0
  2  3  1  0
  2  1  1  1
  4  8  1  0
  4  3  1  0
  5  4  2  0
  6  2  1  0
  7  6  2  0
  9 10  1  0
 10 20  2  0
 10 11  1  0
 11 12  2  0
 12 13  1  0
 13 14  1  0
 15 14  1  1
 15 16  1  0
 16  6  1  0
 17 15  1  0
 17 21  1  0
 18 17  2  0
 19 13  2  0
 20 19  1  0
 22 21  1  0
 23 22  1  0
 24 23  2  0
 25 23  1  0
M  END
$$$$
