DYG.pdb
     RDKit          3D

 25 25  0  0  1  0  0  0  0  0999 V2000
    8.3437  -17.8103   19.6111 N   0  0  0  0  0  0  0  0  0  0  0  0
    9.2845  -16.7251   19.4610 C   0  0  1  0  0  0  0  0  0  0  0  0
    9.0117  -15.9136   18.2159 C   0  0  0  0  0  0  0  0  0  0  0  0
    8.8656  -16.8398   17.0815 C   0  0  0  0  0  0  0  0  0  0  0  0
    9.6564  -17.7907   16.9497 O   0  0  0  0  0  0  0  0  0  0  0  0
    9.2590  -15.8422   20.6829 C   0  0  0  0  0  0  0  0  0  0  0  0
   10.0531  -14.8563   20.7276 O   0  0  0  0  0  0  0  0  0  0  0  0
    7.8565  -16.6546   16.1683 O   0  0  0  0  0  0  0  0  0  0  0  0
    6.6734  -11.3926   27.8848 O   0  0  0  0  0  0  0  0  0  0  0  0
    6.7746  -12.2032   26.7641 C   0  0  0  0  0  0  0  0  0  0  0  0
    6.2476  -13.4754   26.7152 C   0  0  0  0  0  0  0  0  0  0  0  0
    6.3748  -14.2564   25.5613 C   0  0  0  0  0  0  0  0  0  0  0  0
    7.0230  -13.7992   24.4362 C   0  0  0  0  0  0  0  0  0  0  0  0
    7.1370  -14.6499   23.2649 C   0  0  0  0  0  0  0  0  0  0  0  0
    8.4609  -15.2293   22.9513 C   0  0  2  0  0  0  0  0  0  0  0  0
    8.3865  -16.0814   21.7629 N   0  0  0  0  0  0  0  0  0  0  0  0
    8.9874  -15.9898   24.1011 C   0  0  0  0  0  0  0  0  0  0  0  0
    8.1937  -16.5578   24.8693 O   0  0  0  0  0  0  0  0  0  0  0  0
    7.5442  -12.5120   24.5155 C   0  0  0  0  0  0  0  0  0  0  0  0
    7.4249  -11.7351   25.6448 C   0  0  0  0  0  0  0  0  0  0  0  0
   10.3791  -16.1002   24.3738 N   0  0  0  0  0  0  0  0  0  0  0  0
   10.8591  -16.8670   25.4875 C   0  0  0  0  0  0  0  0  0  0  0  0
   12.3312  -17.0128   25.5486 C   0  0  0  0  0  0  0  0  0  0  0  0
   13.0526  -16.4926   24.6467 O   0  0  0  0  0  0  0  0  0  0  0  0
   13.0190  -17.6933   26.5401 O   0  0  0  0  0  0  0  0  0  0  0  0
  2  3  1  0
  2  1  1  1
  4  8  1  0
  4  3  1  0
  5  4  2  0
  6  2  1  0
  7  6  2  0
  9 10  1  0
 10 20  2  0
 10 11  1  0
 11 12  2  0
 12 13  1  0
 13 14  1  0
 15 14  1  1
 15 16  1  0
 16  6  1  0
 17 15  1  0
 17 21  1  0
 18 17  2  0
 19 13  2  0
 20 19  1  0
 22 21  1  0
 23 22  1  0
 24 23  2  0
 25 23  1  0
M  END
$$$$
