DYG.pdb
     RDKit          3D

 25 25  0  0  1  0  0  0  0  0999 V2000
    7.8331  -17.1145   20.8102 N   0  0  0  0  0  0  0  0  0  0  0  0
    8.8942  -16.1490   20.6444 C   0  0  1  0  0  0  0  0  0  0  0  0
    8.4774  -15.0050   19.7495 C   0  0  0  0  0  0  0  0  0  0  0  0
    8.2504  -15.5344   18.3952 C   0  0  0  0  0  0  0  0  0  0  0  0
    8.3962  -16.7489   18.1702 O   0  0  0  0  0  0  0  0  0  0  0  0
    9.3416  -15.6323   21.9882 C   0  0  0  0  0  0  0  0  0  0  0  0
   10.2105  -14.7110   22.0180 O   0  0  0  0  0  0  0  0  0  0  0  0
    7.8777  -14.6881   17.3797 O   0  0  0  0  0  0  0  0  0  0  0  0
    5.7870  -10.5192   26.5023 O   0  0  0  0  0  0  0  0  0  0  0  0
    6.3912  -11.7442   26.2618 C   0  0  0  0  0  0  0  0  0  0  0  0
    7.5726  -12.1223   26.8618 C   0  0  0  0  0  0  0  0  0  0  0  0
    8.1446  -13.3695   26.5878 C   0  0  0  0  0  0  0  0  0  0  0  0
    7.5642  -14.2656   25.7187 C   0  0  0  0  0  0  0  0  0  0  0  0
    8.1998  -15.5452   25.4595 C   0  0  0  0  0  0  0  0  0  0  0  0
    9.2970  -15.5898   24.4690 C   0  0  2  0  0  0  0  0  0  0  0  0
    8.8258  -16.1404   23.1967 N   0  0  0  0  0  0  0  0  0  0  0  0
   10.4366  -16.3744   24.9821 C   0  0  0  0  0  0  0  0  0  0  0  0
   11.0667  -15.9580   25.9681 O   0  0  0  0  0  0  0  0  0  0  0  0
    6.3729  -13.8561   25.1288 C   0  0  0  0  0  0  0  0  0  0  0  0
    5.8014  -12.6322   25.3910 C   0  0  0  0  0  0  0  0  0  0  0  0
   10.8524  -17.5988   24.3892 N   0  0  0  0  0  0  0  0  0  0  0  0
   11.9464  -18.3524   24.9310 C   0  0  0  0  0  0  0  0  0  0  0  0
   11.5647  -19.3357   25.9700 C   0  0  0  0  0  0  0  0  0  0  0  0
   10.3434  -19.4960   26.2657 O   0  0  0  0  0  0  0  0  0  0  0  0
   12.4555  -20.1271   26.6768 O   0  0  0  0  0  0  0  0  0  0  0  0
  2  3  1  0
  2  1  1  1
  4  8  1  0
  4  3  1  0
  5  4  2  0
  6  2  1  0
  7  6  2  0
  9 10  1  0
 10 20  2  0
 10 11  1  0
 11 12  2  0
 12 13  1  0
 13 14  1  0
 15 14  1  1
 15 16  1  0
 16  6  1  0
 17 15  1  0
 17 21  1  0
 18 17  2  0
 19 13  2  0
 20 19  1  0
 22 21  1  0
 23 22  1  0
 24 23  2  0
 25 23  1  0
M  END
$$$$
