DYG.pdb
     RDKit          3D

 25 25  0  0  1  0  0  0  0  0999 V2000
    8.7829  -17.8277   19.4995 N   0  0  0  0  0  0  0  0  0  0  0  0
   10.0846  -17.3182   19.8619 C   0  0  1  0  0  0  0  0  0  0  0  0
   10.7283  -16.5614   18.7234 C   0  0  0  0  0  0  0  0  0  0  0  0
   10.9052  -17.4868   17.5928 C   0  0  0  0  0  0  0  0  0  0  0  0
   10.3129  -18.5804   17.5862 O   0  0  0  0  0  0  0  0  0  0  0  0
    9.9782  -16.4426   21.0847 C   0  0  0  0  0  0  0  0  0  0  0  0
   11.0395  -15.9329   21.5520 O   0  0  0  0  0  0  0  0  0  0  0  0
   11.7240  -17.1434   16.5449 O   0  0  0  0  0  0  0  0  0  0  0  0
    6.6686  -11.6573   27.8447 O   0  0  0  0  0  0  0  0  0  0  0  0
    6.8627  -12.3858   26.6806 C   0  0  0  0  0  0  0  0  0  0  0  0
    6.2444  -13.5948   26.4470 C   0  0  0  0  0  0  0  0  0  0  0  0
    6.4713  -14.2939   25.2563 C   0  0  0  0  0  0  0  0  0  0  0  0
    7.3105  -13.8153   24.2756 C   0  0  0  0  0  0  0  0  0  0  0  0
    7.5211  -14.5808   23.0597 C   0  0  0  0  0  0  0  0  0  0  0  0
    8.7245  -15.4361   22.9750 C   0  0  2  0  0  0  0  0  0  0  0  0
    8.7454  -16.1796   21.7138 N   0  0  0  0  0  0  0  0  0  0  0  0
    8.7934  -16.3615   24.1223 C   0  0  0  0  0  0  0  0  0  0  0  0
    7.9208  -17.2359   24.2516 O   0  0  0  0  0  0  0  0  0  0  0  0
    7.9199  -12.5931   24.5397 C   0  0  0  0  0  0  0  0  0  0  0  0
    7.7040  -11.8971   25.7068 C   0  0  0  0  0  0  0  0  0  0  0  0
    9.8246  -16.2943   25.0999 N   0  0  0  0  0  0  0  0  0  0  0  0
    9.9278  -17.2778   26.1393 C   0  0  0  0  0  0  0  0  0  0  0  0
   10.1852  -16.7258   27.4888 C   0  0  0  0  0  0  0  0  0  0  0  0
    9.6013  -15.6632   27.8555 O   0  0  0  0  0  0  0  0  0  0  0  0
   11.0402  -17.2863   28.4238 O   0  0  0  0  0  0  0  0  0  0  0  0
  2  3  1  0
  2  1  1  6
  4  8  1  0
  4  3  1  0
  5  4  2  0
  6  2  1  0
  7  6  2  0
  9 10  1  0
 10 20  2  0
 10 11  1  0
 11 12  2  0
 12 13  1  0
 13 14  1  0
 15 14  1  1
 15 16  1  0
 16  6  1  0
 17 15  1  0
 17 21  1  0
 18 17  2  0
 19 13  2  0
 20 19  1  0
 22 21  1  0
 23 22  1  0
 24 23  2  0
 25 23  1  0
M  END
$$$$
