DYG.pdb
     RDKit          3D

 25 25  0  0  1  0  0  0  0  0999 V2000
   10.8435  -17.2247   19.6126 N   0  0  0  0  0  0  0  0  0  0  0  0
   10.0844  -17.6699   20.7575 C   0  0  1  0  0  0  0  0  0  0  0  0
   10.7362  -18.8507   21.4387 C   0  0  0  0  0  0  0  0  0  0  0  0
   10.8562  -19.9428   20.4594 C   0  0  0  0  0  0  0  0  0  0  0  0
    9.8797  -20.2568   19.7560 O   0  0  0  0  0  0  0  0  0  0  0  0
    9.8990  -16.5344   21.7319 C   0  0  0  0  0  0  0  0  0  0  0  0
   10.7094  -15.5621   21.6815 O   0  0  0  0  0  0  0  0  0  0  0  0
   12.0458  -20.6154   20.3219 O   0  0  0  0  0  0  0  0  0  0  0  0
    6.1992  -10.9780   27.6400 O   0  0  0  0  0  0  0  0  0  0  0  0
    6.4679  -11.9997   26.7414 C   0  0  0  0  0  0  0  0  0  0  0  0
    6.1734  -13.3197   27.0049 C   0  0  0  0  0  0  0  0  0  0  0  0
    6.4632  -14.3163   26.0666 C   0  0  0  0  0  0  0  0  0  0  0  0
    7.0480  -14.0311   24.8534 C   0  0  0  0  0  0  0  0  0  0  0  0
    7.3375  -15.1008   23.9149 C   0  0  0  0  0  0  0  0  0  0  0  0
    8.7546  -15.4065   23.6231 C   0  0  2  0  0  0  0  0  0  0  0  0
    8.8618  -16.5258   22.6852 N   0  0  0  0  0  0  0  0  0  0  0  0
    9.4956  -15.6993   24.8651 C   0  0  0  0  0  0  0  0  0  0  0  0
    9.5981  -14.8180   25.7342 O   0  0  0  0  0  0  0  0  0  0  0  0
    7.3334  -12.6906   24.6160 C   0  0  0  0  0  0  0  0  0  0  0  0
    7.0527  -11.7024   25.5313 C   0  0  0  0  0  0  0  0  0  0  0  0
   10.1075  -16.9594   25.1130 N   0  0  0  0  0  0  0  0  0  0  0  0
   10.7439  -17.2419   26.3675 C   0  0  0  0  0  0  0  0  0  0  0  0
    9.9832  -18.1501   27.2554 C   0  0  0  0  0  0  0  0  0  0  0  0
    8.8833  -18.6395   26.8612 O   0  0  0  0  0  0  0  0  0  0  0  0
   10.3789  -18.5281   28.5282 O   0  0  0  0  0  0  0  0  0  0  0  0
  2  3  1  0
  2  1  1  6
  4  8  1  0
  4  3  1  0
  5  4  2  0
  6  2  1  0
  7  6  2  0
  9 10  1  0
 10 20  2  0
 10 11  1  0
 11 12  2  0
 12 13  1  0
 13 14  1  0
 15 14  1  1
 15 16  1  0
 16  6  1  0
 17 15  1  0
 17 21  1  0
 18 17  2  0
 19 13  2  0
 20 19  1  0
 22 21  1  0
 23 22  1  0
 24 23  2  0
 25 23  1  0
M  END
$$$$
