SME.pdb
     RDKit          3D

 24 23  0  0  1  0  0  0  0  0999 V2000
    8.6209  -18.7372   22.4791 O   0  0  0  0  0  0  0  0  0  0  0  0
    7.4367  -18.3044   21.9356 C   0  0  0  0  0  0  0  0  0  0  0  0
    7.5586  -17.0423   21.1360 C   0  0  2  0  0  0  0  0  0  0  0  0
    8.2974  -17.1705   19.9293 N   0  0  0  0  0  0  0  0  0  0  0  0
    8.1500  -15.9379   21.9471 C   0  0  0  0  0  0  0  0  0  0  0  0
    9.2968  -15.4626   21.6812 O   0  0  0  0  0  0  0  0  0  0  0  0
    6.7594  -10.5277   27.5399 C   0  0  0  0  0  0  0  0  0  0  0  0
    6.0518  -11.8712   26.5526 S   0  0  0  0  0  0  0  0  0  0  0  0
    7.3343  -12.5673   25.4806 C   0  0  0  0  0  0  0  0  0  0  0  0
    6.7779  -13.6713   24.6078 C   0  0  0  0  0  0  0  0  0  0  0  0
    7.9544  -14.2557   23.8363 C   0  0  2  0  0  0  0  0  0  0  0  0
    7.4614  -15.3682   23.0502 N   0  0  0  0  0  0  0  0  0  0  0  0
    9.0371  -14.7072   24.7715 C   0  0  0  0  0  0  0  0  0  0  0  0
    9.5940  -13.8854   25.5292 O   0  0  0  0  0  0  0  0  0  0  0  0
    9.4153  -16.0650   24.7826 N   0  0  0  0  0  0  0  0  0  0  0  0
   10.4264  -16.5884   25.6892 C   0  0  1  0  0  0  0  0  0  0  0  0
    9.9356  -17.8716   26.2999 C   0  0  0  0  0  0  0  0  0  0  0  0
   10.9296  -18.5141   27.2078 C   0  0  0  0  0  0  0  0  0  0  0  0
   10.4370  -19.7303   27.8856 C   0  0  0  0  0  0  0  0  0  0  0  0
    9.3496  -20.2993   27.6164 O   0  0  0  0  0  0  0  0  0  0  0  0
   11.6591  -16.8702   24.8700 C   0  0  0  0  0  0  0  0  0  0  0  0
   11.5924  -17.2161   23.6622 O   0  0  0  0  0  0  0  0  0  0  0  0
   11.2195  -20.2883   28.8865 O   0  0  0  0  0  0  0  0  0  0  0  0
   12.9151  -16.7532   25.4360 O   0  0  0  0  0  0  0  0  0  0  0  0
  2  3  1  0
  2  1  1  0
  3  4  1  6
  5  6  2  0
  5  3  1  0
  7  8  1  0
  8  9  1  0
  9 10  1  0
 11 10  1  1
 11 13  1  0
 11 12  1  0
 12  5  1  0
 13 15  1  0
 14 13  2  0
 15 16  1  0
 16 21  1  0
 16 17  1  6
 18 17  1  0
 19 18  1  0
 20 19  2  0
 21 22  2  0
 21 24  1  0
 23 19  1  0
M  END
$$$$
