SME.pdb
     RDKit          3D

 24 23  0  0  1  0  0  0  0  0999 V2000
    7.8457  -18.0211   20.4931 O   0  0  0  0  0  0  0  0  0  0  0  0
    6.9719  -17.0161   20.1596 C   0  0  0  0  0  0  0  0  0  0  0  0
    7.6159  -15.6695   20.0218 C   0  0  2  0  0  0  0  0  0  0  0  0
    8.6140  -15.5866   19.0142 N   0  0  0  0  0  0  0  0  0  0  0  0
    8.1995  -15.2092   21.3160 C   0  0  0  0  0  0  0  0  0  0  0  0
    9.4533  -15.2133   21.5151 O   0  0  0  0  0  0  0  0  0  0  0  0
    6.7873  -11.9075   28.3489 C   0  0  0  0  0  0  0  0  0  0  0  0
    6.0288  -12.5407   26.8310 S   0  0  0  0  0  0  0  0  0  0  0  0
    7.3033  -13.3074   25.7984 C   0  0  0  0  0  0  0  0  0  0  0  0
    6.7251  -13.7952   24.4877 C   0  0  0  0  0  0  0  0  0  0  0  0
    7.8762  -14.4114   23.7027 C   0  0  2  0  0  0  0  0  0  0  0  0
    7.3839  -14.7468   22.3822 N   0  0  0  0  0  0  0  0  0  0  0  0
    8.4046  -15.6323   24.3963 C   0  0  0  0  0  0  0  0  0  0  0  0
    7.7629  -16.7028   24.3570 O   0  0  0  0  0  0  0  0  0  0  0  0
    9.6292  -15.5541   25.0900 N   0  0  0  0  0  0  0  0  0  0  0  0
   10.2607  -16.7167   25.6965 C   0  0  1  0  0  0  0  0  0  0  0  0
   11.7005  -16.7846   25.2692 C   0  0  0  0  0  0  0  0  0  0  0  0
   11.8744  -17.0592   23.8133 C   0  0  0  0  0  0  0  0  0  0  0  0
   13.2796  -17.0648   23.3590 C   0  0  0  0  0  0  0  0  0  0  0  0
   13.6473  -17.3809   22.1999 O   0  0  0  0  0  0  0  0  0  0  0  0
   10.1962  -16.5324   27.1905 C   0  0  0  0  0  0  0  0  0  0  0  0
   10.6519  -17.3916   27.9886 O   0  0  0  0  0  0  0  0  0  0  0  0
   14.2652  -16.6984   24.2644 O   0  0  0  0  0  0  0  0  0  0  0  0
    9.6248  -15.3947   27.7294 O   0  0  0  0  0  0  0  0  0  0  0  0
  2  3  1  0
  2  1  1  0
  3  4  1  6
  5  6  2  0
  5  3  1  0
  7  8  1  0
  8  9  1  0
  9 10  1  0
 11 10  1  1
 11 13  1  0
 11 12  1  0
 12  5  1  0
 13 15  1  0
 14 13  2  0
 15 16  1  0
 16 21  1  0
 16 17  1  6
 18 17  1  0
 19 18  1  0
 20 19  2  0
 21 22  2  0
 21 24  1  0
 23 19  1  0
M  END
$$$$
