SME.pdb
     RDKit          3D

 24 23  0  0  1  0  0  0  0  0999 V2000
    7.5566  -18.0183   20.6719 O   0  0  0  0  0  0  0  0  0  0  0  0
    6.8251  -16.9890   20.1331 C   0  0  0  0  0  0  0  0  0  0  0  0
    7.5973  -15.7151   19.9658 C   0  0  2  0  0  0  0  0  0  0  0  0
    8.6080  -15.7576   18.9683 N   0  0  0  0  0  0  0  0  0  0  0  0
    8.2105  -15.2761   21.2537 C   0  0  0  0  0  0  0  0  0  0  0  0
    9.4688  -15.2807   21.4229 O   0  0  0  0  0  0  0  0  0  0  0  0
    7.0180  -11.9885   28.3342 C   0  0  0  0  0  0  0  0  0  0  0  0
    6.2530  -12.4438   26.7570 S   0  0  0  0  0  0  0  0  0  0  0  0
    7.4496  -13.3584   25.7519 C   0  0  0  0  0  0  0  0  0  0  0  0
    6.8627  -13.7327   24.4082 C   0  0  0  0  0  0  0  0  0  0  0  0
    7.9468  -14.4896   23.6514 C   0  0  2  0  0  0  0  0  0  0  0  0
    7.4197  -14.8341   22.3467 N   0  0  0  0  0  0  0  0  0  0  0  0
    8.3593  -15.7237   24.3982 C   0  0  0  0  0  0  0  0  0  0  0  0
    7.5424  -16.6513   24.5762 O   0  0  0  0  0  0  0  0  0  0  0  0
    9.6752  -15.8206   24.8942 N   0  0  0  0  0  0  0  0  0  0  0  0
   10.1632  -17.0002   25.5932 C   0  0  1  0  0  0  0  0  0  0  0  0
   11.6055  -17.2322   25.2378 C   0  0  0  0  0  0  0  0  0  0  0  0
   11.8368  -17.3905   23.7726 C   0  0  0  0  0  0  0  0  0  0  0  0
   13.2416  -17.6586   23.4042 C   0  0  0  0  0  0  0  0  0  0  0  0
   14.1976  -16.8800   23.6461 O   0  0  0  0  0  0  0  0  0  0  0  0
   10.0563  -16.7212   27.0700 C   0  0  0  0  0  0  0  0  0  0  0  0
    9.7685  -15.5798   27.5139 O   0  0  0  0  0  0  0  0  0  0  0  0
   13.5346  -18.8455   22.7478 O   0  0  0  0  0  0  0  0  0  0  0  0
   10.2760  -17.7308   27.9887 O   0  0  0  0  0  0  0  0  0  0  0  0
  2  3  1  0
  2  1  1  0
  3  4  1  6
  5  6  2  0
  5  3  1  0
  7  8  1  0
  8  9  1  0
  9 10  1  0
 11 10  1  1
 11 13  1  0
 11 12  1  0
 12  5  1  0
 13 15  1  0
 14 13  2  0
 15 16  1  0
 16 21  1  0
 16 17  1  6
 18 17  1  0
 19 18  1  0
 20 19  2  0
 21 22  2  0
 21 24  1  0
 23 19  1  0
M  END
$$$$
