SME.pdb
     RDKit          3D

 24 23  0  0  1  0  0  0  0  0999 V2000
    7.6064  -17.9472   20.7624 O   0  0  0  0  0  0  0  0  0  0  0  0
    6.8739  -16.8524   20.3755 C   0  0  0  0  0  0  0  0  0  0  0  0
    7.6880  -15.6061   20.1987 C   0  0  2  0  0  0  0  0  0  0  0  0
    8.6560  -15.6691   19.1608 N   0  0  0  0  0  0  0  0  0  0  0  0
    8.3683  -15.2146   21.4680 C   0  0  0  0  0  0  0  0  0  0  0  0
    9.6105  -15.4115   21.6409 O   0  0  0  0  0  0  0  0  0  0  0  0
    5.3738  -12.7702   27.3098 C   0  0  0  0  0  0  0  0  0  0  0  0
    6.8729  -11.8755   26.8276 S   0  0  0  0  0  0  0  0  0  0  0  0
    7.9379  -12.9702   25.8551 C   0  0  0  0  0  0  0  0  0  0  0  0
    7.2450  -13.4240   24.5885 C   0  0  0  0  0  0  0  0  0  0  0  0
    8.2455  -14.2818   23.8242 C   0  0  2  0  0  0  0  0  0  0  0  0
    7.6620  -14.6056   22.5385 N   0  0  0  0  0  0  0  0  0  0  0  0
    8.5723  -15.5317   24.5871 C   0  0  0  0  0  0  0  0  0  0  0  0
    7.7081  -16.4213   24.7327 O   0  0  0  0  0  0  0  0  0  0  0  0
    9.8618  -15.6866   25.1348 N   0  0  0  0  0  0  0  0  0  0  0  0
   10.2576  -16.8714   25.8816 C   0  0  1  0  0  0  0  0  0  0  0  0
   11.6637  -17.2517   25.5092 C   0  0  0  0  0  0  0  0  0  0  0  0
   11.8240  -17.5879   24.0648 C   0  0  0  0  0  0  0  0  0  0  0  0
   13.1976  -17.9677   23.6775 C   0  0  0  0  0  0  0  0  0  0  0  0
   13.9655  -17.2452   22.9940 O   0  0  0  0  0  0  0  0  0  0  0  0
   10.2129  -16.5137   27.3446 C   0  0  0  0  0  0  0  0  0  0  0  0
   10.4837  -17.3505   28.2442 O   0  0  0  0  0  0  0  0  0  0  0  0
   13.6806  -19.2010   24.0911 O   0  0  0  0  0  0  0  0  0  0  0  0
    9.8671  -15.2349   27.7402 O   0  0  0  0  0  0  0  0  0  0  0  0
  2  3  1  0
  2  1  1  0
  3  4  1  6
  5  6  2  0
  5  3  1  0
  7  8  1  0
  8  9  1  0
  9 10  1  0
 11 10  1  1
 11 13  1  0
 11 12  1  0
 12  5  1  0
 13 15  1  0
 14 13  2  0
 15 16  1  0
 16 21  1  0
 16 17  1  6
 18 17  1  0
 19 18  1  0
 20 19  2  0
 21 22  2  0
 21 24  1  0
 23 19  1  0
M  END
$$$$
