SME.pdb
     RDKit          3D

 24 23  0  0  1  0  0  0  0  0999 V2000
    7.9723  -18.3204   19.3994 O   0  0  0  0  0  0  0  0  0  0  0  0
    7.1517  -17.5177   20.1527 C   0  0  0  0  0  0  0  0  0  0  0  0
    7.3685  -16.0504   19.9359 C   0  0  2  0  0  0  0  0  0  0  0  0
    8.0876  -15.7224   18.7553 N   0  0  0  0  0  0  0  0  0  0  0  0
    8.0504  -15.4214   21.1049 C   0  0  0  0  0  0  0  0  0  0  0  0
    9.3095  -15.2604   21.1286 O   0  0  0  0  0  0  0  0  0  0  0  0
    7.2066  -11.6339   27.9701 C   0  0  0  0  0  0  0  0  0  0  0  0
    6.3234  -12.4627   26.6235 S   0  0  0  0  0  0  0  0  0  0  0  0
    7.5176  -13.2904   25.5432 C   0  0  0  0  0  0  0  0  0  0  0  0
    6.8439  -13.8462   24.3073 C   0  0  0  0  0  0  0  0  0  0  0  0
    7.9386  -14.4803   23.4584 C   0  0  2  0  0  0  0  0  0  0  0  0
    7.3270  -14.9748   22.2419 N   0  0  0  0  0  0  0  0  0  0  0  0
    8.6148  -15.5946   24.2015 C   0  0  0  0  0  0  0  0  0  0  0  0
    8.0870  -16.7252   24.2522 O   0  0  0  0  0  0  0  0  0  0  0  0
    9.8477  -15.3483   24.8389 N   0  0  0  0  0  0  0  0  0  0  0  0
   10.8049  -16.4061   25.1267 C   0  0  1  0  0  0  0  0  0  0  0  0
   12.1922  -15.9296   24.7971 C   0  0  0  0  0  0  0  0  0  0  0  0
   13.2524  -16.9327   25.1052 C   0  0  0  0  0  0  0  0  0  0  0  0
   14.6185  -16.5049   24.7422 C   0  0  0  0  0  0  0  0  0  0  0  0
   14.8790  -15.5969   23.9137 O   0  0  0  0  0  0  0  0  0  0  0  0
   10.7195  -16.6975   26.6024 C   0  0  0  0  0  0  0  0  0  0  0  0
   11.1701  -17.7619   27.0992 O   0  0  0  0  0  0  0  0  0  0  0  0
   15.6908  -17.1414   25.3509 O   0  0  0  0  0  0  0  0  0  0  0  0
   10.1337  -15.7859   27.4611 O   0  0  0  0  0  0  0  0  0  0  0  0
  2  3  1  0
  2  1  1  0
  3  4  1  6
  5  6  2  0
  5  3  1  0
  7  8  1  0
  8  9  1  0
  9 10  1  0
 11 10  1  1
 11 13  1  0
 11 12  1  0
 12  5  1  0
 13 15  1  0
 14 13  2  0
 15 16  1  0
 16 21  1  0
 16 17  1  1
 18 17  1  0
 19 18  1  0
 20 19  2  0
 21 22  2  0
 21 24  1  0
 23 19  1  0
M  END
$$$$
