SME.pdb
     RDKit          3D

 24 23  0  0  1  0  0  0  0  0999 V2000
    7.4982  -17.9113   20.4578 O   0  0  0  0  0  0  0  0  0  0  0  0
    6.9716  -16.7662   19.9132 C   0  0  0  0  0  0  0  0  0  0  0  0
    7.9329  -15.6171   19.8639 C   0  0  2  0  0  0  0  0  0  0  0  0
    9.0239  -15.7908   18.9706 N   0  0  0  0  0  0  0  0  0  0  0  0
    8.4677  -15.2951   21.2195 C   0  0  0  0  0  0  0  0  0  0  0  0
    9.6810  -15.5151   21.5216 O   0  0  0  0  0  0  0  0  0  0  0  0
    7.1766  -11.6651   28.0984 C   0  0  0  0  0  0  0  0  0  0  0  0
    6.4528  -12.1099   26.4989 S   0  0  0  0  0  0  0  0  0  0  0  0
    7.5663  -13.2437   25.6313 C   0  0  0  0  0  0  0  0  0  0  0  0
    7.0459  -13.5701   24.2482 C   0  0  0  0  0  0  0  0  0  0  0  0
    8.0899  -14.4598   23.5852 C   0  0  2  0  0  0  0  0  0  0  0  0
    7.6488  -14.7296   22.2320 N   0  0  0  0  0  0  0  0  0  0  0  0
    8.2668  -15.7388   24.3492 C   0  0  0  0  0  0  0  0  0  0  0  0
    7.3615  -16.5990   24.3498 O   0  0  0  0  0  0  0  0  0  0  0  0
    9.4629  -15.9545   25.0631 N   0  0  0  0  0  0  0  0  0  0  0  0
    9.7968  -17.2389   25.6607 C   0  0  1  0  0  0  0  0  0  0  0  0
   11.0421  -17.7822   25.0169 C   0  0  0  0  0  0  0  0  0  0  0  0
   12.2296  -16.8945   25.1807 C   0  0  0  0  0  0  0  0  0  0  0  0
   13.4229  -17.3297   24.4272 C   0  0  0  0  0  0  0  0  0  0  0  0
   14.4762  -16.6535   24.3177 O   0  0  0  0  0  0  0  0  0  0  0  0
   10.0618  -16.9962   27.1239 C   0  0  0  0  0  0  0  0  0  0  0  0
   10.3410  -17.9335   27.9154 O   0  0  0  0  0  0  0  0  0  0  0  0
   13.3880  -18.5648   23.7958 O   0  0  0  0  0  0  0  0  0  0  0  0
   10.0035  -15.7152   27.6407 O   0  0  0  0  0  0  0  0  0  0  0  0
  2  3  1  0
  2  1  1  0
  3  4  1  6
  5  6  2  0
  5  3  1  0
  7  8  1  0
  8  9  1  0
  9 10  1  0
 11 10  1  1
 11 13  1  0
 11 12  1  0
 12  5  1  0
 13 15  1  0
 14 13  2  0
 15 16  1  0
 16 21  1  0
 16 17  1  6
 18 17  1  0
 19 18  1  0
 20 19  2  0
 21 22  2  0
 21 24  1  0
 23 19  1  0
M  END
$$$$
