SME.pdb
     RDKit          3D

 24 23  0  0  1  0  0  0  0  0999 V2000
    8.4155  -18.1740   20.7103 O   0  0  0  0  0  0  0  0  0  0  0  0
    7.4771  -17.3105   20.2017 C   0  0  0  0  0  0  0  0  0  0  0  0
    7.9429  -15.8886   20.1114 C   0  0  2  0  0  0  0  0  0  0  0  0
    8.9070  -15.6406   19.0978 N   0  0  0  0  0  0  0  0  0  0  0  0
    8.4830  -15.4078   21.4170 C   0  0  0  0  0  0  0  0  0  0  0  0
    9.7322  -15.3567   21.6378 O   0  0  0  0  0  0  0  0  0  0  0  0
    6.8839  -11.5776   28.1057 C   0  0  0  0  0  0  0  0  0  0  0  0
    6.1607  -12.3813   26.6526 S   0  0  0  0  0  0  0  0  0  0  0  0
    7.4584  -13.2583   25.7443 C   0  0  0  0  0  0  0  0  0  0  0  0
    6.9092  -13.9003   24.4888 C   0  0  0  0  0  0  0  0  0  0  0  0
    8.0916  -14.5334   23.7663 C   0  0  2  0  0  0  0  0  0  0  0  0
    7.6294  -14.9864   22.4703 N   0  0  0  0  0  0  0  0  0  0  0  0
    8.6526  -15.6778   24.5578 C   0  0  0  0  0  0  0  0  0  0  0  0
    7.9672  -16.7042   24.7480 O   0  0  0  0  0  0  0  0  0  0  0  0
    9.9575  -15.5784   25.0816 N   0  0  0  0  0  0  0  0  0  0  0  0
   10.6045  -16.6766   25.7840 C   0  0  1  0  0  0  0  0  0  0  0  0
   12.0948  -16.5692   25.6171 C   0  0  0  0  0  0  0  0  0  0  0  0
   12.5317  -16.5507   24.1909 C   0  0  0  0  0  0  0  0  0  0  0  0
   13.9940  -16.4630   24.0038 C   0  0  0  0  0  0  0  0  0  0  0  0
   14.6982  -15.4917   24.3770 O   0  0  0  0  0  0  0  0  0  0  0  0
   10.2592  -16.5390   27.2442 C   0  0  0  0  0  0  0  0  0  0  0  0
   10.6713  -17.3569   28.1068 O   0  0  0  0  0  0  0  0  0  0  0  0
   14.6413  -17.5176   23.3759 O   0  0  0  0  0  0  0  0  0  0  0  0
    9.4673  -15.4922   27.6785 O   0  0  0  0  0  0  0  0  0  0  0  0
  2  3  1  0
  2  1  1  0
  3  4  1  6
  5  6  2  0
  5  3  1  0
  7  8  1  0
  8  9  1  0
  9 10  1  0
 11 10  1  1
 11 13  1  0
 11 12  1  0
 12  5  1  0
 13 15  1  0
 14 13  2  0
 15 16  1  0
 16 21  1  0
 16 17  1  1
 18 17  1  0
 19 18  1  0
 20 19  2  0
 21 22  2  0
 21 24  1  0
 23 19  1  0
M  END
$$$$
