SME.pdb
     RDKit          3D

 24 23  0  0  1  0  0  0  0  0999 V2000
    7.5228  -17.6922   21.3243 O   0  0  0  0  0  0  0  0  0  0  0  0
    6.6774  -16.6826   20.9358 C   0  0  0  0  0  0  0  0  0  0  0  0
    7.3625  -15.3696   20.7039 C   0  0  2  0  0  0  0  0  0  0  0  0
    8.2074  -15.3319   19.5624 N   0  0  0  0  0  0  0  0  0  0  0  0
    8.1497  -14.9468   21.8992 C   0  0  0  0  0  0  0  0  0  0  0  0
    9.4034  -14.7579   21.8329 O   0  0  0  0  0  0  0  0  0  0  0  0
    5.2609  -11.5306   26.4401 C   0  0  0  0  0  0  0  0  0  0  0  0
    6.8202  -11.7902   27.3240 S   0  0  0  0  0  0  0  0  0  0  0  0
    7.9220  -12.8083   26.3102 C   0  0  0  0  0  0  0  0  0  0  0  0
    7.1833  -13.4100   25.1344 C   0  0  0  0  0  0  0  0  0  0  0  0
    8.2126  -14.1802   24.3170 C   0  0  2  0  0  0  0  0  0  0  0  0
    7.5370  -14.7364   23.1625 N   0  0  0  0  0  0  0  0  0  0  0  0
    8.8424  -15.2677   25.1365 C   0  0  0  0  0  0  0  0  0  0  0  0
    9.3757  -14.9975   26.2329 O   0  0  0  0  0  0  0  0  0  0  0  0
    8.8245  -16.5918   24.6535 N   0  0  0  0  0  0  0  0  0  0  0  0
    9.9177  -17.5242   24.8852 C   0  0  1  0  0  0  0  0  0  0  0  0
   11.1046  -17.1207   24.0551 C   0  0  0  0  0  0  0  0  0  0  0  0
   12.3766  -17.0567   24.8315 C   0  0  0  0  0  0  0  0  0  0  0  0
   13.5504  -17.6046   24.1221 C   0  0  0  0  0  0  0  0  0  0  0  0
   13.9686  -18.7825   24.2506 O   0  0  0  0  0  0  0  0  0  0  0  0
   10.2811  -17.4338   26.3446 C   0  0  0  0  0  0  0  0  0  0  0  0
   10.1721  -16.3616   26.9938 O   0  0  0  0  0  0  0  0  0  0  0  0
   14.2428  -16.7717   23.2548 O   0  0  0  0  0  0  0  0  0  0  0  0
   10.7513  -18.5465   27.0171 O   0  0  0  0  0  0  0  0  0  0  0  0
  2  3  1  0
  2  1  1  0
  3  4  1  6
  5  6  2  0
  5  3  1  0
  7  8  1  0
  8  9  1  0
  9 10  1  0
 11 10  1  1
 11 13  1  0
 11 12  1  0
 12  5  1  0
 13 15  1  0
 14 13  2  0
 15 16  1  0
 16 21  1  0
 16 17  1  6
 18 17  1  0
 19 18  1  0
 20 19  2  0
 21 22  2  0
 21 24  1  0
 23 19  1  0
M  END
$$$$
