SME.pdb
     RDKit          3D

 24 23  0  0  1  0  0  0  0  0999 V2000
    7.4643  -17.9598   20.3367 O   0  0  0  0  0  0  0  0  0  0  0  0
    6.4184  -17.0800   20.2061 C   0  0  0  0  0  0  0  0  0  0  0  0
    6.8342  -15.6403   20.1700 C   0  0  2  0  0  0  0  0  0  0  0  0
    7.4667  -15.2328   18.9649 N   0  0  0  0  0  0  0  0  0  0  0  0
    7.7241  -15.3008   21.3190 C   0  0  0  0  0  0  0  0  0  0  0  0
    8.9709  -15.1219   21.1600 O   0  0  0  0  0  0  0  0  0  0  0  0
    6.7016  -10.8228   27.0941 C   0  0  0  0  0  0  0  0  0  0  0  0
    6.5733  -12.6131   26.8525 S   0  0  0  0  0  0  0  0  0  0  0  0
    7.1509  -13.0368   25.1896 C   0  0  0  0  0  0  0  0  0  0  0  0
    7.0919  -14.5305   24.9540 C   0  0  0  0  0  0  0  0  0  0  0  0
    8.0318  -14.8290   23.7928 C   0  0  2  0  0  0  0  0  0  0  0  0
    7.2212  -15.1622   22.6394 N   0  0  0  0  0  0  0  0  0  0  0  0
    8.9597  -15.9583   24.1315 C   0  0  0  0  0  0  0  0  0  0  0  0
    8.5130  -17.1157   24.2734 O   0  0  0  0  0  0  0  0  0  0  0  0
   10.3358  -15.6955   24.2871 N   0  0  0  0  0  0  0  0  0  0  0  0
   11.3161  -16.7518   24.4910 C   0  0  1  0  0  0  0  0  0  0  0  0
   12.6770  -16.2571   24.0865 C   0  0  0  0  0  0  0  0  0  0  0  0
   13.7771  -17.2065   24.4237 C   0  0  0  0  0  0  0  0  0  0  0  0
   15.1232  -16.7407   24.0338 C   0  0  0  0  0  0  0  0  0  0  0  0
   15.3462  -15.6992   23.3672 O   0  0  0  0  0  0  0  0  0  0  0  0
   11.3248  -17.0762   25.9623 C   0  0  0  0  0  0  0  0  0  0  0  0
   10.8914  -16.2700   26.8255 O   0  0  0  0  0  0  0  0  0  0  0  0
   16.2196  -17.4960   24.4249 O   0  0  0  0  0  0  0  0  0  0  0  0
   11.8180  -18.2889   26.4068 O   0  0  0  0  0  0  0  0  0  0  0  0
  2  3  1  0
  2  1  1  0
  3  4  1  6
  5  6  2  0
  5  3  1  0
  7  8  1  0
  8  9  1  0
  9 10  1  0
 11 10  1  1
 11 13  1  0
 11 12  1  0
 12  5  1  0
 13 15  1  0
 14 13  2  0
 15 16  1  0
 16 21  1  0
 16 17  1  1
 18 17  1  0
 19 18  1  0
 20 19  2  0
 21 22  2  0
 21 24  1  0
 23 19  1  0
M  END
$$$$
