SME.pdb
     RDKit          3D

 24 23  0  0  1  0  0  0  0  0999 V2000
    7.6899  -17.1399   20.4223 O   0  0  0  0  0  0  0  0  0  0  0  0
    6.7510  -16.1420   20.5098 C   0  0  0  0  0  0  0  0  0  0  0  0
    7.3328  -14.7718   20.6859 C   0  0  2  0  0  0  0  0  0  0  0  0
    8.2106  -14.3593   19.6479 N   0  0  0  0  0  0  0  0  0  0  0  0
    8.0404  -14.6438   21.9936 C   0  0  0  0  0  0  0  0  0  0  0  0
    9.2986  -14.7879   22.0820 O   0  0  0  0  0  0  0  0  0  0  0  0
    9.3152  -12.7404   28.8066 C   0  0  0  0  0  0  0  0  0  0  0  0
    8.5991  -12.6606   27.1450 S   0  0  0  0  0  0  0  0  0  0  0  0
    7.5061  -14.0822   26.8941 C   0  0  0  0  0  0  0  0  0  0  0  0
    6.8567  -14.0386   25.5279 C   0  0  0  0  0  0  0  0  0  0  0  0
    7.9301  -14.4271   24.5191 C   0  0  2  0  0  0  0  0  0  0  0  0
    7.3434  -14.3560   23.1966 N   0  0  0  0  0  0  0  0  0  0  0  0
    8.4493  -15.8075   24.7943 C   0  0  0  0  0  0  0  0  0  0  0  0
    7.6942  -16.7956   24.6803 O   0  0  0  0  0  0  0  0  0  0  0  0
    9.7944  -15.9726   25.1820 N   0  0  0  0  0  0  0  0  0  0  0  0
   10.3945  -17.2825   25.3877 C   0  0  1  0  0  0  0  0  0  0  0  0
   11.6636  -17.3832   24.5879 C   0  0  0  0  0  0  0  0  0  0  0  0
   12.6206  -16.2699   24.8520 C   0  0  0  0  0  0  0  0  0  0  0  0
   13.8218  -16.2838   23.9929 C   0  0  0  0  0  0  0  0  0  0  0  0
   14.0431  -17.1394   23.0997 O   0  0  0  0  0  0  0  0  0  0  0  0
   10.7230  -17.3989   26.8535 C   0  0  0  0  0  0  0  0  0  0  0  0
   10.4959  -16.4639   27.6641 O   0  0  0  0  0  0  0  0  0  0  0  0
   14.7735  -15.2909   24.1766 O   0  0  0  0  0  0  0  0  0  0  0  0
   11.2919  -18.5564   27.3515 O   0  0  0  0  0  0  0  0  0  0  0  0
  2  3  1  0
  2  1  1  0
  3  4  1  6
  5  6  2  0
  5  3  1  0
  7  8  1  0
  8  9  1  0
  9 10  1  0
 11 10  1  1
 11 13  1  0
 11 12  1  0
 12  5  1  0
 13 15  1  0
 14 13  2  0
 15 16  1  0
 16 21  1  0
 16 17  1  6
 18 17  1  0
 19 18  1  0
 20 19  2  0
 21 22  2  0
 21 24  1  0
 23 19  1  0
M  END
$$$$
