SME.pdb
     RDKit          3D

 24 23  0  0  1  0  0  0  0  0999 V2000
    8.2156  -18.6657   22.9937 O   0  0  0  0  0  0  0  0  0  0  0  0
    8.1766  -18.5919   21.6234 C   0  0  0  0  0  0  0  0  0  0  0  0
    7.5039  -17.3594   21.0985 C   0  0  2  0  0  0  0  0  0  0  0  0
    7.5671  -17.2009   19.6881 N   0  0  0  0  0  0  0  0  0  0  0  0
    8.0417  -16.1270   21.7457 C   0  0  0  0  0  0  0  0  0  0  0  0
    9.0665  -15.5330   21.2887 O   0  0  0  0  0  0  0  0  0  0  0  0
    6.6781  -11.9355   27.8998 C   0  0  0  0  0  0  0  0  0  0  0  0
    6.1154  -11.8207   26.1822 S   0  0  0  0  0  0  0  0  0  0  0  0
    7.3528  -12.5714   25.0943 C   0  0  0  0  0  0  0  0  0  0  0  0
    6.8028  -13.8027   24.4076 C   0  0  0  0  0  0  0  0  0  0  0  0
    7.9511  -14.4120   23.6133 C   0  0  2  0  0  0  0  0  0  0  0  0
    7.4359  -15.5620   22.8987 N   0  0  0  0  0  0  0  0  0  0  0  0
    9.0765  -14.8133   24.5207 C   0  0  0  0  0  0  0  0  0  0  0  0
    9.7299  -13.9422   25.1321 O   0  0  0  0  0  0  0  0  0  0  0  0
    9.3847  -16.1803   24.6721 N   0  0  0  0  0  0  0  0  0  0  0  0
   10.4155  -16.6538   25.5841 C   0  0  1  0  0  0  0  0  0  0  0  0
   10.1471  -18.0893   25.9416 C   0  0  0  0  0  0  0  0  0  0  0  0
   11.1769  -18.6772   26.8465 C   0  0  0  0  0  0  0  0  0  0  0  0
   10.6256  -19.5012   27.9411 C   0  0  0  0  0  0  0  0  0  0  0  0
    9.5304  -19.2756   28.5140 O   0  0  0  0  0  0  0  0  0  0  0  0
   11.7321  -16.5630   24.8572 C   0  0  0  0  0  0  0  0  0  0  0  0
   12.8313  -16.7350   25.4445 O   0  0  0  0  0  0  0  0  0  0  0  0
   11.3579  -20.5984   28.3717 O   0  0  0  0  0  0  0  0  0  0  0  0
   11.7642  -16.2835   23.5035 O   0  0  0  0  0  0  0  0  0  0  0  0
  2  3  1  0
  2  1  1  0
  3  4  1  6
  5  6  2  0
  5  3  1  0
  7  8  1  0
  8  9  1  0
  9 10  1  0
 11 10  1  1
 11 13  1  0
 11 12  1  0
 12  5  1  0
 13 15  1  0
 14 13  2  0
 15 16  1  0
 16 21  1  0
 16 17  1  6
 18 17  1  0
 19 18  1  0
 20 19  2  0
 21 22  2  0
 21 24  1  0
 23 19  1  0
M  END
$$$$
