SME.pdb
     RDKit          3D

 24 23  0  0  1  0  0  0  0  0999 V2000
    7.5786  -17.5093   20.3559 O   0  0  0  0  0  0  0  0  0  0  0  0
    6.7313  -16.4365   20.2286 C   0  0  0  0  0  0  0  0  0  0  0  0
    7.4215  -15.1066   20.2721 C   0  0  2  0  0  0  0  0  0  0  0  0
    8.3744  -14.8957   19.2397 N   0  0  0  0  0  0  0  0  0  0  0  0
    8.0822  -14.8780   21.5906 C   0  0  0  0  0  0  0  0  0  0  0  0
    9.3430  -14.9509   21.7204 O   0  0  0  0  0  0  0  0  0  0  0  0
    6.2135  -11.1703   27.1541 C   0  0  0  0  0  0  0  0  0  0  0  0
    7.7769  -12.0197   26.8156 S   0  0  0  0  0  0  0  0  0  0  0  0
    7.4398  -13.7431   26.3745 C   0  0  0  0  0  0  0  0  0  0  0  0
    6.8310  -13.8453   24.9928 C   0  0  0  0  0  0  0  0  0  0  0  0
    7.9102  -14.4113   24.0785 C   0  0  2  0  0  0  0  0  0  0  0  0
    7.3357  -14.5693   22.7581 N   0  0  0  0  0  0  0  0  0  0  0  0
    8.4159  -15.7254   24.5965 C   0  0  0  0  0  0  0  0  0  0  0  0
    7.6326  -16.6880   24.7349 O   0  0  0  0  0  0  0  0  0  0  0  0
    9.7807  -15.8573   24.9234 N   0  0  0  0  0  0  0  0  0  0  0  0
   10.3479  -17.0988   25.4284 C   0  0  1  0  0  0  0  0  0  0  0  0
   11.8378  -17.0872   25.2269 C   0  0  0  0  0  0  0  0  0  0  0  0
   12.2416  -17.0752   23.7910 C   0  0  0  0  0  0  0  0  0  0  0  0
   13.6952  -16.9373   23.5691 C   0  0  0  0  0  0  0  0  0  0  0  0
   14.3398  -15.8729   23.7433 O   0  0  0  0  0  0  0  0  0  0  0  0
   10.0487  -17.1599   26.9038 C   0  0  0  0  0  0  0  0  0  0  0  0
   10.3313  -18.1688   27.6003 O   0  0  0  0  0  0  0  0  0  0  0  0
   14.4039  -18.0506   23.1405 O   0  0  0  0  0  0  0  0  0  0  0  0
    9.4460  -16.0898   27.5387 O   0  0  0  0  0  0  0  0  0  0  0  0
  2  3  1  0
  2  1  1  0
  3  4  1  6
  5  6  2  0
  5  3  1  0
  7  8  1  0
  8  9  1  0
  9 10  1  0
 11 10  1  1
 11 13  1  0
 11 12  1  0
 12  5  1  0
 13 15  1  0
 14 13  2  0
 15 16  1  0
 16 21  1  0
 16 17  1  1
 18 17  1  0
 19 18  1  0
 20 19  2  0
 21 22  2  0
 21 24  1  0
 23 19  1  0
M  END
$$$$
