SNW.pdb
     RDKit          3D

 29 30  0  0  1  0  0  0  0  0999 V2000
    7.7066  -14.0157   18.1395 O   0  0  0  0  0  0  0  0  0  0  0  0
    7.1874  -13.1345   19.0883 C   0  0  0  0  0  0  0  0  0  0  0  0
    8.0576  -13.2630   20.3195 C   0  0  2  0  0  0  0  0  0  0  0  0
    9.4345  -13.1238   19.8339 N   0  0  0  0  0  0  0  0  0  0  0  0
    7.8635  -14.5953   20.9995 C   0  0  0  0  0  0  0  0  0  0  0  0
    6.7392  -14.8303   21.4440 O   0  0  0  0  0  0  0  0  0  0  0  0
    7.5121  -17.6053   19.4659 N   0  0  0  0  0  0  0  0  0  0  0  0
    8.8402  -18.1441   19.6109 C   0  0  0  0  0  0  0  0  0  0  0  0
    9.2497  -18.8373   18.6446 O   0  0  0  0  0  0  0  0  0  0  0  0
    9.6374  -17.8830   20.8275 C   0  0  0  0  0  0  0  0  0  0  0  0
    9.0005  -16.8127   21.6508 C   0  0  2  0  0  0  0  0  0  0  0  0
    8.9303  -15.4913   21.0991 N   0  0  0  0  0  0  0  0  0  0  0  0
    9.3171  -16.8374   23.0687 C   0  0  0  0  0  0  0  0  0  0  0  0
    9.2773  -17.9431   23.6875 O   0  0  0  0  0  0  0  0  0  0  0  0
    9.6749  -15.7205   23.8521 N   0  0  0  0  0  0  0  0  0  0  0  0
    9.9474  -15.7967   25.2658 C   0  0  1  0  0  0  0  0  0  0  0  0
    8.8086  -16.3436   26.0802 C   0  0  0  0  0  0  0  0  0  0  0  0
    7.6585  -15.3982   25.9647 C   0  0  0  0  0  0  0  0  0  0  0  0
    6.3892  -15.6929   25.5214 C   0  0  0  0  0  0  0  0  0  0  0  0
    5.6280  -14.5605   25.5650 N   0  0  0  0  0  0  0  0  0  0  0  0
    6.3643  -13.5341   26.0246 C   0  0  0  0  0  0  0  0  0  0  0  0
    6.0651  -12.1998   26.2532 C   0  0  0  0  0  0  0  0  0  0  0  0
    7.0445  -11.3525   26.7427 C   0  0  0  0  0  0  0  0  0  0  0  0
    8.3024  -11.8545   26.9939 C   0  0  0  0  0  0  0  0  0  0  0  0
    8.5859  -13.2017   26.7579 C   0  0  0  0  0  0  0  0  0  0  0  0
    7.6299  -14.0520   26.2745 C   0  0  0  0  0  0  0  0  0  0  0  0
   11.2278  -16.4807   25.4829 C   0  0  0  0  0  0  0  0  0  0  0  0
   12.0436  -16.9404   24.4415 O   0  0  0  0  0  0  0  0  0  0  0  0
   11.6351  -16.6769   26.6502 O   0  0  0  0  0  0  0  0  0  0  0  0
  2  3  1  0
  2  1  1  0
  3  4  1  6
  5  3  1  0
  5  6  2  0
  7  8  1  0
  8  9  2  0
 10  8  1  0
 11 10  1  6
 11 12  1  0
 12  5  1  0
 13 11  1  0
 14 13  2  0
 15 13  1  0
 16 17  1  1
 16 15  1  0
 18 17  1  0
 19 18  2  0
 20 21  1  0
 20 19  1  0
 21 26  2  0
 22 21  1  0
 22 23  2  0
 23 24  1  0
 24 25  2  0
 26 18  1  0
 26 25  1  0
 27 16  1  0
 28 27  1  0
 29 27  2  0
M  END
$$$$
