SNW.pdb
     RDKit          3D

 29 30  0  0  1  0  0  0  0  0999 V2000
    9.2952  -12.1073   18.4286 O   0  0  0  0  0  0  0  0  0  0  0  0
    8.9666  -12.9091   19.5219 C   0  0  0  0  0  0  0  0  0  0  0  0
    8.3210  -14.1584   18.9632 C   0  0  2  0  0  0  0  0  0  0  0  0
    6.9976  -13.7320   18.4966 N   0  0  0  0  0  0  0  0  0  0  0  0
    8.1959  -15.2349   20.0123 C   0  0  0  0  0  0  0  0  0  0  0  0
    7.1962  -15.1933   20.7304 O   0  0  0  0  0  0  0  0  0  0  0  0
    8.0765  -19.8382   19.4668 N   0  0  0  0  0  0  0  0  0  0  0  0
    9.2295  -18.9755   19.4294 C   0  0  0  0  0  0  0  0  0  0  0  0
    9.6036  -18.6242   18.2810 O   0  0  0  0  0  0  0  0  0  0  0  0
    9.9043  -18.5547   20.6750 C   0  0  0  0  0  0  0  0  0  0  0  0
    9.3921  -17.2264   21.1245 C   0  0  2  0  0  0  0  0  0  0  0  0
    9.1854  -16.2134   20.1313 N   0  0  0  0  0  0  0  0  0  0  0  0
    9.9562  -16.7215   22.3648 C   0  0  0  0  0  0  0  0  0  0  0  0
   10.9094  -15.8875   22.3110 O   0  0  0  0  0  0  0  0  0  0  0  0
    9.5385  -17.0770   23.6641 N   0  0  0  0  0  0  0  0  0  0  0  0
    9.9864  -16.3994   24.8553 C   0  0  1  0  0  0  0  0  0  0  0  0
    9.8472  -14.9038   24.7979 C   0  0  0  0  0  0  0  0  0  0  0  0
    8.4239  -14.5579   25.0884 C   0  0  0  0  0  0  0  0  0  0  0  0
    7.3224  -15.3581   24.8865 C   0  0  0  0  0  0  0  0  0  0  0  0
    6.2027  -14.6815   25.2770 N   0  0  0  0  0  0  0  0  0  0  0  0
    6.5419  -13.4617   25.7285 C   0  0  0  0  0  0  0  0  0  0  0  0
    5.7904  -12.4103   26.2307 C   0  0  0  0  0  0  0  0  0  0  0  0
    6.4233  -11.2454   26.6294 C   0  0  0  0  0  0  0  0  0  0  0  0
    7.7933  -11.1538   26.5189 C   0  0  0  0  0  0  0  0  0  0  0  0
    8.5344  -12.2233   26.0109 C   0  0  0  0  0  0  0  0  0  0  0  0
    7.9248  -13.3809   25.6124 C   0  0  0  0  0  0  0  0  0  0  0  0
    9.3684  -17.0183   26.0341 C   0  0  0  0  0  0  0  0  0  0  0  0
    9.7198  -16.6929   27.3501 O   0  0  0  0  0  0  0  0  0  0  0  0
    8.4786  -17.8857   25.8836 O   0  0  0  0  0  0  0  0  0  0  0  0
  2  3  1  0
  2  1  1  0
  3  4  1  1
  5  3  1  0
  5  6  2  0
  7  8  1  0
  8  9  2  0
 10  8  1  0
 11 10  1  6
 11 12  1  0
 12  5  1  0
 13 11  1  0
 14 13  2  0
 15 13  1  0
 16 17  1  6
 16 15  1  0
 18 17  1  0
 19 18  2  0
 20 21  1  0
 20 19  1  0
 21 26  2  0
 22 21  1  0
 22 23  2  0
 23 24  1  0
 24 25  2  0
 26 18  1  0
 26 25  1  0
 27 16  1  0
 28 27  1  0
 29 27  2  0
M  END
$$$$
