SNW.pdb
     RDKit          3D

 29 30  0  0  1  0  0  0  0  0999 V2000
    7.3686  -14.7009   18.0164 O   0  0  0  0  0  0  0  0  0  0  0  0
    7.1860  -13.5319   18.7557 C   0  0  0  0  0  0  0  0  0  0  0  0
    8.3995  -13.3912   19.6486 C   0  0  2  0  0  0  0  0  0  0  0  0
    9.5440  -13.3202   18.7344 N   0  0  0  0  0  0  0  0  0  0  0  0
    8.5373  -14.5646   20.5864 C   0  0  0  0  0  0  0  0  0  0  0  0
    7.6273  -14.7324   21.3991 O   0  0  0  0  0  0  0  0  0  0  0  0
   11.0219  -17.6245   18.1014 N   0  0  0  0  0  0  0  0  0  0  0  0
   10.2970  -17.9285   19.3086 C   0  0  0  0  0  0  0  0  0  0  0  0
    9.1796  -18.4814   19.1423 O   0  0  0  0  0  0  0  0  0  0  0  0
   10.8569  -17.5957   20.6351 C   0  0  0  0  0  0  0  0  0  0  0  0
   10.0453  -16.5294   21.2931 C   0  0  2  0  0  0  0  0  0  0  0  0
    9.6559  -15.3970   20.5048 N   0  0  0  0  0  0  0  0  0  0  0  0
   10.4356  -16.1892   22.6508 C   0  0  0  0  0  0  0  0  0  0  0  0
   11.5157  -15.5524   22.8378 O   0  0  0  0  0  0  0  0  0  0  0  0
    9.7125  -16.5063   23.8194 N   0  0  0  0  0  0  0  0  0  0  0  0
   10.1790  -16.2016   25.1491 C   0  0  1  0  0  0  0  0  0  0  0  0
    9.9548  -14.7745   25.5645 C   0  0  0  0  0  0  0  0  0  0  0  0
    8.4858  -14.5638   25.7298 C   0  0  0  0  0  0  0  0  0  0  0  0
    7.4878  -15.4789   25.4830 C   0  0  0  0  0  0  0  0  0  0  0  0
    6.2795  -14.9048   25.7553 N   0  0  0  0  0  0  0  0  0  0  0  0
    6.4600  -13.6401   26.1733 C   0  0  0  0  0  0  0  0  0  0  0  0
    5.5712  -12.6515   26.5670 C   0  0  0  0  0  0  0  0  0  0  0  0
    6.0527  -11.4136   26.9573 C   0  0  0  0  0  0  0  0  0  0  0  0
    7.4116  -11.1878   26.9465 C   0  0  0  0  0  0  0  0  0  0  0  0
    8.2923  -12.1955   26.5470 C   0  0  0  0  0  0  0  0  0  0  0  0
    7.8332  -13.4238   26.1585 C   0  0  0  0  0  0  0  0  0  0  0  0
    9.6537  -17.1948   26.0936 C   0  0  0  0  0  0  0  0  0  0  0  0
    8.8126  -18.2491   25.7165 O   0  0  0  0  0  0  0  0  0  0  0  0
    9.9572  -17.1182   27.3056 O   0  0  0  0  0  0  0  0  0  0  0  0
  2  3  1  0
  2  1  1  0
  3  4  1  6
  5  3  1  0
  5  6  2  0
  7  8  1  0
  8  9  2  0
 10  8  1  0
 11 10  1  6
 11 12  1  0
 12  5  1  0
 13 11  1  0
 14 13  2  0
 15 13  1  0
 16 17  1  1
 16 15  1  0
 18 17  1  0
 19 18  2  0
 20 21  1  0
 20 19  1  0
 21 26  2  0
 22 21  1  0
 22 23  2  0
 23 24  1  0
 24 25  2  0
 26 18  1  0
 26 25  1  0
 27 16  1  0
 28 27  1  0
 29 27  2  0
M  END
$$$$
