SNW.pdb
     RDKit          3D

 29 30  0  0  1  0  0  0  0  0999 V2000
    8.2026  -13.0812   21.5208 O   0  0  0  0  0  0  0  0  0  0  0  0
    8.2862  -13.7137   20.2801 C   0  0  0  0  0  0  0  0  0  0  0  0
    7.4628  -14.9790   20.3836 C   0  0  2  0  0  0  0  0  0  0  0  0
    6.0843  -14.5250   20.5944 N   0  0  0  0  0  0  0  0  0  0  0  0
    7.9203  -15.8465   21.5296 C   0  0  0  0  0  0  0  0  0  0  0  0
    7.1720  -15.9128   22.5056 O   0  0  0  0  0  0  0  0  0  0  0  0
    9.7434  -19.8308   20.1987 N   0  0  0  0  0  0  0  0  0  0  0  0
   10.5917  -18.7001   20.4759 C   0  0  0  0  0  0  0  0  0  0  0  0
   11.0581  -18.1148   19.4650 O   0  0  0  0  0  0  0  0  0  0  0  0
   10.8762  -18.2862   21.8658 C   0  0  0  0  0  0  0  0  0  0  0  0
    9.7912  -17.3989   22.3800 C   0  0  2  0  0  0  0  0  0  0  0  0
    9.1381  -16.5257   21.4494 N   0  0  0  0  0  0  0  0  0  0  0  0
   10.0371  -16.7915   23.6769 C   0  0  0  0  0  0  0  0  0  0  0  0
   10.6859  -15.7038   23.7324 O   0  0  0  0  0  0  0  0  0  0  0  0
    9.6145  -17.3057   24.9204 N   0  0  0  0  0  0  0  0  0  0  0  0
    9.8756  -16.6535   26.1794 C   0  0  1  0  0  0  0  0  0  0  0  0
    8.6695  -16.5335   27.0684 C   0  0  0  0  0  0  0  0  0  0  0  0
    7.6401  -15.7258   26.3490 C   0  0  0  0  0  0  0  0  0  0  0  0
    6.5899  -16.2056   25.5999 C   0  0  0  0  0  0  0  0  0  0  0  0
    5.8760  -15.1515   25.1070 N   0  0  0  0  0  0  0  0  0  0  0  0
    6.4302  -13.9963   25.5133 C   0  0  0  0  0  0  0  0  0  0  0  0
    6.0920  -12.6702   25.2912 C   0  0  0  0  0  0  0  0  0  0  0  0
    6.8623  -11.6643   25.8494 C   0  0  0  0  0  0  0  0  0  0  0  0
    7.9542  -12.0028   26.6179 C   0  0  0  0  0  0  0  0  0  0  0  0
    8.2799  -13.3442   26.8313 C   0  0  0  0  0  0  0  0  0  0  0  0
    7.5296  -14.3499   26.2871 C   0  0  0  0  0  0  0  0  0  0  0  0
   11.0398  -17.2747   26.8222 C   0  0  0  0  0  0  0  0  0  0  0  0
   11.5966  -16.8136   28.0216 O   0  0  0  0  0  0  0  0  0  0  0  0
   11.5831  -18.2696   26.2912 O   0  0  0  0  0  0  0  0  0  0  0  0
  2  3  1  0
  2  1  1  0
  3  4  1  1
  5  3  1  0
  5  6  2  0
  7  8  1  0
  8  9  2  0
 10  8  1  0
 11 10  1  6
 11 12  1  0
 12  5  1  0
 13 11  1  0
 14 13  2  0
 15 13  1  0
 16 17  1  1
 16 15  1  0
 18 17  1  0
 19 18  2  0
 20 21  1  0
 20 19  1  0
 21 26  2  0
 22 21  1  0
 22 23  2  0
 23 24  1  0
 24 25  2  0
 26 18  1  0
 26 25  1  0
 27 16  1  0
 28 27  1  0
 29 27  2  0
M  END
$$$$
