SNW.pdb
     RDKit          3D

 29 30  0  0  1  0  0  0  0  0999 V2000
   11.6849  -19.7988   21.8964 O   0  0  0  0  0  0  0  0  0  0  0  0
   10.9068  -19.9664   20.7507 C   0  0  0  0  0  0  0  0  0  0  0  0
   11.0955  -18.7197   19.9140 C   0  0  2  0  0  0  0  0  0  0  0  0
   12.4508  -18.8268   19.3641 N   0  0  0  0  0  0  0  0  0  0  0  0
   10.9532  -17.4680   20.7435 C   0  0  0  0  0  0  0  0  0  0  0  0
   11.9873  -16.8439   20.9840 O   0  0  0  0  0  0  0  0  0  0  0  0
    6.1193  -16.8216   20.6531 N   0  0  0  0  0  0  0  0  0  0  0  0
    7.1242  -15.8103   20.8593 C   0  0  0  0  0  0  0  0  0  0  0  0
    7.3470  -15.0621   19.8731 O   0  0  0  0  0  0  0  0  0  0  0  0
    7.8281  -15.6913   22.1532 C   0  0  0  0  0  0  0  0  0  0  0  0
    9.2903  -15.9368   21.9779 C   0  0  2  0  0  0  0  0  0  0  0  0
    9.6938  -17.0692   21.1968 N   0  0  0  0  0  0  0  0  0  0  0  0
   10.1106  -15.7187   23.1573 C   0  0  0  0  0  0  0  0  0  0  0  0
   11.3392  -16.0285   23.1164 O   0  0  0  0  0  0  0  0  0  0  0  0
    9.6647  -15.1812   24.3826 N   0  0  0  0  0  0  0  0  0  0  0  0
    9.9584  -15.7741   25.6635 C   0  0  1  0  0  0  0  0  0  0  0  0
    8.7455  -16.2637   26.4041 C   0  0  0  0  0  0  0  0  0  0  0  0
    7.6310  -15.3005   26.1591 C   0  0  0  0  0  0  0  0  0  0  0  0
    6.4207  -15.5731   25.5632 C   0  0  0  0  0  0  0  0  0  0  0  0
    5.6755  -14.4298   25.5247 N   0  0  0  0  0  0  0  0  0  0  0  0
    6.3651  -13.4178   26.0790 C   0  0  0  0  0  0  0  0  0  0  0  0
    6.0590  -12.0809   26.2819 C   0  0  0  0  0  0  0  0  0  0  0  0
    6.9838  -11.2519   26.8936 C   0  0  0  0  0  0  0  0  0  0  0  0
    8.1950  -11.7744   27.2904 C   0  0  0  0  0  0  0  0  0  0  0  0
    8.4862  -13.1239   27.0782 C   0  0  0  0  0  0  0  0  0  0  0  0
    7.5839  -13.9563   26.4753 C   0  0  0  0  0  0  0  0  0  0  0  0
   11.0172  -16.7787   25.5085 C   0  0  0  0  0  0  0  0  0  0  0  0
   11.8847  -17.1516   26.5428 O   0  0  0  0  0  0  0  0  0  0  0  0
   11.1753  -17.3467   24.4043 O   0  0  0  0  0  0  0  0  0  0  0  0
  2  3  1  0
  2  1  1  0
  3  4  1  1
  5  3  1  0
  5  6  2  0
  7  8  1  0
  8  9  2  0
 10  8  1  0
 11 10  1  1
 11 12  1  0
 12  5  1  0
 13 11  1  0
 14 13  2  0
 15 13  1  0
 16 17  1  6
 16 15  1  0
 18 17  1  0
 19 18  2  0
 20 21  1  0
 20 19  1  0
 21 26  2  0
 22 21  1  0
 22 23  2  0
 23 24  1  0
 24 25  2  0
 26 18  1  0
 26 25  1  0
 27 16  1  0
 28 27  1  0
 29 27  2  0
M  END
$$$$
