SNW.pdb
     RDKit          3D

 29 30  0  0  1  0  0  0  0  0999 V2000
    8.3135  -14.3284   17.0019 O   0  0  0  0  0  0  0  0  0  0  0  0
    7.2727  -13.7166   17.7009 C   0  0  0  0  0  0  0  0  0  0  0  0
    7.7486  -13.5515   19.1277 C   0  0  2  0  0  0  0  0  0  0  0  0
    8.9983  -12.7901   19.0310 N   0  0  0  0  0  0  0  0  0  0  0  0
    7.9860  -14.8851   19.7912 C   0  0  0  0  0  0  0  0  0  0  0  0
    7.0098  -15.6272   19.9053 O   0  0  0  0  0  0  0  0  0  0  0  0
    8.8114  -18.8456   18.9936 N   0  0  0  0  0  0  0  0  0  0  0  0
    9.7995  -17.7981   18.9548 C   0  0  0  0  0  0  0  0  0  0  0  0
    9.9882  -17.2759   17.8262 O   0  0  0  0  0  0  0  0  0  0  0  0
   10.5256  -17.3929   20.1765 C   0  0  0  0  0  0  0  0  0  0  0  0
    9.7382  -16.3816   20.9420 C   0  0  2  0  0  0  0  0  0  0  0  0
    9.2644  -15.2251   20.2396 N   0  0  0  0  0  0  0  0  0  0  0  0
   10.2184  -16.0941   22.2830 C   0  0  0  0  0  0  0  0  0  0  0  0
   11.1914  -15.2947   22.4286 O   0  0  0  0  0  0  0  0  0  0  0  0
    9.6959  -16.6319   23.4776 N   0  0  0  0  0  0  0  0  0  0  0  0
   10.1638  -16.2567   24.7886 C   0  0  1  0  0  0  0  0  0  0  0  0
    9.9378  -14.8101   25.1285 C   0  0  0  0  0  0  0  0  0  0  0  0
    8.5000  -14.6372   25.4926 C   0  0  0  0  0  0  0  0  0  0  0  0
    7.4981  -15.5722   25.3648 C   0  0  0  0  0  0  0  0  0  0  0  0
    6.3251  -15.0314   25.8068 N   0  0  0  0  0  0  0  0  0  0  0  0
    6.5325  -13.7693   26.2200 C   0  0  0  0  0  0  0  0  0  0  0  0
    5.6833  -12.8085   26.7472 C   0  0  0  0  0  0  0  0  0  0  0  0
    6.1858  -11.5654   27.0922 C   0  0  0  0  0  0  0  0  0  0  0  0
    7.5257  -11.3069   26.9039 C   0  0  0  0  0  0  0  0  0  0  0  0
    8.3666  -12.2870   26.3717 C   0  0  0  0  0  0  0  0  0  0  0  0
    7.8862  -13.5199   26.0256 C   0  0  0  0  0  0  0  0  0  0  0  0
    9.6415  -17.1995   25.7850 C   0  0  0  0  0  0  0  0  0  0  0  0
    8.8371  -18.2988   25.4600 O   0  0  0  0  0  0  0  0  0  0  0  0
    9.9135  -17.0350   26.9957 O   0  0  0  0  0  0  0  0  0  0  0  0
  2  3  1  0
  2  1  1  0
  3  4  1  6
  5  3  1  0
  5  6  2  0
  7  8  1  0
  8  9  2  0
 10  8  1  0
 11 10  1  6
 11 12  1  0
 12  5  1  0
 13 11  1  0
 14 13  2  0
 15 13  1  0
 16 17  1  1
 16 15  1  0
 18 17  1  0
 19 18  2  0
 20 21  1  0
 20 19  1  0
 21 26  2  0
 22 21  1  0
 22 23  2  0
 23 24  1  0
 24 25  2  0
 26 18  1  0
 26 25  1  0
 27 16  1  0
 28 27  1  0
 29 27  2  0
M  END
$$$$
