SNW.pdb
     RDKit          3D

 29 30  0  0  1  0  0  0  0  0999 V2000
   11.0304  -18.9889   16.8567 O   0  0  0  0  0  0  0  0  0  0  0  0
   10.5105  -17.9599   17.6424 C   0  0  0  0  0  0  0  0  0  0  0  0
    9.0085  -18.1430   17.6556 C   0  0  2  0  0  0  0  0  0  0  0  0
    8.5087  -17.3036   16.5618 N   0  0  0  0  0  0  0  0  0  0  0  0
    8.4092  -17.7165   18.9725 C   0  0  0  0  0  0  0  0  0  0  0  0
    7.8617  -16.6136   18.9991 O   0  0  0  0  0  0  0  0  0  0  0  0
    4.8610  -19.6339   21.0257 N   0  0  0  0  0  0  0  0  0  0  0  0
    5.7642  -19.1425   22.0346 C   0  0  0  0  0  0  0  0  0  0  0  0
    5.2460  -18.3989   22.9067 O   0  0  0  0  0  0  0  0  0  0  0  0
    7.1967  -19.5047   22.0134 C   0  0  0  0  0  0  0  0  0  0  0  0
    8.0075  -18.3986   21.4235 C   0  0  2  0  0  0  0  0  0  0  0  0
    8.4908  -18.5592   20.0833 N   0  0  0  0  0  0  0  0  0  0  0  0
    8.9665  -17.7747   22.3192 C   0  0  0  0  0  0  0  0  0  0  0  0
   10.2027  -17.8606   22.0516 O   0  0  0  0  0  0  0  0  0  0  0  0
    8.6521  -17.0609   23.4943 N   0  0  0  0  0  0  0  0  0  0  0  0
    9.6078  -16.2568   24.2145 C   0  0  1  0  0  0  0  0  0  0  0  0
    9.2854  -14.7887   24.2288 C   0  0  0  0  0  0  0  0  0  0  0  0
    8.0516  -14.5917   25.0465 C   0  0  0  0  0  0  0  0  0  0  0  0
    7.1145  -15.5466   25.3699 C   0  0  0  0  0  0  0  0  0  0  0  0
    6.1373  -14.9721   26.1307 N   0  0  0  0  0  0  0  0  0  0  0  0
    6.4097  -13.6686   26.3137 C   0  0  0  0  0  0  0  0  0  0  0  0
    5.7444  -12.6635   26.9988 C   0  0  0  0  0  0  0  0  0  0  0  0
    6.2713  -11.3835   27.0183 C   0  0  0  0  0  0  0  0  0  0  0  0
    7.4516  -11.1329   26.3537 C   0  0  0  0  0  0  0  0  0  0  0  0
    8.1084  -12.1579   25.6689 C   0  0  0  0  0  0  0  0  0  0  0  0
    7.6014  -13.4277   25.6396 C   0  0  0  0  0  0  0  0  0  0  0  0
    9.8362  -16.8375   25.5430 C   0  0  0  0  0  0  0  0  0  0  0  0
    9.1481  -17.9585   26.0240 O   0  0  0  0  0  0  0  0  0  0  0  0
   10.6843  -16.3230   26.3065 O   0  0  0  0  0  0  0  0  0  0  0  0
  2  3  1  0
  2  1  1  0
  3  4  1  6
  5  3  1  0
  5  6  2  0
  7  8  1  0
  8  9  2  0
 10  8  1  0
 11 10  1  1
 11 12  1  0
 12  5  1  0
 13 11  1  0
 14 13  2  0
 15 13  1  0
 16 17  1  1
 16 15  1  0
 18 17  1  0
 19 18  2  0
 20 21  1  0
 20 19  1  0
 21 26  2  0
 22 21  1  0
 22 23  2  0
 23 24  1  0
 24 25  2  0
 26 18  1  0
 26 25  1  0
 27 16  1  0
 28 27  1  0
 29 27  2  0
M  END
$$$$
