SNW.pdb
     RDKit          3D

 29 30  0  0  1  0  0  0  0  0999 V2000
   10.6290  -13.2511   19.0412 O   0  0  0  0  0  0  0  0  0  0  0  0
    9.8582  -13.7545   17.9930 C   0  0  0  0  0  0  0  0  0  0  0  0
    8.4337  -13.8241   18.4986 C   0  0  2  0  0  0  0  0  0  0  0  0
    8.0226  -12.4287   18.6846 N   0  0  0  0  0  0  0  0  0  0  0  0
    8.3427  -14.5851   19.7978 C   0  0  0  0  0  0  0  0  0  0  0  0
    8.1199  -13.9227   20.8118 O   0  0  0  0  0  0  0  0  0  0  0  0
    7.8123  -19.1181   18.2376 N   0  0  0  0  0  0  0  0  0  0  0  0
    7.4597  -18.6504   19.5536 C   0  0  0  0  0  0  0  0  0  0  0  0
    6.2278  -18.5072   19.7633 O   0  0  0  0  0  0  0  0  0  0  0  0
    8.5008  -18.3647   20.5627 C   0  0  0  0  0  0  0  0  0  0  0  0
    8.5235  -16.9091   20.8935 C   0  0  2  0  0  0  0  0  0  0  0  0
    8.5078  -15.9720   19.8086 N   0  0  0  0  0  0  0  0  0  0  0  0
    9.4041  -16.5253   21.9838 C   0  0  0  0  0  0  0  0  0  0  0  0
   10.6016  -16.2026   21.7213 O   0  0  0  0  0  0  0  0  0  0  0  0
    9.0510  -16.4744   23.3483 N   0  0  0  0  0  0  0  0  0  0  0  0
    9.9904  -16.1774   24.4009 C   0  0  1  0  0  0  0  0  0  0  0  0
    9.7884  -14.8320   25.0401 C   0  0  0  0  0  0  0  0  0  0  0  0
    8.3777  -14.7538   25.5233 C   0  0  0  0  0  0  0  0  0  0  0  0
    7.4754  -15.7898   25.6067 C   0  0  0  0  0  0  0  0  0  0  0  0
    6.2938  -15.3130   26.0972 N   0  0  0  0  0  0  0  0  0  0  0  0
    6.3990  -13.9946   26.3367 C   0  0  0  0  0  0  0  0  0  0  0  0
    5.5002  -13.0611   26.8298 C   0  0  0  0  0  0  0  0  0  0  0  0
    5.8937  -11.7417   26.9746 C   0  0  0  0  0  0  0  0  0  0  0  0
    7.1762  -11.3811   26.6244 C   0  0  0  0  0  0  0  0  0  0  0  0
    8.0684  -12.3351   26.1295 C   0  0  0  0  0  0  0  0  0  0  0  0
    7.6957  -13.6424   25.9801 C   0  0  0  0  0  0  0  0  0  0  0  0
   10.0341  -17.2960   25.3502 C   0  0  0  0  0  0  0  0  0  0  0  0
    9.2028  -18.4193   25.2582 O   0  0  0  0  0  0  0  0  0  0  0  0
   10.8473  -17.2697   26.3015 O   0  0  0  0  0  0  0  0  0  0  0  0
  2  3  1  0
  2  1  1  0
  3  4  1  1
  5  3  1  0
  5  6  2  0
  7  8  1  0
  8  9  2  0
 10  8  1  0
 11 10  1  6
 11 12  1  0
 12  5  1  0
 13 11  1  0
 14 13  2  0
 15 13  1  0
 16 17  1  1
 16 15  1  0
 18 17  1  0
 19 18  2  0
 20 21  1  0
 20 19  1  0
 21 26  2  0
 22 21  1  0
 22 23  2  0
 23 24  1  0
 24 25  2  0
 26 18  1  0
 26 25  1  0
 27 16  1  0
 28 27  1  0
 29 27  2  0
M  END
$$$$
