SNW.pdb
     RDKit          3D

 29 30  0  0  1  0  0  0  0  0999 V2000
    7.4114  -19.6988   23.3248 O   0  0  0  0  0  0  0  0  0  0  0  0
    6.7024  -19.3444   22.1767 C   0  0  0  0  0  0  0  0  0  0  0  0
    7.7281  -19.1226   21.0866 C   0  0  2  0  0  0  0  0  0  0  0  0
    7.8178  -20.4025   20.3762 N   0  0  0  0  0  0  0  0  0  0  0  0
    9.0691  -18.7336   21.6573 C   0  0  0  0  0  0  0  0  0  0  0  0
    9.8801  -19.6437   21.8327 O   0  0  0  0  0  0  0  0  0  0  0  0
   13.4871  -16.5665   21.6467 N   0  0  0  0  0  0  0  0  0  0  0  0
   12.2940  -16.1147   20.9777 C   0  0  0  0  0  0  0  0  0  0  0  0
   12.3338  -16.1498   19.7211 O   0  0  0  0  0  0  0  0  0  0  0  0
   11.1231  -15.6449   21.7472 C   0  0  0  0  0  0  0  0  0  0  0  0
   10.5087  -16.7740   22.5065 C   0  0  2  0  0  0  0  0  0  0  0  0
    9.3397  -17.3968   21.9579 N   0  0  0  0  0  0  0  0  0  0  0  0
   10.4597  -16.6089   23.9494 C   0  0  0  0  0  0  0  0  0  0  0  0
   11.3162  -15.8622   24.5113 O   0  0  0  0  0  0  0  0  0  0  0  0
    9.5268  -17.2150   24.8162 N   0  0  0  0  0  0  0  0  0  0  0  0
    9.5228  -17.0145   26.2440 C   0  0  1  0  0  0  0  0  0  0  0  0
    8.1564  -16.7831   26.8259 C   0  0  0  0  0  0  0  0  0  0  0  0
    7.4841  -15.7177   26.0243 C   0  0  0  0  0  0  0  0  0  0  0  0
    6.7013  -15.8961   24.9064 C   0  0  0  0  0  0  0  0  0  0  0  0
    6.2715  -14.6780   24.4645 N   0  0  0  0  0  0  0  0  0  0  0  0
    6.7514  -13.7086   25.2625 C   0  0  0  0  0  0  0  0  0  0  0  0
    6.6086  -12.3297   25.2451 C   0  0  0  0  0  0  0  0  0  0  0  0
    7.2309  -11.5645   26.2166 C   0  0  0  0  0  0  0  0  0  0  0  0
    7.9829  -12.1915   27.1856 C   0  0  0  0  0  0  0  0  0  0  0  0
    8.1155  -13.5819   27.1878 C   0  0  0  0  0  0  0  0  0  0  0  0
    7.5075  -14.3524   26.2353 C   0  0  0  0  0  0  0  0  0  0  0  0
   10.2810  -18.0908   26.8931 C   0  0  0  0  0  0  0  0  0  0  0  0
   10.5650  -18.1163   28.2642 O   0  0  0  0  0  0  0  0  0  0  0  0
   10.7082  -19.0476   26.2084 O   0  0  0  0  0  0  0  0  0  0  0  0
  2  3  1  0
  2  1  1  0
  3  4  1  1
  5  3  1  0
  5  6  2  0
  7  8  1  0
  8  9  2  0
 10  8  1  0
 11 10  1  6
 11 12  1  0
 12  5  1  0
 13 11  1  0
 14 13  2  0
 15 13  1  0
 16 17  1  1
 16 15  1  0
 18 17  1  0
 19 18  2  0
 20 21  1  0
 20 19  1  0
 21 26  2  0
 22 21  1  0
 22 23  2  0
 23 24  1  0
 24 25  2  0
 26 18  1  0
 26 25  1  0
 27 16  1  0
 28 27  1  0
 29 27  2  0
M  END
$$$$
