SNW.pdb
     RDKit          3D

 29 30  0  0  1  0  0  0  0  0999 V2000
    8.0765  -12.6236   20.8507 O   0  0  0  0  0  0  0  0  0  0  0  0
    7.4394  -13.6630   21.5290 C   0  0  0  0  0  0  0  0  0  0  0  0
    7.5609  -14.8900   20.6519 C   0  0  2  0  0  0  0  0  0  0  0  0
    6.1827  -15.2570   20.3102 N   0  0  0  0  0  0  0  0  0  0  0  0
    8.2514  -16.0209   21.3725 C   0  0  0  0  0  0  0  0  0  0  0  0
    7.5400  -16.9539   21.7468 O   0  0  0  0  0  0  0  0  0  0  0  0
   10.9727  -19.2828   20.5241 N   0  0  0  0  0  0  0  0  0  0  0  0
   11.7496  -18.0750   20.4119 C   0  0  0  0  0  0  0  0  0  0  0  0
   12.3143  -17.8978   19.3020 O   0  0  0  0  0  0  0  0  0  0  0  0
   11.8570  -17.1325   21.5451 C   0  0  0  0  0  0  0  0  0  0  0  0
   10.5228  -16.9261   22.1823 C   0  0  2  0  0  0  0  0  0  0  0  0
    9.6312  -15.9757   21.5845 N   0  0  0  0  0  0  0  0  0  0  0  0
   10.5169  -16.8986   23.6351 C   0  0  0  0  0  0  0  0  0  0  0  0
   11.1126  -17.8207   24.2690 O   0  0  0  0  0  0  0  0  0  0  0  0
    9.8951  -15.9195   24.4375 N   0  0  0  0  0  0  0  0  0  0  0  0
    9.9103  -15.9476   25.8789 C   0  0  1  0  0  0  0  0  0  0  0  0
    8.6303  -16.4386   26.4953 C   0  0  0  0  0  0  0  0  0  0  0  0
    7.5158  -15.5760   26.0017 C   0  0  0  0  0  0  0  0  0  0  0  0
    6.3738  -15.9923   25.3560 C   0  0  0  0  0  0  0  0  0  0  0  0
    5.6027  -14.9031   25.0680 N   0  0  0  0  0  0  0  0  0  0  0  0
    6.2089  -13.7868   25.5075 C   0  0  0  0  0  0  0  0  0  0  0  0
    5.8471  -12.4491   25.4629 C   0  0  0  0  0  0  0  0  0  0  0  0
    6.6874  -11.4939   26.0089 C   0  0  0  0  0  0  0  0  0  0  0  0
    7.8715  -11.8935   26.5883 C   0  0  0  0  0  0  0  0  0  0  0  0
    8.2197  -13.2457   26.6245 C   0  0  0  0  0  0  0  0  0  0  0  0
    7.4011  -14.2019   26.0896 C   0  0  0  0  0  0  0  0  0  0  0  0
   11.1123  -16.6500   26.3439 C   0  0  0  0  0  0  0  0  0  0  0  0
   11.4841  -16.7346   27.6914 O   0  0  0  0  0  0  0  0  0  0  0  0
   11.8623  -17.2108   25.5132 O   0  0  0  0  0  0  0  0  0  0  0  0
  2  3  1  0
  2  1  1  0
  3  4  1  1
  5  3  1  0
  5  6  2  0
  7  8  1  0
  8  9  2  0
 10  8  1  0
 11 10  1  6
 11 12  1  0
 12  5  1  0
 13 11  1  0
 14 13  2  0
 15 13  1  0
 16 17  1  6
 16 15  1  0
 18 17  1  0
 19 18  2  0
 20 21  1  0
 20 19  1  0
 21 26  2  0
 22 21  1  0
 22 23  2  0
 23 24  1  0
 24 25  2  0
 26 18  1  0
 26 25  1  0
 27 16  1  0
 28 27  1  0
 29 27  2  0
M  END
$$$$
