SNW.pdb
     RDKit          3D

 29 30  0  0  1  0  0  0  0  0999 V2000
    7.4917  -14.6941   17.9967 O   0  0  0  0  0  0  0  0  0  0  0  0
    7.4341  -13.4938   18.7054 C   0  0  0  0  0  0  0  0  0  0  0  0
    8.6251  -13.4855   19.6389 C   0  0  2  0  0  0  0  0  0  0  0  0
    9.7997  -13.5718   18.7650 N   0  0  0  0  0  0  0  0  0  0  0  0
    8.5864  -14.6491   20.5978 C   0  0  0  0  0  0  0  0  0  0  0  0
    7.6086  -14.7186   21.3434 O   0  0  0  0  0  0  0  0  0  0  0  0
   10.7480  -18.0178   18.3027 N   0  0  0  0  0  0  0  0  0  0  0  0
    9.9116  -18.1487   19.4682 C   0  0  0  0  0  0  0  0  0  0  0  0
    8.7109  -18.4458   19.2400 O   0  0  0  0  0  0  0  0  0  0  0  0
   10.4597  -17.9376   20.8242 C   0  0  0  0  0  0  0  0  0  0  0  0
    9.8607  -16.7201   21.4470 C   0  0  2  0  0  0  0  0  0  0  0  0
    9.6268  -15.5810   20.6085 N   0  0  0  0  0  0  0  0  0  0  0  0
   10.3590  -16.3797   22.7688 C   0  0  0  0  0  0  0  0  0  0  0  0
   11.4959  -15.8287   22.8733 O   0  0  0  0  0  0  0  0  0  0  0  0
    9.6852  -16.6079   23.9867 N   0  0  0  0  0  0  0  0  0  0  0  0
   10.2550  -16.3103   25.2772 C   0  0  1  0  0  0  0  0  0  0  0  0
   10.0386  -14.8935   25.7300 C   0  0  0  0  0  0  0  0  0  0  0  0
    8.5674  -14.6503   25.8093 C   0  0  0  0  0  0  0  0  0  0  0  0
    7.5664  -15.5741   25.6116 C   0  0  0  0  0  0  0  0  0  0  0  0
    6.3570  -14.9616   25.7726 N   0  0  0  0  0  0  0  0  0  0  0  0
    6.5397  -13.6636   26.0701 C   0  0  0  0  0  0  0  0  0  0  0  0
    5.6508  -12.6305   26.3245 C   0  0  0  0  0  0  0  0  0  0  0  0
    6.1349  -11.3653   26.6102 C   0  0  0  0  0  0  0  0  0  0  0  0
    7.4964  -11.1574   26.6362 C   0  0  0  0  0  0  0  0  0  0  0  0
    8.3772  -12.2102   26.3777 C   0  0  0  0  0  0  0  0  0  0  0  0
    7.9155  -13.4658   26.0937 C   0  0  0  0  0  0  0  0  0  0  0  0
    9.8296  -17.3258   26.2479 C   0  0  0  0  0  0  0  0  0  0  0  0
    9.0178  -18.4179   25.9166 O   0  0  0  0  0  0  0  0  0  0  0  0
   10.1968  -17.2345   27.4410 O   0  0  0  0  0  0  0  0  0  0  0  0
  2  3  1  0
  2  1  1  0
  3  4  1  6
  5  3  1  0
  5  6  2  0
  7  8  1  0
  8  9  2  0
 10  8  1  0
 11 10  1  6
 11 12  1  0
 12  5  1  0
 13 11  1  0
 14 13  2  0
 15 13  1  0
 16 17  1  1
 16 15  1  0
 18 17  1  0
 19 18  2  0
 20 21  1  0
 20 19  1  0
 21 26  2  0
 22 21  1  0
 22 23  2  0
 23 24  1  0
 24 25  2  0
 26 18  1  0
 26 25  1  0
 27 16  1  0
 28 27  1  0
 29 27  2  0
M  END
$$$$
