SNW.pdb
     RDKit          3D

 29 30  0  0  1  0  0  0  0  0999 V2000
    7.2992  -13.7712   21.9688 O   0  0  0  0  0  0  0  0  0  0  0  0
    6.7390  -14.2126   20.7698 C   0  0  0  0  0  0  0  0  0  0  0  0
    7.7933  -15.0539   20.0839 C   0  0  2  0  0  0  0  0  0  0  0  0
    7.2017  -15.4400   18.7988 N   0  0  0  0  0  0  0  0  0  0  0  0
    8.1452  -16.2741   20.8978 C   0  0  0  0  0  0  0  0  0  0  0  0
    7.5944  -17.3286   20.5792 O   0  0  0  0  0  0  0  0  0  0  0  0
   13.5567  -17.8468   22.1792 N   0  0  0  0  0  0  0  0  0  0  0  0
   12.2192  -18.2121   21.7885 C   0  0  0  0  0  0  0  0  0  0  0  0
   11.9472  -19.4371   21.8754 O   0  0  0  0  0  0  0  0  0  0  0  0
   11.2593  -17.1914   21.3189 C   0  0  0  0  0  0  0  0  0  0  0  0
   10.1668  -17.0013   22.3185 C   0  0  2  0  0  0  0  0  0  0  0  0
    9.0559  -16.1726   21.9519 N   0  0  0  0  0  0  0  0  0  0  0  0
   10.5972  -16.8254   23.6951 C   0  0  0  0  0  0  0  0  0  0  0  0
   11.5158  -17.5706   24.1511 O   0  0  0  0  0  0  0  0  0  0  0  0
   10.0799  -15.8803   24.6052 N   0  0  0  0  0  0  0  0  0  0  0  0
   10.1005  -16.0614   26.0354 C   0  0  1  0  0  0  0  0  0  0  0  0
    8.7954  -16.5350   26.6114 C   0  0  0  0  0  0  0  0  0  0  0  0
    7.7168  -15.6198   26.1330 C   0  0  0  0  0  0  0  0  0  0  0  0
    6.5453  -15.9809   25.5074 C   0  0  0  0  0  0  0  0  0  0  0  0
    5.8242  -14.8558   25.2281 N   0  0  0  0  0  0  0  0  0  0  0  0
    6.4917  -13.7696   25.6540 C   0  0  0  0  0  0  0  0  0  0  0  0
    6.1955  -12.4159   25.6107 C   0  0  0  0  0  0  0  0  0  0  0  0
    7.0906  -11.5018   26.1397 C   0  0  0  0  0  0  0  0  0  0  0  0
    8.2630  -11.9577   26.7012 C   0  0  0  0  0  0  0  0  0  0  0  0
    8.5447  -13.3254   26.7363 C   0  0  0  0  0  0  0  0  0  0  0  0
    7.6714  -14.2414   26.2181 C   0  0  0  0  0  0  0  0  0  0  0  0
   11.2586  -16.8818   26.4100 C   0  0  0  0  0  0  0  0  0  0  0  0
   12.1348  -17.4513   25.4777 O   0  0  0  0  0  0  0  0  0  0  0  0
   11.4981  -17.0999   27.6191 O   0  0  0  0  0  0  0  0  0  0  0  0
  2  3  1  0
  2  1  1  0
  3  4  1  6
  5  3  1  0
  5  6  2  0
  7  8  1  0
  8  9  2  0
 10  8  1  0
 11 10  1  6
 11 12  1  0
 12  5  1  0
 13 11  1  0
 14 13  2  0
 15 13  1  0
 16 17  1  6
 16 15  1  0
 18 17  1  0
 19 18  2  0
 20 21  1  0
 20 19  1  0
 21 26  2  0
 22 21  1  0
 22 23  2  0
 23 24  1  0
 24 25  2  0
 26 18  1  0
 26 25  1  0
 27 16  1  0
 28 27  1  0
 29 27  2  0
M  END
$$$$
