SNW.pdb
     RDKit          3D

 29 30  0  0  1  0  0  0  0  0999 V2000
    8.5038  -14.4911   17.0828 O   0  0  0  0  0  0  0  0  0  0  0  0
    7.5062  -13.9216   17.8744 C   0  0  0  0  0  0  0  0  0  0  0  0
    8.1525  -13.5679   19.1961 C   0  0  2  0  0  0  0  0  0  0  0  0
    9.1701  -12.5633   18.8704 N   0  0  0  0  0  0  0  0  0  0  0  0
    8.7823  -14.7745   19.8462 C   0  0  0  0  0  0  0  0  0  0  0  0
    8.0238  -15.6932   20.1582 O   0  0  0  0  0  0  0  0  0  0  0  0
   12.8439  -14.8649   17.8239 N   0  0  0  0  0  0  0  0  0  0  0  0
   12.8677  -15.0777   19.2484 C   0  0  0  0  0  0  0  0  0  0  0  0
   13.4859  -14.2074   19.9137 O   0  0  0  0  0  0  0  0  0  0  0  0
   12.2038  -16.2515   19.8526 C   0  0  0  0  0  0  0  0  0  0  0  0
   10.9983  -15.8304   20.6261 C   0  0  2  0  0  0  0  0  0  0  0  0
   10.1613  -14.8105   20.0654 N   0  0  0  0  0  0  0  0  0  0  0  0
   11.1828  -15.7101   22.0624 C   0  0  0  0  0  0  0  0  0  0  0  0
   12.0488  -14.8965   22.5042 O   0  0  0  0  0  0  0  0  0  0  0  0
   10.4744  -16.4301   23.0467 N   0  0  0  0  0  0  0  0  0  0  0  0
    9.8693  -15.8126   24.2005 C   0  0  1  0  0  0  0  0  0  0  0  0
    9.1128  -14.5506   23.8933 C   0  0  0  0  0  0  0  0  0  0  0  0
    7.9550  -14.4623   24.8323 C   0  0  0  0  0  0  0  0  0  0  0  0
    7.0673  -15.4667   25.1446 C   0  0  0  0  0  0  0  0  0  0  0  0
    6.1536  -14.9909   26.0405 N   0  0  0  0  0  0  0  0  0  0  0  0
    6.4196  -13.7039   26.3225 C   0  0  0  0  0  0  0  0  0  0  0  0
    5.8024  -12.7845   27.1568 C   0  0  0  0  0  0  0  0  0  0  0  0
    6.3075  -11.4991   27.2519 C   0  0  0  0  0  0  0  0  0  0  0  0
    7.4183  -11.1576   26.5123 C   0  0  0  0  0  0  0  0  0  0  0  0
    8.0274  -12.0970   25.6771 C   0  0  0  0  0  0  0  0  0  0  0  0
    7.5411  -13.3708   25.5715 C   0  0  0  0  0  0  0  0  0  0  0  0
    9.0958  -16.8140   24.9444 C   0  0  0  0  0  0  0  0  0  0  0  0
    9.1222  -16.9290   26.3399 O   0  0  0  0  0  0  0  0  0  0  0  0
    8.3668  -17.6202   24.3235 O   0  0  0  0  0  0  0  0  0  0  0  0
  2  3  1  0
  2  1  1  0
  3  4  1  6
  5  3  1  0
  5  6  2  0
  7  8  1  0
  8  9  2  0
 10  8  1  0
 11 10  1  6
 11 12  1  0
 12  5  1  0
 13 11  1  0
 14 13  2  0
 15 13  1  0
 16 17  1  6
 16 15  1  0
 18 17  1  0
 19 18  2  0
 20 21  1  0
 20 19  1  0
 21 26  2  0
 22 21  1  0
 22 23  2  0
 23 24  1  0
 24 25  2  0
 26 18  1  0
 26 25  1  0
 27 16  1  0
 28 27  1  0
 29 27  2  0
M  END
$$$$
