QIS.pdb
     RDKit          3D

 24 23  0  0  1  0  0  0  0  0999 V2000
   26.2659  -17.2708  -17.2582 N   0  0  0  0  0  0  0  0  0  0  0  0
   27.6970  -17.4448  -17.2358 C   0  0  0  0  0  0  0  0  0  0  0  0
   28.4312  -16.7636  -17.9968 O   0  0  0  0  0  0  0  0  0  0  0  0
   28.2242  -18.4366  -16.2933 C   0  0  0  0  0  0  0  0  0  0  0  0
   27.1268  -19.0726  -15.5124 C   0  0  0  0  0  0  0  0  0  0  0  0
   27.6669  -20.1082  -14.5751 C   0  0  2  0  0  0  0  0  0  0  0  0
   28.4510  -21.1093  -15.2454 N   0  0  0  0  0  0  0  0  0  0  0  0
   26.5094  -20.6830  -13.8438 C   0  0  0  0  0  0  0  0  0  0  0  0
   26.1279  -21.8278  -14.1928 O   0  0  0  0  0  0  0  0  0  0  0  0
   26.8726  -20.8644   -8.8642 C   0  0  0  0  0  0  0  0  0  0  0  0
   26.4869  -21.1952  -10.3245 C   0  0  0  0  0  0  0  0  0  0  0  0
   25.1649  -20.5778  -10.6145 C   0  0  2  0  0  0  0  0  0  0  0  0
   24.0989  -21.0525   -9.6474 C   0  0  0  0  0  0  0  0  0  0  0  0
   24.7346  -20.6716  -12.0382 C   0  0  2  0  0  0  0  0  0  0  0  0
   25.8371  -20.0173  -12.8015 N   0  0  0  0  0  0  0  0  0  0  0  0
   23.4700  -20.0499  -12.3990 C   0  0  0  0  0  0  0  0  0  0  0  0
   23.4110  -18.8092  -12.5874 O   0  0  0  0  0  0  0  0  0  0  0  0
   21.1874  -20.5459  -16.0179 O   0  0  0  0  0  0  0  0  0  0  0  0
   22.1222  -20.7947  -15.0059 C   0  0  0  0  0  0  0  0  0  0  0  0
   21.3977  -20.6358  -13.6934 C   0  0  2  0  0  0  0  0  0  0  0  0
   22.2803  -20.7924  -12.5570 N   0  0  0  0  0  0  0  0  0  0  0  0
   20.2300  -21.5284  -13.6281 C   0  0  0  0  0  0  0  0  0  0  0  0
   19.1289  -21.1966  -14.1247 O   0  0  0  0  0  0  0  0  0  0  0  0
   20.3300  -22.7592  -13.0122 O   0  0  0  0  0  0  0  0  0  0  0  0
  1  2  1  0
  2  3  2  0
  4  5  1  0
  4  2  1  0
  5  6  1  0
  6  7  1  6
  8  9  2  0
  8  6  1  0
 11 10  1  0
 11 12  1  0
 12 14  1  0
 12 13  1  1
 14 15  1  6
 15  8  1  0
 16 14  1  0
 17 16  2  0
 18 19  1  0
 20 19  1  6
 20 21  1  0
 21 16  1  0
 22 20  1  0
 22 24  1  0
 23 22  2  0
M  END
$$$$
