QIS.pdb
     RDKit          3D

 24 23  0  0  1  0  0  0  0  0999 V2000
   15.4577  -28.4666   -4.6845 N   0  0  0  0  0  0  0  0  0  0  0  0
   15.0670  -27.2393   -5.3323 C   0  0  0  0  0  0  0  0  0  0  0  0
   14.2893  -27.2629   -6.3207 O   0  0  0  0  0  0  0  0  0  0  0  0
   15.6175  -25.9987   -4.7775 C   0  0  0  0  0  0  0  0  0  0  0  0
   16.4866  -25.3055   -5.7688 C   0  0  0  0  0  0  0  0  0  0  0  0
   17.7851  -26.0309   -5.9426 C   0  0  2  0  0  0  0  0  0  0  0  0
   18.7044  -25.7905   -4.8641 N   0  0  0  0  0  0  0  0  0  0  0  0
   18.3356  -25.6329   -7.2630 C   0  0  0  0  0  0  0  0  0  0  0  0
   19.2622  -24.7848   -7.2605 O   0  0  0  0  0  0  0  0  0  0  0  0
   20.3507  -29.1813  -10.1759 C   0  0  0  0  0  0  0  0  0  0  0  0
   20.0041  -27.8383   -9.4926 C   0  0  0  0  0  0  0  0  0  0  0  0
   18.9829  -27.1390  -10.3180 C   0  0  2  0  0  0  0  0  0  0  0  0
   19.3898  -27.0709  -11.7763 C   0  0  0  0  0  0  0  0  0  0  0  0
   18.5459  -25.8202   -9.7792 C   0  0  2  0  0  0  0  0  0  0  0  0
   17.8757  -26.1519   -8.4880 N   0  0  0  0  0  0  0  0  0  0  0  0
   17.6406  -25.0281  -10.5970 C   0  0  0  0  0  0  0  0  0  0  0  0
   16.4410  -25.3785  -10.7259 O   0  0  0  0  0  0  0  0  0  0  0  0
   18.3719  -21.1847  -11.3074 O   0  0  0  0  0  0  0  0  0  0  0  0
   17.0610  -21.6257  -11.5242 C   0  0  0  0  0  0  0  0  0  0  0  0
   17.1558  -23.0358  -12.0491 C   0  0  2  0  0  0  0  0  0  0  0  0
   18.0539  -23.8547  -11.2632 N   0  0  0  0  0  0  0  0  0  0  0  0
   17.4955  -23.0401  -13.4806 C   0  0  0  0  0  0  0  0  0  0  0  0
   18.5219  -23.6201  -13.9039 O   0  0  0  0  0  0  0  0  0  0  0  0
   16.6800  -22.3985  -14.3902 O   0  0  0  0  0  0  0  0  0  0  0  0
  1  2  1  0
  2  3  2  0
  4  5  1  0
  4  2  1  0
  5  6  1  0
  6  7  1  1
  8  9  2  0
  8  6  1  0
 11 10  1  0
 11 12  1  0
 12 14  1  0
 12 13  1  6
 14 15  1  1
 15  8  1  0
 16 14  1  0
 17 16  2  0
 18 19  1  0
 20 19  1  1
 20 21  1  0
 21 16  1  0
 22 20  1  0
 22 24  1  0
 23 22  2  0
M  END
$$$$
