QIS.pdb
     RDKit          3D

 24 23  0  0  1  0  0  0  0  0999 V2000
   19.7778  -13.4342  -20.0723 N   0  0  0  0  0  0  0  0  0  0  0  0
   20.2792  -14.7590  -20.3410 C   0  0  0  0  0  0  0  0  0  0  0  0
   19.8476  -15.4137  -21.3245 O   0  0  0  0  0  0  0  0  0  0  0  0
   21.2971  -15.2759  -19.4209 C   0  0  0  0  0  0  0  0  0  0  0  0
   21.6595  -14.2598  -18.3940 C   0  0  0  0  0  0  0  0  0  0  0  0
   22.7073  -14.7883  -17.4637 C   0  0  2  0  0  0  0  0  0  0  0  0
   22.2855  -15.9730  -16.7674 N   0  0  0  0  0  0  0  0  0  0  0  0
   23.0726  -13.6826  -16.5423 C   0  0  0  0  0  0  0  0  0  0  0  0
   22.3729  -13.5503  -15.5074 O   0  0  0  0  0  0  0  0  0  0  0  0
   28.0472  -12.8705  -15.3380 C   0  0  0  0  0  0  0  0  0  0  0  0
   26.5063  -12.9677  -15.2552 C   0  0  0  0  0  0  0  0  0  0  0  0
   25.9269  -11.6779  -15.7174 C   0  0  2  0  0  0  0  0  0  0  0  0
   26.4538  -10.5055  -14.9144 C   0  0  0  0  0  0  0  0  0  0  0  0
   24.4417  -11.6724  -15.8388 C   0  0  2  0  0  0  0  0  0  0  0  0
   24.1428  -12.7976  -16.7720 N   0  0  0  0  0  0  0  0  0  0  0  0
   23.8140  -10.4588  -16.3380 C   0  0  0  0  0  0  0  0  0  0  0  0
   23.7832  -10.2296  -17.5729 O   0  0  0  0  0  0  0  0  0  0  0  0
   20.5532   -7.7710  -17.2465 O   0  0  0  0  0  0  0  0  0  0  0  0
   21.2493   -8.9069  -16.8162 C   0  0  0  0  0  0  0  0  0  0  0  0
   22.3930   -8.4210  -15.9626 C   0  0  2  0  0  0  0  0  0  0  0  0
   23.2192   -9.5078  -15.4817 N   0  0  0  0  0  0  0  0  0  0  0  0
   21.9052   -7.5590  -14.8746 C   0  0  0  0  0  0  0  0  0  0  0  0
   21.9655   -7.9249  -13.6781 O   0  0  0  0  0  0  0  0  0  0  0  0
   21.3679   -6.3200  -15.1576 O   0  0  0  0  0  0  0  0  0  0  0  0
  1  2  1  0
  2  3  2  0
  4  5  1  0
  4  2  1  0
  5  6  1  0
  6  7  1  1
  8  9  2  0
  8  6  1  0
 11 10  1  0
 11 12  1  0
 12 14  1  0
 12 13  1  1
 14 15  1  6
 15  8  1  0
 16 14  1  0
 17 16  2  0
 18 19  1  0
 20 19  1  1
 20 21  1  0
 21 16  1  0
 22 20  1  0
 22 24  1  0
 23 22  2  0
M  END
$$$$
