QIS.pdb
     RDKit          3D

 24 23  0  0  1  0  0  0  0  0999 V2000
   27.3575  -16.4845  -15.4670 N   0  0  0  0  0  0  0  0  0  0  0  0
   28.2137  -17.4128  -16.1627 C   0  0  0  0  0  0  0  0  0  0  0  0
   29.4631  -17.3410  -16.0362 O   0  0  0  0  0  0  0  0  0  0  0  0
   27.5512  -18.4176  -17.0001 C   0  0  0  0  0  0  0  0  0  0  0  0
   26.6330  -19.2690  -16.1935 C   0  0  0  0  0  0  0  0  0  0  0  0
   27.3859  -20.0178  -15.1376 C   0  0  2  0  0  0  0  0  0  0  0  0
   28.3932  -20.8858  -15.6835 N   0  0  0  0  0  0  0  0  0  0  0  0
   26.3840  -20.7475  -14.3198 C   0  0  0  0  0  0  0  0  0  0  0  0
   25.9260  -21.8140  -14.8001 O   0  0  0  0  0  0  0  0  0  0  0  0
   26.5009  -20.5957   -8.8885 C   0  0  0  0  0  0  0  0  0  0  0  0
   26.3506  -21.1615  -10.3197 C   0  0  0  0  0  0  0  0  0  0  0  0
   25.0755  -20.6557  -10.8952 C   0  0  2  0  0  0  0  0  0  0  0  0
   23.8894  -20.9887  -10.0123 C   0  0  0  0  0  0  0  0  0  0  0  0
   24.8513  -21.0189  -12.3229 C   0  0  2  0  0  0  0  0  0  0  0  0
   25.9357  -20.3071  -13.0603 N   0  0  0  0  0  0  0  0  0  0  0  0
   23.5668  -20.6705  -12.9100 C   0  0  0  0  0  0  0  0  0  0  0  0
   23.2629  -19.4643  -13.0858 O   0  0  0  0  0  0  0  0  0  0  0  0
   19.7242  -21.8076  -15.4924 O   0  0  0  0  0  0  0  0  0  0  0  0
   20.9316  -22.2793  -14.9633 C   0  0  0  0  0  0  0  0  0  0  0  0
   21.3400  -21.3142  -13.8795 C   0  0  2  0  0  0  0  0  0  0  0  0
   22.6268  -21.6458  -13.3058 N   0  0  0  0  0  0  0  0  0  0  0  0
   20.2839  -21.1909  -12.8626 C   0  0  0  0  0  0  0  0  0  0  0  0
   20.3941  -21.7371  -11.7407 O   0  0  0  0  0  0  0  0  0  0  0  0
   19.1425  -20.4634  -13.1310 O   0  0  0  0  0  0  0  0  0  0  0  0
  1  2  1  0
  2  3  2  0
  4  5  1  0
  4  2  1  0
  5  6  1  0
  6  7  1  6
  8  9  2  0
  8  6  1  0
 11 10  1  0
 11 12  1  0
 12 14  1  0
 12 13  1  1
 14 15  1  6
 15  8  1  0
 16 14  1  0
 17 16  2  0
 18 19  1  0
 20 19  1  6
 20 21  1  0
 21 16  1  0
 22 20  1  0
 22 24  1  0
 23 22  2  0
M  END
$$$$
