QIS.pdb
     RDKit          3D

 24 23  0  0  1  0  0  0  0  0999 V2000
   14.9717   -6.6788   -7.4213 N   0  0  0  0  0  0  0  0  0  0  0  0
   13.6919   -6.9449   -8.0298 C   0  0  0  0  0  0  0  0  0  0  0  0
   12.6300   -6.7591   -7.3816 O   0  0  0  0  0  0  0  0  0  0  0  0
   13.7097   -7.4293   -9.4136 C   0  0  0  0  0  0  0  0  0  0  0  0
   15.1044   -7.5594   -9.9199 C   0  0  0  0  0  0  0  0  0  0  0  0
   15.3306   -8.9101  -10.5257 C   0  0  2  0  0  0  0  0  0  0  0  0
   15.1126   -9.9812   -9.5921 N   0  0  0  0  0  0  0  0  0  0  0  0
   16.7046   -8.9128  -11.0888 C   0  0  0  0  0  0  0  0  0  0  0  0
   17.6462   -9.1415  -10.2894 O   0  0  0  0  0  0  0  0  0  0  0  0
   17.8515  -11.8212  -15.1084 C   0  0  0  0  0  0  0  0  0  0  0  0
   17.9255  -11.0055  -13.7969 C   0  0  0  0  0  0  0  0  0  0  0  0
   18.3459   -9.6174  -14.1280 C   0  0  2  0  0  0  0  0  0  0  0  0
   19.6227   -9.5968  -14.9443 C   0  0  0  0  0  0  0  0  0  0  0  0
   18.3906   -8.6878  -12.9642 C   0  0  2  0  0  0  0  0  0  0  0  0
   16.9913   -8.6760  -12.4464 N   0  0  0  0  0  0  0  0  0  0  0  0
   18.8185   -7.3203  -13.2141 C   0  0  0  0  0  0  0  0  0  0  0  0
   18.2371   -6.6298  -14.0879 O   0  0  0  0  0  0  0  0  0  0  0  0
   20.5695   -3.1797  -12.0101 O   0  0  0  0  0  0  0  0  0  0  0  0
   19.9844   -4.4074  -11.6776 C   0  0  0  0  0  0  0  0  0  0  0  0
   20.3477   -5.3756  -12.7745 C   0  0  2  0  0  0  0  0  0  0  0  0
   19.8763   -6.7166  -12.5012 N   0  0  0  0  0  0  0  0  0  0  0  0
   21.7912   -5.3315  -13.0555 C   0  0  0  0  0  0  0  0  0  0  0  0
   22.5520   -6.2605  -12.6988 O   0  0  0  0  0  0  0  0  0  0  0  0
   22.3362   -4.2544  -13.7239 O   0  0  0  0  0  0  0  0  0  0  0  0
  1  2  1  0
  2  3  2  0
  4  5  1  0
  4  2  1  0
  5  6  1  0
  6  7  1  1
  8  9  2  0
  8  6  1  0
 11 10  1  0
 11 12  1  0
 12 14  1  0
 12 13  1  1
 14 15  1  6
 15  8  1  0
 16 14  1  0
 17 16  2  0
 18 19  1  0
 20 19  1  1
 20 21  1  0
 21 16  1  0
 22 20  1  0
 22 24  1  0
 23 22  2  0
M  END
$$$$
