QIS.pdb
     RDKit          3D

 24 23  0  0  1  0  0  0  0  0999 V2000
   26.9398  -19.0967  -17.4473 N   0  0  0  0  0  0  0  0  0  0  0  0
   28.1154  -18.3295  -17.1185 C   0  0  0  0  0  0  0  0  0  0  0  0
   28.7663  -17.7464  -18.0233 O   0  0  0  0  0  0  0  0  0  0  0  0
   28.4891  -18.2734  -15.7018 C   0  0  0  0  0  0  0  0  0  0  0  0
   27.4415  -18.8945  -14.8444 C   0  0  0  0  0  0  0  0  0  0  0  0
   27.9640  -20.1226  -14.1650 C   0  0  2  0  0  0  0  0  0  0  0  0
   28.6308  -21.0174  -15.0709 N   0  0  0  0  0  0  0  0  0  0  0  0
   26.8166  -20.7608  -13.4714 C   0  0  0  0  0  0  0  0  0  0  0  0
   26.2952  -21.7563  -14.0327 O   0  0  0  0  0  0  0  0  0  0  0  0
   26.7707  -20.3021   -8.2199 C   0  0  0  0  0  0  0  0  0  0  0  0
   26.5513  -21.0955   -9.5288 C   0  0  0  0  0  0  0  0  0  0  0  0
   25.2762  -20.6426  -10.1467 C   0  0  2  0  0  0  0  0  0  0  0  0
   24.0735  -21.0641   -9.3264 C   0  0  0  0  0  0  0  0  0  0  0  0
   25.1337  -20.9762  -11.5921 C   0  0  2  0  0  0  0  0  0  0  0  0
   26.2999  -20.3100  -12.2421 N   0  0  0  0  0  0  0  0  0  0  0  0
   23.9114  -20.5567  -12.2599 C   0  0  0  0  0  0  0  0  0  0  0  0
   23.6089  -19.3384  -12.3095 O   0  0  0  0  0  0  0  0  0  0  0  0
   21.3214  -23.2551  -14.2307 O   0  0  0  0  0  0  0  0  0  0  0  0
   21.5748  -21.9922  -14.7793 C   0  0  0  0  0  0  0  0  0  0  0  0
   21.8649  -21.0655  -13.6261 C   0  0  2  0  0  0  0  0  0  0  0  0
   23.0322  -21.4741  -12.8740 N   0  0  0  0  0  0  0  0  0  0  0  0
   20.6759  -20.8989  -12.7759 C   0  0  0  0  0  0  0  0  0  0  0  0
   20.6699  -21.2824  -11.5834 O   0  0  0  0  0  0  0  0  0  0  0  0
   19.5355  -20.3109  -13.2836 O   0  0  0  0  0  0  0  0  0  0  0  0
  1  2  1  0
  2  3  2  0
  4  5  1  0
  4  2  1  0
  5  6  1  0
  6  7  1  6
  8  9  2  0
  8  6  1  0
 11 10  1  0
 11 12  1  0
 12 14  1  0
 12 13  1  1
 14 15  1  6
 15  8  1  0
 16 14  1  0
 17 16  2  0
 18 19  1  0
 20 19  1  6
 20 21  1  0
 21 16  1  0
 22 20  1  0
 22 24  1  0
 23 22  2  0
M  END
$$$$
