QIS.pdb
     RDKit          3D

 24 23  0  0  1  0  0  0  0  0999 V2000
   20.5743  -10.7523  -20.4565 N   0  0  0  0  0  0  0  0  0  0  0  0
   19.4142  -11.6078  -20.4911 C   0  0  0  0  0  0  0  0  0  0  0  0
   19.0365  -12.1214  -21.5754 O   0  0  0  0  0  0  0  0  0  0  0  0
   18.7263  -11.8348  -19.2163 C   0  0  0  0  0  0  0  0  0  0  0  0
   19.4023  -11.1106  -18.1041 C   0  0  0  0  0  0  0  0  0  0  0  0
   20.4108  -11.9877  -17.4286 C   0  0  2  0  0  0  0  0  0  0  0  0
   19.8314  -13.1883  -16.8909 N   0  0  0  0  0  0  0  0  0  0  0  0
   21.0836  -11.1636  -16.3927 C   0  0  0  0  0  0  0  0  0  0  0  0
   20.5541  -11.1383  -15.2538 O   0  0  0  0  0  0  0  0  0  0  0  0
   26.1131  -11.5771  -15.2391 C   0  0  0  0  0  0  0  0  0  0  0  0
   24.5830  -11.3552  -15.2206 C   0  0  0  0  0  0  0  0  0  0  0  0
   24.3081   -9.9354  -15.5695 C   0  0  2  0  0  0  0  0  0  0  0  0
   25.1592   -8.9818  -14.7550 C   0  0  0  0  0  0  0  0  0  0  0  0
   22.8650   -9.5640  -15.5690 C   0  0  2  0  0  0  0  0  0  0  0  0
   22.2606  -10.4273  -16.6253 N   0  0  0  0  0  0  0  0  0  0  0  0
   22.5299   -8.1745  -15.8388 C   0  0  0  0  0  0  0  0  0  0  0  0
   22.7929   -7.6710  -16.9594 O   0  0  0  0  0  0  0  0  0  0  0  0
   19.4428   -6.4099  -15.7230 O   0  0  0  0  0  0  0  0  0  0  0  0
   20.1973   -5.5842  -14.8810 C   0  0  0  0  0  0  0  0  0  0  0  0
   21.6453   -5.9410  -15.1024 C   0  0  2  0  0  0  0  0  0  0  0  0
   21.9036   -7.3480  -14.8816 N   0  0  0  0  0  0  0  0  0  0  0  0
   22.5265   -5.0737  -14.3051 C   0  0  0  0  0  0  0  0  0  0  0  0
   23.2588   -5.5430  -13.4037 O   0  0  0  0  0  0  0  0  0  0  0  0
   22.5611   -3.7144  -14.5400 O   0  0  0  0  0  0  0  0  0  0  0  0
  1  2  1  0
  2  3  2  0
  4  5  1  0
  4  2  1  0
  5  6  1  0
  6  7  1  1
  8  9  2  0
  8  6  1  0
 11 10  1  0
 11 12  1  0
 12 14  1  0
 12 13  1  1
 14 15  1  6
 15  8  1  0
 16 14  1  0
 17 16  2  0
 18 19  1  0
 20 19  1  1
 20 21  1  0
 21 16  1  0
 22 20  1  0
 22 24  1  0
 23 22  2  0
M  END
$$$$
