QIS.pdb
     RDKit          3D

 24 23  0  0  1  0  0  0  0  0999 V2000
   17.8528  -14.1194  -17.1408 N   0  0  0  0  0  0  0  0  0  0  0  0
   18.5667  -15.0896  -17.9333 C   0  0  0  0  0  0  0  0  0  0  0  0
   17.9378  -15.9146  -18.6446 O   0  0  0  0  0  0  0  0  0  0  0  0
   20.0305  -15.0502  -17.8593 C   0  0  0  0  0  0  0  0  0  0  0  0
   20.4948  -13.9416  -16.9794 C   0  0  0  0  0  0  0  0  0  0  0  0
   21.9893  -13.8462  -16.9813 C   0  0  2  0  0  0  0  0  0  0  0  0
   22.6230  -15.0436  -16.5009 N   0  0  0  0  0  0  0  0  0  0  0  0
   22.3523  -12.6473  -16.1839 C   0  0  0  0  0  0  0  0  0  0  0  0
   22.0634  -12.6686  -14.9616 O   0  0  0  0  0  0  0  0  0  0  0  0
   27.0213  -11.1404  -15.4718 C   0  0  0  0  0  0  0  0  0  0  0  0
   25.4998  -11.3776  -15.3319 C   0  0  0  0  0  0  0  0  0  0  0  0
   24.7848  -10.2154  -15.9243 C   0  0  2  0  0  0  0  0  0  0  0  0
   25.2952   -8.9001  -15.3706 C   0  0  0  0  0  0  0  0  0  0  0  0
   23.2985  -10.3173  -15.8900 C   0  0  2  0  0  0  0  0  0  0  0  0
   22.9907  -11.5152  -16.7246 N   0  0  0  0  0  0  0  0  0  0  0  0
   22.5366   -9.1817  -16.3858 C   0  0  0  0  0  0  0  0  0  0  0  0
   22.7004   -8.7821  -17.5655 O   0  0  0  0  0  0  0  0  0  0  0  0
   19.1512   -7.7324  -14.4953 O   0  0  0  0  0  0  0  0  0  0  0  0
   19.3572   -7.5303  -15.8653 C   0  0  0  0  0  0  0  0  0  0  0  0
   20.8416   -7.3554  -16.0626 C   0  0  2  0  0  0  0  0  0  0  0  0
   21.5964   -8.4956  -15.5879 N   0  0  0  0  0  0  0  0  0  0  0  0
   21.3027   -6.0886  -15.4734 C   0  0  0  0  0  0  0  0  0  0  0  0
   22.1706   -6.0692  -14.5702 O   0  0  0  0  0  0  0  0  0  0  0  0
   20.7813   -4.8884  -15.9109 O   0  0  0  0  0  0  0  0  0  0  0  0
  1  2  1  0
  2  3  2  0
  4  5  1  0
  4  2  1  0
  5  6  1  0
  6  7  1  1
  8  9  2  0
  8  6  1  0
 11 10  1  0
 11 12  1  0
 12 14  1  0
 12 13  1  1
 14 15  1  6
 15  8  1  0
 16 14  1  0
 17 16  2  0
 18 19  1  0
 20 19  1  1
 20 21  1  0
 21 16  1  0
 22 20  1  0
 22 24  1  0
 23 22  2  0
M  END
$$$$
