QIS.pdb
     RDKit          3D

 24 23  0  0  1  0  0  0  0  0999 V2000
   16.3947  -10.8471  -16.8790 N   0  0  0  0  0  0  0  0  0  0  0  0
   16.5985  -11.9434  -17.7931 C   0  0  0  0  0  0  0  0  0  0  0  0
   15.6396  -12.3879  -18.4750 O   0  0  0  0  0  0  0  0  0  0  0  0
   17.9576  -12.4875  -17.8746 C   0  0  0  0  0  0  0  0  0  0  0  0
   18.8487  -11.8634  -16.8572 C   0  0  0  0  0  0  0  0  0  0  0  0
   20.2100  -12.4869  -16.8825 C   0  0  2  0  0  0  0  0  0  0  0  0
   20.1874  -13.8840  -16.5453 N   0  0  0  0  0  0  0  0  0  0  0  0
   21.0724  -11.6924  -15.9716 C   0  0  0  0  0  0  0  0  0  0  0  0
   20.8028  -11.7425  -14.7457 O   0  0  0  0  0  0  0  0  0  0  0  0
   26.6833  -10.5524  -14.8565 C   0  0  0  0  0  0  0  0  0  0  0  0
   25.2940   -9.9071  -14.6465 C   0  0  0  0  0  0  0  0  0  0  0  0
   24.3224  -10.5731  -15.5551 C   0  0  2  0  0  0  0  0  0  0  0  0
   24.8377  -10.6369  -16.9791 C   0  0  0  0  0  0  0  0  0  0  0  0
   22.9306  -10.0478  -15.4687 C   0  0  2  0  0  0  0  0  0  0  0  0
   22.1529  -10.9043  -16.4109 N   0  0  0  0  0  0  0  0  0  0  0  0
   22.7190   -8.6496  -15.8095 C   0  0  0  0  0  0  0  0  0  0  0  0
   22.8820   -8.2597  -16.9926 O   0  0  0  0  0  0  0  0  0  0  0  0
   19.8176   -6.4942  -14.8062 O   0  0  0  0  0  0  0  0  0  0  0  0
   20.7450   -6.0403  -15.7518 C   0  0  0  0  0  0  0  0  0  0  0  0
   22.1151   -6.2942  -15.1765 C   0  0  2  0  0  0  0  0  0  0  0  0
   22.3246   -7.6895  -14.8533 N   0  0  0  0  0  0  0  0  0  0  0  0
   22.3765   -5.4052  -14.0338 C   0  0  0  0  0  0  0  0  0  0  0  0
   22.4635   -4.1643  -14.1816 O   0  0  0  0  0  0  0  0  0  0  0  0
   22.5316   -5.9294  -12.7668 O   0  0  0  0  0  0  0  0  0  0  0  0
  1  2  1  0
  2  3  2  0
  4  5  1  0
  4  2  1  0
  5  6  1  0
  6  7  1  1
  8  9  2  0
  8  6  1  0
 11 10  1  0
 11 12  1  0
 12 14  1  0
 12 13  1  6
 14 15  1  6
 15  8  1  0
 16 14  1  0
 17 16  2  0
 18 19  1  0
 20 19  1  1
 20 21  1  0
 21 16  1  0
 22 20  1  0
 22 24  1  0
 23 22  2  0
M  END
$$$$
