QIS.pdb
     RDKit          3D

 24 23  0  0  1  0  0  0  0  0999 V2000
   19.5499  -11.9286  -20.1295 N   0  0  0  0  0  0  0  0  0  0  0  0
   18.2577  -12.5538  -20.2649 C   0  0  0  0  0  0  0  0  0  0  0  0
   18.0410  -13.3674  -21.1994 O   0  0  0  0  0  0  0  0  0  0  0  0
   17.2443  -12.1912  -19.2692 C   0  0  0  0  0  0  0  0  0  0  0  0
   17.7771  -11.1961  -18.2975 C   0  0  0  0  0  0  0  0  0  0  0  0
   18.5238  -11.8746  -17.1908 C   0  0  2  0  0  0  0  0  0  0  0  0
   17.7092  -12.8078  -16.4616 N   0  0  0  0  0  0  0  0  0  0  0  0
   19.0871  -10.8082  -16.3246 C   0  0  0  0  0  0  0  0  0  0  0  0
   18.3921  -10.4472  -15.3425 O   0  0  0  0  0  0  0  0  0  0  0  0
   23.7124  -11.2801  -14.1979 C   0  0  0  0  0  0  0  0  0  0  0  0
   22.2459  -10.9304  -14.5412 C   0  0  0  0  0  0  0  0  0  0  0  0
   22.2282   -9.6321  -15.2672 C   0  0  2  0  0  0  0  0  0  0  0  0
   23.0537   -8.5791  -14.5554 C   0  0  0  0  0  0  0  0  0  0  0  0
   20.8690   -9.1460  -15.6373 C   0  0  2  0  0  0  0  0  0  0  0  0
   20.3357  -10.1987  -16.5504 N   0  0  0  0  0  0  0  0  0  0  0  0
   20.7754   -7.8519  -16.2948 C   0  0  0  0  0  0  0  0  0  0  0  0
   21.3834   -7.6509  -17.3757 O   0  0  0  0  0  0  0  0  0  0  0  0
   17.7166   -5.2199  -15.6657 O   0  0  0  0  0  0  0  0  0  0  0  0
   18.5034   -5.1661  -16.8224 C   0  0  0  0  0  0  0  0  0  0  0  0
   19.9149   -5.4939  -16.4061 C   0  0  2  0  0  0  0  0  0  0  0  0
   20.0118   -6.7889  -15.7670 N   0  0  0  0  0  0  0  0  0  0  0  0
   20.4822   -4.4146  -15.5828 C   0  0  0  0  0  0  0  0  0  0  0  0
   20.8380   -4.6179  -14.3991 O   0  0  0  0  0  0  0  0  0  0  0  0
   20.6336   -3.1472  -16.1070 O   0  0  0  0  0  0  0  0  0  0  0  0
  1  2  1  0
  2  3  2  0
  4  5  1  0
  4  2  1  0
  5  6  1  0
  6  7  1  1
  8  9  2  0
  8  6  1  0
 11 10  1  0
 11 12  1  0
 12 14  1  0
 12 13  1  1
 14 15  1  6
 15  8  1  0
 16 14  1  0
 17 16  2  0
 18 19  1  0
 20 19  1  1
 20 21  1  0
 21 16  1  0
 22 20  1  0
 22 24  1  0
 23 22  2  0
M  END
$$$$
