QIS.pdb
     RDKit          3D

 24 23  0  0  1  0  0  0  0  0999 V2000
   17.1351  -10.7507  -20.4800 N   0  0  0  0  0  0  0  0  0  0  0  0
   18.5676  -10.9042  -20.5376 C   0  0  0  0  0  0  0  0  0  0  0  0
   19.2468  -10.2236  -21.3485 O   0  0  0  0  0  0  0  0  0  0  0  0
   19.1625  -11.8752  -19.6139 C   0  0  0  0  0  0  0  0  0  0  0  0
   19.7834  -11.1938  -18.4439 C   0  0  0  0  0  0  0  0  0  0  0  0
   20.8492  -12.0480  -17.8300 C   0  0  2  0  0  0  0  0  0  0  0  0
   20.3484  -13.3127  -17.3653 N   0  0  0  0  0  0  0  0  0  0  0  0
   21.4805  -11.2502  -16.7483 C   0  0  0  0  0  0  0  0  0  0  0  0
   20.9095  -11.2572  -15.6294 O   0  0  0  0  0  0  0  0  0  0  0  0
   26.4639  -11.7391  -15.5282 C   0  0  0  0  0  0  0  0  0  0  0  0
   24.9393  -11.4912  -15.4570 C   0  0  0  0  0  0  0  0  0  0  0  0
   24.6781  -10.0631  -15.7816 C   0  0  2  0  0  0  0  0  0  0  0  0
   25.5110   -9.1308  -14.9248 C   0  0  0  0  0  0  0  0  0  0  0  0
   23.2367   -9.6863  -15.8099 C   0  0  2  0  0  0  0  0  0  0  0  0
   22.6623  -10.5045  -16.9176 N   0  0  0  0  0  0  0  0  0  0  0  0
   22.9137   -8.2859  -16.0341 C   0  0  0  0  0  0  0  0  0  0  0  0
   23.1842   -7.7474  -17.1365 O   0  0  0  0  0  0  0  0  0  0  0  0
   20.3683   -4.4181  -15.3946 O   0  0  0  0  0  0  0  0  0  0  0  0
   20.5317   -5.7766  -15.0983 C   0  0  0  0  0  0  0  0  0  0  0  0
   22.0008   -6.0819  -15.2452 C   0  0  2  0  0  0  0  0  0  0  0  0
   22.2913   -7.4866  -15.0516 N   0  0  0  0  0  0  0  0  0  0  0  0
   22.8062   -5.2138  -14.3721 C   0  0  0  0  0  0  0  0  0  0  0  0
   23.0141   -5.5102  -13.1729 O   0  0  0  0  0  0  0  0  0  0  0  0
   23.3517   -4.0463  -14.8656 O   0  0  0  0  0  0  0  0  0  0  0  0
  1  2  1  0
  2  3  2  0
  4  5  1  0
  4  2  1  0
  5  6  1  0
  6  7  1  1
  8  9  2  0
  8  6  1  0
 11 10  1  0
 11 12  1  0
 12 14  1  0
 12 13  1  1
 14 15  1  6
 15  8  1  0
 16 14  1  0
 17 16  2  0
 18 19  1  0
 20 19  1  1
 20 21  1  0
 21 16  1  0
 22 20  1  0
 22 24  1  0
 23 22  2  0
M  END
$$$$
