QIS.pdb
     RDKit          3D

 24 23  0  0  1  0  0  0  0  0999 V2000
   26.2781  -17.5386  -17.4392 N   0  0  0  0  0  0  0  0  0  0  0  0
   27.7154  -17.5051  -17.3299 C   0  0  0  0  0  0  0  0  0  0  0  0
   28.3923  -16.7621  -18.0861 O   0  0  0  0  0  0  0  0  0  0  0  0
   28.3173  -18.3668  -16.3076 C   0  0  0  0  0  0  0  0  0  0  0  0
   27.2849  -19.2007  -15.6314 C   0  0  0  0  0  0  0  0  0  0  0  0
   27.9091  -20.1060  -14.6148 C   0  0  2  0  0  0  0  0  0  0  0  0
   28.8904  -20.9882  -15.1847 N   0  0  0  0  0  0  0  0  0  0  0  0
   26.8049  -20.8364  -13.9424 C   0  0  0  0  0  0  0  0  0  0  0  0
   26.5716  -22.0051  -14.3394 O   0  0  0  0  0  0  0  0  0  0  0  0
   26.4497  -20.9470   -8.7810 C   0  0  0  0  0  0  0  0  0  0  0  0
   26.3219  -21.4114  -10.2503 C   0  0  0  0  0  0  0  0  0  0  0  0
   25.0744  -20.8353  -10.8202 C   0  0  2  0  0  0  0  0  0  0  0  0
   23.8521  -21.2409  -10.0210 C   0  0  0  0  0  0  0  0  0  0  0  0
   24.9032  -21.0512  -12.2847 C   0  0  2  0  0  0  0  0  0  0  0  0
   26.0267  -20.2898  -12.9045 N   0  0  0  0  0  0  0  0  0  0  0  0
   23.6488  -20.6229  -12.8837 C   0  0  0  0  0  0  0  0  0  0  0  0
   23.3088  -19.4145  -12.8335 O   0  0  0  0  0  0  0  0  0  0  0  0
   19.7468  -21.5955  -15.5496 O   0  0  0  0  0  0  0  0  0  0  0  0
   20.9898  -22.0786  -15.1235 C   0  0  0  0  0  0  0  0  0  0  0  0
   21.4909  -21.1247  -14.0691 C   0  0  2  0  0  0  0  0  0  0  0  0
   22.7784  -21.5201  -13.5388 N   0  0  0  0  0  0  0  0  0  0  0  0
   20.4823  -20.9312  -13.0157 C   0  0  0  0  0  0  0  0  0  0  0  0
   20.4426  -21.6748  -12.0085 O   0  0  0  0  0  0  0  0  0  0  0  0
   19.5535  -19.9162  -13.1212 O   0  0  0  0  0  0  0  0  0  0  0  0
  1  2  1  0
  2  3  2  0
  4  5  1  0
  4  2  1  0
  5  6  1  0
  6  7  1  6
  8  9  2  0
  8  6  1  0
 11 10  1  0
 11 12  1  0
 12 14  1  0
 12 13  1  1
 14 15  1  6
 15  8  1  0
 16 14  1  0
 17 16  2  0
 18 19  1  0
 20 19  1  6
 20 21  1  0
 21 16  1  0
 22 20  1  0
 22 24  1  0
 23 22  2  0
M  END
$$$$
