QIS.pdb
     RDKit          3D

 24 23  0  0  1  0  0  0  0  0999 V2000
   16.5039  -12.9061  -18.2810 N   0  0  0  0  0  0  0  0  0  0  0  0
   17.8589  -13.3434  -18.0538 C   0  0  0  0  0  0  0  0  0  0  0  0
   18.0847  -14.4653  -17.5317 O   0  0  0  0  0  0  0  0  0  0  0  0
   18.9243  -12.4223  -18.4619 C   0  0  0  0  0  0  0  0  0  0  0  0
   19.5984  -11.8213  -17.2775 C   0  0  0  0  0  0  0  0  0  0  0  0
   20.8780  -12.5357  -16.9696 C   0  0  2  0  0  0  0  0  0  0  0  0
   20.6643  -13.8573  -16.4464 N   0  0  0  0  0  0  0  0  0  0  0  0
   21.6498  -11.6708  -16.0415 C   0  0  0  0  0  0  0  0  0  0  0  0
   21.3179  -11.6982  -14.8303 O   0  0  0  0  0  0  0  0  0  0  0  0
   26.6964  -11.9455  -15.6925 C   0  0  0  0  0  0  0  0  0  0  0  0
   25.2007  -11.7202  -15.3718 C   0  0  0  0  0  0  0  0  0  0  0  0
   24.8648  -10.3004  -15.6622 C   0  0  2  0  0  0  0  0  0  0  0  0
   25.7908   -9.3444  -14.9372 C   0  0  0  0  0  0  0  0  0  0  0  0
   23.4261   -9.9542  -15.4862 C   0  0  2  0  0  0  0  0  0  0  0  0
   22.7116  -10.8417  -16.4496 N   0  0  0  0  0  0  0  0  0  0  0  0
   23.0339   -8.5744  -15.7274 C   0  0  0  0  0  0  0  0  0  0  0  0
   23.2114   -8.0595  -16.8595 O   0  0  0  0  0  0  0  0  0  0  0  0
   19.8548   -6.8776  -14.5775 O   0  0  0  0  0  0  0  0  0  0  0  0
   20.7060   -6.1991  -15.4580 C   0  0  0  0  0  0  0  0  0  0  0  0
   22.1083   -6.3773  -14.9340 C   0  0  2  0  0  0  0  0  0  0  0  0
   22.4445   -7.7701  -14.7287 N   0  0  0  0  0  0  0  0  0  0  0  0
   22.3251   -5.5611  -13.7293 C   0  0  0  0  0  0  0  0  0  0  0  0
   22.5806   -6.0897  -12.6228 O   0  0  0  0  0  0  0  0  0  0  0  0
   22.2501   -4.1850  -13.7996 O   0  0  0  0  0  0  0  0  0  0  0  0
  1  2  1  0
  2  3  2  0
  4  5  1  0
  4  2  1  0
  5  6  1  0
  6  7  1  1
  8  9  2  0
  8  6  1  0
 11 10  1  0
 11 12  1  0
 12 14  1  0
 12 13  1  1
 14 15  1  6
 15  8  1  0
 16 14  1  0
 17 16  2  0
 18 19  1  0
 20 19  1  1
 20 21  1  0
 21 16  1  0
 22 20  1  0
 22 24  1  0
 23 22  2  0
M  END
$$$$
