QIS.pdb
     RDKit          3D

 24 23  0  0  1  0  0  0  0  0999 V2000
   27.4782  -19.3871  -18.2856 N   0  0  0  0  0  0  0  0  0  0  0  0
   28.4169  -18.4835  -17.6682 C   0  0  0  0  0  0  0  0  0  0  0  0
   29.2485  -17.8541  -18.3714 O   0  0  0  0  0  0  0  0  0  0  0  0
   28.3384  -18.3488  -16.2102 C   0  0  0  0  0  0  0  0  0  0  0  0
   27.2239  -19.1657  -15.6540 C   0  0  0  0  0  0  0  0  0  0  0  0
   27.7455  -20.2350  -14.7446 C   0  0  2  0  0  0  0  0  0  0  0  0
   28.5416  -21.2122  -15.4356 N   0  0  0  0  0  0  0  0  0  0  0  0
   26.5740  -20.8344  -14.0566 C   0  0  0  0  0  0  0  0  0  0  0  0
   26.0208  -21.8104  -14.6216 O   0  0  0  0  0  0  0  0  0  0  0  0
   26.4646  -20.6954   -8.7181 C   0  0  0  0  0  0  0  0  0  0  0  0
   26.3048  -21.2613  -10.1482 C   0  0  0  0  0  0  0  0  0  0  0  0
   25.0501  -20.7170  -10.7332 C   0  0  2  0  0  0  0  0  0  0  0  0
   23.8350  -21.1008   -9.9127 C   0  0  0  0  0  0  0  0  0  0  0  0
   24.8733  -20.9902  -12.1874 C   0  0  2  0  0  0  0  0  0  0  0  0
   26.0683  -20.3679  -12.8285 N   0  0  0  0  0  0  0  0  0  0  0  0
   23.6697  -20.4793  -12.8246 C   0  0  0  0  0  0  0  0  0  0  0  0
   23.5074  -19.2408  -12.9592 O   0  0  0  0  0  0  0  0  0  0  0  0
   20.2637  -20.6044  -15.9582 O   0  0  0  0  0  0  0  0  0  0  0  0
   21.3985  -21.2234  -15.4205 C   0  0  0  0  0  0  0  0  0  0  0  0
   21.4593  -20.8354  -13.9649 C   0  0  2  0  0  0  0  0  0  0  0  0
   22.6549  -21.3285  -13.3151 N   0  0  0  0  0  0  0  0  0  0  0  0
   20.2297  -21.2370  -13.2639 C   0  0  0  0  0  0  0  0  0  0  0  0
   20.1549  -22.3295  -12.6557 O   0  0  0  0  0  0  0  0  0  0  0  0
   19.1270  -20.4075  -13.2648 O   0  0  0  0  0  0  0  0  0  0  0  0
  1  2  1  0
  2  3  2  0
  4  5  1  0
  4  2  1  0
  5  6  1  0
  6  7  1  6
  8  9  2  0
  8  6  1  0
 11 10  1  0
 11 12  1  0
 12 14  1  0
 12 13  1  1
 14 15  1  6
 15  8  1  0
 16 14  1  0
 17 16  2  0
 18 19  1  0
 20 19  1  6
 20 21  1  0
 21 16  1  0
 22 20  1  0
 22 24  1  0
 23 22  2  0
M  END
$$$$
