QIS.pdb
     RDKit          3D

 24 23  0  0  1  0  0  0  0  0999 V2000
   18.5511  -14.0678  -16.6347 N   0  0  0  0  0  0  0  0  0  0  0  0
   18.6465  -13.9795  -18.0707 C   0  0  0  0  0  0  0  0  0  0  0  0
   18.0141  -14.7863  -18.7996 O   0  0  0  0  0  0  0  0  0  0  0  0
   19.5018  -12.9170  -18.6088 C   0  0  0  0  0  0  0  0  0  0  0  0
   20.0087  -12.0329  -17.5225 C   0  0  0  0  0  0  0  0  0  0  0  0
   21.3534  -12.4877  -17.0454 C   0  0  2  0  0  0  0  0  0  0  0  0
   21.3219  -13.8033  -16.4671 N   0  0  0  0  0  0  0  0  0  0  0  0
   21.8531  -11.4585  -16.0987 C   0  0  0  0  0  0  0  0  0  0  0  0
   21.3411  -11.4445  -14.9517 O   0  0  0  0  0  0  0  0  0  0  0  0
   27.0903   -9.7473  -16.4001 C   0  0  0  0  0  0  0  0  0  0  0  0
   25.5767   -9.5350  -16.6345 C   0  0  0  0  0  0  0  0  0  0  0  0
   24.8545   -9.8582  -15.3748 C   0  0  2  0  0  0  0  0  0  0  0  0
   25.1666  -11.2606  -14.8922 C   0  0  0  0  0  0  0  0  0  0  0  0
   23.3925   -9.5714  -15.4062 C   0  0  2  0  0  0  0  0  0  0  0  0
   22.8513  -10.5203  -16.4225 N   0  0  0  0  0  0  0  0  0  0  0  0
   22.9814   -8.2190  -15.7494 C   0  0  0  0  0  0  0  0  0  0  0  0
   22.9761   -7.8496  -16.9501 O   0  0  0  0  0  0  0  0  0  0  0  0
   20.0286   -6.2188  -14.4424 O   0  0  0  0  0  0  0  0  0  0  0  0
   20.8100   -5.7368  -15.4994 C   0  0  0  0  0  0  0  0  0  0  0  0
   22.2510   -5.9070  -15.0902 C   0  0  2  0  0  0  0  0  0  0  0  0
   22.5732   -7.2826  -14.7756 N   0  0  0  0  0  0  0  0  0  0  0  0
   22.5986   -4.9826  -13.9998 C   0  0  0  0  0  0  0  0  0  0  0  0
   22.4983   -3.7421  -14.1418 O   0  0  0  0  0  0  0  0  0  0  0  0
   23.0455   -5.4724  -12.7896 O   0  0  0  0  0  0  0  0  0  0  0  0
  1  2  1  0
  2  3  2  0
  4  5  1  0
  4  2  1  0
  5  6  1  0
  6  7  1  1
  8  9  2  0
  8  6  1  0
 11 10  1  0
 11 12  1  0
 12 14  1  0
 12 13  1  6
 14 15  1  6
 15  8  1  0
 16 14  1  0
 17 16  2  0
 18 19  1  0
 20 19  1  1
 20 21  1  0
 21 16  1  0
 22 20  1  0
 22 24  1  0
 23 22  2  0
M  END
$$$$
