QIS.pdb
     RDKit          3D

 24 23  0  0  1  0  0  0  0  0999 V2000
   19.0275  -10.8050  -19.8928 N   0  0  0  0  0  0  0  0  0  0  0  0
   18.8655  -12.2217  -20.1057 C   0  0  0  0  0  0  0  0  0  0  0  0
   18.2888  -12.6464  -21.1398 O   0  0  0  0  0  0  0  0  0  0  0  0
   19.4040  -13.1082  -19.0693 C   0  0  0  0  0  0  0  0  0  0  0  0
   19.9909  -12.3269  -17.9452 C   0  0  0  0  0  0  0  0  0  0  0  0
   21.3737  -12.8047  -17.6253 C   0  0  2  0  0  0  0  0  0  0  0  0
   21.4128  -14.1981  -17.2748 N   0  0  0  0  0  0  0  0  0  0  0  0
   21.9012  -11.9288  -16.5485 C   0  0  0  0  0  0  0  0  0  0  0  0
   21.4194  -12.0874  -15.3993 O   0  0  0  0  0  0  0  0  0  0  0  0
   26.8418  -11.6244  -15.4727 C   0  0  0  0  0  0  0  0  0  0  0  0
   25.3019  -11.5930  -15.3363 C   0  0  0  0  0  0  0  0  0  0  0  0
   24.8302  -10.2140  -15.6340 C   0  0  2  0  0  0  0  0  0  0  0  0
   25.5199   -9.1838  -14.7621 C   0  0  0  0  0  0  0  0  0  0  0  0
   23.3486  -10.0548  -15.6520 C   0  0  2  0  0  0  0  0  0  0  0  0
   22.8937  -10.9520  -16.7540 N   0  0  0  0  0  0  0  0  0  0  0  0
   22.8202   -8.7182  -15.8760 C   0  0  0  0  0  0  0  0  0  0  0  0
   22.9904   -8.1530  -16.9850 O   0  0  0  0  0  0  0  0  0  0  0  0
   19.6767   -5.3062  -14.9526 O   0  0  0  0  0  0  0  0  0  0  0  0
   20.0652   -6.6471  -14.8473 C   0  0  0  0  0  0  0  0  0  0  0  0
   21.5503   -6.6928  -15.1026 C   0  0  2  0  0  0  0  0  0  0  0  0
   22.1040   -8.0124  -14.8858 N   0  0  0  0  0  0  0  0  0  0  0  0
   22.2473   -5.6543  -14.3278 C   0  0  0  0  0  0  0  0  0  0  0  0
   22.8802   -5.9361  -13.2841 O   0  0  0  0  0  0  0  0  0  0  0  0
   22.2150   -4.3387  -14.7427 O   0  0  0  0  0  0  0  0  0  0  0  0
  1  2  1  0
  2  3  2  0
  4  5  1  0
  4  2  1  0
  5  6  1  0
  6  7  1  1
  8  9  2  0
  8  6  1  0
 11 10  1  0
 11 12  1  0
 12 14  1  0
 12 13  1  1
 14 15  1  6
 15  8  1  0
 16 14  1  0
 17 16  2  0
 18 19  1  0
 20 19  1  1
 20 21  1  0
 21 16  1  0
 22 20  1  0
 22 24  1  0
 23 22  2  0
M  END
$$$$
