MYC.pdb
     RDKit          3D

 27 27  0  0  1  0  0  0  0  0999 V2000
    7.4602  -11.2426   26.8448 C   0  0  0  0  0  0  0  0  0  0  0  0
    6.3920  -12.6341   27.3048 S   0  0  0  0  0  0  0  0  0  0  0  0
    5.3496  -13.0178   25.8895 C   0  0  0  0  0  0  0  0  0  0  0  0
    5.8528  -14.1674   25.1163 C   0  0  0  0  0  0  0  0  0  0  0  0
    7.2406  -14.6278   25.2844 C   0  0  2  0  0  0  0  0  0  0  0  0
    8.0616  -13.3905   25.3560 N   0  0  0  0  0  0  0  0  0  0  0  0
    7.8420  -15.5065   24.3053 C   0  0  0  0  0  0  0  0  0  0  0  0
    7.3962  -16.6156   23.8927 O   0  0  0  0  0  0  0  0  0  0  0  0
    6.1136  -13.2414   18.1518 O   0  0  0  0  0  0  0  0  0  0  0  0
    7.1362  -13.6917   19.0015 C   0  0  0  0  0  0  0  0  0  0  0  0
    7.4707  -15.0231   19.0324 C   0  0  0  0  0  0  0  0  0  0  0  0
    8.4864  -15.4755   19.8753 C   0  0  0  0  0  0  0  0  0  0  0  0
    9.1797  -14.6125   20.6945 C   0  0  0  0  0  0  0  0  0  0  0  0
   10.2410  -15.1090   21.5560 C   0  0  0  0  0  0  0  0  0  0  0  0
    9.8012  -15.9285   22.7416 C   0  0  2  0  0  0  0  0  0  0  0  0
    9.0952  -15.1218   23.7013 N   0  0  0  0  0  0  0  0  0  0  0  0
   11.0664  -16.3976   23.3825 C   0  0  0  0  0  0  0  0  0  0  0  0
   11.4783  -15.7996   24.3926 O   0  0  0  0  0  0  0  0  0  0  0  0
    8.8354  -13.2810   20.6549 C   0  0  0  0  0  0  0  0  0  0  0  0
    7.8192  -12.8179   19.8141 C   0  0  0  0  0  0  0  0  0  0  0  0
   11.8072  -17.4940   22.8803 N   0  0  0  0  0  0  0  0  0  0  0  0
   12.2550  -18.5586   23.7545 C   0  0  1  0  0  0  0  0  0  0  0  0
   11.1367  -19.0840   24.6200 C   0  0  0  0  0  0  0  0  0  0  0  0
   11.7272  -19.4599   26.2777 S   0  0  0  0  0  0  0  0  0  0  0  0
   12.8688  -19.6439   22.9695 C   0  0  0  0  0  0  0  0  0  0  0  0
   14.0995  -20.1621   23.3226 O   0  0  0  0  0  0  0  0  0  0  0  0
   12.2893  -20.1249   21.9603 O   0  0  0  0  0  0  0  0  0  0  0  0
  2  1  1  0
  3  2  1  0
  4  3  1  0
  4  5  1  0
  5  7  1  0
  5  6  1  6
  7  8  2  0
  9 10  1  0
 10 11  2  0
 10 20  1  0
 11 12  1  0
 12 13  2  0
 13 14  1  0
 15 14  1  6
 16 15  1  0
 16  7  1  0
 17 18  2  0
 17 15  1  0
 19 13  1  0
 20 19  2  0
 21 17  1  0
 22 25  1  0
 22 21  1  0
 22 23  1  6
 24 23  1  0
 25 26  1  0
 27 25  2  0
M  END
$$$$
