MYC.pdb
     RDKit          3D

 27 27  0  0  1  0  0  0  0  0999 V2000
    8.8238  -11.9266   19.2698 C   0  0  0  0  0  0  0  0  0  0  0  0
    7.3354  -12.2954   20.2381 S   0  0  0  0  0  0  0  0  0  0  0  0
    6.8290  -13.9772   19.8479 C   0  0  0  0  0  0  0  0  0  0  0  0
    7.9413  -14.9383   19.9563 C   0  0  0  0  0  0  0  0  0  0  0  0
    8.0373  -15.8383   21.1168 C   0  0  2  0  0  0  0  0  0  0  0  0
    6.6439  -16.2763   21.3937 N   0  0  0  0  0  0  0  0  0  0  0  0
    8.6129  -15.3699   22.3585 C   0  0  0  0  0  0  0  0  0  0  0  0
    8.6936  -14.1751   22.7647 O   0  0  0  0  0  0  0  0  0  0  0  0
    5.7379  -11.2989   26.5526 O   0  0  0  0  0  0  0  0  0  0  0  0
    6.4510  -12.4853   26.3196 C   0  0  0  0  0  0  0  0  0  0  0  0
    7.8145  -12.5129   26.4792 C   0  0  0  0  0  0  0  0  0  0  0  0
    8.5277  -13.6899   26.2489 C   0  0  0  0  0  0  0  0  0  0  0  0
    7.8959  -14.8496   25.8587 C   0  0  0  0  0  0  0  0  0  0  0  0
    8.6621  -16.0653   25.6351 C   0  0  0  0  0  0  0  0  0  0  0  0
    9.7171  -15.9939   24.5615 C   0  0  2  0  0  0  0  0  0  0  0  0
    9.1750  -16.3348   23.2730 N   0  0  0  0  0  0  0  0  0  0  0  0
   10.7175  -17.0412   24.9273 C   0  0  0  0  0  0  0  0  0  0  0  0
   10.4378  -18.2332   24.7071 O   0  0  0  0  0  0  0  0  0  0  0  0
    6.5295  -14.8095   25.7018 C   0  0  0  0  0  0  0  0  0  0  0  0
    5.8061  -13.6354   25.9300 C   0  0  0  0  0  0  0  0  0  0  0  0
   11.9660  -16.7227   25.5129 N   0  0  0  0  0  0  0  0  0  0  0  0
   12.9649  -17.7447   25.7490 C   0  0  1  0  0  0  0  0  0  0  0  0
   14.3663  -17.2080   25.5961 C   0  0  0  0  0  0  0  0  0  0  0  0
   14.3932  -15.7793   24.5024 S   0  0  0  0  0  0  0  0  0  0  0  0
   12.7746  -18.3515   27.0782 C   0  0  0  0  0  0  0  0  0  0  0  0
   13.5891  -19.3810   27.5078 O   0  0  0  0  0  0  0  0  0  0  0  0
   11.8680  -17.9485   27.8535 O   0  0  0  0  0  0  0  0  0  0  0  0
  2  1  1  0
  3  2  1  0
  4  3  1  0
  4  5  1  0
  5  7  1  0
  5  6  1  1
  7  8  2  0
  9 10  1  0
 10 11  2  0
 10 20  1  0
 11 12  1  0
 12 13  2  0
 13 14  1  0
 15 14  1  1
 16 15  1  0
 16  7  1  0
 17 18  2  0
 17 15  1  0
 19 13  1  0
 20 19  2  0
 21 17  1  0
 22 25  1  0
 22 21  1  0
 22 23  1  1
 24 23  1  0
 25 26  1  0
 27 25  2  0
M  END
$$$$
