MYC.pdb
     RDKit          3D

 27 27  0  0  1  0  0  0  0  0999 V2000
    8.3907  -12.0868   19.0003 C   0  0  0  0  0  0  0  0  0  0  0  0
    6.9233  -13.0880   19.3656 S   0  0  0  0  0  0  0  0  0  0  0  0
    7.4832  -14.7314   19.8377 C   0  0  0  0  0  0  0  0  0  0  0  0
    8.8074  -14.7094   20.4848 C   0  0  0  0  0  0  0  0  0  0  0  0
    9.2793  -15.8715   21.2547 C   0  0  2  0  0  0  0  0  0  0  0  0
    8.1826  -16.8717   21.1729 N   0  0  0  0  0  0  0  0  0  0  0  0
    9.6470  -15.7251   22.6462 C   0  0  0  0  0  0  0  0  0  0  0  0
   10.5411  -14.9724   23.1287 O   0  0  0  0  0  0  0  0  0  0  0  0
    6.1869  -10.8233   26.6534 O   0  0  0  0  0  0  0  0  0  0  0  0
    6.5811  -12.1510   26.4247 C   0  0  0  0  0  0  0  0  0  0  0  0
    7.7752  -12.6112   26.9225 C   0  0  0  0  0  0  0  0  0  0  0  0
    8.1713  -13.9301   26.6979 C   0  0  0  0  0  0  0  0  0  0  0  0
    7.3875  -14.8044   25.9784 C   0  0  0  0  0  0  0  0  0  0  0  0
    7.8196  -16.1769   25.7677 C   0  0  0  0  0  0  0  0  0  0  0  0
    9.1356  -16.3539   25.0554 C   0  0  2  0  0  0  0  0  0  0  0  0
    8.9459  -16.5057   23.6373 N   0  0  0  0  0  0  0  0  0  0  0  0
    9.6944  -17.6357   25.5809 C   0  0  0  0  0  0  0  0  0  0  0  0
    9.1179  -18.6990   25.2899 O   0  0  0  0  0  0  0  0  0  0  0  0
    6.1935  -14.3317   25.4845 C   0  0  0  0  0  0  0  0  0  0  0  0
    5.7878  -13.0121   25.7040 C   0  0  0  0  0  0  0  0  0  0  0  0
   10.8517  -17.6790   26.3945 N   0  0  0  0  0  0  0  0  0  0  0  0
   11.3717  -18.9367   26.8906 C   0  0  1  0  0  0  0  0  0  0  0  0
   12.8448  -19.0888   26.6041 C   0  0  0  0  0  0  0  0  0  0  0  0
   13.2313  -18.5710   24.9246 S   0  0  0  0  0  0  0  0  0  0  0  0
   11.0979  -19.0728   28.3319 C   0  0  0  0  0  0  0  0  0  0  0  0
    9.9177  -19.6363   28.7766 O   0  0  0  0  0  0  0  0  0  0  0  0
   11.9297  -18.6804   29.1920 O   0  0  0  0  0  0  0  0  0  0  0  0
  2  1  1  0
  3  2  1  0
  4  3  1  0
  4  5  1  0
  5  7  1  0
  5  6  1  1
  7  8  2  0
  9 10  1  0
 10 11  2  0
 10 20  1  0
 11 12  1  0
 12 13  2  0
 13 14  1  0
 15 14  1  1
 16 15  1  0
 16  7  1  0
 17 18  2  0
 17 15  1  0
 19 13  1  0
 20 19  2  0
 21 17  1  0
 22 25  1  0
 22 21  1  0
 22 23  1  1
 24 23  1  0
 25 26  1  0
 27 25  2  0
M  END
$$$$
