MYC.pdb
     RDKit          3D

 27 27  0  0  1  0  0  0  0  0999 V2000
    8.6155  -11.5673   19.8678 C   0  0  0  0  0  0  0  0  0  0  0  0
    7.3788  -12.5658   18.9946 S   0  0  0  0  0  0  0  0  0  0  0  0
    7.5007  -14.2522   19.6097 C   0  0  0  0  0  0  0  0  0  0  0  0
    8.5240  -14.3942   20.6610 C   0  0  0  0  0  0  0  0  0  0  0  0
    8.8250  -15.7162   21.2335 C   0  0  2  0  0  0  0  0  0  0  0  0
    7.5328  -16.4510   21.2324 N   0  0  0  0  0  0  0  0  0  0  0  0
    9.3993  -15.8253   22.5567 C   0  0  0  0  0  0  0  0  0  0  0  0
   10.5924  -15.5824   22.8981 O   0  0  0  0  0  0  0  0  0  0  0  0
    6.2818  -10.6112   26.5225 O   0  0  0  0  0  0  0  0  0  0  0  0
    6.6558  -11.9561   26.3743 C   0  0  0  0  0  0  0  0  0  0  0  0
    7.8841  -12.3828   26.8154 C   0  0  0  0  0  0  0  0  0  0  0  0
    8.2603  -13.7186   26.6705 C   0  0  0  0  0  0  0  0  0  0  0  0
    7.4225  -14.6430   26.0875 C   0  0  0  0  0  0  0  0  0  0  0  0
    7.8355  -16.0314   25.9580 C   0  0  0  0  0  0  0  0  0  0  0  0
    8.9855  -16.2945   25.0205 C   0  0  2  0  0  0  0  0  0  0  0  0
    8.5585  -16.2585   23.6469 N   0  0  0  0  0  0  0  0  0  0  0  0
    9.4261  -17.6890   25.3251 C   0  0  0  0  0  0  0  0  0  0  0  0
    8.7062  -18.6338   24.9557 O   0  0  0  0  0  0  0  0  0  0  0  0
    6.1945  -14.2035   25.6492 C   0  0  0  0  0  0  0  0  0  0  0  0
    5.8084  -12.8674   25.7897 C   0  0  0  0  0  0  0  0  0  0  0  0
   10.6292  -17.9680   26.0164 N   0  0  0  0  0  0  0  0  0  0  0  0
   11.4340  -19.1250   25.6819 C   0  0  1  0  0  0  0  0  0  0  0  0
   11.8008  -19.1515   24.2189 C   0  0  0  0  0  0  0  0  0  0  0  0
   12.7674  -20.6169   23.8236 S   0  0  0  0  0  0  0  0  0  0  0  0
   12.6388  -19.1746   26.5286 C   0  0  0  0  0  0  0  0  0  0  0  0
   12.9952  -20.3381   27.1823 O   0  0  0  0  0  0  0  0  0  0  0  0
   13.3715  -18.1614   26.6775 O   0  0  0  0  0  0  0  0  0  0  0  0
  2  1  1  0
  3  2  1  0
  4  3  1  0
  4  5  1  0
  5  7  1  0
  5  6  1  1
  7  8  2  0
  9 10  1  0
 10 11  2  0
 10 20  1  0
 11 12  1  0
 12 13  2  0
 13 14  1  0
 15 14  1  1
 16 15  1  0
 16  7  1  0
 17 18  2  0
 17 15  1  0
 19 13  1  0
 20 19  2  0
 21 17  1  0
 22 25  1  0
 22 21  1  0
 22 23  1  6
 24 23  1  0
 25 26  1  0
 27 25  2  0
M  END
$$$$
