MYC.pdb
     RDKit          3D

 27 27  0  0  1  0  0  0  0  0999 V2000
    8.1007  -12.0754   20.1003 C   0  0  0  0  0  0  0  0  0  0  0  0
    6.8846  -13.3346   19.6264 S   0  0  0  0  0  0  0  0  0  0  0  0
    7.3984  -14.8967   20.3563 C   0  0  0  0  0  0  0  0  0  0  0  0
    8.3014  -14.7095   21.5061 C   0  0  0  0  0  0  0  0  0  0  0  0
    8.9303  -15.8707   22.1559 C   0  0  2  0  0  0  0  0  0  0  0  0
    7.8089  -16.7779   22.5155 N   0  0  0  0  0  0  0  0  0  0  0  0
    9.7543  -15.6921   23.3314 C   0  0  0  0  0  0  0  0  0  0  0  0
   10.9437  -15.2653   23.3774 O   0  0  0  0  0  0  0  0  0  0  0  0
    5.6994  -10.9476   26.0321 O   0  0  0  0  0  0  0  0  0  0  0  0
    6.5257  -12.0597   26.2581 C   0  0  0  0  0  0  0  0  0  0  0  0
    6.2391  -12.9362   27.2754 C   0  0  0  0  0  0  0  0  0  0  0  0
    7.0573  -14.0431   27.5038 C   0  0  0  0  0  0  0  0  0  0  0  0
    8.1663  -14.2911   26.7261 C   0  0  0  0  0  0  0  0  0  0  0  0
    8.9965  -15.4580   26.9794 C   0  0  0  0  0  0  0  0  0  0  0  0
    9.9208  -15.8670   25.8619 C   0  0  2  0  0  0  0  0  0  0  0  0
    9.2052  -16.0261   24.6237 N   0  0  0  0  0  0  0  0  0  0  0  0
   10.4461  -17.2073   26.2608 C   0  0  0  0  0  0  0  0  0  0  0  0
   10.3101  -17.5713   27.4426 O   0  0  0  0  0  0  0  0  0  0  0  0
    8.4433  -13.4057   25.7100 C   0  0  0  0  0  0  0  0  0  0  0  0
    7.6299  -12.2938   25.4731 C   0  0  0  0  0  0  0  0  0  0  0  0
   11.0897  -18.0712   25.3429 N   0  0  0  0  0  0  0  0  0  0  0  0
   11.6051  -19.3586   25.7613 C   0  0  1  0  0  0  0  0  0  0  0  0
   10.6070  -20.4661   25.5315 C   0  0  0  0  0  0  0  0  0  0  0  0
   11.3263  -22.0709   25.9127 S   0  0  0  0  0  0  0  0  0  0  0  0
   12.8794  -19.6475   25.0804 C   0  0  0  0  0  0  0  0  0  0  0  0
   13.7802  -20.5456   25.6189 O   0  0  0  0  0  0  0  0  0  0  0  0
   13.1788  -19.0851   23.9943 O   0  0  0  0  0  0  0  0  0  0  0  0
  2  1  1  0
  3  2  1  0
  4  3  1  0
  4  5  1  0
  5  7  1  0
  5  6  1  1
  7  8  2  0
  9 10  1  0
 10 11  2  0
 10 20  1  0
 11 12  1  0
 12 13  2  0
 13 14  1  0
 15 14  1  1
 16 15  1  0
 16  7  1  0
 17 18  2  0
 17 15  1  0
 19 13  1  0
 20 19  2  0
 21 17  1  0
 22 25  1  0
 22 21  1  0
 22 23  1  6
 24 23  1  0
 25 26  1  0
 27 25  2  0
M  END
$$$$
