MYC.pdb
     RDKit          3D

 27 27  0  0  1  0  0  0  0  0999 V2000
    7.9124  -11.8633   19.8937 C   0  0  0  0  0  0  0  0  0  0  0  0
    7.2395  -13.1985   18.8674 S   0  0  0  0  0  0  0  0  0  0  0  0
    7.6445  -14.7604   19.6631 C   0  0  0  0  0  0  0  0  0  0  0  0
    8.7856  -14.6402   20.5884 C   0  0  0  0  0  0  0  0  0  0  0  0
    9.2644  -15.8136   21.3367 C   0  0  2  0  0  0  0  0  0  0  0  0
    8.1521  -16.7984   21.2816 N   0  0  0  0  0  0  0  0  0  0  0  0
    9.6754  -15.6813   22.7173 C   0  0  0  0  0  0  0  0  0  0  0  0
   10.6142  -14.9677   23.1737 O   0  0  0  0  0  0  0  0  0  0  0  0
    6.3111  -10.7925   26.7777 O   0  0  0  0  0  0  0  0  0  0  0  0
    6.7334  -12.1161   26.5768 C   0  0  0  0  0  0  0  0  0  0  0  0
    5.9347  -12.9982   25.8918 C   0  0  0  0  0  0  0  0  0  0  0  0
    6.3502  -14.3148   25.6895 C   0  0  0  0  0  0  0  0  0  0  0  0
    7.5608  -14.7684   26.1640 C   0  0  0  0  0  0  0  0  0  0  0  0
    7.9741  -16.1430   25.9303 C   0  0  0  0  0  0  0  0  0  0  0  0
    9.2424  -16.3264   25.1377 C   0  0  2  0  0  0  0  0  0  0  0  0
    8.9679  -16.4292   23.7290 N   0  0  0  0  0  0  0  0  0  0  0  0
    9.7997  -17.6362   25.5908 C   0  0  0  0  0  0  0  0  0  0  0  0
    9.1410  -18.6691   25.3748 O   0  0  0  0  0  0  0  0  0  0  0  0
    8.3522  -13.8753   26.8490 C   0  0  0  0  0  0  0  0  0  0  0  0
    7.9449  -12.5544   27.0570 C   0  0  0  0  0  0  0  0  0  0  0  0
   11.0457  -17.7391   26.2541 N   0  0  0  0  0  0  0  0  0  0  0  0
   11.5644  -19.0233   26.6784 C   0  0  1  0  0  0  0  0  0  0  0  0
   13.0727  -19.0465   26.6857 C   0  0  0  0  0  0  0  0  0  0  0  0
   13.7372  -18.1842   25.2528 S   0  0  0  0  0  0  0  0  0  0  0  0
   11.0250  -19.3832   28.0015 C   0  0  0  0  0  0  0  0  0  0  0  0
   11.3180  -20.6051   28.5751 O   0  0  0  0  0  0  0  0  0  0  0  0
   10.2859  -18.5890   28.6407 O   0  0  0  0  0  0  0  0  0  0  0  0
  2  1  1  0
  3  2  1  0
  4  3  1  0
  4  5  1  0
  5  7  1  0
  5  6  1  1
  7  8  2  0
  9 10  1  0
 10 11  2  0
 10 20  1  0
 11 12  1  0
 12 13  2  0
 13 14  1  0
 15 14  1  1
 16 15  1  0
 16  7  1  0
 17 18  2  0
 17 15  1  0
 19 13  1  0
 20 19  2  0
 21 17  1  0
 22 25  1  0
 22 21  1  0
 22 23  1  1
 24 23  1  0
 25 26  1  0
 27 25  2  0
M  END
$$$$
