MYC.pdb
     RDKit          3D

 27 27  0  0  1  0  0  0  0  0999 V2000
    6.8931  -12.7544   16.2845 C   0  0  0  0  0  0  0  0  0  0  0  0
    7.9402  -12.9846   17.7473 S   0  0  0  0  0  0  0  0  0  0  0  0
    6.8584  -13.1997   19.1688 C   0  0  0  0  0  0  0  0  0  0  0  0
    7.6076  -13.3103   20.4333 C   0  0  0  0  0  0  0  0  0  0  0  0
    8.1609  -14.6055   20.8602 C   0  0  2  0  0  0  0  0  0  0  0  0
    6.9816  -15.4604   21.1576 N   0  0  0  0  0  0  0  0  0  0  0  0
    9.0611  -14.6782   21.9903 C   0  0  0  0  0  0  0  0  0  0  0  0
   10.2895  -14.3791   22.0136 O   0  0  0  0  0  0  0  0  0  0  0  0
   11.0474  -15.1507   30.7059 O   0  0  0  0  0  0  0  0  0  0  0  0
   10.3931  -15.1479   29.4640 C   0  0  0  0  0  0  0  0  0  0  0  0
   10.1157  -13.9600   28.8336 C   0  0  0  0  0  0  0  0  0  0  0  0
    9.4657  -13.9521   27.5990 C   0  0  0  0  0  0  0  0  0  0  0  0
    9.0852  -15.1210   26.9783 C   0  0  0  0  0  0  0  0  0  0  0  0
    8.4181  -15.0847   25.6866 C   0  0  0  0  0  0  0  0  0  0  0  0
    9.3153  -15.1388   24.4772 C   0  0  2  0  0  0  0  0  0  0  0  0
    8.5502  -15.1402   23.2587 N   0  0  0  0  0  0  0  0  0  0  0  0
   10.0219  -16.4513   24.5740 C   0  0  0  0  0  0  0  0  0  0  0  0
    9.3407  -17.4912   24.6194 O   0  0  0  0  0  0  0  0  0  0  0  0
    9.3684  -16.3048   27.6198 C   0  0  0  0  0  0  0  0  0  0  0  0
   10.0191  -16.3234   28.8569 C   0  0  0  0  0  0  0  0  0  0  0  0
   11.4332  -16.5491   24.6155 N   0  0  0  0  0  0  0  0  0  0  0  0
   12.1212  -17.6952   24.0576 C   0  0  1  0  0  0  0  0  0  0  0  0
   11.9383  -17.7888   22.5631 C   0  0  0  0  0  0  0  0  0  0  0  0
   12.2502  -19.4621   21.9794 S   0  0  0  0  0  0  0  0  0  0  0  0
   13.5507  -17.6591   24.4127 C   0  0  0  0  0  0  0  0  0  0  0  0
   14.3778  -18.7267   24.1226 O   0  0  0  0  0  0  0  0  0  0  0  0
   14.0531  -16.6578   24.9877 O   0  0  0  0  0  0  0  0  0  0  0  0
  2  1  1  0
  3  2  1  0
  4  3  1  0
  4  5  1  0
  5  7  1  0
  5  6  1  1
  7  8  2  0
  9 10  1  0
 10 11  2  0
 10 20  1  0
 11 12  1  0
 12 13  2  0
 13 14  1  0
 15 14  1  1
 16 15  1  0
 16  7  1  0
 17 18  2  0
 17 15  1  0
 19 13  1  0
 20 19  2  0
 21 17  1  0
 22 25  1  0
 22 21  1  0
 22 23  1  6
 24 23  1  0
 25 26  1  0
 27 25  2  0
M  END
$$$$
