MYC.pdb
     RDKit          3D

 27 27  0  0  1  0  0  0  0  0999 V2000
    7.1197  -11.6764   26.8014 C   0  0  0  0  0  0  0  0  0  0  0  0
    5.3552  -12.0951   26.8004 S   0  0  0  0  0  0  0  0  0  0  0  0
    5.1780  -13.7258   26.0609 C   0  0  0  0  0  0  0  0  0  0  0  0
    6.4738  -14.3084   25.6683 C   0  0  0  0  0  0  0  0  0  0  0  0
    6.5234  -15.5176   24.8309 C   0  0  2  0  0  0  0  0  0  0  0  0
    5.7931  -16.5603   25.5986 N   0  0  0  0  0  0  0  0  0  0  0  0
    7.7960  -16.0723   24.4240 C   0  0  0  0  0  0  0  0  0  0  0  0
    8.2446  -17.2280   24.6732 O   0  0  0  0  0  0  0  0  0  0  0  0
    7.0634  -13.6188   17.6565 O   0  0  0  0  0  0  0  0  0  0  0  0
    7.9016  -13.8926   18.7487 C   0  0  0  0  0  0  0  0  0  0  0  0
    8.4109  -15.1552   18.9275 C   0  0  0  0  0  0  0  0  0  0  0  0
    9.2446  -15.4322   20.0115 C   0  0  0  0  0  0  0  0  0  0  0  0
    9.5810  -14.4605   20.9275 C   0  0  0  0  0  0  0  0  0  0  0  0
   10.4602  -14.7737   22.0428 C   0  0  0  0  0  0  0  0  0  0  0  0
    9.9165  -15.7415   23.0618 C   0  0  2  0  0  0  0  0  0  0  0  0
    8.6947  -15.2544   23.6451 N   0  0  0  0  0  0  0  0  0  0  0  0
   10.9485  -15.7927   24.1406 C   0  0  0  0  0  0  0  0  0  0  0  0
   12.1062  -16.1346   23.8401 O   0  0  0  0  0  0  0  0  0  0  0  0
    9.0643  -13.1994   20.7380 C   0  0  0  0  0  0  0  0  0  0  0  0
    8.2282  -12.9119   19.6553 C   0  0  0  0  0  0  0  0  0  0  0  0
   10.6531  -15.4668   25.4859 N   0  0  0  0  0  0  0  0  0  0  0  0
   11.6364  -15.6486   26.5338 C   0  0  1  0  0  0  0  0  0  0  0  0
   11.3575  -14.7679   27.7263 C   0  0  0  0  0  0  0  0  0  0  0  0
    9.7349  -15.1186   28.4206 S   0  0  0  0  0  0  0  0  0  0  0  0
   11.7084  -17.0659   26.9302 C   0  0  0  0  0  0  0  0  0  0  0  0
   10.7820  -17.9779   26.4634 O   0  0  0  0  0  0  0  0  0  0  0  0
   12.6131  -17.4805   27.7018 O   0  0  0  0  0  0  0  0  0  0  0  0
  2  1  1  0
  3  2  1  0
  4  3  1  0
  4  5  1  0
  5  7  1  0
  5  6  1  1
  7  8  2  0
  9 10  1  0
 10 11  2  0
 10 20  1  0
 11 12  1  0
 12 13  2  0
 13 14  1  0
 15 14  1  6
 16 15  1  0
 16  7  1  0
 17 18  2  0
 17 15  1  0
 19 13  1  0
 20 19  2  0
 21 17  1  0
 22 25  1  0
 22 21  1  0
 22 23  1  1
 24 23  1  0
 25 26  1  0
 27 25  2  0
M  END
$$$$
