MYC.pdb
     RDKit          3D

 27 27  0  0  1  0  0  0  0  0999 V2000
    6.6690  -12.6029   20.7692 C   0  0  0  0  0  0  0  0  0  0  0  0
    7.0959  -13.1993   19.1106 S   0  0  0  0  0  0  0  0  0  0  0  0
    7.0471  -14.9976   19.1442 C   0  0  0  0  0  0  0  0  0  0  0  0
    7.8003  -15.5589   20.2800 C   0  0  0  0  0  0  0  0  0  0  0  0
    9.0426  -14.9173   20.7396 C   0  0  2  0  0  0  0  0  0  0  0  0
   10.0195  -15.1115   19.6361 N   0  0  0  0  0  0  0  0  0  0  0  0
    9.6709  -15.3416   21.9717 C   0  0  0  0  0  0  0  0  0  0  0  0
   10.6825  -16.0893   22.0996 O   0  0  0  0  0  0  0  0  0  0  0  0
   10.7438  -15.6119   30.8855 O   0  0  0  0  0  0  0  0  0  0  0  0
   10.2902  -15.3527   29.5826 C   0  0  0  0  0  0  0  0  0  0  0  0
    9.4830  -16.2590   28.9404 C   0  0  0  0  0  0  0  0  0  0  0  0
    9.0295  -16.0058   27.6454 C   0  0  0  0  0  0  0  0  0  0  0  0
    9.3718  -14.8522   26.9757 C   0  0  0  0  0  0  0  0  0  0  0  0
    8.8770  -14.6085   25.6301 C   0  0  0  0  0  0  0  0  0  0  0  0
    9.7160  -15.1607   24.5068 C   0  0  2  0  0  0  0  0  0  0  0  0
    9.1182  -14.8901   23.2263 N   0  0  0  0  0  0  0  0  0  0  0  0
    9.7125  -16.6408   24.7085 C   0  0  0  0  0  0  0  0  0  0  0  0
    8.6426  -17.2582   24.5615 O   0  0  0  0  0  0  0  0  0  0  0  0
   10.1813  -13.9518   27.6293 C   0  0  0  0  0  0  0  0  0  0  0  0
   10.6409  -14.1964   28.9266 C   0  0  0  0  0  0  0  0  0  0  0  0
   10.8805  -17.3591   25.0593 N   0  0  0  0  0  0  0  0  0  0  0  0
   10.8246  -18.7719   25.3741 C   0  0  1  0  0  0  0  0  0  0  0  0
   11.5347  -19.6077   24.3384 C   0  0  0  0  0  0  0  0  0  0  0  0
   11.3841  -18.8720   22.7031 S   0  0  0  0  0  0  0  0  0  0  0  0
   11.3729  -19.0205   26.7189 C   0  0  0  0  0  0  0  0  0  0  0  0
   11.3745  -20.2927   27.2569 O   0  0  0  0  0  0  0  0  0  0  0  0
   11.8524  -18.0830   27.4095 O   0  0  0  0  0  0  0  0  0  0  0  0
  2  1  1  0
  3  2  1  0
  4  3  1  0
  4  5  1  0
  5  7  1  0
  5  6  1  6
  7  8  2  0
  9 10  1  0
 10 11  2  0
 10 20  1  0
 11 12  1  0
 12 13  2  0
 13 14  1  0
 15 14  1  1
 16 15  1  0
 16  7  1  0
 17 18  2  0
 17 15  1  0
 19 13  1  0
 20 19  2  0
 21 17  1  0
 22 25  1  0
 22 21  1  0
 22 23  1  6
 24 23  1  0
 25 26  1  0
 27 25  2  0
M  END
$$$$
