MYC.pdb
     RDKit          3D

 27 27  0  0  1  0  0  0  0  0999 V2000
    7.3162  -11.3311   26.5144 C   0  0  0  0  0  0  0  0  0  0  0  0
    6.5129  -12.4833   27.6616 S   0  0  0  0  0  0  0  0  0  0  0  0
    5.8341  -13.8391   26.6930 C   0  0  0  0  0  0  0  0  0  0  0  0
    6.8831  -14.6485   26.0473 C   0  0  0  0  0  0  0  0  0  0  0  0
    6.6137  -15.3397   24.7762 C   0  0  2  0  0  0  0  0  0  0  0  0
    5.6186  -16.3947   25.1030 N   0  0  0  0  0  0  0  0  0  0  0  0
    7.6934  -15.9580   24.0381 C   0  0  0  0  0  0  0  0  0  0  0  0
    8.0626  -17.1664   24.0859 O   0  0  0  0  0  0  0  0  0  0  0  0
    6.5317  -13.5186   17.0449 O   0  0  0  0  0  0  0  0  0  0  0  0
    7.4037  -13.8060   18.1067 C   0  0  0  0  0  0  0  0  0  0  0  0
    7.8486  -12.7978   18.9258 C   0  0  0  0  0  0  0  0  0  0  0  0
    8.7154  -13.0786   19.9825 C   0  0  0  0  0  0  0  0  0  0  0  0
    9.1486  -14.3608   20.2368 C   0  0  0  0  0  0  0  0  0  0  0  0
   10.0440  -14.6272   21.3513 C   0  0  0  0  0  0  0  0  0  0  0  0
    9.5695  -15.6502   22.3508 C   0  0  2  0  0  0  0  0  0  0  0  0
    8.4708  -15.1471   23.1318 N   0  0  0  0  0  0  0  0  0  0  0  0
   10.7260  -15.8606   23.2726 C   0  0  0  0  0  0  0  0  0  0  0  0
   11.3369  -14.8636   23.6971 O   0  0  0  0  0  0  0  0  0  0  0  0
    8.6962  -15.3625   19.4091 C   0  0  0  0  0  0  0  0  0  0  0  0
    7.8278  -15.0915   18.3478 C   0  0  0  0  0  0  0  0  0  0  0  0
   11.1465  -17.1504   23.6762 N   0  0  0  0  0  0  0  0  0  0  0  0
   12.3294  -17.3311   24.4924 C   0  0  1  0  0  0  0  0  0  0  0  0
   12.0514  -18.1838   25.7054 C   0  0  0  0  0  0  0  0  0  0  0  0
   10.5754  -17.6184   26.5656 S   0  0  0  0  0  0  0  0  0  0  0  0
   13.4260  -17.8990   23.6887 C   0  0  0  0  0  0  0  0  0  0  0  0
   14.6973  -18.0211   24.2148 O   0  0  0  0  0  0  0  0  0  0  0  0
   13.2330  -18.2860   22.5061 O   0  0  0  0  0  0  0  0  0  0  0  0
  2  1  1  0
  3  2  1  0
  4  3  1  0
  4  5  1  0
  5  7  1  0
  5  6  1  1
  7  8  2  0
  9 10  1  0
 10 11  2  0
 10 20  1  0
 11 12  1  0
 12 13  2  0
 13 14  1  0
 15 14  1  6
 16 15  1  0
 16  7  1  0
 17 18  2  0
 17 15  1  0
 19 13  1  0
 20 19  2  0
 21 17  1  0
 22 25  1  0
 22 21  1  0
 22 23  1  1
 24 23  1  0
 25 26  1  0
 27 25  2  0
M  END
$$$$
