MYC.pdb
     RDKit          3D

 27 27  0  0  1  0  0  0  0  0999 V2000
    8.4604  -12.1178   19.4886 C   0  0  0  0  0  0  0  0  0  0  0  0
    7.0962  -13.1006   20.1684 S   0  0  0  0  0  0  0  0  0  0  0  0
    7.5314  -14.8378   19.9956 C   0  0  0  0  0  0  0  0  0  0  0  0
    8.9702  -15.0801   20.2047 C   0  0  0  0  0  0  0  0  0  0  0  0
    9.4217  -16.1660   21.0894 C   0  0  2  0  0  0  0  0  0  0  0  0
    8.3291  -17.1738   21.0676 N   0  0  0  0  0  0  0  0  0  0  0  0
    9.7496  -15.8931   22.4717 C   0  0  0  0  0  0  0  0  0  0  0  0
   10.6520  -15.1227   22.9089 O   0  0  0  0  0  0  0  0  0  0  0  0
    6.3740  -10.6457   26.5555 O   0  0  0  0  0  0  0  0  0  0  0  0
    6.7410  -11.9799   26.3190 C   0  0  0  0  0  0  0  0  0  0  0  0
    5.8327  -12.8605   25.7852 C   0  0  0  0  0  0  0  0  0  0  0  0
    6.1928  -14.1876   25.5483 C   0  0  0  0  0  0  0  0  0  0  0  0
    7.4560  -14.6533   25.8379 C   0  0  0  0  0  0  0  0  0  0  0  0
    7.8082  -16.0389   25.5715 C   0  0  0  0  0  0  0  0  0  0  0  0
    9.1439  -16.2666   24.9120 C   0  0  2  0  0  0  0  0  0  0  0  0
    8.9925  -16.5509   23.5097 N   0  0  0  0  0  0  0  0  0  0  0  0
    9.6996  -17.4882   25.5679 C   0  0  0  0  0  0  0  0  0  0  0  0
    9.0259  -18.5337   25.5452 O   0  0  0  0  0  0  0  0  0  0  0  0
    8.3572  -13.7616   26.3725 C   0  0  0  0  0  0  0  0  0  0  0  0
    8.0062  -12.4302   26.6137 C   0  0  0  0  0  0  0  0  0  0  0  0
   10.9606  -17.4943   26.2106 N   0  0  0  0  0  0  0  0  0  0  0  0
   11.4565  -18.6818   26.8754 C   0  0  1  0  0  0  0  0  0  0  0  0
   12.9616  -18.6828   26.9771 C   0  0  0  0  0  0  0  0  0  0  0  0
   13.7149  -18.2994   25.3885 S   0  0  0  0  0  0  0  0  0  0  0  0
   10.8380  -18.8221   28.2053 C   0  0  0  0  0  0  0  0  0  0  0  0
   11.1429  -19.8978   29.0163 O   0  0  0  0  0  0  0  0  0  0  0  0
   10.0185  -17.9680   28.6350 O   0  0  0  0  0  0  0  0  0  0  0  0
  2  1  1  0
  3  2  1  0
  4  3  1  0
  4  5  1  0
  5  7  1  0
  5  6  1  1
  7  8  2  0
  9 10  1  0
 10 11  2  0
 10 20  1  0
 11 12  1  0
 12 13  2  0
 13 14  1  0
 15 14  1  1
 16 15  1  0
 16  7  1  0
 17 18  2  0
 17 15  1  0
 19 13  1  0
 20 19  2  0
 21 17  1  0
 22 25  1  0
 22 21  1  0
 22 23  1  1
 24 23  1  0
 25 26  1  0
 27 25  2  0
M  END
$$$$
