MYC.pdb
     RDKit          3D

 27 27  0  0  1  0  0  0  0  0999 V2000
    8.9820  -12.1311   18.8910 C   0  0  0  0  0  0  0  0  0  0  0  0
    7.3015  -12.1770   19.5714 S   0  0  0  0  0  0  0  0  0  0  0  0
    6.9092  -13.8915   19.9509 C   0  0  0  0  0  0  0  0  0  0  0  0
    8.0350  -14.8007   19.6706 C   0  0  0  0  0  0  0  0  0  0  0  0
    8.3071  -15.9440   20.5564 C   0  0  2  0  0  0  0  0  0  0  0  0
    6.9745  -16.4071   21.0249 N   0  0  0  0  0  0  0  0  0  0  0  0
    9.1568  -15.7832   21.7162 C   0  0  0  0  0  0  0  0  0  0  0  0
   10.4194  -15.7195   21.7398 O   0  0  0  0  0  0  0  0  0  0  0  0
   10.7888  -15.0878   30.5284 O   0  0  0  0  0  0  0  0  0  0  0  0
   10.1965  -15.1104   29.2559 C   0  0  0  0  0  0  0  0  0  0  0  0
    9.6364  -16.2688   28.7766 C   0  0  0  0  0  0  0  0  0  0  0  0
    9.0464  -16.2962   27.5124 C   0  0  0  0  0  0  0  0  0  0  0  0
    9.0061  -15.1760   26.7125 C   0  0  0  0  0  0  0  0  0  0  0  0
    8.3759  -15.2294   25.4030 C   0  0  0  0  0  0  0  0  0  0  0  0
    9.2871  -15.5361   24.2427 C   0  0  2  0  0  0  0  0  0  0  0  0
    8.5442  -15.6809   23.0190 N   0  0  0  0  0  0  0  0  0  0  0  0
    9.8974  -16.8609   24.5655 C   0  0  0  0  0  0  0  0  0  0  0  0
    9.1677  -17.8683   24.5612 O   0  0  0  0  0  0  0  0  0  0  0  0
    9.5708  -14.0214   27.2036 C   0  0  0  0  0  0  0  0  0  0  0  0
   10.1643  -13.9837   28.4686 C   0  0  0  0  0  0  0  0  0  0  0  0
   11.2710  -17.0056   24.8741 N   0  0  0  0  0  0  0  0  0  0  0  0
   11.8529  -18.3117   25.1059 C   0  0  1  0  0  0  0  0  0  0  0  0
   12.4670  -18.8846   23.8528 C   0  0  0  0  0  0  0  0  0  0  0  0
   13.1574  -20.5173   24.1622 S   0  0  0  0  0  0  0  0  0  0  0  0
   12.8420  -18.2471   26.1960 C   0  0  0  0  0  0  0  0  0  0  0  0
   13.3790  -17.0377   26.5918 O   0  0  0  0  0  0  0  0  0  0  0  0
   13.2216  -19.2891   26.7925 O   0  0  0  0  0  0  0  0  0  0  0  0
  2  1  1  0
  3  2  1  0
  4  3  1  0
  4  5  1  0
  5  7  1  0
  5  6  1  1
  7  8  2  0
  9 10  1  0
 10 11  2  0
 10 20  1  0
 11 12  1  0
 12 13  2  0
 13 14  1  0
 15 14  1  1
 16 15  1  0
 16  7  1  0
 17 18  2  0
 17 15  1  0
 19 13  1  0
 20 19  2  0
 21 17  1  0
 22 25  1  0
 22 21  1  0
 22 23  1  6
 24 23  1  0
 25 26  1  0
 27 25  2  0
M  END
$$$$
