MYC.pdb
     RDKit          3D

 27 27  0  0  1  0  0  0  0  0999 V2000
    7.9786  -11.9100   19.9822 C   0  0  0  0  0  0  0  0  0  0  0  0
    7.7361  -12.8861   18.4731 S   0  0  0  0  0  0  0  0  0  0  0  0
    7.7831  -14.6255   18.9306 C   0  0  0  0  0  0  0  0  0  0  0  0
    7.1929  -14.8734   20.2583 C   0  0  0  0  0  0  0  0  0  0  0  0
    7.1027  -16.2430   20.7892 C   0  0  2  0  0  0  0  0  0  0  0  0
    5.9669  -16.8732   20.0662 N   0  0  0  0  0  0  0  0  0  0  0  0
    6.9090  -16.4659   22.2054 C   0  0  0  0  0  0  0  0  0  0  0  0
    5.8128  -16.4945   22.8351 O   0  0  0  0  0  0  0  0  0  0  0  0
    8.8496  -19.0590   30.4798 O   0  0  0  0  0  0  0  0  0  0  0  0
    8.8840  -18.7865   29.1032 C   0  0  0  0  0  0  0  0  0  0  0  0
    7.7356  -18.8689   28.3550 C   0  0  0  0  0  0  0  0  0  0  0  0
    7.7649  -18.5988   26.9865 C   0  0  0  0  0  0  0  0  0  0  0  0
    8.9322  -18.2445   26.3475 C   0  0  0  0  0  0  0  0  0  0  0  0
    8.9327  -17.9584   24.9217 C   0  0  0  0  0  0  0  0  0  0  0  0
    8.0001  -16.8660   24.4661 C   0  0  2  0  0  0  0  0  0  0  0  0
    8.0660  -16.6836   23.0404 N   0  0  0  0  0  0  0  0  0  0  0  0
    8.5146  -15.6201   25.1099 C   0  0  0  0  0  0  0  0  0  0  0  0
    9.6241  -15.1828   24.7561 O   0  0  0  0  0  0  0  0  0  0  0  0
   10.0764  -18.1655   27.1076 C   0  0  0  0  0  0  0  0  0  0  0  0
   10.0575  -18.4342   28.4793 C   0  0  0  0  0  0  0  0  0  0  0  0
    7.7845  -14.9254   26.1036 N   0  0  0  0  0  0  0  0  0  0  0  0
    8.2622  -13.6686   26.6425 C   0  0  1  0  0  0  0  0  0  0  0  0
    7.1273  -12.7748   27.0769 C   0  0  0  0  0  0  0  0  0  0  0  0
    5.7575  -12.8612   25.9131 S   0  0  0  0  0  0  0  0  0  0  0  0
    9.1990  -13.9094   27.7540 C   0  0  0  0  0  0  0  0  0  0  0  0
    9.8920  -12.8641   28.3327 O   0  0  0  0  0  0  0  0  0  0  0  0
    9.3910  -15.0701   28.2031 O   0  0  0  0  0  0  0  0  0  0  0  0
  2  1  1  0
  3  2  1  0
  4  3  1  0
  4  5  1  0
  5  7  1  0
  5  6  1  6
  7  8  2  0
  9 10  1  0
 10 11  2  0
 10 20  1  0
 11 12  1  0
 12 13  2  0
 13 14  1  0
 15 14  1  6
 16 15  1  0
 16  7  1  0
 17 18  2  0
 17 15  1  0
 19 13  1  0
 20 19  2  0
 21 17  1  0
 22 25  1  0
 22 21  1  0
 22 23  1  1
 24 23  1  0
 25 26  1  0
 27 25  2  0
M  END
$$$$
