MYC.pdb
     RDKit          3D

 27 27  0  0  1  0  0  0  0  0999 V2000
3925963.50006906091.5000-2803319.2500 C   0  0  0  0  0  0  0  0  0  0  0  0
3925966.75006906091.0000-2803317.2500 S   0  0  0  0  0  0  0  0  0  0  0  0
3925965.75006906091.0000-2803317.7500 C   0  0  0  0  0  0  0  0  0  0  0  0
3925965.25006906091.5000-2803320.7500 C   0  0  0  0  0  0  0  0  0  0  0  0
3925968.00006906089.5000-2803321.2500 C   0  0  2  0  0  0  0  0  0  0  0  0
3925966.75006906090.5000-2803321.0000 N   0  0  0  0  0  0  0  0  0  0  0  0
3925966.50006906088.5000-2803322.5000 C   0  0  0  0  0  0  0  0  0  0  0  0
3925968.50006906088.5000-2803324.7500 O   0  0  0  0  0  0  0  0  0  0  0  0
3925969.75006906087.5000-2803321.2500 O   0  0  0  0  0  0  0  0  0  0  0  0
3925967.50006906087.0000-2803320.2500 C   0  0  0  0  0  0  0  0  0  0  0  0
3925968.50006906088.0000-2803324.2500 C   0  0  0  0  0  0  0  0  0  0  0  0
3925968.75006906089.5000-2803325.0000 C   0  0  0  0  0  0  0  0  0  0  0  0
3925967.00006906089.0000-2803323.5000 C   0  0  0  0  0  0  0  0  0  0  0  0
3925965.75006906091.0000-2803322.5000 C   0  0  0  0  0  0  0  0  0  0  0  0
3925963.50006906088.5000-2803324.0000 C   0  0  2  0  0  0  0  0  0  0  0  0
3925966.50006906088.5000-2803324.5000 N   0  0  0  0  0  0  0  0  0  0  0  0
3925962.50006906089.5000-2803324.0000 C   0  0  0  0  0  0  0  0  0  0  0  0
3925962.00006906090.0000-2803324.0000 O   0  0  0  0  0  0  0  0  0  0  0  0
3925965.50006906088.5000-2803321.7500 C   0  0  0  0  0  0  0  0  0  0  0  0
3925965.50006906087.0000-2803320.5000 C   0  0  0  0  0  0  0  0  0  0  0  0
3925964.00006906088.5000-2803326.0000 N   0  0  0  0  0  0  0  0  0  0  0  0
3925962.75006906086.5000-2803327.0000 C   0  0  2  0  0  0  0  0  0  0  0  0
3925961.00006906088.0000-2803326.5000 C   0  0  0  0  0  0  0  0  0  0  0  0
3925965.25006906084.5000-2803324.7500 S   0  0  0  0  0  0  0  0  0  0  0  0
3925962.00006906086.0000-2803326.0000 C   0  0  0  0  0  0  0  0  0  0  0  0
3925962.75006906086.5000-2803327.5000 O   0  0  0  0  0  0  0  0  0  0  0  0
3925965.25006906085.0000-2803326.0000 O   0  0  0  0  0  0  0  0  0  0  0  0
  2  1  1  0
  3  2  1  0
  4  3  1  0
  4  5  1  0
  5  7  1  0
  5  6  1  6
  7  8  2  0
  9 10  1  0
 10 11  2  0
 10 20  1  0
 11 12  1  0
 12 13  2  0
 13 14  1  0
 15 14  1  1
 16 15  1  0
 16  7  1  0
 17 18  2  0
 17 15  1  0
 19 13  1  0
 20 19  2  0
 21 17  1  0
 22 25  1  0
 22 21  1  0
 22 23  1  1
 24 23  1  0
 25 26  1  0
 27 25  2  0
M  END
$$$$
