CRE.pdb
     RDKit          3D

 27 26  0  0  1  0  0  0  0  0999 V2000
    6.6191  -20.1126   25.6715 N   0  0  0  0  0  0  0  0  0  0  0  0
    7.1221  -18.8108   25.9821 C   0  0  1  0  0  0  0  0  0  0  0  0
    8.2425  -18.8494   27.0017 C   0  0  0  0  0  0  0  0  0  0  0  0
    8.4926  -17.2135   27.7307 S   0  0  0  0  0  0  0  0  0  0  0  0
    7.6609  -18.1751   24.7605 C   0  0  0  0  0  0  0  0  0  0  0  0
    8.4085  -18.8251   24.0133 O   0  0  0  0  0  0  0  0  0  0  0  0
    9.1263  -12.5745   19.7396 N   0  0  0  0  0  0  0  0  0  0  0  0
    8.4272  -13.3893   18.8004 C   0  0  0  0  0  0  0  0  0  0  0  0
    8.4717  -13.0856   17.5487 N   0  0  0  0  0  0  0  0  0  0  0  0
    7.6931  -14.5137   19.2148 N   0  0  0  0  0  0  0  0  0  0  0  0
    6.8834  -14.3931   20.4091 C   0  0  0  0  0  0  0  0  0  0  0  0
    7.7454  -14.2792   21.6637 C   0  0  0  0  0  0  0  0  0  0  0  0
    7.1277  -15.0290   22.7911 C   0  0  0  0  0  0  0  0  0  0  0  0
    7.9360  -16.1718   23.2942 C   0  0  2  0  0  0  0  0  0  0  0  0
    7.3494  -16.8393   24.4127 N   0  0  0  0  0  0  0  0  0  0  0  0
    9.3437  -15.7645   23.6289 C   0  0  0  0  0  0  0  0  0  0  0  0
    9.6247  -15.0885   24.6498 O   0  0  0  0  0  0  0  0  0  0  0  0
    7.9523  -13.6342   16.8460 N   0  0  0  0  0  0  0  0  0  0  0  0
   10.4317  -16.1287   22.7983 C   0  0  2  0  0  0  0  0  0  0  0  0
   11.8229  -15.7997   23.1231 C   0  0  0  0  0  0  0  0  0  0  0  0
   12.2044  -16.3288   24.4615 C   0  0  0  0  0  0  0  0  0  0  0  0
   12.4160  -17.8121   24.5354 C   0  0  0  0  0  0  0  0  0  0  0  0
   12.5103  -18.2564   25.9772 O   0  0  0  0  0  0  0  0  0  0  0  0
   11.6070  -18.9563   26.4794 C   0  0  0  0  0  0  0  0  0  0  0  0
   12.7163  -16.2751   22.0545 O   0  0  0  0  0  0  0  0  0  0  0  0
   12.1454  -16.9999   20.9839 O   0  0  0  0  0  0  0  0  0  0  0  0
   13.6030  -17.8851   26.7420 O   0  0  0  0  0  0  0  0  0  0  0  0
  2  5  1  0
  2  1  1  6
  3  4  1  0
  3  2  1  0
  5  6  2  0
  8  7  1  0
  8 10  1  0
  9  8  2  0
 11 10  1  0
 11 12  1  0
 13 12  1  0
 14 13  1  1
 14 15  1  0
 15  5  1  0
 16 14  1  0
 17 16  2  0
 18 16  1  0
 19 18  1  0
 19 24  1  0
 19 20  1  1
 21 20  1  0
 22 21  1  0
 23 22  2  0
 24 25  1  0
 26 22  1  0
 27 24  2  0
M  END
$$$$
