CRE.pdb
     RDKit          3D

 27 26  0  0  1  0  0  0  0  0999 V2000
    6.9683  -14.3251   19.3629 N   0  0  0  0  0  0  0  0  0  0  0  0
    8.0929  -14.0117   20.1882 C   0  0  1  0  0  0  0  0  0  0  0  0
    7.9307  -12.6911   20.9136 C   0  0  0  0  0  0  0  0  0  0  0  0
    8.0147  -11.3124   19.7464 S   0  0  0  0  0  0  0  0  0  0  0  0
    8.2697  -15.0595   21.2166 C   0  0  0  0  0  0  0  0  0  0  0  0
    7.2713  -15.5449   21.7710 O   0  0  0  0  0  0  0  0  0  0  0  0
   13.5005  -21.6825   21.3934 N   0  0  0  0  0  0  0  0  0  0  0  0
   12.2264  -21.3357   20.8539 C   0  0  0  0  0  0  0  0  0  0  0  0
   11.8072  -21.9374   19.7941 N   0  0  0  0  0  0  0  0  0  0  0  0
   11.4228  -20.3524   21.4558 N   0  0  0  0  0  0  0  0  0  0  0  0
   11.9230  -19.7050   22.6505 C   0  0  0  0  0  0  0  0  0  0  0  0
   10.9396  -18.6643   23.1798 C   0  0  0  0  0  0  0  0  0  0  0  0
   10.6971  -17.6090   22.1589 C   0  0  0  0  0  0  0  0  0  0  0  0
    9.7448  -16.5460   22.5781 C   0  0  2  0  0  0  0  0  0  0  0  0
    9.5501  -15.5307   21.5923 N   0  0  0  0  0  0  0  0  0  0  0  0
   10.1410  -15.9148   23.8836 C   0  0  0  0  0  0  0  0  0  0  0  0
   11.1902  -15.2362   24.0127 O   0  0  0  0  0  0  0  0  0  0  0  0
   10.9035  -21.6920   19.3613 N   0  0  0  0  0  0  0  0  0  0  0  0
    9.3395  -16.0581   25.0426 C   0  0  2  0  0  0  0  0  0  0  0  0
    9.6779  -15.4312   26.3238 C   0  0  0  0  0  0  0  0  0  0  0  0
    8.5502  -14.6042   26.8349 C   0  0  0  0  0  0  0  0  0  0  0  0
    7.6486  -14.0204   25.7876 C   0  0  0  0  0  0  0  0  0  0  0  0
    6.5431  -13.2188   26.4361 O   0  0  0  0  0  0  0  0  0  0  0  0
    5.6735  -12.6642   25.7330 C   0  0  0  0  0  0  0  0  0  0  0  0
   10.1067  -16.4561   27.2892 O   0  0  0  0  0  0  0  0  0  0  0  0
   10.6920  -16.0246   28.5010 O   0  0  0  0  0  0  0  0  0  0  0  0
    6.4961  -13.1004   27.8148 O   0  0  0  0  0  0  0  0  0  0  0  0
  2  5  1  0
  2  1  1  1
  3  4  1  0
  3  2  1  0
  5  6  2  0
  8  7  1  0
  8 10  1  0
  9  8  2  0
 11 10  1  0
 11 12  1  0
 13 12  1  0
 14 13  1  6
 14 15  1  0
 15  5  1  0
 16 14  1  0
 17 16  2  0
 18 16  1  0
 19 18  1  0
 19 24  1  0
 19 20  1  6
 21 20  1  0
 22 21  1  0
 23 22  2  0
 24 25  1  0
 26 22  1  0
 27 24  2  0
M  END
$$$$
