CRE.pdb
     RDKit          3D

 27 26  0  0  1  0  0  0  0  0999 V2000
   13.9995  -18.8031   15.6690 N   0  0  0  0  0  0  0  0  0  0  0  0
   13.7599  -19.8246   16.6403 C   0  0  1  0  0  0  0  0  0  0  0  0
   14.8865  -20.8357   16.7094 C   0  0  0  0  0  0  0  0  0  0  0  0
   14.4191  -22.2349   17.7555 S   0  0  0  0  0  0  0  0  0  0  0  0
   13.6282  -19.2204   17.9836 C   0  0  0  0  0  0  0  0  0  0  0  0
   14.2819  -18.2030   18.2618 O   0  0  0  0  0  0  0  0  0  0  0  0
    9.5648  -15.8454   22.6393 N   0  0  0  0  0  0  0  0  0  0  0  0
    9.4554  -16.6572   23.8071 C   0  0  0  0  0  0  0  0  0  0  0  0
    9.5824  -16.1105   24.9672 N   0  0  0  0  0  0  0  0  0  0  0  0
    9.2125  -18.0383   23.7150 N   0  0  0  0  0  0  0  0  0  0  0  0
    9.4740  -18.6904   22.4489 C   0  0  0  0  0  0  0  0  0  0  0  0
   10.9422  -18.5721   22.0482 C   0  0  0  0  0  0  0  0  0  0  0  0
   11.1876  -19.2662   20.7549 C   0  0  0  0  0  0  0  0  0  0  0  0
   12.5841  -19.1679   20.2521 C   0  0  2  0  0  0  0  0  0  0  0  0
   12.7745  -19.7686   18.9701 N   0  0  0  0  0  0  0  0  0  0  0  0
   13.5776  -19.7329   21.2286 C   0  0  0  0  0  0  0  0  0  0  0  0
   13.6273  -20.9570   21.5066 O   0  0  0  0  0  0  0  0  0  0  0  0
    9.5603  -16.6751   25.8304 N   0  0  0  0  0  0  0  0  0  0  0  0
   14.5149  -18.9008   21.8882 C   0  0  2  0  0  0  0  0  0  0  0  0
   15.4605  -19.4074   22.8874 C   0  0  0  0  0  0  0  0  0  0  0  0
   16.7143  -18.6046   22.9001 C   0  0  0  0  0  0  0  0  0  0  0  0
   17.5027  -18.6144   21.6238 C   0  0  0  0  0  0  0  0  0  0  0  0
   18.7714  -17.8086   21.7858 O   0  0  0  0  0  0  0  0  0  0  0  0
   18.9588  -17.1325   22.8182 C   0  0  0  0  0  0  0  0  0  0  0  0
   14.8154  -19.4643   24.2090 O   0  0  0  0  0  0  0  0  0  0  0  0
   13.5540  -18.8452   24.3603 O   0  0  0  0  0  0  0  0  0  0  0  0
   19.7278  -17.8215   20.7849 O   0  0  0  0  0  0  0  0  0  0  0  0
  2  5  1  0
  2  1  1  6
  3  4  1  0
  3  2  1  0
  5  6  2  0
  8  7  1  0
  8 10  1  0
  9  8  2  0
 11 10  1  0
 11 12  1  0
 13 12  1  0
 14 13  1  1
 14 15  1  0
 15  5  1  0
 16 14  1  0
 17 16  2  0
 18 16  1  0
 19 18  1  0
 19 24  1  0
 19 20  1  6
 21 20  1  0
 22 21  1  0
 23 22  2  0
 24 25  1  0
 26 22  1  0
 27 24  2  0
M  END
$$$$
