CRE.pdb
     RDKit          3D

 27 26  0  0  1  0  0  0  0  0999 V2000
   15.8410  -15.0237   16.0396 N   0  0  0  0  0  0  0  0  0  0  0  0
   14.7745  -15.9652   16.1819 C   0  0  1  0  0  0  0  0  0  0  0  0
   15.2522  -17.4008   16.0967 C   0  0  0  0  0  0  0  0  0  0  0  0
   16.1158  -17.8724   17.6140 S   0  0  0  0  0  0  0  0  0  0  0  0
   14.1257  -15.7950   17.4998 C   0  0  0  0  0  0  0  0  0  0  0  0
   14.7735  -15.3105   18.4407 O   0  0  0  0  0  0  0  0  0  0  0  0
    7.8585  -13.4893   16.2224 N   0  0  0  0  0  0  0  0  0  0  0  0
    7.2984  -13.5588   17.5324 C   0  0  0  0  0  0  0  0  0  0  0  0
    6.5200  -12.6137   17.9345 N   0  0  0  0  0  0  0  0  0  0  0  0
    7.5796  -14.6365   18.3894 N   0  0  0  0  0  0  0  0  0  0  0  0
    8.4384  -15.6916   17.8937 C   0  0  0  0  0  0  0  0  0  0  0  0
    9.9115  -15.2978   17.9653 C   0  0  0  0  0  0  0  0  0  0  0  0
   10.6444  -16.1877   18.9064 C   0  0  0  0  0  0  0  0  0  0  0  0
   12.1118  -15.9524   18.9688 C   0  0  2  0  0  0  0  0  0  0  0  0
   12.7798  -16.1695   17.7250 N   0  0  0  0  0  0  0  0  0  0  0  0
   12.7698  -16.7686   20.0462 C   0  0  0  0  0  0  0  0  0  0  0  0
   13.6520  -17.6275   19.7966 O   0  0  0  0  0  0  0  0  0  0  0  0
    6.0978  -12.6319   18.8757 N   0  0  0  0  0  0  0  0  0  0  0  0
   12.4211  -16.6048   21.4092 C   0  0  2  0  0  0  0  0  0  0  0  0
   13.3198  -16.9715   22.5077 C   0  0  0  0  0  0  0  0  0  0  0  0
   14.6028  -16.2201   22.4294 C   0  0  0  0  0  0  0  0  0  0  0  0
   15.8415  -17.0613   22.3371 C   0  0  0  0  0  0  0  0  0  0  0  0
   17.0667  -16.1808   22.2445 O   0  0  0  0  0  0  0  0  0  0  0  0
   17.9854  -16.4642   21.4483 C   0  0  0  0  0  0  0  0  0  0  0  0
   12.6384  -16.7883   23.7994 O   0  0  0  0  0  0  0  0  0  0  0  0
   11.4798  -15.9797   23.8311 O   0  0  0  0  0  0  0  0  0  0  0  0
   17.1690  -15.0566   23.0461 O   0  0  0  0  0  0  0  0  0  0  0  0
  2  5  1  0
  2  1  1  1
  3  4  1  0
  3  2  1  0
  5  6  2  0
  8  7  1  0
  8 10  1  0
  9  8  2  0
 11 10  1  0
 11 12  1  0
 13 12  1  0
 14 13  1  6
 14 15  1  0
 15  5  1  0
 16 14  1  0
 17 16  2  0
 18 16  1  0
 19 18  1  0
 19 24  1  0
 19 20  1  6
 21 20  1  0
 22 21  1  0
 23 22  2  0
 24 25  1  0
 26 22  1  0
 27 24  2  0
M  END
$$$$
