CRE.pdb
     RDKit          3D

 27 26  0  0  1  0  0  0  0  0999 V2000
    6.3182  -16.3848   26.5871 N   0  0  0  0  0  0  0  0  0  0  0  0
    6.5111  -15.1817   25.8391 C   0  0  1  0  0  0  0  0  0  0  0  0
    7.3816  -14.1782   26.5682 C   0  0  0  0  0  0  0  0  0  0  0  0
    8.8793  -14.9751   27.1944 S   0  0  0  0  0  0  0  0  0  0  0  0
    7.1759  -15.4892   24.5545 C   0  0  0  0  0  0  0  0  0  0  0  0
    7.7592  -16.5754   24.4140 O   0  0  0  0  0  0  0  0  0  0  0  0
    9.5000  -14.5089   17.1330 N   0  0  0  0  0  0  0  0  0  0  0  0
    8.1509  -14.1388   16.8541 C   0  0  0  0  0  0  0  0  0  0  0  0
    7.6144  -14.5085   15.7423 N   0  0  0  0  0  0  0  0  0  0  0  0
    7.3991  -13.3805   17.7678 N   0  0  0  0  0  0  0  0  0  0  0  0
    8.0714  -12.8775   18.9475 C   0  0  0  0  0  0  0  0  0  0  0  0
    8.3774  -13.9961   19.9401 C   0  0  0  0  0  0  0  0  0  0  0  0
    7.6405  -13.7786   21.2146 C   0  0  0  0  0  0  0  0  0  0  0  0
    7.8845  -14.8109   22.2574 C   0  0  2  0  0  0  0  0  0  0  0  0
    7.1688  -14.5784   23.4716 N   0  0  0  0  0  0  0  0  0  0  0  0
    9.3483  -14.9773   22.5565 C   0  0  0  0  0  0  0  0  0  0  0  0
    9.9603  -14.2320   23.3616 O   0  0  0  0  0  0  0  0  0  0  0  0
    6.6297  -14.2907   15.5245 N   0  0  0  0  0  0  0  0  0  0  0  0
   10.1143  -15.9947   21.9366 C   0  0  2  0  0  0  0  0  0  0  0  0
   11.3192  -16.5643   22.5474 C   0  0  0  0  0  0  0  0  0  0  0  0
   11.0162  -17.1764   23.8703 C   0  0  0  0  0  0  0  0  0  0  0  0
   12.1141  -18.0067   24.4666 C   0  0  0  0  0  0  0  0  0  0  0  0
   11.6687  -18.5940   25.7864 O   0  0  0  0  0  0  0  0  0  0  0  0
   10.5349  -18.3340   26.2391 C   0  0  0  0  0  0  0  0  0  0  0  0
   11.9538  -17.5146   21.6198 O   0  0  0  0  0  0  0  0  0  0  0  0
   11.2323  -17.9018   20.4679 O   0  0  0  0  0  0  0  0  0  0  0  0
   12.5223  -19.4230   26.4943 O   0  0  0  0  0  0  0  0  0  0  0  0
  2  5  1  0
  2  1  1  1
  3  4  1  0
  3  2  1  0
  5  6  2  0
  8  7  1  0
  8 10  1  0
  9  8  2  0
 11 10  1  0
 11 12  1  0
 13 12  1  0
 14 13  1  6
 14 15  1  0
 15  5  1  0
 16 14  1  0
 17 16  2  0
 18 16  1  0
 19 18  1  0
 19 24  1  0
 19 20  1  1
 21 20  1  0
 22 21  1  0
 23 22  2  0
 24 25  1  0
 26 22  1  0
 27 24  2  0
M  END
$$$$
