CRE.pdb
     RDKit          3D

 27 26  0  0  1  0  0  0  0  0999 V2000
    7.9261  -14.0443   17.6667 N   0  0  0  0  0  0  0  0  0  0  0  0
    9.0615  -14.1283   18.5315 C   0  0  1  0  0  0  0  0  0  0  0  0
    9.2325  -12.8893   19.3871 C   0  0  0  0  0  0  0  0  0  0  0  0
    9.4499  -11.4260   18.3470 S   0  0  0  0  0  0  0  0  0  0  0  0
    8.9114  -15.2787   19.4485 C   0  0  0  0  0  0  0  0  0  0  0  0
    7.9489  -15.3138   20.2309 O   0  0  0  0  0  0  0  0  0  0  0  0
    5.7496  -21.7198   17.0742 N   0  0  0  0  0  0  0  0  0  0  0  0
    5.1488  -20.4296   17.1700 C   0  0  0  0  0  0  0  0  0  0  0  0
    3.9876  -20.2361   16.6456 N   0  0  0  0  0  0  0  0  0  0  0  0
    5.7989  -19.3692   17.8242 N   0  0  0  0  0  0  0  0  0  0  0  0
    7.1282  -19.6071   18.3467 C   0  0  0  0  0  0  0  0  0  0  0  0
    7.6725  -18.3825   19.0777 C   0  0  0  0  0  0  0  0  0  0  0  0
    9.0394  -18.6519   19.6008 C   0  0  0  0  0  0  0  0  0  0  0  0
    9.6776  -17.5008   20.2936 C   0  0  2  0  0  0  0  0  0  0  0  0
    9.8366  -16.3494   19.4632 N   0  0  0  0  0  0  0  0  0  0  0  0
   11.0005  -17.8712   20.9041 C   0  0  0  0  0  0  0  0  0  0  0  0
   11.9217  -18.4089   20.2404 O   0  0  0  0  0  0  0  0  0  0  0  0
    3.5508  -19.3014   16.6421 N   0  0  0  0  0  0  0  0  0  0  0  0
   11.2725  -17.6280   22.2727 C   0  0  1  0  0  0  0  0  0  0  0  0
   12.5926  -17.2145   22.7581 C   0  0  0  0  0  0  0  0  0  0  0  0
   13.1180  -16.0609   21.9771 C   0  0  0  0  0  0  0  0  0  0  0  0
   14.4282  -16.2912   21.2836 C   0  0  0  0  0  0  0  0  0  0  0  0
   14.8373  -15.0562   20.5139 O   0  0  0  0  0  0  0  0  0  0  0  0
   14.0937  -14.0538   20.4930 C   0  0  0  0  0  0  0  0  0  0  0  0
   12.5346  -16.9367   24.2023 O   0  0  0  0  0  0  0  0  0  0  0  0
   13.6639  -17.2612   24.9876 O   0  0  0  0  0  0  0  0  0  0  0  0
   16.0411  -15.0383   19.8302 O   0  0  0  0  0  0  0  0  0  0  0  0
  2  5  1  0
  2  1  1  1
  3  4  1  0
  3  2  1  0
  5  6  2  0
  8  7  1  0
  8 10  1  0
  9  8  2  0
 11 10  1  0
 11 12  1  0
 13 12  1  0
 14 13  1  6
 14 15  1  0
 15  5  1  0
 16 14  1  0
 17 16  2  0
 18 16  1  0
 19 18  1  0
 19 24  1  0
 19 20  1  6
 21 20  1  0
 22 21  1  0
 23 22  2  0
 24 25  1  0
 26 22  1  0
 27 24  2  0
M  END
$$$$
