CRE.pdb
     RDKit          3D

 27 26  0  0  1  0  0  0  0  0999 V2000
    5.2525  -13.4200   26.7601 N   0  0  0  0  0  0  0  0  0  0  0  0
    6.3093  -12.9385   25.9261 C   0  0  1  0  0  0  0  0  0  0  0  0
    7.3634  -12.1784   26.7055 C   0  0  0  0  0  0  0  0  0  0  0  0
    6.6998  -10.6050   27.3009 S   0  0  0  0  0  0  0  0  0  0  0  0
    6.9857  -14.0750   25.2647 C   0  0  0  0  0  0  0  0  0  0  0  0
    7.1143  -15.1477   25.8752 O   0  0  0  0  0  0  0  0  0  0  0  0
    9.6022  -13.1411   18.5228 N   0  0  0  0  0  0  0  0  0  0  0  0
    8.2498  -13.5894   18.5906 C   0  0  0  0  0  0  0  0  0  0  0  0
    7.3116  -12.8279   18.1426 N   0  0  0  0  0  0  0  0  0  0  0  0
    7.9235  -14.8429   19.1358 N   0  0  0  0  0  0  0  0  0  0  0  0
    9.0072  -15.6853   19.5969 C   0  0  0  0  0  0  0  0  0  0  0  0
    8.8725  -16.0120   21.0819 C   0  0  0  0  0  0  0  0  0  0  0  0
    8.3565  -14.8340   21.8306 C   0  0  0  0  0  0  0  0  0  0  0  0
    8.1374  -15.0681   23.2831 C   0  0  2  0  0  0  0  0  0  0  0  0
    7.4952  -13.9790   23.9480 N   0  0  0  0  0  0  0  0  0  0  0  0
    9.4128  -15.4167   23.9983 C   0  0  0  0  0  0  0  0  0  0  0  0
   10.2093  -14.5416   24.4203 O   0  0  0  0  0  0  0  0  0  0  0  0
    6.3290  -13.1420   18.1263 N   0  0  0  0  0  0  0  0  0  0  0  0
    9.7799  -16.7646   24.2319 C   0  0  2  0  0  0  0  0  0  0  0  0
   10.9856  -17.1411   24.9760 C   0  0  0  0  0  0  0  0  0  0  0  0
   10.6530  -18.0075   26.1403 C   0  0  0  0  0  0  0  0  0  0  0  0
   11.8199  -18.4498   26.9728 C   0  0  0  0  0  0  0  0  0  0  0  0
   11.3403  -19.2393   28.1694 O   0  0  0  0  0  0  0  0  0  0  0  0
   10.1183  -19.3978   28.3686 C   0  0  0  0  0  0  0  0  0  0  0  0
   11.9626  -17.7665   24.0702 O   0  0  0  0  0  0  0  0  0  0  0  0
   13.3276  -17.7259   24.4341 O   0  0  0  0  0  0  0  0  0  0  0  0
   12.2605  -19.7877   29.0463 O   0  0  0  0  0  0  0  0  0  0  0  0
  2  5  1  0
  2  1  1  1
  3  4  1  0
  3  2  1  0
  5  6  2  0
  8  7  1  0
  8 10  1  0
  9  8  2  0
 11 10  1  0
 11 12  1  0
 13 12  1  0
 14 13  1  6
 14 15  1  0
 15  5  1  0
 16 14  1  0
 17 16  2  0
 18 16  1  0
 19 18  1  0
 19 24  1  0
 19 20  1  1
 21 20  1  0
 22 21  1  0
 23 22  2  0
 24 25  1  0
 26 22  1  0
 27 24  2  0
M  END
$$$$
