CRE.pdb
     RDKit          3D

 27 26  0  0  1  0  0  0  0  0999 V2000
    7.3887  -14.3717   17.7340 N   0  0  0  0  0  0  0  0  0  0  0  0
    8.4903  -13.9070   18.5180 C   0  0  1  0  0  0  0  0  0  0  0  0
    8.0454  -13.1646   19.7619 C   0  0  0  0  0  0  0  0  0  0  0  0
    7.1323  -11.6691   19.3148 S   0  0  0  0  0  0  0  0  0  0  0  0
    9.3119  -15.0541   18.9607 C   0  0  0  0  0  0  0  0  0  0  0  0
    8.8020  -16.1839   19.0175 O   0  0  0  0  0  0  0  0  0  0  0  0
   15.0227  -13.8628   18.3022 N   0  0  0  0  0  0  0  0  0  0  0  0
   15.2993  -13.9957   16.9092 C   0  0  0  0  0  0  0  0  0  0  0  0
   15.9666  -13.0705   16.3094 N   0  0  0  0  0  0  0  0  0  0  0  0
   14.8582  -15.1142   16.1816 N   0  0  0  0  0  0  0  0  0  0  0  0
   14.0732  -16.1110   16.8792 C   0  0  0  0  0  0  0  0  0  0  0  0
   13.2361  -15.4887   17.9936 C   0  0  0  0  0  0  0  0  0  0  0  0
   12.3669  -16.5160   18.6292 C   0  0  0  0  0  0  0  0  0  0  0  0
   11.4942  -16.0034   19.7192 C   0  0  2  0  0  0  0  0  0  0  0  0
   10.6712  -14.9045   19.3247 N   0  0  0  0  0  0  0  0  0  0  0  0
   12.2804  -15.6324   20.9456 C   0  0  0  0  0  0  0  0  0  0  0  0
   12.9414  -14.5672   21.0253 O   0  0  0  0  0  0  0  0  0  0  0  0
   16.1445  -13.1114   15.2940 N   0  0  0  0  0  0  0  0  0  0  0  0
   12.3124  -16.4775   22.0819 C   0  0  2  0  0  0  0  0  0  0  0  0
   13.0851  -16.1588   23.2862 C   0  0  0  0  0  0  0  0  0  0  0  0
   12.4958  -16.8034   24.4921 C   0  0  0  0  0  0  0  0  0  0  0  0
   13.1817  -18.0531   24.9590 C   0  0  0  0  0  0  0  0  0  0  0  0
   12.4962  -18.5975   26.1914 O   0  0  0  0  0  0  0  0  0  0  0  0
   11.5219  -17.9944   26.6865 C   0  0  0  0  0  0  0  0  0  0  0  0
   14.4983  -16.5198   23.0891 O   0  0  0  0  0  0  0  0  0  0  0  0
   14.8314  -17.3148   21.9691 O   0  0  0  0  0  0  0  0  0  0  0  0
   12.9517  -19.7689   26.7719 O   0  0  0  0  0  0  0  0  0  0  0  0
  2  5  1  0
  2  1  1  1
  3  4  1  0
  3  2  1  0
  5  6  2  0
  8  7  1  0
  8 10  1  0
  9  8  2  0
 11 10  1  0
 11 12  1  0
 13 12  1  0
 14 13  1  6
 14 15  1  0
 15  5  1  0
 16 14  1  0
 17 16  2  0
 18 16  1  0
 19 18  1  0
 19 24  1  0
 19 20  1  6
 21 20  1  0
 22 21  1  0
 23 22  2  0
 24 25  1  0
 26 22  1  0
 27 24  2  0
M  END
$$$$
