CRE.pdb
     RDKit          3D

 27 26  0  0  1  0  0  0  0  0999 V2000
    6.5987  -18.8662   25.7946 N   0  0  0  0  0  0  0  0  0  0  0  0
    6.8020  -17.4663   25.5869 C   0  0  1  0  0  0  0  0  0  0  0  0
    7.4347  -16.7875   26.7850 C   0  0  0  0  0  0  0  0  0  0  0  0
    8.6758  -17.8638   27.5411 S   0  0  0  0  0  0  0  0  0  0  0  0
    7.7041  -17.2546   24.4344 C   0  0  0  0  0  0  0  0  0  0  0  0
    8.4009  -18.1958   24.0240 O   0  0  0  0  0  0  0  0  0  0  0  0
    6.8267  -12.6083   17.4668 N   0  0  0  0  0  0  0  0  0  0  0  0
    7.4480  -13.8888   17.3716 C   0  0  0  0  0  0  0  0  0  0  0  0
    7.3135  -14.5741   16.2885 N   0  0  0  0  0  0  0  0  0  0  0  0
    8.2017  -14.4144   18.4349 N   0  0  0  0  0  0  0  0  0  0  0  0
    8.3570  -13.6021   19.6234 C   0  0  0  0  0  0  0  0  0  0  0  0
    9.1763  -14.3205   20.6923 C   0  0  0  0  0  0  0  0  0  0  0  0
    8.3648  -14.5234   21.9231 C   0  0  0  0  0  0  0  0  0  0  0  0
    8.6677  -15.7748   22.6679 C   0  0  2  0  0  0  0  0  0  0  0  0
    7.7995  -16.0042   23.7789 N   0  0  0  0  0  0  0  0  0  0  0  0
   10.0990  -15.8285   23.1244 C   0  0  0  0  0  0  0  0  0  0  0  0
   10.4253  -15.7189   24.3326 O   0  0  0  0  0  0  0  0  0  0  0  0
    7.7727  -15.4909   16.1746 N   0  0  0  0  0  0  0  0  0  0  0  0
   11.1587  -16.0075   22.2018 C   0  0  2  0  0  0  0  0  0  0  0  0
   12.5048  -16.4205   22.6098 C   0  0  0  0  0  0  0  0  0  0  0  0
   12.4665  -17.6830   23.3981 C   0  0  0  0  0  0  0  0  0  0  0  0
   12.3288  -17.5159   24.8825 C   0  0  0  0  0  0  0  0  0  0  0  0
   12.4530  -18.8545   25.5739 O   0  0  0  0  0  0  0  0  0  0  0  0
   13.1846  -19.7443   25.0933 C   0  0  0  0  0  0  0  0  0  0  0  0
   13.3810  -16.5192   21.4314 O   0  0  0  0  0  0  0  0  0  0  0  0
   14.7787  -16.4832   21.6372 O   0  0  0  0  0  0  0  0  0  0  0  0
   11.7523  -19.0927   26.7439 O   0  0  0  0  0  0  0  0  0  0  0  0
  2  5  1  0
  2  1  1  1
  3  4  1  0
  3  2  1  0
  5  6  2  0
  8  7  1  0
  8 10  1  0
  9  8  2  0
 11 10  1  0
 11 12  1  0
 13 12  1  0
 14 13  1  1
 14 15  1  0
 15  5  1  0
 16 14  1  0
 17 16  2  0
 18 16  1  0
 19 18  1  0
 19 24  1  0
 19 20  1  1
 21 20  1  0
 22 21  1  0
 23 22  2  0
 24 25  1  0
 26 22  1  0
 27 24  2  0
M  END
$$$$
