CRE.pdb
     RDKit          3D

 27 26  0  0  1  0  0  0  0  0999 V2000
    6.1053  -14.9974   27.2140 N   0  0  0  0  0  0  0  0  0  0  0  0
    6.5086  -14.0523   26.2199 C   0  0  1  0  0  0  0  0  0  0  0  0
    7.4736  -13.0167   26.7610 C   0  0  0  0  0  0  0  0  0  0  0  0
    6.5726  -11.5935   27.4189 S   0  0  0  0  0  0  0  0  0  0  0  0
    7.1904  -14.7508   25.1090 C   0  0  0  0  0  0  0  0  0  0  0  0
    7.6509  -15.8880   25.2946 O   0  0  0  0  0  0  0  0  0  0  0  0
    7.3884  -13.1619   16.3707 N   0  0  0  0  0  0  0  0  0  0  0  0
    8.0951  -14.3915   16.5236 C   0  0  0  0  0  0  0  0  0  0  0  0
    8.4230  -15.0633   15.4738 N   0  0  0  0  0  0  0  0  0  0  0  0
    8.4390  -14.8816   17.7950 N   0  0  0  0  0  0  0  0  0  0  0  0
    7.9522  -14.1629   18.9539 C   0  0  0  0  0  0  0  0  0  0  0  0
    8.2974  -14.8888   20.2516 C   0  0  0  0  0  0  0  0  0  0  0  0
    7.7059  -14.1803   21.4190 C   0  0  0  0  0  0  0  0  0  0  0  0
    7.9568  -14.8307   22.7330 C   0  0  2  0  0  0  0  0  0  0  0  0
    7.3362  -14.1604   23.8313 N   0  0  0  0  0  0  0  0  0  0  0  0
    9.4248  -15.0013   23.0082 C   0  0  0  0  0  0  0  0  0  0  0  0
   10.1365  -14.0734   23.4669 O   0  0  0  0  0  0  0  0  0  0  0  0
    9.0208  -15.9015   15.5397 N   0  0  0  0  0  0  0  0  0  0  0  0
   10.0811  -16.2317   22.7597 C   0  0  2  0  0  0  0  0  0  0  0  0
   11.4929  -16.4574   23.0837 C   0  0  0  0  0  0  0  0  0  0  0  0
   11.6683  -17.6858   23.9065 C   0  0  0  0  0  0  0  0  0  0  0  0
   10.9943  -17.6695   25.2466 C   0  0  0  0  0  0  0  0  0  0  0  0
   11.2203  -18.9817   25.9624 O   0  0  0  0  0  0  0  0  0  0  0  0
   12.3136  -19.2143   26.5179 C   0  0  0  0  0  0  0  0  0  0  0  0
   12.2950  -16.4872   21.8500 O   0  0  0  0  0  0  0  0  0  0  0  0
   13.6889  -16.2806   21.9581 O   0  0  0  0  0  0  0  0  0  0  0  0
   10.2102  -19.9278   26.0012 O   0  0  0  0  0  0  0  0  0  0  0  0
  2  5  1  0
  2  1  1  1
  3  4  1  0
  3  2  1  0
  5  6  2  0
  8  7  1  0
  8 10  1  0
  9  8  2  0
 11 10  1  0
 11 12  1  0
 13 12  1  0
 14 13  1  6
 14 15  1  0
 15  5  1  0
 16 14  1  0
 17 16  2  0
 18 16  1  0
 19 18  1  0
 19 24  1  0
 19 20  1  1
 21 20  1  0
 22 21  1  0
 23 22  2  0
 24 25  1  0
 26 22  1  0
 27 24  2  0
M  END
$$$$
