CRE.pdb
     RDKit          3D

 27 26  0  0  1  0  0  0  0  0999 V2000
    6.2352  -14.9276   27.4253 N   0  0  0  0  0  0  0  0  0  0  0  0
    6.2022  -13.9974   26.3400 C   0  0  1  0  0  0  0  0  0  0  0  0
    6.8958  -12.6919   26.6731 C   0  0  0  0  0  0  0  0  0  0  0  0
    8.4154  -13.0009   27.6036 S   0  0  0  0  0  0  0  0  0  0  0  0
    6.8890  -14.5727   25.1635 C   0  0  0  0  0  0  0  0  0  0  0  0
    7.4005  -15.7002   25.2465 O   0  0  0  0  0  0  0  0  0  0  0  0
    7.8998  -15.8784   17.5098 N   0  0  0  0  0  0  0  0  0  0  0  0
    8.4216  -14.5512   17.4818 C   0  0  0  0  0  0  0  0  0  0  0  0
    8.0022  -13.7294   16.5820 N   0  0  0  0  0  0  0  0  0  0  0  0
    9.3819  -14.1254   18.4153 N   0  0  0  0  0  0  0  0  0  0  0  0
    8.9125  -13.5129   19.6406 C   0  0  0  0  0  0  0  0  0  0  0  0
    7.7840  -14.3206   20.2764 C   0  0  0  0  0  0  0  0  0  0  0  0
    7.3146  -13.6658   21.5276 C   0  0  0  0  0  0  0  0  0  0  0  0
    7.5966  -14.4297   22.7723 C   0  0  2  0  0  0  0  0  0  0  0  0
    6.9830  -13.8741   23.9365 N   0  0  0  0  0  0  0  0  0  0  0  0
    9.0713  -14.5995   23.0095 C   0  0  0  0  0  0  0  0  0  0  0  0
    9.7875  -13.6824   23.4829 O   0  0  0  0  0  0  0  0  0  0  0  0
    8.3948  -12.7788   16.5005 N   0  0  0  0  0  0  0  0  0  0  0  0
    9.7294  -15.8166   22.7063 C   0  0  2  0  0  0  0  0  0  0  0  0
   11.0137  -16.1945   23.3037 C   0  0  0  0  0  0  0  0  0  0  0  0
   10.8303  -17.1980   24.3882 C   0  0  0  0  0  0  0  0  0  0  0  0
   12.0901  -17.6794   25.0451 C   0  0  0  0  0  0  0  0  0  0  0  0
   11.7613  -18.6156   26.1854 O   0  0  0  0  0  0  0  0  0  0  0  0
   10.5733  -18.8137   26.5132 C   0  0  0  0  0  0  0  0  0  0  0  0
   11.9392  -16.6590   22.2579 O   0  0  0  0  0  0  0  0  0  0  0  0
   13.2974  -16.2807   22.3561 O   0  0  0  0  0  0  0  0  0  0  0  0
   12.7824  -19.2550   26.8677 O   0  0  0  0  0  0  0  0  0  0  0  0
  2  5  1  0
  2  1  1  1
  3  4  1  0
  3  2  1  0
  5  6  2  0
  8  7  1  0
  8 10  1  0
  9  8  2  0
 11 10  1  0
 11 12  1  0
 13 12  1  0
 14 13  1  6
 14 15  1  0
 15  5  1  0
 16 14  1  0
 17 16  2  0
 18 16  1  0
 19 18  1  0
 19 24  1  0
 19 20  1  1
 21 20  1  0
 22 21  1  0
 23 22  2  0
 24 25  1  0
 26 22  1  0
 27 24  2  0
M  END
$$$$
