CRE.pdb
     RDKit          3D

 27 26  0  0  1  0  0  0  0  0999 V2000
    7.3502  -16.6625   27.3977 N   0  0  0  0  0  0  0  0  0  0  0  0
    7.1826  -15.5123   26.5652 C   0  0  1  0  0  0  0  0  0  0  0  0
    7.9346  -14.3041   27.0860 C   0  0  0  0  0  0  0  0  0  0  0  0
    8.6706  -14.6623   28.6985 S   0  0  0  0  0  0  0  0  0  0  0  0
    7.6929  -15.7960   25.2066 C   0  0  0  0  0  0  0  0  0  0  0  0
    8.1065  -16.9340   24.9355 O   0  0  0  0  0  0  0  0  0  0  0  0
    8.8862  -13.9442   16.1287 N   0  0  0  0  0  0  0  0  0  0  0  0
    8.8152  -13.6676   17.5263 C   0  0  0  0  0  0  0  0  0  0  0  0
    9.9070  -13.5616   18.2027 N   0  0  0  0  0  0  0  0  0  0  0  0
    7.5794  -13.5092   18.1764 N   0  0  0  0  0  0  0  0  0  0  0  0
    7.5914  -13.1342   19.5749 C   0  0  0  0  0  0  0  0  0  0  0  0
    8.0189  -14.2980   20.4654 C   0  0  0  0  0  0  0  0  0  0  0  0
    7.6792  -14.0192   21.8872 C   0  0  0  0  0  0  0  0  0  0  0  0
    8.0770  -15.0880   22.8422 C   0  0  2  0  0  0  0  0  0  0  0  0
    7.7255  -14.8045   24.1975 N   0  0  0  0  0  0  0  0  0  0  0  0
    9.5436  -15.4062   22.7556 C   0  0  0  0  0  0  0  0  0  0  0  0
   10.4122  -14.7582   23.3910 O   0  0  0  0  0  0  0  0  0  0  0  0
    9.8920  -13.3917   19.2202 N   0  0  0  0  0  0  0  0  0  0  0  0
   10.0195  -16.4645   21.9433 C   0  0  1  0  0  0  0  0  0  0  0  0
   11.4423  -16.7984   21.8283 C   0  0  0  0  0  0  0  0  0  0  0  0
   12.2314  -15.6363   21.3347 C   0  0  0  0  0  0  0  0  0  0  0  0
   13.2203  -15.9394   20.2482 C   0  0  0  0  0  0  0  0  0  0  0  0
   14.0036  -14.6967   19.8913 O   0  0  0  0  0  0  0  0  0  0  0  0
   14.9144  -14.2908   20.6422 C   0  0  0  0  0  0  0  0  0  0  0  0
   11.9445  -17.3151   23.1117 O   0  0  0  0  0  0  0  0  0  0  0  0
   12.4258  -18.6433   23.1511 O   0  0  0  0  0  0  0  0  0  0  0  0
   13.7086  -14.0074   18.7274 O   0  0  0  0  0  0  0  0  0  0  0  0
  2  5  1  0
  2  1  1  1
  3  4  1  0
  3  2  1  0
  5  6  2  0
  8  7  1  0
  8 10  1  0
  9  8  2  0
 11 10  1  0
 11 12  1  0
 13 12  1  0
 14 13  1  6
 14 15  1  0
 15  5  1  0
 16 14  1  0
 17 16  2  0
 18 16  1  0
 19 18  1  0
 19 24  1  0
 19 20  1  6
 21 20  1  0
 22 21  1  0
 23 22  2  0
 24 25  1  0
 26 22  1  0
 27 24  2  0
M  END
$$$$
