CRE.pdb
     RDKit          3D

 27 26  0  0  1  0  0  0  0  0999 V2000
    4.9593  -13.0063   26.8371 N   0  0  0  0  0  0  0  0  0  0  0  0
    6.1750  -12.8046   26.1122 C   0  0  1  0  0  0  0  0  0  0  0  0
    7.2824  -12.2429   26.9808 C   0  0  0  0  0  0  0  0  0  0  0  0
    8.7879  -11.9988   26.0092 S   0  0  0  0  0  0  0  0  0  0  0  0
    6.6546  -14.0924   25.5661 C   0  0  0  0  0  0  0  0  0  0  0  0
    6.7471  -15.0766   26.3162 O   0  0  0  0  0  0  0  0  0  0  0  0
   10.0236  -13.7899   19.2711 N   0  0  0  0  0  0  0  0  0  0  0  0
    8.9397  -12.8849   19.0690 C   0  0  0  0  0  0  0  0  0  0  0  0
    9.1929  -11.6594   18.7609 N   0  0  0  0  0  0  0  0  0  0  0  0
    7.6050  -13.3049   19.1995 N   0  0  0  0  0  0  0  0  0  0  0  0
    7.3441  -14.5117   19.9559 C   0  0  0  0  0  0  0  0  0  0  0  0
    7.6676  -14.3283   21.4363 C   0  0  0  0  0  0  0  0  0  0  0  0
    7.3712  -15.5747   22.1935 C   0  0  0  0  0  0  0  0  0  0  0  0
    7.5308  -15.4590   23.6678 C   0  0  2  0  0  0  0  0  0  0  0  0
    7.0145  -14.2405   24.2057 N   0  0  0  0  0  0  0  0  0  0  0  0
    8.9605  -15.6363   24.0973 C   0  0  0  0  0  0  0  0  0  0  0  0
    9.6701  -14.6766   24.4892 O   0  0  0  0  0  0  0  0  0  0  0  0
    8.4353  -10.9679   18.6496 N   0  0  0  0  0  0  0  0  0  0  0  0
    9.5810  -16.9095   24.0794 C   0  0  1  0  0  0  0  0  0  0  0  0
   10.8249  -17.1961   24.8003 C   0  0  0  0  0  0  0  0  0  0  0  0
   10.5487  -17.7493   26.1547 C   0  0  0  0  0  0  0  0  0  0  0  0
   11.7577  -18.1199   26.9619 C   0  0  0  0  0  0  0  0  0  0  0  0
   11.3414  -18.6544   28.3133 O   0  0  0  0  0  0  0  0  0  0  0  0
   10.1340  -18.6984   28.6268 C   0  0  0  0  0  0  0  0  0  0  0  0
   11.6821  -18.0810   23.9951 O   0  0  0  0  0  0  0  0  0  0  0  0
   13.0813  -17.9944   24.1742 O   0  0  0  0  0  0  0  0  0  0  0  0
   12.3038  -19.0962   29.2052 O   0  0  0  0  0  0  0  0  0  0  0  0
  2  5  1  0
  2  1  1  1
  3  4  1  0
  3  2  1  0
  5  6  2  0
  8  7  1  0
  8 10  1  0
  9  8  2  0
 11 10  1  0
 11 12  1  0
 13 12  1  0
 14 13  1  6
 14 15  1  0
 15  5  1  0
 16 14  1  0
 17 16  2  0
 18 16  1  0
 19 18  1  0
 19 24  1  0
 19 20  1  6
 21 20  1  0
 22 21  1  0
 23 22  2  0
 24 25  1  0
 26 22  1  0
 27 24  2  0
M  END
$$$$
