CRE.pdb
     RDKit          3D

 27 26  0  0  1  0  0  0  0  0999 V2000
    7.0427  -14.2844   18.7558 N   0  0  0  0  0  0  0  0  0  0  0  0
    8.2984  -13.6104   18.6408 C   0  0  1  0  0  0  0  0  0  0  0  0
    8.4781  -12.5344   19.6926 C   0  0  0  0  0  0  0  0  0  0  0  0
    7.2708  -11.2090   19.4562 S   0  0  0  0  0  0  0  0  0  0  0  0
    9.4052  -14.5769   18.8067 C   0  0  0  0  0  0  0  0  0  0  0  0
    9.2111  -15.6229   19.4454 O   0  0  0  0  0  0  0  0  0  0  0  0
   14.2973  -14.8656   13.6229 N   0  0  0  0  0  0  0  0  0  0  0  0
   13.8080  -16.2009   13.7337 C   0  0  0  0  0  0  0  0  0  0  0  0
   13.2760  -16.7633   12.7034 N   0  0  0  0  0  0  0  0  0  0  0  0
   13.8958  -16.9117   14.9429 N   0  0  0  0  0  0  0  0  0  0  0  0
   14.6161  -16.2991   16.0395 C   0  0  0  0  0  0  0  0  0  0  0  0
   13.7882  -16.2920   17.3219 C   0  0  0  0  0  0  0  0  0  0  0  0
   12.6858  -15.2969   17.2258 C   0  0  0  0  0  0  0  0  0  0  0  0
   11.7701  -15.2688   18.3976 C   0  0  2  0  0  0  0  0  0  0  0  0
   10.6885  -14.3463   18.2568 N   0  0  0  0  0  0  0  0  0  0  0  0
   12.5032  -14.9973   19.6816 C   0  0  0  0  0  0  0  0  0  0  0  0
   12.9122  -13.8515   19.9944 O   0  0  0  0  0  0  0  0  0  0  0  0
   12.9265  -17.7332   12.7437 N   0  0  0  0  0  0  0  0  0  0  0  0
   12.7699  -16.0340   20.6092 C   0  0  2  0  0  0  0  0  0  0  0  0
   13.4069  -15.7926   21.9073 C   0  0  0  0  0  0  0  0  0  0  0  0
   12.8945  -16.7314   22.9431 C   0  0  0  0  0  0  0  0  0  0  0  0
   13.5156  -16.5983   24.3021 C   0  0  0  0  0  0  0  0  0  0  0  0
   12.9118  -17.6050   25.2546 O   0  0  0  0  0  0  0  0  0  0  0  0
   12.8885  -18.8168   24.9564 C   0  0  0  0  0  0  0  0  0  0  0  0
   14.8711  -15.8517   21.7694 O   0  0  0  0  0  0  0  0  0  0  0  0
   15.6578  -15.2026   22.7477 O   0  0  0  0  0  0  0  0  0  0  0  0
   12.3833  -17.1799   26.4616 O   0  0  0  0  0  0  0  0  0  0  0  0
  2  5  1  0
  2  1  1  1
  3  4  1  0
  3  2  1  0
  5  6  2  0
  8  7  1  0
  8 10  1  0
  9  8  2  0
 11 10  1  0
 11 12  1  0
 13 12  1  0
 14 13  1  6
 14 15  1  0
 15  5  1  0
 16 14  1  0
 17 16  2  0
 18 16  1  0
 19 18  1  0
 19 24  1  0
 19 20  1  6
 21 20  1  0
 22 21  1  0
 23 22  2  0
 24 25  1  0
 26 22  1  0
 27 24  2  0
M  END
$$$$
