CRE.pdb
     RDKit          3D

 27 26  0  0  1  0  0  0  0  0999 V2000
    9.1682  -14.6352   18.9660 N   0  0  0  0  0  0  0  0  0  0  0  0
    9.1126  -13.7342   20.0747 C   0  0  1  0  0  0  0  0  0  0  0  0
    8.2094  -12.5460   19.8124 C   0  0  0  0  0  0  0  0  0  0  0  0
    6.5305  -13.0984   19.4295 S   0  0  0  0  0  0  0  0  0  0  0  0
    8.5842  -14.4339   21.2655 C   0  0  0  0  0  0  0  0  0  0  0  0
    8.5317  -13.8357   22.3514 O   0  0  0  0  0  0  0  0  0  0  0  0
    7.8085  -21.7788   23.5735 N   0  0  0  0  0  0  0  0  0  0  0  0
    6.5522  -21.6824   24.2422 C   0  0  0  0  0  0  0  0  0  0  0  0
    6.2998  -22.4778   25.2242 N   0  0  0  0  0  0  0  0  0  0  0  0
    5.5880  -20.7382   23.8501 N   0  0  0  0  0  0  0  0  0  0  0  0
    5.9000  -19.8742   22.7308 C   0  0  0  0  0  0  0  0  0  0  0  0
    6.6681  -18.6325   23.1760 C   0  0  0  0  0  0  0  0  0  0  0  0
    6.9321  -17.7384   22.0159 C   0  0  0  0  0  0  0  0  0  0  0  0
    7.6539  -16.4818   22.3514 C   0  0  2  0  0  0  0  0  0  0  0  0
    8.1327  -15.7737   21.2069 N   0  0  0  0  0  0  0  0  0  0  0  0
    8.7869  -16.7196   23.3103 C   0  0  0  0  0  0  0  0  0  0  0  0
    9.9197  -17.1088   22.9314 O   0  0  0  0  0  0  0  0  0  0  0  0
    5.3620  -22.5189   25.6524 N   0  0  0  0  0  0  0  0  0  0  0  0
    8.6275  -16.5130   24.7025 C   0  0  2  0  0  0  0  0  0  0  0  0
    9.7095  -16.7346   25.6665 C   0  0  0  0  0  0  0  0  0  0  0  0
   10.0405  -15.4839   26.4035 C   0  0  0  0  0  0  0  0  0  0  0  0
    8.8803  -14.7868   27.0502 C   0  0  0  0  0  0  0  0  0  0  0  0
    9.3602  -13.5825   27.8277 O   0  0  0  0  0  0  0  0  0  0  0  0
   10.5825  -13.3725   27.9695 C   0  0  0  0  0  0  0  0  0  0  0  0
    9.3616  -17.8441   26.5689 O   0  0  0  0  0  0  0  0  0  0  0  0
   10.3688  -18.3470   27.4232 O   0  0  0  0  0  0  0  0  0  0  0  0
    8.4398  -12.7104   28.3838 O   0  0  0  0  0  0  0  0  0  0  0  0
  2  5  1  0
  2  1  1  6
  3  4  1  0
  3  2  1  0
  5  6  2  0
  8  7  1  0
  8 10  1  0
  9  8  2  0
 11 10  1  0
 11 12  1  0
 13 12  1  0
 14 13  1  6
 14 15  1  0
 15  5  1  0
 16 14  1  0
 17 16  2  0
 18 16  1  0
 19 18  1  0
 19 24  1  0
 19 20  1  1
 21 20  1  0
 22 21  1  0
 23 22  2  0
 24 25  1  0
 26 22  1  0
 27 24  2  0
M  END
$$$$
