CQQ.pdb
     RDKit          3D

 25 24  0  0  1  0  0  0  0  0999 V2000
   27.1524  -11.2523  -18.3105 N   0  0  0  0  0  0  0  0  0  0  0  0
   26.0670  -10.6901  -17.5621 C   0  0  1  0  0  0  0  0  0  0  0  0
   26.4614   -9.3209  -17.0602 C   0  0  0  0  0  0  0  0  0  0  0  0
   27.7098   -9.5852  -15.7478 S   0  0  0  0  0  0  0  0  0  0  0  0
   24.8474  -10.6735  -18.3720 C   0  0  0  0  0  0  0  0  0  0  0  0
   24.9804  -10.5666  -19.6400 O   0  0  0  0  0  0  0  0  0  0  0  0
   19.6523  -13.8657  -17.2249 N   0  0  0  0  0  0  0  0  0  0  0  0
   19.1999  -12.9895  -18.2561 C   0  0  0  0  0  0  0  0  0  0  0  0
   18.0012  -13.1541  -18.6253 O   0  0  0  0  0  0  0  0  0  0  0  0
   20.1203  -11.9926  -18.7898 C   0  0  0  0  0  0  0  0  0  0  0  0
   21.4464  -11.8468  -18.1954 C   0  0  0  0  0  0  0  0  0  0  0  0
   22.3706  -10.7704  -18.5977 C   0  0  2  0  0  0  0  0  0  0  0  0
   23.5778  -10.7722  -17.7673 N   0  0  0  0  0  0  0  0  0  0  0  0
   21.7917   -9.4331  -18.5358 C   0  0  0  0  0  0  0  0  0  0  0  0
   20.7994   -9.0844  -19.2689 O   0  0  0  0  0  0  0  0  0  0  0  0
   22.2916   -5.8918  -13.5534 N   0  0  0  0  0  0  0  0  0  0  0  0
   21.8394   -4.8881  -14.4508 C   0  0  0  0  0  0  0  0  0  0  0  0
   21.6321   -3.7006  -14.0265 O   0  0  0  0  0  0  0  0  0  0  0  0
   21.6224   -5.2305  -15.8580 C   0  0  0  0  0  0  0  0  0  0  0  0
   21.9452   -6.6467  -16.1917 C   0  0  0  0  0  0  0  0  0  0  0  0
   21.7874   -7.0551  -17.6234 C   0  0  2  0  0  0  0  0  0  0  0  0
   22.2770   -8.4401  -17.6753 N   0  0  0  0  0  0  0  0  0  0  0  0
   22.3268   -6.2217  -18.6598 C   0  0  0  0  0  0  0  0  0  0  0  0
   21.5982   -5.2169  -19.2713 O   0  0  0  0  0  0  0  0  0  0  0  0
   23.5178   -6.3775  -19.0761 O   0  0  0  0  0  0  0  0  0  0  0  0
  2  1  1  6
  3  4  1  0
  3  2  1  0
  5  2  1  0
  5  6  2  0
  7  8  1  0
  8 10  1  0
  9  8  2  0
 10 11  1  0
 12 11  1  1
 12 13  1  0
 13  5  1  0
 14 12  1  0
 15 14  2  0
 16 17  1  0
 17 19  1  0
 18 17  2  0
 20 19  1  0
 21 20  1  1
 21 22  1  0
 21 23  1  0
 22 14  1  0
 23 24  1  0
 25 23  2  0
M  END
$$$$
