CQQ.pdb
     RDKit          3D

 25 24  0  0  1  0  0  0  0  0999 V2000
   22.8185  -15.9762  -15.2221 N   0  0  0  0  0  0  0  0  0  0  0  0
   23.1638  -15.1705  -16.3561 C   0  0  1  0  0  0  0  0  0  0  0  0
   21.9887  -15.1101  -17.3035 C   0  0  0  0  0  0  0  0  0  0  0  0
   21.8016  -16.7878  -18.0115 S   0  0  0  0  0  0  0  0  0  0  0  0
   23.6160  -13.8480  -15.9200 C   0  0  0  0  0  0  0  0  0  0  0  0
   22.9579  -13.2768  -14.9832 O   0  0  0  0  0  0  0  0  0  0  0  0
   29.1990  -11.1086  -17.4591 N   0  0  0  0  0  0  0  0  0  0  0  0
   28.4956  -10.0475  -16.8149 C   0  0  0  0  0  0  0  0  0  0  0  0
   29.1334   -8.9612  -16.6990 O   0  0  0  0  0  0  0  0  0  0  0  0
   27.1313  -10.2806  -16.3567 C   0  0  0  0  0  0  0  0  0  0  0  0
   26.5177  -11.5901  -16.5612 C   0  0  0  0  0  0  0  0  0  0  0  0
   25.1589  -11.9017  -16.0804 C   0  0  2  0  0  0  0  0  0  0  0  0
   24.7365  -13.2351  -16.5166 N   0  0  0  0  0  0  0  0  0  0  0  0
   24.1408  -10.9506  -16.5119 C   0  0  0  0  0  0  0  0  0  0  0  0
   23.6581  -10.9596  -17.6996 O   0  0  0  0  0  0  0  0  0  0  0  0
   18.8402  -10.7354  -15.3476 N   0  0  0  0  0  0  0  0  0  0  0  0
   18.8416   -9.3486  -15.6546 C   0  0  0  0  0  0  0  0  0  0  0  0
   17.7365   -8.7108  -15.7261 O   0  0  0  0  0  0  0  0  0  0  0  0
   20.1175   -8.6662  -15.8796 C   0  0  0  0  0  0  0  0  0  0  0  0
   21.3081   -9.5534  -15.7507 C   0  0  0  0  0  0  0  0  0  0  0  0
   22.6404   -8.9432  -16.0569 C   0  0  2  0  0  0  0  0  0  0  0  0
   23.6212   -9.9648  -15.6631 N   0  0  0  0  0  0  0  0  0  0  0  0
   22.9503   -7.6343  -15.5567 C   0  0  0  0  0  0  0  0  0  0  0  0
   22.2862   -6.4942  -15.9733 O   0  0  0  0  0  0  0  0  0  0  0  0
   23.8715   -7.4592  -14.6984 O   0  0  0  0  0  0  0  0  0  0  0  0
  2  1  1  1
  3  4  1  0
  3  2  1  0
  5  2  1  0
  5  6  2  0
  7  8  1  0
  8 10  1  0
  9  8  2  0
 10 11  1  0
 12 11  1  6
 12 13  1  0
 13  5  1  0
 14 12  1  0
 15 14  2  0
 16 17  1  0
 17 19  1  0
 18 17  2  0
 20 19  1  0
 21 20  1  1
 21 22  1  0
 21 23  1  0
 22 14  1  0
 23 24  1  0
 25 23  2  0
M  END
$$$$
