CQQ.pdb
     RDKit          3D

 25 24  0  0  1  0  0  0  0  0999 V2000
   26.8185  -11.5606  -17.7117 N   0  0  0  0  0  0  0  0  0  0  0  0
   25.8766  -11.7955  -16.6572 C   0  0  1  0  0  0  0  0  0  0  0  0
   26.4600  -11.3156  -15.3490 C   0  0  0  0  0  0  0  0  0  0  0  0
   27.9364  -12.3482  -15.0252 S   0  0  0  0  0  0  0  0  0  0  0  0
   24.5923  -11.1687  -16.9754 C   0  0  0  0  0  0  0  0  0  0  0  0
   24.6072  -10.1457  -17.7436 O   0  0  0  0  0  0  0  0  0  0  0  0
   18.9393  -14.0444  -16.9135 N   0  0  0  0  0  0  0  0  0  0  0  0
   19.8074  -13.9612  -18.0427 C   0  0  0  0  0  0  0  0  0  0  0  0
   19.5960  -14.8091  -18.9574 O   0  0  0  0  0  0  0  0  0  0  0  0
   20.8400  -12.9321  -18.0653 C   0  0  0  0  0  0  0  0  0  0  0  0
   21.0392  -12.0871  -16.8908 C   0  0  0  0  0  0  0  0  0  0  0  0
   22.1096  -11.0748  -16.8270 C   0  0  2  0  0  0  0  0  0  0  0  0
   23.3889  -11.6812  -16.4496 N   0  0  0  0  0  0  0  0  0  0  0  0
   21.8441   -9.9838  -15.8961 C   0  0  0  0  0  0  0  0  0  0  0  0
   22.5774   -9.7719  -14.8660 O   0  0  0  0  0  0  0  0  0  0  0  0
   24.2174   -5.7022  -15.7592 N   0  0  0  0  0  0  0  0  0  0  0  0
   23.2020   -5.0750  -14.9892 C   0  0  0  0  0  0  0  0  0  0  0  0
   23.3982   -3.9086  -14.5054 O   0  0  0  0  0  0  0  0  0  0  0  0
   21.9362   -5.7766  -14.7658 C   0  0  0  0  0  0  0  0  0  0  0  0
   21.8717   -7.1233  -15.4009 C   0  0  0  0  0  0  0  0  0  0  0  0
   20.5743   -7.8615  -15.2868 C   0  0  2  0  0  0  0  0  0  0  0  0
   20.7742   -9.0949  -16.0612 N   0  0  0  0  0  0  0  0  0  0  0  0
   19.3469   -7.1865  -15.5988 C   0  0  0  0  0  0  0  0  0  0  0  0
   18.6603   -6.4130  -14.6797 O   0  0  0  0  0  0  0  0  0  0  0  0
   18.8214   -7.2770  -16.7528 O   0  0  0  0  0  0  0  0  0  0  0  0
  2  1  1  6
  3  4  1  0
  3  2  1  0
  5  2  1  0
  5  6  2  0
  7  8  1  0
  8 10  1  0
  9  8  2  0
 10 11  1  0
 12 11  1  1
 12 13  1  0
 13  5  1  0
 14 12  1  0
 15 14  2  0
 16 17  1  0
 17 19  1  0
 18 17  2  0
 20 19  1  0
 21 20  1  6
 21 22  1  0
 21 23  1  0
 22 14  1  0
 23 24  1  0
 25 23  2  0
M  END
$$$$
