CQQ.pdb
     RDKit          3D

 25 24  0  0  1  0  0  0  0  0999 V2000
   16.3494  -12.1801  -10.9636 N   0  0  0  0  0  0  0  0  0  0  0  0
   15.6202  -10.9490  -11.0457 C   0  0  1  0  0  0  0  0  0  0  0  0
   14.2011  -11.1758  -10.5800 C   0  0  0  0  0  0  0  0  0  0  0  0
   13.4903  -12.4584  -11.6758 S   0  0  0  0  0  0  0  0  0  0  0  0
   16.3093   -9.9000  -10.2918 C   0  0  0  0  0  0  0  0  0  0  0  0
   16.6864  -10.1775   -9.1012 O   0  0  0  0  0  0  0  0  0  0  0  0
   21.3154   -6.8709  -11.4235 N   0  0  0  0  0  0  0  0  0  0  0  0
   20.2911   -6.9154  -12.4158 C   0  0  0  0  0  0  0  0  0  0  0  0
   20.6779   -6.7412  -13.6076 O   0  0  0  0  0  0  0  0  0  0  0  0
   18.9150   -7.1583  -11.9998 C   0  0  0  0  0  0  0  0  0  0  0  0
   18.6243   -7.4185  -10.5924 C   0  0  0  0  0  0  0  0  0  0  0  0
   17.2471   -7.6026  -10.0985 C   0  0  2  0  0  0  0  0  0  0  0  0
   16.5438   -8.6339  -10.8657 N   0  0  0  0  0  0  0  0  0  0  0  0
   16.4341   -6.3922  -10.1331 C   0  0  0  0  0  0  0  0  0  0  0  0
   15.7386   -6.0663  -11.1597 O   0  0  0  0  0  0  0  0  0  0  0  0
   12.8714   -3.2059   -5.2626 N   0  0  0  0  0  0  0  0  0  0  0  0
   12.6392   -3.6926   -6.5766 C   0  0  0  0  0  0  0  0  0  0  0  0
   11.5919   -4.3815   -6.8250 O   0  0  0  0  0  0  0  0  0  0  0  0
   13.6064   -3.3903   -7.6337 C   0  0  0  0  0  0  0  0  0  0  0  0
   14.5591   -4.5010   -7.9164 C   0  0  0  0  0  0  0  0  0  0  0  0
   15.5436   -4.2801   -9.0225 C   0  0  2  0  0  0  0  0  0  0  0  0
   16.3563   -5.5045   -9.0524 N   0  0  0  0  0  0  0  0  0  0  0  0
   16.3261   -3.0772   -9.0427 C   0  0  0  0  0  0  0  0  0  0  0  0
   15.8142   -1.8546   -9.4396 O   0  0  0  0  0  0  0  0  0  0  0  0
   17.5498   -3.0826   -8.6982 O   0  0  0  0  0  0  0  0  0  0  0  0
  2  1  1  1
  3  4  1  0
  3  2  1  0
  5  2  1  0
  5  6  2  0
  7  8  1  0
  8 10  1  0
  9  8  2  0
 10 11  1  0
 12 11  1  6
 12 13  1  0
 13  5  1  0
 14 12  1  0
 15 14  2  0
 16 17  1  0
 17 19  1  0
 18 17  2  0
 20 19  1  0
 21 20  1  1
 21 22  1  0
 21 23  1  0
 22 14  1  0
 23 24  1  0
 25 23  2  0
M  END
$$$$
