CQQ.pdb
     RDKit          3D

 25 24  0  0  1  0  0  0  0  0999 V2000
   16.6021  -12.7845  -13.2218 N   0  0  0  0  0  0  0  0  0  0  0  0
   16.0251  -11.5005  -13.4915 C   0  0  1  0  0  0  0  0  0  0  0  0
   14.5436  -11.5463  -13.1996 C   0  0  0  0  0  0  0  0  0  0  0  0
   13.8904  -13.0331  -14.0442 S   0  0  0  0  0  0  0  0  0  0  0  0
   16.7257  -10.4607  -12.7354 C   0  0  0  0  0  0  0  0  0  0  0  0
   16.7155  -10.5488  -11.4590 O   0  0  0  0  0  0  0  0  0  0  0  0
   22.0215   -6.5925  -13.8660 N   0  0  0  0  0  0  0  0  0  0  0  0
   21.4815   -7.7991  -14.4028 C   0  0  0  0  0  0  0  0  0  0  0  0
   21.9976   -8.1923  -15.4888 O   0  0  0  0  0  0  0  0  0  0  0  0
   20.4114   -8.4764  -13.6805 C   0  0  0  0  0  0  0  0  0  0  0  0
   19.1681   -7.7628  -13.4013 C   0  0  0  0  0  0  0  0  0  0  0  0
   18.0738   -8.3716  -12.6225 C   0  0  2  0  0  0  0  0  0  0  0  0
   17.3842   -9.4054  -13.3986 N   0  0  0  0  0  0  0  0  0  0  0  0
   17.0696   -7.4202  -12.1602 C   0  0  0  0  0  0  0  0  0  0  0  0
   16.1389   -6.9839  -12.9265 O   0  0  0  0  0  0  0  0  0  0  0  0
   13.9839   -7.9093   -7.2220 N   0  0  0  0  0  0  0  0  0  0  0  0
   13.7880   -6.5069   -7.3336 C   0  0  0  0  0  0  0  0  0  0  0  0
   13.0529   -5.8968   -6.4849 O   0  0  0  0  0  0  0  0  0  0  0  0
   14.4405   -5.7771   -8.4227 C   0  0  0  0  0  0  0  0  0  0  0  0
   15.3825   -6.6065   -9.2264 C   0  0  0  0  0  0  0  0  0  0  0  0
   16.1008   -5.9185  -10.3453 C   0  0  2  0  0  0  0  0  0  0  0  0
   17.0515   -6.9183  -10.8526 N   0  0  0  0  0  0  0  0  0  0  0  0
   16.6951   -4.6320  -10.1187 C   0  0  0  0  0  0  0  0  0  0  0  0
   18.0633   -4.4266  -10.1150 O   0  0  0  0  0  0  0  0  0  0  0  0
   15.9779   -3.6056   -9.8990 O   0  0  0  0  0  0  0  0  0  0  0  0
  2  1  1  1
  3  4  1  0
  3  2  1  0
  5  2  1  0
  5  6  2  0
  7  8  1  0
  8 10  1  0
  9  8  2  0
 10 11  1  0
 12 11  1  6
 12 13  1  0
 13  5  1  0
 14 12  1  0
 15 14  2  0
 16 17  1  0
 17 19  1  0
 18 17  2  0
 20 19  1  0
 21 20  1  1
 21 22  1  0
 21 23  1  0
 22 14  1  0
 23 24  1  0
 25 23  2  0
M  END
$$$$
