CQQ.pdb
     RDKit          3D

 25 24  0  0  1  0  0  0  0  0999 V2000
   25.5474  -22.2857   -9.7637 N   0  0  0  0  0  0  0  0  0  0  0  0
   24.7377  -21.3726  -10.5153 C   0  0  1  0  0  0  0  0  0  0  0  0
   24.6885  -20.0425   -9.8007 C   0  0  0  0  0  0  0  0  0  0  0  0
   23.0963  -19.9926   -8.8988 S   0  0  0  0  0  0  0  0  0  0  0  0
   25.2340  -21.2666  -11.8886 C   0  0  0  0  0  0  0  0  0  0  0  0
   26.5017  -21.2361  -12.0590 O   0  0  0  0  0  0  0  0  0  0  0  0
   26.2580  -23.3801  -16.9543 N   0  0  0  0  0  0  0  0  0  0  0  0
   25.8360  -24.1916  -15.8593 C   0  0  0  0  0  0  0  0  0  0  0  0
   26.4154  -25.3113  -15.7547 O   0  0  0  0  0  0  0  0  0  0  0  0
   24.8044  -23.6857  -14.9618 C   0  0  0  0  0  0  0  0  0  0  0  0
   24.3132  -22.3203  -15.1276 C   0  0  0  0  0  0  0  0  0  0  0  0
   24.8563  -21.1928  -14.3476 C   0  0  2  0  0  0  0  0  0  0  0  0
   24.3398  -21.2012  -12.9765 N   0  0  0  0  0  0  0  0  0  0  0  0
   24.5745  -19.8811  -14.9197 C   0  0  0  0  0  0  0  0  0  0  0  0
   23.4968  -19.2386  -14.6558 O   0  0  0  0  0  0  0  0  0  0  0  0
   29.0181  -16.7170  -17.9093 N   0  0  0  0  0  0  0  0  0  0  0  0
   27.9097  -15.9003  -18.2584 C   0  0  0  0  0  0  0  0  0  0  0  0
   28.0818  -14.8784  -19.0061 O   0  0  0  0  0  0  0  0  0  0  0  0
   26.5781  -16.2479  -17.7580 C   0  0  0  0  0  0  0  0  0  0  0  0
   26.5452  -17.4969  -16.9455 C   0  0  0  0  0  0  0  0  0  0  0  0
   25.2069  -17.9372  -16.4393 C   0  0  2  0  0  0  0  0  0  0  0  0
   25.4572  -19.2339  -15.7938 N   0  0  0  0  0  0  0  0  0  0  0  0
   24.0837  -17.9537  -17.3324 C   0  0  0  0  0  0  0  0  0  0  0  0
   23.0765  -17.0060  -17.2904 O   0  0  0  0  0  0  0  0  0  0  0  0
   23.9571  -18.8614  -18.2135 O   0  0  0  0  0  0  0  0  0  0  0  0
  2  1  1  1
  3  4  1  0
  3  2  1  0
  5  2  1  0
  5  6  2  0
  7  8  1  0
  8 10  1  0
  9  8  2  0
 10 11  1  0
 12 11  1  6
 12 13  1  0
 13  5  1  0
 14 12  1  0
 15 14  2  0
 16 17  1  0
 17 19  1  0
 18 17  2  0
 20 19  1  0
 21 20  1  6
 21 22  1  0
 21 23  1  0
 22 14  1  0
 23 24  1  0
 25 23  2  0
M  END
$$$$
