CQQ.pdb
     RDKit          3D

 25 24  0  0  1  0  0  0  0  0999 V2000
   15.8750  -12.5290  -14.9467 N   0  0  0  0  0  0  0  0  0  0  0  0
   16.8255  -11.8374  -14.1267 C   0  0  1  0  0  0  0  0  0  0  0  0
   18.0213  -11.4501  -14.9646 C   0  0  0  0  0  0  0  0  0  0  0  0
   18.9687  -12.9873  -15.2652 S   0  0  0  0  0  0  0  0  0  0  0  0
   16.1913  -10.6925  -13.4706 C   0  0  0  0  0  0  0  0  0  0  0  0
   15.4854   -9.9106  -14.1968 O   0  0  0  0  0  0  0  0  0  0  0  0
   12.1432  -10.5925   -9.3354 N   0  0  0  0  0  0  0  0  0  0  0  0
   12.5952   -9.2548   -9.1304 C   0  0  0  0  0  0  0  0  0  0  0  0
   11.9078   -8.5639   -8.3239 O   0  0  0  0  0  0  0  0  0  0  0  0
   13.7846   -8.7952   -9.8374 C   0  0  0  0  0  0  0  0  0  0  0  0
   14.5473   -9.7384  -10.6508 C   0  0  0  0  0  0  0  0  0  0  0  0
   15.7122   -9.3183  -11.4515 C   0  0  2  0  0  0  0  0  0  0  0  0
   16.3583  -10.4685  -12.0888 N   0  0  0  0  0  0  0  0  0  0  0  0
   16.7308   -8.6018  -10.6922 C   0  0  0  0  0  0  0  0  0  0  0  0
   17.7287   -9.2009  -10.1547 O   0  0  0  0  0  0  0  0  0  0  0  0
   20.7345   -6.8003  -13.1025 N   0  0  0  0  0  0  0  0  0  0  0  0
   21.1102   -6.0243  -11.9738 C   0  0  0  0  0  0  0  0  0  0  0  0
   22.2661   -5.4812  -11.9302 O   0  0  0  0  0  0  0  0  0  0  0  0
   20.1589   -5.8527  -10.8738 C   0  0  0  0  0  0  0  0  0  0  0  0
   18.9146   -6.6599  -11.0200 C   0  0  0  0  0  0  0  0  0  0  0  0
   17.8189   -6.3947  -10.0347 C   0  0  2  0  0  0  0  0  0  0  0  0
   16.6905   -7.2152  -10.4975 N   0  0  0  0  0  0  0  0  0  0  0  0
   17.4517   -5.0405   -9.7332 C   0  0  0  0  0  0  0  0  0  0  0  0
   18.1382   -4.2619   -8.8184 O   0  0  0  0  0  0  0  0  0  0  0  0
   16.4557   -4.4878  -10.2976 O   0  0  0  0  0  0  0  0  0  0  0  0
  2  1  1  6
  3  4  1  0
  3  2  1  0
  5  2  1  0
  5  6  2  0
  7  8  1  0
  8 10  1  0
  9  8  2  0
 10 11  1  0
 12 11  1  1
 12 13  1  0
 13  5  1  0
 14 12  1  0
 15 14  2  0
 16 17  1  0
 17 19  1  0
 18 17  2  0
 20 19  1  0
 21 20  1  6
 21 22  1  0
 21 23  1  0
 22 14  1  0
 23 24  1  0
 25 23  2  0
M  END
$$$$
