CQQ.pdb
     RDKit          3D

 25 24  0  0  1  0  0  0  0  0999 V2000
   28.6920  -20.4593  -18.4469 N   0  0  0  0  0  0  0  0  0  0  0  0
   28.2966  -19.5375  -17.4232 C   0  0  1  0  0  0  0  0  0  0  0  0
   27.3626  -18.5063  -18.0118 C   0  0  0  0  0  0  0  0  0  0  0  0
   28.4182  -17.1888  -18.7196 S   0  0  0  0  0  0  0  0  0  0  0  0
   27.7130  -20.2576  -16.2899 C   0  0  0  0  0  0  0  0  0  0  0  0
   26.9720  -21.2679  -16.5490 O   0  0  0  0  0  0  0  0  0  0  0  0
   30.2358  -20.8394  -10.5944 N   0  0  0  0  0  0  0  0  0  0  0  0
   28.9305  -21.3716  -10.3742 C   0  0  0  0  0  0  0  0  0  0  0  0
   28.7277  -21.8626   -9.2261 O   0  0  0  0  0  0  0  0  0  0  0  0
   27.9507  -21.3074  -11.4520 C   0  0  0  0  0  0  0  0  0  0  0  0
   28.3327  -20.7299  -12.7380 C   0  0  0  0  0  0  0  0  0  0  0  0
   27.3710  -20.5806  -13.8458 C   0  0  2  0  0  0  0  0  0  0  0  0
   27.9644  -19.8452  -14.9655 N   0  0  0  0  0  0  0  0  0  0  0  0
   26.1344  -19.9019  -13.4749 C   0  0  0  0  0  0  0  0  0  0  0  0
   26.0048  -18.6288  -13.5530 O   0  0  0  0  0  0  0  0  0  0  0  0
   22.8556  -19.2119  -17.1244 N   0  0  0  0  0  0  0  0  0  0  0  0
   21.8444  -18.8465  -16.1963 C   0  0  0  0  0  0  0  0  0  0  0  0
   20.7325  -18.3781  -16.6172 O   0  0  0  0  0  0  0  0  0  0  0  0
   22.0914  -19.0190  -14.7632 C   0  0  0  0  0  0  0  0  0  0  0  0
   23.4124  -19.6326  -14.4476 C   0  0  0  0  0  0  0  0  0  0  0  0
   23.6317  -20.0710  -13.0329 C   0  0  2  0  0  0  0  0  0  0  0  0
   25.0067  -20.5900  -13.0092 N   0  0  0  0  0  0  0  0  0  0  0  0
   22.6819  -20.9474  -12.4091 C   0  0  0  0  0  0  0  0  0  0  0  0
   21.4610  -20.5107  -11.9263 O   0  0  0  0  0  0  0  0  0  0  0  0
   22.9275  -22.1860  -12.2619 O   0  0  0  0  0  0  0  0  0  0  0  0
  2  1  1  6
  3  4  1  0
  3  2  1  0
  5  2  1  0
  5  6  2  0
  7  8  1  0
  8 10  1  0
  9  8  2  0
 10 11  1  0
 12 11  1  1
 12 13  1  0
 13  5  1  0
 14 12  1  0
 15 14  2  0
 16 17  1  0
 17 19  1  0
 18 17  2  0
 20 19  1  0
 21 20  1  6
 21 22  1  0
 21 23  1  0
 22 14  1  0
 23 24  1  0
 25 23  2  0
M  END
$$$$
