CQQ.pdb
     RDKit          3D

 25 24  0  0  1  0  0  0  0  0999 V2000
   20.7745  -20.6572  -13.5604 N   0  0  0  0  0  0  0  0  0  0  0  0
   20.3334  -19.5547  -14.3629 C   0  0  1  0  0  0  0  0  0  0  0  0
   18.9675  -19.1101  -13.8950 C   0  0  0  0  0  0  0  0  0  0  0  0
   17.8098  -20.4704  -14.2952 S   0  0  0  0  0  0  0  0  0  0  0  0
   21.3259  -18.4786  -14.3361 C   0  0  0  0  0  0  0  0  0  0  0  0
   21.8480  -18.1832  -13.2060 O   0  0  0  0  0  0  0  0  0  0  0  0
   26.5780  -18.0732  -16.6715 N   0  0  0  0  0  0  0  0  0  0  0  0
   26.3870  -16.6673  -16.5209 C   0  0  0  0  0  0  0  0  0  0  0  0
   27.4028  -15.9504  -16.7544 O   0  0  0  0  0  0  0  0  0  0  0  0
   25.0734  -16.1713  -16.1281 C   0  0  0  0  0  0  0  0  0  0  0  0
   23.9598  -17.1074  -16.0001 C   0  0  0  0  0  0  0  0  0  0  0  0
   22.6498  -16.6968  -15.4617 C   0  0  2  0  0  0  0  0  0  0  0  0
   21.6862  -17.7992  -15.5175 N   0  0  0  0  0  0  0  0  0  0  0  0
   22.0558  -15.5534  -16.1453 C   0  0  0  0  0  0  0  0  0  0  0  0
   21.0626  -15.6778  -16.9465 O   0  0  0  0  0  0  0  0  0  0  0  0
   17.8412  -13.5008  -14.9633 N   0  0  0  0  0  0  0  0  0  0  0  0
   18.1676  -12.2391  -15.5279 C   0  0  0  0  0  0  0  0  0  0  0  0
   17.2861  -11.3151  -15.5755 O   0  0  0  0  0  0  0  0  0  0  0  0
   19.5193  -12.0135  -16.0442 C   0  0  0  0  0  0  0  0  0  0  0  0
   20.4365  -13.1742  -15.8630 C   0  0  0  0  0  0  0  0  0  0  0  0
   21.8219  -13.0312  -16.4122 C   0  0  2  0  0  0  0  0  0  0  0  0
   22.5265  -14.2451  -15.9755 N   0  0  0  0  0  0  0  0  0  0  0  0
   22.5595  -11.8252  -16.1650 C   0  0  0  0  0  0  0  0  0  0  0  0
   22.1186  -10.5783  -16.5711 O   0  0  0  0  0  0  0  0  0  0  0  0
   23.6759  -11.8498  -15.5574 O   0  0  0  0  0  0  0  0  0  0  0  0
  2  1  1  1
  3  4  1  0
  3  2  1  0
  5  2  1  0
  5  6  2  0
  7  8  1  0
  8 10  1  0
  9  8  2  0
 10 11  1  0
 12 11  1  6
 12 13  1  0
 13  5  1  0
 14 12  1  0
 15 14  2  0
 16 17  1  0
 17 19  1  0
 18 17  2  0
 20 19  1  0
 21 20  1  1
 21 22  1  0
 21 23  1  0
 22 14  1  0
 23 24  1  0
 25 23  2  0
M  END
$$$$
