EKY.pdb
     RDKit          3D

 31 31  0  0  1  0  0  0  0  0999 V2000
    9.1688  -17.0521   17.2465 N   0  0  0  0  0  0  0  0  0  0  0  0
    9.5207  -17.7422   18.4501 C   0  0  1  0  0  0  0  0  0  0  0  0
   11.0219  -17.7505   18.6385 C   0  0  0  0  0  0  0  0  0  0  0  0
   11.6444  -18.2977   17.3777 C   0  0  0  0  0  0  0  0  0  0  0  0
   13.1167  -18.3004   17.5251 C   0  0  0  0  0  0  0  0  0  0  0  0
   13.6261  -18.0030   18.6172 O   0  0  0  0  0  0  0  0  0  0  0  0
    8.8338  -17.1153   19.6202 C   0  0  0  0  0  0  0  0  0  0  0  0
    8.8408  -15.8710   19.7728 O   0  0  0  0  0  0  0  0  0  0  0  0
   13.9504  -18.6271   16.4739 O   0  0  0  0  0  0  0  0  0  0  0  0
    8.1524  -17.8809   20.5982 N   0  0  0  0  0  0  0  0  0  0  0  0
    7.4709  -17.3605   21.7465 C   0  0  1  0  0  0  0  0  0  0  0  0
    6.3321  -18.2920   22.0841 C   0  0  0  0  0  0  0  0  0  0  0  0
    5.2440  -18.2881   21.0708 C   0  0  0  0  0  0  0  0  0  0  0  0
    4.1183  -19.2344   21.3272 C   0  0  0  0  0  0  0  0  0  0  0  0
    3.1359  -19.1009   20.1720 C   0  0  0  0  0  0  0  0  0  0  0  0
    1.9723  -19.9209   20.3602 N   0  0  0  0  0  0  0  0  0  0  0  0
    8.3421  -17.1606   22.9103 C   0  0  0  0  0  0  0  0  0  0  0  0
    9.3124  -17.9166   23.1000 O   0  0  0  0  0  0  0  0  0  0  0  0
   11.1425  -14.2359   30.7268 O   0  0  0  0  0  0  0  0  0  0  0  0
   10.4423  -14.3767   29.5488 C   0  0  0  0  0  0  0  0  0  0  0  0
   10.9969  -13.8461   28.3972 C   0  0  0  0  0  0  0  0  0  0  0  0
   10.3028  -13.9797   27.1989 C   0  0  0  0  0  0  0  0  0  0  0  0
    9.0896  -14.6123   27.0918 C   0  0  0  0  0  0  0  0  0  0  0  0
    8.3386  -14.7538   25.8297 C   0  0  0  0  0  0  0  0  0  0  0  0
    8.8328  -15.9107   25.0526 C   0  0  2  0  0  0  0  0  0  0  0  0
    8.0864  -16.1147   23.8173 N   0  0  0  0  0  0  0  0  0  0  0  0
    8.7702  -17.1695   25.8023 C   0  0  0  0  0  0  0  0  0  0  0  0
    7.6852  -17.7777   25.9334 O   0  0  0  0  0  0  0  0  0  0  0  0
    8.5705  -15.1308   28.2776 C   0  0  0  0  0  0  0  0  0  0  0  0
    9.2168  -15.0257   29.4882 C   0  0  0  0  0  0  0  0  0  0  0  0
    9.8948  -17.7300   26.3888 O   0  0  0  0  0  0  0  0  0  0  0  0
  2  1  1  6
  3  2  1  0
  3  4  1  0
  5  9  1  0
  5  4  1  0
  6  5  2  0
  7  2  1  0
  7  8  2  0
 10  7  1  0
 11 10  1  0
 11 12  1  1
 13 12  1  0
 13 14  1  0
 14 15  1  0
 16 15  1  0
 17 26  1  0
 17 11  1  0
 18 17  2  0
 19 20  1  0
 20 30  2  0
 20 21  1  0
 21 22  2  0
 22 23  1  0
 23 24  1  0
 25 24  1  1
 25 26  1  0
 25 27  1  0
 27 31  1  0
 28 27  2  0
 29 23  2  0
 30 29  1  0
M  END
$$$$
