EKY.pdb
     RDKit          3D

 31 31  0  0  1  0  0  0  0  0999 V2000
    9.8567  -20.6431   18.0912 N   0  0  0  0  0  0  0  0  0  0  0  0
   10.3604  -19.8151   19.1445 C   0  0  1  0  0  0  0  0  0  0  0  0
   11.5231  -18.9802   18.6545 C   0  0  0  0  0  0  0  0  0  0  0  0
   12.7982  -19.6841   19.0486 C   0  0  0  0  0  0  0  0  0  0  0  0
   13.9555  -18.8863   18.5869 C   0  0  0  0  0  0  0  0  0  0  0  0
   14.7498  -19.3727   17.7664 O   0  0  0  0  0  0  0  0  0  0  0  0
    9.2669  -18.9521   19.6858 C   0  0  0  0  0  0  0  0  0  0  0  0
    8.8692  -17.9498   19.0463 O   0  0  0  0  0  0  0  0  0  0  0  0
   14.1818  -17.6036   19.0455 O   0  0  0  0  0  0  0  0  0  0  0  0
    8.6357  -19.2175   20.9260 N   0  0  0  0  0  0  0  0  0  0  0  0
    7.5668  -18.4573   21.5035 C   0  0  1  0  0  0  0  0  0  0  0  0
    6.5179  -19.4199   22.0049 C   0  0  0  0  0  0  0  0  0  0  0  0
    7.0365  -20.3945   23.0009 C   0  0  0  0  0  0  0  0  0  0  0  0
    6.0552  -21.4111   23.4825 C   0  0  0  0  0  0  0  0  0  0  0  0
    6.7803  -22.3158   24.4690 C   0  0  0  0  0  0  0  0  0  0  0  0
    5.9158  -23.3319   24.9998 N   0  0  0  0  0  0  0  0  0  0  0  0
    7.9974  -17.5521   22.5753 C   0  0  0  0  0  0  0  0  0  0  0  0
    8.9031  -17.8970   23.3563 O   0  0  0  0  0  0  0  0  0  0  0  0
    7.3514  -11.2415   28.6222 O   0  0  0  0  0  0  0  0  0  0  0  0
    7.2068  -11.9842   27.4710 C   0  0  0  0  0  0  0  0  0  0  0  0
    5.9591  -12.0180   26.8733 C   0  0  0  0  0  0  0  0  0  0  0  0
    5.7958  -12.7632   25.7099 C   0  0  0  0  0  0  0  0  0  0  0  0
    6.8090  -13.4732   25.1157 C   0  0  0  0  0  0  0  0  0  0  0  0
    6.6483  -14.2744   23.8872 C   0  0  0  0  0  0  0  0  0  0  0  0
    7.5353  -15.4571   23.9130 C   0  0  2  0  0  0  0  0  0  0  0  0
    7.3902  -16.2911   22.7264 N   0  0  0  0  0  0  0  0  0  0  0  0
    7.2992  -16.3214   25.0741 C   0  0  0  0  0  0  0  0  0  0  0  0
    8.2072  -16.5249   25.9098 O   0  0  0  0  0  0  0  0  0  0  0  0
    8.0475  -13.4092   25.7532 C   0  0  0  0  0  0  0  0  0  0  0  0
    8.2616  -12.6869   26.9051 C   0  0  0  0  0  0  0  0  0  0  0  0
    6.0773  -16.9401   25.2907 O   0  0  0  0  0  0  0  0  0  0  0  0
  2  1  1  6
  3  2  1  0
  3  4  1  0
  5  9  1  0
  5  4  1  0
  6  5  2  0
  7  2  1  0
  7  8  2  0
 10  7  1  0
 11 10  1  0
 11 12  1  1
 13 12  1  0
 13 14  1  0
 14 15  1  0
 16 15  1  0
 17 26  1  0
 17 11  1  0
 18 17  2  0
 19 20  1  0
 20 30  2  0
 20 21  1  0
 21 22  2  0
 22 23  1  0
 23 24  1  0
 25 24  1  6
 25 26  1  0
 25 27  1  0
 27 31  1  0
 28 27  2  0
 29 23  2  0
 30 29  1  0
M  END
$$$$
