EKY.pdb
     RDKit          3D

 31 31  0  0  1  0  0  0  0  0999 V2000
   14.2150  -16.5114   18.0051 N   0  0  0  0  0  0  0  0  0  0  0  0
   13.9139  -17.5145   18.9808 C   0  0  1  0  0  0  0  0  0  0  0  0
   15.1219  -17.7914   19.8487 C   0  0  0  0  0  0  0  0  0  0  0  0
   14.7057  -17.6250   21.2894 C   0  0  0  0  0  0  0  0  0  0  0  0
   15.8197  -18.0452   22.1679 C   0  0  0  0  0  0  0  0  0  0  0  0
   15.6590  -18.9912   22.9552 O   0  0  0  0  0  0  0  0  0  0  0  0
   12.7421  -17.0915   19.8064 C   0  0  0  0  0  0  0  0  0  0  0  0
   12.7887  -16.0417   20.4900 O   0  0  0  0  0  0  0  0  0  0  0  0
   17.0458  -17.4105   22.1385 O   0  0  0  0  0  0  0  0  0  0  0  0
   11.5411  -17.8413   19.8576 N   0  0  0  0  0  0  0  0  0  0  0  0
   10.3459  -17.4652   20.5533 C   0  0  1  0  0  0  0  0  0  0  0  0
    9.2146  -18.3304   20.0534 C   0  0  0  0  0  0  0  0  0  0  0  0
    8.7264  -17.9446   18.7030 C   0  0  0  0  0  0  0  0  0  0  0  0
    7.7278  -18.8682   18.0882 C   0  0  0  0  0  0  0  0  0  0  0  0
    7.4374  -18.3588   16.6833 C   0  0  0  0  0  0  0  0  0  0  0  0
    6.4383  -19.1501   16.0219 N   0  0  0  0  0  0  0  0  0  0  0  0
   10.4605  -17.5509   22.0138 C   0  0  0  0  0  0  0  0  0  0  0  0
   11.5367  -17.8952   22.5355 O   0  0  0  0  0  0  0  0  0  0  0  0
   10.7664  -14.8529   30.1146 O   0  0  0  0  0  0  0  0  0  0  0  0
   10.6494  -15.0562   28.7571 C   0  0  0  0  0  0  0  0  0  0  0  0
   10.8761  -16.3318   28.2704 C   0  0  0  0  0  0  0  0  0  0  0  0
   10.7620  -16.5545   26.9018 C   0  0  0  0  0  0  0  0  0  0  0  0
   10.4351  -15.5740   25.9987 C   0  0  0  0  0  0  0  0  0  0  0  0
   10.3190  -15.7939   24.5443 C   0  0  0  0  0  0  0  0  0  0  0  0
    9.4566  -16.9603   24.2578 C   0  0  2  0  0  0  0  0  0  0  0  0
    9.3564  -17.2448   22.8318 N   0  0  0  0  0  0  0  0  0  0  0  0
    8.0879  -16.7936   24.7574 C   0  0  0  0  0  0  0  0  0  0  0  0
    7.8646  -16.7189   25.9857 O   0  0  0  0  0  0  0  0  0  0  0  0
   10.2158  -14.3058   26.5351 C   0  0  0  0  0  0  0  0  0  0  0  0
   10.3158  -14.0330   27.8805 C   0  0  0  0  0  0  0  0  0  0  0  0
    7.0000  -16.7129   23.9014 O   0  0  0  0  0  0  0  0  0  0  0  0
  2  1  1  6
  3  2  1  0
  3  4  1  0
  5  9  1  0
  5  4  1  0
  6  5  2  0
  7  2  1  0
  7  8  2  0
 10  7  1  0
 11 10  1  0
 11 12  1  6
 13 12  1  0
 13 14  1  0
 14 15  1  0
 16 15  1  0
 17 26  1  0
 17 11  1  0
 18 17  2  0
 19 20  1  0
 20 30  2  0
 20 21  1  0
 21 22  2  0
 22 23  1  0
 23 24  1  0
 25 24  1  6
 25 26  1  0
 25 27  1  0
 27 31  1  0
 28 27  2  0
 29 23  2  0
 30 29  1  0
M  END
$$$$
