EKY.pdb
     RDKit          3D

 31 31  0  0  1  0  0  0  0  0999 V2000
    7.1104  -20.0938   21.9784 N   0  0  0  0  0  0  0  0  0  0  0  0
    7.7050  -19.3714   23.0617 C   0  0  1  0  0  0  0  0  0  0  0  0
    8.3210  -20.3250   24.0617 C   0  0  0  0  0  0  0  0  0  0  0  0
    7.2111  -21.1603   24.6506 C   0  0  0  0  0  0  0  0  0  0  0  0
    7.7643  -22.0150   25.7242 C   0  0  0  0  0  0  0  0  0  0  0  0
    8.9755  -21.9619   25.9901 O   0  0  0  0  0  0  0  0  0  0  0  0
    8.7206  -18.4075   22.5390 C   0  0  0  0  0  0  0  0  0  0  0  0
    9.8560  -18.8056   22.1864 O   0  0  0  0  0  0  0  0  0  0  0  0
    6.9660  -22.8794   26.4472 O   0  0  0  0  0  0  0  0  0  0  0  0
    8.4573  -17.0209   22.4176 N   0  0  0  0  0  0  0  0  0  0  0  0
    9.4134  -16.0125   22.0669 C   0  0  1  0  0  0  0  0  0  0  0  0
    8.6620  -14.7856   21.6102 C   0  0  0  0  0  0  0  0  0  0  0  0
    8.5691  -14.6649   20.1311 C   0  0  0  0  0  0  0  0  0  0  0  0
    7.7767  -13.5053   19.6255 C   0  0  0  0  0  0  0  0  0  0  0  0
    7.8721  -13.5133   18.1061 C   0  0  0  0  0  0  0  0  0  0  0  0
    7.1037  -12.4541   17.5151 N   0  0  0  0  0  0  0  0  0  0  0  0
   10.3447  -15.6789   23.1508 C   0  0  0  0  0  0  0  0  0  0  0  0
    9.9906  -14.9086   24.0620 O   0  0  0  0  0  0  0  0  0  0  0  0
    9.9229  -13.6509   29.4413 O   0  0  0  0  0  0  0  0  0  0  0  0
   10.5609  -14.3980   28.4756 C   0  0  0  0  0  0  0  0  0  0  0  0
   10.8792  -13.7773   27.2803 C   0  0  0  0  0  0  0  0  0  0  0  0
   11.5238  -14.5175   26.2943 C   0  0  0  0  0  0  0  0  0  0  0  0
   11.8650  -15.8389   26.4395 C   0  0  0  0  0  0  0  0  0  0  0  0
   12.5409  -16.6382   25.3996 C   0  0  0  0  0  0  0  0  0  0  0  0
   12.6624  -15.8682   24.1431 C   0  0  2  0  0  0  0  0  0  0  0  0
   11.6414  -16.2267   23.1665 N   0  0  0  0  0  0  0  0  0  0  0  0
   13.9621  -16.0480   23.4879 C   0  0  0  0  0  0  0  0  0  0  0  0
   14.0377  -16.5963   22.3663 O   0  0  0  0  0  0  0  0  0  0  0  0
   11.5246  -16.4214   27.6598 C   0  0  0  0  0  0  0  0  0  0  0  0
   10.8871  -15.7335   28.6671 C   0  0  0  0  0  0  0  0  0  0  0  0
   15.1441  -15.6240   24.0759 O   0  0  0  0  0  0  0  0  0  0  0  0
  2  1  1  6
  3  2  1  0
  3  4  1  0
  5  9  1  0
  5  4  1  0
  6  5  2  0
  7  2  1  0
  7  8  2  0
 10  7  1  0
 11 10  1  0
 11 12  1  1
 13 12  1  0
 13 14  1  0
 14 15  1  0
 16 15  1  0
 17 26  1  0
 17 11  1  0
 18 17  2  0
 19 20  1  0
 20 30  2  0
 20 21  1  0
 21 22  2  0
 22 23  1  0
 23 24  1  0
 25 24  1  1
 25 26  1  0
 25 27  1  0
 27 31  1  0
 28 27  2  0
 29 23  2  0
 30 29  1  0
M  END
$$$$
