EKY.pdb
     RDKit          3D

 31 31  0  0  1  0  0  0  0  0999 V2000
   12.2915  -20.1525   19.2809 N   0  0  0  0  0  0  0  0  0  0  0  0
   13.3550  -19.3557   19.8129 C   0  0  1  0  0  0  0  0  0  0  0  0
   14.3312  -18.9751   18.7216 C   0  0  0  0  0  0  0  0  0  0  0  0
   15.4452  -18.1774   19.3534 C   0  0  0  0  0  0  0  0  0  0  0  0
   16.3823  -17.7325   18.2984 C   0  0  0  0  0  0  0  0  0  0  0  0
   17.6049  -17.8677   18.4647 O   0  0  0  0  0  0  0  0  0  0  0  0
   12.7993  -18.1429   20.4867 C   0  0  0  0  0  0  0  0  0  0  0  0
   13.5544  -17.3489   21.0960 O   0  0  0  0  0  0  0  0  0  0  0  0
   15.9340  -17.1654   17.1218 O   0  0  0  0  0  0  0  0  0  0  0  0
   11.4167  -17.8341   20.4715 N   0  0  0  0  0  0  0  0  0  0  0  0
   10.8072  -16.6829   21.0692 C   0  0  1  0  0  0  0  0  0  0  0  0
    9.5528  -16.3558   20.2959 C   0  0  0  0  0  0  0  0  0  0  0  0
    8.9539  -15.0462   20.6660 C   0  0  0  0  0  0  0  0  0  0  0  0
    7.7307  -14.6563   19.9044 C   0  0  0  0  0  0  0  0  0  0  0  0
    7.3444  -13.2518   20.3467 C   0  0  0  0  0  0  0  0  0  0  0  0
    6.2015  -12.7594   19.6304 N   0  0  0  0  0  0  0  0  0  0  0  0
   10.5107  -16.8457   22.4972 C   0  0  0  0  0  0  0  0  0  0  0  0
   10.0192  -17.9102   22.9144 O   0  0  0  0  0  0  0  0  0  0  0  0
   10.2628  -15.3220   31.1312 O   0  0  0  0  0  0  0  0  0  0  0  0
   10.4175  -15.1700   29.7708 C   0  0  0  0  0  0  0  0  0  0  0  0
    9.7313  -14.1403   29.1510 C   0  0  0  0  0  0  0  0  0  0  0  0
    9.8765  -13.9727   27.7775 C   0  0  0  0  0  0  0  0  0  0  0  0
   10.6674  -14.7764   26.9949 C   0  0  0  0  0  0  0  0  0  0  0  0
   10.8240  -14.6157   25.5367 C   0  0  0  0  0  0  0  0  0  0  0  0
   10.5253  -15.8823   24.8347 C   0  0  2  0  0  0  0  0  0  0  0  0
   10.7799  -15.8011   23.4018 N   0  0  0  0  0  0  0  0  0  0  0  0
    9.1317  -16.3092   24.9974 C   0  0  0  0  0  0  0  0  0  0  0  0
    8.8196  -17.1354   25.8829 O   0  0  0  0  0  0  0  0  0  0  0  0
   11.3390  -15.7997   27.6630 C   0  0  0  0  0  0  0  0  0  0  0  0
   11.2296  -16.0080   29.0191 C   0  0  0  0  0  0  0  0  0  0  0  0
    8.1167  -15.8217   24.1882 O   0  0  0  0  0  0  0  0  0  0  0  0
  2  1  1  6
  3  2  1  0
  3  4  1  0
  5  9  1  0
  5  4  1  0
  6  5  2  0
  7  2  1  0
  7  8  2  0
 10  7  1  0
 11 10  1  0
 11 12  1  6
 13 12  1  0
 13 14  1  0
 14 15  1  0
 16 15  1  0
 17 26  1  0
 17 11  1  0
 18 17  2  0
 19 20  1  0
 20 30  2  0
 20 21  1  0
 21 22  2  0
 22 23  1  0
 23 24  1  0
 25 24  1  1
 25 26  1  0
 25 27  1  0
 27 31  1  0
 28 27  2  0
 29 23  2  0
 30 29  1  0
M  END
$$$$
