EKY.pdb
     RDKit          3D

 31 31  0  0  1  0  0  0  0  0999 V2000
   10.5259  -18.9334   18.9811 N   0  0  0  0  0  0  0  0  0  0  0  0
   11.6590  -18.5813   19.7817 C   0  0  1  0  0  0  0  0  0  0  0  0
   12.8928  -18.4298   18.9194 C   0  0  0  0  0  0  0  0  0  0  0  0
   12.5410  -17.5300   17.7605 C   0  0  0  0  0  0  0  0  0  0  0  0
   13.6842  -17.4773   16.8226 C   0  0  0  0  0  0  0  0  0  0  0  0
   13.8792  -18.4184   16.0371 O   0  0  0  0  0  0  0  0  0  0  0  0
   11.3775  -17.3278   20.5455 C   0  0  0  0  0  0  0  0  0  0  0  0
   12.3024  -16.7146   21.1289 O   0  0  0  0  0  0  0  0  0  0  0  0
   14.5501  -16.4019   16.7938 O   0  0  0  0  0  0  0  0  0  0  0  0
   10.0755  -16.7788   20.6473 N   0  0  0  0  0  0  0  0  0  0  0  0
    9.6951  -15.6675   21.4684 C   0  0  1  0  0  0  0  0  0  0  0  0
    8.4198  -15.0820   20.9121 C   0  0  0  0  0  0  0  0  0  0  0  0
    8.5935  -14.4419   19.5814 C   0  0  0  0  0  0  0  0  0  0  0  0
    7.3363  -14.0087   18.9032 C   0  0  0  0  0  0  0  0  0  0  0  0
    7.7287  -13.3552   17.5855 C   0  0  0  0  0  0  0  0  0  0  0  0
    6.5926  -12.8074   16.8994 N   0  0  0  0  0  0  0  0  0  0  0  0
    9.5360  -16.0080   22.8869 C   0  0  0  0  0  0  0  0  0  0  0  0
    9.0540  -17.1079   23.2137 O   0  0  0  0  0  0  0  0  0  0  0  0
   10.3344  -15.6074   31.6505 O   0  0  0  0  0  0  0  0  0  0  0  0
   10.3713  -15.2769   30.3136 C   0  0  0  0  0  0  0  0  0  0  0  0
   10.8018  -16.2409   29.4187 C   0  0  0  0  0  0  0  0  0  0  0  0
   10.8450  -15.9236   28.0649 C   0  0  0  0  0  0  0  0  0  0  0  0
   10.4827  -14.6994   27.5610 C   0  0  0  0  0  0  0  0  0  0  0  0
   10.5316  -14.3463   26.1293 C   0  0  0  0  0  0  0  0  0  0  0  0
    9.8395  -15.3673   25.3138 C   0  0  2  0  0  0  0  0  0  0  0  0
    9.9266  -15.0947   23.8845 N   0  0  0  0  0  0  0  0  0  0  0  0
    8.4146  -15.4871   25.6397 C   0  0  0  0  0  0  0  0  0  0  0  0
    7.5625  -14.8118   25.0214 O   0  0  0  0  0  0  0  0  0  0  0  0
   10.0559  -13.7608   28.4997 C   0  0  0  0  0  0  0  0  0  0  0  0
    9.9946  -14.0243   29.8493 C   0  0  0  0  0  0  0  0  0  0  0  0
    7.9592  -16.3414   26.6323 O   0  0  0  0  0  0  0  0  0  0  0  0
  2  1  1  6
  3  2  1  0
  3  4  1  0
  5  9  1  0
  5  4  1  0
  6  5  2  0
  7  2  1  0
  7  8  2  0
 10  7  1  0
 11 10  1  0
 11 12  1  6
 13 12  1  0
 13 14  1  0
 14 15  1  0
 16 15  1  0
 17 26  1  0
 17 11  1  0
 18 17  2  0
 19 20  1  0
 20 30  2  0
 20 21  1  0
 21 22  2  0
 22 23  1  0
 23 24  1  0
 25 24  1  1
 25 26  1  0
 25 27  1  0
 27 31  1  0
 28 27  2  0
 29 23  2  0
 30 29  1  0
M  END
$$$$
