EKY.pdb
     RDKit          3D

 31 31  0  0  1  0  0  0  0  0999 V2000
   11.8255  -18.3368   18.5765 N   0  0  0  0  0  0  0  0  0  0  0  0
   12.2812  -17.2287   19.3595 C   0  0  1  0  0  0  0  0  0  0  0  0
   12.8397  -16.1416   18.4677 C   0  0  0  0  0  0  0  0  0  0  0  0
   13.3311  -15.0226   19.3525 C   0  0  0  0  0  0  0  0  0  0  0  0
   14.1112  -14.0659   18.5368 C   0  0  0  0  0  0  0  0  0  0  0  0
   14.7895  -13.1902   19.0968 O   0  0  0  0  0  0  0  0  0  0  0  0
   11.1674  -16.7093   20.2101 C   0  0  0  0  0  0  0  0  0  0  0  0
   11.3625  -15.7632   21.0093 O   0  0  0  0  0  0  0  0  0  0  0  0
   14.1078  -14.1177   17.1568 O   0  0  0  0  0  0  0  0  0  0  0  0
    9.8588  -17.2494   20.1578 N   0  0  0  0  0  0  0  0  0  0  0  0
    8.7692  -16.8943   21.0184 C   0  0  1  0  0  0  0  0  0  0  0  0
    7.5693  -17.7240   20.6306 C   0  0  0  0  0  0  0  0  0  0  0  0
    6.3966  -17.5216   21.5219 C   0  0  0  0  0  0  0  0  0  0  0  0
    5.1937  -18.3468   21.2053 C   0  0  0  0  0  0  0  0  0  0  0  0
    4.0799  -17.9131   22.1481 C   0  0  0  0  0  0  0  0  0  0  0  0
    2.9139  -18.7407   22.0171 N   0  0  0  0  0  0  0  0  0  0  0  0
    9.0694  -17.0492   22.4464 C   0  0  0  0  0  0  0  0  0  0  0  0
    9.5136  -18.1293   22.8765 O   0  0  0  0  0  0  0  0  0  0  0  0
   11.0005  -14.9008   30.7496 O   0  0  0  0  0  0  0  0  0  0  0  0
   10.5427  -14.8282   29.4523 C   0  0  0  0  0  0  0  0  0  0  0  0
   10.8719  -15.8591   28.5896 C   0  0  0  0  0  0  0  0  0  0  0  0
   10.4175  -15.8015   27.2760 C   0  0  0  0  0  0  0  0  0  0  0  0
    9.6555  -14.7726   26.7816 C   0  0  0  0  0  0  0  0  0  0  0  0
    9.1740  -14.6941   25.3892 C   0  0  0  0  0  0  0  0  0  0  0  0
    9.1739  -16.0316   24.7585 C   0  0  2  0  0  0  0  0  0  0  0  0
    8.8573  -15.9794   23.3367 N   0  0  0  0  0  0  0  0  0  0  0  0
    8.2146  -16.9529   25.3763 C   0  0  0  0  0  0  0  0  0  0  0  0
    6.9912  -16.8505   25.1374 O   0  0  0  0  0  0  0  0  0  0  0  0
    9.3489  -13.7573   27.6870 C   0  0  0  0  0  0  0  0  0  0  0  0
    9.7734  -13.7667   28.9962 C   0  0  0  0  0  0  0  0  0  0  0  0
    8.6179  -17.9613   26.2384 O   0  0  0  0  0  0  0  0  0  0  0  0
  2  1  1  6
  3  2  1  0
  3  4  1  0
  5  9  1  0
  5  4  1  0
  6  5  2  0
  7  2  1  0
  7  8  2  0
 10  7  1  0
 11 10  1  0
 11 12  1  6
 13 12  1  0
 13 14  1  0
 14 15  1  0
 16 15  1  0
 17 26  1  0
 17 11  1  0
 18 17  2  0
 19 20  1  0
 20 30  2  0
 20 21  1  0
 21 22  2  0
 22 23  1  0
 23 24  1  0
 25 24  1  1
 25 26  1  0
 25 27  1  0
 27 31  1  0
 28 27  2  0
 29 23  2  0
 30 29  1  0
M  END
$$$$
