EKY.pdb
     RDKit          3D

 31 31  0  0  1  0  0  0  0  0999 V2000
    9.6820  -14.2310   19.6064 N   0  0  0  0  0  0  0  0  0  0  0  0
    8.6115  -13.8736   20.4869 C   0  0  1  0  0  0  0  0  0  0  0  0
    7.3025  -13.8045   19.7315 C   0  0  0  0  0  0  0  0  0  0  0  0
    7.5316  -12.9936   18.4799 C   0  0  0  0  0  0  0  0  0  0  0  0
    7.8287  -13.9091   17.3562 C   0  0  0  0  0  0  0  0  0  0  0  0
    6.9995  -14.7739   17.0316 O   0  0  0  0  0  0  0  0  0  0  0  0
    8.5309  -14.8474   21.6178 C   0  0  0  0  0  0  0  0  0  0  0  0
    7.6011  -14.7767   22.4558 O   0  0  0  0  0  0  0  0  0  0  0  0
    9.0126  -13.8303   16.6497 O   0  0  0  0  0  0  0  0  0  0  0  0
    9.4832  -15.8808   21.7972 N   0  0  0  0  0  0  0  0  0  0  0  0
    9.4352  -16.9011   22.8025 C   0  0  1  0  0  0  0  0  0  0  0  0
   10.3280  -18.0376   22.3671 C   0  0  0  0  0  0  0  0  0  0  0  0
   10.2309  -19.2355   23.2426 C   0  0  0  0  0  0  0  0  0  0  0  0
   11.0955  -20.3898   22.8574 C   0  0  0  0  0  0  0  0  0  0  0  0
   11.1197  -21.3561   24.0334 C   0  0  0  0  0  0  0  0  0  0  0  0
   10.0024  -22.2577   24.0096 N   0  0  0  0  0  0  0  0  0  0  0  0
    9.8085  -16.4296   24.1412 C   0  0  0  0  0  0  0  0  0  0  0  0
   10.8493  -15.7662   24.3007 O   0  0  0  0  0  0  0  0  0  0  0  0
    6.5539  -10.6625   25.2230 O   0  0  0  0  0  0  0  0  0  0  0  0
    6.9332  -11.8848   25.7327 C   0  0  0  0  0  0  0  0  0  0  0  0
    6.2408  -13.0065   25.3112 C   0  0  0  0  0  0  0  0  0  0  0  0
    6.6111  -14.2488   25.8162 C   0  0  0  0  0  0  0  0  0  0  0  0
    7.6318  -14.4280   26.7161 C   0  0  0  0  0  0  0  0  0  0  0  0
    8.0297  -15.7379   27.2663 C   0  0  0  0  0  0  0  0  0  0  0  0
    9.2516  -16.2370   26.5998 C   0  0  2  0  0  0  0  0  0  0  0  0
    8.9934  -16.7243   25.2506 N   0  0  0  0  0  0  0  0  0  0  0  0
    9.8943  -17.3320   27.3338 C   0  0  0  0  0  0  0  0  0  0  0  0
   10.2651  -17.1719   28.5175 O   0  0  0  0  0  0  0  0  0  0  0  0
    8.3003  -13.2699   27.1114 C   0  0  0  0  0  0  0  0  0  0  0  0
    7.9735  -12.0180   26.6419 C   0  0  0  0  0  0  0  0  0  0  0  0
   10.1146  -18.5725   26.7546 O   0  0  0  0  0  0  0  0  0  0  0  0
  2  1  1  6
  3  2  1  0
  3  4  1  0
  5  9  1  0
  5  4  1  0
  6  5  2  0
  7  2  1  0
  7  8  2  0
 10  7  1  0
 11 10  1  0
 11 12  1  6
 13 12  1  0
 13 14  1  0
 14 15  1  0
 16 15  1  0
 17 26  1  0
 17 11  1  0
 18 17  2  0
 19 20  1  0
 20 30  2  0
 20 21  1  0
 21 22  2  0
 22 23  1  0
 23 24  1  0
 25 24  1  1
 25 26  1  0
 25 27  1  0
 27 31  1  0
 28 27  2  0
 29 23  2  0
 30 29  1  0
M  END
$$$$
