EKY.pdb
     RDKit          3D

 31 31  0  0  1  0  0  0  0  0999 V2000
    8.1286  -13.0859   19.0972 N   0  0  0  0  0  0  0  0  0  0  0  0
    8.8893  -14.1886   19.6014 C   0  0  1  0  0  0  0  0  0  0  0  0
   10.3170  -13.7689   19.8742 C   0  0  0  0  0  0  0  0  0  0  0  0
   11.0807  -13.8511   18.5756 C   0  0  0  0  0  0  0  0  0  0  0  0
   12.4050  -14.4604   18.8292 C   0  0  0  0  0  0  0  0  0  0  0  0
   12.6231  -15.6289   18.4718 O   0  0  0  0  0  0  0  0  0  0  0  0
    8.2435  -14.7367   20.8328 C   0  0  0  0  0  0  0  0  0  0  0  0
    7.8174  -13.9674   21.7263 O   0  0  0  0  0  0  0  0  0  0  0  0
   13.4167  -13.7616   19.4579 O   0  0  0  0  0  0  0  0  0  0  0  0
    8.0827  -16.1275   21.0491 N   0  0  0  0  0  0  0  0  0  0  0  0
    7.4780  -16.7338   22.1983 C   0  0  1  0  0  0  0  0  0  0  0  0
    7.2037  -18.1836   21.8799 C   0  0  0  0  0  0  0  0  0  0  0  0
    6.5092  -18.9092   22.9762 C   0  0  0  0  0  0  0  0  0  0  0  0
    6.2917  -20.3685   22.7495 C   0  0  0  0  0  0  0  0  0  0  0  0
    5.4312  -20.8863   23.8936 C   0  0  0  0  0  0  0  0  0  0  0  0
    5.1843  -22.2965   23.7831 N   0  0  0  0  0  0  0  0  0  0  0  0
    8.2798  -16.6122   23.4213 C   0  0  0  0  0  0  0  0  0  0  0  0
    9.5160  -16.7477   23.3723 O   0  0  0  0  0  0  0  0  0  0  0  0
    6.1485  -10.1997   25.6990 O   0  0  0  0  0  0  0  0  0  0  0  0
    6.5077  -11.4963   25.9947 C   0  0  0  0  0  0  0  0  0  0  0  0
    5.5500  -12.3228   26.5560 C   0  0  0  0  0  0  0  0  0  0  0  0
    5.8962  -13.6353   26.8607 C   0  0  0  0  0  0  0  0  0  0  0  0
    7.1431  -14.1625   26.6353 C   0  0  0  0  0  0  0  0  0  0  0  0
    7.5266  -15.5495   26.9611 C   0  0  0  0  0  0  0  0  0  0  0  0
    8.3829  -16.1198   25.8990 C   0  0  2  0  0  0  0  0  0  0  0  0
    7.6571  -16.3422   24.6547 N   0  0  0  0  0  0  0  0  0  0  0  0
    8.9832  -17.4029   26.2786 C   0  0  0  0  0  0  0  0  0  0  0  0
    8.5876  -18.4685   25.7568 O   0  0  0  0  0  0  0  0  0  0  0  0
    8.0744  -13.2931   26.0685 C   0  0  0  0  0  0  0  0  0  0  0  0
    7.7827  -11.9866   25.7484 C   0  0  0  0  0  0  0  0  0  0  0  0
    9.9996  -17.4871   27.2180 O   0  0  0  0  0  0  0  0  0  0  0  0
  2  1  1  1
  3  2  1  0
  3  4  1  0
  5  9  1  0
  5  4  1  0
  6  5  2  0
  7  2  1  0
  7  8  2  0
 10  7  1  0
 11 10  1  0
 11 12  1  6
 13 12  1  0
 13 14  1  0
 14 15  1  0
 16 15  1  0
 17 26  1  0
 17 11  1  0
 18 17  2  0
 19 20  1  0
 20 30  2  0
 20 21  1  0
 21 22  2  0
 22 23  1  0
 23 24  1  0
 25 24  1  1
 25 26  1  0
 25 27  1  0
 27 31  1  0
 28 27  2  0
 29 23  2  0
 30 29  1  0
M  END
$$$$
