EKY.pdb
     RDKit          3D

 31 31  0  0  1  0  0  0  0  0999 V2000
    9.4900  -14.5164   19.4584 N   0  0  0  0  0  0  0  0  0  0  0  0
    8.1303  -14.7760   19.8230 C   0  0  1  0  0  0  0  0  0  0  0  0
    7.3444  -15.2692   18.6280 C   0  0  0  0  0  0  0  0  0  0  0  0
    8.1532  -16.3508   17.9554 C   0  0  0  0  0  0  0  0  0  0  0  0
    7.4152  -16.8431   16.7712 C   0  0  0  0  0  0  0  0  0  0  0  0
    6.4686  -16.1809   16.3173 O   0  0  0  0  0  0  0  0  0  0  0  0
    8.0796  -15.7611   20.9458 C   0  0  0  0  0  0  0  0  0  0  0  0
    6.9870  -16.0619   21.4821 O   0  0  0  0  0  0  0  0  0  0  0  0
    7.7508  -18.0291   16.1486 O   0  0  0  0  0  0  0  0  0  0  0  0
    9.2418  -16.3935   21.4521 N   0  0  0  0  0  0  0  0  0  0  0  0
    9.2893  -17.2962   22.5642 C   0  0  1  0  0  0  0  0  0  0  0  0
   10.3796  -18.3079   22.3070 C   0  0  0  0  0  0  0  0  0  0  0  0
    9.9250  -19.7167   22.4469 C   0  0  0  0  0  0  0  0  0  0  0  0
   10.9646  -20.7591   22.2003 C   0  0  0  0  0  0  0  0  0  0  0  0
   10.3203  -22.1158   22.4483 C   0  0  0  0  0  0  0  0  0  0  0  0
   11.2099  -23.1977   22.1321 N   0  0  0  0  0  0  0  0  0  0  0  0
    9.4906  -16.6313   23.8568 C   0  0  0  0  0  0  0  0  0  0  0  0
   10.3491  -15.7375   23.9710 O   0  0  0  0  0  0  0  0  0  0  0  0
    6.8683  -10.4339   25.2995 O   0  0  0  0  0  0  0  0  0  0  0  0
    7.0408  -11.7435   25.6904 C   0  0  0  0  0  0  0  0  0  0  0  0
    7.1704  -12.7038   24.7023 C   0  0  0  0  0  0  0  0  0  0  0  0
    7.3454  -14.0313   25.0799 C   0  0  0  0  0  0  0  0  0  0  0  0
    7.3970  -14.4474   26.3868 C   0  0  0  0  0  0  0  0  0  0  0  0
    7.5735  -15.8523   26.8017 C   0  0  0  0  0  0  0  0  0  0  0  0
    8.8517  -16.3929   26.2914 C   0  0  2  0  0  0  0  0  0  0  0  0
    8.7158  -16.9995   24.9730 N   0  0  0  0  0  0  0  0  0  0  0  0
    9.4320  -17.4115   27.1725 C   0  0  0  0  0  0  0  0  0  0  0  0
    9.5410  -18.5967   26.7881 O   0  0  0  0  0  0  0  0  0  0  0  0
    7.2621  -13.4452   27.3469 C   0  0  0  0  0  0  0  0  0  0  0  0
    7.0872  -12.1182   27.0262 C   0  0  0  0  0  0  0  0  0  0  0  0
    9.8775  -17.1078   28.4500 O   0  0  0  0  0  0  0  0  0  0  0  0
  2  1  1  6
  3  2  1  0
  3  4  1  0
  5  9  1  0
  5  4  1  0
  6  5  2  0
  7  2  1  0
  7  8  2  0
 10  7  1  0
 11 10  1  0
 11 12  1  6
 13 12  1  0
 13 14  1  0
 14 15  1  0
 16 15  1  0
 17 26  1  0
 17 11  1  0
 18 17  2  0
 19 20  1  0
 20 30  2  0
 20 21  1  0
 21 22  2  0
 22 23  1  0
 23 24  1  0
 25 24  1  1
 25 26  1  0
 25 27  1  0
 27 31  1  0
 28 27  2  0
 29 23  2  0
 30 29  1  0
M  END
$$$$
