EKY.pdb
     RDKit          3D

 31 31  0  0  1  0  0  0  0  0999 V2000
    8.8011  -18.8286   19.8083 N   0  0  0  0  0  0  0  0  0  0  0  0
   10.1776  -18.4803   19.6275 C   0  0  1  0  0  0  0  0  0  0  0  0
   10.5743  -18.6182   18.1741 C   0  0  0  0  0  0  0  0  0  0  0  0
    9.9437  -19.8801   17.6389 C   0  0  0  0  0  0  0  0  0  0  0  0
   10.2935  -20.0288   16.2090 C   0  0  0  0  0  0  0  0  0  0  0  0
   11.4448  -19.7657   15.8268 O   0  0  0  0  0  0  0  0  0  0  0  0
   10.4250  -17.0928   20.1248 C   0  0  0  0  0  0  0  0  0  0  0  0
   11.5761  -16.5974   20.0880 O   0  0  0  0  0  0  0  0  0  0  0  0
    9.3688  -20.4558   15.2765 O   0  0  0  0  0  0  0  0  0  0  0  0
    9.3908  -16.2815   20.6533 N   0  0  0  0  0  0  0  0  0  0  0  0
    9.5416  -14.9439   21.1450 C   0  0  1  0  0  0  0  0  0  0  0  0
    8.4129  -14.1066   20.5941 C   0  0  0  0  0  0  0  0  0  0  0  0
    8.3587  -14.0900   19.1083 C   0  0  0  0  0  0  0  0  0  0  0  0
    7.2088  -13.3487   18.5114 C   0  0  0  0  0  0  0  0  0  0  0  0
    7.3712  -13.3931   16.9984 C   0  0  0  0  0  0  0  0  0  0  0  0
    6.2562  -12.7929   16.3216 N   0  0  0  0  0  0  0  0  0  0  0  0
    9.5894  -14.8543   22.6090 C   0  0  0  0  0  0  0  0  0  0  0  0
    8.7369  -14.1852   23.2208 O   0  0  0  0  0  0  0  0  0  0  0  0
   10.5914  -15.1779   31.0925 O   0  0  0  0  0  0  0  0  0  0  0  0
   10.3373  -15.2439   29.7402 C   0  0  0  0  0  0  0  0  0  0  0  0
   10.1753  -16.4949   29.1709 C   0  0  0  0  0  0  0  0  0  0  0  0
    9.9181  -16.5794   27.8063 C   0  0  0  0  0  0  0  0  0  0  0  0
    9.8150  -15.4847   26.9849 C   0  0  0  0  0  0  0  0  0  0  0  0
    9.5511  -15.5597   25.5351 C   0  0  0  0  0  0  0  0  0  0  0  0
   10.8006  -15.3805   24.7650 C   0  0  2  0  0  0  0  0  0  0  0  0
   10.5976  -15.5233   23.3287 N   0  0  0  0  0  0  0  0  0  0  0  0
   11.8466  -16.3354   25.1456 C   0  0  0  0  0  0  0  0  0  0  0  0
   12.7357  -16.0113   25.9633 O   0  0  0  0  0  0  0  0  0  0  0  0
    9.9852  -14.2463   27.6026 C   0  0  0  0  0  0  0  0  0  0  0  0
   10.2412  -14.1082   28.9480 C   0  0  0  0  0  0  0  0  0  0  0  0
   11.8929  -17.6187   24.6225 O   0  0  0  0  0  0  0  0  0  0  0  0
  2  1  1  6
  3  2  1  0
  3  4  1  0
  5  9  1  0
  5  4  1  0
  6  5  2  0
  7  2  1  0
  7  8  2  0
 10  7  1  0
 11 10  1  0
 11 12  1  1
 13 12  1  0
 13 14  1  0
 14 15  1  0
 16 15  1  0
 17 26  1  0
 17 11  1  0
 18 17  2  0
 19 20  1  0
 20 30  2  0
 20 21  1  0
 21 22  2  0
 22 23  1  0
 23 24  1  0
 25 24  1  1
 25 26  1  0
 25 27  1  0
 27 31  1  0
 28 27  2  0
 29 23  2  0
 30 29  1  0
M  END
$$$$
