EKY.pdb
     RDKit          3D

 31 31  0  0  1  0  0  0  0  0999 V2000
    8.0635  -12.9140   19.4399 N   0  0  0  0  0  0  0  0  0  0  0  0
    8.4094  -14.3001   19.5289 C   0  0  1  0  0  0  0  0  0  0  0  0
    9.9057  -14.4838   19.4016 C   0  0  0  0  0  0  0  0  0  0  0  0
   10.5649  -13.1700   19.7421 C   0  0  0  0  0  0  0  0  0  0  0  0
   12.0298  -13.3657   19.8116 C   0  0  0  0  0  0  0  0  0  0  0  0
   12.5212  -14.0026   20.7569 O   0  0  0  0  0  0  0  0  0  0  0  0
    7.9028  -14.8735   20.8128 C   0  0  0  0  0  0  0  0  0  0  0  0
    7.3942  -14.1319   21.6863 O   0  0  0  0  0  0  0  0  0  0  0  0
   12.8764  -12.8564   18.8468 O   0  0  0  0  0  0  0  0  0  0  0  0
    7.9703  -16.2586   21.1029 N   0  0  0  0  0  0  0  0  0  0  0  0
    7.4915  -16.8903   22.2968 C   0  0  1  0  0  0  0  0  0  0  0  0
    7.2262  -18.3442   21.9898 C   0  0  0  0  0  0  0  0  0  0  0  0
    6.6720  -19.1012   23.1433 C   0  0  0  0  0  0  0  0  0  0  0  0
    6.2584  -20.5065   22.8559 C   0  0  0  0  0  0  0  0  0  0  0  0
    5.5761  -21.0473   24.1046 C   0  0  0  0  0  0  0  0  0  0  0  0
    5.1627  -22.4126   23.9409 N   0  0  0  0  0  0  0  0  0  0  0  0
    8.4007  -16.7576   23.4410 C   0  0  0  0  0  0  0  0  0  0  0  0
    9.6275  -16.8938   23.2815 O   0  0  0  0  0  0  0  0  0  0  0  0
    6.6004  -10.3475   25.1320 O   0  0  0  0  0  0  0  0  0  0  0  0
    6.9270  -11.6053   25.5893 C   0  0  0  0  0  0  0  0  0  0  0  0
    8.2026  -12.0774   25.3339 C   0  0  0  0  0  0  0  0  0  0  0  0
    8.5488  -13.3457   25.7888 C   0  0  0  0  0  0  0  0  0  0  0  0
    7.6912  -14.1631   26.4818 C   0  0  0  0  0  0  0  0  0  0  0  0
    8.0419  -15.5131   26.9627 C   0  0  0  0  0  0  0  0  0  0  0  0
    8.7260  -16.2855   25.9034 C   0  0  2  0  0  0  0  0  0  0  0  0
    7.8921  -16.4760   24.7231 N   0  0  0  0  0  0  0  0  0  0  0  0
    9.1449  -17.6181   26.3500 C   0  0  0  0  0  0  0  0  0  0  0  0
    8.6847  -18.6449   25.8041 O   0  0  0  0  0  0  0  0  0  0  0  0
    6.4178  -13.6451   26.7155 C   0  0  0  0  0  0  0  0  0  0  0  0
    6.0257  -12.3973   26.2872 C   0  0  0  0  0  0  0  0  0  0  0  0
   10.0554  -17.7928   27.3811 O   0  0  0  0  0  0  0  0  0  0  0  0
  2  1  1  1
  3  2  1  0
  3  4  1  0
  5  9  1  0
  5  4  1  0
  6  5  2  0
  7  2  1  0
  7  8  2  0
 10  7  1  0
 11 10  1  0
 11 12  1  6
 13 12  1  0
 13 14  1  0
 14 15  1  0
 16 15  1  0
 17 26  1  0
 17 11  1  0
 18 17  2  0
 19 20  1  0
 20 30  2  0
 20 21  1  0
 21 22  2  0
 22 23  1  0
 23 24  1  0
 25 24  1  1
 25 26  1  0
 25 27  1  0
 27 31  1  0
 28 27  2  0
 29 23  2  0
 30 29  1  0
M  END
$$$$
