CYG.pdb
     RDKit          3D

 23 23  0  0  1  0  0  0  0  0999 V2000
   25.8197  -11.1474  -16.2982 N   0  0  0  0  0  0  0  0  0  0  0  0
   24.6398  -10.5226  -15.7924 C   0  0  1  0  0  0  0  0  0  0  0  0
   24.2251  -11.1534  -14.4849 C   0  0  0  0  0  0  0  0  0  0  0  0
   23.8190  -12.8887  -14.6985 S   0  0  0  0  0  0  0  0  0  0  0  0
   24.7658   -9.0643  -15.6210 C   0  0  0  0  0  0  0  0  0  0  0  0
   25.8088   -8.6203  -15.0771 O   0  0  0  0  0  0  0  0  0  0  0  0
   24.9879   -0.5548  -17.7246 O   0  0  0  0  0  0  0  0  0  0  0  0
   24.7160   -1.9099  -17.6103 C   0  0  0  0  0  0  0  0  0  0  0  0
   25.7609   -2.7328  -17.2649 C   0  0  0  0  0  0  0  0  0  0  0  0
   25.5430   -4.1043  -17.1361 C   0  0  0  0  0  0  0  0  0  0  0  0
   24.3010   -4.6631  -17.3468 C   0  0  0  0  0  0  0  0  0  0  0  0
   24.1224   -6.0980  -17.2290 C   0  0  0  0  0  0  0  0  0  0  0  0
   23.9951   -6.6728  -15.8480 C   0  0  2  0  0  0  0  0  0  0  0  0
   23.7883   -8.1257  -16.0288 N   0  0  0  0  0  0  0  0  0  0  0  0
   22.7624   -6.1475  -15.2272 C   0  0  0  0  0  0  0  0  0  0  0  0
   22.7535   -4.9568  -14.7665 O   0  0  0  0  0  0  0  0  0  0  0  0
   23.2705   -3.8134  -17.6924 C   0  0  0  0  0  0  0  0  0  0  0  0
   23.4826   -2.4435  -17.8222 C   0  0  0  0  0  0  0  0  0  0  0  0
   21.5495   -6.8618  -15.0932 N   0  0  0  0  0  0  0  0  0  0  0  0
   20.4036   -6.2396  -14.4570 C   0  0  0  0  0  0  0  0  0  0  0  0
   19.4838   -5.6327  -15.4275 C   0  0  0  0  0  0  0  0  0  0  0  0
   19.8034   -5.6416  -16.6357 O   0  0  0  0  0  0  0  0  0  0  0  0
   18.2933   -5.0663  -15.0055 O   0  0  0  0  0  0  0  0  0  0  0  0
  2  5  1  0
  2  1  1  1
  3  2  1  0
  4  3  1  0
  5  6  2  0
  8  7  1  0
  8 18  2  0
  9  8  1  0
 10  9  2  0
 10 11  1  0
 11 17  2  0
 12 11  1  0
 13 12  1  6
 14 13  1  0
 14  5  1  0
 15 19  1  0
 15 13  1  0
 16 15  2  0
 17 18  1  0
 20 21  1  0
 20 19  1  0
 21 23  1  0
 22 21  2  0
M  END
$$$$
