CYG.pdb
     RDKit          3D

 23 23  0  0  1  0  0  0  0  0999 V2000
   28.5924  -22.6291  -17.4420 N   0  0  0  0  0  0  0  0  0  0  0  0
   27.6954  -21.5881  -17.0546 C   0  0  1  0  0  0  0  0  0  0  0  0
   26.7650  -21.2399  -18.1915 C   0  0  0  0  0  0  0  0  0  0  0  0
   27.5027  -20.0260  -19.2887 S   0  0  0  0  0  0  0  0  0  0  0  0
   26.9086  -21.8993  -15.8480 C   0  0  0  0  0  0  0  0  0  0  0  0
   26.5871  -23.0976  -15.6439 O   0  0  0  0  0  0  0  0  0  0  0  0
   24.0931  -20.9425   -7.4111 O   0  0  0  0  0  0  0  0  0  0  0  0
   24.5706  -20.8023   -8.7056 C   0  0  0  0  0  0  0  0  0  0  0  0
   25.8830  -21.1418   -8.9306 C   0  0  0  0  0  0  0  0  0  0  0  0
   26.4146  -21.0201  -10.2143 C   0  0  0  0  0  0  0  0  0  0  0  0
   25.6568  -20.5659  -11.2719 C   0  0  0  0  0  0  0  0  0  0  0  0
   26.2555  -20.4283  -12.5861 C   0  0  0  0  0  0  0  0  0  0  0  0
   25.7565  -21.3314  -13.6766 C   0  0  2  0  0  0  0  0  0  0  0  0
   26.4884  -20.9369  -14.8993 N   0  0  0  0  0  0  0  0  0  0  0  0
   24.3318  -21.0324  -13.9256 C   0  0  0  0  0  0  0  0  0  0  0  0
   24.0164  -19.9515  -14.5273 O   0  0  0  0  0  0  0  0  0  0  0  0
   24.3427  -20.2324  -11.0169 C   0  0  0  0  0  0  0  0  0  0  0  0
   23.8068  -20.3520   -9.7375 C   0  0  0  0  0  0  0  0  0  0  0  0
   23.2482  -21.8596  -13.5506 N   0  0  0  0  0  0  0  0  0  0  0  0
   21.8844  -21.3906  -13.7088 C   0  0  0  0  0  0  0  0  0  0  0  0
   21.2052  -22.0150  -14.8512 C   0  0  0  0  0  0  0  0  0  0  0  0
   19.9935  -21.7668  -15.0308 O   0  0  0  0  0  0  0  0  0  0  0  0
   21.8980  -22.8571  -15.7039 O   0  0  0  0  0  0  0  0  0  0  0  0
  2  5  1  0
  2  1  1  6
  3  2  1  0
  4  3  1  0
  5  6  2  0
  8  7  1  0
  8 18  2  0
  9  8  1  0
 10  9  2  0
 10 11  1  0
 11 17  2  0
 12 11  1  0
 13 12  1  1
 14 13  1  0
 14  5  1  0
 15 19  1  0
 15 13  1  0
 16 15  2  0
 17 18  1  0
 20 21  1  0
 20 19  1  0
 21 23  1  0
 22 21  2  0
M  END
$$$$
