CYG.pdb
     RDKit          3D

 23 23  0  0  1  0  0  0  0  0999 V2000
   17.2642  -11.5234  -16.0602 N   0  0  0  0  0  0  0  0  0  0  0  0
   17.6598  -10.1626  -15.8865 C   0  0  1  0  0  0  0  0  0  0  0  0
   16.7030   -9.4462  -14.9642 C   0  0  0  0  0  0  0  0  0  0  0  0
   15.0343   -9.4506  -15.6253 S   0  0  0  0  0  0  0  0  0  0  0  0
   19.0387  -10.0025  -15.3915 C   0  0  0  0  0  0  0  0  0  0  0  0
   19.6284  -11.0188  -14.9440 O   0  0  0  0  0  0  0  0  0  0  0  0
   27.4885  -10.0111  -15.6167 O   0  0  0  0  0  0  0  0  0  0  0  0
   26.1263   -9.8180  -15.7916 C   0  0  0  0  0  0  0  0  0  0  0  0
   25.2849  -10.4381  -14.8994 C   0  0  0  0  0  0  0  0  0  0  0  0
   23.9055  -10.2776  -15.0292 C   0  0  0  0  0  0  0  0  0  0  0  0
   23.3572   -9.5095  -16.0335 C   0  0  0  0  0  0  0  0  0  0  0  0
   21.9160   -9.3901  -16.1497 C   0  0  0  0  0  0  0  0  0  0  0  0
   21.1800   -8.7198  -15.0259 C   0  0  2  0  0  0  0  0  0  0  0  0
   19.7470   -8.7774  -15.3857 N   0  0  0  0  0  0  0  0  0  0  0  0
   21.5497   -7.2901  -15.0026 C   0  0  0  0  0  0  0  0  0  0  0  0
   21.1937   -6.5372  -15.9702 O   0  0  0  0  0  0  0  0  0  0  0  0
   24.2255   -8.8989  -16.9146 C   0  0  0  0  0  0  0  0  0  0  0  0
   25.6032   -9.0557  -16.7897 C   0  0  0  0  0  0  0  0  0  0  0  0
   22.2824   -6.6548  -13.9737 N   0  0  0  0  0  0  0  0  0  0  0  0
   22.6669   -5.2621  -14.1058 C   0  0  0  0  0  0  0  0  0  0  0  0
   23.8045   -5.0778  -15.0159 C   0  0  0  0  0  0  0  0  0  0  0  0
   24.5951   -6.0318  -15.1803 O   0  0  0  0  0  0  0  0  0  0  0  0
   23.9893   -3.8730  -15.6720 O   0  0  0  0  0  0  0  0  0  0  0  0
  2  5  1  0
  2  1  1  1
  3  2  1  0
  4  3  1  0
  5  6  2  0
  8  7  1  0
  8 18  2  0
  9  8  1  0
 10  9  2  0
 10 11  1  0
 11 17  2  0
 12 11  1  0
 13 12  1  6
 14 13  1  0
 14  5  1  0
 15 19  1  0
 15 13  1  0
 16 15  2  0
 17 18  1  0
 20 21  1  0
 20 19  1  0
 21 23  1  0
 22 21  2  0
M  END
$$$$
