CYG.pdb
     RDKit          3D

 23 23  0  0  1  0  0  0  0  0999 V2000
   43.8982  -15.8998   -7.3692 N   0  0  0  0  0  0  0  0  0  0  0  0
   44.7717  -15.7480   -8.4882 C   0  0  1  0  0  0  0  0  0  0  0  0
   44.5534  -16.8601   -9.4856 C   0  0  0  0  0  0  0  0  0  0  0  0
   44.7609  -18.4709   -8.7213 S   0  0  0  0  0  0  0  0  0  0  0  0
   44.6503  -14.4445   -9.1650 C   0  0  0  0  0  0  0  0  0  0  0  0
   43.5414  -14.1440   -9.6759 O   0  0  0  0  0  0  0  0  0  0  0  0
   41.4557  -10.1074   -5.3706 O   0  0  0  0  0  0  0  0  0  0  0  0
   42.5468  -10.3751   -6.1838 C   0  0  0  0  0  0  0  0  0  0  0  0
   42.3799  -10.1985   -7.5363 C   0  0  0  0  0  0  0  0  0  0  0  0
   43.4450  -10.4533   -8.3999 C   0  0  0  0  0  0  0  0  0  0  0  0
   44.6693  -10.8804   -7.9334 C   0  0  0  0  0  0  0  0  0  0  0  0
   45.7434  -11.1604   -8.8676 C   0  0  0  0  0  0  0  0  0  0  0  0
   45.4919  -12.1922   -9.9288 C   0  0  2  0  0  0  0  0  0  0  0  0
   45.7015  -13.5039   -9.2794 N   0  0  0  0  0  0  0  0  0  0  0  0
   46.5336  -12.0674  -10.9683 C   0  0  0  0  0  0  0  0  0  0  0  0
   46.5195  -11.0568  -11.7483 O   0  0  0  0  0  0  0  0  0  0  0  0
   44.8084  -11.0492   -6.5713 C   0  0  0  0  0  0  0  0  0  0  0  0
   43.7485  -10.7962   -5.7046 C   0  0  0  0  0  0  0  0  0  0  0  0
   47.5818  -12.9909  -11.1862 N   0  0  0  0  0  0  0  0  0  0  0  0
   48.5463  -12.7620  -12.2456 C   0  0  0  0  0  0  0  0  0  0  0  0
   49.4139  -11.6086  -11.9752 C   0  0  0  0  0  0  0  0  0  0  0  0
   49.8230  -11.4330  -10.8074 O   0  0  0  0  0  0  0  0  0  0  0  0
   49.7653  -10.7414  -12.9954 O   0  0  0  0  0  0  0  0  0  0  0  0
  2  5  1  0
  2  1  1  1
  3  2  1  0
  4  3  1  0
  5  6  2  0
  8  7  1  0
  8 18  2  0
  9  8  1  0
 10  9  2  0
 10 11  1  0
 11 17  2  0
 12 11  1  0
 13 12  1  1
 14 13  1  0
 14  5  1  0
 15 19  1  0
 15 13  1  0
 16 15  2  0
 17 18  1  0
 20 21  1  0
 20 19  1  0
 21 23  1  0
 22 21  2  0
M  END
$$$$
