CYG.pdb
     RDKit          3D

 23 23  0  0  1  0  0  0  0  0999 V2000
   19.4083  -14.2121  -17.0338 N   0  0  0  0  0  0  0  0  0  0  0  0
   18.8565  -12.9431  -17.3854 C   0  0  1  0  0  0  0  0  0  0  0  0
   17.3741  -13.0635  -17.6450 C   0  0  0  0  0  0  0  0  0  0  0  0
   17.0453  -14.0868  -19.0825 S   0  0  0  0  0  0  0  0  0  0  0  0
   19.1001  -11.8903  -16.3833 C   0  0  0  0  0  0  0  0  0  0  0  0
   18.8053  -12.1338  -15.1855 O   0  0  0  0  0  0  0  0  0  0  0  0
   22.2859   -4.1003  -13.2645 O   0  0  0  0  0  0  0  0  0  0  0  0
   22.0113   -5.3204  -13.8638 C   0  0  0  0  0  0  0  0  0  0  0  0
   21.9017   -5.3364  -15.2335 C   0  0  0  0  0  0  0  0  0  0  0  0
   21.6265   -6.5370  -15.8877 C   0  0  0  0  0  0  0  0  0  0  0  0
   21.4599   -7.7170  -15.1957 C   0  0  0  0  0  0  0  0  0  0  0  0
   21.1479   -8.9394  -15.9120 C   0  0  0  0  0  0  0  0  0  0  0  0
   19.8291   -9.5970  -15.6256 C   0  0  2  0  0  0  0  0  0  0  0  0
   19.6458  -10.6184  -16.6789 N   0  0  0  0  0  0  0  0  0  0  0  0
   18.7527   -8.6033  -15.8129 C   0  0  0  0  0  0  0  0  0  0  0  0
   18.6545   -7.6275  -14.9955 O   0  0  0  0  0  0  0  0  0  0  0  0
   21.5754   -7.6715  -13.8217 C   0  0  0  0  0  0  0  0  0  0  0  0
   21.8500   -6.4757  -13.1636 C   0  0  0  0  0  0  0  0  0  0  0  0
   17.7906   -8.6299  -16.8486 N   0  0  0  0  0  0  0  0  0  0  0  0
   16.8855   -7.5108  -17.0316 C   0  0  0  0  0  0  0  0  0  0  0  0
   15.6096   -7.7004  -16.3299 C   0  0  0  0  0  0  0  0  0  0  0  0
   15.5892   -8.4395  -15.3223 O   0  0  0  0  0  0  0  0  0  0  0  0
   14.4616   -7.0716  -16.7805 O   0  0  0  0  0  0  0  0  0  0  0  0
  2  5  1  0
  2  1  1  1
  3  2  1  0
  4  3  1  0
  5  6  2  0
  8  7  1  0
  8 18  2  0
  9  8  1  0
 10  9  2  0
 10 11  1  0
 11 17  2  0
 12 11  1  0
 13 12  1  6
 14 13  1  0
 14  5  1  0
 15 19  1  0
 15 13  1  0
 16 15  2  0
 17 18  1  0
 20 21  1  0
 20 19  1  0
 21 23  1  0
 22 21  2  0
M  END
$$$$
