CYG.pdb
     RDKit          3D

 23 23  0  0  1  0  0  0  0  0999 V2000
   32.0569  -34.6315   -6.5888 N   0  0  0  0  0  0  0  0  0  0  0  0
   31.3181  -35.4271   -5.6617 C   0  0  1  0  0  0  0  0  0  0  0  0
   32.2307  -35.9818   -4.5945 C   0  0  0  0  0  0  0  0  0  0  0  0
   33.4188  -37.1348   -5.2878 S   0  0  0  0  0  0  0  0  0  0  0  0
   30.1933  -34.7143   -5.0304 C   0  0  0  0  0  0  0  0  0  0  0  0
   30.3272  -33.4860   -4.7974 O   0  0  0  0  0  0  0  0  0  0  0  0
   25.8335  -31.6603   -9.4750 O   0  0  0  0  0  0  0  0  0  0  0  0
   26.0553  -32.4862   -8.3831 C   0  0  0  0  0  0  0  0  0  0  0  0
   25.6089  -32.0442   -7.1609 C   0  0  0  0  0  0  0  0  0  0  0  0
   25.8058  -32.8354   -6.0294 C   0  0  0  0  0  0  0  0  0  0  0  0
   26.4397  -34.0569   -6.1013 C   0  0  0  0  0  0  0  0  0  0  0  0
   26.6487  -34.8371   -4.8962 C   0  0  0  0  0  0  0  0  0  0  0  0
   27.8665  -34.5332   -4.0725 C   0  0  2  0  0  0  0  0  0  0  0  0
   28.9675  -35.3210   -4.6670 N   0  0  0  0  0  0  0  0  0  0  0  0
   27.6610  -35.0619   -2.7089 C   0  0  0  0  0  0  0  0  0  0  0  0
   26.7221  -34.5831   -1.9883 O   0  0  0  0  0  0  0  0  0  0  0  0
   26.8773  -34.4755   -7.3409 C   0  0  0  0  0  0  0  0  0  0  0  0
   26.6834  -33.6896   -8.4737 C   0  0  0  0  0  0  0  0  0  0  0  0
   28.4298  -36.0847   -2.1073 N   0  0  0  0  0  0  0  0  0  0  0  0
   28.1926  -36.4579   -0.7254 C   0  0  0  0  0  0  0  0  0  0  0  0
   29.0281  -35.6974    0.2126 C   0  0  0  0  0  0  0  0  0  0  0  0
   28.9381  -35.9548    1.4323 O   0  0  0  0  0  0  0  0  0  0  0  0
   29.8922  -34.7206   -0.2516 O   0  0  0  0  0  0  0  0  0  0  0  0
  2  5  1  0
  2  1  1  6
  3  2  1  0
  4  3  1  0
  5  6  2  0
  8  7  1  0
  8 18  2  0
  9  8  1  0
 10  9  2  0
 10 11  1  0
 11 17  2  0
 12 11  1  0
 13 12  1  6
 14 13  1  0
 14  5  1  0
 15 19  1  0
 15 13  1  0
 16 15  2  0
 17 18  1  0
 20 21  1  0
 20 19  1  0
 21 23  1  0
 22 21  2  0
M  END
$$$$
