CYG.pdb
     RDKit          3D

 23 23  0  0  1  0  0  0  0  0999 V2000
   21.9489  -11.2604  -18.2996 N   0  0  0  0  0  0  0  0  0  0  0  0
   21.4403   -9.9299  -18.2027 C   0  0  1  0  0  0  0  0  0  0  0  0
   19.9381   -9.9246  -18.3536 C   0  0  0  0  0  0  0  0  0  0  0  0
   19.4433  -10.5289  -19.9696 S   0  0  0  0  0  0  0  0  0  0  0  0
   21.8155   -9.2391  -16.9562 C   0  0  0  0  0  0  0  0  0  0  0  0
   21.6974   -9.8667  -15.8731 O   0  0  0  0  0  0  0  0  0  0  0  0
   27.7978  -11.1704  -16.4619 O   0  0  0  0  0  0  0  0  0  0  0  0
   26.9139  -10.1074  -16.3508 C   0  0  0  0  0  0  0  0  0  0  0  0
   26.3578   -9.8801  -15.1150 C   0  0  0  0  0  0  0  0  0  0  0  0
   25.4622   -8.8241  -14.9473 C   0  0  0  0  0  0  0  0  0  0  0  0
   25.1159   -7.9955  -15.9925 C   0  0  0  0  0  0  0  0  0  0  0  0
   24.1598   -6.9248  -15.7823 C   0  0  0  0  0  0  0  0  0  0  0  0
   22.7168   -7.3030  -15.6130 C   0  0  2  0  0  0  0  0  0  0  0  0
   22.3019   -7.9114  -16.8952 N   0  0  0  0  0  0  0  0  0  0  0  0
   21.9185   -6.0706  -15.4556 C   0  0  0  0  0  0  0  0  0  0  0  0
   22.0877   -5.3450  -14.4188 O   0  0  0  0  0  0  0  0  0  0  0  0
   25.6894   -8.2470  -17.2218 C   0  0  0  0  0  0  0  0  0  0  0  0
   26.5839   -9.2998  -17.3947 C   0  0  0  0  0  0  0  0  0  0  0  0
   20.9545   -5.6011  -16.3772 N   0  0  0  0  0  0  0  0  0  0  0  0
   20.2696   -4.3445  -16.1390 C   0  0  0  0  0  0  0  0  0  0  0  0
   20.9602   -3.2036  -16.7536 C   0  0  0  0  0  0  0  0  0  0  0  0
   20.4661   -2.6930  -17.7818 O   0  0  0  0  0  0  0  0  0  0  0  0
   22.1300   -2.7116  -16.2006 O   0  0  0  0  0  0  0  0  0  0  0  0
  2  5  1  0
  2  1  1  1
  3  2  1  0
  4  3  1  0
  5  6  2  0
  8  7  1  0
  8 18  2  0
  9  8  1  0
 10  9  2  0
 10 11  1  0
 11 17  2  0
 12 11  1  0
 13 12  1  6
 14 13  1  0
 14  5  1  0
 15 19  1  0
 15 13  1  0
 16 15  2  0
 17 18  1  0
 20 21  1  0
 20 19  1  0
 21 23  1  0
 22 21  2  0
M  END
$$$$
