CYG.pdb
     RDKit          3D

 23 23  0  0  1  0  0  0  0  0999 V2000
   27.0162  -21.8283  -15.2177 N   0  0  0  0  0  0  0  0  0  0  0  0
   25.9700  -20.9027  -14.9223 C   0  0  1  0  0  0  0  0  0  0  0  0
   25.0314  -20.7712  -16.0976 C   0  0  0  0  0  0  0  0  0  0  0  0
   25.6632  -19.6071  -17.3089 S   0  0  0  0  0  0  0  0  0  0  0  0
   25.2022  -21.2398  -13.7104 C   0  0  0  0  0  0  0  0  0  0  0  0
   25.3011  -22.4067  -13.2527 O   0  0  0  0  0  0  0  0  0  0  0  0
   28.1817  -20.4156   -7.1449 O   0  0  0  0  0  0  0  0  0  0  0  0
   27.1831  -20.1940   -8.0814 C   0  0  0  0  0  0  0  0  0  0  0  0
   25.8891  -20.4377   -7.6886 C   0  0  0  0  0  0  0  0  0  0  0  0
   24.8458  -20.2313   -8.5910 C   0  0  0  0  0  0  0  0  0  0  0  0
   25.0762  -19.7868   -9.8749 C   0  0  0  0  0  0  0  0  0  0  0  0
   23.9653  -19.6106  -10.7912 C   0  0  0  0  0  0  0  0  0  0  0  0
   23.6834  -20.7182  -11.7647 C   0  0  2  0  0  0  0  0  0  0  0  0
   24.3576  -20.3354  -13.0238 N   0  0  0  0  0  0  0  0  0  0  0  0
   22.2352  -20.7387  -12.0537 C   0  0  0  0  0  0  0  0  0  0  0  0
   21.4088  -20.8940  -11.0930 O   0  0  0  0  0  0  0  0  0  0  0  0
   26.3849  -19.5503  -10.2419 C   0  0  0  0  0  0  0  0  0  0  0  0
   27.4301  -19.7547   -9.3451 C   0  0  0  0  0  0  0  0  0  0  0  0
   21.6583  -20.5947  -13.3365 N   0  0  0  0  0  0  0  0  0  0  0  0
   20.2220  -20.7088  -13.5068 C   0  0  0  0  0  0  0  0  0  0  0  0
   19.8034  -22.0761  -13.8411 C   0  0  0  0  0  0  0  0  0  0  0  0
   20.0595  -22.5139  -14.9833 O   0  0  0  0  0  0  0  0  0  0  0  0
   19.1414  -22.8545  -12.9071 O   0  0  0  0  0  0  0  0  0  0  0  0
  2  5  1  0
  2  1  1  6
  3  2  1  0
  4  3  1  0
  5  6  2  0
  8  7  1  0
  8 18  2  0
  9  8  1  0
 10  9  2  0
 10 11  1  0
 11 17  2  0
 12 11  1  0
 13 12  1  1
 14 13  1  0
 14  5  1  0
 15 19  1  0
 15 13  1  0
 16 15  2  0
 17 18  1  0
 20 21  1  0
 20 19  1  0
 21 23  1  0
 22 21  2  0
M  END
$$$$
