CYG.pdb
     RDKit          3D

 23 23  0  0  1  0  0  0  0  0999 V2000
   24.5912  -15.4303  -16.2778 N   0  0  0  0  0  0  0  0  0  0  0  0
   24.5771  -14.2134  -15.5312 C   0  0  1  0  0  0  0  0  0  0  0  0
   25.9082  -13.5094  -15.6404 C   0  0  0  0  0  0  0  0  0  0  0  0
   27.2063  -14.4392  -14.8206 S   0  0  0  0  0  0  0  0  0  0  0  0
   23.4952  -13.2906  -15.9183 C   0  0  0  0  0  0  0  0  0  0  0  0
   23.1294  -13.2790  -17.1212 O   0  0  0  0  0  0  0  0  0  0  0  0
   18.0841  -16.7713  -16.4100 O   0  0  0  0  0  0  0  0  0  0  0  0
   18.7035  -15.6214  -15.9436 C   0  0  0  0  0  0  0  0  0  0  0  0
   18.4724  -14.4584  -16.6381 C   0  0  0  0  0  0  0  0  0  0  0  0
   19.0705  -13.2725  -16.2123 C   0  0  0  0  0  0  0  0  0  0  0  0
   19.8928  -13.2324  -15.1072 C   0  0  0  0  0  0  0  0  0  0  0  0
   20.5171  -11.9834  -14.7134 C   0  0  0  0  0  0  0  0  0  0  0  0
   21.7319  -11.5412  -15.4767 C   0  0  2  0  0  0  0  0  0  0  0  0
   22.8372  -12.4129  -15.0241 N   0  0  0  0  0  0  0  0  0  0  0  0
   22.0817  -10.1688  -15.0582 C   0  0  0  0  0  0  0  0  0  0  0  0
   22.5529   -9.9737  -13.8877 O   0  0  0  0  0  0  0  0  0  0  0  0
   20.1071  -14.4147  -14.4294 C   0  0  0  0  0  0  0  0  0  0  0  0
   19.5125  -15.6013  -14.8500 C   0  0  0  0  0  0  0  0  0  0  0  0
   21.9422   -9.0123  -15.8595 N   0  0  0  0  0  0  0  0  0  0  0  0
   22.3322   -7.7147  -15.3408 C   0  0  0  0  0  0  0  0  0  0  0  0
   21.1761   -6.8747  -15.0028 C   0  0  0  0  0  0  0  0  0  0  0  0
   21.3853   -5.7176  -14.5792 O   0  0  0  0  0  0  0  0  0  0  0  0
   19.8887   -7.3609  -15.1530 O   0  0  0  0  0  0  0  0  0  0  0  0
  2  5  1  0
  2  1  1  6
  3  2  1  0
  4  3  1  0
  5  6  2  0
  8  7  1  0
  8 18  2  0
  9  8  1  0
 10  9  2  0
 10 11  1  0
 11 17  2  0
 12 11  1  0
 13 12  1  1
 14 13  1  0
 14  5  1  0
 15 19  1  0
 15 13  1  0
 16 15  2  0
 17 18  1  0
 20 21  1  0
 20 19  1  0
 21 23  1  0
 22 21  2  0
M  END
$$$$
