CYG.pdb
     RDKit          3D

 23 23  0  0  1  0  0  0  0  0999 V2000
   27.3983  -19.0337  -17.4369 N   0  0  0  0  0  0  0  0  0  0  0  0
   26.0447  -18.7423  -17.0888 C   0  0  1  0  0  0  0  0  0  0  0  0
   25.1639  -18.7734  -18.3147 C   0  0  0  0  0  0  0  0  0  0  0  0
   25.0654  -17.1563  -19.0874 S   0  0  0  0  0  0  0  0  0  0  0  0
   25.4900  -19.6369  -16.0573 C   0  0  0  0  0  0  0  0  0  0  0  0
   25.8099  -20.8523  -16.0940 O   0  0  0  0  0  0  0  0  0  0  0  0
   30.0114  -21.1635  -11.4571 O   0  0  0  0  0  0  0  0  0  0  0  0
   28.6889  -20.8568  -11.7406 C   0  0  0  0  0  0  0  0  0  0  0  0
   28.4489  -19.6953  -12.4345 C   0  0  0  0  0  0  0  0  0  0  0  0
   27.1370  -19.3387  -12.7460 C   0  0  0  0  0  0  0  0  0  0  0  0
   26.0661  -20.1229  -12.3756 C   0  0  0  0  0  0  0  0  0  0  0  0
   24.7150  -19.7024  -12.6957 C   0  0  0  0  0  0  0  0  0  0  0  0
   24.1315  -20.1668  -13.9987 C   0  0  2  0  0  0  0  0  0  0  0  0
   24.6181  -19.2190  -15.0239 N   0  0  0  0  0  0  0  0  0  0  0  0
   22.6640  -20.0093  -13.9445 C   0  0  0  0  0  0  0  0  0  0  0  0
   22.1668  -18.8468  -13.7674 O   0  0  0  0  0  0  0  0  0  0  0  0
   26.3366  -21.2831  -11.6800 C   0  0  0  0  0  0  0  0  0  0  0  0
   27.6442  -21.6439  -11.3664 C   0  0  0  0  0  0  0  0  0  0  0  0
   21.7265  -21.0593  -14.0777 N   0  0  0  0  0  0  0  0  0  0  0  0
   20.3085  -20.7945  -13.9223 C   0  0  0  0  0  0  0  0  0  0  0  0
   19.7211  -21.5274  -12.7936 C   0  0  0  0  0  0  0  0  0  0  0  0
   18.5155  -21.3377  -12.5243 O   0  0  0  0  0  0  0  0  0  0  0  0
   20.4915  -22.4057  -12.0510 O   0  0  0  0  0  0  0  0  0  0  0  0
  2  5  1  0
  2  1  1  6
  3  2  1  0
  4  3  1  0
  5  6  2  0
  8  7  1  0
  8 18  2  0
  9  8  1  0
 10  9  2  0
 10 11  1  0
 11 17  2  0
 12 11  1  0
 13 12  1  1
 14 13  1  0
 14  5  1  0
 15 19  1  0
 15 13  1  0
 16 15  2  0
 17 18  1  0
 20 21  1  0
 20 19  1  0
 21 23  1  0
 22 21  2  0
M  END
$$$$
