CYG.pdb
     RDKit          3D

 23 23  0  0  1  0  0  0  0  0999 V2000
   21.2255  -12.9970  -16.4759 N   0  0  0  0  0  0  0  0  0  0  0  0
   20.9502  -11.6456  -16.8452 C   0  0  1  0  0  0  0  0  0  0  0  0
   19.4641  -11.4319  -17.0036 C   0  0  0  0  0  0  0  0  0  0  0  0
   18.8069  -12.4048  -18.3612 S   0  0  0  0  0  0  0  0  0  0  0  0
   21.4969  -10.6495  -15.9066 C   0  0  0  0  0  0  0  0  0  0  0  0
   21.5154  -10.9372  -14.6828 O   0  0  0  0  0  0  0  0  0  0  0  0
   28.0756  -11.7395  -16.7407 O   0  0  0  0  0  0  0  0  0  0  0  0
   27.0548  -10.8360  -16.4852 C   0  0  0  0  0  0  0  0  0  0  0  0
   26.4413  -10.2587  -17.5708 C   0  0  0  0  0  0  0  0  0  0  0  0
   25.4085   -9.3430  -17.3709 C   0  0  0  0  0  0  0  0  0  0  0  0
   24.9817   -8.9973  -16.1070 C   0  0  0  0  0  0  0  0  0  0  0  0
   23.9222   -8.0202  -15.9417 C   0  0  0  0  0  0  0  0  0  0  0  0
   22.6414   -8.4821  -15.3091 C   0  0  2  0  0  0  0  0  0  0  0  0
   22.0046   -9.3856  -16.2911 N   0  0  0  0  0  0  0  0  0  0  0  0
   21.7401   -7.3217  -15.1604 C   0  0  0  0  0  0  0  0  0  0  0  0
   22.0634   -6.3778  -14.3639 O   0  0  0  0  0  0  0  0  0  0  0  0
   25.6155   -9.5924  -15.0358 C   0  0  0  0  0  0  0  0  0  0  0  0
   26.6471  -10.5071  -15.2296 C   0  0  0  0  0  0  0  0  0  0  0  0
   20.5134   -7.1504  -15.8423 N   0  0  0  0  0  0  0  0  0  0  0  0
   19.7366   -5.9399  -15.6520 C   0  0  0  0  0  0  0  0  0  0  0  0
   19.9683   -4.9517  -16.7132 C   0  0  0  0  0  0  0  0  0  0  0  0
   19.0015   -4.6070  -17.4262 O   0  0  0  0  0  0  0  0  0  0  0  0
   21.2307   -4.4197  -16.9120 O   0  0  0  0  0  0  0  0  0  0  0  0
  2  5  1  0
  2  1  1  1
  3  2  1  0
  4  3  1  0
  5  6  2  0
  8  7  1  0
  8 18  2  0
  9  8  1  0
 10  9  2  0
 10 11  1  0
 11 17  2  0
 12 11  1  0
 13 12  1  6
 14 13  1  0
 14  5  1  0
 15 19  1  0
 15 13  1  0
 16 15  2  0
 17 18  1  0
 20 21  1  0
 20 19  1  0
 21 23  1  0
 22 21  2  0
M  END
$$$$
