CYG.pdb
     RDKit          3D

 23 23  0  0  1  0  0  0  0  0999 V2000
   24.8486  -20.5567   -7.8935 N   0  0  0  0  0  0  0  0  0  0  0  0
   25.9937  -19.9210   -8.4619 C   0  0  1  0  0  0  0  0  0  0  0  0
   27.2406  -20.2919   -7.6956 C   0  0  0  0  0  0  0  0  0  0  0  0
   27.2076  -19.6186   -6.0321 S   0  0  0  0  0  0  0  0  0  0  0  0
   26.1867  -20.2128   -9.8935 C   0  0  0  0  0  0  0  0  0  0  0  0
   27.2173  -19.7624  -10.4556 O   0  0  0  0  0  0  0  0  0  0  0  0
   26.6081  -24.1150  -17.7467 O   0  0  0  0  0  0  0  0  0  0  0  0
   26.4783  -23.6804  -16.4360 C   0  0  0  0  0  0  0  0  0  0  0  0
   25.5621  -24.3326  -15.6464 C   0  0  0  0  0  0  0  0  0  0  0  0
   25.3911  -23.9361  -14.3202 C   0  0  0  0  0  0  0  0  0  0  0  0
   26.1196  -22.9017  -13.7740 C   0  0  0  0  0  0  0  0  0  0  0  0
   25.8922  -22.5027  -12.3979 C   0  0  0  0  0  0  0  0  0  0  0  0
   25.4601  -21.0872  -12.1456 C   0  0  2  0  0  0  0  0  0  0  0  0
   25.2869  -20.9687  -10.6820 N   0  0  0  0  0  0  0  0  0  0  0  0
   24.1251  -20.8848  -12.7439 C   0  0  0  0  0  0  0  0  0  0  0  0
   23.0891  -21.2677  -12.1034 O   0  0  0  0  0  0  0  0  0  0  0  0
   27.0321  -22.2650  -14.5897 C   0  0  0  0  0  0  0  0  0  0  0  0
   27.2068  -22.6567  -15.9143 C   0  0  0  0  0  0  0  0  0  0  0  0
   23.8777  -20.2841  -13.9997 N   0  0  0  0  0  0  0  0  0  0  0  0
   22.5155  -20.0390  -14.4348 C   0  0  0  0  0  0  0  0  0  0  0  0
   21.9296  -21.1958  -15.1238 C   0  0  0  0  0  0  0  0  0  0  0  0
   22.4703  -22.3128  -14.9755 O   0  0  0  0  0  0  0  0  0  0  0  0
   20.8051  -21.0438  -15.9167 O   0  0  0  0  0  0  0  0  0  0  0  0
  2  5  1  0
  2  1  1  1
  3  2  1  0
  4  3  1  0
  5  6  2  0
  8  7  1  0
  8 18  2  0
  9  8  1  0
 10  9  2  0
 10 11  1  0
 11 17  2  0
 12 11  1  0
 13 12  1  1
 14 13  1  0
 14  5  1  0
 15 19  1  0
 15 13  1  0
 16 15  2  0
 17 18  1  0
 20 21  1  0
 20 19  1  0
 21 23  1  0
 22 21  2  0
M  END
$$$$
