CYG.pdb
     RDKit          3D

 23 23  0  0  1  0  0  0  0  0999 V2000
   28.5380  -23.0741  -17.4154 N   0  0  0  0  0  0  0  0  0  0  0  0
   27.8727  -21.9096  -16.9258 C   0  0  1  0  0  0  0  0  0  0  0  0
   26.8270  -21.4436  -17.9101 C   0  0  0  0  0  0  0  0  0  0  0  0
   27.5815  -20.7935  -19.4034 S   0  0  0  0  0  0  0  0  0  0  0  0
   27.2584  -22.0893  -15.5983 C   0  0  0  0  0  0  0  0  0  0  0  0
   26.9402  -23.2536  -15.2463 O   0  0  0  0  0  0  0  0  0  0  0  0
   26.4274  -20.7653   -6.8917 O   0  0  0  0  0  0  0  0  0  0  0  0
   26.4856  -20.6002   -8.2675 C   0  0  0  0  0  0  0  0  0  0  0  0
   27.6181  -21.0454   -8.9057 C   0  0  0  0  0  0  0  0  0  0  0  0
   27.7289  -20.9040  -10.2888 C   0  0  0  0  0  0  0  0  0  0  0  0
   26.7283  -20.3266  -11.0402 C   0  0  0  0  0  0  0  0  0  0  0  0
   26.8944  -20.1739  -12.4733 C   0  0  0  0  0  0  0  0  0  0  0  0
   26.4265  -21.2976  -13.3521 C   0  0  2  0  0  0  0  0  0  0  0  0
   27.0013  -21.0358  -14.6890 N   0  0  0  0  0  0  0  0  0  0  0  0
   24.9600  -21.2048  -13.5004 C   0  0  0  0  0  0  0  0  0  0  0  0
   24.4661  -20.3313  -14.2898 O   0  0  0  0  0  0  0  0  0  0  0  0
   25.6029  -19.8887  -10.3732 C   0  0  0  0  0  0  0  0  0  0  0  0
   25.4871  -20.0274   -8.9926 C   0  0  0  0  0  0  0  0  0  0  0  0
   24.0202  -22.0217  -12.8307 N   0  0  0  0  0  0  0  0  0  0  0  0
   22.5992  -21.8291  -13.0510 C   0  0  0  0  0  0  0  0  0  0  0  0
   21.9854  -20.9661  -12.0336 C   0  0  0  0  0  0  0  0  0  0  0  0
   22.7209  -20.1811  -11.3974 O   0  0  0  0  0  0  0  0  0  0  0  0
   20.6238  -21.0272  -11.7916 O   0  0  0  0  0  0  0  0  0  0  0  0
  2  5  1  0
  2  1  1  6
  3  2  1  0
  4  3  1  0
  5  6  2  0
  8  7  1  0
  8 18  2  0
  9  8  1  0
 10  9  2  0
 10 11  1  0
 11 17  2  0
 12 11  1  0
 13 12  1  1
 14 13  1  0
 14  5  1  0
 15 19  1  0
 15 13  1  0
 16 15  2  0
 17 18  1  0
 20 21  1  0
 20 19  1  0
 21 23  1  0
 22 21  2  0
M  END
$$$$
