CYG.pdb
     RDKit          3D

 23 23  0  0  1  0  0  0  0  0999 V2000
   21.4671  -19.6994  -12.0963 N   0  0  0  0  0  0  0  0  0  0  0  0
   22.2644  -20.8762  -12.2300 C   0  0  1  0  0  0  0  0  0  0  0  0
   21.7649  -21.7277  -13.3723 C   0  0  0  0  0  0  0  0  0  0  0  0
   20.2403  -22.5699  -12.9391 S   0  0  0  0  0  0  0  0  0  0  0  0
   23.7019  -20.6037  -12.4068 C   0  0  0  0  0  0  0  0  0  0  0  0
   24.0378  -19.5007  -12.9082 O   0  0  0  0  0  0  0  0  0  0  0  0
   27.0354  -19.0587   -6.1062 O   0  0  0  0  0  0  0  0  0  0  0  0
   27.0526  -19.7329   -7.3181 C   0  0  0  0  0  0  0  0  0  0  0  0
   25.8432  -19.9469   -7.9345 C   0  0  0  0  0  0  0  0  0  0  0  0
   25.8029  -20.6199   -9.1553 C   0  0  0  0  0  0  0  0  0  0  0  0
   26.9490  -21.0804   -9.7665 C   0  0  0  0  0  0  0  0  0  0  0  0
   26.8612  -21.7997  -11.0233 C   0  0  0  0  0  0  0  0  0  0  0  0
   26.1587  -21.1237  -12.1650 C   0  0  2  0  0  0  0  0  0  0  0  0
   24.7343  -21.5031  -12.0490 N   0  0  0  0  0  0  0  0  0  0  0  0
   26.6457  -21.7044  -13.4325 C   0  0  0  0  0  0  0  0  0  0  0  0
   26.1226  -22.7854  -13.8660 O   0  0  0  0  0  0  0  0  0  0  0  0
   28.1489  -20.8516   -9.1252 C   0  0  0  0  0  0  0  0  0  0  0  0
   28.1948  -20.1802   -7.9064 C   0  0  0  0  0  0  0  0  0  0  0  0
   27.6686  -21.1559  -14.2399 N   0  0  0  0  0  0  0  0  0  0  0  0
   28.0591  -21.8171  -15.4709 C   0  0  0  0  0  0  0  0  0  0  0  0
   27.4795  -21.1784  -16.6593 C   0  0  0  0  0  0  0  0  0  0  0  0
   26.2957  -20.7815  -16.6035 O   0  0  0  0  0  0  0  0  0  0  0  0
   28.2335  -21.0236  -17.8099 O   0  0  0  0  0  0  0  0  0  0  0  0
  2  5  1  0
  2  1  1  6
  3  2  1  0
  4  3  1  0
  5  6  2  0
  8  7  1  0
  8 18  2  0
  9  8  1  0
 10  9  2  0
 10 11  1  0
 11 17  2  0
 12 11  1  0
 13 12  1  1
 14 13  1  0
 14  5  1  0
 15 19  1  0
 15 13  1  0
 16 15  2  0
 17 18  1  0
 20 21  1  0
 20 19  1  0
 21 23  1  0
 22 21  2  0
M  END
$$$$
