CYG.pdb
     RDKit          3D

 23 23  0  0  1  0  0  0  0  0999 V2000
   22.7347  -12.4216   11.3750 N   0  0  0  0  0  0  0  0  0  0  0  0
   23.2314  -13.7562   11.4775 C   0  0  1  0  0  0  0  0  0  0  0  0
   23.5481  -14.0949   12.9143 C   0  0  0  0  0  0  0  0  0  0  0  0
   24.4036  -15.6678   13.0397 S   0  0  0  0  0  0  0  0  0  0  0  0
   22.3239  -14.7732   10.9171 C   0  0  0  0  0  0  0  0  0  0  0  0
   21.0889  -14.5380   10.9340 O   0  0  0  0  0  0  0  0  0  0  0  0
   17.8416  -19.6479    5.5145 O   0  0  0  0  0  0  0  0  0  0  0  0
   18.8923  -19.0445    6.1893 C   0  0  0  0  0  0  0  0  0  0  0  0
   18.5825  -18.3250    7.3182 C   0  0  0  0  0  0  0  0  0  0  0  0
   19.6010  -17.6975    8.0352 C   0  0  0  0  0  0  0  0  0  0  0  0
   20.9193  -17.7784    7.6418 C   0  0  0  0  0  0  0  0  0  0  0  0
   21.9456  -17.0886    8.4004 C   0  0  0  0  0  0  0  0  0  0  0  0
   21.7770  -17.0117    9.8902 C   0  0  2  0  0  0  0  0  0  0  0  0
   22.7501  -16.0019   10.3589 N   0  0  0  0  0  0  0  0  0  0  0  0
   22.1913  -18.2999   10.4818 C   0  0  0  0  0  0  0  0  0  0  0  0
   23.4166  -18.6525   10.4151 O   0  0  0  0  0  0  0  0  0  0  0  0
   21.2012  -18.5073    6.5049 C   0  0  0  0  0  0  0  0  0  0  0  0
   20.1883  -19.1356    5.7854 C   0  0  0  0  0  0  0  0  0  0  0  0
   21.3308  -19.2085   11.1398 N   0  0  0  0  0  0  0  0  0  0  0  0
   21.8604  -20.4356   11.7044 C   0  0  0  0  0  0  0  0  0  0  0  0
   21.4333  -21.6265   10.9590 C   0  0  0  0  0  0  0  0  0  0  0  0
   20.6808  -21.4728    9.9731 O   0  0  0  0  0  0  0  0  0  0  0  0
   21.8590  -22.8856   11.3461 O   0  0  0  0  0  0  0  0  0  0  0  0
  2  5  1  0
  2  1  1  1
  3  2  1  0
  4  3  1  0
  5  6  2  0
  8  7  1  0
  8 18  2  0
  9  8  1  0
 10  9  2  0
 10 11  1  0
 11 17  2  0
 12 11  1  0
 13 12  1  6
 14 13  1  0
 14  5  1  0
 15 19  1  0
 15 13  1  0
 16 15  2  0
 17 18  1  0
 20 21  1  0
 20 19  1  0
 21 23  1  0
 22 21  2  0
M  END
$$$$
