NFH.pdb
     RDKit          3D

 30 31  0  0  1  0  0  0  0  0999 V2000
   12.9329  -19.1017    2.5463 N   0  0  0  0  0  0  0  0  0  0  0  0
   13.5624  -20.3707    2.3616 C   0  0  0  0  0  0  0  0  0  0  0  0
   12.9414  -21.2996    1.8038 O   0  0  0  0  0  0  0  0  0  0  0  0
   14.9598  -20.5266    2.8546 C   0  0  0  0  0  0  0  0  0  0  0  0
   15.7349  -19.2578    2.5551 C   0  0  2  0  0  0  0  0  0  0  0  0
   16.1024  -19.2474    1.1643 N   0  0  0  0  0  0  0  0  0  0  0  0
   16.9676  -19.1673    3.3762 C   0  0  0  0  0  0  0  0  0  0  0  0
   17.8106  -20.1109    3.4066 O   0  0  0  0  0  0  0  0  0  0  0  0
   17.2617  -18.0129    4.1704 N   0  0  0  0  0  0  0  0  0  0  0  0
   18.4335  -17.9076    4.9927 C   0  0  1  0  0  0  0  0  0  0  0  0
   19.0647  -16.5489    4.7900 C   0  0  0  0  0  0  0  0  0  0  0  0
   19.6906  -16.4349    3.4508 C   0  0  0  0  0  0  0  0  0  0  0  0
   19.2236  -15.5862    2.4787 C   0  0  0  0  0  0  0  0  0  0  0  0
   19.8246  -15.5041    1.2504 C   0  0  0  0  0  0  0  0  0  0  0  0
   20.9318  -16.3013    0.9897 C   0  0  0  0  0  0  0  0  0  0  0  0
   21.4197  -17.1559    1.9375 C   0  0  0  0  0  0  0  0  0  0  0  0
   20.7922  -17.2119    3.1573 C   0  0  0  0  0  0  0  0  0  0  0  0
   18.0949  -18.0156    6.4515 C   0  0  0  0  0  0  0  0  0  0  0  0
   16.9277  -17.7003    6.7872 O   0  0  0  0  0  0  0  0  0  0  0  0
   19.1075  -18.4622    7.3418 N   0  0  0  0  0  0  0  0  0  0  0  0
   18.7291  -18.5477    8.7664 C   0  0  1  0  0  0  0  0  0  0  0  0
   17.5872  -19.4755    8.8203 C   0  0  0  0  0  0  0  0  0  0  0  0
   17.1258  -19.9126   10.1344 C   0  0  0  0  0  0  0  0  0  0  0  0
   16.4061  -19.0327   10.9555 C   0  0  0  0  0  0  0  0  0  0  0  0
   16.1143  -19.6866   12.0835 N   0  0  0  0  0  0  0  0  0  0  0  0
   16.6089  -20.9351   12.0256 C   0  0  0  0  0  0  0  0  0  0  0  0
   17.2139  -21.0337   10.8310 N   0  0  0  0  0  0  0  0  0  0  0  0
   19.8906  -18.8349    9.5942 C   0  0  0  0  0  0  0  0  0  0  0  0
   20.8457  -19.7420    9.1875 O   0  0  0  0  0  0  0  0  0  0  0  0
   20.0587  -18.2721   10.6915 O   0  0  0  0  0  0  0  0  0  0  0  0
  1  2  1  0
  2  3  2  0
  4  2  1  0
  4  5  1  0
  5  7  1  0
  5  6  1  6
  7  8  2  0
  9 10  1  0
  9  7  1  0
 10 11  1  1
 12 13  2  0
 12 11  1  0
 14 13  1  0
 15 14  2  0
 16 15  1  0
 16 17  2  0
 17 12  1  0
 18 10  1  0
 19 18  2  0
 20 18  1  0
 21 22  1  6
 21 20  1  0
 23 22  1  0
 24 23  2  0
 25 26  1  0
 25 24  1  0
 26 27  2  0
 27 23  1  0
 28 29  1  0
 28 21  1  0
 30 28  2  0
M  END
$$$$
