NFH.pdb
     RDKit          3D

 30 31  0  0  1  0  0  0  0  0999 V2000
   29.6988  -18.7100  -15.5688 N   0  0  0  0  0  0  0  0  0  0  0  0
   28.3631  -18.5677  -16.0550 C   0  0  0  0  0  0  0  0  0  0  0  0
   28.1178  -17.7622  -16.9773 O   0  0  0  0  0  0  0  0  0  0  0  0
   27.3054  -19.4059  -15.4236 C   0  0  0  0  0  0  0  0  0  0  0  0
   27.9326  -20.2600  -14.3385 C   0  0  2  0  0  0  0  0  0  0  0  0
   28.7653  -21.2613  -14.9495 N   0  0  0  0  0  0  0  0  0  0  0  0
   26.9004  -20.9349  -13.5133 C   0  0  0  0  0  0  0  0  0  0  0  0
   26.3611  -22.0173  -13.8870 O   0  0  0  0  0  0  0  0  0  0  0  0
   26.4663  -20.3965  -12.2597 N   0  0  0  0  0  0  0  0  0  0  0  0
   25.2947  -20.8611  -11.5729 C   0  0  1  0  0  0  0  0  0  0  0  0
   25.3651  -20.4374  -10.1234 C   0  0  0  0  0  0  0  0  0  0  0  0
   26.7104  -20.6823   -9.5505 C   0  0  0  0  0  0  0  0  0  0  0  0
   27.6517  -21.4688  -10.1661 C   0  0  0  0  0  0  0  0  0  0  0  0
   28.8866  -21.6756   -9.6105 C   0  0  0  0  0  0  0  0  0  0  0  0
   29.1864  -21.0723   -8.3958 C   0  0  0  0  0  0  0  0  0  0  0  0
   28.2699  -20.2839   -7.7591 C   0  0  0  0  0  0  0  0  0  0  0  0
   27.0424  -20.0988   -8.3452 C   0  0  0  0  0  0  0  0  0  0  0  0
   24.0449  -20.2544  -12.1422 C   0  0  0  0  0  0  0  0  0  0  0  0
   24.1892  -19.4404  -13.0862 O   0  0  0  0  0  0  0  0  0  0  0  0
   22.7985  -20.6388  -11.5798 N   0  0  0  0  0  0  0  0  0  0  0  0
   21.6649  -20.7413  -12.5201 C   0  0  1  0  0  0  0  0  0  0  0  0
   22.0868  -21.7061  -13.5492 C   0  0  0  0  0  0  0  0  0  0  0  0
   21.1314  -22.0428  -14.6002 C   0  0  0  0  0  0  0  0  0  0  0  0
   19.8466  -21.4809  -14.5888 C   0  0  0  0  0  0  0  0  0  0  0  0
   19.1927  -21.9565  -15.6525 N   0  0  0  0  0  0  0  0  0  0  0  0
   19.9909  -22.7906  -16.3407 C   0  0  0  0  0  0  0  0  0  0  0  0
   21.1554  -22.8167  -15.6726 N   0  0  0  0  0  0  0  0  0  0  0  0
   20.4219  -20.9931  -11.8071 C   0  0  0  0  0  0  0  0  0  0  0  0
   19.2486  -20.3763  -12.1856 O   0  0  0  0  0  0  0  0  0  0  0  0
   20.3785  -21.7714  -10.8368 O   0  0  0  0  0  0  0  0  0  0  0  0
  1  2  1  0
  2  3  2  0
  4  2  1  0
  4  5  1  0
  5  7  1  0
  5  6  1  6
  7  8  2  0
  9 10  1  0
  9  7  1  0
 10 11  1  1
 12 13  2  0
 12 11  1  0
 14 13  1  0
 15 14  2  0
 16 15  1  0
 16 17  2  0
 17 12  1  0
 18 10  1  0
 19 18  2  0
 20 18  1  0
 21 22  1  6
 21 20  1  0
 23 22  1  0
 24 23  2  0
 25 26  1  0
 25 24  1  0
 26 27  2  0
 27 23  1  0
 28 29  1  0
 28 21  1  0
 30 28  2  0
M  END
$$$$
