NFH.pdb
     RDKit          3D

 30 31  0  0  1  0  0  0  0  0999 V2000
   26.1495  -22.6646  -20.8918 N   0  0  0  0  0  0  0  0  0  0  0  0
   26.2265  -21.7648  -19.7849 C   0  0  0  0  0  0  0  0  0  0  0  0
   26.8278  -20.6770  -19.9062 O   0  0  0  0  0  0  0  0  0  0  0  0
   25.5709  -22.1780  -18.5122 C   0  0  0  0  0  0  0  0  0  0  0  0
   26.6304  -22.3369  -17.4385 C   0  0  2  0  0  0  0  0  0  0  0  0
   27.3646  -23.5507  -17.6771 N   0  0  0  0  0  0  0  0  0  0  0  0
   26.0266  -22.4014  -16.0846 C   0  0  0  0  0  0  0  0  0  0  0  0
   25.4367  -23.4435  -15.6744 O   0  0  0  0  0  0  0  0  0  0  0  0
   26.0817  -21.2926  -15.1806 N   0  0  0  0  0  0  0  0  0  0  0  0
   25.4647  -21.3089  -13.8847 C   0  0  1  0  0  0  0  0  0  0  0  0
   26.1667  -20.3170  -12.9853 C   0  0  0  0  0  0  0  0  0  0  0  0
   25.6014  -20.3315  -11.6149 C   0  0  0  0  0  0  0  0  0  0  0  0
   24.5145  -19.5781  -11.2480 C   0  0  0  0  0  0  0  0  0  0  0  0
   24.0157  -19.6138   -9.9727 C   0  0  0  0  0  0  0  0  0  0  0  0
   24.6291  -20.4337   -9.0342 C   0  0  0  0  0  0  0  0  0  0  0  0
   25.7128  -21.1952   -9.3696 C   0  0  0  0  0  0  0  0  0  0  0  0
   26.1855  -21.1344  -10.6570 C   0  0  0  0  0  0  0  0  0  0  0  0
   24.0250  -20.8885  -13.9542 C   0  0  0  0  0  0  0  0  0  0  0  0
   23.7694  -19.8478  -14.6070 O   0  0  0  0  0  0  0  0  0  0  0  0
   23.0615  -21.6884  -13.2839 N   0  0  0  0  0  0  0  0  0  0  0  0
   21.6704  -21.1949  -13.3170 C   0  0  1  0  0  0  0  0  0  0  0  0
   20.8358  -22.3744  -13.5996 C   0  0  0  0  0  0  0  0  0  0  0  0
   20.4723  -22.6349  -14.9891 C   0  0  0  0  0  0  0  0  0  0  0  0
   20.8135  -21.7136  -15.9897 C   0  0  0  0  0  0  0  0  0  0  0  0
   20.3642  -22.1991  -17.1505 N   0  0  0  0  0  0  0  0  0  0  0  0
   19.7553  -23.3795  -16.9438 C   0  0  0  0  0  0  0  0  0  0  0  0
   19.8413  -23.6090  -15.6236 N   0  0  0  0  0  0  0  0  0  0  0  0
   21.3721  -20.4075  -12.1304 C   0  0  0  0  0  0  0  0  0  0  0  0
   21.6458  -20.8921  -10.8692 O   0  0  0  0  0  0  0  0  0  0  0  0
   20.8631  -19.2749  -12.2161 O   0  0  0  0  0  0  0  0  0  0  0  0
  1  2  1  0
  2  3  2  0
  4  2  1  0
  4  5  1  0
  5  7  1  0
  5  6  1  6
  7  8  2  0
  9 10  1  0
  9  7  1  0
 10 11  1  1
 12 13  2  0
 12 11  1  0
 14 13  1  0
 15 14  2  0
 16 15  1  0
 16 17  2  0
 17 12  1  0
 18 10  1  0
 19 18  2  0
 20 18  1  0
 21 22  1  1
 21 20  1  0
 23 22  1  0
 24 23  2  0
 25 26  1  0
 25 24  1  0
 26 27  2  0
 27 23  1  0
 28 29  1  0
 28 21  1  0
 30 28  2  0
M  END
$$$$
