NFH.pdb
     RDKit          3D

 30 31  0  0  1  0  0  0  0  0999 V2000
   25.6050  -11.4296  -23.8749 N   0  0  0  0  0  0  0  0  0  0  0  0
   26.1895  -11.0217  -22.6370 C   0  0  0  0  0  0  0  0  0  0  0  0
   27.3497  -10.5599  -22.6174 O   0  0  0  0  0  0  0  0  0  0  0  0
   25.3678  -11.1708  -21.4030 C   0  0  0  0  0  0  0  0  0  0  0  0
   26.2660  -11.6005  -20.2589 C   0  0  2  0  0  0  0  0  0  0  0  0
   26.5349  -13.0089  -20.3745 N   0  0  0  0  0  0  0  0  0  0  0  0
   25.6316  -11.3411  -18.9429 C   0  0  0  0  0  0  0  0  0  0  0  0
   24.7693  -12.1314  -18.4591 O   0  0  0  0  0  0  0  0  0  0  0  0
   25.9627  -10.1891  -18.1599 N   0  0  0  0  0  0  0  0  0  0  0  0
   25.4408   -9.9631  -16.8421 C   0  0  1  0  0  0  0  0  0  0  0  0
   26.5877   -9.8553  -15.8629 C   0  0  0  0  0  0  0  0  0  0  0  0
   27.3022  -11.1463  -15.7190 C   0  0  0  0  0  0  0  0  0  0  0  0
   26.8517  -12.1629  -14.9145 C   0  0  0  0  0  0  0  0  0  0  0  0
   27.5354  -13.3447  -14.8029 C   0  0  0  0  0  0  0  0  0  0  0  0
   28.7111  -13.5112  -15.5235 C   0  0  0  0  0  0  0  0  0  0  0  0
   29.1847  -12.5173  -16.3326 C   0  0  0  0  0  0  0  0  0  0  0  0
   28.4735  -11.3463  -16.4201 C   0  0  0  0  0  0  0  0  0  0  0  0
   24.6808   -8.6706  -16.7641 C   0  0  0  0  0  0  0  0  0  0  0  0
   25.0024   -7.7739  -17.5808 O   0  0  0  0  0  0  0  0  0  0  0  0
   23.6610   -8.5524  -15.7824 N   0  0  0  0  0  0  0  0  0  0  0  0
   22.7057   -7.4422  -15.9678 C   0  0  1  0  0  0  0  0  0  0  0  0
   22.2104   -7.5691  -17.3485 C   0  0  0  0  0  0  0  0  0  0  0  0
   21.2595   -6.5698  -17.8259 C   0  0  0  0  0  0  0  0  0  0  0  0
   20.8899   -5.4993  -16.9990 C   0  0  0  0  0  0  0  0  0  0  0  0
   20.0194   -4.7492  -17.6808 N   0  0  0  0  0  0  0  0  0  0  0  0
   19.8144   -5.2837  -18.8969 C   0  0  0  0  0  0  0  0  0  0  0  0
   20.5823   -6.3841  -18.9469 N   0  0  0  0  0  0  0  0  0  0  0  0
   21.7327   -7.4104  -14.8865 C   0  0  0  0  0  0  0  0  0  0  0  0
   21.1901   -6.2191  -14.4543 O   0  0  0  0  0  0  0  0  0  0  0  0
   21.3601   -8.4541  -14.3200 O   0  0  0  0  0  0  0  0  0  0  0  0
  1  2  1  0
  2  3  2  0
  4  2  1  0
  4  5  1  0
  5  7  1  0
  5  6  1  6
  7  8  2  0
  9 10  1  0
  9  7  1  0
 10 11  1  1
 12 13  2  0
 12 11  1  0
 14 13  1  0
 15 14  2  0
 16 15  1  0
 16 17  2  0
 17 12  1  0
 18 10  1  0
 19 18  2  0
 20 18  1  0
 21 22  1  6
 21 20  1  0
 23 22  1  0
 24 23  2  0
 25 26  1  0
 25 24  1  0
 26 27  2  0
 27 23  1  0
 28 29  1  0
 28 21  1  0
 30 28  2  0
M  END
$$$$
