NFH.pdb
     RDKit          3D

 30 31  0  0  1  0  0  0  0  0999 V2000
   25.1614  -27.5753  -17.9035 N   0  0  0  0  0  0  0  0  0  0  0  0
   26.2791  -27.7978  -17.0422 C   0  0  0  0  0  0  0  0  0  0  0  0
   26.5412  -28.9531  -16.6467 O   0  0  0  0  0  0  0  0  0  0  0  0
   27.0948  -26.6144  -16.6496 C   0  0  0  0  0  0  0  0  0  0  0  0
   26.5965  -25.3971  -17.4048 C   0  0  2  0  0  0  0  0  0  0  0  0
   27.2565  -25.3321  -18.6814 N   0  0  0  0  0  0  0  0  0  0  0  0
   26.8727  -24.1443  -16.6592 C   0  0  0  0  0  0  0  0  0  0  0  0
   27.8986  -24.0246  -15.9276 O   0  0  0  0  0  0  0  0  0  0  0  0
   25.9956  -23.0150  -16.7309 N   0  0  0  0  0  0  0  0  0  0  0  0
   26.2839  -21.7597  -16.0975 C   0  0  1  0  0  0  0  0  0  0  0  0
   25.7680  -20.6334  -16.9642 C   0  0  0  0  0  0  0  0  0  0  0  0
   26.0641  -19.3091  -16.3671 C   0  0  0  0  0  0  0  0  0  0  0  0
   25.1168  -18.5514  -15.7251 C   0  0  0  0  0  0  0  0  0  0  0  0
   25.4223  -17.3308  -15.1835 C   0  0  0  0  0  0  0  0  0  0  0  0
   26.7230  -16.8551  -15.2902 C   0  0  0  0  0  0  0  0  0  0  0  0
   27.6877  -17.5866  -15.9235 C   0  0  0  0  0  0  0  0  0  0  0  0
   27.3456  -18.8056  -16.4544 C   0  0  0  0  0  0  0  0  0  0  0  0
   25.5905  -21.6392  -14.7712 C   0  0  0  0  0  0  0  0  0  0  0  0
   24.3929  -22.0104  -14.7220 O   0  0  0  0  0  0  0  0  0  0  0  0
   26.3292  -21.1192  -13.6751 N   0  0  0  0  0  0  0  0  0  0  0  0
   25.6100  -21.0338  -12.3885 C   0  0  1  0  0  0  0  0  0  0  0  0
   26.6007  -20.5573  -11.4091 C   0  0  0  0  0  0  0  0  0  0  0  0
   26.1486  -20.3237  -10.0410 C   0  0  0  0  0  0  0  0  0  0  0  0
   24.7980  -20.4998   -9.7070 C   0  0  0  0  0  0  0  0  0  0  0  0
   24.6680  -20.2215   -8.4067 N   0  0  0  0  0  0  0  0  0  0  0  0
   25.8621  -19.8777   -7.8942 C   0  0  0  0  0  0  0  0  0  0  0  0
   26.7326  -19.9515   -8.9140 N   0  0  0  0  0  0  0  0  0  0  0  0
   24.3714  -20.2849  -12.5365 C   0  0  0  0  0  0  0  0  0  0  0  0
   24.2652  -19.2625  -13.4551 O   0  0  0  0  0  0  0  0  0  0  0  0
   23.3717  -20.5432  -11.8415 O   0  0  0  0  0  0  0  0  0  0  0  0
  1  2  1  0
  2  3  2  0
  4  2  1  0
  4  5  1  0
  5  7  1  0
  5  6  1  6
  7  8  2  0
  9 10  1  0
  9  7  1  0
 10 11  1  6
 12 13  2  0
 12 11  1  0
 14 13  1  0
 15 14  2  0
 16 15  1  0
 16 17  2  0
 17 12  1  0
 18 10  1  0
 19 18  2  0
 20 18  1  0
 21 22  1  1
 21 20  1  0
 23 22  1  0
 24 23  2  0
 25 26  1  0
 25 24  1  0
 26 27  2  0
 27 23  1  0
 28 29  1  0
 28 21  1  0
 30 28  2  0
M  END
$$$$
