NFH.pdb
     RDKit          3D

 30 31  0  0  1  0  0  0  0  0999 V2000
   22.3668  -15.7326  -18.3701 N   0  0  0  0  0  0  0  0  0  0  0  0
   21.1191  -15.2561  -17.8634 C   0  0  0  0  0  0  0  0  0  0  0  0
   20.0548  -15.8173  -18.1982 O   0  0  0  0  0  0  0  0  0  0  0  0
   21.1499  -14.0870  -16.9402 C   0  0  0  0  0  0  0  0  0  0  0  0
   22.5762  -13.5841  -16.8257 C   0  0  2  0  0  0  0  0  0  0  0  0
   23.3559  -14.5423  -16.0887 N   0  0  0  0  0  0  0  0  0  0  0  0
   22.6372  -12.2775  -16.1250 C   0  0  0  0  0  0  0  0  0  0  0  0
   22.5272  -12.1981  -14.8666 O   0  0  0  0  0  0  0  0  0  0  0  0
   22.8227  -11.0485  -16.8357 N   0  0  0  0  0  0  0  0  0  0  0  0
   22.9928   -9.7836  -16.1789 C   0  0  1  0  0  0  0  0  0  0  0  0
   24.2988   -9.1635  -16.6211 C   0  0  0  0  0  0  0  0  0  0  0  0
   25.4600   -9.9809  -16.1953 C   0  0  0  0  0  0  0  0  0  0  0  0
   25.9029  -10.0288  -14.8972 C   0  0  0  0  0  0  0  0  0  0  0  0
   26.9796  -10.7944  -14.5355 C   0  0  0  0  0  0  0  0  0  0  0  0
   27.6336  -11.5371  -15.5103 C   0  0  0  0  0  0  0  0  0  0  0  0
   27.2160  -11.5097  -16.8109 C   0  0  0  0  0  0  0  0  0  0  0  0
   26.1333  -10.7311  -17.1371 C   0  0  0  0  0  0  0  0  0  0  0  0
   21.9054   -8.8179  -16.5522 C   0  0  0  0  0  0  0  0  0  0  0  0
   21.6164   -8.7330  -17.7703 O   0  0  0  0  0  0  0  0  0  0  0  0
   21.2851   -8.0747  -15.5127 N   0  0  0  0  0  0  0  0  0  0  0  0
   20.2874   -7.0722  -15.9365 C   0  0  1  0  0  0  0  0  0  0  0  0
   19.0998   -7.3140  -15.1006 C   0  0  0  0  0  0  0  0  0  0  0  0
   17.9967   -6.3623  -15.1923 C   0  0  0  0  0  0  0  0  0  0  0  0
   17.8358   -5.5816  -16.3460 C   0  0  0  0  0  0  0  0  0  0  0  0
   16.7612   -4.8097  -16.1599 N   0  0  0  0  0  0  0  0  0  0  0  0
   16.2290   -5.0563  -14.9504 C   0  0  0  0  0  0  0  0  0  0  0  0
   17.0046   -6.0015  -14.3954 N   0  0  0  0  0  0  0  0  0  0  0  0
   20.8657   -5.7372  -15.9433 C   0  0  0  0  0  0  0  0  0  0  0  0
   20.2756   -4.7113  -16.6502 O   0  0  0  0  0  0  0  0  0  0  0  0
   21.9072   -5.4796  -15.3125 O   0  0  0  0  0  0  0  0  0  0  0  0
  1  2  1  0
  2  3  2  0
  4  2  1  0
  4  5  1  0
  5  7  1  0
  5  6  1  1
  7  8  2  0
  9 10  1  0
  9  7  1  0
 10 11  1  6
 12 13  2  0
 12 11  1  0
 14 13  1  0
 15 14  2  0
 16 15  1  0
 16 17  2  0
 17 12  1  0
 18 10  1  0
 19 18  2  0
 20 18  1  0
 21 22  1  1
 21 20  1  0
 23 22  1  0
 24 23  2  0
 25 26  1  0
 25 24  1  0
 26 27  2  0
 27 23  1  0
 28 29  1  0
 28 21  1  0
 30 28  2  0
M  END
$$$$
