NFH.pdb
     RDKit          3D

 30 31  0  0  1  0  0  0  0  0999 V2000
   28.5609  -21.1056  -19.0253 N   0  0  0  0  0  0  0  0  0  0  0  0
   27.1540  -20.9273  -19.1969 C   0  0  0  0  0  0  0  0  0  0  0  0
   26.7173  -20.3635  -20.2221 O   0  0  0  0  0  0  0  0  0  0  0  0
   26.2573  -21.4342  -18.1202 C   0  0  0  0  0  0  0  0  0  0  0  0
   27.1017  -22.0583  -17.0257 C   0  0  2  0  0  0  0  0  0  0  0  0
   27.4773  -23.3893  -17.4217 N   0  0  0  0  0  0  0  0  0  0  0  0
   26.3601  -22.1323  -15.7426 C   0  0  0  0  0  0  0  0  0  0  0  0
   25.4709  -23.0110  -15.5445 O   0  0  0  0  0  0  0  0  0  0  0  0
   26.6135  -21.2172  -14.6711 N   0  0  0  0  0  0  0  0  0  0  0  0
   25.8604  -21.2162  -13.4492 C   0  0  1  0  0  0  0  0  0  0  0  0
   26.5944  -20.3977  -12.4114 C   0  0  0  0  0  0  0  0  0  0  0  0
   25.9046  -20.4387  -11.0998 C   0  0  0  0  0  0  0  0  0  0  0  0
   24.7679  -19.7179  -10.8317 C   0  0  0  0  0  0  0  0  0  0  0  0
   24.1537  -19.7774   -9.6087 C   0  0  0  0  0  0  0  0  0  0  0  0
   24.6996  -20.5882   -8.6216 C   0  0  0  0  0  0  0  0  0  0  0  0
   25.8303  -21.3175   -8.8588 C   0  0  0  0  0  0  0  0  0  0  0  0
   26.4190  -21.2334  -10.0962 C   0  0  0  0  0  0  0  0  0  0  0  0
   24.5136  -20.5783  -13.6320 C   0  0  0  0  0  0  0  0  0  0  0  0
   24.4895  -19.4561  -14.1929 O   0  0  0  0  0  0  0  0  0  0  0  0
   23.3716  -21.2806  -13.1629 N   0  0  0  0  0  0  0  0  0  0  0  0
   22.0618  -20.6780  -13.4808 C   0  0  1  0  0  0  0  0  0  0  0  0
   21.9337  -20.7530  -14.9456 C   0  0  0  0  0  0  0  0  0  0  0  0
   21.7798  -19.5015  -15.6811 C   0  0  0  0  0  0  0  0  0  0  0  0
   21.6990  -18.2846  -14.9891 C   0  0  0  0  0  0  0  0  0  0  0  0
   21.5632  -17.3154  -15.8988 N   0  0  0  0  0  0  0  0  0  0  0  0
   21.5532  -17.8488  -17.1325 C   0  0  0  0  0  0  0  0  0  0  0  0
   21.6865  -19.1737  -16.9592 N   0  0  0  0  0  0  0  0  0  0  0  0
   21.0098  -21.2660  -12.6656 C   0  0  0  0  0  0  0  0  0  0  0  0
   20.0228  -20.4826  -12.1069 O   0  0  0  0  0  0  0  0  0  0  0  0
   20.9674  -22.4908  -12.4485 O   0  0  0  0  0  0  0  0  0  0  0  0
  1  2  1  0
  2  3  2  0
  4  2  1  0
  4  5  1  0
  5  7  1  0
  5  6  1  6
  7  8  2  0
  9 10  1  0
  9  7  1  0
 10 11  1  1
 12 13  2  0
 12 11  1  0
 14 13  1  0
 15 14  2  0
 16 15  1  0
 16 17  2  0
 17 12  1  0
 18 10  1  0
 19 18  2  0
 20 18  1  0
 21 22  1  6
 21 20  1  0
 23 22  1  0
 24 23  2  0
 25 26  1  0
 25 24  1  0
 26 27  2  0
 27 23  1  0
 28 29  1  0
 28 21  1  0
 30 28  2  0
M  END
$$$$
