NFH.pdb
     RDKit          3D

 30 31  0  0  1  0  0  0  0  0999 V2000
   28.9866  -18.2111  -15.8257 N   0  0  0  0  0  0  0  0  0  0  0  0
   28.7488  -19.5310  -16.3178 C   0  0  0  0  0  0  0  0  0  0  0  0
   29.0745  -19.8290  -17.4861 O   0  0  0  0  0  0  0  0  0  0  0  0
   28.1098  -20.5083  -15.3923 C   0  0  0  0  0  0  0  0  0  0  0  0
   27.9068  -19.8505  -14.0408 C   0  0  2  0  0  0  0  0  0  0  0  0
   29.1815  -19.7093  -13.3894 N   0  0  0  0  0  0  0  0  0  0  0  0
   27.0127  -20.6563  -13.1730 C   0  0  0  0  0  0  0  0  0  0  0  0
   26.4664  -21.7178  -13.5936 O   0  0  0  0  0  0  0  0  0  0  0  0
   26.7260  -20.2737  -11.8235 N   0  0  0  0  0  0  0  0  0  0  0  0
   25.5994  -20.7775  -11.0905 C   0  0  1  0  0  0  0  0  0  0  0  0
   25.6942  -20.3194   -9.6528 C   0  0  0  0  0  0  0  0  0  0  0  0
   27.0688  -20.4795   -9.1212 C   0  0  0  0  0  0  0  0  0  0  0  0
   28.0125  -21.2760   -9.7200 C   0  0  0  0  0  0  0  0  0  0  0  0
   29.2749  -21.4030   -9.2036 C   0  0  0  0  0  0  0  0  0  0  0  0
   29.6006  -20.7065   -8.0467 C   0  0  0  0  0  0  0  0  0  0  0  0
   28.6825  -19.9059   -7.4280 C   0  0  0  0  0  0  0  0  0  0  0  0
   27.4270  -19.8025   -7.9737 C   0  0  0  0  0  0  0  0  0  0  0  0
   24.3053  -20.2425  -11.6320 C   0  0  0  0  0  0  0  0  0  0  0  0
   24.3753  -19.2307  -12.3708 O   0  0  0  0  0  0  0  0  0  0  0  0
   23.1037  -20.9107  -11.2752 N   0  0  0  0  0  0  0  0  0  0  0  0
   22.0193  -20.8773  -12.2766 C   0  0  1  0  0  0  0  0  0  0  0  0
   22.5665  -21.5284  -13.4784 C   0  0  0  0  0  0  0  0  0  0  0  0
   21.7005  -21.6375  -14.6484 C   0  0  0  0  0  0  0  0  0  0  0  0
   20.3773  -21.1770  -14.5892 C   0  0  0  0  0  0  0  0  0  0  0  0
   19.8230  -21.3984  -15.7845 N   0  0  0  0  0  0  0  0  0  0  0  0
   20.7210  -21.9748  -16.6019 C   0  0  0  0  0  0  0  0  0  0  0  0
   21.8447  -22.1030  -15.8781 N   0  0  0  0  0  0  0  0  0  0  0  0
   20.7806  -21.3947  -11.7156 C   0  0  0  0  0  0  0  0  0  0  0  0
   19.5629  -20.8454  -12.0561 O   0  0  0  0  0  0  0  0  0  0  0  0
   20.7808  -22.3469  -10.9142 O   0  0  0  0  0  0  0  0  0  0  0  0
  1  2  1  0
  2  3  2  0
  4  2  1  0
  4  5  1  0
  5  7  1  0
  5  6  1  1
  7  8  2  0
  9 10  1  0
  9  7  1  0
 10 11  1  1
 12 13  2  0
 12 11  1  0
 14 13  1  0
 15 14  2  0
 16 15  1  0
 16 17  2  0
 17 12  1  0
 18 10  1  0
 19 18  2  0
 20 18  1  0
 21 22  1  6
 21 20  1  0
 23 22  1  0
 24 23  2  0
 25 26  1  0
 25 24  1  0
 26 27  2  0
 27 23  1  0
 28 29  1  0
 28 21  1  0
 30 28  2  0
M  END
$$$$
