NFH.pdb
     RDKit          3D

 30 31  0  0  1  0  0  0  0  0999 V2000
   29.7588  -21.7161  -19.2810 N   0  0  0  0  0  0  0  0  0  0  0  0
   28.3747  -21.5101  -19.5680 C   0  0  0  0  0  0  0  0  0  0  0  0
   28.0256  -21.1030  -20.6958 O   0  0  0  0  0  0  0  0  0  0  0  0
   27.3943  -21.7976  -18.4834 C   0  0  0  0  0  0  0  0  0  0  0  0
   28.1429  -22.2706  -17.2520 C   0  0  2  0  0  0  0  0  0  0  0  0
   28.5676  -23.6304  -17.4523 N   0  0  0  0  0  0  0  0  0  0  0  0
   27.2889  -22.2098  -16.0401 C   0  0  0  0  0  0  0  0  0  0  0  0
   26.2234  -22.8869  -15.9493 O   0  0  0  0  0  0  0  0  0  0  0  0
   27.6276  -21.3857  -14.9194 N   0  0  0  0  0  0  0  0  0  0  0  0
   26.8141  -21.2966  -13.7402 C   0  0  1  0  0  0  0  0  0  0  0  0
   27.5578  -20.5186  -12.6785 C   0  0  0  0  0  0  0  0  0  0  0  0
   26.7662  -20.4106  -11.4296 C   0  0  0  0  0  0  0  0  0  0  0  0
   26.4215  -21.4990  -10.6681 C   0  0  0  0  0  0  0  0  0  0  0  0
   25.6888  -21.3658   -9.5184 C   0  0  0  0  0  0  0  0  0  0  0  0
   25.2887  -20.0967   -9.1200 C   0  0  0  0  0  0  0  0  0  0  0  0
   25.6166  -18.9942   -9.8573 C   0  0  0  0  0  0  0  0  0  0  0  0
   26.3520  -19.1653  -11.0039 C   0  0  0  0  0  0  0  0  0  0  0  0
   25.5361  -20.5549  -14.0066 C   0  0  0  0  0  0  0  0  0  0  0  0
   25.6263  -19.4867  -14.6588 O   0  0  0  0  0  0  0  0  0  0  0  0
   24.3260  -21.1066  -13.5079 N   0  0  0  0  0  0  0  0  0  0  0  0
   23.0933  -20.3547  -13.8157 C   0  0  1  0  0  0  0  0  0  0  0  0
   22.9845  -20.3517  -15.2840 C   0  0  0  0  0  0  0  0  0  0  0  0
   21.7950  -19.7491  -15.8780 C   0  0  0  0  0  0  0  0  0  0  0  0
   21.6488  -18.3546  -15.8985 C   0  0  0  0  0  0  0  0  0  0  0  0
   20.4835  -18.0833  -16.4931 N   0  0  0  0  0  0  0  0  0  0  0  0
   19.8794  -19.2290  -16.8524 C   0  0  0  0  0  0  0  0  0  0  0  0
   20.7040  -20.2148  -16.4632 N   0  0  0  0  0  0  0  0  0  0  0  0
   21.9704  -20.8624  -13.0421 C   0  0  0  0  0  0  0  0  0  0  0  0
   20.8611  -20.0797  -12.8031 O   0  0  0  0  0  0  0  0  0  0  0  0
   21.9754  -22.0156  -12.5741 O   0  0  0  0  0  0  0  0  0  0  0  0
  1  2  1  0
  2  3  2  0
  4  2  1  0
  4  5  1  0
  5  7  1  0
  5  6  1  6
  7  8  2  0
  9 10  1  0
  9  7  1  0
 10 11  1  1
 12 13  2  0
 12 11  1  0
 14 13  1  0
 15 14  2  0
 16 15  1  0
 16 17  2  0
 17 12  1  0
 18 10  1  0
 19 18  2  0
 20 18  1  0
 21 22  1  6
 21 20  1  0
 23 22  1  0
 24 23  2  0
 25 26  1  0
 25 24  1  0
 26 27  2  0
 27 23  1  0
 28 29  1  0
 28 21  1  0
 30 28  2  0
M  END
$$$$
