FDC.pdb
     RDKit          3D

 26 26  0  0  1  0  0  0  0  0999 V2000
    8.2729  -17.2230   20.9899 N   0  0  0  0  0  0  0  0  0  0  0  0
    9.5893  -16.5933   21.0800 C   0  0  1  0  0  0  0  0  0  0  0  0
    9.4915  -15.2726   21.7631 C   0  0  0  0  0  0  0  0  0  0  0  0
    8.6813  -14.2644   21.0907 C   0  0  0  0  0  0  0  0  0  0  0  0
    8.9859  -13.7831   19.8415 C   0  0  0  0  0  0  0  0  0  0  0  0
    8.1831  -12.8275   19.2525 C   0  0  0  0  0  0  0  0  0  0  0  0
    7.0588  -12.3282   19.8920 C   0  0  0  0  0  0  0  0  0  0  0  0
    6.7480  -12.8085   21.1480 C   0  0  0  0  0  0  0  0  0  0  0  0
    7.5631  -13.7684   21.7279 C   0  0  0  0  0  0  0  0  0  0  0  0
   10.5137  -17.5567   21.6809 C   0  0  0  0  0  0  0  0  0  0  0  0
   10.1521  -18.3437   22.6180 O   0  0  0  0  0  0  0  0  0  0  0  0
   11.8918  -17.7052   21.2783 N   0  0  0  0  0  0  0  0  0  0  0  0
   12.8064  -18.5535   21.9751 C   0  0  1  0  0  0  0  0  0  0  0  0
   14.1797  -18.5078   21.3411 C   0  0  0  0  0  0  0  0  0  0  0  0
   14.1293  -19.0096   19.9626 C   0  0  0  0  0  0  0  0  0  0  0  0
   14.8347  -18.4425   19.0878 O   0  0  0  0  0  0  0  0  0  0  0  0
   12.9812  -18.2215   23.4003 C   0  0  0  0  0  0  0  0  0  0  0  0
   13.4372  -17.1424   23.8413 O   0  0  0  0  0  0  0  0  0  0  0  0
   13.3456  -20.0727   19.5770 O   0  0  0  0  0  0  0  0  0  0  0  0
   12.5950  -19.2206   24.3480 N   0  0  0  0  0  0  0  0  0  0  0  0
   12.7241  -19.0146   25.7786 C   0  0  1  0  0  0  0  0  0  0  0  0
   11.3674  -19.2846   26.4348 C   0  0  0  0  0  0  0  0  0  0  0  0
   11.5640  -18.9957   28.2208 S   0  0  0  0  0  0  0  0  0  0  0  0
   13.7649  -19.9053   26.3481 C   0  0  0  0  0  0  0  0  0  0  0  0
   14.6026  -19.4118   27.3356 O   0  0  0  0  0  0  0  0  0  0  0  0
   13.9234  -21.0878   25.9770 O   0  0  0  0  0  0  0  0  0  0  0  0
  2  1  1  1
  2 10  1  0
  3  2  1  0
  4  3  1  0
  5  4  2  0
  6  5  1  0
  7  6  2  0
  7  8  1  0
  8  9  2  0
  9  4  1  0
 10 12  1  0
 11 10  2  0
 12 13  1  0
 13 14  1  6
 14 15  1  0
 15 16  2  0
 17 13  1  0
 17 18  2  0
 19 15  1  0
 20 17  1  0
 21 20  1  0
 21 24  1  0
 21 22  1  1
 23 22  1  0
 24 25  1  0
 26 24  2  0
M  END
$$$$
