FDC.pdb
     RDKit          3D

 26 26  0  0  1  0  0  0  0  0999 V2000
    7.0367  -18.3168   18.7733 N   0  0  0  0  0  0  0  0  0  0  0  0
    7.6485  -17.0547   19.1863 C   0  0  1  0  0  0  0  0  0  0  0  0
    6.6009  -16.0665   19.5690 C   0  0  0  0  0  0  0  0  0  0  0  0
    7.0836  -14.7978   20.1003 C   0  0  0  0  0  0  0  0  0  0  0  0
    6.9850  -14.4667   21.4292 C   0  0  0  0  0  0  0  0  0  0  0  0
    7.4587  -13.2504   21.8771 C   0  0  0  0  0  0  0  0  0  0  0  0
    8.0415  -12.3350   21.0143 C   0  0  0  0  0  0  0  0  0  0  0  0
    8.1431  -12.6626   19.6774 C   0  0  0  0  0  0  0  0  0  0  0  0
    7.6632  -13.8878   19.2409 C   0  0  0  0  0  0  0  0  0  0  0  0
    8.6529  -17.3500   20.2098 C   0  0  0  0  0  0  0  0  0  0  0  0
    8.3684  -18.0140   21.2617 O   0  0  0  0  0  0  0  0  0  0  0  0
   10.0307  -16.9279   20.1276 N   0  0  0  0  0  0  0  0  0  0  0  0
   10.9773  -17.1961   21.1636 C   0  0  1  0  0  0  0  0  0  0  0  0
   12.3911  -16.9465   20.6850 C   0  0  0  0  0  0  0  0  0  0  0  0
   13.0150  -18.1989   20.2414 C   0  0  0  0  0  0  0  0  0  0  0  0
   14.1961  -18.1640   19.8075 O   0  0  0  0  0  0  0  0  0  0  0  0
   10.7899  -16.3917   22.3842 C   0  0  0  0  0  0  0  0  0  0  0  0
   11.2645  -15.2498   22.5782 O   0  0  0  0  0  0  0  0  0  0  0  0
   12.3704  -19.4139   20.2753 O   0  0  0  0  0  0  0  0  0  0  0  0
    9.9995  -16.9725   23.4252 N   0  0  0  0  0  0  0  0  0  0  0  0
    9.9806  -16.4293   24.7706 C   0  0  1  0  0  0  0  0  0  0  0  0
    8.5249  -16.3220   25.2331 C   0  0  0  0  0  0  0  0  0  0  0  0
    7.6243  -15.3742   23.9672 S   0  0  0  0  0  0  0  0  0  0  0  0
   10.7598  -17.2870   25.6969 C   0  0  0  0  0  0  0  0  0  0  0  0
   11.3389  -18.4476   25.2090 O   0  0  0  0  0  0  0  0  0  0  0  0
   10.9200  -17.0108   26.9049 O   0  0  0  0  0  0  0  0  0  0  0  0
  2  1  1  1
  2 10  1  0
  3  2  1  0
  4  3  1  0
  5  4  2  0
  6  5  1  0
  7  6  2  0
  7  8  1  0
  8  9  2  0
  9  4  1  0
 10 12  1  0
 11 10  2  0
 12 13  1  0
 13 14  1  6
 14 15  1  0
 15 16  2  0
 17 13  1  0
 17 18  2  0
 19 15  1  0
 20 17  1  0
 21 20  1  0
 21 24  1  0
 21 22  1  1
 23 22  1  0
 24 25  1  0
 26 24  2  0
M  END
$$$$
