FDC.pdb
     RDKit          3D

 26 26  0  0  1  0  0  0  0  0999 V2000
    9.5138  -14.4985   24.6921 N   0  0  0  0  0  0  0  0  0  0  0  0
    8.3952  -15.3974   24.4123 C   0  0  1  0  0  0  0  0  0  0  0  0
    7.1611  -14.6184   24.1110 C   0  0  0  0  0  0  0  0  0  0  0  0
    6.8863  -13.4912   24.9935 C   0  0  0  0  0  0  0  0  0  0  0  0
    6.0646  -13.5922   26.0888 C   0  0  0  0  0  0  0  0  0  0  0  0
    5.8393  -12.4912   26.8898 C   0  0  0  0  0  0  0  0  0  0  0  0
    6.4257  -11.2642   26.6203 C   0  0  0  0  0  0  0  0  0  0  0  0
    7.2526  -11.1569   25.5204 C   0  0  0  0  0  0  0  0  0  0  0  0
    7.4702  -12.2709   24.7244 C   0  0  0  0  0  0  0  0  0  0  0  0
    8.8208  -16.3449   23.3803 C   0  0  0  0  0  0  0  0  0  0  0  0
    8.1451  -17.3922   23.1068 O   0  0  0  0  0  0  0  0  0  0  0  0
   10.0188  -16.1872   22.5909 N   0  0  0  0  0  0  0  0  0  0  0  0
   10.9739  -17.2375   22.4297 C   0  0  1  0  0  0  0  0  0  0  0  0
   11.8487  -16.9945   21.2190 C   0  0  0  0  0  0  0  0  0  0  0  0
   11.0275  -16.8193   20.0151 C   0  0  0  0  0  0  0  0  0  0  0  0
   10.1977  -17.7170   19.7147 O   0  0  0  0  0  0  0  0  0  0  0  0
   11.8763  -17.4230   23.5800 C   0  0  0  0  0  0  0  0  0  0  0  0
   12.7552  -16.6115   23.9485 O   0  0  0  0  0  0  0  0  0  0  0  0
   11.1202  -15.7188   19.1945 O   0  0  0  0  0  0  0  0  0  0  0  0
   11.7269  -18.6321   24.3293 N   0  0  0  0  0  0  0  0  0  0  0  0
   12.4051  -18.8413   25.5950 C   0  0  1  0  0  0  0  0  0  0  0  0
   12.0071  -17.7159   26.5538 C   0  0  0  0  0  0  0  0  0  0  0  0
   10.3375  -18.0963   27.1699 S   0  0  0  0  0  0  0  0  0  0  0  0
   12.0544  -20.1636   26.1692 C   0  0  0  0  0  0  0  0  0  0  0  0
   11.0853  -20.9309   25.5427 O   0  0  0  0  0  0  0  0  0  0  0  0
   12.5951  -20.6215   27.1984 O   0  0  0  0  0  0  0  0  0  0  0  0
  2  1  1  6
  2 10  1  0
  3  2  1  0
  4  3  1  0
  5  4  2  0
  6  5  1  0
  7  6  2  0
  7  8  1  0
  8  9  2  0
  9  4  1  0
 10 12  1  0
 11 10  2  0
 12 13  1  0
 13 14  1  6
 14 15  1  0
 15 16  2  0
 17 13  1  0
 17 18  2  0
 19 15  1  0
 20 17  1  0
 21 20  1  0
 21 24  1  0
 21 22  1  1
 23 22  1  0
 24 25  1  0
 26 24  2  0
M  END
$$$$
