FDC.pdb
     RDKit          3D

 26 26  0  0  1  0  0  0  0  0999 V2000
    8.0144  -17.4130   20.4962 N   0  0  0  0  0  0  0  0  0  0  0  0
    9.0592  -16.6539   21.1815 C   0  0  1  0  0  0  0  0  0  0  0  0
    8.4909  -15.4234   21.8006 C   0  0  0  0  0  0  0  0  0  0  0  0
    8.1377  -14.3500   20.8796 C   0  0  0  0  0  0  0  0  0  0  0  0
    9.0724  -13.6847   20.1254 C   0  0  0  0  0  0  0  0  0  0  0  0
    8.6810  -12.6754   19.2696 C   0  0  0  0  0  0  0  0  0  0  0  0
    7.3512  -12.3039   19.1438 C   0  0  0  0  0  0  0  0  0  0  0  0
    6.4074  -12.9693   19.8996 C   0  0  0  0  0  0  0  0  0  0  0  0
    6.8144  -13.9814   20.7553 C   0  0  0  0  0  0  0  0  0  0  0  0
    9.7583  -17.5629   22.0919 C   0  0  0  0  0  0  0  0  0  0  0  0
    9.1335  -18.4249   22.7953 O   0  0  0  0  0  0  0  0  0  0  0  0
   11.1900  -17.5707   22.2755 N   0  0  0  0  0  0  0  0  0  0  0  0
   11.8123  -18.1544   23.4215 C   0  0  1  0  0  0  0  0  0  0  0  0
   13.3203  -18.0924   23.3110 C   0  0  0  0  0  0  0  0  0  0  0  0
   13.7746  -18.7392   22.0742 C   0  0  0  0  0  0  0  0  0  0  0  0
   13.2533  -19.8350   21.7396 O   0  0  0  0  0  0  0  0  0  0  0  0
   11.4500  -17.5201   24.7015 C   0  0  0  0  0  0  0  0  0  0  0  0
   11.8650  -16.4089   25.1015 O   0  0  0  0  0  0  0  0  0  0  0  0
   14.7465  -18.2058   21.2593 O   0  0  0  0  0  0  0  0  0  0  0  0
   10.5505  -18.2413   25.5478 N   0  0  0  0  0  0  0  0  0  0  0  0
   10.3311  -17.8679   26.9328 C   0  0  1  0  0  0  0  0  0  0  0  0
    8.9661  -17.1831   27.0431 C   0  0  0  0  0  0  0  0  0  0  0  0
    7.9533  -17.7693   25.6494 S   0  0  0  0  0  0  0  0  0  0  0  0
   10.3897  -19.0586   27.8158 C   0  0  0  0  0  0  0  0  0  0  0  0
   10.2659  -18.8846   29.1851 O   0  0  0  0  0  0  0  0  0  0  0  0
   10.5466  -20.2193   27.3807 O   0  0  0  0  0  0  0  0  0  0  0  0
  2  1  1  1
  2 10  1  0
  3  2  1  0
  4  3  1  0
  5  4  2  0
  6  5  1  0
  7  6  2  0
  7  8  1  0
  8  9  2  0
  9  4  1  0
 10 12  1  0
 11 10  2  0
 12 13  1  0
 13 14  1  6
 14 15  1  0
 15 16  2  0
 17 13  1  0
 17 18  2  0
 19 15  1  0
 20 17  1  0
 21 20  1  0
 21 24  1  0
 21 22  1  6
 23 22  1  0
 24 25  1  0
 26 24  2  0
M  END
$$$$
