FDC.pdb
     RDKit          3D

 26 26  0  0  1  0  0  0  0  0999 V2000
    6.3068  -16.8241   24.2204 N   0  0  0  0  0  0  0  0  0  0  0  0
    7.4568  -15.9702   24.5136 C   0  0  1  0  0  0  0  0  0  0  0  0
    7.3101  -15.3381   25.8551 C   0  0  0  0  0  0  0  0  0  0  0  0
    6.8205  -13.9651   25.8639 C   0  0  0  0  0  0  0  0  0  0  0  0
    5.6188  -13.6116   26.4260 C   0  0  0  0  0  0  0  0  0  0  0  0
    5.2045  -12.2954   26.4051 C   0  0  0  0  0  0  0  0  0  0  0  0
    5.9755  -11.3000   25.8247 C   0  0  0  0  0  0  0  0  0  0  0  0
    7.1845  -11.6496   25.2581 C   0  0  0  0  0  0  0  0  0  0  0  0
    7.5884  -12.9756   25.2862 C   0  0  0  0  0  0  0  0  0  0  0  0
    8.6729  -16.7593   24.3085 C   0  0  0  0  0  0  0  0  0  0  0  0
    8.8031  -17.9342   24.7890 O   0  0  0  0  0  0  0  0  0  0  0  0
    9.8149  -16.2936   23.5587 N   0  0  0  0  0  0  0  0  0  0  0  0
   11.1401  -16.7651   23.8095 C   0  0  1  0  0  0  0  0  0  0  0  0
   12.0837  -16.3465   22.7028 C   0  0  0  0  0  0  0  0  0  0  0  0
   11.7019  -16.9757   21.4329 C   0  0  0  0  0  0  0  0  0  0  0  0
   11.2404  -18.1467   21.4544 O   0  0  0  0  0  0  0  0  0  0  0  0
   11.7270  -16.2904   25.0753 C   0  0  0  0  0  0  0  0  0  0  0  0
   12.4188  -15.2558   25.2091 O   0  0  0  0  0  0  0  0  0  0  0  0
   11.8245  -16.3475   20.2150 O   0  0  0  0  0  0  0  0  0  0  0  0
   11.4796  -17.0839   26.2392 N   0  0  0  0  0  0  0  0  0  0  0  0
   11.7613  -16.5964   27.5766 C   0  0  1  0  0  0  0  0  0  0  0  0
   11.0078  -15.2799   27.7848 C   0  0  0  0  0  0  0  0  0  0  0  0
   11.3284  -14.7380   29.4922 S   0  0  0  0  0  0  0  0  0  0  0  0
   11.3586  -17.5944   28.5978 C   0  0  0  0  0  0  0  0  0  0  0  0
   10.2356  -18.3731   28.3679 O   0  0  0  0  0  0  0  0  0  0  0  0
   11.9883  -17.7675   29.6629 O   0  0  0  0  0  0  0  0  0  0  0  0
  2  1  1  1
  2 10  1  0
  3  2  1  0
  4  3  1  0
  5  4  2  0
  6  5  1  0
  7  6  2  0
  7  8  1  0
  8  9  2  0
  9  4  1  0
 10 12  1  0
 11 10  2  0
 12 13  1  0
 13 14  1  6
 14 15  1  0
 15 16  2  0
 17 13  1  0
 17 18  2  0
 19 15  1  0
 20 17  1  0
 21 20  1  0
 21 24  1  0
 21 22  1  1
 23 22  1  0
 24 25  1  0
 26 24  2  0
M  END
$$$$
