FDC.pdb
     RDKit          3D

 26 26  0  0  1  0  0  0  0  0999 V2000
    8.5329  -17.7639   27.3409 N   0  0  0  0  0  0  0  0  0  0  0  0
    7.3715  -17.8951   26.4626 C   0  0  1  0  0  0  0  0  0  0  0  0
    6.5339  -16.6638   26.5159 C   0  0  0  0  0  0  0  0  0  0  0  0
    7.2567  -15.3982   26.4868 C   0  0  0  0  0  0  0  0  0  0  0  0
    8.5378  -15.2667   26.9627 C   0  0  0  0  0  0  0  0  0  0  0  0
    9.1741  -14.0433   26.9104 C   0  0  0  0  0  0  0  0  0  0  0  0
    8.5514  -12.9220   26.3840 C   0  0  0  0  0  0  0  0  0  0  0  0
    7.2634  -13.0485   25.9043 C   0  0  0  0  0  0  0  0  0  0  0  0
    6.6361  -14.2834   25.9628 C   0  0  0  0  0  0  0  0  0  0  0  0
    7.8479  -18.2870   25.1347 C   0  0  0  0  0  0  0  0  0  0  0  0
    9.0652  -18.6050   24.9220 O   0  0  0  0  0  0  0  0  0  0  0  0
    7.0038  -18.3502   23.9656 N   0  0  0  0  0  0  0  0  0  0  0  0
    7.5112  -18.6793   22.6711 C   0  0  1  0  0  0  0  0  0  0  0  0
    6.3840  -18.8876   21.6831 C   0  0  0  0  0  0  0  0  0  0  0  0
    6.8988  -19.4246   20.4178 C   0  0  0  0  0  0  0  0  0  0  0  0
    6.5851  -18.8463   19.3447 O   0  0  0  0  0  0  0  0  0  0  0  0
    8.4071  -17.6630   22.0909 C   0  0  0  0  0  0  0  0  0  0  0  0
    9.0889  -17.8083   21.0512 O   0  0  0  0  0  0  0  0  0  0  0  0
    7.7099  -20.5337   20.3455 O   0  0  0  0  0  0  0  0  0  0  0  0
    8.4971  -16.4128   22.7796 N   0  0  0  0  0  0  0  0  0  0  0  0
    9.3232  -15.3239   22.2923 C   0  0  1  0  0  0  0  0  0  0  0  0
    8.5586  -14.0105   22.4779 C   0  0  0  0  0  0  0  0  0  0  0  0
    6.7883  -14.3834   22.2810 S   0  0  0  0  0  0  0  0  0  0  0  0
   10.6181  -15.2797   23.0150 C   0  0  0  0  0  0  0  0  0  0  0  0
   11.5425  -14.3046   22.6755 O   0  0  0  0  0  0  0  0  0  0  0  0
   10.9172  -16.0858   23.9216 O   0  0  0  0  0  0  0  0  0  0  0  0
  2  1  1  1
  2 10  1  0
  3  2  1  0
  4  3  1  0
  5  4  2  0
  6  5  1  0
  7  6  2  0
  7  8  1  0
  8  9  2  0
  9  4  1  0
 10 12  1  0
 11 10  2  0
 12 13  1  0
 13 14  1  6
 14 15  1  0
 15 16  2  0
 17 13  1  0
 17 18  2  0
 19 15  1  0
 20 17  1  0
 21 20  1  0
 21 24  1  0
 21 22  1  1
 23 22  1  0
 24 25  1  0
 26 24  2  0
M  END
$$$$
