FDC.pdb
     RDKit          3D

 26 26  0  0  1  0  0  0  0  0999 V2000
    6.1595  -16.8797   25.4772 N   0  0  0  0  0  0  0  0  0  0  0  0
    6.8310  -16.5073   24.2329 C   0  0  1  0  0  0  0  0  0  0  0  0
    6.4591  -15.1210   23.8327 C   0  0  0  0  0  0  0  0  0  0  0  0
    6.8508  -14.0631   24.7559 C   0  0  0  0  0  0  0  0  0  0  0  0
    6.0723  -13.6858   25.8221 C   0  0  0  0  0  0  0  0  0  0  0  0
    6.4929  -12.6766   26.6642 C   0  0  0  0  0  0  0  0  0  0  0  0
    7.6972  -12.0190   26.4658 C   0  0  0  0  0  0  0  0  0  0  0  0
    8.4837  -12.3942   25.3955 C   0  0  0  0  0  0  0  0  0  0  0  0
    8.0492  -13.4096   24.5575 C   0  0  0  0  0  0  0  0  0  0  0  0
    8.2634  -16.7631   24.3954 C   0  0  0  0  0  0  0  0  0  0  0  0
    8.7323  -17.3361   25.4346 O   0  0  0  0  0  0  0  0  0  0  0  0
    9.2597  -16.3998   23.4162 N   0  0  0  0  0  0  0  0  0  0  0  0
   10.6433  -16.7179   23.5766 C   0  0  1  0  0  0  0  0  0  0  0  0
   11.4487  -16.2555   22.3817 C   0  0  0  0  0  0  0  0  0  0  0  0
   12.8157  -16.7866   22.4433 C   0  0  0  0  0  0  0  0  0  0  0  0
   12.9842  -17.9776   22.8143 O   0  0  0  0  0  0  0  0  0  0  0  0
   11.2708  -16.1255   24.7713 C   0  0  0  0  0  0  0  0  0  0  0  0
   11.7995  -14.9921   24.8243 O   0  0  0  0  0  0  0  0  0  0  0  0
   13.9268  -16.0444   22.1152 O   0  0  0  0  0  0  0  0  0  0  0  0
   11.2698  -16.9186   25.9615 N   0  0  0  0  0  0  0  0  0  0  0  0
   11.4629  -16.3340   27.2755 C   0  0  1  0  0  0  0  0  0  0  0  0
   10.3607  -15.2989   27.5159 C   0  0  0  0  0  0  0  0  0  0  0  0
   10.7335  -14.4686   29.0917 S   0  0  0  0  0  0  0  0  0  0  0  0
   11.4343  -17.3796   28.3276 C   0  0  0  0  0  0  0  0  0  0  0  0
   11.8793  -17.0619   29.6010 O   0  0  0  0  0  0  0  0  0  0  0  0
   11.0252  -18.5416   28.1187 O   0  0  0  0  0  0  0  0  0  0  0  0
  2  1  1  1
  2 10  1  0
  3  2  1  0
  4  3  1  0
  5  4  2  0
  6  5  1  0
  7  6  2  0
  7  8  1  0
  8  9  2  0
  9  4  1  0
 10 12  1  0
 11 10  2  0
 12 13  1  0
 13 14  1  6
 14 15  1  0
 15 16  2  0
 17 13  1  0
 17 18  2  0
 19 15  1  0
 20 17  1  0
 21 20  1  0
 21 24  1  0
 21 22  1  1
 23 22  1  0
 24 25  1  0
 26 24  2  0
M  END
$$$$
