FDC.pdb
     RDKit          3D

 26 26  0  0  1  0  0  0  0  0999 V2000
    6.3325  -17.6448   23.4312 N   0  0  0  0  0  0  0  0  0  0  0  0
    7.3491  -16.6540   23.0813 C   0  0  1  0  0  0  0  0  0  0  0  0
    6.8410  -15.2747   23.3260 C   0  0  0  0  0  0  0  0  0  0  0  0
    7.0599  -14.3137   22.2519 C   0  0  0  0  0  0  0  0  0  0  0  0
    6.9609  -14.6520   20.9249 C   0  0  0  0  0  0  0  0  0  0  0  0
    7.1793  -13.7007   19.9493 C   0  0  0  0  0  0  0  0  0  0  0  0
    7.5015  -12.3910   20.2704 C   0  0  0  0  0  0  0  0  0  0  0  0
    7.6024  -12.0455   21.6028 C   0  0  0  0  0  0  0  0  0  0  0  0
    7.3803  -13.0110   22.5726 C   0  0  0  0  0  0  0  0  0  0  0  0
    8.5887  -17.0106   23.7740 C   0  0  0  0  0  0  0  0  0  0  0  0
    8.5830  -17.5873   24.9123 O   0  0  0  0  0  0  0  0  0  0  0  0
    9.9066  -16.7501   23.2461 N   0  0  0  0  0  0  0  0  0  0  0  0
   11.0903  -16.9002   24.0321 C   0  0  1  0  0  0  0  0  0  0  0  0
   12.3242  -16.9230   23.1563 C   0  0  0  0  0  0  0  0  0  0  0  0
   13.5255  -17.1698   23.9627 C   0  0  0  0  0  0  0  0  0  0  0  0
   13.5802  -18.2169   24.6593 O   0  0  0  0  0  0  0  0  0  0  0  0
   11.2956  -15.8390   25.0340 C   0  0  0  0  0  0  0  0  0  0  0  0
   12.0560  -14.8539   24.8992 O   0  0  0  0  0  0  0  0  0  0  0  0
   14.5991  -16.3099   23.9963 O   0  0  0  0  0  0  0  0  0  0  0  0
   10.5612  -15.9539   26.2560 N   0  0  0  0  0  0  0  0  0  0  0  0
   10.9461  -15.2334   27.4553 C   0  0  1  0  0  0  0  0  0  0  0  0
   10.1149  -13.9504   27.5415 C   0  0  0  0  0  0  0  0  0  0  0  0
    8.4366  -14.3541   26.9652 S   0  0  0  0  0  0  0  0  0  0  0  0
   10.7395  -16.0703   28.6627 C   0  0  0  0  0  0  0  0  0  0  0  0
   11.0626  -15.5469   29.9046 O   0  0  0  0  0  0  0  0  0  0  0  0
   10.2849  -17.2330   28.6129 O   0  0  0  0  0  0  0  0  0  0  0  0
  2  1  1  1
  2 10  1  0
  3  2  1  0
  4  3  1  0
  5  4  2  0
  6  5  1  0
  7  6  2  0
  7  8  1  0
  8  9  2  0
  9  4  1  0
 10 12  1  0
 11 10  2  0
 12 13  1  0
 13 14  1  6
 14 15  1  0
 15 16  2  0
 17 13  1  0
 17 18  2  0
 19 15  1  0
 20 17  1  0
 21 20  1  0
 21 24  1  0
 21 22  1  1
 23 22  1  0
 24 25  1  0
 26 24  2  0
M  END
$$$$
