FDC.pdb
     RDKit          3D

 26 26  0  0  1  0  0  0  0  0999 V2000
    5.8385  -16.6541   24.7469 N   0  0  0  0  0  0  0  0  0  0  0  0
    7.0557  -15.8640   24.5684 C   0  0  1  0  0  0  0  0  0  0  0  0
    7.4181  -15.1687   25.8355 C   0  0  0  0  0  0  0  0  0  0  0  0
    6.9109  -13.8104   25.9861 C   0  0  0  0  0  0  0  0  0  0  0  0
    5.7873  -13.5171   26.7187 C   0  0  0  0  0  0  0  0  0  0  0  0
    5.3518  -12.2121   26.8269 C   0  0  0  0  0  0  0  0  0  0  0  0
    6.0233  -11.1683   26.2092 C   0  0  0  0  0  0  0  0  0  0  0  0
    7.1534  -11.4573   25.4714 C   0  0  0  0  0  0  0  0  0  0  0  0
    7.5798  -12.7727   25.3711 C   0  0  0  0  0  0  0  0  0  0  0  0
    8.0852  -16.7371   24.0014 C   0  0  0  0  0  0  0  0  0  0  0  0
    8.2367  -17.9425   24.3919 O   0  0  0  0  0  0  0  0  0  0  0  0
    9.0061  -16.3264   22.9687 N   0  0  0  0  0  0  0  0  0  0  0  0
   10.2849  -16.9395   22.7944 C   0  0  1  0  0  0  0  0  0  0  0  0
   11.0832  -16.2338   21.7198 C   0  0  0  0  0  0  0  0  0  0  0  0
   12.1019  -17.1303   21.1603 C   0  0  0  0  0  0  0  0  0  0  0  0
   12.2677  -18.2603   21.6898 O   0  0  0  0  0  0  0  0  0  0  0  0
   11.1222  -16.9588   24.0071 C   0  0  0  0  0  0  0  0  0  0  0  0
   11.8053  -15.9990   24.4302 O   0  0  0  0  0  0  0  0  0  0  0  0
   12.8885  -16.7958   20.0822 O   0  0  0  0  0  0  0  0  0  0  0  0
   11.1491  -18.1784   24.7537 N   0  0  0  0  0  0  0  0  0  0  0  0
   11.9521  -18.3285   25.9531 C   0  0  1  0  0  0  0  0  0  0  0  0
   11.4779  -17.3055   26.9889 C   0  0  0  0  0  0  0  0  0  0  0  0
    9.8664  -17.8757   27.6131 S   0  0  0  0  0  0  0  0  0  0  0  0
   11.8419  -19.7060   26.4928 C   0  0  0  0  0  0  0  0  0  0  0  0
   12.6739  -20.0869   27.5335 O   0  0  0  0  0  0  0  0  0  0  0  0
   11.0288  -20.5452   26.0504 O   0  0  0  0  0  0  0  0  0  0  0  0
  2  1  1  1
  2 10  1  0
  3  2  1  0
  4  3  1  0
  5  4  2  0
  6  5  1  0
  7  6  2  0
  7  8  1  0
  8  9  2  0
  9  4  1  0
 10 12  1  0
 11 10  2  0
 12 13  1  0
 13 14  1  6
 14 15  1  0
 15 16  2  0
 17 13  1  0
 17 18  2  0
 19 15  1  0
 20 17  1  0
 21 20  1  0
 21 24  1  0
 21 22  1  1
 23 22  1  0
 24 25  1  0
 26 24  2  0
M  END
$$$$
