FDC.pdb
     RDKit          3D

 26 26  0  0  1  0  0  0  0  0999 V2000
    7.8439  -13.9440   22.9837 N   0  0  0  0  0  0  0  0  0  0  0  0
    8.3773  -14.7305   24.0948 C   0  0  1  0  0  0  0  0  0  0  0  0
    7.3925  -14.7932   25.2113 C   0  0  0  0  0  0  0  0  0  0  0  0
    7.0365  -13.5178   25.8210 C   0  0  0  0  0  0  0  0  0  0  0  0
    7.8249  -12.9016   26.7612 C   0  0  0  0  0  0  0  0  0  0  0  0
    7.4380  -11.6940   27.3058 C   0  0  0  0  0  0  0  0  0  0  0  0
    6.2582  -11.0712   26.9285 C   0  0  0  0  0  0  0  0  0  0  0  0
    5.4619  -11.6863   25.9838 C   0  0  0  0  0  0  0  0  0  0  0  0
    5.8625  -12.8991   25.4448 C   0  0  0  0  0  0  0  0  0  0  0  0
    8.8258  -16.0197   23.5650 C   0  0  0  0  0  0  0  0  0  0  0  0
    8.6215  -17.1132   24.1900 O   0  0  0  0  0  0  0  0  0  0  0  0
    9.5257  -16.1728   22.3119 N   0  0  0  0  0  0  0  0  0  0  0  0
   10.5206  -17.1777   22.1079 C   0  0  1  0  0  0  0  0  0  0  0  0
   11.1731  -17.0278   20.7508 C   0  0  0  0  0  0  0  0  0  0  0  0
   12.0770  -18.1534   20.4851 C   0  0  0  0  0  0  0  0  0  0  0  0
   13.2877  -17.9104   20.2406 O   0  0  0  0  0  0  0  0  0  0  0  0
   11.6041  -17.1749   23.1070 C   0  0  0  0  0  0  0  0  0  0  0  0
   12.5294  -16.3342   23.1685 O   0  0  0  0  0  0  0  0  0  0  0  0
   11.6654  -19.4662   20.4889 O   0  0  0  0  0  0  0  0  0  0  0  0
   11.5871  -18.2223   24.0808 N   0  0  0  0  0  0  0  0  0  0  0  0
   12.6412  -18.3732   25.0666 C   0  0  1  0  0  0  0  0  0  0  0  0
   12.0585  -18.0828   26.4524 C   0  0  0  0  0  0  0  0  0  0  0  0
   10.5344  -19.0639   26.6140 S   0  0  0  0  0  0  0  0  0  0  0  0
   13.2164  -19.7399   25.0190 C   0  0  0  0  0  0  0  0  0  0  0  0
   12.6446  -20.6789   24.1753 O   0  0  0  0  0  0  0  0  0  0  0  0
   14.1988  -20.0871   25.7084 O   0  0  0  0  0  0  0  0  0  0  0  0
  2  1  1  6
  2 10  1  0
  3  2  1  0
  4  3  1  0
  5  4  2  0
  6  5  1  0
  7  6  2  0
  7  8  1  0
  8  9  2  0
  9  4  1  0
 10 12  1  0
 11 10  2  0
 12 13  1  0
 13 14  1  6
 14 15  1  0
 15 16  2  0
 17 13  1  0
 17 18  2  0
 19 15  1  0
 20 17  1  0
 21 20  1  0
 21 24  1  0
 21 22  1  1
 23 22  1  0
 24 25  1  0
 26 24  2  0
M  END
$$$$
