FDC.pdb
     RDKit          3D

 26 26  0  0  1  0  0  0  0  0999 V2000
    7.5683  -17.5999   18.6564 N   0  0  0  0  0  0  0  0  0  0  0  0
    7.9590  -16.4919   19.5267 C   0  0  1  0  0  0  0  0  0  0  0  0
    6.7763  -15.6512   19.8656 C   0  0  0  0  0  0  0  0  0  0  0  0
    7.0000  -14.6035   20.8543 C   0  0  0  0  0  0  0  0  0  0  0  0
    6.7012  -14.7657   22.1846 C   0  0  0  0  0  0  0  0  0  0  0  0
    6.9334  -13.7389   23.0769 C   0  0  0  0  0  0  0  0  0  0  0  0
    7.4680  -12.5270   22.6674 C   0  0  0  0  0  0  0  0  0  0  0  0
    7.7702  -12.3586   21.3313 C   0  0  0  0  0  0  0  0  0  0  0  0
    7.5319  -13.3983   20.4457 C   0  0  0  0  0  0  0  0  0  0  0  0
    8.6966  -17.0455   20.6639 C   0  0  0  0  0  0  0  0  0  0  0  0
    8.2693  -18.0546   21.3177 O   0  0  0  0  0  0  0  0  0  0  0  0
    9.9504  -16.5144   21.1425 N   0  0  0  0  0  0  0  0  0  0  0  0
   10.6691  -17.1058   22.2266 C   0  0  1  0  0  0  0  0  0  0  0  0
   12.1629  -17.0083   22.0049 C   0  0  0  0  0  0  0  0  0  0  0  0
   12.8878  -17.7713   23.0281 C   0  0  0  0  0  0  0  0  0  0  0  0
   13.9519  -17.2905   23.4983 O   0  0  0  0  0  0  0  0  0  0  0  0
   10.3911  -16.5041   23.5429 C   0  0  0  0  0  0  0  0  0  0  0  0
   10.7405  -15.3572   23.9026 O   0  0  0  0  0  0  0  0  0  0  0  0
   12.4613  -18.9911   23.5002 O   0  0  0  0  0  0  0  0  0  0  0  0
    9.6618  -17.3043   24.4776 N   0  0  0  0  0  0  0  0  0  0  0  0
    9.5094  -16.9166   25.8676 C   0  0  1  0  0  0  0  0  0  0  0  0
    8.0582  -16.4861   26.0977 C   0  0  0  0  0  0  0  0  0  0  0  0
    6.9967  -17.8797   25.6052 S   0  0  0  0  0  0  0  0  0  0  0  0
    9.8701  -18.0371   26.7705 C   0  0  0  0  0  0  0  0  0  0  0  0
   10.2619  -19.2453   26.2162 O   0  0  0  0  0  0  0  0  0  0  0  0
    9.8370  -17.9428   28.0159 O   0  0  0  0  0  0  0  0  0  0  0  0
  2  1  1  6
  2 10  1  0
  3  2  1  0
  4  3  1  0
  5  4  2  0
  6  5  1  0
  7  6  2  0
  7  8  1  0
  8  9  2  0
  9  4  1  0
 10 12  1  0
 11 10  2  0
 12 13  1  0
 13 14  1  6
 14 15  1  0
 15 16  2  0
 17 13  1  0
 17 18  2  0
 19 15  1  0
 20 17  1  0
 21 20  1  0
 21 24  1  0
 21 22  1  6
 23 22  1  0
 24 25  1  0
 26 24  2  0
M  END
$$$$
