FDC.pdb
     RDKit          3D

 26 26  0  0  1  0  0  0  0  0999 V2000
    6.1083  -17.1281   25.1917 N   0  0  0  0  0  0  0  0  0  0  0  0
    6.8565  -16.6187   24.0435 C   0  0  1  0  0  0  0  0  0  0  0  0
    6.3713  -15.2621   23.6632 C   0  0  0  0  0  0  0  0  0  0  0  0
    6.6146  -14.2018   24.6336 C   0  0  0  0  0  0  0  0  0  0  0  0
    5.8402  -14.0329   25.7547 C   0  0  0  0  0  0  0  0  0  0  0  0
    6.1162  -13.0108   26.6398 C   0  0  0  0  0  0  0  0  0  0  0  0
    7.1685  -12.1326   26.4308 C   0  0  0  0  0  0  0  0  0  0  0  0
    7.9501  -12.2977   25.3053 C   0  0  0  0  0  0  0  0  0  0  0  0
    7.6618  -13.3288   24.4245 C   0  0  0  0  0  0  0  0  0  0  0  0
    8.2846  -16.7244   24.3485 C   0  0  0  0  0  0  0  0  0  0  0  0
    8.7033  -17.1031   25.4929 O   0  0  0  0  0  0  0  0  0  0  0  0
    9.3320  -16.4175   23.4039 N   0  0  0  0  0  0  0  0  0  0  0  0
   10.7177  -16.5224   23.7356 C   0  0  1  0  0  0  0  0  0  0  0  0
   11.5863  -16.0131   22.6058 C   0  0  0  0  0  0  0  0  0  0  0  0
   12.3887  -17.1037   22.0391 C   0  0  0  0  0  0  0  0  0  0  0  0
   12.6224  -18.1144   22.7521 O   0  0  0  0  0  0  0  0  0  0  0  0
   11.1126  -15.7817   24.9470 C   0  0  0  0  0  0  0  0  0  0  0  0
   11.2562  -14.5405   25.0216 O   0  0  0  0  0  0  0  0  0  0  0  0
   12.9010  -17.0761   20.7625 O   0  0  0  0  0  0  0  0  0  0  0  0
   11.3482  -16.5537   26.1277 N   0  0  0  0  0  0  0  0  0  0  0  0
   11.4559  -15.9409   27.4386 C   0  0  1  0  0  0  0  0  0  0  0  0
   10.1621  -15.1746   27.7269 C   0  0  0  0  0  0  0  0  0  0  0  0
   10.2909  -14.5136   29.4175 S   0  0  0  0  0  0  0  0  0  0  0  0
   11.6975  -16.9670   28.4825 C   0  0  0  0  0  0  0  0  0  0  0  0
   12.1803  -16.5659   29.7180 O   0  0  0  0  0  0  0  0  0  0  0  0
   11.4850  -18.1846   28.2994 O   0  0  0  0  0  0  0  0  0  0  0  0
  2  1  1  1
  2 10  1  0
  3  2  1  0
  4  3  1  0
  5  4  2  0
  6  5  1  0
  7  6  2  0
  7  8  1  0
  8  9  2  0
  9  4  1  0
 10 12  1  0
 11 10  2  0
 12 13  1  0
 13 14  1  6
 14 15  1  0
 15 16  2  0
 17 13  1  0
 17 18  2  0
 19 15  1  0
 20 17  1  0
 21 20  1  0
 21 24  1  0
 21 22  1  1
 23 22  1  0
 24 25  1  0
 26 24  2  0
M  END
$$$$
