FDC.pdb
     RDKit          3D

 26 26  0  0  1  0  0  0  0  0999 V2000
    6.2818  -17.8118   24.1716 N   0  0  0  0  0  0  0  0  0  0  0  0
    6.9832  -16.5426   24.3585 C   0  0  1  0  0  0  0  0  0  0  0  0
    6.3557  -15.7553   25.4570 C   0  0  0  0  0  0  0  0  0  0  0  0
    6.6938  -14.3379   25.5003 C   0  0  0  0  0  0  0  0  0  0  0  0
    7.9471  -13.8666   25.1965 C   0  0  0  0  0  0  0  0  0  0  0  0
    8.2113  -12.5133   25.2548 C   0  0  0  0  0  0  0  0  0  0  0  0
    7.2355  -11.5972   25.6165 C   0  0  0  0  0  0  0  0  0  0  0  0
    5.9739  -12.0655   25.9230 C   0  0  0  0  0  0  0  0  0  0  0  0
    5.7222  -13.4274   25.8603 C   0  0  0  0  0  0  0  0  0  0  0  0
    8.4104  -16.8306   24.5132 C   0  0  0  0  0  0  0  0  0  0  0  0
    8.8352  -17.7135   25.3307 O   0  0  0  0  0  0  0  0  0  0  0  0
    9.4499  -16.1583   23.7711 N   0  0  0  0  0  0  0  0  0  0  0  0
   10.8295  -16.5081   23.8965 C   0  0  1  0  0  0  0  0  0  0  0  0
   11.6401  -15.9382   22.7527 C   0  0  0  0  0  0  0  0  0  0  0  0
   11.2860  -16.5973   21.4899 C   0  0  0  0  0  0  0  0  0  0  0  0
   11.1176  -15.8864   20.4647 O   0  0  0  0  0  0  0  0  0  0  0  0
   11.4648  -16.0463   25.1436 C   0  0  0  0  0  0  0  0  0  0  0  0
   12.1353  -14.9967   25.2686 O   0  0  0  0  0  0  0  0  0  0  0  0
   11.1274  -17.9587   21.3703 O   0  0  0  0  0  0  0  0  0  0  0  0
   11.2948  -16.8721   26.2989 N   0  0  0  0  0  0  0  0  0  0  0  0
   11.9003  -16.5425   27.5758 C   0  0  1  0  0  0  0  0  0  0  0  0
   11.3230  -15.2097   28.0601 C   0  0  0  0  0  0  0  0  0  0  0  0
    9.6007  -15.5170   28.5611 S   0  0  0  0  0  0  0  0  0  0  0  0
   11.6471  -17.6126   28.5717 C   0  0  0  0  0  0  0  0  0  0  0  0
   12.2617  -17.5340   29.8113 O   0  0  0  0  0  0  0  0  0  0  0  0
   10.9008  -18.5885   28.3443 O   0  0  0  0  0  0  0  0  0  0  0  0
  2  1  1  1
  2 10  1  0
  3  2  1  0
  4  3  1  0
  5  4  2  0
  6  5  1  0
  7  6  2  0
  7  8  1  0
  8  9  2  0
  9  4  1  0
 10 12  1  0
 11 10  2  0
 12 13  1  0
 13 14  1  6
 14 15  1  0
 15 16  2  0
 17 13  1  0
 17 18  2  0
 19 15  1  0
 20 17  1  0
 21 20  1  0
 21 24  1  0
 21 22  1  1
 23 22  1  0
 24 25  1  0
 26 24  2  0
M  END
$$$$
