CKA.pdb
     RDKit          3D

 21 20  0  0  1  0  0  0  0  0999 V2000
    6.9600  -15.2025   19.2186 N   0  0  0  0  0  0  0  0  0  0  0  0
    7.6739  -14.4838   20.2456 C   0  0  1  0  0  0  0  0  0  0  0  0
    7.5035  -12.9883   20.0772 C   0  0  0  0  0  0  0  0  0  0  0  0
    8.9716  -12.3926   19.1648 S   0  0  0  0  0  0  0  0  0  0  0  0
    7.2134  -14.9483   21.5680 C   0  0  0  0  0  0  0  0  0  0  0  0
    5.9907  -14.8148   21.8776 O   0  0  0  0  0  0  0  0  0  0  0  0
    8.1463  -15.5313   22.4585 N   0  0  0  0  0  0  0  0  0  0  0  0
    7.7385  -15.8674   23.7849 C   0  0  1  0  0  0  0  0  0  0  0  0
    7.8928  -17.3781   23.9902 C   0  0  0  0  0  0  0  0  0  0  0  0
    7.5919  -17.7677   25.4008 C   0  0  0  0  0  0  0  0  0  0  0  0
    7.7978  -19.2313   25.5874 C   0  0  0  0  0  0  0  0  0  0  0  0
    7.4656  -19.7392   26.9671 C   0  0  0  0  0  0  0  0  0  0  0  0
    7.6808  -21.1798   27.0609 N   0  0  0  0  0  0  0  0  0  0  0  0
    8.5720  -15.1801   24.8204 C   0  0  0  0  0  0  0  0  0  0  0  0
    9.8317  -15.2898   24.8390 O   0  0  0  0  0  0  0  0  0  0  0  0
    8.0183  -12.5966   27.5294 C   0  0  0  0  0  0  0  0  0  0  0  0
    8.7470  -13.7584   26.8874 C   0  0  2  0  0  0  0  0  0  0  0  0
    7.9926  -14.3708   25.8336 N   0  0  0  0  0  0  0  0  0  0  0  0
    9.1758  -14.7206   27.9240 C   0  0  0  0  0  0  0  0  0  0  0  0
   10.1530  -14.3683   28.8340 O   0  0  0  0  0  0  0  0  0  0  0  0
    8.6720  -15.8617   28.0025 O   0  0  0  0  0  0  0  0  0  0  0  0
  2  5  1  0
  2  1  1  6
  3  2  1  0
  4  3  1  0
  5  6  2  0
  7  8  1  0
  7  5  1  0
  8 14  1  0
  8  9  1  1
 10  9  1  0
 10 11  1  0
 11 12  1  0
 12 13  1  0
 14 18  1  0
 15 14  2  0
 17 16  1  1
 17 19  1  0
 18 17  1  0
 19 21  2  0
 19 20  1  0
M  END
$$$$
