CKA.pdb
     RDKit          3D

 21 20  0  0  1  0  0  0  0  0999 V2000
    7.4117  -14.5736   16.5429 N   0  0  0  0  0  0  0  0  0  0  0  0
    8.2993  -14.0949   17.5744 C   0  0  1  0  0  0  0  0  0  0  0  0
    7.6333  -13.0168   18.4038 C   0  0  0  0  0  0  0  0  0  0  0  0
    8.7877  -12.6122   19.7625 S   0  0  0  0  0  0  0  0  0  0  0  0
    8.7393  -15.2360   18.3995 C   0  0  0  0  0  0  0  0  0  0  0  0
    7.8811  -16.0876   18.7828 O   0  0  0  0  0  0  0  0  0  0  0  0
   10.1073  -15.3528   18.7431 N   0  0  0  0  0  0  0  0  0  0  0  0
   10.5441  -16.4635   19.5268 C   0  0  1  0  0  0  0  0  0  0  0  0
   11.7937  -17.0728   18.8821 C   0  0  0  0  0  0  0  0  0  0  0  0
   12.1946  -18.3392   19.5658 C   0  0  0  0  0  0  0  0  0  0  0  0
   13.3911  -18.9280   18.9018 C   0  0  0  0  0  0  0  0  0  0  0  0
   13.9006  -20.1952   19.5393 C   0  0  0  0  0  0  0  0  0  0  0  0
   15.0393  -20.7322   18.8007 N   0  0  0  0  0  0  0  0  0  0  0  0
   10.9030  -16.0602   20.9226 C   0  0  0  0  0  0  0  0  0  0  0  0
   11.8394  -15.2436   21.1578 O   0  0  0  0  0  0  0  0  0  0  0  0
    9.3180  -16.3921   24.3312 C   0  0  0  0  0  0  0  0  0  0  0  0
   10.4930  -16.1759   23.4010 C   0  0  2  0  0  0  0  0  0  0  0  0
   10.2119  -16.5726   22.0526 N   0  0  0  0  0  0  0  0  0  0  0  0
   11.7006  -16.8248   23.9532 C   0  0  0  0  0  0  0  0  0  0  0  0
   12.3111  -17.8532   23.2627 O   0  0  0  0  0  0  0  0  0  0  0  0
   12.1931  -16.4644   25.0439 O   0  0  0  0  0  0  0  0  0  0  0  0
  2  5  1  0
  2  1  1  6
  3  2  1  0
  4  3  1  0
  5  6  2  0
  7  8  1  0
  7  5  1  0
  8 14  1  0
  8  9  1  6
 10  9  1  0
 10 11  1  0
 11 12  1  0
 12 13  1  0
 14 18  1  0
 15 14  2  0
 17 16  1  1
 17 19  1  0
 18 17  1  0
 19 21  2  0
 19 20  1  0
M  END
$$$$
