CKA.pdb
     RDKit          3D

 21 20  0  0  1  0  0  0  0  0999 V2000
    7.9024  -15.4925   18.6509 N   0  0  0  0  0  0  0  0  0  0  0  0
    8.2351  -14.5665   19.7058 C   0  0  1  0  0  0  0  0  0  0  0  0
    7.9479  -13.1404   19.2844 C   0  0  0  0  0  0  0  0  0  0  0  0
    8.4303  -12.0718   20.6872 S   0  0  0  0  0  0  0  0  0  0  0  0
    7.4981  -14.9423   20.9273 C   0  0  0  0  0  0  0  0  0  0  0  0
    6.2346  -15.0425   20.8794 O   0  0  0  0  0  0  0  0  0  0  0  0
    8.2179  -15.1816   22.1221 N   0  0  0  0  0  0  0  0  0  0  0  0
    7.5067  -15.4282   23.3354 C   0  0  1  0  0  0  0  0  0  0  0  0
    7.6644  -16.9034   23.7191 C   0  0  0  0  0  0  0  0  0  0  0  0
    6.6292  -17.7509   23.0542 C   0  0  0  0  0  0  0  0  0  0  0  0
    6.7974  -19.1772   23.4501 C   0  0  0  0  0  0  0  0  0  0  0  0
    5.8036  -20.1219   22.8242 C   0  0  0  0  0  0  0  0  0  0  0  0
    6.0945  -21.5050   23.1883 N   0  0  0  0  0  0  0  0  0  0  0  0
    8.0289  -14.6045   24.4705 C   0  0  0  0  0  0  0  0  0  0  0  0
    9.2516  -14.6175   24.7929 O   0  0  0  0  0  0  0  0  0  0  0  0
    6.5524  -12.1222   26.9522 C   0  0  0  0  0  0  0  0  0  0  0  0
    7.6189  -13.0442   26.3995 C   0  0  2  0  0  0  0  0  0  0  0  0
    7.1800  -13.7676   25.2425 N   0  0  0  0  0  0  0  0  0  0  0  0
    8.1299  -13.9250   27.4708 C   0  0  0  0  0  0  0  0  0  0  0  0
    9.0502  -13.4450   28.3817 O   0  0  0  0  0  0  0  0  0  0  0  0
    7.7475  -15.1100   27.5781 O   0  0  0  0  0  0  0  0  0  0  0  0
  2  5  1  0
  2  1  1  6
  3  2  1  0
  4  3  1  0
  5  6  2  0
  7  8  1  0
  7  5  1  0
  8 14  1  0
  8  9  1  1
 10  9  1  0
 10 11  1  0
 11 12  1  0
 12 13  1  0
 14 18  1  0
 15 14  2  0
 17 16  1  1
 17 19  1  0
 18 17  1  0
 19 21  2  0
 19 20  1  0
M  END
$$$$
