CKA.pdb
     RDKit          3D

 21 20  0  0  1  0  0  0  0  0999 V2000
    6.7283  -15.2582   19.3540 N   0  0  0  0  0  0  0  0  0  0  0  0
    7.6645  -14.6827   20.2886 C   0  0  1  0  0  0  0  0  0  0  0  0
    7.7957  -13.1894   20.0727 C   0  0  0  0  0  0  0  0  0  0  0  0
    8.8425  -12.9637   18.5909 S   0  0  0  0  0  0  0  0  0  0  0  0
    7.2361  -15.0082   21.6623 C   0  0  0  0  0  0  0  0  0  0  0  0
    6.0344  -14.7874   22.0026 O   0  0  0  0  0  0  0  0  0  0  0  0
    8.1756  -15.5586   22.5665 N   0  0  0  0  0  0  0  0  0  0  0  0
    7.7657  -15.8885   23.8938 C   0  0  1  0  0  0  0  0  0  0  0  0
    8.0180  -17.3795   24.1416 C   0  0  0  0  0  0  0  0  0  0  0  0
    7.6939  -17.7582   25.5500 C   0  0  0  0  0  0  0  0  0  0  0  0
    7.8661  -19.2253   25.7428 C   0  0  0  0  0  0  0  0  0  0  0  0
    7.3701  -19.7449   27.0679 C   0  0  0  0  0  0  0  0  0  0  0  0
    7.4057  -21.2036   27.1052 N   0  0  0  0  0  0  0  0  0  0  0  0
    8.5303  -15.1201   24.9256 C   0  0  0  0  0  0  0  0  0  0  0  0
    9.7923  -15.1673   24.9886 O   0  0  0  0  0  0  0  0  0  0  0  0
    7.7954  -12.3780   27.4093 C   0  0  0  0  0  0  0  0  0  0  0  0
    8.5717  -13.5795   26.9128 C   0  0  2  0  0  0  0  0  0  0  0  0
    7.8793  -14.3000   25.8852 N   0  0  0  0  0  0  0  0  0  0  0  0
    8.9630  -14.4346   28.0530 C   0  0  0  0  0  0  0  0  0  0  0  0
    8.5754  -15.7595   28.0899 O   0  0  0  0  0  0  0  0  0  0  0  0
    9.6451  -13.9866   28.9997 O   0  0  0  0  0  0  0  0  0  0  0  0
  2  5  1  0
  2  1  1  6
  3  2  1  0
  4  3  1  0
  5  6  2  0
  7  8  1  0
  7  5  1  0
  8 14  1  0
  8  9  1  1
 10  9  1  0
 10 11  1  0
 11 12  1  0
 12 13  1  0
 14 18  1  0
 15 14  2  0
 17 16  1  1
 17 19  1  0
 18 17  1  0
 19 21  2  0
 19 20  1  0
M  END
$$$$
