CKA.pdb
     RDKit          3D

 21 20  0  0  1  0  0  0  0  0999 V2000
    7.1771  -14.8795   19.6840 N   0  0  0  0  0  0  0  0  0  0  0  0
    8.1147  -14.3223   20.6280 C   0  0  1  0  0  0  0  0  0  0  0  0
    7.9817  -12.8152   20.6973 C   0  0  0  0  0  0  0  0  0  0  0  0
    8.7403  -12.1511   19.1721 S   0  0  0  0  0  0  0  0  0  0  0  0
    7.9094  -14.9575   21.9436 C   0  0  0  0  0  0  0  0  0  0  0  0
    6.7389  -15.0054   22.4298 O   0  0  0  0  0  0  0  0  0  0  0  0
    9.0224  -15.4977   22.6309 N   0  0  0  0  0  0  0  0  0  0  0  0
    8.8362  -16.0912   23.9162 C   0  0  1  0  0  0  0  0  0  0  0  0
    9.4061  -17.5136   23.9001 C   0  0  0  0  0  0  0  0  0  0  0  0
    8.5791  -18.4201   23.0479 C   0  0  0  0  0  0  0  0  0  0  0  0
    9.2412  -19.7477   22.9124 C   0  0  0  0  0  0  0  0  0  0  0  0
    8.5198  -20.7180   22.0125 C   0  0  0  0  0  0  0  0  0  0  0  0
    9.2495  -21.9778   21.9083 N   0  0  0  0  0  0  0  0  0  0  0  0
    9.5421  -15.3304   24.9943 C   0  0  0  0  0  0  0  0  0  0  0  0
   10.7989  -15.1910   24.9947 O   0  0  0  0  0  0  0  0  0  0  0  0
    8.5997  -12.9380   27.7337 C   0  0  0  0  0  0  0  0  0  0  0  0
    9.4794  -14.0168   27.1378 C   0  0  2  0  0  0  0  0  0  0  0  0
    8.8385  -14.7270   26.0704 N   0  0  0  0  0  0  0  0  0  0  0  0
    9.9786  -14.9085   28.2056 C   0  0  0  0  0  0  0  0  0  0  0  0
   10.8174  -14.4138   29.1849 O   0  0  0  0  0  0  0  0  0  0  0  0
    9.6589  -16.1160   28.2489 O   0  0  0  0  0  0  0  0  0  0  0  0
  2  5  1  0
  2  1  1  6
  3  2  1  0
  4  3  1  0
  5  6  2  0
  7  8  1  0
  7  5  1  0
  8 14  1  0
  8  9  1  6
 10  9  1  0
 10 11  1  0
 11 12  1  0
 12 13  1  0
 14 18  1  0
 15 14  2  0
 17 16  1  1
 17 19  1  0
 18 17  1  0
 19 21  2  0
 19 20  1  0
M  END
$$$$
