CKA.pdb
     RDKit          3D

 21 20  0  0  1  0  0  0  0  0999 V2000
    7.4571  -13.6087   17.6800 N   0  0  0  0  0  0  0  0  0  0  0  0
    8.3651  -14.0412   18.7141 C   0  0  1  0  0  0  0  0  0  0  0  0
    9.3003  -12.9200   19.1166 C   0  0  0  0  0  0  0  0  0  0  0  0
   10.5136  -13.6408   20.2788 S   0  0  0  0  0  0  0  0  0  0  0  0
    7.5853  -14.5499   19.8586 C   0  0  0  0  0  0  0  0  0  0  0  0
    6.5815  -13.8889   20.2638 O   0  0  0  0  0  0  0  0  0  0  0  0
    7.9757  -15.7620   20.4762 N   0  0  0  0  0  0  0  0  0  0  0  0
    7.2313  -16.2567   21.5895 C   0  0  1  0  0  0  0  0  0  0  0  0
    6.9902  -17.7588   21.4051 C   0  0  0  0  0  0  0  0  0  0  0  0
    6.1786  -18.3201   22.5268 C   0  0  0  0  0  0  0  0  0  0  0  0
    6.0118  -19.7907   22.3579 C   0  0  0  0  0  0  0  0  0  0  0  0
    5.2363  -20.4635   23.4615 C   0  0  0  0  0  0  0  0  0  0  0  0
    5.0952  -21.8936   23.2060 N   0  0  0  0  0  0  0  0  0  0  0  0
    7.9613  -16.0685   22.8823 C   0  0  0  0  0  0  0  0  0  0  0  0
    9.1252  -16.5296   23.0608 O   0  0  0  0  0  0  0  0  0  0  0  0
    7.3202  -14.2119   26.1392 C   0  0  0  0  0  0  0  0  0  0  0  0
    8.0320  -15.2026   25.2422 C   0  0  2  0  0  0  0  0  0  0  0  0
    7.3859  -15.3639   23.9729 N   0  0  0  0  0  0  0  0  0  0  0  0
    8.2269  -16.4816   25.9567 C   0  0  0  0  0  0  0  0  0  0  0  0
    9.2996  -16.6405   26.8119 O   0  0  0  0  0  0  0  0  0  0  0  0
    7.4370  -17.4386   25.8074 O   0  0  0  0  0  0  0  0  0  0  0  0
  2  5  1  0
  2  1  1  6
  3  2  1  0
  4  3  1  0
  5  6  2  0
  7  8  1  0
  7  5  1  0
  8 14  1  0
  8  9  1  6
 10  9  1  0
 10 11  1  0
 11 12  1  0
 12 13  1  0
 14 18  1  0
 15 14  2  0
 17 16  1  1
 17 19  1  0
 18 17  1  0
 19 21  2  0
 19 20  1  0
M  END
$$$$
