CKA.pdb
     RDKit          3D

 21 20  0  0  1  0  0  0  0  0999 V2000
    8.5594  -21.6279   17.4034 N   0  0  0  0  0  0  0  0  0  0  0  0
    8.1035  -21.0211   18.6301 C   0  0  1  0  0  0  0  0  0  0  0  0
    8.1599  -22.0097   19.7762 C   0  0  0  0  0  0  0  0  0  0  0  0
    6.9267  -23.3087   19.4094 S   0  0  0  0  0  0  0  0  0  0  0  0
    8.9085  -19.8145   18.8994 C   0  0  0  0  0  0  0  0  0  0  0  0
   10.1194  -19.7838   18.5230 O   0  0  0  0  0  0  0  0  0  0  0  0
    8.3108  -18.7211   19.5705 N   0  0  0  0  0  0  0  0  0  0  0  0
    9.0727  -17.5363   19.8039 C   0  0  1  0  0  0  0  0  0  0  0  0
    8.1404  -16.3213   19.7522 C   0  0  0  0  0  0  0  0  0  0  0  0
    8.8948  -15.0489   19.9617 C   0  0  0  0  0  0  0  0  0  0  0  0
    7.9639  -13.8861   19.9338 C   0  0  0  0  0  0  0  0  0  0  0  0
    8.6343  -12.5441   20.0804 C   0  0  0  0  0  0  0  0  0  0  0  0
    7.6514  -11.4651   20.0840 N   0  0  0  0  0  0  0  0  0  0  0  0
    9.7317  -17.5472   21.1474 C   0  0  0  0  0  0  0  0  0  0  0  0
    9.1419  -17.9941   22.1728 O   0  0  0  0  0  0  0  0  0  0  0  0
   12.1164  -18.5507   22.9703 C   0  0  0  0  0  0  0  0  0  0  0  0
   11.7502  -17.1319   22.5887 C   0  0  2  0  0  0  0  0  0  0  0  0
   11.0508  -17.0573   21.3397 N   0  0  0  0  0  0  0  0  0  0  0  0
   12.9515  -16.2719   22.6292 C   0  0  0  0  0  0  0  0  0  0  0  0
   13.5974  -16.0407   23.8278 O   0  0  0  0  0  0  0  0  0  0  0  0
   13.4070  -15.7393   21.5943 O   0  0  0  0  0  0  0  0  0  0  0  0
  2  5  1  0
  2  1  1  6
  3  2  1  0
  4  3  1  0
  5  6  2  0
  7  8  1  0
  7  5  1  0
  8 14  1  0
  8  9  1  1
 10  9  1  0
 10 11  1  0
 11 12  1  0
 12 13  1  0
 14 18  1  0
 15 14  2  0
 17 16  1  6
 17 19  1  0
 18 17  1  0
 19 21  2  0
 19 20  1  0
M  END
$$$$
