CKA.pdb
     RDKit          3D

 21 20  0  0  1  0  0  0  0  0999 V2000
   13.9728  -17.4621   15.4637 N   0  0  0  0  0  0  0  0  0  0  0  0
   14.2958  -18.3210   16.5767 C   0  0  1  0  0  0  0  0  0  0  0  0
   15.7502  -18.1708   16.9718 C   0  0  0  0  0  0  0  0  0  0  0  0
   16.6996  -19.3347   15.9294 S   0  0  0  0  0  0  0  0  0  0  0  0
   13.3838  -18.0218   17.6971 C   0  0  0  0  0  0  0  0  0  0  0  0
   12.9641  -16.8348   17.8510 O   0  0  0  0  0  0  0  0  0  0  0  0
   12.9995  -19.0655   18.5724 N   0  0  0  0  0  0  0  0  0  0  0  0
   12.0567  -18.8016   19.6117 C   0  0  1  0  0  0  0  0  0  0  0  0
   11.2526  -20.0748   19.8956 C   0  0  0  0  0  0  0  0  0  0  0  0
   10.2362  -19.8474   20.9667 C   0  0  0  0  0  0  0  0  0  0  0  0
    9.4777  -21.1015   21.2335 C   0  0  0  0  0  0  0  0  0  0  0  0
    8.3808  -20.9636   22.2580 C   0  0  0  0  0  0  0  0  0  0  0  0
    7.7780  -22.2587   22.5577 N   0  0  0  0  0  0  0  0  0  0  0  0
   12.7252  -18.3920   20.8864 C   0  0  0  0  0  0  0  0  0  0  0  0
   13.8219  -18.9025   21.2549 O   0  0  0  0  0  0  0  0  0  0  0  0
   12.0654  -15.8026   23.5976 C   0  0  0  0  0  0  0  0  0  0  0  0
   12.7824  -16.9760   22.9638 C   0  0  2  0  0  0  0  0  0  0  0  0
   12.1636  -17.4111   21.7463 N   0  0  0  0  0  0  0  0  0  0  0  0
   12.9408  -18.0643   23.9511 C   0  0  0  0  0  0  0  0  0  0  0  0
   12.2199  -19.2342   23.8136 O   0  0  0  0  0  0  0  0  0  0  0  0
   13.7203  -17.9552   24.9220 O   0  0  0  0  0  0  0  0  0  0  0  0
  2  5  1  0
  2  1  1  6
  3  2  1  0
  4  3  1  0
  5  6  2  0
  7  8  1  0
  7  5  1  0
  8 14  1  0
  8  9  1  1
 10  9  1  0
 10 11  1  0
 11 12  1  0
 12 13  1  0
 14 18  1  0
 15 14  2  0
 17 16  1  1
 17 19  1  0
 18 17  1  0
 19 21  2  0
 19 20  1  0
M  END
$$$$
