CKA.pdb
     RDKit          3D

 21 20  0  0  1  0  0  0  0  0999 V2000
   -1.6814  -27.4289   32.2206 N   0  0  0  0  0  0  0  0  0  0  0  0
   -3.1207  -27.3905   32.1318 C   0  0  1  0  0  0  0  0  0  0  0  0
   -3.7431  -27.2283   33.5029 C   0  0  0  0  0  0  0  0  0  0  0  0
   -3.8847  -28.9056   34.2164 S   0  0  0  0  0  0  0  0  0  0  0  0
   -3.5182  -26.3082   31.2114 C   0  0  0  0  0  0  0  0  0  0  0  0
   -2.9006  -25.2013   31.2571 O   0  0  0  0  0  0  0  0  0  0  0  0
   -4.5783  -26.5309   30.3005 N   0  0  0  0  0  0  0  0  0  0  0  0
   -5.0112  -25.4685   29.4504 C   0  0  1  0  0  0  0  0  0  0  0  0
   -5.4897  -26.0545   28.1178 C   0  0  0  0  0  0  0  0  0  0  0  0
   -5.8331  -24.9760   27.1426 C   0  0  0  0  0  0  0  0  0  0  0  0
   -6.1935  -25.5680   25.8240 C   0  0  0  0  0  0  0  0  0  0  0  0
   -6.4778  -24.5584   24.7414 C   0  0  0  0  0  0  0  0  0  0  0  0
   -6.7425  -25.2178   23.4665 N   0  0  0  0  0  0  0  0  0  0  0  0
   -6.1502  -24.7012   30.0451 C   0  0  0  0  0  0  0  0  0  0  0  0
   -7.1247  -25.2840   30.6015 O   0  0  0  0  0  0  0  0  0  0  0  0
   -6.8995  -21.0460   30.7424 C   0  0  0  0  0  0  0  0  0  0  0  0
   -7.2561  -22.5100   30.5924 C   0  0  2  0  0  0  0  0  0  0  0  0
   -6.1952  -23.2820   30.0152 N   0  0  0  0  0  0  0  0  0  0  0  0
   -8.5328  -22.6465   29.8605 C   0  0  0  0  0  0  0  0  0  0  0  0
   -8.5668  -23.2976   28.6431 O   0  0  0  0  0  0  0  0  0  0  0  0
   -9.5994  -22.1827   30.3183 O   0  0  0  0  0  0  0  0  0  0  0  0
  2  5  1  0
  2  1  1  1
  3  2  1  0
  4  3  1  0
  5  6  2  0
  7  8  1  0
  7  5  1  0
  8 14  1  0
  8  9  1  6
 10  9  1  0
 10 11  1  0
 11 12  1  0
 12 13  1  0
 14 18  1  0
 15 14  2  0
 17 16  1  6
 17 19  1  0
 18 17  1  0
 19 21  2  0
 19 20  1  0
M  END
$$$$
