CKA.pdb
     RDKit          3D

 21 20  0  0  1  0  0  0  0  0999 V2000
    5.2004  -13.8757   26.3213 N   0  0  0  0  0  0  0  0  0  0  0  0
    6.4520  -13.3941   25.7899 C   0  0  1  0  0  0  0  0  0  0  0  0
    7.3561  -12.8990   26.8995 C   0  0  0  0  0  0  0  0  0  0  0  0
    6.6361  -11.3301   27.5019 S   0  0  0  0  0  0  0  0  0  0  0  0
    7.0838  -14.4662   24.9975 C   0  0  0  0  0  0  0  0  0  0  0  0
    7.0292  -15.6605   25.4210 O   0  0  0  0  0  0  0  0  0  0  0  0
    7.7352  -14.1365   23.7850 N   0  0  0  0  0  0  0  0  0  0  0  0
    8.4753  -15.1391   23.0880 C   0  0  1  0  0  0  0  0  0  0  0  0
    8.9953  -14.5546   21.7704 C   0  0  0  0  0  0  0  0  0  0  0  0
    7.8837  -14.3396   20.7957 C   0  0  0  0  0  0  0  0  0  0  0  0
    8.4231  -13.8442   19.4984 C   0  0  0  0  0  0  0  0  0  0  0  0
    7.3715  -13.4600   18.4892 C   0  0  0  0  0  0  0  0  0  0  0  0
    7.9819  -13.0063   17.2434 N   0  0  0  0  0  0  0  0  0  0  0  0
    9.6577  -15.6129   23.8735 C   0  0  0  0  0  0  0  0  0  0  0  0
   10.6000  -14.8319   24.1913 O   0  0  0  0  0  0  0  0  0  0  0  0
   10.8063  -17.0721   26.5295 C   0  0  0  0  0  0  0  0  0  0  0  0
   10.8912  -17.4515   25.0661 C   0  0  2  0  0  0  0  0  0  0  0  0
    9.7821  -16.9614   24.3017 N   0  0  0  0  0  0  0  0  0  0  0  0
   11.0834  -18.9108   24.9329 C   0  0  0  0  0  0  0  0  0  0  0  0
   10.1724  -19.6671   24.2220 O   0  0  0  0  0  0  0  0  0  0  0  0
   12.0616  -19.4896   25.4529 O   0  0  0  0  0  0  0  0  0  0  0  0
  2  5  1  0
  2  1  1  1
  3  2  1  0
  4  3  1  0
  5  6  2  0
  7  8  1  0
  7  5  1  0
  8 14  1  0
  8  9  1  6
 10  9  1  0
 10 11  1  0
 11 12  1  0
 12 13  1  0
 14 18  1  0
 15 14  2  0
 17 16  1  1
 17 19  1  0
 18 17  1  0
 19 21  2  0
 19 20  1  0
M  END
$$$$
