CKA.pdb
     RDKit          3D

 21 20  0  0  1  0  0  0  0  0999 V2000
    7.0790  -14.6235   19.0991 N   0  0  0  0  0  0  0  0  0  0  0  0
    7.9731  -14.0521   20.0762 C   0  0  1  0  0  0  0  0  0  0  0  0
    7.6985  -12.5743   20.2619 C   0  0  0  0  0  0  0  0  0  0  0  0
    8.9039  -11.9677   21.4954 S   0  0  0  0  0  0  0  0  0  0  0  0
    7.8483  -14.8018   21.3407 C   0  0  0  0  0  0  0  0  0  0  0  0
    6.6920  -15.0579   21.7947 O   0  0  0  0  0  0  0  0  0  0  0  0
    9.0207  -15.2169   22.0161 N   0  0  0  0  0  0  0  0  0  0  0  0
    8.9087  -15.9311   23.2473 C   0  0  1  0  0  0  0  0  0  0  0  0
    9.6730  -17.2542   23.1321 C   0  0  0  0  0  0  0  0  0  0  0  0
    8.9904  -18.3435   23.8934 C   0  0  0  0  0  0  0  0  0  0  0  0
    9.6751  -19.6454   23.6577 C   0  0  0  0  0  0  0  0  0  0  0  0
    9.1263  -20.7958   24.4622 C   0  0  0  0  0  0  0  0  0  0  0  0
    9.8124  -22.0409   24.1314 N   0  0  0  0  0  0  0  0  0  0  0  0
    9.4913  -15.1676   24.3951 C   0  0  0  0  0  0  0  0  0  0  0  0
   10.6744  -14.7221   24.3639 O   0  0  0  0  0  0  0  0  0  0  0  0
    8.4065  -13.1492   27.2571 C   0  0  0  0  0  0  0  0  0  0  0  0
    9.2956  -14.2561   26.7306 C   0  0  2  0  0  0  0  0  0  0  0  0
    8.7473  -14.9047   25.5759 N   0  0  0  0  0  0  0  0  0  0  0  0
    9.6262  -15.1994   27.8193 C   0  0  0  0  0  0  0  0  0  0  0  0
   10.3035  -14.7557   28.9381 O   0  0  0  0  0  0  0  0  0  0  0  0
    9.3057  -16.4058   27.7561 O   0  0  0  0  0  0  0  0  0  0  0  0
  2  5  1  0
  2  1  1  6
  3  2  1  0
  4  3  1  0
  5  6  2  0
  7  8  1  0
  7  5  1  0
  8 14  1  0
  8  9  1  6
 10  9  1  0
 10 11  1  0
 11 12  1  0
 12 13  1  0
 14 18  1  0
 15 14  2  0
 17 16  1  1
 17 19  1  0
 18 17  1  0
 19 21  2  0
 19 20  1  0
M  END
$$$$
