QAE.pdb
     RDKit          3D

 24 23  0  0  1  0  0  0  0  0999 V2000
   18.3261  -10.1851  -20.8293 N   0  0  0  0  0  0  0  0  0  0  0  0
   18.1391  -11.5842  -20.7533 C   0  0  0  0  0  0  0  0  0  0  0  0
   17.5069  -12.1612  -21.6625 O   0  0  0  0  0  0  0  0  0  0  0  0
   18.6804  -12.3397  -19.6233 C   0  0  0  0  0  0  0  0  0  0  0  0
   19.3871  -11.5423  -18.5870 C   0  0  0  0  0  0  0  0  0  0  0  0
   20.0104  -12.3362  -17.4644 C   0  0  2  0  0  0  0  0  0  0  0  0
   18.8848  -13.0181  -16.8010 N   0  0  0  0  0  0  0  0  0  0  0  0
   20.6339  -11.4436  -16.4546 C   0  0  0  0  0  0  0  0  0  0  0  0
   19.8735  -10.7239  -15.7486 O   0  0  0  0  0  0  0  0  0  0  0  0
   24.0909  -10.6681  -15.0660 C   0  0  0  0  0  0  0  0  0  0  0  0
   22.6328  -10.3958  -15.3604 C   0  0  2  0  0  0  0  0  0  0  0  0
   22.0292  -11.3493  -16.2320 N   0  0  0  0  0  0  0  0  0  0  0  0
   22.4793   -8.9946  -15.8449 C   0  0  0  0  0  0  0  0  0  0  0  0
   22.3457   -8.6900  -17.0405 O   0  0  0  0  0  0  0  0  0  0  0  0
   22.4877   -7.9578  -14.8735 N   0  0  0  0  0  0  0  0  0  0  0  0
   22.1677   -6.5681  -15.1696 C   0  0  1  0  0  0  0  0  0  0  0  0
   20.7115   -6.4947  -15.5297 C   0  0  0  0  0  0  0  0  0  0  0  0
   20.3410   -5.0845  -15.8630 C   0  0  0  0  0  0  0  0  0  0  0  0
   18.9110   -4.9438  -16.1922 C   0  0  0  0  0  0  0  0  0  0  0  0
   18.0896   -5.8888  -16.1900 O   0  0  0  0  0  0  0  0  0  0  0  0
   22.3846   -5.7103  -13.9636 C   0  0  0  0  0  0  0  0  0  0  0  0
   22.7655   -4.3858  -14.0646 O   0  0  0  0  0  0  0  0  0  0  0  0
   18.4250   -3.6629  -16.5340 O   0  0  0  0  0  0  0  0  0  0  0  0
   22.2184   -6.1977  -12.8187 O   0  0  0  0  0  0  0  0  0  0  0  0
  2  1  1  0
  3  2  2  0
  4  2  1  0
  5  4  1  0
  6  7  1  1
  6  5  1  0
  6  8  1  0
  8  9  2  0
 11 10  1  6
 11 13  1  0
 12  8  1  0
 12 11  1  0
 13 15  1  0
 13 14  2  0
 15 16  1  0
 16 21  1  0
 16 17  1  1
 18 17  1  0
 19 18  1  0
 20 19  2  0
 21 22  1  0
 23 19  1  0
 24 21  2  0
M  END
$$$$
