QAE.pdb
     RDKit          3D

 24 23  0  0  1  0  0  0  0  0999 V2000
   16.0109  -14.2269  -16.5826 N   0  0  0  0  0  0  0  0  0  0  0  0
   16.5083  -15.4315  -16.0350 C   0  0  0  0  0  0  0  0  0  0  0  0
   15.7553  -16.4257  -15.9742 O   0  0  0  0  0  0  0  0  0  0  0  0
   17.8860  -15.5059  -15.5478 C   0  0  0  0  0  0  0  0  0  0  0  0
   18.6848  -14.2579  -15.6636 C   0  0  0  0  0  0  0  0  0  0  0  0
   19.1802  -13.9259  -17.0504 C   0  0  2  0  0  0  0  0  0  0  0  0
   20.4178  -14.7085  -17.2171 N   0  0  0  0  0  0  0  0  0  0  0  0
   19.5541  -12.4930  -17.1606 C   0  0  0  0  0  0  0  0  0  0  0  0
   20.5997  -12.1053  -16.5682 O   0  0  0  0  0  0  0  0  0  0  0  0
   18.4817   -9.4387  -19.1472 C   0  0  0  0  0  0  0  0  0  0  0  0
   19.2025  -10.1691  -18.0364 C   0  0  2  0  0  0  0  0  0  0  0  0
   18.8117  -11.5327  -17.8899 N   0  0  0  0  0  0  0  0  0  0  0  0
   19.0740   -9.3940  -16.7698 C   0  0  0  0  0  0  0  0  0  0  0  0
   18.2826   -9.6874  -15.8600 O   0  0  0  0  0  0  0  0  0  0  0  0
   19.9103   -8.2572  -16.6063 N   0  0  0  0  0  0  0  0  0  0  0  0
   19.9427   -7.4426  -15.3994 C   0  0  1  0  0  0  0  0  0  0  0  0
   21.1756   -6.5864  -15.4514 C   0  0  0  0  0  0  0  0  0  0  0  0
   21.2856   -5.7774  -14.1982 C   0  0  0  0  0  0  0  0  0  0  0  0
   22.4287   -4.8472  -14.2304 C   0  0  0  0  0  0  0  0  0  0  0  0
   23.4447   -5.0014  -14.9459 O   0  0  0  0  0  0  0  0  0  0  0  0
   18.7562   -6.5333  -15.3467 C   0  0  0  0  0  0  0  0  0  0  0  0
   18.1583   -6.1762  -14.1531 O   0  0  0  0  0  0  0  0  0  0  0  0
   22.3854   -3.7034  -13.4036 O   0  0  0  0  0  0  0  0  0  0  0  0
   18.2797   -6.0742  -16.4136 O   0  0  0  0  0  0  0  0  0  0  0  0
  2  1  1  0
  3  2  2  0
  4  2  1  0
  5  4  1  0
  6  7  1  1
  6  5  1  0
  6  8  1  0
  8  9  2  0
 11 10  1  6
 11 13  1  0
 12  8  1  0
 12 11  1  0
 13 15  1  0
 13 14  2  0
 15 16  1  0
 16 21  1  0
 16 17  1  6
 18 17  1  0
 19 18  1  0
 20 19  2  0
 21 22  1  0
 23 19  1  0
 24 21  2  0
M  END
$$$$
