QAE.pdb
     RDKit          3D

 24 23  0  0  1  0  0  0  0  0999 V2000
   17.0639  -12.1523  -19.5259 N   0  0  0  0  0  0  0  0  0  0  0  0
   16.1395  -11.6308  -18.5922 C   0  0  0  0  0  0  0  0  0  0  0  0
   14.9298  -11.9150  -18.7141 O   0  0  0  0  0  0  0  0  0  0  0  0
   16.5996  -10.7711  -17.5013 C   0  0  0  0  0  0  0  0  0  0  0  0
   18.0230  -10.3479  -17.5632 C   0  0  0  0  0  0  0  0  0  0  0  0
   18.9865  -11.1757  -16.7473 C   0  0  2  0  0  0  0  0  0  0  0  0
   18.1388  -12.0295  -15.8962 N   0  0  0  0  0  0  0  0  0  0  0  0
   19.7947  -10.3229  -15.8393 C   0  0  0  0  0  0  0  0  0  0  0  0
   19.1843   -9.5211  -15.0784 O   0  0  0  0  0  0  0  0  0  0  0  0
   23.4596   -9.7710  -14.9530 C   0  0  0  0  0  0  0  0  0  0  0  0
   21.9890   -9.4249  -15.0209 C   0  0  2  0  0  0  0  0  0  0  0  0
   21.2089  -10.3528  -15.7717 N   0  0  0  0  0  0  0  0  0  0  0  0
   21.8326   -8.0217  -15.4989 C   0  0  0  0  0  0  0  0  0  0  0  0
   21.4795   -7.7216  -16.6501 O   0  0  0  0  0  0  0  0  0  0  0  0
   22.1060   -6.9776  -14.5750 N   0  0  0  0  0  0  0  0  0  0  0  0
   21.9518   -5.5625  -14.8834 C   0  0  1  0  0  0  0  0  0  0  0  0
   20.5065   -5.3137  -15.2071 C   0  0  0  0  0  0  0  0  0  0  0  0
   20.2979   -3.8662  -15.5206 C   0  0  0  0  0  0  0  0  0  0  0  0
   18.8960   -3.5630  -15.8607 C   0  0  0  0  0  0  0  0  0  0  0  0
   18.2823   -4.0583  -16.8333 O   0  0  0  0  0  0  0  0  0  0  0  0
   22.3057   -4.7242  -13.6963 C   0  0  0  0  0  0  0  0  0  0  0  0
   22.7166   -3.4108  -13.8222 O   0  0  0  0  0  0  0  0  0  0  0  0
   18.1891   -2.6554  -15.0420 O   0  0  0  0  0  0  0  0  0  0  0  0
   22.2309   -5.2182  -12.5446 O   0  0  0  0  0  0  0  0  0  0  0  0
  2  1  1  0
  3  2  2  0
  4  2  1  0
  5  4  1  0
  6  7  1  1
  6  5  1  0
  6  8  1  0
  8  9  2  0
 11 10  1  6
 11 13  1  0
 12  8  1  0
 12 11  1  0
 13 15  1  0
 13 14  2  0
 15 16  1  0
 16 21  1  0
 16 17  1  1
 18 17  1  0
 19 18  1  0
 20 19  2  0
 21 22  1  0
 23 19  1  0
 24 21  2  0
M  END
$$$$
