QAE.pdb
     RDKit          3D

 24 23  0  0  1  0  0  0  0  0999 V2000
   14.7399  -11.6867  -14.6698 N   0  0  0  0  0  0  0  0  0  0  0  0
   15.1874  -11.9610  -15.9824 C   0  0  0  0  0  0  0  0  0  0  0  0
   14.6883  -12.9219  -16.6042 O   0  0  0  0  0  0  0  0  0  0  0  0
   16.2208  -11.1277  -16.5977 C   0  0  0  0  0  0  0  0  0  0  0  0
   16.6624   -9.9496  -15.8065 C   0  0  0  0  0  0  0  0  0  0  0  0
   17.7078  -10.2252  -14.7529 C   0  0  2  0  0  0  0  0  0  0  0  0
   16.9515  -10.4738  -13.5127 N   0  0  0  0  0  0  0  0  0  0  0  0
   18.5577   -9.0315  -14.5117 C   0  0  0  0  0  0  0  0  0  0  0  0
   17.9936   -7.9695  -14.1266 O   0  0  0  0  0  0  0  0  0  0  0  0
   22.2592   -8.1181  -14.6001 C   0  0  0  0  0  0  0  0  0  0  0  0
   20.7774   -7.8665  -14.4324 C   0  0  2  0  0  0  0  0  0  0  0  0
   19.9629   -9.0093  -14.6852 N   0  0  0  0  0  0  0  0  0  0  0  0
   20.3808   -6.6846  -15.2495 C   0  0  0  0  0  0  0  0  0  0  0  0
   19.5330   -6.7263  -16.1547 O   0  0  0  0  0  0  0  0  0  0  0  0
   21.0163   -5.4459  -14.9663 N   0  0  0  0  0  0  0  0  0  0  0  0
   20.5703   -4.1663  -15.5003 C   0  0  1  0  0  0  0  0  0  0  0  0
   19.1701   -3.9241  -15.0138 C   0  0  0  0  0  0  0  0  0  0  0  0
   18.7375   -2.5399  -15.3798 C   0  0  0  0  0  0  0  0  0  0  0  0
   17.6827   -2.5365  -16.4095 C   0  0  0  0  0  0  0  0  0  0  0  0
   17.0301   -3.5476  -16.7554 O   0  0  0  0  0  0  0  0  0  0  0  0
   21.4308   -3.0547  -14.9893 C   0  0  0  0  0  0  0  0  0  0  0  0
   21.7541   -1.9601  -15.7683 O   0  0  0  0  0  0  0  0  0  0  0  0
   17.3802   -1.3175  -17.0548 O   0  0  0  0  0  0  0  0  0  0  0  0
   21.8793   -3.1068  -13.8179 O   0  0  0  0  0  0  0  0  0  0  0  0
  2  1  1  0
  3  2  2  0
  4  2  1  0
  5  4  1  0
  6  7  1  1
  6  5  1  0
  6  8  1  0
  8  9  2  0
 11 10  1  6
 11 13  1  0
 12  8  1  0
 12 11  1  0
 13 15  1  0
 13 14  2  0
 15 16  1  0
 16 21  1  0
 16 17  1  1
 18 17  1  0
 19 18  1  0
 20 19  2  0
 21 22  1  0
 23 19  1  0
 24 21  2  0
M  END
$$$$
