QAE.pdb
     RDKit          3D

 24 23  0  0  1  0  0  0  0  0999 V2000
   22.1091  -31.5325   -8.1741 N   0  0  0  0  0  0  0  0  0  0  0  0
   22.9453  -30.8482   -9.0855 C   0  0  0  0  0  0  0  0  0  0  0  0
   22.4813  -29.8809   -9.7245 O   0  0  0  0  0  0  0  0  0  0  0  0
   24.3331  -31.2719   -9.2733 C   0  0  0  0  0  0  0  0  0  0  0  0
   24.7695  -32.4435   -8.4695 C   0  0  0  0  0  0  0  0  0  0  0  0
   26.1225  -33.0113   -8.8242 C   0  0  2  0  0  0  0  0  0  0  0  0
   25.8792  -33.9041   -9.9712 N   0  0  0  0  0  0  0  0  0  0  0  0
   26.6589  -33.8529   -7.7246 C   0  0  0  0  0  0  0  0  0  0  0  0
   26.0885  -34.9543   -7.4879 O   0  0  0  0  0  0  0  0  0  0  0  0
   29.4459  -33.6953   -5.1259 C   0  0  0  0  0  0  0  0  0  0  0  0
   28.1789  -34.2199   -5.7635 C   0  0  2  0  0  0  0  0  0  0  0  0
   27.7721  -33.4985   -6.9243 N   0  0  0  0  0  0  0  0  0  0  0  0
   27.1053  -34.3055   -4.7330 C   0  0  0  0  0  0  0  0  0  0  0  0
   26.2234  -33.4452   -4.5842 O   0  0  0  0  0  0  0  0  0  0  0  0
   27.1020  -35.4408   -3.8790 N   0  0  0  0  0  0  0  0  0  0  0  0
   26.1664  -35.6229   -2.7776 C   0  0  1  0  0  0  0  0  0  0  0  0
   25.3591  -36.8586   -3.0551 C   0  0  0  0  0  0  0  0  0  0  0  0
   24.4088  -37.1085   -1.9275 C   0  0  0  0  0  0  0  0  0  0  0  0
   23.0021  -37.1002   -2.3681 C   0  0  0  0  0  0  0  0  0  0  0  0
   22.6301  -36.8556   -3.5384 O   0  0  0  0  0  0  0  0  0  0  0  0
   26.9021  -35.8360   -1.4928 C   0  0  0  0  0  0  0  0  0  0  0  0
   26.3167  -35.5965   -0.2641 O   0  0  0  0  0  0  0  0  0  0  0  0
   21.9999  -37.3857   -1.4154 O   0  0  0  0  0  0  0  0  0  0  0  0
   28.0887  -36.2449   -1.5188 O   0  0  0  0  0  0  0  0  0  0  0  0
  2  1  1  0
  3  2  2  0
  4  2  1  0
  5  4  1  0
  6  7  1  6
  6  5  1  0
  6  8  1  0
  8  9  2  0
 11 10  1  1
 11 13  1  0
 12  8  1  0
 12 11  1  0
 13 15  1  0
 13 14  2  0
 15 16  1  0
 16 21  1  0
 16 17  1  6
 18 17  1  0
 19 18  1  0
 20 19  2  0
 21 22  1  0
 23 19  1  0
 24 21  2  0
M  END
$$$$
