QAE.pdb
     RDKit          3D

 24 23  0  0  1  0  0  0  0  0999 V2000
   15.2324   -9.6861   -9.0071 N   0  0  0  0  0  0  0  0  0  0  0  0
   14.0313  -10.1802   -9.5653 C   0  0  0  0  0  0  0  0  0  0  0  0
   13.1488  -10.6280   -8.8038 O   0  0  0  0  0  0  0  0  0  0  0  0
   13.8311  -10.1647  -11.0145 C   0  0  0  0  0  0  0  0  0  0  0  0
   14.9422   -9.5914  -11.8182 C   0  0  0  0  0  0  0  0  0  0  0  0
   15.3154  -10.3633  -13.0607 C   0  0  2  0  0  0  0  0  0  0  0  0
   16.2667  -11.3929  -12.6058 N   0  0  0  0  0  0  0  0  0  0  0  0
   16.0374   -9.5036  -14.0327 C   0  0  0  0  0  0  0  0  0  0  0  0
   17.2974   -9.4576  -13.9627 O   0  0  0  0  0  0  0  0  0  0  0  0
   15.1885   -7.1114  -16.8801 C   0  0  0  0  0  0  0  0  0  0  0  0
   16.0823   -7.8003  -15.8733 C   0  0  2  0  0  0  0  0  0  0  0  0
   15.4015   -8.7320  -15.0355 N   0  0  0  0  0  0  0  0  0  0  0  0
   16.8377   -6.7748  -15.0991 C   0  0  0  0  0  0  0  0  0  0  0  0
   16.8332   -6.7058  -13.8601 O   0  0  0  0  0  0  0  0  0  0  0  0
   17.6026   -5.8284  -15.8324 N   0  0  0  0  0  0  0  0  0  0  0  0
   18.5815   -4.9353  -15.2277 C   0  0  1  0  0  0  0  0  0  0  0  0
   19.6887   -5.7771  -14.6611 C   0  0  0  0  0  0  0  0  0  0  0  0
   20.6825   -4.9055  -13.9613 C   0  0  0  0  0  0  0  0  0  0  0  0
   21.7432   -5.6856  -13.2985 C   0  0  0  0  0  0  0  0  0  0  0  0
   21.5772   -6.8220  -12.7998 O   0  0  0  0  0  0  0  0  0  0  0  0
   19.1765   -4.0312  -16.2600 C   0  0  0  0  0  0  0  0  0  0  0  0
   19.5975   -2.7501  -15.9580 O   0  0  0  0  0  0  0  0  0  0  0  0
   23.0358   -5.1234  -13.2152 O   0  0  0  0  0  0  0  0  0  0  0  0
   19.3025   -4.4377  -17.4411 O   0  0  0  0  0  0  0  0  0  0  0  0
  2  1  1  0
  3  2  2  0
  4  2  1  0
  5  4  1  0
  6  7  1  1
  6  5  1  0
  6  8  1  0
  8  9  2  0
 11 10  1  1
 11 13  1  0
 12  8  1  0
 12 11  1  0
 13 15  1  0
 13 14  2  0
 15 16  1  0
 16 21  1  0
 16 17  1  6
 18 17  1  0
 19 18  1  0
 20 19  2  0
 21 22  1  0
 23 19  1  0
 24 21  2  0
M  END
$$$$
