QAE.pdb
     RDKit          3D

 24 23  0  0  1  0  0  0  0  0999 V2000
   19.1054  -19.4654  -14.5758 N   0  0  0  0  0  0  0  0  0  0  0  0
   19.1099  -19.7329  -15.9639 C   0  0  0  0  0  0  0  0  0  0  0  0
   18.5139  -20.7449  -16.3877 O   0  0  0  0  0  0  0  0  0  0  0  0
   19.8046  -18.8335  -16.8854 C   0  0  0  0  0  0  0  0  0  0  0  0
   20.3620  -17.5927  -16.2863 C   0  0  0  0  0  0  0  0  0  0  0  0
   21.8425  -17.6174  -15.9924 C   0  0  2  0  0  0  0  0  0  0  0  0
   22.0030  -18.5859  -14.8932 N   0  0  0  0  0  0  0  0  0  0  0  0
   22.3134  -16.3033  -15.4859 C   0  0  0  0  0  0  0  0  0  0  0  0
   21.5538  -15.6599  -14.7090 O   0  0  0  0  0  0  0  0  0  0  0  0
   25.4396  -14.1429  -15.6013 C   0  0  0  0  0  0  0  0  0  0  0  0
   23.9620  -14.4139  -15.4270 C   0  0  2  0  0  0  0  0  0  0  0  0
   23.5629  -15.7257  -15.8185 N   0  0  0  0  0  0  0  0  0  0  0  0
   23.1791  -13.3456  -16.1108 C   0  0  0  0  0  0  0  0  0  0  0  0
   22.7232  -13.4542  -17.2599 O   0  0  0  0  0  0  0  0  0  0  0  0
   22.9482  -12.1395  -15.3963 N   0  0  0  0  0  0  0  0  0  0  0  0
   22.2581  -10.9858  -15.9568 C   0  0  1  0  0  0  0  0  0  0  0  0
   22.2136   -9.9160  -14.9035 C   0  0  0  0  0  0  0  0  0  0  0  0
   21.3763   -8.7709  -15.3775 C   0  0  0  0  0  0  0  0  0  0  0  0
   21.2976   -7.6853  -14.3834 C   0  0  0  0  0  0  0  0  0  0  0  0
   21.7228   -7.7711  -13.2089 O   0  0  0  0  0  0  0  0  0  0  0  0
   23.0104  -10.4419  -17.1297 C   0  0  0  0  0  0  0  0  0  0  0  0
   22.3677   -9.8833  -18.2181 O   0  0  0  0  0  0  0  0  0  0  0  0
   20.7053   -6.4635  -14.7711 O   0  0  0  0  0  0  0  0  0  0  0  0
   24.2649  -10.4890  -17.1370 O   0  0  0  0  0  0  0  0  0  0  0  0
  2  1  1  0
  3  2  2  0
  4  2  1  0
  5  4  1  0
  6  7  1  1
  6  5  1  0
  6  8  1  0
  8  9  2  0
 11 10  1  6
 11 13  1  0
 12  8  1  0
 12 11  1  0
 13 15  1  0
 13 14  2  0
 15 16  1  0
 16 21  1  0
 16 17  1  1
 18 17  1  0
 19 18  1  0
 20 19  2  0
 21 22  1  0
 23 19  1  0
 24 21  2  0
M  END
$$$$
