QAE.pdb
     RDKit          3D

 24 23  0  0  1  0  0  0  0  0999 V2000
   20.2284  -13.7967  -16.4191 N   0  0  0  0  0  0  0  0  0  0  0  0
   19.8798  -14.1454  -17.7440 C   0  0  0  0  0  0  0  0  0  0  0  0
   19.8712  -15.3504  -18.0709 O   0  0  0  0  0  0  0  0  0  0  0  0
   19.5355  -13.1050  -18.7134 C   0  0  0  0  0  0  0  0  0  0  0  0
   19.4356  -11.7229  -18.1758 C   0  0  0  0  0  0  0  0  0  0  0  0
   18.2122  -11.4342  -17.3398 C   0  0  2  0  0  0  0  0  0  0  0  0
   17.1195  -11.2350  -18.3085 N   0  0  0  0  0  0  0  0  0  0  0  0
   18.3619  -10.1634  -16.5863 C   0  0  0  0  0  0  0  0  0  0  0  0
   18.3837   -9.0841  -17.2414 O   0  0  0  0  0  0  0  0  0  0  0  0
   18.6253   -9.0214  -12.9588 C   0  0  0  0  0  0  0  0  0  0  0  0
   18.6773   -8.8672  -14.4623 C   0  0  2  0  0  0  0  0  0  0  0  0
   18.4805  -10.0851  -15.1774 N   0  0  0  0  0  0  0  0  0  0  0  0
   19.9392   -8.1722  -14.8449 C   0  0  0  0  0  0  0  0  0  0  0  0
   20.9300   -8.7529  -15.3152 O   0  0  0  0  0  0  0  0  0  0  0  0
   19.9988   -6.7654  -14.6561 N   0  0  0  0  0  0  0  0  0  0  0  0
   21.1559   -5.9505  -15.0003 C   0  0  1  0  0  0  0  0  0  0  0  0
   20.6868   -4.8289  -15.8822 C   0  0  0  0  0  0  0  0  0  0  0  0
   21.8479   -3.9719  -16.2751 C   0  0  0  0  0  0  0  0  0  0  0  0
   21.4493   -2.8563  -17.1523 C   0  0  0  0  0  0  0  0  0  0  0  0
   20.3279   -2.7545  -17.6999 O   0  0  0  0  0  0  0  0  0  0  0  0
   21.7570   -5.3454  -13.7714 C   0  0  0  0  0  0  0  0  0  0  0  0
   23.1041   -5.0503  -13.6830 O   0  0  0  0  0  0  0  0  0  0  0  0
   22.3865   -1.8291  -17.3978 O   0  0  0  0  0  0  0  0  0  0  0  0
   21.0248   -5.0935  -12.7833 O   0  0  0  0  0  0  0  0  0  0  0  0
  2  1  1  0
  3  2  2  0
  4  2  1  0
  5  4  1  0
  6  7  1  6
  6  5  1  0
  6  8  1  0
  8  9  2  0
 11 10  1  1
 11 13  1  0
 12  8  1  0
 12 11  1  0
 13 15  1  0
 13 14  2  0
 15 16  1  0
 16 21  1  0
 16 17  1  6
 18 17  1  0
 19 18  1  0
 20 19  2  0
 21 22  1  0
 23 19  1  0
 24 21  2  0
M  END
$$$$
