QAE.pdb
     RDKit          3D

 24 23  0  0  1  0  0  0  0  0999 V2000
   16.5899  -11.9233  -14.5616 N   0  0  0  0  0  0  0  0  0  0  0  0
   16.4395  -12.5375  -15.8259 C   0  0  0  0  0  0  0  0  0  0  0  0
   15.5248  -13.3717  -15.9891 O   0  0  0  0  0  0  0  0  0  0  0  0
   17.3456  -12.1969  -16.9230 C   0  0  0  0  0  0  0  0  0  0  0  0
   18.3367  -11.1264  -16.6391 C   0  0  0  0  0  0  0  0  0  0  0  0
   19.7839  -11.5064  -16.8395 C   0  0  2  0  0  0  0  0  0  0  0  0
   19.9951  -12.6898  -15.9868 N   0  0  0  0  0  0  0  0  0  0  0  0
   20.6941  -10.4440  -16.3415 C   0  0  0  0  0  0  0  0  0  0  0  0
   20.4796   -9.9701  -15.1908 O   0  0  0  0  0  0  0  0  0  0  0  0
   23.8908   -8.6851  -17.4126 C   0  0  0  0  0  0  0  0  0  0  0  0
   22.6044   -8.8451  -16.6337 C   0  0  2  0  0  0  0  0  0  0  0  0
   21.7897   -9.9288  -17.0759 N   0  0  0  0  0  0  0  0  0  0  0  0
   21.8735   -7.5463  -16.6134 C   0  0  0  0  0  0  0  0  0  0  0  0
   20.9735   -7.2498  -17.4146 O   0  0  0  0  0  0  0  0  0  0  0  0
   22.2367   -6.6025  -15.6155 N   0  0  0  0  0  0  0  0  0  0  0  0
   21.6560   -5.2709  -15.5106 C   0  0  1  0  0  0  0  0  0  0  0  0
   20.1949   -5.4259  -15.1996 C   0  0  0  0  0  0  0  0  0  0  0  0
   19.5753   -4.0813  -14.9869 C   0  0  0  0  0  0  0  0  0  0  0  0
   18.1253   -4.1661  -14.7354 C   0  0  0  0  0  0  0  0  0  0  0  0
   17.2517   -4.1639  -15.6324 O   0  0  0  0  0  0  0  0  0  0  0  0
   22.2848   -4.5102  -14.3866 C   0  0  0  0  0  0  0  0  0  0  0  0
   22.6784   -5.1263  -13.2139 O   0  0  0  0  0  0  0  0  0  0  0  0
   17.6813   -4.2561  -13.3981 O   0  0  0  0  0  0  0  0  0  0  0  0
   22.4656   -3.2731  -14.5005 O   0  0  0  0  0  0  0  0  0  0  0  0
  2  1  1  0
  3  2  2  0
  4  2  1  0
  5  4  1  0
  6  7  1  1
  6  5  1  0
  6  8  1  0
  8  9  2  0
 11 10  1  6
 11 13  1  0
 12  8  1  0
 12 11  1  0
 13 15  1  0
 13 14  2  0
 15 16  1  0
 16 21  1  0
 16 17  1  1
 18 17  1  0
 19 18  1  0
 20 19  2  0
 21 22  1  0
 23 19  1  0
 24 21  2  0
M  END
$$$$
