QAE.pdb
     RDKit          3D

 24 23  0  0  1  0  0  0  0  0999 V2000
   15.2796  -12.7051  -16.3865 N   0  0  0  0  0  0  0  0  0  0  0  0
   15.7404  -12.5743  -17.7165 C   0  0  0  0  0  0  0  0  0  0  0  0
   15.0462  -13.0354  -18.6463 O   0  0  0  0  0  0  0  0  0  0  0  0
   17.0131  -11.9075  -17.9932 C   0  0  0  0  0  0  0  0  0  0  0  0
   17.7246  -11.3496  -16.8135 C   0  0  0  0  0  0  0  0  0  0  0  0
   19.0878  -11.9356  -16.5357 C   0  0  2  0  0  0  0  0  0  0  0  0
   18.8415  -13.0848  -15.6465 N   0  0  0  0  0  0  0  0  0  0  0  0
   19.9422  -10.9807  -15.7852 C   0  0  0  0  0  0  0  0  0  0  0  0
   19.4730  -10.4658  -14.7320 O   0  0  0  0  0  0  0  0  0  0  0  0
   23.5450   -9.8900  -15.6300 C   0  0  0  0  0  0  0  0  0  0  0  0
   22.0574   -9.6705  -15.4686 C   0  0  2  0  0  0  0  0  0  0  0  0
   21.2524  -10.6115  -16.1756 N   0  0  0  0  0  0  0  0  0  0  0  0
   21.7259   -8.2579  -15.8097 C   0  0  0  0  0  0  0  0  0  0  0  0
   21.1585   -7.9179  -16.8596 O   0  0  0  0  0  0  0  0  0  0  0  0
   22.0847   -7.2530  -14.8717 N   0  0  0  0  0  0  0  0  0  0  0  0
   21.7756   -5.8398  -15.0410 C   0  0  1  0  0  0  0  0  0  0  0  0
   20.2874   -5.6739  -14.9244 C   0  0  0  0  0  0  0  0  0  0  0  0
   19.9278   -4.2259  -15.0295 C   0  0  0  0  0  0  0  0  0  0  0  0
   18.4809   -3.9948  -14.8681 C   0  0  0  0  0  0  0  0  0  0  0  0
   17.8002   -4.4229  -13.9083 O   0  0  0  0  0  0  0  0  0  0  0  0
   22.4126   -5.0288  -13.9575 C   0  0  0  0  0  0  0  0  0  0  0  0
   22.7255   -3.6937  -14.1283 O   0  0  0  0  0  0  0  0  0  0  0  0
   17.8084   -3.2420  -15.8554 O   0  0  0  0  0  0  0  0  0  0  0  0
   22.6760   -5.5670  -12.8543 O   0  0  0  0  0  0  0  0  0  0  0  0
  2  1  1  0
  3  2  2  0
  4  2  1  0
  5  4  1  0
  6  7  1  1
  6  5  1  0
  6  8  1  0
  8  9  2  0
 11 10  1  6
 11 13  1  0
 12  8  1  0
 12 11  1  0
 13 15  1  0
 13 14  2  0
 15 16  1  0
 16 21  1  0
 16 17  1  1
 18 17  1  0
 19 18  1  0
 20 19  2  0
 21 22  1  0
 23 19  1  0
 24 21  2  0
M  END
$$$$
