QAE.pdb
     RDKit          3D

 24 23  0  0  1  0  0  0  0  0999 V2000
   24.8227  -12.7788  -22.0568 N   0  0  0  0  0  0  0  0  0  0  0  0
   23.5698  -13.4295  -22.1275 C   0  0  0  0  0  0  0  0  0  0  0  0
   23.3474  -14.2146  -23.0726 O   0  0  0  0  0  0  0  0  0  0  0  0
   22.5524  -13.1823  -21.1054 C   0  0  0  0  0  0  0  0  0  0  0  0
   22.9005  -12.1717  -20.0727 C   0  0  0  0  0  0  0  0  0  0  0  0
   23.9938  -12.5704  -19.1111 C   0  0  2  0  0  0  0  0  0  0  0  0
   23.4001  -13.6195  -18.2632 N   0  0  0  0  0  0  0  0  0  0  0  0
   24.3612  -11.4442  -18.2156 C   0  0  0  0  0  0  0  0  0  0  0  0
   23.4975  -11.0370  -17.3894 O   0  0  0  0  0  0  0  0  0  0  0  0
   27.3927   -9.2479  -17.4987 C   0  0  0  0  0  0  0  0  0  0  0  0
   25.9385   -9.6578  -17.4334 C   0  0  2  0  0  0  0  0  0  0  0  0
   25.6212  -10.7980  -18.2288 N   0  0  0  0  0  0  0  0  0  0  0  0
   25.0783   -8.4810  -17.7448 C   0  0  0  0  0  0  0  0  0  0  0  0
   24.6569   -8.2176  -18.8819 O   0  0  0  0  0  0  0  0  0  0  0  0
   24.7278   -7.6197  -16.6707 N   0  0  0  0  0  0  0  0  0  0  0  0
   23.9103   -6.4242  -16.8251 C   0  0  1  0  0  0  0  0  0  0  0  0
   22.9511   -6.3667  -15.6708 C   0  0  0  0  0  0  0  0  0  0  0  0
   22.6970   -4.9423  -15.2918 C   0  0  0  0  0  0  0  0  0  0  0  0
   21.6426   -4.8141  -14.2697 C   0  0  0  0  0  0  0  0  0  0  0  0
   20.6816   -4.0148  -14.3429 O   0  0  0  0  0  0  0  0  0  0  0  0
   24.7614   -5.1952  -16.7743 C   0  0  0  0  0  0  0  0  0  0  0  0
   24.3868   -4.0176  -17.3928 O   0  0  0  0  0  0  0  0  0  0  0  0
   21.7114   -5.6427  -13.1285 O   0  0  0  0  0  0  0  0  0  0  0  0
   25.8522   -5.2223  -16.1534 O   0  0  0  0  0  0  0  0  0  0  0  0
  2  1  1  0
  3  2  2  0
  4  2  1  0
  5  4  1  0
  6  7  1  1
  6  5  1  0
  6  8  1  0
  8  9  2  0
 11 10  1  6
 11 13  1  0
 12  8  1  0
 12 11  1  0
 13 15  1  0
 13 14  2  0
 15 16  1  0
 16 21  1  0
 16 17  1  1
 18 17  1  0
 19 18  1  0
 20 19  2  0
 21 22  1  0
 23 19  1  0
 24 21  2  0
M  END
$$$$
