STC.pdb
     RDKit          3D

 20 19  0  0  1  0  0  0  0  0999 V2000
   19.0415  -13.4082  -14.6946 O   0  0  0  0  0  0  0  0  0  0  0  0
   19.2804  -12.6088  -15.7912 C   0  0  0  0  0  0  0  0  0  0  0  0
   18.0397  -11.9168  -16.3000 C   0  0  2  0  0  0  0  0  0  0  0  0
   17.4934  -12.6037  -17.4272 N   0  0  0  0  0  0  0  0  0  0  0  0
   18.2588  -10.4746  -16.5370 C   0  0  0  0  0  0  0  0  0  0  0  0
   18.7413  -10.1173  -17.6353 O   0  0  0  0  0  0  0  0  0  0  0  0
   15.7089   -7.6684  -16.5827 C   0  0  0  0  0  0  0  0  0  0  0  0
   16.7771   -7.3155  -15.5884 C   0  0  1  0  0  0  0  0  0  0  0  0
   16.2750   -7.5866  -14.3174 O   0  0  0  0  0  0  0  0  0  0  0  0
   18.0667   -8.0633  -15.8321 C   0  0  2  0  0  0  0  0  0  0  0  0
   17.9472   -9.4640  -15.5743 N   0  0  0  0  0  0  0  0  0  0  0  0
   19.1913   -7.5266  -15.0369 C   0  0  0  0  0  0  0  0  0  0  0  0
   19.5453   -8.0279  -13.9384 O   0  0  0  0  0  0  0  0  0  0  0  0
   19.9411   -6.4016  -15.4778 N   0  0  0  0  0  0  0  0  0  0  0  0
   21.0597   -5.9070  -14.7261 C   0  0  1  0  0  0  0  0  0  0  0  0
   22.3183   -5.7945  -15.5434 C   0  0  0  0  0  0  0  0  0  0  0  0
   23.5876   -5.0060  -14.5126 S   0  0  0  0  0  0  0  0  0  0  0  0
   20.7438   -4.5913  -14.0747 C   0  0  0  0  0  0  0  0  0  0  0  0
   21.4095   -4.1665  -13.0844 O   0  0  0  0  0  0  0  0  0  0  0  0
   19.7130   -3.7919  -14.5310 O   0  0  0  0  0  0  0  0  0  0  0  0
  1  2  1  0
  3  5  1  0
  3  4  1  6
  3  2  1  0
  5  6  2  0
  8  7  1  6
  8 10  1  0
  9  8  1  0
 10 12  1  0
 10 11  1  1
 11  5  1  0
 12 13  2  0
 12 14  1  0
 14 15  1  0
 15 18  1  0
 15 16  1  6
 16 17  1  0
 18 19  2  0
 18 20  1  0
M  END
$$$$
