STC.pdb
     RDKit          3D

 20 19  0  0  1  0  0  0  0  0999 V2000
   16.6974   -9.4281  -16.7410 O   0  0  0  0  0  0  0  0  0  0  0  0
   17.7229   -9.8986  -17.5320 C   0  0  0  0  0  0  0  0  0  0  0  0
   18.6482  -10.8409  -16.8020 C   0  0  2  0  0  0  0  0  0  0  0  0
   17.9157  -11.8849  -16.1582 N   0  0  0  0  0  0  0  0  0  0  0  0
   19.5771  -10.1287  -15.8998 C   0  0  0  0  0  0  0  0  0  0  0  0
   19.2938  -10.0642  -14.6824 O   0  0  0  0  0  0  0  0  0  0  0  0
   23.3848  -10.6125  -15.2762 C   0  0  0  0  0  0  0  0  0  0  0  0
   23.1176   -9.1912  -15.6794 C   0  0  1  0  0  0  0  0  0  0  0  0
   23.4977   -9.0535  -17.0126 O   0  0  0  0  0  0  0  0  0  0  0  0
   21.6733   -8.7941  -15.4841 C   0  0  2  0  0  0  0  0  0  0  0  0
   20.7854   -9.5081  -16.3471 N   0  0  0  0  0  0  0  0  0  0  0  0
   21.4547   -7.3440  -15.6697 C   0  0  0  0  0  0  0  0  0  0  0  0
   20.9684   -6.8609  -16.7249 O   0  0  0  0  0  0  0  0  0  0  0  0
   21.7869   -6.4077  -14.6523 N   0  0  0  0  0  0  0  0  0  0  0  0
   21.6748   -4.9934  -14.8717 C   0  0  1  0  0  0  0  0  0  0  0  0
   20.2858   -4.5632  -15.2590 C   0  0  0  0  0  0  0  0  0  0  0  0
   19.1304   -5.2173  -14.0210 S   0  0  0  0  0  0  0  0  0  0  0  0
   22.1462   -4.2142  -13.6776 C   0  0  0  0  0  0  0  0  0  0  0  0
   22.2509   -2.9524  -13.7101 O   0  0  0  0  0  0  0  0  0  0  0  0
   22.4845   -4.8446  -12.4952 O   0  0  0  0  0  0  0  0  0  0  0  0
  1  2  1  0
  3  5  1  0
  3  4  1  1
  3  2  1  0
  5  6  2  0
  8  7  1  6
  8 10  1  0
  9  8  1  0
 10 12  1  0
 10 11  1  6
 11  5  1  0
 12 13  2  0
 12 14  1  0
 14 15  1  0
 15 18  1  0
 15 16  1  1
 16 17  1  0
 18 19  2  0
 18 20  1  0
M  END
$$$$
