STC.pdb
     RDKit          3D

 20 19  0  0  1  0  0  0  0  0999 V2000
   23.9234  -13.3884  -18.0044 O   0  0  0  0  0  0  0  0  0  0  0  0
   23.2022  -12.2515  -18.2972 C   0  0  0  0  0  0  0  0  0  0  0  0
   21.7188  -12.4191  -18.0768 C   0  0  2  0  0  0  0  0  0  0  0  0
   21.1288  -13.1975  -19.1194 N   0  0  0  0  0  0  0  0  0  0  0  0
   21.0365  -11.1288  -17.8453 C   0  0  0  0  0  0  0  0  0  0  0  0
   20.7500  -10.4196  -18.8360 O   0  0  0  0  0  0  0  0  0  0  0  0
   17.6983  -10.5622  -16.4726 C   0  0  0  0  0  0  0  0  0  0  0  0
   18.6143   -9.7104  -15.6421 C   0  0  1  0  0  0  0  0  0  0  0  0
   18.7968  -10.3557  -14.4209 O   0  0  0  0  0  0  0  0  0  0  0  0
   19.9387   -9.4503  -16.3203 C   0  0  2  0  0  0  0  0  0  0  0  0
   20.6860  -10.6477  -16.5450 N   0  0  0  0  0  0  0  0  0  0  0  0
   20.7817   -8.4962  -15.5692 C   0  0  0  0  0  0  0  0  0  0  0  0
   21.9315   -8.7905  -15.1511 O   0  0  0  0  0  0  0  0  0  0  0  0
   20.3314   -7.1796  -15.2764 N   0  0  0  0  0  0  0  0  0  0  0  0
   21.1753   -6.2324  -14.6045 C   0  0  1  0  0  0  0  0  0  0  0  0
   22.4830   -5.9993  -15.3117 C   0  0  0  0  0  0  0  0  0  0  0  0
   23.4142   -4.7553  -14.3733 S   0  0  0  0  0  0  0  0  0  0  0  0
   20.4659   -4.9280  -14.3806 C   0  0  0  0  0  0  0  0  0  0  0  0
   19.6190   -4.4841  -15.2112 O   0  0  0  0  0  0  0  0  0  0  0  0
   20.7101   -4.1599  -13.2578 O   0  0  0  0  0  0  0  0  0  0  0  0
  1  2  1  0
  3  5  1  0
  3  4  1  6
  3  2  1  0
  5  6  2  0
  8  7  1  6
  8 10  1  0
  9  8  1  0
 10 12  1  0
 10 11  1  1
 11  5  1  0
 12 13  2  0
 12 14  1  0
 14 15  1  0
 15 18  1  0
 15 16  1  6
 16 17  1  0
 18 19  2  0
 18 20  1  0
M  END
$$$$
