STC.pdb
     RDKit          3D

 20 19  0  0  1  0  0  0  0  0999 V2000
   15.5416   -9.2033  -17.2949 O   0  0  0  0  0  0  0  0  0  0  0  0
   16.5852   -8.9242  -16.4396 C   0  0  0  0  0  0  0  0  0  0  0  0
   17.5176  -10.0943  -16.2429 C   0  0  2  0  0  0  0  0  0  0  0  0
   16.8087  -11.2443  -15.7783 N   0  0  0  0  0  0  0  0  0  0  0  0
   18.6875   -9.7457  -15.4099 C   0  0  0  0  0  0  0  0  0  0  0  0
   18.5934   -9.8696  -14.1680 O   0  0  0  0  0  0  0  0  0  0  0  0
   22.0526  -11.2998  -15.4644 C   0  0  0  0  0  0  0  0  0  0  0  0
   22.2814   -9.8214  -15.5917 C   0  0  1  0  0  0  0  0  0  0  0  0
   22.6081   -9.5590  -16.9204 O   0  0  0  0  0  0  0  0  0  0  0  0
   21.0838   -9.0092  -15.1580 C   0  0  2  0  0  0  0  0  0  0  0  0
   19.9242   -9.2732  -15.9508 N   0  0  0  0  0  0  0  0  0  0  0  0
   21.3503   -7.5553  -15.1728 C   0  0  0  0  0  0  0  0  0  0  0  0
   20.6669   -6.7474  -15.8537 O   0  0  0  0  0  0  0  0  0  0  0  0
   22.4062   -6.9870  -14.4085 N   0  0  0  0  0  0  0  0  0  0  0  0
   22.7602   -5.6016  -14.5360 C   0  0  1  0  0  0  0  0  0  0  0  0
   22.9250   -5.1624  -15.9658 C   0  0  0  0  0  0  0  0  0  0  0  0
   23.4473   -3.4238  -15.9618 S   0  0  0  0  0  0  0  0  0  0  0  0
   21.7734   -4.7162  -13.8308 C   0  0  0  0  0  0  0  0  0  0  0  0
   22.1448   -3.8669  -12.9679 O   0  0  0  0  0  0  0  0  0  0  0  0
   20.4193   -4.7940  -14.0966 O   0  0  0  0  0  0  0  0  0  0  0  0
  1  2  1  0
  3  5  1  0
  3  4  1  1
  3  2  1  0
  5  6  2  0
  8  7  1  6
  8 10  1  0
  9  8  1  0
 10 12  1  0
 10 11  1  6
 11  5  1  0
 12 13  2  0
 12 14  1  0
 14 15  1  0
 15 18  1  0
 15 16  1  6
 16 17  1  0
 18 19  2  0
 18 20  1  0
M  END
$$$$
