STC.pdb
     RDKit          3D

 20 19  0  0  1  0  0  0  0  0999 V2000
   23.2711  -17.4287  -18.7961 O   0  0  0  0  0  0  0  0  0  0  0  0
   23.7956  -18.5995  -18.2933 C   0  0  0  0  0  0  0  0  0  0  0  0
   25.2937  -18.6910  -18.4487 C   0  0  2  0  0  0  0  0  0  0  0  0
   25.6493  -19.1129  -19.7665 N   0  0  0  0  0  0  0  0  0  0  0  0
   25.9204  -19.4985  -17.3813 C   0  0  0  0  0  0  0  0  0  0  0  0
   26.7831  -20.3462  -17.7035 O   0  0  0  0  0  0  0  0  0  0  0  0
   28.4557  -19.1338  -16.2592 C   0  0  0  0  0  0  0  0  0  0  0  0
   27.7739  -19.1024  -14.9219 C   0  0  1  0  0  0  0  0  0  0  0  0
   27.6303  -17.7663  -14.5541 O   0  0  0  0  0  0  0  0  0  0  0  0
   26.4379  -19.8072  -14.9349 C   0  0  2  0  0  0  0  0  0  0  0  0
   25.5912  -19.3611  -15.9964 N   0  0  0  0  0  0  0  0  0  0  0  0
   25.7115  -19.6673  -13.6551 C   0  0  0  0  0  0  0  0  0  0  0  0
   24.9206  -18.7162  -13.4246 O   0  0  0  0  0  0  0  0  0  0  0  0
   25.8710  -20.6124  -12.6046 N   0  0  0  0  0  0  0  0  0  0  0  0
   25.2215  -20.4379  -11.3363 C   0  0  1  0  0  0  0  0  0  0  0  0
   23.8444  -21.0429  -11.2888 C   0  0  0  0  0  0  0  0  0  0  0  0
   23.1941  -20.8253   -9.6080 S   0  0  0  0  0  0  0  0  0  0  0  0
   26.0621  -20.9705  -10.2118 C   0  0  0  0  0  0  0  0  0  0  0  0
   26.7768  -22.0065  -10.3529 O   0  0  0  0  0  0  0  0  0  0  0  0
   26.0886  -20.3497   -8.9772 O   0  0  0  0  0  0  0  0  0  0  0  0
  1  2  1  0
  3  5  1  0
  3  4  1  6
  3  2  1  0
  5  6  2  0
  8  7  1  6
  8 10  1  0
  9  8  1  0
 10 12  1  0
 10 11  1  6
 11  5  1  0
 12 13  2  0
 12 14  1  0
 14 15  1  0
 15 18  1  0
 15 16  1  6
 16 17  1  0
 18 19  2  0
 18 20  1  0
M  END
$$$$
