STC.pdb
     RDKit          3D

 20 19  0  0  1  0  0  0  0  0999 V2000
   16.8208  -12.7444  -14.5243 O   0  0  0  0  0  0  0  0  0  0  0  0
   17.7032  -11.7913  -14.9844 C   0  0  0  0  0  0  0  0  0  0  0  0
   17.5257  -11.4799  -16.4502 C   0  0  2  0  0  0  0  0  0  0  0  0
   17.8000  -12.6268  -17.2566 N   0  0  0  0  0  0  0  0  0  0  0  0
   18.2760  -10.2753  -16.8628 C   0  0  0  0  0  0  0  0  0  0  0  0
   19.2974  -10.4225  -17.5711 O   0  0  0  0  0  0  0  0  0  0  0  0
   18.6239   -5.4310  -17.6668 C   0  0  0  0  0  0  0  0  0  0  0  0
   17.8113   -6.6391  -17.3004 C   0  0  1  0  0  0  0  0  0  0  0  0
   17.0742   -7.0070  -18.4239 O   0  0  0  0  0  0  0  0  0  0  0  0
   18.6644   -7.7864  -16.8129 C   0  0  2  0  0  0  0  0  0  0  0  0
   17.8943   -8.9474  -16.4938 N   0  0  0  0  0  0  0  0  0  0  0  0
   19.4860   -7.4222  -15.6392 C   0  0  0  0  0  0  0  0  0  0  0  0
   18.9851   -7.1678  -14.5133 O   0  0  0  0  0  0  0  0  0  0  0  0
   20.9031   -7.3395  -15.7227 N   0  0  0  0  0  0  0  0  0  0  0  0
   21.7091   -7.1105  -14.5570 C   0  0  1  0  0  0  0  0  0  0  0  0
   23.0498   -7.7909  -14.6219 C   0  0  0  0  0  0  0  0  0  0  0  0
   22.7657   -9.5801  -14.7382 S   0  0  0  0  0  0  0  0  0  0  0  0
   21.8835   -5.6430  -14.2905 C   0  0  0  0  0  0  0  0  0  0  0  0
   21.7251   -4.7809  -15.2047 O   0  0  0  0  0  0  0  0  0  0  0  0
   22.2241   -5.1755  -13.0353 O   0  0  0  0  0  0  0  0  0  0  0  0
  1  2  1  0
  3  5  1  0
  3  4  1  6
  3  2  1  0
  5  6  2  0
  8  7  1  6
  8 10  1  0
  9  8  1  0
 10 12  1  0
 10 11  1  1
 11  5  1  0
 12 13  2  0
 12 14  1  0
 14 15  1  0
 15 18  1  0
 15 16  1  6
 16 17  1  0
 18 19  2  0
 18 20  1  0
M  END
$$$$
