STC.pdb
     RDKit          3D

 20 19  0  0  1  0  0  0  0  0999 V2000
   17.2495  -12.3229  -14.5171 O   0  0  0  0  0  0  0  0  0  0  0  0
   18.3671  -11.5601  -14.7771 C   0  0  0  0  0  0  0  0  0  0  0  0
   18.6290  -11.3784  -16.2521 C   0  0  2  0  0  0  0  0  0  0  0  0
   19.3762  -12.4753  -16.7806 N   0  0  0  0  0  0  0  0  0  0  0  0
   19.2203  -10.0591  -16.5587 C   0  0  0  0  0  0  0  0  0  0  0  0
   20.3861  -10.0193  -17.0128 O   0  0  0  0  0  0  0  0  0  0  0  0
   17.6208   -7.2556  -18.7183 C   0  0  0  0  0  0  0  0  0  0  0  0
   18.0891   -6.6615  -17.4214 C   0  0  1  0  0  0  0  0  0  0  0  0
   16.9631   -6.4263  -16.6354 O   0  0  0  0  0  0  0  0  0  0  0  0
   19.0774   -7.5477  -16.7004 C   0  0  2  0  0  0  0  0  0  0  0  0
   18.5279   -8.8233  -16.3631 N   0  0  0  0  0  0  0  0  0  0  0  0
   19.6112   -6.9193  -15.4735 C   0  0  0  0  0  0  0  0  0  0  0  0
   19.5154   -7.4564  -14.3395 O   0  0  0  0  0  0  0  0  0  0  0  0
   20.2691   -5.6592  -15.5115 N   0  0  0  0  0  0  0  0  0  0  0  0
   20.9218   -5.1208  -14.3517 C   0  0  1  0  0  0  0  0  0  0  0  0
   22.0733   -5.9648  -13.8758 C   0  0  0  0  0  0  0  0  0  0  0  0
   22.8708   -5.0979  -12.4946 S   0  0  0  0  0  0  0  0  0  0  0  0
   21.3742   -3.7078  -14.5835 C   0  0  0  0  0  0  0  0  0  0  0  0
   21.9000   -3.3525  -15.6795 O   0  0  0  0  0  0  0  0  0  0  0  0
   21.2340   -2.7387  -13.6081 O   0  0  0  0  0  0  0  0  0  0  0  0
  1  2  1  0
  3  5  1  0
  3  4  1  1
  3  2  1  0
  5  6  2  0
  8  7  1  6
  8 10  1  0
  9  8  1  0
 10 12  1  0
 10 11  1  1
 11  5  1  0
 12 13  2  0
 12 14  1  0
 14 15  1  0
 15 18  1  0
 15 16  1  6
 16 17  1  0
 18 19  2  0
 18 20  1  0
M  END
$$$$
