STC.pdb
     RDKit          3D

 20 19  0  0  1  0  0  0  0  0999 V2000
   17.0433  -12.9233  -14.0125 O   0  0  0  0  0  0  0  0  0  0  0  0
   17.8546  -12.0308  -14.6786 C   0  0  0  0  0  0  0  0  0  0  0  0
   17.1740  -11.3788  -15.8571 C   0  0  2  0  0  0  0  0  0  0  0  0
   16.7619  -12.3535  -16.8168 N   0  0  0  0  0  0  0  0  0  0  0  0
   17.9810  -10.2846  -16.4364 C   0  0  0  0  0  0  0  0  0  0  0  0
   18.8991  -10.5790  -17.2346 O   0  0  0  0  0  0  0  0  0  0  0  0
   17.1953   -7.3750  -18.7342 C   0  0  0  0  0  0  0  0  0  0  0  0
   17.7179   -6.8341  -17.4348 C   0  0  1  0  0  0  0  0  0  0  0  0
   16.6220   -6.4249  -16.6782 O   0  0  0  0  0  0  0  0  0  0  0  0
   18.5513   -7.8426  -16.6796 C   0  0  2  0  0  0  0  0  0  0  0  0
   17.7667   -8.9040  -16.1314 N   0  0  0  0  0  0  0  0  0  0  0  0
   19.3417   -7.2245  -15.5940 C   0  0  0  0  0  0  0  0  0  0  0  0
   18.8444   -6.9290  -14.4766 O   0  0  0  0  0  0  0  0  0  0  0  0
   20.7227   -6.9282  -15.7584 N   0  0  0  0  0  0  0  0  0  0  0  0
   21.5131   -6.4199  -14.6730 C   0  0  1  0  0  0  0  0  0  0  0  0
   22.9492   -6.8663  -14.7274 C   0  0  0  0  0  0  0  0  0  0  0  0
   22.9889   -8.6617  -14.4625 S   0  0  0  0  0  0  0  0  0  0  0  0
   21.4370   -4.9223  -14.5935 C   0  0  0  0  0  0  0  0  0  0  0  0
   21.2128   -4.2155  -15.6203 O   0  0  0  0  0  0  0  0  0  0  0  0
   21.6090   -4.2561  -13.3949 O   0  0  0  0  0  0  0  0  0  0  0  0
  1  2  1  0
  3  5  1  0
  3  4  1  6
  3  2  1  0
  5  6  2  0
  8  7  1  6
  8 10  1  0
  9  8  1  0
 10 12  1  0
 10 11  1  1
 11  5  1  0
 12 13  2  0
 12 14  1  0
 14 15  1  0
 15 18  1  0
 15 16  1  6
 16 17  1  0
 18 19  2  0
 18 20  1  0
M  END
$$$$
