STC.pdb
     RDKit          3D

 20 19  0  0  1  0  0  0  0  0999 V2000
   16.7279  -11.2884  -18.5198 O   0  0  0  0  0  0  0  0  0  0  0  0
   17.3850  -10.7002  -17.4611 C   0  0  0  0  0  0  0  0  0  0  0  0
   18.6253  -11.4515  -17.0440 C   0  0  2  0  0  0  0  0  0  0  0  0
   18.2989  -12.7574  -16.5653 N   0  0  0  0  0  0  0  0  0  0  0  0
   19.4653  -10.6733  -16.1097 C   0  0  0  0  0  0  0  0  0  0  0  0
   19.2180  -10.7447  -14.8848 O   0  0  0  0  0  0  0  0  0  0  0  0
   23.2259  -10.9182  -15.5798 C   0  0  0  0  0  0  0  0  0  0  0  0
   22.8833   -9.4904  -15.8933 C   0  0  1  0  0  0  0  0  0  0  0  0
   23.2117   -9.2621  -17.2278 O   0  0  0  0  0  0  0  0  0  0  0  0
   21.4304   -9.1710  -15.6307 C   0  0  2  0  0  0  0  0  0  0  0  0
   20.5483   -9.8412  -16.5338 N   0  0  0  0  0  0  0  0  0  0  0  0
   21.1516   -7.7202  -15.6809 C   0  0  0  0  0  0  0  0  0  0  0  0
   20.7279   -7.1464  -16.7175 O   0  0  0  0  0  0  0  0  0  0  0  0
   21.3503   -6.8871  -14.5458 N   0  0  0  0  0  0  0  0  0  0  0  0
   21.1024   -5.4742  -14.6022 C   0  0  1  0  0  0  0  0  0  0  0  0
   19.7540   -5.0881  -14.0570 C   0  0  0  0  0  0  0  0  0  0  0  0
   19.6436   -3.2761  -14.0654 S   0  0  0  0  0  0  0  0  0  0  0  0
   22.1851   -4.6992  -13.9077 C   0  0  0  0  0  0  0  0  0  0  0  0
   22.6658   -5.0811  -12.8000 O   0  0  0  0  0  0  0  0  0  0  0  0
   22.6996   -3.5374  -14.4513 O   0  0  0  0  0  0  0  0  0  0  0  0
  1  2  1  0
  3  5  1  0
  3  4  1  1
  3  2  1  0
  5  6  2  0
  8  7  1  6
  8 10  1  0
  9  8  1  0
 10 12  1  0
 10 11  1  6
 11  5  1  0
 12 13  2  0
 12 14  1  0
 14 15  1  0
 15 18  1  0
 15 16  1  1
 16 17  1  0
 18 19  2  0
 18 20  1  0
M  END
$$$$
