STC.pdb
     RDKit          3D

 20 19  0  0  1  0  0  0  0  0999 V2000
   18.9724  -12.0716  -19.5789 O   0  0  0  0  0  0  0  0  0  0  0  0
   20.2284  -12.1023  -20.1446 C   0  0  0  0  0  0  0  0  0  0  0  0
   21.2110  -12.9345  -19.3579 C   0  0  2  0  0  0  0  0  0  0  0  0
   20.8800  -14.3225  -19.4263 N   0  0  0  0  0  0  0  0  0  0  0  0
   21.3887  -12.4374  -17.9775 C   0  0  0  0  0  0  0  0  0  0  0  0
   20.9574  -13.1354  -17.0323 O   0  0  0  0  0  0  0  0  0  0  0  0
   24.5615  -11.7507  -16.1713 C   0  0  0  0  0  0  0  0  0  0  0  0
   23.7362  -10.5017  -16.0568 C   0  0  1  0  0  0  0  0  0  0  0  0
   24.2613   -9.5674  -16.9470 O   0  0  0  0  0  0  0  0  0  0  0  0
   22.2711  -10.7470  -16.3307 C   0  0  2  0  0  0  0  0  0  0  0  0
   22.0292  -11.1975  -17.6655 N   0  0  0  0  0  0  0  0  0  0  0  0
   21.4392   -9.5527  -16.0728 C   0  0  0  0  0  0  0  0  0  0  0  0
   21.0051   -8.8161  -16.9961 O   0  0  0  0  0  0  0  0  0  0  0  0
   21.0817   -9.1693  -14.7509 N   0  0  0  0  0  0  0  0  0  0  0  0
   20.2321   -8.0387  -14.5039 C   0  0  1  0  0  0  0  0  0  0  0  0
   19.6538   -8.0258  -13.1146 C   0  0  0  0  0  0  0  0  0  0  0  0
   18.9868   -9.6784  -12.7694 S   0  0  0  0  0  0  0  0  0  0  0  0
   20.9443   -6.7463  -14.7824 C   0  0  0  0  0  0  0  0  0  0  0  0
   22.1680   -6.7218  -15.1079 O   0  0  0  0  0  0  0  0  0  0  0  0
   20.2910   -5.5316  -14.6941 O   0  0  0  0  0  0  0  0  0  0  0  0
  1  2  1  0
  3  5  1  0
  3  4  1  1
  3  2  1  0
  5  6  2  0
  8  7  1  6
  8 10  1  0
  9  8  1  0
 10 12  1  0
 10 11  1  6
 11  5  1  0
 12 13  2  0
 12 14  1  0
 14 15  1  0
 15 18  1  0
 15 16  1  1
 16 17  1  0
 18 19  2  0
 18 20  1  0
M  END
$$$$
