STC.pdb
     RDKit          3D

 20 19  0  0  1  0  0  0  0  0999 V2000
   19.0966  -13.4202  -15.0140 O   0  0  0  0  0  0  0  0  0  0  0  0
   19.3888  -12.2417  -15.6654 C   0  0  0  0  0  0  0  0  0  0  0  0
   18.1816  -11.6092  -16.3132 C   0  0  2  0  0  0  0  0  0  0  0  0
   17.7973  -12.3214  -17.4904 N   0  0  0  0  0  0  0  0  0  0  0  0
   18.3578  -10.1583  -16.5322 C   0  0  0  0  0  0  0  0  0  0  0  0
   18.8075   -9.7720  -17.6346 O   0  0  0  0  0  0  0  0  0  0  0  0
   15.7618   -7.3931  -16.4643 C   0  0  0  0  0  0  0  0  0  0  0  0
   16.8512   -7.0334  -15.4958 C   0  0  1  0  0  0  0  0  0  0  0  0
   16.3857   -7.3185  -14.2140 O   0  0  0  0  0  0  0  0  0  0  0  0
   18.1430   -7.7640  -15.7777 C   0  0  2  0  0  0  0  0  0  0  0  0
   18.0405   -9.1709  -15.5476 N   0  0  0  0  0  0  0  0  0  0  0  0
   19.2767   -7.2338  -14.9911 C   0  0  0  0  0  0  0  0  0  0  0  0
   20.0494   -7.9753  -14.3304 O   0  0  0  0  0  0  0  0  0  0  0  0
   19.5564   -5.8406  -14.9396 N   0  0  0  0  0  0  0  0  0  0  0  0
   20.7200   -5.3356  -14.2673 C   0  0  1  0  0  0  0  0  0  0  0  0
   22.0041   -5.9278  -14.7819 C   0  0  0  0  0  0  0  0  0  0  0  0
   23.3825   -5.0651  -13.9750 S   0  0  0  0  0  0  0  0  0  0  0  0
   20.7793   -3.8362  -14.3253 C   0  0  0  0  0  0  0  0  0  0  0  0
   20.3256   -3.1938  -15.3180 O   0  0  0  0  0  0  0  0  0  0  0  0
   21.3322   -3.0980  -13.2961 O   0  0  0  0  0  0  0  0  0  0  0  0
  1  2  1  0
  3  5  1  0
  3  4  1  6
  3  2  1  0
  5  6  2  0
  8  7  1  6
  8 10  1  0
  9  8  1  0
 10 12  1  0
 10 11  1  1
 11  5  1  0
 12 13  2  0
 12 14  1  0
 14 15  1  0
 15 18  1  0
 15 16  1  6
 16 17  1  0
 18 19  2  0
 18 20  1  0
M  END
$$$$
