STC.pdb
     RDKit          3D

 20 19  0  0  1  0  0  0  0  0999 V2000
   14.9875  -10.9139  -16.4376 O   0  0  0  0  0  0  0  0  0  0  0  0
   16.2797  -10.8310  -15.9664 C   0  0  0  0  0  0  0  0  0  0  0  0
   17.3143  -10.9010  -17.0626 C   0  0  2  0  0  0  0  0  0  0  0  0
   17.3943  -12.2177  -17.6110 N   0  0  0  0  0  0  0  0  0  0  0  0
   18.6213  -10.3589  -16.6361 C   0  0  0  0  0  0  0  0  0  0  0  0
   19.3922  -11.1021  -15.9880 O   0  0  0  0  0  0  0  0  0  0  0  0
   21.4023   -9.1978  -18.8254 C   0  0  0  0  0  0  0  0  0  0  0  0
   21.0935   -8.0735  -17.8794 C   0  0  1  0  0  0  0  0  0  0  0  0
   20.3401   -7.1317  -18.5768 O   0  0  0  0  0  0  0  0  0  0  0  0
   20.3652   -8.5404  -16.6411 C   0  0  2  0  0  0  0  0  0  0  0  0
   19.0516   -9.0264  -16.9263 N   0  0  0  0  0  0  0  0  0  0  0  0
   20.2698   -7.4864  -15.6092 C   0  0  0  0  0  0  0  0  0  0  0  0
   19.3505   -6.6271  -15.6002 O   0  0  0  0  0  0  0  0  0  0  0  0
   21.2241   -7.3875  -14.5596 N   0  0  0  0  0  0  0  0  0  0  0  0
   21.1591   -6.3341  -13.5863 C   0  0  1  0  0  0  0  0  0  0  0  0
   21.5887   -6.7714  -12.2120 C   0  0  0  0  0  0  0  0  0  0  0  0
   20.4530   -8.0744  -11.6575 S   0  0  0  0  0  0  0  0  0  0  0  0
   21.9520   -5.1355  -14.0218 C   0  0  0  0  0  0  0  0  0  0  0  0
   21.9359   -4.0554  -13.3605 O   0  0  0  0  0  0  0  0  0  0  0  0
   22.7313   -5.1645  -15.1628 O   0  0  0  0  0  0  0  0  0  0  0  0
  1  2  1  0
  3  5  1  0
  3  4  1  1
  3  2  1  0
  5  6  2  0
  8  7  1  6
  8 10  1  0
  9  8  1  0
 10 12  1  0
 10 11  1  6
 11  5  1  0
 12 13  2  0
 12 14  1  0
 14 15  1  0
 15 18  1  0
 15 16  1  1
 16 17  1  0
 18 19  2  0
 18 20  1  0
M  END
$$$$
