PLE.pdb
     RDKit          3D

 25 25  0  0  1  0  0  0  0  0999 V2000
    7.6903  -15.1833   19.8769 N   0  0  0  0  0  0  0  0  0  0  0  0
    7.1164  -14.6456   18.6540 C   0  0  0  0  0  0  0  0  0  0  0  0
    7.3620  -13.1752   18.6230 C   0  0  0  0  0  0  0  0  0  0  0  0
    7.7422  -12.8448   20.0485 C   0  0  0  0  0  0  0  0  0  0  0  0
    8.4718  -14.1289   20.4535 C   0  0  1  0  0  0  0  0  0  0  0  0
    8.6752  -14.2206   21.8972 C   0  0  0  0  0  0  0  0  0  0  0  0
    9.8367  -14.5350   22.3067 O   0  0  0  0  0  0  0  0  0  0  0  0
    7.9734  -12.2099   27.2015 C   0  0  0  0  0  0  0  0  0  0  0  0
    7.0025  -13.0830   26.5182 C   0  0  1  0  0  0  0  0  0  0  0  0
    5.6140  -12.7037   27.0534 C   0  0  0  0  0  0  0  0  0  0  0  0
    7.0199  -13.2411   25.0669 C   0  0  0  0  0  0  0  0  0  0  0  0
    8.0682  -13.9857   24.3530 C   0  0  2  0  0  0  0  0  0  0  0  0
    7.6976  -13.9918   22.8941 N   0  0  0  0  0  0  0  0  0  0  0  0
    8.1868  -15.4063   24.7513 C   0  0  0  0  0  0  0  0  0  0  0  0
    7.2757  -16.2483   24.5815 O   0  0  0  0  0  0  0  0  0  0  0  0
    9.3663  -15.9240   25.3667 N   0  0  0  0  0  0  0  0  0  0  0  0
    9.5227  -17.3420   25.6383 C   0  0  1  0  0  0  0  0  0  0  0  0
   10.3149  -18.0265   24.5804 C   0  0  0  0  0  0  0  0  0  0  0  0
   11.7052  -17.5392   24.3578 C   0  0  0  0  0  0  0  0  0  0  0  0
   12.4674  -18.2131   23.3141 C   0  0  0  0  0  0  0  0  0  0  0  0
   12.8101  -19.4039   23.4400 O   0  0  0  0  0  0  0  0  0  0  0  0
   10.2222  -17.4571   26.9371 C   0  0  0  0  0  0  0  0  0  0  0  0
   10.6691  -16.3936   27.6916 O   0  0  0  0  0  0  0  0  0  0  0  0
   12.8235  -17.5399   22.1642 O   0  0  0  0  0  0  0  0  0  0  0  0
   10.4472  -18.6065   27.4242 O   0  0  0  0  0  0  0  0  0  0  0  0
  2  1  1  0
  3  2  1  0
  4  3  1  0
  4  5  1  0
  5  1  1  0
  5  6  1  1
  6  7  2  0
  9  8  1  6
  9 10  1  0
 11  9  1  0
 12 11  1  1
 13  6  1  0
 13 12  1  0
 14 12  1  0
 14 16  1  0
 15 14  2  0
 17 16  1  0
 17 22  1  0
 17 18  1  6
 19 18  1  0
 19 20  1  0
 20 24  1  0
 21 20  2  0
 22 23  1  0
 25 22  2  0
M  END
$$$$
