PLE.pdb
     RDKit          3D

 25 25  0  0  1  0  0  0  0  0999 V2000
    7.0883  -14.8116   20.5547 N   0  0  0  0  0  0  0  0  0  0  0  0
    6.6806  -14.1508   19.3255 C   0  0  0  0  0  0  0  0  0  0  0  0
    7.5531  -12.9597   19.1169 C   0  0  0  0  0  0  0  0  0  0  0  0
    8.2008  -12.7487   20.4666 C   0  0  0  0  0  0  0  0  0  0  0  0
    8.3192  -14.1954   20.9549 C   0  0  1  0  0  0  0  0  0  0  0  0
    8.6232  -14.2771   22.3815 C   0  0  0  0  0  0  0  0  0  0  0  0
    9.8360  -14.1287   22.7317 O   0  0  0  0  0  0  0  0  0  0  0  0
    5.6387  -12.1038   26.5045 C   0  0  0  0  0  0  0  0  0  0  0  0
    6.8337  -12.6186   25.8126 C   0  0  1  0  0  0  0  0  0  0  0  0
    8.0388  -11.8616   26.3895 C   0  0  0  0  0  0  0  0  0  0  0  0
    7.0778  -14.0531   25.6931 C   0  0  0  0  0  0  0  0  0  0  0  0
    8.1442  -14.6188   24.8529 C   0  0  2  0  0  0  0  0  0  0  0  0
    7.6921  -14.5076   23.4215 N   0  0  0  0  0  0  0  0  0  0  0  0
    8.4089  -16.0560   25.0881 C   0  0  0  0  0  0  0  0  0  0  0  0
    7.5275  -16.9417   25.0072 O   0  0  0  0  0  0  0  0  0  0  0  0
    9.7077  -16.5405   25.4293 N   0  0  0  0  0  0  0  0  0  0  0  0
    9.9796  -17.9610   25.5593 C   0  0  1  0  0  0  0  0  0  0  0  0
   11.0930  -18.3972   24.6731 C   0  0  0  0  0  0  0  0  0  0  0  0
   12.3962  -17.6927   24.8315 C   0  0  0  0  0  0  0  0  0  0  0  0
   13.1859  -17.5132   23.6197 C   0  0  0  0  0  0  0  0  0  0  0  0
   14.1737  -16.7546   23.6064 O   0  0  0  0  0  0  0  0  0  0  0  0
   10.3447  -18.2020   26.9728 C   0  0  0  0  0  0  0  0  0  0  0  0
   10.6068  -19.4387   27.5221 O   0  0  0  0  0  0  0  0  0  0  0  0
   12.8507  -18.1836   22.4619 O   0  0  0  0  0  0  0  0  0  0  0  0
   10.4309  -17.2195   27.7706 O   0  0  0  0  0  0  0  0  0  0  0  0
  2  1  1  0
  3  2  1  0
  4  3  1  0
  4  5  1  0
  5  1  1  0
  5  6  1  1
  6  7  2  0
  9  8  1  1
  9 10  1  0
 11  9  1  0
 12 11  1  1
 13  6  1  0
 13 12  1  0
 14 12  1  0
 14 16  1  0
 15 14  2  0
 17 16  1  0
 17 22  1  0
 17 18  1  6
 19 18  1  0
 19 20  1  0
 20 24  1  0
 21 20  2  0
 22 23  1  0
 25 22  2  0
M  END
$$$$
