PLE.pdb
     RDKit          3D

 25 25  0  0  1  0  0  0  0  0999 V2000
    7.2322  -14.9199   19.9743 N   0  0  0  0  0  0  0  0  0  0  0  0
    6.8143  -14.4127   18.6774 C   0  0  0  0  0  0  0  0  0  0  0  0
    7.6042  -13.1853   18.3726 C   0  0  0  0  0  0  0  0  0  0  0  0
    8.1947  -12.7976   19.7093 C   0  0  0  0  0  0  0  0  0  0  0  0
    8.4029  -14.1776   20.3397 C   0  0  1  0  0  0  0  0  0  0  0  0
    8.6696  -14.0988   21.7739 C   0  0  0  0  0  0  0  0  0  0  0  0
    9.8660  -13.8682   22.1357 O   0  0  0  0  0  0  0  0  0  0  0  0
    7.9227  -12.0669   26.9114 C   0  0  0  0  0  0  0  0  0  0  0  0
    6.9836  -13.0467   26.3371 C   0  0  1  0  0  0  0  0  0  0  0  0
    5.5850  -12.6699   26.8471 C   0  0  0  0  0  0  0  0  0  0  0  0
    6.9951  -13.3573   24.9106 C   0  0  0  0  0  0  0  0  0  0  0  0
    8.1062  -14.0597   24.2508 C   0  0  2  0  0  0  0  0  0  0  0  0
    7.7186  -14.2555   22.8096 N   0  0  0  0  0  0  0  0  0  0  0  0
    8.3789  -15.4115   24.7886 C   0  0  0  0  0  0  0  0  0  0  0  0
    7.4884  -16.2717   24.9758 O   0  0  0  0  0  0  0  0  0  0  0  0
    9.6966  -15.8358   25.1373 N   0  0  0  0  0  0  0  0  0  0  0  0
    9.9844  -17.2165   25.4832 C   0  0  1  0  0  0  0  0  0  0  0  0
   11.1788  -17.7331   24.7609 C   0  0  0  0  0  0  0  0  0  0  0  0
   12.4672  -17.0218   24.9937 C   0  0  0  0  0  0  0  0  0  0  0  0
   13.6048  -17.4676   24.1991 C   0  0  0  0  0  0  0  0  0  0  0  0
   13.6520  -17.2530   22.9731 O   0  0  0  0  0  0  0  0  0  0  0  0
   10.2304  -17.2527   26.9418 C   0  0  0  0  0  0  0  0  0  0  0  0
   10.3508  -18.4006   27.6953 O   0  0  0  0  0  0  0  0  0  0  0  0
   14.6530  -18.1378   24.7945 O   0  0  0  0  0  0  0  0  0  0  0  0
   10.3427  -16.1635   27.5823 O   0  0  0  0  0  0  0  0  0  0  0  0
  2  1  1  0
  3  2  1  0
  4  3  1  0
  4  5  1  0
  5  1  1  0
  5  6  1  1
  6  7  2  0
  9  8  1  6
  9 10  1  0
 11  9  1  0
 12 11  1  1
 13  6  1  0
 13 12  1  0
 14 12  1  0
 14 16  1  0
 15 14  2  0
 17 16  1  0
 17 22  1  0
 17 18  1  6
 19 18  1  0
 19 20  1  0
 20 24  1  0
 21 20  2  0
 22 23  1  0
 25 22  2  0
M  END
$$$$
