PLE.pdb
     RDKit          3D

 25 25  0  0  1  0  0  0  0  0999 V2000
    7.3027  -15.0776   20.4931 N   0  0  0  0  0  0  0  0  0  0  0  0
    6.8132  -14.5812   19.2172 C   0  0  0  0  0  0  0  0  0  0  0  0
    7.4587  -13.2654   18.9426 C   0  0  0  0  0  0  0  0  0  0  0  0
    8.0216  -12.8550   20.2844 C   0  0  0  0  0  0  0  0  0  0  0  0
    8.3894  -14.2217   20.8690 C   0  0  1  0  0  0  0  0  0  0  0  0
    8.6660  -14.1569   22.3020 C   0  0  0  0  0  0  0  0  0  0  0  0
    9.8146  -13.7461   22.6592 O   0  0  0  0  0  0  0  0  0  0  0  0
    5.0460  -12.8472   26.4938 C   0  0  0  0  0  0  0  0  0  0  0  0
    6.3523  -12.9560   25.8205 C   0  0  1  0  0  0  0  0  0  0  0  0
    7.2950  -11.9677   26.5224 C   0  0  0  0  0  0  0  0  0  0  0  0
    6.9755  -14.2555   25.5869 C   0  0  0  0  0  0  0  0  0  0  0  0
    8.1954  -14.4282   24.7837 C   0  0  2  0  0  0  0  0  0  0  0  0
    7.7732  -14.5097   23.3413 N   0  0  0  0  0  0  0  0  0  0  0  0
    8.9390  -15.6770   25.0639 C   0  0  0  0  0  0  0  0  0  0  0  0
    8.4372  -16.8186   24.9499 O   0  0  0  0  0  0  0  0  0  0  0  0
   10.3013  -15.6673   25.4904 N   0  0  0  0  0  0  0  0  0  0  0  0
   11.1162  -16.8690   25.4604 C   0  0  1  0  0  0  0  0  0  0  0  0
   12.4920  -16.5952   24.9631 C   0  0  0  0  0  0  0  0  0  0  0  0
   13.4089  -17.7631   24.8393 C   0  0  0  0  0  0  0  0  0  0  0  0
   14.7171  -17.4990   24.2534 C   0  0  0  0  0  0  0  0  0  0  0  0
   15.4772  -18.4340   23.9382 O   0  0  0  0  0  0  0  0  0  0  0  0
   11.1806  -17.3803   26.8474 C   0  0  0  0  0  0  0  0  0  0  0  0
   10.6827  -16.7277   27.9548 O   0  0  0  0  0  0  0  0  0  0  0  0
   15.1369  -16.2031   24.0373 O   0  0  0  0  0  0  0  0  0  0  0  0
   11.7305  -18.5008   27.0738 O   0  0  0  0  0  0  0  0  0  0  0  0
  2  1  1  0
  3  2  1  0
  4  3  1  0
  4  5  1  0
  5  1  1  0
  5  6  1  1
  6  7  2  0
  9  8  1  1
  9 10  1  0
 11  9  1  0
 12 11  1  1
 13  6  1  0
 13 12  1  0
 14 12  1  0
 14 16  1  0
 15 14  2  0
 17 16  1  0
 17 22  1  0
 17 18  1  1
 19 18  1  0
 19 20  1  0
 20 24  1  0
 21 20  2  0
 22 23  1  0
 25 22  2  0
M  END
$$$$
