PLE.pdb
     RDKit          3D

 25 25  0  0  1  0  0  0  0  0999 V2000
    6.8738  -14.9297   20.4723 N   0  0  0  0  0  0  0  0  0  0  0  0
    6.3930  -14.2524   19.2790 C   0  0  0  0  0  0  0  0  0  0  0  0
    7.2370  -13.0450   19.0481 C   0  0  0  0  0  0  0  0  0  0  0  0
    7.9518  -12.8495   20.3658 C   0  0  0  0  0  0  0  0  0  0  0  0
    8.1154  -14.3030   20.8194 C   0  0  1  0  0  0  0  0  0  0  0  0
    8.4951  -14.4066   22.2263 C   0  0  0  0  0  0  0  0  0  0  0  0
    9.7178  -14.2195   22.5187 O   0  0  0  0  0  0  0  0  0  0  0  0
    5.7438  -12.0751   26.4166 C   0  0  0  0  0  0  0  0  0  0  0  0
    6.8936  -12.6354   25.6846 C   0  0  1  0  0  0  0  0  0  0  0  0
    8.1467  -11.9298   26.2231 C   0  0  0  0  0  0  0  0  0  0  0  0
    7.0751  -14.0781   25.5539 C   0  0  0  0  0  0  0  0  0  0  0  0
    8.1288  -14.6830   24.7250 C   0  0  2  0  0  0  0  0  0  0  0  0
    7.6279  -14.6975   23.3057 N   0  0  0  0  0  0  0  0  0  0  0  0
    8.4398  -16.0898   25.0639 C   0  0  0  0  0  0  0  0  0  0  0  0
    7.5706  -16.9874   25.1469 O   0  0  0  0  0  0  0  0  0  0  0  0
    9.7730  -16.5288   25.3240 N   0  0  0  0  0  0  0  0  0  0  0  0
   10.0760  -17.9237   25.5912 C   0  0  1  0  0  0  0  0  0  0  0  0
   11.2840  -18.3815   24.8520 C   0  0  0  0  0  0  0  0  0  0  0  0
   12.3962  -17.4011   24.7051 C   0  0  0  0  0  0  0  0  0  0  0  0
   13.5352  -17.8305   23.9033 C   0  0  0  0  0  0  0  0  0  0  0  0
   13.5023  -17.7670   22.6598 O   0  0  0  0  0  0  0  0  0  0  0  0
   10.3086  -18.0425   27.0476 C   0  0  0  0  0  0  0  0  0  0  0  0
   10.5318  -19.2256   27.7189 O   0  0  0  0  0  0  0  0  0  0  0  0
   14.6737  -18.3166   24.5114 O   0  0  0  0  0  0  0  0  0  0  0  0
   10.3078  -16.9973   27.7663 O   0  0  0  0  0  0  0  0  0  0  0  0
  2  1  1  0
  3  2  1  0
  4  3  1  0
  4  5  1  0
  5  1  1  0
  5  6  1  1
  6  7  2  0
  9  8  1  1
  9 10  1  0
 11  9  1  0
 12 11  1  1
 13  6  1  0
 13 12  1  0
 14 12  1  0
 14 16  1  0
 15 14  2  0
 17 16  1  0
 17 22  1  0
 17 18  1  6
 19 18  1  0
 19 20  1  0
 20 24  1  0
 21 20  2  0
 22 23  1  0
 25 22  2  0
M  END
$$$$
