PLE.pdb
     RDKit          3D

 25 25  0  0  1  0  0  0  0  0999 V2000
    6.9902  -14.7329   20.4934 N   0  0  0  0  0  0  0  0  0  0  0  0
    6.5629  -14.0119   19.3053 C   0  0  0  0  0  0  0  0  0  0  0  0
    7.4412  -12.8191   19.1345 C   0  0  0  0  0  0  0  0  0  0  0  0
    8.1185  -12.6768   20.4786 C   0  0  0  0  0  0  0  0  0  0  0  0
    8.2344  -14.1457   20.8960 C   0  0  1  0  0  0  0  0  0  0  0  0
    8.5671  -14.2967   22.3105 C   0  0  0  0  0  0  0  0  0  0  0  0
    9.7710  -14.0802   22.6558 O   0  0  0  0  0  0  0  0  0  0  0  0
    5.6543  -11.9958   26.3835 C   0  0  0  0  0  0  0  0  0  0  0  0
    6.8267  -12.5614   25.6925 C   0  0  1  0  0  0  0  0  0  0  0  0
    8.0652  -11.8842   26.2972 C   0  0  0  0  0  0  0  0  0  0  0  0
    6.9928  -14.0044   25.5451 C   0  0  0  0  0  0  0  0  0  0  0  0
    8.0969  -14.6122   24.7870 C   0  0  2  0  0  0  0  0  0  0  0  0
    7.6730  -14.6639   23.3437 N   0  0  0  0  0  0  0  0  0  0  0  0
    8.4069  -16.0072   25.1729 C   0  0  0  0  0  0  0  0  0  0  0  0
    7.5919  -16.7591   25.7544 O   0  0  0  0  0  0  0  0  0  0  0  0
    9.6768  -16.6021   24.9052 N   0  0  0  0  0  0  0  0  0  0  0  0
    9.9549  -17.9863   25.2452 C   0  0  1  0  0  0  0  0  0  0  0  0
   10.8566  -18.6320   24.2526 C   0  0  0  0  0  0  0  0  0  0  0  0
   11.7207  -17.7302   23.4401 C   0  0  0  0  0  0  0  0  0  0  0  0
   12.7721  -18.3714   22.6605 C   0  0  0  0  0  0  0  0  0  0  0  0
   12.8676  -19.6124   22.6141 O   0  0  0  0  0  0  0  0  0  0  0  0
   10.6015  -17.9813   26.5760 C   0  0  0  0  0  0  0  0  0  0  0  0
   10.9434  -19.1075   27.2934 O   0  0  0  0  0  0  0  0  0  0  0  0
   13.6832  -17.6107   21.9580 O   0  0  0  0  0  0  0  0  0  0  0  0
   10.8758  -16.8744   27.1317 O   0  0  0  0  0  0  0  0  0  0  0  0
  2  1  1  0
  3  2  1  0
  4  3  1  0
  4  5  1  0
  5  1  1  0
  5  6  1  1
  6  7  2  0
  9  8  1  1
  9 10  1  0
 11  9  1  0
 12 11  1  1
 13  6  1  0
 13 12  1  0
 14 12  1  0
 14 16  1  0
 15 14  2  0
 17 16  1  0
 17 22  1  0
 17 18  1  6
 19 18  1  0
 19 20  1  0
 20 24  1  0
 21 20  2  0
 22 23  1  0
 25 22  2  0
M  END
$$$$
