PLE.pdb
     RDKit          3D

 25 25  0  0  1  0  0  0  0  0999 V2000
    7.2339  -15.0527   20.0903 N   0  0  0  0  0  0  0  0  0  0  0  0
    6.6987  -14.5530   18.8342 C   0  0  0  0  0  0  0  0  0  0  0  0
    7.4105  -13.2899   18.4859 C   0  0  0  0  0  0  0  0  0  0  0  0
    8.0824  -12.8884   19.7794 C   0  0  0  0  0  0  0  0  0  0  0  0
    8.3960  -14.2635   20.3761 C   0  0  1  0  0  0  0  0  0  0  0  0
    8.7660  -14.1855   21.7872 C   0  0  0  0  0  0  0  0  0  0  0  0
    9.9963  -14.0248   22.0625 O   0  0  0  0  0  0  0  0  0  0  0  0
    8.4999  -12.0014   26.9038 C   0  0  0  0  0  0  0  0  0  0  0  0
    7.4992  -12.9798   26.4421 C   0  0  1  0  0  0  0  0  0  0  0  0
    6.1594  -12.5726   27.0724 C   0  0  0  0  0  0  0  0  0  0  0  0
    7.3728  -13.3207   25.0280 C   0  0  0  0  0  0  0  0  0  0  0  0
    8.3823  -14.1016   24.2972 C   0  0  2  0  0  0  0  0  0  0  0  0
    7.8814  -14.2723   22.8881 N   0  0  0  0  0  0  0  0  0  0  0  0
    8.5958  -15.4682   24.8241 C   0  0  0  0  0  0  0  0  0  0  0  0
    7.7022  -16.3450   24.8492 O   0  0  0  0  0  0  0  0  0  0  0  0
    9.8550  -15.8889   25.3491 N   0  0  0  0  0  0  0  0  0  0  0  0
   10.1632  -17.2933   25.5527 C   0  0  1  0  0  0  0  0  0  0  0  0
   11.4484  -17.6793   24.9089 C   0  0  0  0  0  0  0  0  0  0  0  0
   11.9426  -19.0613   25.1654 C   0  0  0  0  0  0  0  0  0  0  0  0
   13.1623  -19.4516   24.4696 C   0  0  0  0  0  0  0  0  0  0  0  0
   13.7464  -20.5153   24.7503 O   0  0  0  0  0  0  0  0  0  0  0  0
   10.2545  -17.5067   27.0140 C   0  0  0  0  0  0  0  0  0  0  0  0
   10.1827  -16.5112   27.9646 O   0  0  0  0  0  0  0  0  0  0  0  0
   13.6925  -18.6456   23.4838 O   0  0  0  0  0  0  0  0  0  0  0  0
   10.4130  -18.6822   27.4636 O   0  0  0  0  0  0  0  0  0  0  0  0
  2  1  1  0
  3  2  1  0
  4  3  1  0
  4  5  1  0
  5  1  1  0
  5  6  1  1
  6  7  2  0
  9  8  1  6
  9 10  1  0
 11  9  1  0
 12 11  1  1
 13  6  1  0
 13 12  1  0
 14 12  1  0
 14 16  1  0
 15 14  2  0
 17 16  1  0
 17 22  1  0
 17 18  1  6
 19 18  1  0
 19 20  1  0
 20 24  1  0
 21 20  2  0
 22 23  1  0
 25 22  2  0
M  END
$$$$
