PLE.pdb
     RDKit          3D

 25 25  0  0  1  0  0  0  0  0999 V2000
    7.2599  -16.0774   21.3734 N   0  0  0  0  0  0  0  0  0  0  0  0
    6.6499  -15.6964   20.1098 C   0  0  0  0  0  0  0  0  0  0  0  0
    7.2984  -14.4420   19.6308 C   0  0  0  0  0  0  0  0  0  0  0  0
    8.0137  -13.9178   20.8552 C   0  0  0  0  0  0  0  0  0  0  0  0
    8.4042  -15.2303   21.5407 C   0  0  1  0  0  0  0  0  0  0  0  0
    8.8353  -15.0290   22.9219 C   0  0  0  0  0  0  0  0  0  0  0  0
   10.0570  -14.7386   23.1183 O   0  0  0  0  0  0  0  0  0  0  0  0
    5.9860  -12.1250   26.7303 C   0  0  0  0  0  0  0  0  0  0  0  0
    7.1330  -12.7178   26.0196 C   0  0  1  0  0  0  0  0  0  0  0  0
    8.3309  -11.7877   26.2606 C   0  0  0  0  0  0  0  0  0  0  0  0
    7.4760  -14.1275   26.1833 C   0  0  0  0  0  0  0  0  0  0  0  0
    8.5601  -14.7821   25.4354 C   0  0  2  0  0  0  0  0  0  0  0  0
    8.0192  -15.1265   24.0736 N   0  0  0  0  0  0  0  0  0  0  0  0
    9.0254  -16.0572   26.0256 C   0  0  0  0  0  0  0  0  0  0  0  0
    8.2546  -16.9903   26.3467 O   0  0  0  0  0  0  0  0  0  0  0  0
   10.4071  -16.3165   26.2743 N   0  0  0  0  0  0  0  0  0  0  0  0
   10.8573  -17.5875   26.8135 C   0  0  1  0  0  0  0  0  0  0  0  0
   12.2196  -17.9443   26.3318 C   0  0  0  0  0  0  0  0  0  0  0  0
   12.4667  -17.8347   24.8666 C   0  0  0  0  0  0  0  0  0  0  0  0
   13.8284  -18.0985   24.4188 C   0  0  0  0  0  0  0  0  0  0  0  0
   14.7176  -18.4192   25.2299 O   0  0  0  0  0  0  0  0  0  0  0  0
   10.8703  -17.4499   28.2867 C   0  0  0  0  0  0  0  0  0  0  0  0
   10.5415  -16.3029   28.9768 O   0  0  0  0  0  0  0  0  0  0  0  0
   14.1564  -17.9969   23.0830 O   0  0  0  0  0  0  0  0  0  0  0  0
   11.2062  -18.4419   29.0024 O   0  0  0  0  0  0  0  0  0  0  0  0
  2  1  1  0
  3  2  1  0
  4  3  1  0
  4  5  1  0
  5  1  1  0
  5  6  1  1
  6  7  2  0
  9  8  1  1
  9 10  1  0
 11  9  1  0
 12 11  1  1
 13  6  1  0
 13 12  1  0
 14 12  1  0
 14 16  1  0
 15 14  2  0
 17 16  1  0
 17 22  1  0
 17 18  1  6
 19 18  1  0
 19 20  1  0
 20 24  1  0
 21 20  2  0
 22 23  1  0
 25 22  2  0
M  END
$$$$
