PLE.pdb
     RDKit          3D

 25 25  0  0  1  0  0  0  0  0999 V2000
    7.3580  -15.0733   19.9404 N   0  0  0  0  0  0  0  0  0  0  0  0
    6.9637  -14.5569   18.6398 C   0  0  0  0  0  0  0  0  0  0  0  0
    7.7804  -13.3448   18.3447 C   0  0  0  0  0  0  0  0  0  0  0  0
    8.3643  -12.9699   19.6879 C   0  0  0  0  0  0  0  0  0  0  0  0
    8.5390  -14.3543   20.3189 C   0  0  1  0  0  0  0  0  0  0  0  0
    8.7922  -14.2820   21.7558 C   0  0  0  0  0  0  0  0  0  0  0  0
    9.9930  -14.1015   22.1311 O   0  0  0  0  0  0  0  0  0  0  0  0
    8.3327  -12.1872   26.8284 C   0  0  0  0  0  0  0  0  0  0  0  0
    7.2497  -13.0221   26.2788 C   0  0  1  0  0  0  0  0  0  0  0  0
    5.9288  -12.4103   26.7676 C   0  0  0  0  0  0  0  0  0  0  0  0
    7.2136  -13.3758   24.8628 C   0  0  0  0  0  0  0  0  0  0  0  0
    8.2099  -14.2523   24.2285 C   0  0  2  0  0  0  0  0  0  0  0  0
    7.8233  -14.3944   22.7808 N   0  0  0  0  0  0  0  0  0  0  0  0
    8.2521  -15.6261   24.7778 C   0  0  0  0  0  0  0  0  0  0  0  0
    7.2819  -16.4165   24.7333 O   0  0  0  0  0  0  0  0  0  0  0  0
    9.4197  -16.1544   25.4067 N   0  0  0  0  0  0  0  0  0  0  0  0
    9.4940  -17.5415   25.8300 C   0  0  1  0  0  0  0  0  0  0  0  0
   10.3568  -18.3524   24.9282 C   0  0  0  0  0  0  0  0  0  0  0  0
   11.4957  -17.6495   24.2732 C   0  0  0  0  0  0  0  0  0  0  0  0
   12.3974  -18.4771   23.4819 C   0  0  0  0  0  0  0  0  0  0  0  0
   12.2070  -19.7028   23.3686 O   0  0  0  0  0  0  0  0  0  0  0  0
   10.0606  -17.5449   27.1969 C   0  0  0  0  0  0  0  0  0  0  0  0
   10.2518  -18.6692   27.9710 O   0  0  0  0  0  0  0  0  0  0  0  0
   13.4820  -17.9139   22.8424 O   0  0  0  0  0  0  0  0  0  0  0  0
   10.4067  -16.4475   27.7309 O   0  0  0  0  0  0  0  0  0  0  0  0
  2  1  1  0
  3  2  1  0
  4  3  1  0
  4  5  1  0
  5  1  1  0
  5  6  1  1
  6  7  2  0
  9  8  1  6
  9 10  1  0
 11  9  1  0
 12 11  1  1
 13  6  1  0
 13 12  1  0
 14 12  1  0
 14 16  1  0
 15 14  2  0
 17 16  1  0
 17 22  1  0
 17 18  1  6
 19 18  1  0
 19 20  1  0
 20 24  1  0
 21 20  2  0
 22 23  1  0
 25 22  2  0
M  END
$$$$
