PLE.pdb
     RDKit          3D

 25 25  0  0  1  0  0  0  0  0999 V2000
    7.2242  -14.7807   20.5646 N   0  0  0  0  0  0  0  0  0  0  0  0
    6.7914  -14.1593   19.3235 C   0  0  0  0  0  0  0  0  0  0  0  0
    7.6317  -12.9515   19.0812 C   0  0  0  0  0  0  0  0  0  0  0  0
    8.2827  -12.6928   20.4210 C   0  0  0  0  0  0  0  0  0  0  0  0
    8.4415  -14.1242   20.9416 C   0  0  1  0  0  0  0  0  0  0  0  0
    8.7570  -14.1650   22.3674 C   0  0  0  0  0  0  0  0  0  0  0  0
    9.9697  -13.9885   22.7047 O   0  0  0  0  0  0  0  0  0  0  0  0
    5.7229  -12.0876   26.5818 C   0  0  0  0  0  0  0  0  0  0  0  0
    6.9153  -12.5428   25.8449 C   0  0  1  0  0  0  0  0  0  0  0  0
    8.1063  -11.7449   26.3955 C   0  0  0  0  0  0  0  0  0  0  0  0
    7.2137  -13.9642   25.6957 C   0  0  0  0  0  0  0  0  0  0  0  0
    8.3037  -14.4710   24.8483 C   0  0  2  0  0  0  0  0  0  0  0  0
    7.8372  -14.3839   23.4200 N   0  0  0  0  0  0  0  0  0  0  0  0
    8.6473  -15.8919   25.0808 C   0  0  0  0  0  0  0  0  0  0  0  0
    7.8315  -16.8309   24.9372 O   0  0  0  0  0  0  0  0  0  0  0  0
    9.9529  -16.2975   25.4917 N   0  0  0  0  0  0  0  0  0  0  0  0
   10.3337  -17.6979   25.5419 C   0  0  1  0  0  0  0  0  0  0  0  0
   11.6398  -17.9432   24.8717 C   0  0  0  0  0  0  0  0  0  0  0  0
   12.1541  -19.3414   24.8883 C   0  0  0  0  0  0  0  0  0  0  0  0
   13.4306  -19.5691   24.2228 C   0  0  0  0  0  0  0  0  0  0  0  0
   14.0400  -18.6334   23.6709 O   0  0  0  0  0  0  0  0  0  0  0  0
   10.4305  -18.0669   26.9715 C   0  0  0  0  0  0  0  0  0  0  0  0
   10.3191  -17.1852   28.0251 O   0  0  0  0  0  0  0  0  0  0  0  0
   13.9875  -20.8305   24.1928 O   0  0  0  0  0  0  0  0  0  0  0  0
   10.6331  -19.2779   27.2904 O   0  0  0  0  0  0  0  0  0  0  0  0
  2  1  1  0
  3  2  1  0
  4  3  1  0
  4  5  1  0
  5  1  1  0
  5  6  1  1
  6  7  2  0
  9  8  1  1
  9 10  1  0
 11  9  1  0
 12 11  1  1
 13  6  1  0
 13 12  1  0
 14 12  1  0
 14 16  1  0
 15 14  2  0
 17 16  1  0
 17 22  1  0
 17 18  1  1
 19 18  1  0
 19 20  1  0
 20 24  1  0
 21 20  2  0
 22 23  1  0
 25 22  2  0
M  END
$$$$
