PLE.pdb
     RDKit          3D

 25 25  0  0  1  0  0  0  0  0999 V2000
   11.9337  -17.4363   17.1858 N   0  0  0  0  0  0  0  0  0  0  0  0
   12.2121  -18.8013   16.7698 C   0  0  0  0  0  0  0  0  0  0  0  0
   11.5123  -19.7317   17.7015 C   0  0  0  0  0  0  0  0  0  0  0  0
   11.1580  -18.8572   18.8828 C   0  0  0  0  0  0  0  0  0  0  0  0
   10.9057  -17.5195   18.1813 C   0  0  1  0  0  0  0  0  0  0  0  0
   10.8535  -16.4011   19.1197 C   0  0  0  0  0  0  0  0  0  0  0  0
   11.9134  -15.7173   19.2761 O   0  0  0  0  0  0  0  0  0  0  0  0
    6.4382  -13.0844   19.9334 C   0  0  0  0  0  0  0  0  0  0  0  0
    7.8448  -13.5164   19.8498 C   0  0  1  0  0  0  0  0  0  0  0  0
    8.6602  -12.2865   19.4248 C   0  0  0  0  0  0  0  0  0  0  0  0
    8.4734  -14.2563   20.9401 C   0  0  0  0  0  0  0  0  0  0  0  0
    9.8173  -14.8456   20.8404 C   0  0  2  0  0  0  0  0  0  0  0  0
    9.7290  -16.0004   19.8791 N   0  0  0  0  0  0  0  0  0  0  0  0
   10.3331  -15.4074   22.1089 C   0  0  0  0  0  0  0  0  0  0  0  0
   10.5143  -14.7240   23.1424 O   0  0  0  0  0  0  0  0  0  0  0  0
   10.6655  -16.7890   22.2451 N   0  0  0  0  0  0  0  0  0  0  0  0
   11.2006  -17.3240   23.4846 C   0  0  1  0  0  0  0  0  0  0  0  0
   10.5885  -18.6348   23.8341 C   0  0  0  0  0  0  0  0  0  0  0  0
   10.6585  -19.7080   22.8029 C   0  0  0  0  0  0  0  0  0  0  0  0
   10.1124  -21.0052   23.1813 C   0  0  0  0  0  0  0  0  0  0  0  0
    9.2013  -21.5341   22.5167 O   0  0  0  0  0  0  0  0  0  0  0  0
   12.6575  -17.4913   23.2880 C   0  0  0  0  0  0  0  0  0  0  0  0
   13.5548  -17.8333   24.2768 O   0  0  0  0  0  0  0  0  0  0  0  0
   10.5977  -21.6717   24.2870 O   0  0  0  0  0  0  0  0  0  0  0  0
   13.1555  -17.3126   22.1351 O   0  0  0  0  0  0  0  0  0  0  0  0
  2  1  1  0
  3  2  1  0
  4  3  1  0
  4  5  1  0
  5  1  1  0
  5  6  1  1
  6  7  2  0
  9  8  1  1
  9 10  1  0
 11  9  1  0
 12 11  1  1
 13  6  1  0
 13 12  1  0
 14 12  1  0
 14 16  1  0
 15 14  2  0
 17 16  1  0
 17 22  1  0
 17 18  1  6
 19 18  1  0
 19 20  1  0
 20 24  1  0
 21 20  2  0
 22 23  1  0
 25 22  2  0
M  END
$$$$
