PLE.pdb
     RDKit          3D

 25 25  0  0  1  0  0  0  0  0999 V2000
    7.1628  -14.6700   20.4903 N   0  0  0  0  0  0  0  0  0  0  0  0
    6.7839  -13.9006   19.3163 C   0  0  0  0  0  0  0  0  0  0  0  0
    7.7196  -12.7471   19.1845 C   0  0  0  0  0  0  0  0  0  0  0  0
    8.3872  -12.6702   20.5388 C   0  0  0  0  0  0  0  0  0  0  0  0
    8.4286  -14.1527   20.9205 C   0  0  1  0  0  0  0  0  0  0  0  0
    8.7373  -14.3540   22.3342 C   0  0  0  0  0  0  0  0  0  0  0  0
    9.9576  -14.5171   22.6501 O   0  0  0  0  0  0  0  0  0  0  0  0
    5.6061  -12.0954   26.3269 C   0  0  0  0  0  0  0  0  0  0  0  0
    6.8444  -12.5663   25.6814 C   0  0  1  0  0  0  0  0  0  0  0  0
    7.9794  -11.6685   26.1950 C   0  0  0  0  0  0  0  0  0  0  0  0
    7.2051  -13.9810   25.6815 C   0  0  0  0  0  0  0  0  0  0  0  0
    8.2592  -14.5409   24.8223 C   0  0  2  0  0  0  0  0  0  0  0  0
    7.8031  -14.3857   23.3963 N   0  0  0  0  0  0  0  0  0  0  0  0
    8.5029  -15.9876   25.0190 C   0  0  0  0  0  0  0  0  0  0  0  0
    7.6907  -16.8765   24.6756 O   0  0  0  0  0  0  0  0  0  0  0  0
    9.6993  -16.4783   25.6238 N   0  0  0  0  0  0  0  0  0  0  0  0
    9.9506  -17.9013   25.7673 C   0  0  1  0  0  0  0  0  0  0  0  0
   10.8928  -18.4065   24.7319 C   0  0  0  0  0  0  0  0  0  0  0  0
   12.1266  -17.6057   24.4948 C   0  0  0  0  0  0  0  0  0  0  0  0
   13.0646  -18.1377   23.5142 C   0  0  0  0  0  0  0  0  0  0  0  0
   12.8469  -19.2236   22.9445 O   0  0  0  0  0  0  0  0  0  0  0  0
   10.5342  -18.1021   27.1121 C   0  0  0  0  0  0  0  0  0  0  0  0
   10.8380  -17.0933   28.0011 O   0  0  0  0  0  0  0  0  0  0  0  0
   14.2143  -17.4439   23.1995 O   0  0  0  0  0  0  0  0  0  0  0  0
   10.7901  -19.2786   27.5113 O   0  0  0  0  0  0  0  0  0  0  0  0
  2  1  1  0
  3  2  1  0
  4  3  1  0
  4  5  1  0
  5  1  1  0
  5  6  1  1
  6  7  2  0
  9  8  1  1
  9 10  1  0
 11  9  1  0
 12 11  1  1
 13  6  1  0
 13 12  1  0
 14 12  1  0
 14 16  1  0
 15 14  2  0
 17 16  1  0
 17 22  1  0
 17 18  1  6
 19 18  1  0
 19 20  1  0
 20 24  1  0
 21 20  2  0
 22 23  1  0
 25 22  2  0
M  END
$$$$
