FPL.pdb
     RDKit          3D

 27 28  0  0  1  0  0  0  0  0999 V2000
    5.9082  -18.2283   23.2575 N   0  0  0  0  0  0  0  0  0  0  0  0
    6.4467  -16.9537   23.7139 C   0  0  1  0  0  0  0  0  0  0  0  0
    5.6827  -16.6312   24.9845 C   0  0  0  0  0  0  0  0  0  0  0  0
    5.9988  -15.2277   25.3314 C   0  0  0  0  0  0  0  0  0  0  0  0
    6.0030  -14.7628   26.6276 C   0  0  0  0  0  0  0  0  0  0  0  0
    6.3084  -13.4296   26.8956 C   0  0  0  0  0  0  0  0  0  0  0  0
    6.6094  -12.5568   25.8832 C   0  0  0  0  0  0  0  0  0  0  0  0
    6.6081  -13.0086   24.5913 C   0  0  0  0  0  0  0  0  0  0  0  0
    6.3050  -14.3279   24.3365 C   0  0  0  0  0  0  0  0  0  0  0  0
    7.9265  -17.0525   23.9997 C   0  0  0  0  0  0  0  0  0  0  0  0
    8.1735  -17.6882   25.0694 O   0  0  0  0  0  0  0  0  0  0  0  0
    8.8831  -16.4878   23.1470 N   0  0  0  0  0  0  0  0  0  0  0  0
    8.5549  -16.1542   21.7360 C   0  0  0  0  0  0  0  0  0  0  0  0
    8.9929  -14.7114   21.7230 C   0  0  0  0  0  0  0  0  0  0  0  0
   10.0974  -14.6093   22.7843 C   0  0  0  0  0  0  0  0  0  0  0  0
   10.2341  -16.0692   23.2077 C   0  0  1  0  0  0  0  0  0  0  0  0
   10.9973  -16.2513   24.4111 C   0  0  0  0  0  0  0  0  0  0  0  0
   12.2210  -16.4445   24.4273 O   0  0  0  0  0  0  0  0  0  0  0  0
    9.0312  -13.6045   28.6547 C   0  0  0  0  0  0  0  0  0  0  0  0
    9.9471  -14.2410   27.6338 C   0  0  1  0  0  0  0  0  0  0  0  0
   11.2482  -13.4225   27.6779 C   0  0  0  0  0  0  0  0  0  0  0  0
   10.3179  -15.6420   27.9734 C   0  0  0  0  0  0  0  0  0  0  0  0
   11.0657  -16.3966   26.9274 C   0  0  2  0  0  0  0  0  0  0  0  0
   10.3404  -16.2130   25.6683 N   0  0  0  0  0  0  0  0  0  0  0  0
   11.2251  -17.8231   27.2519 C   0  0  0  0  0  0  0  0  0  0  0  0
   12.0893  -18.2082   28.2496 O   0  0  0  0  0  0  0  0  0  0  0  0
   10.5812  -18.6816   26.6273 O   0  0  0  0  0  0  0  0  0  0  0  0
  2  1  1  1
  3  2  1  0
  3  4  1  0
  4  9  1  0
  5  4  2  0
  5  6  1  0
  6  7  2  0
  7  8  1  0
  9  8  2  0
 10 11  2  0
 10  2  1  0
 12 10  1  0
 13 12  1  0
 14 13  1  0
 15 14  1  0
 15 16  1  0
 16 12  1  0
 16 17  1  1
 18 17  2  0
 20 19  1  1
 20 21  1  0
 22 20  1  0
 23 22  1  1
 23 24  1  0
 24 17  1  0
 25 23  1  0
 26 25  1  0
 27 25  2  0
M  END
$$$$
