FPL.pdb
     RDKit          3D

 27 28  0  0  1  0  0  0  0  0999 V2000
    5.2695  -17.7094   24.5833 N   0  0  0  0  0  0  0  0  0  0  0  0
    6.0455  -16.4872   24.7482 C   0  0  1  0  0  0  0  0  0  0  0  0
    5.8840  -16.1075   26.2082 C   0  0  0  0  0  0  0  0  0  0  0  0
    6.2671  -14.6830   26.3266 C   0  0  0  0  0  0  0  0  0  0  0  0
    5.4404  -13.6534   25.9356 C   0  0  0  0  0  0  0  0  0  0  0  0
    5.8540  -12.3293   26.0705 C   0  0  0  0  0  0  0  0  0  0  0  0
    7.0838  -12.0232   26.5914 C   0  0  0  0  0  0  0  0  0  0  0  0
    7.9132  -13.0390   26.9832 C   0  0  0  0  0  0  0  0  0  0  0  0
    7.4955  -14.3443   26.8459 C   0  0  0  0  0  0  0  0  0  0  0  0
    7.5026  -16.7125   24.4206 C   0  0  0  0  0  0  0  0  0  0  0  0
    8.0625  -17.5188   25.2242 O   0  0  0  0  0  0  0  0  0  0  0  0
    8.1230  -16.0777   23.3374 N   0  0  0  0  0  0  0  0  0  0  0  0
    7.3633  -15.7402   22.1051 C   0  0  0  0  0  0  0  0  0  0  0  0
    7.7019  -14.2740   22.0091 C   0  0  0  0  0  0  0  0  0  0  0  0
    9.0708  -14.1247   22.6876 C   0  0  0  0  0  0  0  0  0  0  0  0
    9.4048  -15.5809   22.9991 C   0  0  1  0  0  0  0  0  0  0  0  0
   10.5071  -15.7379   23.9070 C   0  0  0  0  0  0  0  0  0  0  0  0
   11.6893  -15.5377   23.5951 O   0  0  0  0  0  0  0  0  0  0  0  0
    8.6944  -14.8902   28.8765 C   0  0  0  0  0  0  0  0  0  0  0  0
    9.4608  -14.9137   27.5733 C   0  0  1  0  0  0  0  0  0  0  0  0
   10.0784  -13.5126   27.4312 C   0  0  0  0  0  0  0  0  0  0  0  0
   10.5958  -15.8767   27.5794 C   0  0  0  0  0  0  0  0  0  0  0  0
   11.2946  -16.0783   26.2780 C   0  0  2  0  0  0  0  0  0  0  0  0
   10.2597  -16.1445   25.2437 N   0  0  0  0  0  0  0  0  0  0  0  0
   12.1461  -17.2784   26.2631 C   0  0  0  0  0  0  0  0  0  0  0  0
   11.7338  -18.4048   25.5909 O   0  0  0  0  0  0  0  0  0  0  0  0
   13.2370  -17.2777   26.8561 O   0  0  0  0  0  0  0  0  0  0  0  0
  2  1  1  1
  3  2  1  0
  3  4  1  0
  4  9  1  0
  5  4  2  0
  5  6  1  0
  6  7  2  0
  7  8  1  0
  9  8  2  0
 10 11  2  0
 10  2  1  0
 12 10  1  0
 13 12  1  0
 14 13  1  0
 15 14  1  0
 15 16  1  0
 16 12  1  0
 16 17  1  1
 18 17  2  0
 20 19  1  1
 20 21  1  0
 22 20  1  0
 23 22  1  1
 23 24  1  0
 24 17  1  0
 25 23  1  0
 26 25  1  0
 27 25  2  0
M  END
$$$$
