FPL.pdb
     RDKit          3D

 27 28  0  0  1  0  0  0  0  0999 V2000
    5.3508  -18.0838   24.0529 N   0  0  0  0  0  0  0  0  0  0  0  0
    6.0331  -16.8167   24.2805 C   0  0  1  0  0  0  0  0  0  0  0  0
    5.8950  -16.5521   25.7680 C   0  0  0  0  0  0  0  0  0  0  0  0
    6.1841  -15.1159   25.9777 C   0  0  0  0  0  0  0  0  0  0  0  0
    5.2422  -14.1298   25.7859 C   0  0  0  0  0  0  0  0  0  0  0  0
    5.5709  -12.7923   25.9987 C   0  0  0  0  0  0  0  0  0  0  0  0
    6.8296  -12.4298   26.4008 C   0  0  0  0  0  0  0  0  0  0  0  0
    7.7733  -13.4020   26.5943 C   0  0  0  0  0  0  0  0  0  0  0  0
    7.4389  -14.7211   26.3814 C   0  0  0  0  0  0  0  0  0  0  0  0
    7.4907  -16.8995   23.8933 C   0  0  0  0  0  0  0  0  0  0  0  0
    8.1064  -17.8201   24.5120 O   0  0  0  0  0  0  0  0  0  0  0  0
    8.0548  -16.0326   22.9492 N   0  0  0  0  0  0  0  0  0  0  0  0
    7.2704  -15.5498   21.7823 C   0  0  0  0  0  0  0  0  0  0  0  0
    7.4790  -14.0660   21.9510 C   0  0  0  0  0  0  0  0  0  0  0  0
    8.8284  -13.9212   22.6686 C   0  0  0  0  0  0  0  0  0  0  0  0
    9.2886  -15.3752   22.7255 C   0  0  1  0  0  0  0  0  0  0  0  0
   10.3988  -15.5942   23.6105 C   0  0  0  0  0  0  0  0  0  0  0  0
   11.4720  -14.9801   23.5331 O   0  0  0  0  0  0  0  0  0  0  0  0
   11.5537  -13.9705   28.2509 C   0  0  0  0  0  0  0  0  0  0  0  0
   10.3990  -14.9162   28.0090 C   0  0  1  0  0  0  0  0  0  0  0  0
    9.1524  -14.1928   28.5449 C   0  0  0  0  0  0  0  0  0  0  0  0
   10.1483  -15.1760   26.5649 C   0  0  0  0  0  0  0  0  0  0  0  0
   10.8612  -16.3439   25.9731 C   0  0  2  0  0  0  0  0  0  0  0  0
   10.2904  -16.5625   24.6421 N   0  0  0  0  0  0  0  0  0  0  0  0
   10.7668  -17.5554   26.8032 C   0  0  0  0  0  0  0  0  0  0  0  0
   11.8730  -18.0121   27.4801 O   0  0  0  0  0  0  0  0  0  0  0  0
    9.6905  -18.1676   26.8947 O   0  0  0  0  0  0  0  0  0  0  0  0
  2  1  1  1
  3  2  1  0
  3  4  1  0
  4  9  1  0
  5  4  2  0
  5  6  1  0
  6  7  2  0
  7  8  1  0
  9  8  2  0
 10 11  2  0
 10  2  1  0
 12 10  1  0
 13 12  1  0
 14 13  1  0
 15 14  1  0
 15 16  1  0
 16 12  1  0
 16 17  1  1
 18 17  2  0
 20 19  1  6
 20 21  1  0
 22 20  1  0
 23 22  1  1
 23 24  1  0
 24 17  1  0
 25 23  1  0
 26 25  1  0
 27 25  2  0
M  END
$$$$
