FPL.pdb
     RDKit          3D

 27 28  0  0  1  0  0  0  0  0999 V2000
    5.3759  -17.6981   24.3876 N   0  0  0  0  0  0  0  0  0  0  0  0
    6.1151  -16.4544   24.5595 C   0  0  1  0  0  0  0  0  0  0  0  0
    5.9959  -16.1214   26.0349 C   0  0  0  0  0  0  0  0  0  0  0  0
    6.1599  -14.6559   26.1593 C   0  0  0  0  0  0  0  0  0  0  0  0
    5.1113  -13.7739   26.0227 C   0  0  0  0  0  0  0  0  0  0  0  0
    5.3246  -12.4025   26.1502 C   0  0  0  0  0  0  0  0  0  0  0  0
    6.5734  -11.9035   26.4126 C   0  0  0  0  0  0  0  0  0  0  0  0
    7.6226  -12.7714   26.5502 C   0  0  0  0  0  0  0  0  0  0  0  0
    7.4018  -14.1250   26.4225 C   0  0  0  0  0  0  0  0  0  0  0  0
    7.5657  -16.6186   24.1721 C   0  0  0  0  0  0  0  0  0  0  0  0
    8.1882  -17.4102   24.9437 O   0  0  0  0  0  0  0  0  0  0  0  0
    8.1172  -15.9491   23.0726 N   0  0  0  0  0  0  0  0  0  0  0  0
    7.2594  -15.4504   21.9657 C   0  0  0  0  0  0  0  0  0  0  0  0
    7.7162  -14.0136   21.9375 C   0  0  0  0  0  0  0  0  0  0  0  0
    9.1596  -14.0326   22.4599 C   0  0  0  0  0  0  0  0  0  0  0  0
    9.3933  -15.5319   22.6234 C   0  0  1  0  0  0  0  0  0  0  0  0
   10.5706  -15.8524   23.3818 C   0  0  0  0  0  0  0  0  0  0  0  0
   11.6633  -16.1337   22.8702 O   0  0  0  0  0  0  0  0  0  0  0  0
   10.7557  -14.9027   28.7725 C   0  0  0  0  0  0  0  0  0  0  0  0
   10.5559  -14.4872   27.3325 C   0  0  1  0  0  0  0  0  0  0  0  0
   10.3475  -12.9640   27.3664 C   0  0  0  0  0  0  0  0  0  0  0  0
   11.7529  -14.7307   26.4819 C   0  0  0  0  0  0  0  0  0  0  0  0
   11.7149  -15.9512   25.6265 C   0  0  2  0  0  0  0  0  0  0  0  0
   10.5099  -15.8552   24.7995 N   0  0  0  0  0  0  0  0  0  0  0  0
   11.7333  -17.1995   26.4056 C   0  0  0  0  0  0  0  0  0  0  0  0
   12.8732  -17.5732   27.0774 O   0  0  0  0  0  0  0  0  0  0  0  0
   10.7217  -17.9175   26.4586 O   0  0  0  0  0  0  0  0  0  0  0  0
  2  1  1  1
  3  2  1  0
  3  4  1  0
  4  9  1  0
  5  4  2  0
  5  6  1  0
  6  7  2  0
  7  8  1  0
  9  8  2  0
 10 11  2  0
 10  2  1  0
 12 10  1  0
 13 12  1  0
 14 13  1  0
 15 14  1  0
 15 16  1  0
 16 12  1  0
 16 17  1  1
 18 17  2  0
 20 19  1  1
 20 21  1  0
 22 20  1  0
 23 22  1  1
 23 24  1  0
 24 17  1  0
 25 23  1  0
 26 25  1  0
 27 25  2  0
M  END
$$$$
