FPL.pdb
     RDKit          3D

 27 28  0  0  1  0  0  0  0  0999 V2000
    7.8201  -17.7775   24.1696 N   0  0  0  0  0  0  0  0  0  0  0  0
    7.0895  -18.3256   23.0344 C   0  0  1  0  0  0  0  0  0  0  0  0
    5.6237  -18.1891   23.4013 C   0  0  0  0  0  0  0  0  0  0  0  0
    4.8439  -18.5364   22.1924 C   0  0  0  0  0  0  0  0  0  0  0  0
    4.9997  -19.7289   21.5216 C   0  0  0  0  0  0  0  0  0  0  0  0
    4.2374  -20.0027   20.3874 C   0  0  0  0  0  0  0  0  0  0  0  0
    3.3220  -19.0984   19.9167 C   0  0  0  0  0  0  0  0  0  0  0  0
    3.1593  -17.9101   20.5758 C   0  0  0  0  0  0  0  0  0  0  0  0
    3.9172  -17.6487   21.6959 C   0  0  0  0  0  0  0  0  0  0  0  0
    7.3886  -17.5608   21.7667 C   0  0  0  0  0  0  0  0  0  0  0  0
    7.3681  -18.3007   20.7364 O   0  0  0  0  0  0  0  0  0  0  0  0
    7.6533  -16.1857   21.7784 N   0  0  0  0  0  0  0  0  0  0  0  0
    6.9665  -15.2618   20.8380 C   0  0  0  0  0  0  0  0  0  0  0  0
    6.4319  -14.2621   21.8321 C   0  0  0  0  0  0  0  0  0  0  0  0
    7.4027  -14.3070   23.0204 C   0  0  0  0  0  0  0  0  0  0  0  0
    8.4621  -15.2734   22.4980 C   0  0  1  0  0  0  0  0  0  0  0  0
    9.3623  -15.7456   23.5132 C   0  0  0  0  0  0  0  0  0  0  0  0
   10.3223  -16.4954   23.2869 O   0  0  0  0  0  0  0  0  0  0  0  0
    9.2549  -13.0698   28.6336 C   0  0  0  0  0  0  0  0  0  0  0  0
    9.0209  -14.1563   27.6084 C   0  0  1  0  0  0  0  0  0  0  0  0
    7.9685  -13.5915   26.6398 C   0  0  0  0  0  0  0  0  0  0  0  0
   10.2275  -14.4591   26.7911 C   0  0  0  0  0  0  0  0  0  0  0  0
   10.1412  -15.6584   25.9097 C   0  0  2  0  0  0  0  0  0  0  0  0
    9.1669  -15.3481   24.8612 N   0  0  0  0  0  0  0  0  0  0  0  0
    9.7730  -16.8822   26.6394 C   0  0  0  0  0  0  0  0  0  0  0  0
    8.6071  -17.5420   26.3300 O   0  0  0  0  0  0  0  0  0  0  0  0
   10.5124  -17.3218   27.5348 O   0  0  0  0  0  0  0  0  0  0  0  0
  2  1  1  1
  3  2  1  0
  3  4  1  0
  4  9  1  0
  5  4  2  0
  5  6  1  0
  6  7  2  0
  7  8  1  0
  9  8  2  0
 10 11  2  0
 10  2  1  0
 12 10  1  0
 13 12  1  0
 14 13  1  0
 15 14  1  0
 15 16  1  0
 16 12  1  0
 16 17  1  1
 18 17  2  0
 20 19  1  1
 20 21  1  0
 22 20  1  0
 23 22  1  1
 23 24  1  0
 24 17  1  0
 25 23  1  0
 26 25  1  0
 27 25  2  0
M  END
$$$$
