FPL.pdb
     RDKit          3D

 27 28  0  0  1  0  0  0  0  0999 V2000
    7.1587  -17.1227   19.8356 N   0  0  0  0  0  0  0  0  0  0  0  0
    8.3614  -17.1386   20.6580 C   0  0  1  0  0  0  0  0  0  0  0  0
    9.2669  -16.0788   20.0589 C   0  0  0  0  0  0  0  0  0  0  0  0
    8.5441  -14.7911   20.1560 C   0  0  0  0  0  0  0  0  0  0  0  0
    7.6911  -14.3389   19.1740 C   0  0  0  0  0  0  0  0  0  0  0  0
    7.0365  -13.1171   19.3190 C   0  0  0  0  0  0  0  0  0  0  0  0
    7.2248  -12.3429   20.4338 C   0  0  0  0  0  0  0  0  0  0  0  0
    8.0705  -12.7831   21.4158 C   0  0  0  0  0  0  0  0  0  0  0  0
    8.7129  -13.9920   21.2633 C   0  0  0  0  0  0  0  0  0  0  0  0
    8.0472  -16.8101   22.0983 C   0  0  0  0  0  0  0  0  0  0  0  0
    7.3394  -15.7638   22.2150 O   0  0  0  0  0  0  0  0  0  0  0  0
    8.5093  -17.6044   23.1551 N   0  0  0  0  0  0  0  0  0  0  0  0
    8.4395  -19.0879   23.0904 C   0  0  0  0  0  0  0  0  0  0  0  0
    9.8806  -19.4090   23.3968 C   0  0  0  0  0  0  0  0  0  0  0  0
   10.3877  -18.2394   24.2520 C   0  0  0  0  0  0  0  0  0  0  0  0
    9.1084  -17.4255   24.4253 C   0  0  1  0  0  0  0  0  0  0  0  0
    9.3314  -16.1042   24.9432 C   0  0  0  0  0  0  0  0  0  0  0  0
   10.0553  -15.2626   24.3930 O   0  0  0  0  0  0  0  0  0  0  0  0
    6.0752  -12.3648   26.3042 C   0  0  0  0  0  0  0  0  0  0  0  0
    7.3075  -13.1780   25.9781 C   0  0  1  0  0  0  0  0  0  0  0  0
    8.2778  -12.2020   25.2923 C   0  0  0  0  0  0  0  0  0  0  0  0
    8.0079  -13.6895   27.1879 C   0  0  0  0  0  0  0  0  0  0  0  0
    9.1812  -14.5762   26.9432 C   0  0  2  0  0  0  0  0  0  0  0  0
    8.7007  -15.7111   26.1519 N   0  0  0  0  0  0  0  0  0  0  0  0
    9.8311  -15.0245   28.1851 C   0  0  0  0  0  0  0  0  0  0  0  0
    9.7086  -16.3325   28.5909 O   0  0  0  0  0  0  0  0  0  0  0  0
   10.4907  -14.2250   28.8687 O   0  0  0  0  0  0  0  0  0  0  0  0
  2  1  1  6
  3  2  1  0
  3  4  1  0
  4  9  1  0
  5  4  2  0
  5  6  1  0
  6  7  2  0
  7  8  1  0
  9  8  2  0
 10 11  2  0
 10  2  1  0
 12 10  1  0
 13 12  1  0
 14 13  1  0
 15 14  1  0
 15 16  1  0
 16 12  1  0
 16 17  1  6
 18 17  2  0
 20 19  1  1
 20 21  1  0
 22 20  1  0
 23 22  1  1
 23 24  1  0
 24 17  1  0
 25 23  1  0
 26 25  1  0
 27 25  2  0
M  END
$$$$
