FPL.pdb
     RDKit          3D

 27 28  0  0  1  0  0  0  0  0999 V2000
    7.7742  -20.4301   22.4472 N   0  0  0  0  0  0  0  0  0  0  0  0
    7.1482  -19.1197   22.5644 C   0  0  1  0  0  0  0  0  0  0  0  0
    6.4715  -19.1222   23.9224 C   0  0  0  0  0  0  0  0  0  0  0  0
    5.9804  -20.4987   24.1553 C   0  0  0  0  0  0  0  0  0  0  0  0
    6.4408  -21.2907   25.1834 C   0  0  0  0  0  0  0  0  0  0  0  0
    5.9419  -22.5807   25.3551 C   0  0  0  0  0  0  0  0  0  0  0  0
    4.9887  -23.0873   24.5112 C   0  0  0  0  0  0  0  0  0  0  0  0
    4.5243  -22.3085   23.4860 C   0  0  0  0  0  0  0  0  0  0  0  0
    5.0235  -21.0349   23.3246 C   0  0  0  0  0  0  0  0  0  0  0  0
    8.1722  -18.0121   22.4882 C   0  0  0  0  0  0  0  0  0  0  0  0
    9.2550  -18.3098   23.0785 O   0  0  0  0  0  0  0  0  0  0  0  0
    7.9085  -16.8063   21.8267 N   0  0  0  0  0  0  0  0  0  0  0  0
    7.8550  -16.7384   20.3426 C   0  0  0  0  0  0  0  0  0  0  0  0
    6.5031  -16.0902   20.1812 C   0  0  0  0  0  0  0  0  0  0  0  0
    6.2906  -15.2633   21.4571 C   0  0  0  0  0  0  0  0  0  0  0  0
    7.6307  -15.4589   22.1607 C   0  0  1  0  0  0  0  0  0  0  0  0
    7.6276  -15.0371   23.5341 C   0  0  0  0  0  0  0  0  0  0  0  0
    6.7763  -15.3925   24.3610 O   0  0  0  0  0  0  0  0  0  0  0  0
    7.5059  -11.1625   27.1948 C   0  0  0  0  0  0  0  0  0  0  0  0
    6.7821  -12.4059   26.7295 C   0  0  1  0  0  0  0  0  0  0  0  0
    5.3047  -12.0001   26.5988 C   0  0  0  0  0  0  0  0  0  0  0  0
    7.2149  -12.8646   25.3813 C   0  0  0  0  0  0  0  0  0  0  0  0
    8.5603  -13.5023   25.3037 C   0  0  2  0  0  0  0  0  0  0  0  0
    8.6444  -14.1639   23.9998 N   0  0  0  0  0  0  0  0  0  0  0  0
    8.8118  -14.4481   26.4028 C   0  0  0  0  0  0  0  0  0  0  0  0
    7.9739  -15.5220   26.5901 O   0  0  0  0  0  0  0  0  0  0  0  0
    9.7793  -14.2797   27.1626 O   0  0  0  0  0  0  0  0  0  0  0  0
  2  1  1  1
  3  2  1  0
  3  4  1  0
  4  9  1  0
  5  4  2  0
  5  6  1  0
  6  7  2  0
  7  8  1  0
  9  8  2  0
 10 11  2  0
 10  2  1  0
 12 10  1  0
 13 12  1  0
 14 13  1  0
 15 14  1  0
 15 16  1  0
 16 12  1  0
 16 17  1  1
 18 17  2  0
 20 19  1  6
 20 21  1  0
 22 20  1  0
 23 22  1  1
 23 24  1  0
 24 17  1  0
 25 23  1  0
 26 25  1  0
 27 25  2  0
M  END
$$$$
