FPL.pdb
     RDKit          3D

 27 28  0  0  1  0  0  0  0  0999 V2000
    5.3512  -17.6448   24.4556 N   0  0  0  0  0  0  0  0  0  0  0  0
    6.0701  -16.3954   24.6679 C   0  0  1  0  0  0  0  0  0  0  0  0
    5.8234  -16.0366   26.1213 C   0  0  0  0  0  0  0  0  0  0  0  0
    6.2868  -14.6431   26.3046 C   0  0  0  0  0  0  0  0  0  0  0  0
    7.5788  -14.3278   26.6620 C   0  0  0  0  0  0  0  0  0  0  0  0
    7.9597  -12.9966   26.8207 C   0  0  0  0  0  0  0  0  0  0  0  0
    7.0643  -11.9779   26.6261 C   0  0  0  0  0  0  0  0  0  0  0  0
    5.7776  -12.2803   26.2706 C   0  0  0  0  0  0  0  0  0  0  0  0
    5.4108  -13.5990   26.1163 C   0  0  0  0  0  0  0  0  0  0  0  0
    7.5491  -16.5610   24.4100 C   0  0  0  0  0  0  0  0  0  0  0  0
    8.1187  -17.2762   25.2894 O   0  0  0  0  0  0  0  0  0  0  0  0
    8.1774  -15.9703   23.3066 N   0  0  0  0  0  0  0  0  0  0  0  0
    7.4032  -15.5750   22.1007 C   0  0  0  0  0  0  0  0  0  0  0  0
    7.8445  -14.1371   21.9936 C   0  0  0  0  0  0  0  0  0  0  0  0
    9.2427  -14.0898   22.6256 C   0  0  0  0  0  0  0  0  0  0  0  0
    9.4799  -15.5673   22.9255 C   0  0  1  0  0  0  0  0  0  0  0  0
   10.5977  -15.8067   23.7956 C   0  0  0  0  0  0  0  0  0  0  0  0
   11.7701  -15.8871   23.4033 O   0  0  0  0  0  0  0  0  0  0  0  0
    9.3354  -14.3331   28.8385 C   0  0  0  0  0  0  0  0  0  0  0  0
    9.9673  -14.5577   27.4833 C   0  0  1  0  0  0  0  0  0  0  0  0
   10.7590  -13.2752   27.1783 C   0  0  0  0  0  0  0  0  0  0  0  0
   10.9520  -15.6739   27.4748 C   0  0  0  0  0  0  0  0  0  0  0  0
   11.4866  -16.0695   26.1404 C   0  0  2  0  0  0  0  0  0  0  0  0
   10.3784  -15.9642   25.1886 N   0  0  0  0  0  0  0  0  0  0  0  0
   12.0735  -17.4190   26.1339 C   0  0  0  0  0  0  0  0  0  0  0  0
   13.2386  -17.6647   26.8214 O   0  0  0  0  0  0  0  0  0  0  0  0
   11.5197  -18.3380   25.5090 O   0  0  0  0  0  0  0  0  0  0  0  0
  2  1  1  1
  3  2  1  0
  3  4  1  0
  4  9  1  0
  5  4  2  0
  5  6  1  0
  6  7  2  0
  7  8  1  0
  9  8  2  0
 10 11  2  0
 10  2  1  0
 12 10  1  0
 13 12  1  0
 14 13  1  0
 15 14  1  0
 15 16  1  0
 16 12  1  0
 16 17  1  1
 18 17  2  0
 20 19  1  1
 20 21  1  0
 22 20  1  0
 23 22  1  1
 23 24  1  0
 24 17  1  0
 25 23  1  0
 26 25  1  0
 27 25  2  0
M  END
$$$$
