FPL.pdb
     RDKit          3D

 27 28  0  0  1  0  0  0  0  0999 V2000
    6.2387  -18.6474   22.1684 N   0  0  0  0  0  0  0  0  0  0  0  0
    6.3824  -17.3112   21.6053 C   0  0  1  0  0  0  0  0  0  0  0  0
    5.4794  -16.4267   22.4445 C   0  0  0  0  0  0  0  0  0  0  0  0
    6.2507  -16.0443   23.6483 C   0  0  0  0  0  0  0  0  0  0  0  0
    6.7329  -14.7705   23.8515 C   0  0  0  0  0  0  0  0  0  0  0  0
    7.4537  -14.4671   25.0051 C   0  0  0  0  0  0  0  0  0  0  0  0
    7.6977  -15.4220   25.9570 C   0  0  0  0  0  0  0  0  0  0  0  0
    7.2229  -16.6912   25.7649 C   0  0  0  0  0  0  0  0  0  0  0  0
    6.5116  -16.9813   24.6215 C   0  0  0  0  0  0  0  0  0  0  0  0
    7.8123  -16.8313   21.6856 C   0  0  0  0  0  0  0  0  0  0  0  0
    8.4990  -17.4884   22.5260 O   0  0  0  0  0  0  0  0  0  0  0  0
    8.2818  -15.7729   20.8980 N   0  0  0  0  0  0  0  0  0  0  0  0
    7.7220  -15.5127   19.5457 C   0  0  0  0  0  0  0  0  0  0  0  0
    7.3662  -14.0567   19.7099 C   0  0  0  0  0  0  0  0  0  0  0  0
    8.3447  -13.5119   20.7598 C   0  0  0  0  0  0  0  0  0  0  0  0
    9.2345  -14.7299   20.9922 C   0  0  1  0  0  0  0  0  0  0  0  0
   10.0750  -14.6169   22.1519 C   0  0  0  0  0  0  0  0  0  0  0  0
    9.9093  -13.7712   23.0420 O   0  0  0  0  0  0  0  0  0  0  0  0
   11.3847  -17.6196   25.3440 C   0  0  0  0  0  0  0  0  0  0  0  0
   10.5655  -16.3824   25.0532 C   0  0  1  0  0  0  0  0  0  0  0  0
    9.8896  -16.0116   26.3838 C   0  0  0  0  0  0  0  0  0  0  0  0
   11.3949  -15.2107   24.6600 C   0  0  0  0  0  0  0  0  0  0  0  0
   12.1532  -15.3403   23.3828 C   0  0  2  0  0  0  0  0  0  0  0  0
   11.1650  -15.5105   22.3153 N   0  0  0  0  0  0  0  0  0  0  0  0
   13.1215  -16.4483   23.3997 C   0  0  0  0  0  0  0  0  0  0  0  0
   14.2706  -16.3450   24.1476 O   0  0  0  0  0  0  0  0  0  0  0  0
   12.9044  -17.4776   22.7400 O   0  0  0  0  0  0  0  0  0  0  0  0
  2  1  1  1
  3  2  1  0
  3  4  1  0
  4  9  1  0
  5  4  2  0
  5  6  1  0
  6  7  2  0
  7  8  1  0
  9  8  2  0
 10 11  2  0
 10  2  1  0
 12 10  1  0
 13 12  1  0
 14 13  1  0
 15 14  1  0
 15 16  1  0
 16 12  1  0
 16 17  1  1
 18 17  2  0
 20 19  1  1
 20 21  1  0
 22 20  1  0
 23 22  1  1
 23 24  1  0
 24 17  1  0
 25 23  1  0
 26 25  1  0
 27 25  2  0
M  END
$$$$
