FPL.pdb
     RDKit          3D

 27 28  0  0  1  0  0  0  0  0999 V2000
    5.5088  -17.7630   24.5170 N   0  0  0  0  0  0  0  0  0  0  0  0
    6.1989  -16.4850   24.6338 C   0  0  1  0  0  0  0  0  0  0  0  0
    6.0637  -16.0919   26.0929 C   0  0  0  0  0  0  0  0  0  0  0  0
    6.1121  -14.6138   26.1460 C   0  0  0  0  0  0  0  0  0  0  0  0
    4.9988  -13.8241   25.9635 C   0  0  0  0  0  0  0  0  0  0  0  0
    5.1036  -12.4357   26.0243 C   0  0  0  0  0  0  0  0  0  0  0  0
    6.3080  -11.8284   26.2655 C   0  0  0  0  0  0  0  0  0  0  0  0
    7.4208  -12.6039   26.4484 C   0  0  0  0  0  0  0  0  0  0  0  0
    7.3070  -13.9752   26.3864 C   0  0  0  0  0  0  0  0  0  0  0  0
    7.6556  -16.6099   24.2547 C   0  0  0  0  0  0  0  0  0  0  0  0
    8.2998  -17.3668   25.0430 O   0  0  0  0  0  0  0  0  0  0  0  0
    8.1900  -15.9434   23.1450 N   0  0  0  0  0  0  0  0  0  0  0  0
    7.3417  -15.5933   21.9755 C   0  0  0  0  0  0  0  0  0  0  0  0
    7.6512  -14.1201   21.8877 C   0  0  0  0  0  0  0  0  0  0  0  0
    9.0616  -13.9625   22.4731 C   0  0  0  0  0  0  0  0  0  0  0  0
    9.4378  -15.4192   22.7297 C   0  0  1  0  0  0  0  0  0  0  0  0
   10.6026  -15.5768   23.5557 C   0  0  0  0  0  0  0  0  0  0  0  0
   11.6180  -14.8741   23.4546 O   0  0  0  0  0  0  0  0  0  0  0  0
   12.5065  -14.1474   27.8610 C   0  0  0  0  0  0  0  0  0  0  0  0
   11.1526  -14.8197   27.8245 C   0  0  1  0  0  0  0  0  0  0  0  0
   10.1592  -13.7794   28.3681 C   0  0  0  0  0  0  0  0  0  0  0  0
   10.7022  -15.1535   26.4456 C   0  0  0  0  0  0  0  0  0  0  0  0
   11.2840  -16.3873   25.8440 C   0  0  2  0  0  0  0  0  0  0  0  0
   10.6214  -16.5859   24.5531 N   0  0  0  0  0  0  0  0  0  0  0  0
   11.1415  -17.5699   26.7081 C   0  0  0  0  0  0  0  0  0  0  0  0
    9.8934  -18.0861   26.9657 O   0  0  0  0  0  0  0  0  0  0  0  0
   12.1456  -18.1042   27.2063 O   0  0  0  0  0  0  0  0  0  0  0  0
  2  1  1  1
  3  2  1  0
  3  4  1  0
  4  9  1  0
  5  4  2  0
  5  6  1  0
  6  7  2  0
  7  8  1  0
  9  8  2  0
 10 11  2  0
 10  2  1  0
 12 10  1  0
 13 12  1  0
 14 13  1  0
 15 14  1  0
 15 16  1  0
 16 12  1  0
 16 17  1  1
 18 17  2  0
 20 19  1  6
 20 21  1  0
 22 20  1  0
 23 22  1  1
 23 24  1  0
 24 17  1  0
 25 23  1  0
 26 25  1  0
 27 25  2  0
M  END
$$$$
