FPL.pdb
     RDKit          3D

 27 28  0  0  1  0  0  0  0  0999 V2000
    5.7879  -17.3276   25.2819 N   0  0  0  0  0  0  0  0  0  0  0  0
    6.2944  -16.8978   23.9851 C   0  0  1  0  0  0  0  0  0  0  0  0
    5.6575  -15.5430   23.7385 C   0  0  0  0  0  0  0  0  0  0  0  0
    6.2572  -14.6028   24.7114 C   0  0  0  0  0  0  0  0  0  0  0  0
    7.2323  -13.6937   24.3662 C   0  0  0  0  0  0  0  0  0  0  0  0
    7.7614  -12.8318   25.3251 C   0  0  0  0  0  0  0  0  0  0  0  0
    7.3270  -12.8684   26.6241 C   0  0  0  0  0  0  0  0  0  0  0  0
    6.3582  -13.7681   26.9778 C   0  0  0  0  0  0  0  0  0  0  0  0
    5.8415  -14.6158   26.0230 C   0  0  0  0  0  0  0  0  0  0  0  0
    7.8000  -16.7782   23.9948 C   0  0  0  0  0  0  0  0  0  0  0  0
    8.3190  -17.2590   25.0479 O   0  0  0  0  0  0  0  0  0  0  0  0
    8.5016  -16.1927   22.9336 N   0  0  0  0  0  0  0  0  0  0  0  0
    7.8248  -15.8658   21.6511 C   0  0  0  0  0  0  0  0  0  0  0  0
    8.2155  -14.4138   21.5375 C   0  0  0  0  0  0  0  0  0  0  0  0
    9.5475  -14.2882   22.2903 C   0  0  0  0  0  0  0  0  0  0  0  0
    9.8160  -15.7450   22.6578 C   0  0  1  0  0  0  0  0  0  0  0  0
   10.8589  -15.9110   23.6318 C   0  0  0  0  0  0  0  0  0  0  0  0
   11.9896  -15.4170   23.5201 O   0  0  0  0  0  0  0  0  0  0  0  0
   11.3817  -13.5602   27.9810 C   0  0  0  0  0  0  0  0  0  0  0  0
   10.2114  -14.5066   27.8358 C   0  0  1  0  0  0  0  0  0  0  0  0
    8.9558  -13.6519   28.0760 C   0  0  0  0  0  0  0  0  0  0  0  0
   10.0821  -15.0709   26.4646 C   0  0  0  0  0  0  0  0  0  0  0  0
   10.9888  -16.2068   26.1324 C   0  0  2  0  0  0  0  0  0  0  0  0
   10.6102  -16.6790   24.7986 N   0  0  0  0  0  0  0  0  0  0  0  0
   10.9338  -17.2942   27.1224 C   0  0  0  0  0  0  0  0  0  0  0  0
   10.1838  -18.4180   26.8674 O   0  0  0  0  0  0  0  0  0  0  0  0
   11.5630  -17.2004   28.1888 O   0  0  0  0  0  0  0  0  0  0  0  0
  2  1  1  1
  3  2  1  0
  3  4  1  0
  4  9  1  0
  5  4  2  0
  5  6  1  0
  6  7  2  0
  7  8  1  0
  9  8  2  0
 10 11  2  0
 10  2  1  0
 12 10  1  0
 13 12  1  0
 14 13  1  0
 15 14  1  0
 15 16  1  0
 16 12  1  0
 16 17  1  1
 18 17  2  0
 20 19  1  6
 20 21  1  0
 22 20  1  0
 23 22  1  1
 23 24  1  0
 24 17  1  0
 25 23  1  0
 26 25  1  0
 27 25  2  0
M  END
$$$$
