FPL.pdb
     RDKit          3D

 27 28  0  0  1  0  0  0  0  0999 V2000
    8.5494  -17.9416   19.1568 N   0  0  0  0  0  0  0  0  0  0  0  0
    8.7327  -16.5313   19.4734 C   0  0  1  0  0  0  0  0  0  0  0  0
    7.4151  -15.8691   19.1168 C   0  0  0  0  0  0  0  0  0  0  0  0
    7.4572  -14.4995   19.6759 C   0  0  0  0  0  0  0  0  0  0  0  0
    6.8101  -14.1489   20.8399 C   0  0  0  0  0  0  0  0  0  0  0  0
    6.8846  -12.8427   21.3200 C   0  0  0  0  0  0  0  0  0  0  0  0
    7.5981  -11.8837   20.6501 C   0  0  0  0  0  0  0  0  0  0  0  0
    8.2450  -12.2215   19.4922 C   0  0  0  0  0  0  0  0  0  0  0  0
    8.1655  -13.5151   19.0258 C   0  0  0  0  0  0  0  0  0  0  0  0
    9.0430  -16.3321   20.9381 C   0  0  0  0  0  0  0  0  0  0  0  0
    9.5840  -15.2087   21.1719 O   0  0  0  0  0  0  0  0  0  0  0  0
    8.7467  -17.3099   21.8957 N   0  0  0  0  0  0  0  0  0  0  0  0
    8.0246  -18.5555   21.5258 C   0  0  0  0  0  0  0  0  0  0  0  0
    8.9890  -19.5680   22.0901 C   0  0  0  0  0  0  0  0  0  0  0  0
    9.6952  -18.8570   23.2530 C   0  0  0  0  0  0  0  0  0  0  0  0
    8.9491  -17.5258   23.2802 C   0  0  1  0  0  0  0  0  0  0  0  0
    9.5889  -16.5228   24.0855 C   0  0  0  0  0  0  0  0  0  0  0  0
   10.7373  -16.1054   23.8808 O   0  0  0  0  0  0  0  0  0  0  0  0
    7.1421  -12.2044   26.9541 C   0  0  0  0  0  0  0  0  0  0  0  0
    7.4600  -13.5756   26.4017 C   0  0  1  0  0  0  0  0  0  0  0  0
    6.5304  -13.7595   25.1906 C   0  0  0  0  0  0  0  0  0  0  0  0
    8.8519  -13.6906   25.8868 C   0  0  0  0  0  0  0  0  0  0  0  0
    9.5248  -15.0042   26.0973 C   0  0  2  0  0  0  0  0  0  0  0  0
    8.8914  -15.9591   25.1851 N   0  0  0  0  0  0  0  0  0  0  0  0
    9.4561  -15.4678   27.4922 C   0  0  0  0  0  0  0  0  0  0  0  0
   10.2145  -14.8512   28.4592 O   0  0  0  0  0  0  0  0  0  0  0  0
    8.7146  -16.4151   27.7998 O   0  0  0  0  0  0  0  0  0  0  0  0
  2  1  1  1
  3  2  1  0
  3  4  1  0
  4  9  1  0
  5  4  2  0
  5  6  1  0
  6  7  2  0
  7  8  1  0
  9  8  2  0
 10 11  2  0
 10  2  1  0
 12 10  1  0
 13 12  1  0
 14 13  1  0
 15 14  1  0
 15 16  1  0
 16 12  1  0
 16 17  1  6
 18 17  2  0
 20 19  1  6
 20 21  1  0
 22 20  1  0
 23 22  1  1
 23 24  1  0
 24 17  1  0
 25 23  1  0
 26 25  1  0
 27 25  2  0
M  END
$$$$
