FPL.pdb
     RDKit          3D

 27 28  0  0  1  0  0  0  0  0999 V2000
    5.5766  -17.8635   24.4540 N   0  0  0  0  0  0  0  0  0  0  0  0
    6.2181  -16.5631   24.5970 C   0  0  1  0  0  0  0  0  0  0  0  0
    6.1150  -16.2290   26.0734 C   0  0  0  0  0  0  0  0  0  0  0  0
    5.9716  -14.7594   26.1724 C   0  0  0  0  0  0  0  0  0  0  0  0
    7.0338  -13.9222   26.4317 C   0  0  0  0  0  0  0  0  0  0  0  0
    6.8398  -12.5446   26.5140 C   0  0  0  0  0  0  0  0  0  0  0  0
    5.5968  -11.9949   26.3400 C   0  0  0  0  0  0  0  0  0  0  0  0
    4.5342  -12.8180   26.0819 C   0  0  0  0  0  0  0  0  0  0  0  0
    4.7360  -14.1782   26.0025 C   0  0  0  0  0  0  0  0  0  0  0  0
    7.6654  -16.6136   24.1681 C   0  0  0  0  0  0  0  0  0  0  0  0
    8.3313  -17.4847   24.8063 O   0  0  0  0  0  0  0  0  0  0  0  0
    8.1702  -15.7706   23.1703 N   0  0  0  0  0  0  0  0  0  0  0  0
    7.2627  -15.0598   22.2317 C   0  0  0  0  0  0  0  0  0  0  0  0
    7.7687  -13.6531   22.4287 C   0  0  0  0  0  0  0  0  0  0  0  0
    9.2406  -13.8011   22.8387 C   0  0  0  0  0  0  0  0  0  0  0  0
    9.4296  -15.3105   22.7159 C   0  0  1  0  0  0  0  0  0  0  0  0
   10.6401  -15.7911   23.3223 C   0  0  0  0  0  0  0  0  0  0  0  0
   11.7732  -15.5422   22.8876 O   0  0  0  0  0  0  0  0  0  0  0  0
   12.9059  -13.3497   27.1789 C   0  0  0  0  0  0  0  0  0  0  0  0
   12.3522  -14.7558   27.2297 C   0  0  1  0  0  0  0  0  0  0  0  0
   11.4563  -14.8029   28.4786 C   0  0  0  0  0  0  0  0  0  0  0  0
   11.4778  -15.0824   26.0702 C   0  0  0  0  0  0  0  0  0  0  0  0
   11.5432  -16.4859   25.5715 C   0  0  2  0  0  0  0  0  0  0  0  0
   10.5662  -16.5991   24.4863 N   0  0  0  0  0  0  0  0  0  0  0  0
   11.2930  -17.4822   26.6253 C   0  0  0  0  0  0  0  0  0  0  0  0
   10.0639  -18.0918   26.7163 O   0  0  0  0  0  0  0  0  0  0  0  0
   12.1888  -17.7748   27.4337 O   0  0  0  0  0  0  0  0  0  0  0  0
  2  1  1  1
  3  2  1  0
  3  4  1  0
  4  9  1  0
  5  4  2  0
  5  6  1  0
  6  7  2  0
  7  8  1  0
  9  8  2  0
 10 11  2  0
 10  2  1  0
 12 10  1  0
 13 12  1  0
 14 13  1  0
 15 14  1  0
 15 16  1  0
 16 12  1  0
 16 17  1  1
 18 17  2  0
 20 19  1  6
 20 21  1  0
 22 20  1  0
 23 22  1  1
 23 24  1  0
 24 17  1  0
 25 23  1  0
 26 25  1  0
 27 25  2  0
M  END
$$$$
