DRD.pdb
     RDKit          3D

 28 27  0  0  1  0  0  0  0  0999 V2000
   25.6153  -20.5143  -15.9931 N   0  0  0  0  0  0  0  0  0  0  0  0
   24.8867  -19.5583  -15.1166 C   0  0  1  0  0  0  0  0  0  0  0  0
   24.8196  -18.2181  -15.7166 C   0  0  0  0  0  0  0  0  0  0  0  0
   24.1585  -18.2490  -17.0474 C   0  0  0  0  0  0  0  0  0  0  0  0
   24.6450  -18.8717  -18.0143 O   0  0  0  0  0  0  0  0  0  0  0  0
   23.5973  -20.2437  -14.8549 C   0  0  0  0  0  0  0  0  0  0  0  0
   23.2056  -21.1667  -15.6747 O   0  0  0  0  0  0  0  0  0  0  0  0
   22.9506  -17.5677  -17.2707 O   0  0  0  0  0  0  0  0  0  0  0  0
   17.8511  -23.5218   -9.0556 N   0  0  0  0  0  0  0  0  0  0  0  0
   19.0748  -23.5258   -9.7832 C   0  0  0  0  0  0  0  0  0  0  0  0
   19.4483  -24.5533  -10.4577 N   0  0  0  0  0  0  0  0  0  0  0  0
   19.9155  -22.3713   -9.7717 N   0  0  0  0  0  0  0  0  0  0  0  0
   19.5073  -21.1218  -10.3799 C   0  0  0  0  0  0  0  0  0  0  0  0
   19.6785  -21.1543  -11.8953 C   0  0  0  0  0  0  0  0  0  0  0  0
   21.0070  -20.5914  -12.2620 C   0  0  0  0  0  0  0  0  0  0  0  0
   21.3926  -20.6993  -13.7174 C   0  0  2  0  0  0  0  0  0  0  0  0
   22.7059  -20.0122  -13.7942 N   0  0  0  0  0  0  0  0  0  0  0  0
   20.4088  -20.0193  -14.5577 C   0  0  0  0  0  0  0  0  0  0  0  0
   20.3354  -18.7354  -14.4899 O   0  0  0  0  0  0  0  0  0  0  0  0
   20.3551  -24.5604  -10.9516 N   0  0  0  0  0  0  0  0  0  0  0  0
   19.5018  -20.5960  -15.4690 C   0  0  2  0  0  0  0  0  0  0  0  0
   18.6224  -19.8039  -16.3107 C   0  0  0  0  0  0  0  0  0  0  0  0
   18.4597  -20.4215  -17.6889 C   0  0  0  0  0  0  0  0  0  0  0  0
   19.7138  -20.3860  -18.4813 O   0  0  0  0  0  0  0  0  0  0  0  0
   20.7741  -19.8457  -18.0634 C   0  0  0  0  0  0  0  0  0  0  0  0
   17.2887  -19.7539  -15.7084 O   0  0  0  0  0  0  0  0  0  0  0  0
   16.3758  -19.0564  -16.2023 O   0  0  0  0  0  0  0  0  0  0  0  0
   19.7846  -20.9628  -19.7579 O   0  0  0  0  0  0  0  0  0  0  0  0
  2  1  1  6
  2  3  1  0
  3  4  1  0
  4  8  1  0
  4  5  2  0
  6  7  2  0
  6  2  1  0
  9 10  1  0
 10 11  2  0
 12 10  1  0
 12 13  1  0
 13 14  1  0
 14 15  1  0
 16 15  1  1
 16 17  1  0
 17  6  1  0
 18 20  1  0
 18 16  1  0
 19 18  2  0
 21 25  1  0
 21 20  1  0
 22 23  1  0
 21 22  1  1
 23 24  2  0
 25 28  1  0
 26 25  2  0
 27 23  1  0
M  END
$$$$
