DRD.pdb
     RDKit          3D

 28 27  0  0  1  0  0  0  0  0999 V2000
   18.9311  -14.5263  -15.0699 N   0  0  0  0  0  0  0  0  0  0  0  0
   18.6883  -14.1064  -16.4763 C   0  0  1  0  0  0  0  0  0  0  0  0
   17.9505  -15.1324  -17.2271 C   0  0  0  0  0  0  0  0  0  0  0  0
   18.6621  -16.4371  -17.2111 C   0  0  0  0  0  0  0  0  0  0  0  0
   19.9058  -16.5143  -17.2940 O   0  0  0  0  0  0  0  0  0  0  0  0
   18.0394  -12.7801  -16.3336 C   0  0  0  0  0  0  0  0  0  0  0  0
   17.8244  -12.0747  -17.3983 O   0  0  0  0  0  0  0  0  0  0  0  0
   17.9541  -17.6457  -17.1053 O   0  0  0  0  0  0  0  0  0  0  0  0
   11.4653  -12.2011  -11.6891 N   0  0  0  0  0  0  0  0  0  0  0  0
   11.6700  -11.2491  -12.7277 C   0  0  0  0  0  0  0  0  0  0  0  0
   10.8466  -10.2819  -12.9200 N   0  0  0  0  0  0  0  0  0  0  0  0
   12.8091  -11.3590  -13.5821 N   0  0  0  0  0  0  0  0  0  0  0  0
   13.8224  -12.3737  -13.3790 C   0  0  0  0  0  0  0  0  0  0  0  0
   14.9188  -12.2898  -14.4362 C   0  0  0  0  0  0  0  0  0  0  0  0
   15.7417  -11.0701  -14.2096 C   0  0  0  0  0  0  0  0  0  0  0  0
   16.8935  -10.8622  -15.1629 C   0  0  2  0  0  0  0  0  0  0  0  0
   17.6131  -12.1602  -15.1474 N   0  0  0  0  0  0  0  0  0  0  0  0
   17.7631   -9.7886  -14.6859 C   0  0  0  0  0  0  0  0  0  0  0  0
   18.3726   -9.9534  -13.5636 O   0  0  0  0  0  0  0  0  0  0  0  0
   10.9790   -9.6228  -13.7036 N   0  0  0  0  0  0  0  0  0  0  0  0
   18.0409   -8.5567  -15.3112 C   0  0  1  0  0  0  0  0  0  0  0  0
   18.8819   -7.5394  -14.7053 C   0  0  0  0  0  0  0  0  0  0  0  0
   20.3084   -7.6107  -15.2222 C   0  0  0  0  0  0  0  0  0  0  0  0
   21.1489   -6.4902  -14.7325 O   0  0  0  0  0  0  0  0  0  0  0  0
   20.9123   -5.8740  -13.6579 C   0  0  0  0  0  0  0  0  0  0  0  0
   18.3695   -6.2134  -15.0561 O   0  0  0  0  0  0  0  0  0  0  0  0
   17.6353   -6.0407  -16.0536 O   0  0  0  0  0  0  0  0  0  0  0  0
   22.2700   -6.0525  -15.4531 O   0  0  0  0  0  0  0  0  0  0  0  0
  2  1  1  1
  2  3  1  0
  3  4  1  0
  4  8  1  0
  4  5  2  0
  6  7  2  0
  6  2  1  0
  9 10  1  0
 10 11  2  0
 12 10  1  0
 12 13  1  0
 13 14  1  0
 14 15  1  0
 16 15  1  1
 16 17  1  0
 17  6  1  0
 18 20  1  0
 18 16  1  0
 19 18  2  0
 21 25  1  0
 21 20  1  0
 22 23  1  0
 21 22  1  6
 23 24  2  0
 25 28  1  0
 26 25  2  0
 27 23  1  0
M  END
$$$$
