DRD.pdb
     RDKit          3D

 28 27  0  0  1  0  0  0  0  0999 V2000
   17.2319  -10.4935  -13.8499 N   0  0  0  0  0  0  0  0  0  0  0  0
   17.5709   -9.6925  -15.0568 C   0  0  1  0  0  0  0  0  0  0  0  0
   16.6125   -8.5977  -15.2658 C   0  0  0  0  0  0  0  0  0  0  0  0
   15.2765   -9.1116  -15.6656 C   0  0  0  0  0  0  0  0  0  0  0  0
   15.1416  -10.1629  -16.3259 O   0  0  0  0  0  0  0  0  0  0  0  0
   18.9874   -9.3131  -14.8327 C   0  0  0  0  0  0  0  0  0  0  0  0
   19.3374   -8.8763  -13.6647 O   0  0  0  0  0  0  0  0  0  0  0  0
   14.1028   -8.4238  -15.3153 O   0  0  0  0  0  0  0  0  0  0  0  0
   26.4117  -12.1648  -15.2644 N   0  0  0  0  0  0  0  0  0  0  0  0
   26.9041  -11.0319  -15.9721 C   0  0  0  0  0  0  0  0  0  0  0  0
   28.1454  -10.7040  -15.9285 N   0  0  0  0  0  0  0  0  0  0  0  0
   26.0115  -10.2334  -16.7502 N   0  0  0  0  0  0  0  0  0  0  0  0
   24.5916  -10.5124  -16.8117 C   0  0  0  0  0  0  0  0  0  0  0  0
   23.7810   -9.4592  -16.0631 C   0  0  0  0  0  0  0  0  0  0  0  0
   22.3292   -9.7671  -16.1801 C   0  0  0  0  0  0  0  0  0  0  0  0
   21.3957   -8.8525  -15.4247 C   0  0  2  0  0  0  0  0  0  0  0  0
   20.0426   -9.3630  -15.7587 N   0  0  0  0  0  0  0  0  0  0  0  0
   21.5505   -7.4735  -15.8836 C   0  0  0  0  0  0  0  0  0  0  0  0
   21.2243   -7.1968  -17.0982 O   0  0  0  0  0  0  0  0  0  0  0  0
   28.4945   -9.8849  -16.4514 N   0  0  0  0  0  0  0  0  0  0  0  0
   22.0184   -6.3643  -15.1511 C   0  0  2  0  0  0  0  0  0  0  0  0
   22.1916   -5.0487  -15.7413 C   0  0  0  0  0  0  0  0  0  0  0  0
   22.0191   -3.9454  -14.7116 C   0  0  0  0  0  0  0  0  0  0  0  0
   20.5951   -3.6932  -14.3793 O   0  0  0  0  0  0  0  0  0  0  0  0
   20.2337   -2.9081  -13.4607 C   0  0  0  0  0  0  0  0  0  0  0  0
   23.5524   -4.9279  -16.2682 O   0  0  0  0  0  0  0  0  0  0  0  0
   23.8608   -4.0257  -17.0774 O   0  0  0  0  0  0  0  0  0  0  0  0
   19.5603   -4.3261  -15.0837 O   0  0  0  0  0  0  0  0  0  0  0  0
  2  1  1  1
  2  3  1  0
  3  4  1  0
  4  8  1  0
  4  5  2  0
  6  7  2  0
  6  2  1  0
  9 10  1  0
 10 11  2  0
 12 10  1  0
 12 13  1  0
 13 14  1  0
 14 15  1  0
 16 15  1  6
 16 17  1  0
 17  6  1  0
 18 20  1  0
 18 16  1  0
 19 18  2  0
 21 25  1  0
 21 20  1  0
 22 23  1  0
 21 22  1  1
 23 24  2  0
 25 28  1  0
 26 25  2  0
 27 23  1  0
M  END
$$$$
