DRD.pdb
     RDKit          3D

 28 27  0  0  1  0  0  0  0  0999 V2000
   27.2490  -20.5718  -18.6725 N   0  0  0  0  0  0  0  0  0  0  0  0
   26.9159  -19.4659  -17.7348 C   0  0  1  0  0  0  0  0  0  0  0  0
   26.3494  -18.3090  -18.4429 C   0  0  0  0  0  0  0  0  0  0  0  0
   27.3709  -17.6293  -19.2816 C   0  0  0  0  0  0  0  0  0  0  0  0
   28.5669  -17.5469  -18.9319 O   0  0  0  0  0  0  0  0  0  0  0  0
   26.0550  -20.1212  -16.7199 C   0  0  0  0  0  0  0  0  0  0  0  0
   25.1388  -20.9450  -17.1194 O   0  0  0  0  0  0  0  0  0  0  0  0
   27.0244  -17.0442  -20.5107 O   0  0  0  0  0  0  0  0  0  0  0  0
   26.5141  -20.3874   -7.8667 N   0  0  0  0  0  0  0  0  0  0  0  0
   25.2037  -20.8822   -8.1218 C   0  0  0  0  0  0  0  0  0  0  0  0
   24.4166  -21.2158   -7.1629 N   0  0  0  0  0  0  0  0  0  0  0  0
   24.7410  -21.0169   -9.4662 N   0  0  0  0  0  0  0  0  0  0  0  0
   25.5515  -20.6165  -10.5978 C   0  0  0  0  0  0  0  0  0  0  0  0
   24.8476  -20.9034  -11.9203 C   0  0  0  0  0  0  0  0  0  0  0  0
   25.6997  -20.4453  -13.0517 C   0  0  0  0  0  0  0  0  0  0  0  0
   25.1125  -20.6116  -14.4323 C   0  0  2  0  0  0  0  0  0  0  0  0
   26.1007  -19.9572  -15.3256 N   0  0  0  0  0  0  0  0  0  0  0  0
   23.8179  -19.9388  -14.5205 C   0  0  0  0  0  0  0  0  0  0  0  0
   23.8061  -18.6566  -14.6390 O   0  0  0  0  0  0  0  0  0  0  0  0
   23.4442  -21.5059   -7.3538 N   0  0  0  0  0  0  0  0  0  0  0  0
   22.5354  -20.5223  -14.4994 C   0  0  1  0  0  0  0  0  0  0  0  0
   21.3147  -19.7415  -14.5973 C   0  0  0  0  0  0  0  0  0  0  0  0
   20.8569  -19.5955  -16.0383 C   0  0  0  0  0  0  0  0  0  0  0  0
   19.5936  -18.8267  -16.1600 O   0  0  0  0  0  0  0  0  0  0  0  0
   19.4190  -17.7033  -15.6139 C   0  0  0  0  0  0  0  0  0  0  0  0
   20.2398  -20.4284  -13.8784 O   0  0  0  0  0  0  0  0  0  0  0  0
   20.1900  -21.6765  -13.8168 O   0  0  0  0  0  0  0  0  0  0  0  0
   18.5106  -19.3193  -16.9029 O   0  0  0  0  0  0  0  0  0  0  0  0
  2  1  1  6
  2  3  1  0
  3  4  1  0
  4  8  1  0
  4  5  2  0
  6  7  2  0
  6  2  1  0
  9 10  1  0
 10 11  2  0
 12 10  1  0
 12 13  1  0
 13 14  1  0
 14 15  1  0
 16 15  1  1
 16 17  1  0
 17  6  1  0
 18 20  1  0
 18 16  1  0
 19 18  2  0
 21 25  1  0
 21 20  1  0
 22 23  1  0
 21 22  1  6
 23 24  2  0
 25 28  1  0
 26 25  2  0
 27 23  1  0
M  END
$$$$
