DRD.pdb
     RDKit          3D

 28 27  0  0  1  0  0  0  0  0999 V2000
   26.5411  -22.6059  -17.2284 N   0  0  0  0  0  0  0  0  0  0  0  0
   27.5610  -21.6076  -16.8084 C   0  0  1  0  0  0  0  0  0  0  0  0
   28.2685  -21.0385  -17.9644 C   0  0  0  0  0  0  0  0  0  0  0  0
   29.2670  -21.9914  -18.5157 C   0  0  0  0  0  0  0  0  0  0  0  0
   29.3783  -23.1578  -18.0836 O   0  0  0  0  0  0  0  0  0  0  0  0
   26.7922  -20.6649  -15.9593 C   0  0  0  0  0  0  0  0  0  0  0  0
   27.3847  -19.6023  -15.5153 O   0  0  0  0  0  0  0  0  0  0  0  0
   30.1351  -21.6100  -19.5521 O   0  0  0  0  0  0  0  0  0  0  0  0
   21.3268  -18.4843  -19.5332 N   0  0  0  0  0  0  0  0  0  0  0  0
   21.1413  -19.5613  -18.6209 C   0  0  0  0  0  0  0  0  0  0  0  0
   20.6375  -20.6803  -19.0009 N   0  0  0  0  0  0  0  0  0  0  0  0
   21.5175  -19.4093  -17.2515 N   0  0  0  0  0  0  0  0  0  0  0  0
   22.0720  -18.1715  -16.7435 C   0  0  0  0  0  0  0  0  0  0  0  0
   23.4873  -18.3692  -16.2100 C   0  0  0  0  0  0  0  0  0  0  0  0
   23.5019  -19.4896  -15.2299 C   0  0  0  0  0  0  0  0  0  0  0  0
   24.8405  -19.8093  -14.6098 C   0  0  2  0  0  0  0  0  0  0  0  0
   25.4524  -20.7784  -15.5528 N   0  0  0  0  0  0  0  0  0  0  0  0
   24.6605  -20.4190  -13.2937 C   0  0  0  0  0  0  0  0  0  0  0  0
   24.1965  -21.6189  -13.2380 O   0  0  0  0  0  0  0  0  0  0  0  0
   20.5432  -21.4689  -18.3410 N   0  0  0  0  0  0  0  0  0  0  0  0
   24.9414  -19.8560  -12.0327 C   0  0  1  0  0  0  0  0  0  0  0  0
   24.7086  -20.5640  -10.7862 C   0  0  0  0  0  0  0  0  0  0  0  0
   25.4908  -19.9496   -9.6382 C   0  0  0  0  0  0  0  0  0  0  0  0
   25.3062  -20.6865   -8.3636 O   0  0  0  0  0  0  0  0  0  0  0  0
   24.5857  -21.7170   -8.2653 C   0  0  0  0  0  0  0  0  0  0  0  0
   23.2910  -20.4700  -10.4316 O   0  0  0  0  0  0  0  0  0  0  0  0
   22.5605  -19.5683  -10.8977 O   0  0  0  0  0  0  0  0  0  0  0  0
   25.9359  -20.2669   -7.1825 O   0  0  0  0  0  0  0  0  0  0  0  0
  2  1  1  6
  2  3  1  0
  3  4  1  0
  4  8  1  0
  4  5  2  0
  6  7  2  0
  6  2  1  0
  9 10  1  0
 10 11  2  0
 12 10  1  0
 12 13  1  0
 13 14  1  0
 14 15  1  0
 16 15  1  6
 16 17  1  0
 17  6  1  0
 18 20  1  0
 18 16  1  0
 19 18  2  0
 21 25  1  0
 21 20  1  0
 22 23  1  0
 21 22  1  1
 23 24  2  0
 25 28  1  0
 26 25  2  0
 27 23  1  0
M  END
$$$$
