DRD.pdb
     RDKit          3D

 28 27  0  0  1  0  0  0  0  0999 V2000
   18.2050  -25.2782  -13.4045 N   0  0  0  0  0  0  0  0  0  0  0  0
   18.0471  -24.3201  -14.5316 C   0  0  1  0  0  0  0  0  0  0  0  0
   16.6476  -24.2288  -14.9716 C   0  0  0  0  0  0  0  0  0  0  0  0
   16.3394  -25.2347  -16.0214 C   0  0  0  0  0  0  0  0  0  0  0  0
   15.1836  -25.6726  -16.2003 O   0  0  0  0  0  0  0  0  0  0  0  0
   18.6735  -23.0771  -14.0184 C   0  0  0  0  0  0  0  0  0  0  0  0
   18.7011  -22.8764  -12.7392 O   0  0  0  0  0  0  0  0  0  0  0  0
   17.3487  -25.7390  -16.8582 O   0  0  0  0  0  0  0  0  0  0  0  0
   26.1357  -22.5070  -11.5899 N   0  0  0  0  0  0  0  0  0  0  0  0
   25.5476  -21.3132  -11.0843 C   0  0  0  0  0  0  0  0  0  0  0  0
   26.0218  -20.7215  -10.0473 N   0  0  0  0  0  0  0  0  0  0  0  0
   24.4059  -20.7503  -11.7320 N   0  0  0  0  0  0  0  0  0  0  0  0
   23.3968  -21.5783  -12.3595 C   0  0  0  0  0  0  0  0  0  0  0  0
   22.2358  -20.7422  -12.8884 C   0  0  0  0  0  0  0  0  0  0  0  0
   21.2309  -21.6309  -13.5338 C   0  0  0  0  0  0  0  0  0  0  0  0
   20.0187  -20.9457  -14.1165 C   0  0  2  0  0  0  0  0  0  0  0  0
   19.2617  -22.0441  -14.7670 N   0  0  0  0  0  0  0  0  0  0  0  0
   20.4228  -19.9470  -15.1043 C   0  0  0  0  0  0  0  0  0  0  0  0
   21.0446  -20.3506  -16.1573 O   0  0  0  0  0  0  0  0  0  0  0  0
   25.6149  -19.8332   -9.7132 N   0  0  0  0  0  0  0  0  0  0  0  0
   20.2119  -18.5543  -15.0641 C   0  0  2  0  0  0  0  0  0  0  0  0
   20.5713  -17.6727  -16.1608 C   0  0  0  0  0  0  0  0  0  0  0  0
   19.9522  -16.2951  -15.9985 C   0  0  0  0  0  0  0  0  0  0  0  0
   20.2251  -15.4074  -17.1557 O   0  0  0  0  0  0  0  0  0  0  0  0
   20.8853  -15.7785  -18.1642 C   0  0  0  0  0  0  0  0  0  0  0  0
   22.0235  -17.4855  -16.1777 O   0  0  0  0  0  0  0  0  0  0  0  0
   22.7182  -17.6806  -15.1563 O   0  0  0  0  0  0  0  0  0  0  0  0
   19.7530  -14.0869  -17.1872 O   0  0  0  0  0  0  0  0  0  0  0  0
  2  1  1  1
  2  3  1  0
  3  4  1  0
  4  8  1  0
  4  5  2  0
  6  7  2  0
  6  2  1  0
  9 10  1  0
 10 11  2  0
 12 10  1  0
 12 13  1  0
 13 14  1  0
 14 15  1  0
 16 15  1  6
 16 17  1  0
 17  6  1  0
 18 20  1  0
 18 16  1  0
 19 18  2  0
 21 25  1  0
 21 20  1  0
 22 23  1  0
 21 22  1  1
 23 24  2  0
 25 28  1  0
 26 25  2  0
 27 23  1  0
M  END
$$$$
