DRD.pdb
     RDKit          3D

 28 27  0  0  1  0  0  0  0  0999 V2000
   23.6161  -18.6567  -16.3888 N   0  0  0  0  0  0  0  0  0  0  0  0
   24.7482  -19.4841  -15.8918 C   0  0  1  0  0  0  0  0  0  0  0  0
   25.9235  -18.6593  -15.5775 C   0  0  0  0  0  0  0  0  0  0  0  0
   26.0554  -17.5168  -16.5190 C   0  0  0  0  0  0  0  0  0  0  0  0
   25.2678  -17.3511  -17.4738 O   0  0  0  0  0  0  0  0  0  0  0  0
   24.1485  -20.2543  -14.7748 C   0  0  0  0  0  0  0  0  0  0  0  0
   23.4965  -21.3399  -15.0468 O   0  0  0  0  0  0  0  0  0  0  0  0
   27.0848  -16.5727  -16.3705 O   0  0  0  0  0  0  0  0  0  0  0  0
   29.3192  -21.6463  -10.5313 N   0  0  0  0  0  0  0  0  0  0  0  0
   28.9275  -21.2874  -11.8522 C   0  0  0  0  0  0  0  0  0  0  0  0
   29.4288  -21.8722  -12.8803 N   0  0  0  0  0  0  0  0  0  0  0  0
   27.9592  -20.2573  -12.0542 N   0  0  0  0  0  0  0  0  0  0  0  0
   26.8549  -20.0554  -11.1391 C   0  0  0  0  0  0  0  0  0  0  0  0
   25.8398  -21.1905  -11.2272 C   0  0  0  0  0  0  0  0  0  0  0  0
   24.4600  -20.6354  -11.1629 C   0  0  0  0  0  0  0  0  0  0  0  0
   23.6019  -20.8514  -12.3859 C   0  0  2  0  0  0  0  0  0  0  0  0
   24.1923  -19.9479  -13.4046 N   0  0  0  0  0  0  0  0  0  0  0  0
   22.2165  -20.4763  -12.1097 C   0  0  0  0  0  0  0  0  0  0  0  0
   21.9319  -19.2235  -12.0219 O   0  0  0  0  0  0  0  0  0  0  0  0
   29.1849  -21.5638  -13.8351 N   0  0  0  0  0  0  0  0  0  0  0  0
   21.1087  -21.3278  -11.9264 C   0  0  2  0  0  0  0  0  0  0  0  0
   19.7465  -20.9207  -12.2229 C   0  0  0  0  0  0  0  0  0  0  0  0
   19.6083  -20.4242  -13.6518 C   0  0  0  0  0  0  0  0  0  0  0  0
   18.2089  -20.0768  -14.0018 O   0  0  0  0  0  0  0  0  0  0  0  0
   17.3126  -19.8850  -13.1355 C   0  0  0  0  0  0  0  0  0  0  0  0
   18.8543  -22.0737  -12.0864 O   0  0  0  0  0  0  0  0  0  0  0  0
   19.2699  -23.2424  -12.2454 O   0  0  0  0  0  0  0  0  0  0  0  0
   17.8053  -19.9410  -15.3383 O   0  0  0  0  0  0  0  0  0  0  0  0
  2  1  1  1
  2  3  1  0
  3  4  1  0
  4  8  1  0
  4  5  2  0
  6  7  2  0
  6  2  1  0
  9 10  1  0
 10 11  2  0
 12 10  1  0
 12 13  1  0
 13 14  1  0
 14 15  1  0
 16 15  1  1
 16 17  1  0
 17  6  1  0
 18 20  1  0
 18 16  1  0
 19 18  2  0
 21 25  1  0
 21 20  1  0
 22 23  1  0
 21 22  1  1
 23 24  2  0
 25 28  1  0
 26 25  2  0
 27 23  1  0
M  END
$$$$
