DRD.pdb
     RDKit          3D

 28 27  0  0  1  0  0  0  0  0999 V2000
   27.4276  -21.4773  -11.3180 N   0  0  0  0  0  0  0  0  0  0  0  0
   26.0466  -21.0454  -10.9723 C   0  0  1  0  0  0  0  0  0  0  0  0
   26.0465  -20.0471   -9.8934 C   0  0  0  0  0  0  0  0  0  0  0  0
   26.4072  -20.6564   -8.5866 C   0  0  0  0  0  0  0  0  0  0  0  0
   26.6816  -21.8696   -8.4747 O   0  0  0  0  0  0  0  0  0  0  0  0
   25.4793  -20.6260  -12.2772 C   0  0  0  0  0  0  0  0  0  0  0  0
   26.2814  -20.1739  -13.1881 O   0  0  0  0  0  0  0  0  0  0  0  0
   26.4492  -19.8826   -7.4150 O   0  0  0  0  0  0  0  0  0  0  0  0
   26.2423  -25.4573  -17.3770 N   0  0  0  0  0  0  0  0  0  0  0  0
   24.9854  -25.7132  -16.7594 C   0  0  0  0  0  0  0  0  0  0  0  0
   24.3577  -26.8172  -16.9530 N   0  0  0  0  0  0  0  0  0  0  0  0
   24.3971  -24.7315  -15.9050 N   0  0  0  0  0  0  0  0  0  0  0  0
   25.0951  -23.5150  -15.5437 C   0  0  0  0  0  0  0  0  0  0  0  0
   24.2733  -22.6621  -14.5824 C   0  0  0  0  0  0  0  0  0  0  0  0
   24.4123  -21.2246  -14.9431 C   0  0  0  0  0  0  0  0  0  0  0  0
   23.7112  -20.2435  -14.0350 C   0  0  2  0  0  0  0  0  0  0  0  0
   24.1311  -20.6513  -12.6711 N   0  0  0  0  0  0  0  0  0  0  0  0
   22.2615  -20.3596  -14.1808 C   0  0  0  0  0  0  0  0  0  0  0  0
   21.6538  -21.2719  -13.5052 O   0  0  0  0  0  0  0  0  0  0  0  0
   23.5126  -27.0478  -16.4063 N   0  0  0  0  0  0  0  0  0  0  0  0
   21.4065  -19.5779  -14.9831 C   0  0  2  0  0  0  0  0  0  0  0  0
   19.9791  -19.4701  -14.7377 C   0  0  0  0  0  0  0  0  0  0  0  0
   19.3854  -18.2453  -15.4120 C   0  0  0  0  0  0  0  0  0  0  0  0
   17.9465  -18.0633  -15.0989 O   0  0  0  0  0  0  0  0  0  0  0  0
   17.3142  -18.8210  -14.3136 C   0  0  0  0  0  0  0  0  0  0  0  0
   19.2994  -20.6370  -15.3039 O   0  0  0  0  0  0  0  0  0  0  0  0
   18.1738  -20.9979  -14.8958 O   0  0  0  0  0  0  0  0  0  0  0  0
   17.2036  -17.0197  -15.6705 O   0  0  0  0  0  0  0  0  0  0  0  0
  2  1  1  6
  2  3  1  0
  3  4  1  0
  4  8  1  0
  4  5  2  0
  6  7  2  0
  6  2  1  0
  9 10  1  0
 10 11  2  0
 12 10  1  0
 12 13  1  0
 13 14  1  0
 14 15  1  0
 16 15  1  6
 16 17  1  0
 17  6  1  0
 18 20  1  0
 18 16  1  0
 19 18  2  0
 21 25  1  0
 21 20  1  0
 22 23  1  0
 21 22  1  6
 23 24  2  0
 25 28  1  0
 26 25  2  0
 27 23  1  0
M  END
$$$$
