DRD.pdb
     RDKit          3D

 28 27  0  0  1  0  0  0  0  0999 V2000
   16.3718  -11.7489  -15.7970 N   0  0  0  0  0  0  0  0  0  0  0  0
   17.4681  -11.6027  -14.8020 C   0  0  1  0  0  0  0  0  0  0  0  0
   18.7336  -12.1543  -15.3070 C   0  0  0  0  0  0  0  0  0  0  0  0
   18.7280  -13.6404  -15.2847 C   0  0  0  0  0  0  0  0  0  0  0  0
   17.7601  -14.2926  -14.8403 O   0  0  0  0  0  0  0  0  0  0  0  0
   17.4475  -10.1557  -14.4758 C   0  0  0  0  0  0  0  0  0  0  0  0
   17.1957   -9.3080  -15.4221 O   0  0  0  0  0  0  0  0  0  0  0  0
   19.8252  -14.3748  -15.7642 O   0  0  0  0  0  0  0  0  0  0  0  0
   14.8300   -7.0941   -7.1140 N   0  0  0  0  0  0  0  0  0  0  0  0
   13.9394   -7.6723   -8.0624 C   0  0  0  0  0  0  0  0  0  0  0  0
   12.7246   -7.9538   -7.7538 N   0  0  0  0  0  0  0  0  0  0  0  0
   14.3918   -7.9517   -9.3880 N   0  0  0  0  0  0  0  0  0  0  0  0
   15.7611   -7.7130   -9.7950 C   0  0  0  0  0  0  0  0  0  0  0  0
   15.9785   -8.0655  -11.2631 C   0  0  0  0  0  0  0  0  0  0  0  0
   17.4051   -7.8443  -11.6261 C   0  0  0  0  0  0  0  0  0  0  0  0
   17.7650   -8.0841  -13.0724 C   0  0  2  0  0  0  0  0  0  0  0  0
   17.6782   -9.5577  -13.2258 N   0  0  0  0  0  0  0  0  0  0  0  0
   19.1242   -7.6199  -13.3435 C   0  0  0  0  0  0  0  0  0  0  0  0
   20.1069   -8.3340  -12.9161 O   0  0  0  0  0  0  0  0  0  0  0  0
   12.0785   -8.3482   -8.4562 N   0  0  0  0  0  0  0  0  0  0  0  0
   19.5208   -6.4603  -14.0390 C   0  0  1  0  0  0  0  0  0  0  0  0
   20.9118   -6.1444  -14.3121 C   0  0  0  0  0  0  0  0  0  0  0  0
   21.3543   -6.6832  -15.6617 C   0  0  0  0  0  0  0  0  0  0  0  0
   22.7120   -6.2215  -16.0425 O   0  0  0  0  0  0  0  0  0  0  0  0
   23.6223   -5.9979  -15.1987 C   0  0  0  0  0  0  0  0  0  0  0  0
   21.0793   -4.6906  -14.3603 O   0  0  0  0  0  0  0  0  0  0  0  0
   20.1036   -3.9268  -14.5293 O   0  0  0  0  0  0  0  0  0  0  0  0
   23.0579   -6.0072  -17.3849 O   0  0  0  0  0  0  0  0  0  0  0  0
  2  1  1  6
  2  3  1  0
  3  4  1  0
  4  8  1  0
  4  5  2  0
  6  7  2  0
  6  2  1  0
  9 10  1  0
 10 11  2  0
 12 10  1  0
 12 13  1  0
 13 14  1  0
 14 15  1  0
 16 15  1  1
 16 17  1  0
 17  6  1  0
 18 20  1  0
 18 16  1  0
 19 18  2  0
 21 25  1  0
 21 20  1  0
 22 23  1  0
 21 22  1  1
 23 24  2  0
 25 28  1  0
 26 25  2  0
 27 23  1  0
M  END
$$$$
