DRD.pdb
     RDKit          3D

 28 27  0  0  1  0  0  0  0  0999 V2000
   19.3784   -8.2977  -15.0573 N   0  0  0  0  0  0  0  0  0  0  0  0
   19.5460   -8.6205  -13.6148 C   0  0  1  0  0  0  0  0  0  0  0  0
   20.7272   -7.9560  -13.0458 C   0  0  0  0  0  0  0  0  0  0  0  0
   21.9881   -8.5733  -13.5339 C   0  0  0  0  0  0  0  0  0  0  0  0
   21.9896   -9.5700  -14.2863 O   0  0  0  0  0  0  0  0  0  0  0  0
   18.2293   -8.2711  -13.0275 C   0  0  0  0  0  0  0  0  0  0  0  0
   17.6314   -7.1970  -13.4353 O   0  0  0  0  0  0  0  0  0  0  0  0
   23.2389   -8.0552  -13.1595 O   0  0  0  0  0  0  0  0  0  0  0  0
   12.1502  -12.2956   -8.3538 N   0  0  0  0  0  0  0  0  0  0  0  0
   11.4637  -11.3857   -9.2069 C   0  0  0  0  0  0  0  0  0  0  0  0
   10.3644  -10.8288   -8.8441 N   0  0  0  0  0  0  0  0  0  0  0  0
   11.9956  -11.0764  -10.4958 N   0  0  0  0  0  0  0  0  0  0  0  0
   13.4162  -11.1361  -10.7715 C   0  0  0  0  0  0  0  0  0  0  0  0
   14.0093   -9.7433  -10.9584 C   0  0  0  0  0  0  0  0  0  0  0  0
   15.4468   -9.8559  -11.3288 C   0  0  0  0  0  0  0  0  0  0  0  0
   16.1610   -8.5567  -11.6123 C   0  0  2  0  0  0  0  0  0  0  0  0
   17.5171   -8.9777  -12.0443 N   0  0  0  0  0  0  0  0  0  0  0  0
   16.2390   -7.7425  -10.4009 C   0  0  0  0  0  0  0  0  0  0  0  0
   16.8837   -8.2151   -9.3914 O   0  0  0  0  0  0  0  0  0  0  0  0
    9.8655  -10.1823   -9.4761 N   0  0  0  0  0  0  0  0  0  0  0  0
   15.6916   -6.4628  -10.1808 C   0  0  2  0  0  0  0  0  0  0  0  0
   15.8666   -5.7364   -8.9354 C   0  0  0  0  0  0  0  0  0  0  0  0
   16.4230   -4.3430   -9.1727 C   0  0  0  0  0  0  0  0  0  0  0  0
   16.4477   -3.5210   -7.9377 O   0  0  0  0  0  0  0  0  0  0  0  0
   16.1326   -3.9760   -6.8044 C   0  0  0  0  0  0  0  0  0  0  0  0
   14.5659   -5.5683   -8.2842 O   0  0  0  0  0  0  0  0  0  0  0  0
   14.4724   -5.1229   -7.1194 O   0  0  0  0  0  0  0  0  0  0  0  0
   16.8305   -2.1719   -7.9690 O   0  0  0  0  0  0  0  0  0  0  0  0
  2  1  1  6
  2  3  1  0
  3  4  1  0
  4  8  1  0
  4  5  2  0
  6  7  2  0
  6  2  1  0
  9 10  1  0
 10 11  2  0
 12 10  1  0
 12 13  1  0
 13 14  1  0
 14 15  1  0
 16 15  1  1
 16 17  1  0
 17  6  1  0
 18 20  1  0
 18 16  1  0
 19 18  2  0
 21 25  1  0
 21 20  1  0
 22 23  1  0
 21 22  1  6
 23 24  2  0
 25 28  1  0
 26 25  2  0
 27 23  1  0
M  END
$$$$
