DRD.pdb
     RDKit          3D

 28 27  0  0  1  0  0  0  0  0999 V2000
   24.3292  -19.0361  -16.8408 N   0  0  0  0  0  0  0  0  0  0  0  0
   23.3276  -18.5214  -15.8687 C   0  0  1  0  0  0  0  0  0  0  0  0
   22.1400  -17.9851  -16.5489 C   0  0  0  0  0  0  0  0  0  0  0  0
   22.1861  -16.5023  -16.6385 C   0  0  0  0  0  0  0  0  0  0  0  0
   23.1688  -15.8446  -16.2368 O   0  0  0  0  0  0  0  0  0  0  0  0
   23.1169  -19.6675  -14.9506 C   0  0  0  0  0  0  0  0  0  0  0  0
   22.5028  -20.7171  -15.3962 O   0  0  0  0  0  0  0  0  0  0  0  0
   21.1122  -15.7769  -17.1806 O   0  0  0  0  0  0  0  0  0  0  0  0
   28.5204  -21.3639   -8.7783 N   0  0  0  0  0  0  0  0  0  0  0  0
   28.8049  -21.4032  -10.1727 C   0  0  0  0  0  0  0  0  0  0  0  0
   29.9270  -21.8463  -10.6139 N   0  0  0  0  0  0  0  0  0  0  0  0
   27.8328  -20.9430  -11.1125 N   0  0  0  0  0  0  0  0  0  0  0  0
   26.4322  -20.8189  -10.7654 C   0  0  0  0  0  0  0  0  0  0  0  0
   25.5296  -21.2651  -11.9112 C   0  0  0  0  0  0  0  0  0  0  0  0
   24.1209  -20.8835  -11.6178 C   0  0  0  0  0  0  0  0  0  0  0  0
   23.1606  -20.9522  -12.7804 C   0  0  2  0  0  0  0  0  0  0  0  0
   23.5079  -19.7681  -13.6051 N   0  0  0  0  0  0  0  0  0  0  0  0
   21.7804  -20.8606  -12.3082 C   0  0  0  0  0  0  0  0  0  0  0  0
   21.3803  -19.7410  -11.8136 O   0  0  0  0  0  0  0  0  0  0  0  0
   30.1383  -21.8374  -11.6246 N   0  0  0  0  0  0  0  0  0  0  0  0
   20.7905  -21.8633  -12.3265 C   0  0  1  0  0  0  0  0  0  0  0  0
   19.4485  -21.6527  -11.8127 C   0  0  0  0  0  0  0  0  0  0  0  0
   18.4911  -21.2156  -12.9080 C   0  0  0  0  0  0  0  0  0  0  0  0
   17.0923  -21.0956  -12.4281 O   0  0  0  0  0  0  0  0  0  0  0  0
   16.7817  -21.1225  -11.2060 C   0  0  0  0  0  0  0  0  0  0  0  0
   18.9310  -22.9125  -11.2751 O   0  0  0  0  0  0  0  0  0  0  0  0
   19.5053  -24.0011  -11.4966 O   0  0  0  0  0  0  0  0  0  0  0  0
   16.0254  -20.9425  -13.3259 O   0  0  0  0  0  0  0  0  0  0  0  0
  2  1  1  6
  2  3  1  0
  3  4  1  0
  4  8  1  0
  4  5  2  0
  6  7  2  0
  6  2  1  0
  9 10  1  0
 10 11  2  0
 12 10  1  0
 12 13  1  0
 13 14  1  0
 14 15  1  0
 16 15  1  1
 16 17  1  0
 17  6  1  0
 18 20  1  0
 18 16  1  0
 19 18  2  0
 21 25  1  0
 21 20  1  0
 22 23  1  0
 21 22  1  1
 23 24  2  0
 25 28  1  0
 26 25  2  0
 27 23  1  0
M  END
$$$$
