DRD.pdb
     RDKit          3D

 28 27  0  0  1  0  0  0  0  0999 V2000
   22.1144  -14.1711  -20.0146 N   0  0  0  0  0  0  0  0  0  0  0  0
   22.3493  -13.9730  -18.5589 C   0  0  1  0  0  0  0  0  0  0  0  0
   21.2393  -13.2463  -17.9262 C   0  0  0  0  0  0  0  0  0  0  0  0
   21.5993  -11.8301  -17.6544 C   0  0  0  0  0  0  0  0  0  0  0  0
   22.4509  -11.2209  -18.3350 O   0  0  0  0  0  0  0  0  0  0  0  0
   22.6249  -15.3441  -18.0640 C   0  0  0  0  0  0  0  0  0  0  0  0
   22.2576  -16.3528  -18.7887 O   0  0  0  0  0  0  0  0  0  0  0  0
   20.9914  -11.1176  -16.6076 O   0  0  0  0  0  0  0  0  0  0  0  0
   26.4220  -21.2546  -14.6085 N   0  0  0  0  0  0  0  0  0  0  0  0
   27.3718  -20.4509  -15.3004 C   0  0  0  0  0  0  0  0  0  0  0  0
   28.2413  -20.9730  -16.0890 N   0  0  0  0  0  0  0  0  0  0  0  0
   27.3709  -19.0337  -15.1237 N   0  0  0  0  0  0  0  0  0  0  0  0
   26.3605  -18.3622  -14.3327 C   0  0  0  0  0  0  0  0  0  0  0  0
   24.9861  -18.4500  -14.9886 C   0  0  0  0  0  0  0  0  0  0  0  0
   24.6963  -17.1845  -15.7171 C   0  0  0  0  0  0  0  0  0  0  0  0
   23.3766  -17.1288  -16.4479 C   0  0  2  0  0  0  0  0  0  0  0  0
   23.2537  -15.7088  -16.8620 N   0  0  0  0  0  0  0  0  0  0  0  0
   22.2818  -17.4979  -15.5527 C   0  0  0  0  0  0  0  0  0  0  0  0
   22.0377  -16.7352  -14.5443 O   0  0  0  0  0  0  0  0  0  0  0  0
   28.9485  -20.3857  -16.5593 N   0  0  0  0  0  0  0  0  0  0  0  0
   21.4218  -18.6101  -15.6491 C   0  0  2  0  0  0  0  0  0  0  0  0
   20.2899  -18.8080  -14.7609 C   0  0  0  0  0  0  0  0  0  0  0  0
   19.1582  -19.5490  -15.4518 C   0  0  0  0  0  0  0  0  0  0  0  0
   17.9313  -19.6193  -14.6203 O   0  0  0  0  0  0  0  0  0  0  0  0
   17.8390  -19.0748  -13.4864 C   0  0  0  0  0  0  0  0  0  0  0  0
   20.7035  -19.6315  -13.6230 O   0  0  0  0  0  0  0  0  0  0  0  0
   21.7072  -20.3748  -13.6864 O   0  0  0  0  0  0  0  0  0  0  0  0
   16.7912  -20.3069  -15.0620 O   0  0  0  0  0  0  0  0  0  0  0  0
  2  1  1  6
  2  3  1  0
  3  4  1  0
  4  8  1  0
  4  5  2  0
  6  7  2  0
  6  2  1  0
  9 10  1  0
 10 11  2  0
 12 10  1  0
 12 13  1  0
 13 14  1  0
 14 15  1  0
 16 15  1  1
 16 17  1  0
 17  6  1  0
 18 20  1  0
 18 16  1  0
 19 18  2  0
 21 25  1  0
 21 20  1  0
 22 23  1  0
 21 22  1  6
 23 24  2  0
 25 28  1  0
 26 25  2  0
 27 23  1  0
M  END
$$$$
