MVM.pdb
     RDKit          3D

 24 23  0  0  1  0  0  0  0  0999 V2000
    6.7343  -11.2636   26.4836 C   0  0  0  0  0  0  0  0  0  0  0  0
    5.2790  -12.3167   26.3255 S   0  0  0  0  0  0  0  0  0  0  0  0
    5.5738  -13.8654   27.1894 C   0  0  0  0  0  0  0  0  0  0  0  0
    6.7959  -14.5251   26.5520 C   0  0  0  0  0  0  0  0  0  0  0  0
    6.2398  -15.6082   25.6318 C   0  0  2  0  0  0  0  0  0  0  0  0
    5.8276  -16.7675   26.3805 N   0  0  0  0  0  0  0  0  0  0  0  0
    7.2401  -16.0336   24.6168 C   0  0  0  0  0  0  0  0  0  0  0  0
    8.0331  -17.0081   24.8536 O   0  0  0  0  0  0  0  0  0  0  0  0
    8.1906  -13.5965   21.2257 C   0  0  0  0  0  0  0  0  0  0  0  0
    8.1648  -15.0800   21.1642 C   0  0  1  0  0  0  0  0  0  0  0  0
    9.1857  -15.5603   20.1218 C   0  0  0  0  0  0  0  0  0  0  0  0
    8.4884  -15.7948   22.4407 C   0  0  2  0  0  0  0  0  0  0  0  0
    7.3875  -15.4187   23.3592 N   0  0  0  0  0  0  0  0  0  0  0  0
    9.7796  -15.4491   23.0498 C   0  0  0  0  0  0  0  0  0  0  0  0
   10.1668  -14.2213   23.1283 O   0  0  0  0  0  0  0  0  0  0  0  0
    9.8880  -13.9665   28.7677 C   0  0  0  0  0  0  0  0  0  0  0  0
   11.0288  -15.1643   28.0669 S   0  0  0  0  0  0  0  0  0  0  0  0
   10.8547  -15.2658   26.2471 C   0  0  0  0  0  0  0  0  0  0  0  0
   11.8633  -16.2163   25.6722 C   0  0  0  0  0  0  0  0  0  0  0  0
   11.9387  -16.0614   24.1837 C   0  0  2  0  0  0  0  0  0  0  0  0
   10.6499  -16.4279   23.5767 N   0  0  0  0  0  0  0  0  0  0  0  0
   12.9442  -16.9661   23.6253 C   0  0  0  0  0  0  0  0  0  0  0  0
   12.6355  -18.0012   22.9962 O   0  0  0  0  0  0  0  0  0  0  0  0
   14.3034  -16.7239   23.7633 O   0  0  0  0  0  0  0  0  0  0  0  0
  1  2  1  0
  3  2  1  0
  4  3  1  0
  5  4  1  0
  5  6  1  1
  7  8  2  0
  7  5  1  0
 10  9  1  1
 10 12  1  0
 10 11  1  0
 12 13  1  1
 13  7  1  0
 14 15  2  0
 14 12  1  0
 16 17  1  0
 18 17  1  0
 19 18  1  0
 20 19  1  1
 20 21  1  0
 21 14  1  0
 22 20  1  0
 23 22  2  0
 24 22  1  0
M  END
$$$$
