MVM.pdb
     RDKit          3D

 24 23  0  0  1  0  0  0  0  0999 V2000
    7.0950  -11.7627   25.3223 C   0  0  0  0  0  0  0  0  0  0  0  0
    6.6111  -12.7732   26.7354 S   0  0  0  0  0  0  0  0  0  0  0  0
    6.6658  -14.5080   26.2674 C   0  0  0  0  0  0  0  0  0  0  0  0
    6.3042  -14.5989   24.7855 C   0  0  0  0  0  0  0  0  0  0  0  0
    6.2786  -16.0906   24.4637 C   0  0  2  0  0  0  0  0  0  0  0  0
    5.7761  -16.8553   25.5759 N   0  0  0  0  0  0  0  0  0  0  0  0
    7.6311  -16.6004   24.1137 C   0  0  0  0  0  0  0  0  0  0  0  0
    8.2609  -17.3753   24.9121 O   0  0  0  0  0  0  0  0  0  0  0  0
   11.1943  -16.9219   20.6331 C   0  0  0  0  0  0  0  0  0  0  0  0
    9.8831  -16.5023   21.1897 C   0  0  1  0  0  0  0  0  0  0  0  0
    8.7593  -17.2390   20.4457 C   0  0  0  0  0  0  0  0  0  0  0  0
    9.6754  -16.7679   22.6496 C   0  0  2  0  0  0  0  0  0  0  0  0
    8.3011  -16.2815   22.9175 N   0  0  0  0  0  0  0  0  0  0  0  0
   10.6205  -16.1012   23.5549 C   0  0  0  0  0  0  0  0  0  0  0  0
   10.5810  -14.8238   23.7293 O   0  0  0  0  0  0  0  0  0  0  0  0
    9.6382  -13.7084   28.6278 C   0  0  0  0  0  0  0  0  0  0  0  0
   10.5981  -15.1613   29.0694 S   0  0  0  0  0  0  0  0  0  0  0  0
   11.8644  -15.5351   27.8010 C   0  0  0  0  0  0  0  0  0  0  0  0
   11.2244  -16.0931   26.5640 C   0  0  0  0  0  0  0  0  0  0  0  0
   12.2401  -16.2455   25.4729 C   0  0  2  0  0  0  0  0  0  0  0  0
   11.6049  -16.8135   24.2740 N   0  0  0  0  0  0  0  0  0  0  0  0
   13.2917  -17.1784   25.8793 C   0  0  0  0  0  0  0  0  0  0  0  0
   14.1378  -16.8914   26.7535 O   0  0  0  0  0  0  0  0  0  0  0  0
   13.4086  -18.4403   25.3144 O   0  0  0  0  0  0  0  0  0  0  0  0
  1  2  1  0
  3  2  1  0
  4  3  1  0
  5  4  1  0
  5  6  1  1
  7  8  2  0
  7  5  1  0
 10  9  1  6
 10 12  1  0
 10 11  1  0
 12 13  1  1
 13  7  1  0
 14 15  2  0
 14 12  1  0
 16 17  1  0
 18 17  1  0
 19 18  1  0
 20 19  1  1
 20 21  1  0
 21 14  1  0
 22 20  1  0
 23 22  2  0
 24 22  1  0
M  END
$$$$
