MVM.pdb
     RDKit          3D

 24 23  0  0  1  0  0  0  0  0999 V2000
   15.6859  -17.9956   23.9983 C   0  0  0  0  0  0  0  0  0  0  0  0
   16.4693  -18.8006   22.5875 S   0  0  0  0  0  0  0  0  0  0  0  0
   15.2975  -18.8792   21.2266 C   0  0  0  0  0  0  0  0  0  0  0  0
   14.1361  -17.9443   21.5617 C   0  0  0  0  0  0  0  0  0  0  0  0
   13.2189  -17.9819   20.3425 C   0  0  2  0  0  0  0  0  0  0  0  0
   13.8092  -17.2922   19.2243 N   0  0  0  0  0  0  0  0  0  0  0  0
   11.8960  -17.3666   20.6310 C   0  0  0  0  0  0  0  0  0  0  0  0
   11.6320  -16.1784   20.2395 O   0  0  0  0  0  0  0  0  0  0  0  0
    7.1457  -18.2112   21.5768 C   0  0  0  0  0  0  0  0  0  0  0  0
    8.5631  -18.4928   21.2347 C   0  0  1  0  0  0  0  0  0  0  0  0
    8.6696  -18.7967   19.7328 C   0  0  0  0  0  0  0  0  0  0  0  0
    9.5374  -17.3905   21.5182 C   0  0  2  0  0  0  0  0  0  0  0  0
   10.8662  -18.0208   21.3330 N   0  0  0  0  0  0  0  0  0  0  0  0
    9.4533  -16.8013   22.8611 C   0  0  0  0  0  0  0  0  0  0  0  0
   10.0946  -17.3198   23.8528 O   0  0  0  0  0  0  0  0  0  0  0  0
    6.4767  -11.0497   27.4830 C   0  0  0  0  0  0  0  0  0  0  0  0
    6.5266  -11.8201   25.8608 S   0  0  0  0  0  0  0  0  0  0  0  0
    7.5756  -13.3207   25.8670 C   0  0  0  0  0  0  0  0  0  0  0  0
    7.7207  -13.8695   24.4782 C   0  0  0  0  0  0  0  0  0  0  0  0
    8.6215  -15.0670   24.4805 C   0  0  2  0  0  0  0  0  0  0  0  0
    8.6802  -15.6514   23.1320 N   0  0  0  0  0  0  0  0  0  0  0  0
    8.0940  -16.1024   25.3700 C   0  0  0  0  0  0  0  0  0  0  0  0
    7.1600  -16.8611   25.0316 O   0  0  0  0  0  0  0  0  0  0  0  0
    8.6042  -16.3011   26.6449 O   0  0  0  0  0  0  0  0  0  0  0  0
  1  2  1  0
  3  2  1  0
  4  3  1  0
  5  4  1  0
  5  6  1  6
  7  8  2  0
  7  5  1  0
 10  9  1  6
 10 12  1  0
 10 11  1  0
 12 13  1  1
 13  7  1  0
 14 15  2  0
 14 12  1  0
 16 17  1  0
 18 17  1  0
 19 18  1  0
 20 19  1  6
 20 21  1  0
 21 14  1  0
 22 20  1  0
 23 22  2  0
 24 22  1  0
M  END
$$$$
