MVM.pdb
     RDKit          3D

 24 23  0  0  1  0  0  0  0  0999 V2000
   13.2376  -21.3031   21.0017 C   0  0  0  0  0  0  0  0  0  0  0  0
   12.2918  -21.7788   19.5418 S   0  0  0  0  0  0  0  0  0  0  0  0
   11.3272  -20.3705   18.9782 C   0  0  0  0  0  0  0  0  0  0  0  0
   11.1182  -19.4442   20.1755 C   0  0  0  0  0  0  0  0  0  0  0  0
   10.2962  -18.2729   19.6449 C   0  0  2  0  0  0  0  0  0  0  0  0
   10.8178  -17.7958   18.3900 N   0  0  0  0  0  0  0  0  0  0  0  0
   10.2712  -17.1389   20.6067 C   0  0  0  0  0  0  0  0  0  0  0  0
   11.1753  -16.2356   20.5710 O   0  0  0  0  0  0  0  0  0  0  0  0
    7.5323  -14.6976   21.1358 C   0  0  0  0  0  0  0  0  0  0  0  0
    7.9313  -15.2523   22.4542 C   0  0  1  0  0  0  0  0  0  0  0  0
    6.9644  -16.3815   22.8408 C   0  0  0  0  0  0  0  0  0  0  0  0
    9.3129  -15.8266   22.5329 C   0  0  2  0  0  0  0  0  0  0  0  0
    9.2847  -16.9760   21.5975 N   0  0  0  0  0  0  0  0  0  0  0  0
    9.7335  -16.2835   23.8641 C   0  0  0  0  0  0  0  0  0  0  0  0
    9.4390  -17.4680   24.2809 O   0  0  0  0  0  0  0  0  0  0  0  0
    9.4941  -12.5443   28.8570 C   0  0  0  0  0  0  0  0  0  0  0  0
   10.2169  -13.9640   29.6873 S   0  0  0  0  0  0  0  0  0  0  0  0
   10.6683  -15.2766   28.4934 C   0  0  0  0  0  0  0  0  0  0  0  0
   10.3875  -14.8319   27.0883 C   0  0  0  0  0  0  0  0  0  0  0  0
   10.7897  -15.8958   26.1127 C   0  0  2  0  0  0  0  0  0  0  0  0
   10.4743  -15.4633   24.7427 N   0  0  0  0  0  0  0  0  0  0  0  0
   10.0334  -17.1249   26.3553 C   0  0  0  0  0  0  0  0  0  0  0  0
    8.8147  -17.2215   26.0948 O   0  0  0  0  0  0  0  0  0  0  0  0
   10.6302  -18.2575   26.8902 O   0  0  0  0  0  0  0  0  0  0  0  0
  1  2  1  0
  3  2  1  0
  4  3  1  0
  5  4  1  0
  5  6  1  6
  7  8  2  0
  7  5  1  0
 10  9  1  6
 10 12  1  0
 10 11  1  0
 12 13  1  6
 13  7  1  0
 14 15  2  0
 14 12  1  0
 16 17  1  0
 18 17  1  0
 19 18  1  0
 20 19  1  1
 20 21  1  0
 21 14  1  0
 22 20  1  0
 23 22  2  0
 24 22  1  0
M  END
$$$$
