MVM.pdb
     RDKit          3D

 24 23  0  0  1  0  0  0  0  0999 V2000
    7.8299  -19.3655   27.9450 C   0  0  0  0  0  0  0  0  0  0  0  0
    6.1346  -19.6506   27.4004 S   0  0  0  0  0  0  0  0  0  0  0  0
    6.1574  -20.5523   25.8454 C   0  0  0  0  0  0  0  0  0  0  0  0
    7.3113  -20.0017   25.0085 C   0  0  0  0  0  0  0  0  0  0  0  0
    6.6544  -19.2733   23.8392 C   0  0  2  0  0  0  0  0  0  0  0  0
    6.1823  -20.2024   22.8451 N   0  0  0  0  0  0  0  0  0  0  0  0
    7.5932  -18.3218   23.1873 C   0  0  0  0  0  0  0  0  0  0  0  0
    8.7265  -18.7222   22.7513 O   0  0  0  0  0  0  0  0  0  0  0  0
    6.6559  -15.6836   20.6087 C   0  0  0  0  0  0  0  0  0  0  0  0
    7.5591  -15.0701   21.6152 C   0  0  1  0  0  0  0  0  0  0  0  0
    6.7305  -14.2055   22.5771 C   0  0  0  0  0  0  0  0  0  0  0  0
    8.3401  -16.0262   22.4643 C   0  0  2  0  0  0  0  0  0  0  0  0
    7.3179  -16.9535   23.0050 N   0  0  0  0  0  0  0  0  0  0  0  0
    9.0922  -15.4205   23.5711 C   0  0  0  0  0  0  0  0  0  0  0  0
   10.0417  -14.5779   23.3432 O   0  0  0  0  0  0  0  0  0  0  0  0
    5.5561  -11.3866   26.4798 C   0  0  0  0  0  0  0  0  0  0  0  0
    6.5496  -12.5916   27.3678 S   0  0  0  0  0  0  0  0  0  0  0  0
    7.9249  -13.2152   26.3326 C   0  0  0  0  0  0  0  0  0  0  0  0
    8.5529  -14.4243   26.9609 C   0  0  0  0  0  0  0  0  0  0  0  0
    9.5340  -15.0531   26.0190 C   0  0  2  0  0  0  0  0  0  0  0  0
    8.8168  -15.7219   24.9227 N   0  0  0  0  0  0  0  0  0  0  0  0
   10.3155  -16.0822   26.7059 C   0  0  0  0  0  0  0  0  0  0  0  0
   10.1914  -17.2988   26.4472 O   0  0  0  0  0  0  0  0  0  0  0  0
   11.2429  -15.7631   27.6874 O   0  0  0  0  0  0  0  0  0  0  0  0
  1  2  1  0
  3  2  1  0
  4  3  1  0
  5  4  1  0
  5  6  1  6
  7  8  2  0
  7  5  1  0
 10  9  1  6
 10 12  1  0
 10 11  1  0
 12 13  1  1
 13  7  1  0
 14 15  2  0
 14 12  1  0
 16 17  1  0
 18 17  1  0
 19 18  1  0
 20 19  1  1
 20 21  1  0
 21 14  1  0
 22 20  1  0
 23 22  2  0
 24 22  1  0
M  END
$$$$
