MVM.pdb
     RDKit          3D

 24 23  0  0  1  0  0  0  0  0999 V2000
    7.5593  -11.8229   26.7167 C   0  0  0  0  0  0  0  0  0  0  0  0
    6.3727  -12.7345   27.7232 S   0  0  0  0  0  0  0  0  0  0  0  0
    5.6752  -14.0730   26.7467 C   0  0  0  0  0  0  0  0  0  0  0  0
    6.8319  -14.9544   26.2772 C   0  0  0  0  0  0  0  0  0  0  0  0
    6.2279  -15.9020   25.2444 C   0  0  2  0  0  0  0  0  0  0  0  0
    5.9696  -17.1990   25.8150 N   0  0  0  0  0  0  0  0  0  0  0  0
    7.1211  -16.0739   24.0679 C   0  0  0  0  0  0  0  0  0  0  0  0
    7.7608  -17.1667   23.8910 O   0  0  0  0  0  0  0  0  0  0  0  0
    8.2051  -12.7986   21.4849 C   0  0  0  0  0  0  0  0  0  0  0  0
    7.9654  -14.1854   21.0110 C   0  0  1  0  0  0  0  0  0  0  0  0
    8.8156  -14.4453   19.7584 C   0  0  0  0  0  0  0  0  0  0  0  0
    8.2928  -15.2766   21.9841 C   0  0  2  0  0  0  0  0  0  0  0  0
    7.3255  -15.0820   23.0903 N   0  0  0  0  0  0  0  0  0  0  0  0
    9.6617  -15.2599   22.5165 C   0  0  0  0  0  0  0  0  0  0  0  0
   10.4866  -14.3228   22.1926 O   0  0  0  0  0  0  0  0  0  0  0  0
    9.5767  -13.5663   27.9145 C   0  0  0  0  0  0  0  0  0  0  0  0
   11.0674  -14.5308   28.1888 S   0  0  0  0  0  0  0  0  0  0  0  0
   11.7577  -15.1549   26.6120 C   0  0  0  0  0  0  0  0  0  0  0  0
   10.6614  -15.4125   25.6207 C   0  0  0  0  0  0  0  0  0  0  0  0
   11.2255  -15.9744   24.3513 C   0  0  2  0  0  0  0  0  0  0  0  0
   10.1381  -16.2524   23.4006 N   0  0  0  0  0  0  0  0  0  0  0  0
   11.8996  -17.2472   24.6102 C   0  0  0  0  0  0  0  0  0  0  0  0
   11.4115  -18.3442   24.2627 O   0  0  0  0  0  0  0  0  0  0  0  0
   13.1247  -17.3076   25.2587 O   0  0  0  0  0  0  0  0  0  0  0  0
  1  2  1  0
  3  2  1  0
  4  3  1  0
  5  4  1  0
  5  6  1  1
  7  8  2  0
  7  5  1  0
 10  9  1  1
 10 12  1  0
 10 11  1  0
 12 13  1  1
 13  7  1  0
 14 15  2  0
 14 12  1  0
 16 17  1  0
 18 17  1  0
 19 18  1  0
 20 19  1  1
 20 21  1  0
 21 14  1  0
 22 20  1  0
 23 22  2  0
 24 22  1  0
M  END
$$$$
