MVM.pdb
     RDKit          3D

 24 23  0  0  1  0  0  0  0  0999 V2000
    5.8492  -11.7846   26.3459 C   0  0  0  0  0  0  0  0  0  0  0  0
    5.4243  -13.0347   27.5743 S   0  0  0  0  0  0  0  0  0  0  0  0
    5.5011  -14.6613   26.8126 C   0  0  0  0  0  0  0  0  0  0  0  0
    6.1314  -14.4955   25.4305 C   0  0  0  0  0  0  0  0  0  0  0  0
    5.9447  -15.8407   24.7343 C   0  0  2  0  0  0  0  0  0  0  0  0
    6.2839  -16.9327   25.6100 N   0  0  0  0  0  0  0  0  0  0  0  0
    6.7779  -15.9444   23.5068 C   0  0  0  0  0  0  0  0  0  0  0  0
    6.2604  -16.3182   22.3990 O   0  0  0  0  0  0  0  0  0  0  0  0
    6.7461  -14.1660   21.5850 C   0  0  0  0  0  0  0  0  0  0  0  0
    8.2302  -14.1766   21.6353 C   0  0  1  0  0  0  0  0  0  0  0  0
    8.7142  -13.0147   22.5156 C   0  0  0  0  0  0  0  0  0  0  0  0
    8.8587  -15.4205   22.1852 C   0  0  2  0  0  0  0  0  0  0  0  0
    8.1537  -15.6492   23.4689 N   0  0  0  0  0  0  0  0  0  0  0  0
   10.3062  -15.3462   22.4233 C   0  0  0  0  0  0  0  0  0  0  0  0
   10.9564  -14.2523   22.2126 O   0  0  0  0  0  0  0  0  0  0  0  0
   11.5271  -12.8179   27.1051 C   0  0  0  0  0  0  0  0  0  0  0  0
   10.7090  -14.3486   27.5688 S   0  0  0  0  0  0  0  0  0  0  0  0
   11.3239  -15.7602   26.5781 C   0  0  0  0  0  0  0  0  0  0  0  0
   10.7532  -15.7206   25.1911 C   0  0  0  0  0  0  0  0  0  0  0  0
   11.6416  -16.4615   24.2386 C   0  0  2  0  0  0  0  0  0  0  0  0
   11.0502  -16.4509   22.8919 N   0  0  0  0  0  0  0  0  0  0  0  0
   11.7637  -17.8639   24.6383 C   0  0  0  0  0  0  0  0  0  0  0  0
   10.8543  -18.6974   24.4368 O   0  0  0  0  0  0  0  0  0  0  0  0
   12.9020  -18.3492   25.2660 O   0  0  0  0  0  0  0  0  0  0  0  0
  1  2  1  0
  3  2  1  0
  4  3  1  0
  5  4  1  0
  5  6  1  1
  7  8  2  0
  7  5  1  0
 10  9  1  1
 10 12  1  0
 10 11  1  0
 12 13  1  1
 13  7  1  0
 14 15  2  0
 14 12  1  0
 16 17  1  0
 18 17  1  0
 19 18  1  0
 20 19  1  1
 20 21  1  0
 21 14  1  0
 22 20  1  0
 23 22  2  0
 24 22  1  0
M  END
$$$$
