MVM.pdb
     RDKit          3D

 24 23  0  0  1  0  0  0  0  0999 V2000
    7.5930  -17.1757   28.9325 C   0  0  0  0  0  0  0  0  0  0  0  0
    8.0400  -18.8960   28.6277 S   0  0  0  0  0  0  0  0  0  0  0  0
    7.5661  -19.3413   26.9518 C   0  0  0  0  0  0  0  0  0  0  0  0
    6.6287  -18.2525   26.4314 C   0  0  0  0  0  0  0  0  0  0  0  0
    6.2793  -18.6645   25.0040 C   0  0  2  0  0  0  0  0  0  0  0  0
    6.4972  -20.0735   24.7999 N   0  0  0  0  0  0  0  0  0  0  0  0
    7.0828  -17.9133   24.0031 C   0  0  0  0  0  0  0  0  0  0  0  0
    7.8249  -18.5334   23.1668 O   0  0  0  0  0  0  0  0  0  0  0  0
    6.8421  -13.6560   23.7192 C   0  0  0  0  0  0  0  0  0  0  0  0
    6.8723  -14.5864   22.5622 C   0  0  1  0  0  0  0  0  0  0  0  0
    7.4365  -13.8512   21.3372 C   0  0  0  0  0  0  0  0  0  0  0  0
    7.6995  -15.8234   22.7371 C   0  0  2  0  0  0  0  0  0  0  0  0
    7.0893  -16.5094   23.9008 N   0  0  0  0  0  0  0  0  0  0  0  0
    9.1288  -15.5984   22.9902 C   0  0  0  0  0  0  0  0  0  0  0  0
    9.7042  -14.5076   22.6124 O   0  0  0  0  0  0  0  0  0  0  0  0
    9.2727  -13.4119   28.1445 C   0  0  0  0  0  0  0  0  0  0  0  0
   10.9957  -13.4981   27.6432 S   0  0  0  0  0  0  0  0  0  0  0  0
   11.3671  -15.0811   26.8015 C   0  0  0  0  0  0  0  0  0  0  0  0
   10.3511  -15.3629   25.7341 C   0  0  0  0  0  0  0  0  0  0  0  0
   10.9721  -16.1387   24.6127 C   0  0  2  0  0  0  0  0  0  0  0  0
    9.9350  -16.5488   23.6536 N   0  0  0  0  0  0  0  0  0  0  0  0
   11.5910  -17.3642   25.1194 C   0  0  0  0  0  0  0  0  0  0  0  0
   12.5965  -17.3469   25.8618 O   0  0  0  0  0  0  0  0  0  0  0  0
   11.0933  -18.6200   24.8028 O   0  0  0  0  0  0  0  0  0  0  0  0
  1  2  1  0
  3  2  1  0
  4  3  1  0
  5  4  1  0
  5  6  1  1
  7  8  2  0
  7  5  1  0
 10  9  1  1
 10 12  1  0
 10 11  1  0
 12 13  1  1
 13  7  1  0
 14 15  2  0
 14 12  1  0
 16 17  1  0
 18 17  1  0
 19 18  1  0
 20 19  1  1
 20 21  1  0
 21 14  1  0
 22 20  1  0
 23 22  2  0
 24 22  1  0
M  END
$$$$
