MVM.pdb
     RDKit          3D

 24 23  0  0  1  0  0  0  0  0999 V2000
    8.8695  -11.6340   19.9987 C   0  0  0  0  0  0  0  0  0  0  0  0
    8.1532  -12.2110   18.4476 S   0  0  0  0  0  0  0  0  0  0  0  0
    8.1421  -14.0085   18.4345 C   0  0  0  0  0  0  0  0  0  0  0  0
    8.2479  -14.4822   19.8835 C   0  0  0  0  0  0  0  0  0  0  0  0
    8.3182  -16.0050   19.8096 C   0  0  2  0  0  0  0  0  0  0  0  0
    7.1226  -16.5544   19.2238 N   0  0  0  0  0  0  0  0  0  0  0  0
    8.5066  -16.6122   21.1540 C   0  0  0  0  0  0  0  0  0  0  0  0
    7.5214  -16.7232   21.9614 O   0  0  0  0  0  0  0  0  0  0  0  0
   11.2692  -19.4309   24.1139 C   0  0  0  0  0  0  0  0  0  0  0  0
   10.8158  -18.7936   22.8516 C   0  0  1  0  0  0  0  0  0  0  0  0
   10.0805  -19.8355   21.9953 C   0  0  0  0  0  0  0  0  0  0  0  0
    9.8844  -17.6297   23.0025 C   0  0  2  0  0  0  0  0  0  0  0  0
    9.7408  -17.0960   21.6271 N   0  0  0  0  0  0  0  0  0  0  0  0
   10.3452  -16.5627   23.9007 C   0  0  0  0  0  0  0  0  0  0  0  0
   11.2787  -15.7497   23.5384 O   0  0  0  0  0  0  0  0  0  0  0  0
    5.5872  -13.0974   27.1686 C   0  0  0  0  0  0  0  0  0  0  0  0
    7.3494  -12.8434   26.9286 S   0  0  0  0  0  0  0  0  0  0  0  0
    8.1835  -14.3919   26.4203 C   0  0  0  0  0  0  0  0  0  0  0  0
    9.6369  -14.1429   26.1438 C   0  0  0  0  0  0  0  0  0  0  0  0
   10.3984  -15.4334   26.1466 C   0  0  2  0  0  0  0  0  0  0  0  0
    9.7961  -16.3717   25.1872 N   0  0  0  0  0  0  0  0  0  0  0  0
   10.3265  -16.0672   27.4636 C   0  0  0  0  0  0  0  0  0  0  0  0
    9.7191  -17.1429   27.6548 O   0  0  0  0  0  0  0  0  0  0  0  0
   10.9320  -15.5069   28.5792 O   0  0  0  0  0  0  0  0  0  0  0  0
  1  2  1  0
  3  2  1  0
  4  3  1  0
  5  4  1  0
  5  6  1  1
  7  8  2  0
  7  5  1  0
 10  9  1  1
 10 12  1  0
 10 11  1  0
 12 13  1  6
 13  7  1  0
 14 15  2  0
 14 12  1  0
 16 17  1  0
 18 17  1  0
 19 18  1  0
 20 19  1  1
 20 21  1  0
 21 14  1  0
 22 20  1  0
 23 22  2  0
 24 22  1  0
M  END
$$$$
