MVM.pdb
     RDKit          3D

 24 23  0  0  1  0  0  0  0  0999 V2000
    8.3000  -11.6657   20.1430 C   0  0  0  0  0  0  0  0  0  0  0  0
    7.9644  -12.5949   18.6343 S   0  0  0  0  0  0  0  0  0  0  0  0
    8.7617  -14.2025   18.7410 C   0  0  0  0  0  0  0  0  0  0  0  0
    8.0087  -15.0236   19.7869 C   0  0  0  0  0  0  0  0  0  0  0  0
    9.0732  -15.8619   20.4894 C   0  0  2  0  0  0  0  0  0  0  0  0
    9.0046  -17.2411   20.0803 N   0  0  0  0  0  0  0  0  0  0  0  0
    8.9325  -15.8012   21.9687 C   0  0  0  0  0  0  0  0  0  0  0  0
    9.3390  -14.7785   22.6193 O   0  0  0  0  0  0  0  0  0  0  0  0
    6.0826  -17.6496   23.4357 C   0  0  0  0  0  0  0  0  0  0  0  0
    6.9688  -17.3091   24.5777 C   0  0  1  0  0  0  0  0  0  0  0  0
    7.2323  -18.5745   25.4075 C   0  0  0  0  0  0  0  0  0  0  0  0
    8.3100  -16.7444   24.2211 C   0  0  2  0  0  0  0  0  0  0  0  0
    8.3604  -16.8287   22.7421 N   0  0  0  0  0  0  0  0  0  0  0  0
    9.4653  -17.4466   24.7954 C   0  0  0  0  0  0  0  0  0  0  0  0
    9.4311  -18.7194   25.0009 O   0  0  0  0  0  0  0  0  0  0  0  0
    9.0175  -13.1276   28.4649 C   0  0  0  0  0  0  0  0  0  0  0  0
    9.5841  -14.3971   29.6028 S   0  0  0  0  0  0  0  0  0  0  0  0
   10.5704  -15.6751   28.7391 C   0  0  0  0  0  0  0  0  0  0  0  0
   10.1351  -15.8011   27.3088 C   0  0  0  0  0  0  0  0  0  0  0  0
   11.0930  -16.6635   26.5446 C   0  0  2  0  0  0  0  0  0  0  0  0
   10.6575  -16.7754   25.1441 N   0  0  0  0  0  0  0  0  0  0  0  0
   11.1108  -18.0197   27.0940 C   0  0  0  0  0  0  0  0  0  0  0  0
   10.0850  -18.7320   27.1480 O   0  0  0  0  0  0  0  0  0  0  0  0
   12.2735  -18.5939   27.5876 O   0  0  0  0  0  0  0  0  0  0  0  0
  1  2  1  0
  3  2  1  0
  4  3  1  0
  5  4  1  0
  5  6  1  6
  7  8  2  0
  7  5  1  0
 10  9  1  6
 10 12  1  0
 10 11  1  0
 12 13  1  6
 13  7  1  0
 14 15  2  0
 14 12  1  0
 16 17  1  0
 18 17  1  0
 19 18  1  0
 20 19  1  1
 20 21  1  0
 21 14  1  0
 22 20  1  0
 23 22  2  0
 24 22  1  0
M  END
$$$$
