MVM.pdb
     RDKit          3D

 24 23  0  0  1  0  0  0  0  0999 V2000
    5.9434  -12.5187   26.7377 C   0  0  0  0  0  0  0  0  0  0  0  0
    6.6485  -11.3905   25.5203 S   0  0  0  0  0  0  0  0  0  0  0  0
    6.8957  -12.2710   23.9726 C   0  0  0  0  0  0  0  0  0  0  0  0
    7.4580  -13.6511   24.3103 C   0  0  0  0  0  0  0  0  0  0  0  0
    7.6039  -14.3696   22.9718 C   0  0  2  0  0  0  0  0  0  0  0  0
    6.3181  -14.6344   22.3792 N   0  0  0  0  0  0  0  0  0  0  0  0
    8.3309  -15.6589   23.1167 C   0  0  0  0  0  0  0  0  0  0  0  0
    7.7299  -16.6988   23.5551 O   0  0  0  0  0  0  0  0  0  0  0  0
   10.5582  -17.4963   20.6571 C   0  0  0  0  0  0  0  0  0  0  0  0
   11.2739  -17.3524   21.9502 C   0  0  1  0  0  0  0  0  0  0  0  0
   12.2745  -16.1915   21.8474 C   0  0  0  0  0  0  0  0  0  0  0  0
   10.4163  -17.0733   23.1467 C   0  0  2  0  0  0  0  0  0  0  0  0
    9.6901  -15.8303   22.7936 N   0  0  0  0  0  0  0  0  0  0  0  0
   11.1379  -16.8813   24.4116 C   0  0  0  0  0  0  0  0  0  0  0  0
   12.0991  -16.0260   24.5021 O   0  0  0  0  0  0  0  0  0  0  0  0
   10.7638  -13.8156   29.8344 C   0  0  0  0  0  0  0  0  0  0  0  0
    9.7529  -14.2079   28.4020 S   0  0  0  0  0  0  0  0  0  0  0  0
   10.6629  -15.2599   27.2114 C   0  0  0  0  0  0  0  0  0  0  0  0
   10.9199  -16.6178   27.7953 C   0  0  0  0  0  0  0  0  0  0  0  0
   11.6269  -17.4889   26.8020 C   0  0  2  0  0  0  0  0  0  0  0  0
   10.8194  -17.6095   25.5785 N   0  0  0  0  0  0  0  0  0  0  0  0
   11.7949  -18.8412   27.3355 C   0  0  0  0  0  0  0  0  0  0  0  0
   11.1386  -19.8147   26.9065 O   0  0  0  0  0  0  0  0  0  0  0  0
   12.6971  -19.1197   28.3521 O   0  0  0  0  0  0  0  0  0  0  0  0
  1  2  1  0
  3  2  1  0
  4  3  1  0
  5  4  1  0
  5  6  1  1
  7  8  2  0
  7  5  1  0
 10  9  1  6
 10 12  1  0
 10 11  1  0
 12 13  1  6
 13  7  1  0
 14 15  2  0
 14 12  1  0
 16 17  1  0
 18 17  1  0
 19 18  1  0
 20 19  1  1
 20 21  1  0
 21 14  1  0
 22 20  1  0
 23 22  2  0
 24 22  1  0
M  END
$$$$
