MVM.pdb
     RDKit          3D

 24 23  0  0  1  0  0  0  0  0999 V2000
    6.8560  -12.8246   26.9106 C   0  0  0  0  0  0  0  0  0  0  0  0
    5.4310  -13.8569   26.5155 S   0  0  0  0  0  0  0  0  0  0  0  0
    5.7699  -15.5491   27.0185 C   0  0  0  0  0  0  0  0  0  0  0  0
    6.9896  -16.0296   26.2334 C   0  0  0  0  0  0  0  0  0  0  0  0
    6.4308  -16.6712   24.9663 C   0  0  2  0  0  0  0  0  0  0  0  0
    6.0446  -18.0387   25.2010 N   0  0  0  0  0  0  0  0  0  0  0  0
    7.4190  -16.6443   23.8552 C   0  0  0  0  0  0  0  0  0  0  0  0
    8.0226  -17.7125   23.4956 O   0  0  0  0  0  0  0  0  0  0  0  0
    7.0343  -14.0463   20.8523 C   0  0  0  0  0  0  0  0  0  0  0  0
    8.4495  -14.2677   21.2442 C   0  0  1  0  0  0  0  0  0  0  0  0
    8.9199  -13.0975   22.1208 C   0  0  0  0  0  0  0  0  0  0  0  0
    8.7272  -15.5204   22.0179 C   0  0  2  0  0  0  0  0  0  0  0  0
    7.7557  -15.4817   23.1367 N   0  0  0  0  0  0  0  0  0  0  0  0
   10.0900  -15.6456   22.5514 C   0  0  0  0  0  0  0  0  0  0  0  0
   11.1008  -15.7770   21.7610 O   0  0  0  0  0  0  0  0  0  0  0  0
   11.2577  -12.5651   27.9596 C   0  0  0  0  0  0  0  0  0  0  0  0
   11.4442  -14.3310   28.2326 S   0  0  0  0  0  0  0  0  0  0  0  0
   11.0038  -15.2877   26.7349 C   0  0  0  0  0  0  0  0  0  0  0  0
   11.9953  -15.0367   25.6372 C   0  0  0  0  0  0  0  0  0  0  0  0
   11.7053  -15.9163   24.4593 C   0  0  2  0  0  0  0  0  0  0  0  0
   10.3614  -15.6255   23.9368 N   0  0  0  0  0  0  0  0  0  0  0  0
   11.7109  -17.3242   24.8583 C   0  0  0  0  0  0  0  0  0  0  0  0
   10.6697  -18.0155   24.8830 O   0  0  0  0  0  0  0  0  0  0  0  0
   12.8783  -17.9739   25.2328 O   0  0  0  0  0  0  0  0  0  0  0  0
  1  2  1  0
  3  2  1  0
  4  3  1  0
  5  4  1  0
  5  6  1  1
  7  8  2  0
  7  5  1  0
 10  9  1  1
 10 12  1  0
 10 11  1  0
 12 13  1  1
 13  7  1  0
 14 15  2  0
 14 12  1  0
 16 17  1  0
 18 17  1  0
 19 18  1  0
 20 19  1  1
 20 21  1  0
 21 14  1  0
 22 20  1  0
 23 22  2  0
 24 22  1  0
M  END
$$$$
