HKH.pdb
     RDKit          3D

 30 31  0  0  1  0  0  0  0  0999 V2000
   27.3589  -22.5300  -17.0963 N   0  0  0  0  0  0  0  0  0  0  0  0
   26.9996  -21.3391  -16.4057 C   0  0  1  0  0  0  0  0  0  0  0  0
   26.5152  -20.2411  -17.3134 C   0  0  0  0  0  0  0  0  0  0  0  0
   27.5086  -19.9002  -18.3278 C   0  0  0  0  0  0  0  0  0  0  0  0
   27.3138  -20.1818  -19.6860 C   0  0  0  0  0  0  0  0  0  0  0  0
   28.4082  -19.7379  -20.3085 N   0  0  0  0  0  0  0  0  0  0  0  0
   29.2527  -19.2049  -19.4084 C   0  0  0  0  0  0  0  0  0  0  0  0
   28.7011  -19.3036  -18.1883 N   0  0  0  0  0  0  0  0  0  0  0  0
   26.1273  -21.4847  -15.2432 C   0  0  0  0  0  0  0  0  0  0  0  0
   25.0425  -22.1025  -15.4188 O   0  0  0  0  0  0  0  0  0  0  0  0
   26.5073  -20.9431  -13.9915 N   0  0  0  0  0  0  0  0  0  0  0  0
   25.6897  -21.0127  -12.8429 C   0  0  1  0  0  0  0  0  0  0  0  0
   26.3206  -20.7779  -11.5241 C   0  0  0  0  0  0  0  0  0  0  0  0
   25.4703  -20.9196  -10.3155 C   0  0  0  0  0  0  0  0  0  0  0  0
   26.0972  -20.6062   -9.0058 C   0  0  0  0  0  0  0  0  0  0  0  0
   25.0322  -20.9172   -7.9365 C   0  0  0  0  0  0  0  0  0  0  0  0
   25.5644  -20.6392   -6.6290 N   0  0  0  0  0  0  0  0  0  0  0  0
   24.4938  -20.1042  -13.0375 C   0  0  0  0  0  0  0  0  0  0  0  0
   24.6278  -18.9502  -13.4896 O   0  0  0  0  0  0  0  0  0  0  0  0
   23.1759  -20.5225  -12.7168 N   0  0  0  0  0  0  0  0  0  0  0  0
   22.0297  -19.9880  -13.4533 C   0  0  1  0  0  0  0  0  0  0  0  0
   22.1189  -20.2987  -14.9109 C   0  0  0  0  0  0  0  0  0  0  0  0
   20.9944  -19.6608  -15.6261 C   0  0  0  0  0  0  0  0  0  0  0  0
   19.9936  -18.8669  -15.1009 C   0  0  0  0  0  0  0  0  0  0  0  0
   19.1807  -18.5037  -16.1206 N   0  0  0  0  0  0  0  0  0  0  0  0
   19.6409  -19.0422  -17.2529 C   0  0  0  0  0  0  0  0  0  0  0  0
   20.7372  -19.7386  -16.9387 N   0  0  0  0  0  0  0  0  0  0  0  0
   20.7971  -20.4179  -12.7942 C   0  0  0  0  0  0  0  0  0  0  0  0
   19.7401  -19.5764  -12.4599 O   0  0  0  0  0  0  0  0  0  0  0  0
   20.6572  -21.6392  -12.4950 O   0  0  0  0  0  0  0  0  0  0  0  0
  2  1  1  6
  2  3  1  0
  3  4  1  0
  4  5  2  0
  5  6  1  0
  7  6  1  0
  8  4  1  0
  8  7  2  0
  9 10  2  0
  9  2  1  0
 11  9  1  0
 12 11  1  0
 12 13  1  1
 14 13  1  0
 15 14  1  0
 16 15  1  0
 17 16  1  0
 18 12  1  0
 19 18  2  0
 20 18  1  0
 21 28  1  0
 21 20  1  0
 21 22  1  6
 23 22  1  0
 24 23  2  0
 25 24  1  0
 26 25  1  0
 26 27  2  0
 27 23  1  0
 28 29  1  0
 30 28  2  0
M  END
$$$$
