HKH.pdb
     RDKit          3D

 30 31  0  0  1  0  0  0  0  0999 V2000
   24.7281  -17.9568  -20.3026 N   0  0  0  0  0  0  0  0  0  0  0  0
   24.4670  -17.4388  -19.0034 C   0  0  1  0  0  0  0  0  0  0  0  0
   23.7736  -16.1035  -19.0173 C   0  0  0  0  0  0  0  0  0  0  0  0
   24.5201  -15.1142  -19.7894 C   0  0  0  0  0  0  0  0  0  0  0  0
   25.5709  -14.3733  -19.2334 C   0  0  0  0  0  0  0  0  0  0  0  0
   26.0127  -13.5807  -20.2126 N   0  0  0  0  0  0  0  0  0  0  0  0
   25.2923  -13.7978  -21.3268 C   0  0  0  0  0  0  0  0  0  0  0  0
   24.3728  -14.7415  -21.0687 N   0  0  0  0  0  0  0  0  0  0  0  0
   23.8456  -18.3450  -18.0412 C   0  0  0  0  0  0  0  0  0  0  0  0
   22.8213  -18.9705  -18.4271 O   0  0  0  0  0  0  0  0  0  0  0  0
   24.3885  -18.4904  -16.7417 N   0  0  0  0  0  0  0  0  0  0  0  0
   23.8736  -19.3967  -15.7897 C   0  0  1  0  0  0  0  0  0  0  0  0
   24.8279  -20.0567  -14.8698 C   0  0  0  0  0  0  0  0  0  0  0  0
   25.7115  -21.1103  -15.4291 C   0  0  0  0  0  0  0  0  0  0  0  0
   25.0898  -22.4247  -15.7328 C   0  0  0  0  0  0  0  0  0  0  0  0
   26.2276  -23.3275  -16.2472 C   0  0  0  0  0  0  0  0  0  0  0  0
   25.6779  -24.5566  -16.7542 N   0  0  0  0  0  0  0  0  0  0  0  0
   22.7631  -18.7164  -15.0169 C   0  0  0  0  0  0  0  0  0  0  0  0
   22.9510  -17.6251  -14.4444 O   0  0  0  0  0  0  0  0  0  0  0  0
   21.4674  -19.2861  -14.9105 N   0  0  0  0  0  0  0  0  0  0  0  0
   20.3976  -18.5678  -14.2164 C   0  0  1  0  0  0  0  0  0  0  0  0
   20.1554  -17.2241  -14.8204 C   0  0  0  0  0  0  0  0  0  0  0  0
   19.0276  -16.5640  -14.1311 C   0  0  0  0  0  0  0  0  0  0  0  0
   19.0752  -15.7209  -13.0381 C   0  0  0  0  0  0  0  0  0  0  0  0
   17.8050  -15.3543  -12.7472 N   0  0  0  0  0  0  0  0  0  0  0  0
   16.9769  -15.9379  -13.6175 C   0  0  0  0  0  0  0  0  0  0  0  0
   17.7297  -16.6658  -14.4477 N   0  0  0  0  0  0  0  0  0  0  0  0
   19.2238  -19.4349  -14.1233 C   0  0  0  0  0  0  0  0  0  0  0  0
   18.3482  -19.4728  -13.0422 O   0  0  0  0  0  0  0  0  0  0  0  0
   18.9637  -20.2178  -15.0826 O   0  0  0  0  0  0  0  0  0  0  0  0
  2  1  1  6
  2  3  1  0
  3  4  1  0
  4  5  2  0
  5  6  1  0
  7  6  1  0
  8  4  1  0
  8  7  2  0
  9 10  2  0
  9  2  1  0
 11  9  1  0
 12 11  1  0
 12 13  1  1
 14 13  1  0
 15 14  1  0
 16 15  1  0
 17 16  1  0
 18 12  1  0
 19 18  2  0
 20 18  1  0
 21 28  1  0
 21 20  1  0
 21 22  1  6
 23 22  1  0
 24 23  2  0
 25 24  1  0
 26 25  1  0
 26 27  2  0
 27 23  1  0
 28 29  1  0
 30 28  2  0
M  END
$$$$
