HKH.pdb
     RDKit          3D

 30 31  0  0  1  0  0  0  0  0999 V2000
   27.4247  -11.5333  -19.8647 N   0  0  0  0  0  0  0  0  0  0  0  0
   27.0095  -11.3264  -18.5197 C   0  0  1  0  0  0  0  0  0  0  0  0
   27.8890  -10.3708  -17.7598 C   0  0  0  0  0  0  0  0  0  0  0  0
   29.2971  -10.7478  -17.8441 C   0  0  0  0  0  0  0  0  0  0  0  0
   30.2741   -9.8742  -18.3387 C   0  0  0  0  0  0  0  0  0  0  0  0
   31.4271  -10.5438  -18.2691 N   0  0  0  0  0  0  0  0  0  0  0  0
   31.2057  -11.7692  -17.7623 C   0  0  0  0  0  0  0  0  0  0  0  0
   29.8952  -11.8972  -17.4999 N   0  0  0  0  0  0  0  0  0  0  0  0
   25.5963  -11.0294  -18.3006 C   0  0  0  0  0  0  0  0  0  0  0  0
   25.0691  -10.1745  -19.0624 O   0  0  0  0  0  0  0  0  0  0  0  0
   24.8792  -11.6841  -17.2703 N   0  0  0  0  0  0  0  0  0  0  0  0
   23.4859  -11.5427  -17.0928 C   0  0  1  0  0  0  0  0  0  0  0  0
   22.7283  -12.7056  -16.5772 C   0  0  0  0  0  0  0  0  0  0  0  0
   21.2781  -12.5257  -16.3162 C   0  0  0  0  0  0  0  0  0  0  0  0
   20.5446  -13.6826  -15.7416 C   0  0  0  0  0  0  0  0  0  0  0  0
   19.0683  -13.2509  -15.6510 C   0  0  0  0  0  0  0  0  0  0  0  0
   18.2832  -14.3251  -15.1034 N   0  0  0  0  0  0  0  0  0  0  0  0
   23.2222  -10.3117  -16.2512 C   0  0  0  0  0  0  0  0  0  0  0  0
   23.7511  -10.1712  -15.1311 O   0  0  0  0  0  0  0  0  0  0  0  0
   22.3674   -9.2696  -16.6963 N   0  0  0  0  0  0  0  0  0  0  0  0
   22.0928   -8.1186  -15.8350 C   0  0  1  0  0  0  0  0  0  0  0  0
   22.1368   -6.8367  -16.5990 C   0  0  0  0  0  0  0  0  0  0  0  0
   21.8520   -5.7059  -15.6919 C   0  0  0  0  0  0  0  0  0  0  0  0
   22.1977   -5.5756  -14.3610 C   0  0  0  0  0  0  0  0  0  0  0  0
   21.7325   -4.3790  -13.9317 N   0  0  0  0  0  0  0  0  0  0  0  0
   21.1141   -3.7671  -14.9451 C   0  0  0  0  0  0  0  0  0  0  0  0
   21.1942   -4.5807  -16.0021 N   0  0  0  0  0  0  0  0  0  0  0  0
   20.8577   -8.3639  -15.0913 C   0  0  0  0  0  0  0  0  0  0  0  0
   20.6892   -8.1248  -13.7306 O   0  0  0  0  0  0  0  0  0  0  0  0
   19.8546   -8.8278  -15.7070 O   0  0  0  0  0  0  0  0  0  0  0  0
  2  1  1  6
  2  3  1  0
  3  4  1  0
  4  5  2  0
  5  6  1  0
  7  6  1  0
  8  4  1  0
  8  7  2  0
  9 10  2  0
  9  2  1  0
 11  9  1  0
 12 11  1  0
 12 13  1  1
 14 13  1  0
 15 14  1  0
 16 15  1  0
 17 16  1  0
 18 12  1  0
 19 18  2  0
 20 18  1  0
 21 28  1  0
 21 20  1  0
 21 22  1  6
 23 22  1  0
 24 23  2  0
 25 24  1  0
 26 25  1  0
 26 27  2  0
 27 23  1  0
 28 29  1  0
 30 28  2  0
M  END
$$$$
