HKH.pdb
     RDKit          3D

 30 31  0  0  1  0  0  0  0  0999 V2000
   14.3181  -26.2110   -4.3277 N   0  0  0  0  0  0  0  0  0  0  0  0
   15.2542  -25.6968   -3.3877 C   0  0  1  0  0  0  0  0  0  0  0  0
   15.9092  -24.4168   -3.8310 C   0  0  0  0  0  0  0  0  0  0  0  0
   16.5596  -24.5635   -5.1301 C   0  0  0  0  0  0  0  0  0  0  0  0
   15.9343  -24.1812   -6.3239 C   0  0  0  0  0  0  0  0  0  0  0  0
   16.8090  -24.4552   -7.2946 N   0  0  0  0  0  0  0  0  0  0  0  0
   17.9251  -24.9801   -6.7594 C   0  0  0  0  0  0  0  0  0  0  0  0
   17.7740  -25.0477   -5.4270 N   0  0  0  0  0  0  0  0  0  0  0  0
   14.8174  -25.6107   -1.9966 C   0  0  0  0  0  0  0  0  0  0  0  0
   13.6441  -25.1969   -1.7926 O   0  0  0  0  0  0  0  0  0  0  0  0
   15.6942  -25.9778   -0.9474 N   0  0  0  0  0  0  0  0  0  0  0  0
   15.2955  -26.0303    0.4057 C   0  0  1  0  0  0  0  0  0  0  0  0
   15.8438  -27.1151    1.2513 C   0  0  0  0  0  0  0  0  0  0  0  0
   15.4064  -27.1755    2.6686 C   0  0  0  0  0  0  0  0  0  0  0  0
   16.0116  -28.2317    3.5198 C   0  0  0  0  0  0  0  0  0  0  0  0
   15.3823  -28.0681    4.9167 C   0  0  0  0  0  0  0  0  0  0  0  0
   15.8701  -29.1016    5.7908 N   0  0  0  0  0  0  0  0  0  0  0  0
   15.5387  -24.6771    1.0405 C   0  0  0  0  0  0  0  0  0  0  0  0
   16.3337  -23.8612    0.5344 O   0  0  0  0  0  0  0  0  0  0  0  0
   14.8769  -24.2793    2.2316 N   0  0  0  0  0  0  0  0  0  0  0  0
   14.7872  -22.8633    2.5910 C   0  0  1  0  0  0  0  0  0  0  0  0
   14.1341  -22.0625    1.5134 C   0  0  0  0  0  0  0  0  0  0  0  0
   14.0461  -20.6472    1.9282 C   0  0  0  0  0  0  0  0  0  0  0  0
   14.5090  -20.0731    3.0959 C   0  0  0  0  0  0  0  0  0  0  0  0
   14.2112  -18.7533    3.0502 N   0  0  0  0  0  0  0  0  0  0  0  0
   13.5832  -18.4917    1.9009 C   0  0  0  0  0  0  0  0  0  0  0  0
   13.4905  -19.6456    1.2331 N   0  0  0  0  0  0  0  0  0  0  0  0
   14.1800  -22.7456    3.9161 C   0  0  0  0  0  0  0  0  0  0  0  0
   14.5380  -21.8000    4.8725 O   0  0  0  0  0  0  0  0  0  0  0  0
   13.2600  -23.5508    4.2413 O   0  0  0  0  0  0  0  0  0  0  0  0
  2  1  1  6
  2  3  1  0
  3  4  1  0
  4  5  2  0
  5  6  1  0
  7  6  1  0
  8  4  1  0
  8  7  2  0
  9 10  2  0
  9  2  1  0
 11  9  1  0
 12 11  1  0
 12 13  1  1
 14 13  1  0
 15 14  1  0
 16 15  1  0
 17 16  1  0
 18 12  1  0
 19 18  2  0
 20 18  1  0
 21 28  1  0
 21 20  1  0
 21 22  1  6
 23 22  1  0
 24 23  2  0
 25 24  1  0
 26 25  1  0
 26 27  2  0
 27 23  1  0
 28 29  1  0
 30 28  2  0
M  END
$$$$
