HKH.pdb
     RDKit          3D

 30 31  0  0  1  0  0  0  0  0999 V2000
   16.5868  -14.3357    6.5020 N   0  0  0  0  0  0  0  0  0  0  0  0
   17.8695  -14.9495    6.4540 C   0  0  1  0  0  0  0  0  0  0  0  0
   18.9857  -13.9859    6.1544 C   0  0  0  0  0  0  0  0  0  0  0  0
   18.7737  -13.2889    4.8889 C   0  0  0  0  0  0  0  0  0  0  0  0
   18.8316  -11.8930    4.7881 C   0  0  0  0  0  0  0  0  0  0  0  0
   18.5928  -11.6124    3.5049 N   0  0  0  0  0  0  0  0  0  0  0  0
   18.3941  -12.7547    2.8242 C   0  0  0  0  0  0  0  0  0  0  0  0
   18.5049  -13.7881    3.6740 N   0  0  0  0  0  0  0  0  0  0  0  0
   18.2217  -15.8361    7.5600 C   0  0  0  0  0  0  0  0  0  0  0  0
   18.2406  -15.3279    8.7136 O   0  0  0  0  0  0  0  0  0  0  0  0
   18.5267  -17.1970    7.3165 N   0  0  0  0  0  0  0  0  0  0  0  0
   18.9287  -18.0893    8.3338 C   0  0  1  0  0  0  0  0  0  0  0  0
   18.7071  -19.5372    8.1171 C   0  0  0  0  0  0  0  0  0  0  0  0
   17.3050  -20.0191    8.0442 C   0  0  0  0  0  0  0  0  0  0  0  0
   17.0991  -21.4760    7.8404 C   0  0  0  0  0  0  0  0  0  0  0  0
   15.5755  -21.7024    7.8798 C   0  0  0  0  0  0  0  0  0  0  0  0
   15.2877  -23.0944    7.6571 N   0  0  0  0  0  0  0  0  0  0  0  0
   20.3757  -17.8122    8.6843 C   0  0  0  0  0  0  0  0  0  0  0  0
   21.2535  -17.7556    7.8010 O   0  0  0  0  0  0  0  0  0  0  0  0
   20.7948  -17.6055   10.0246 N   0  0  0  0  0  0  0  0  0  0  0  0
   22.2060  -17.3667   10.3305 C   0  0  1  0  0  0  0  0  0  0  0  0
   22.3760  -16.2505   11.3074 C   0  0  0  0  0  0  0  0  0  0  0  0
   23.8026  -16.1166   11.6676 C   0  0  0  0  0  0  0  0  0  0  0  0
   24.6066  -17.0360   12.3127 C   0  0  0  0  0  0  0  0  0  0  0  0
   25.8393  -16.4897   12.4327 N   0  0  0  0  0  0  0  0  0  0  0  0
   25.8267  -15.2707   11.8873 C   0  0  0  0  0  0  0  0  0  0  0  0
   24.5894  -15.0588   11.4291 N   0  0  0  0  0  0  0  0  0  0  0  0
   22.8325  -18.6327   10.7088 C   0  0  0  0  0  0  0  0  0  0  0  0
   22.2342  -19.6102   11.4985 O   0  0  0  0  0  0  0  0  0  0  0  0
   24.0043  -18.8813   10.3016 O   0  0  0  0  0  0  0  0  0  0  0  0
  2  1  1  1
  2  3  1  0
  3  4  1  0
  4  5  2  0
  5  6  1  0
  7  6  1  0
  8  4  1  0
  8  7  2  0
  9 10  2  0
  9  2  1  0
 11  9  1  0
 12 11  1  0
 12 13  1  6
 14 13  1  0
 15 14  1  0
 16 15  1  0
 17 16  1  0
 18 12  1  0
 19 18  2  0
 20 18  1  0
 21 28  1  0
 21 20  1  0
 21 22  1  1
 23 22  1  0
 24 23  2  0
 25 24  1  0
 26 25  1  0
 26 27  2  0
 27 23  1  0
 28 29  1  0
 30 28  2  0
M  END
$$$$
