HKH.pdb
     RDKit          3D

 30 31  0  0  1  0  0  0  0  0999 V2000
   25.3635  -22.8394  -14.8854 N   0  0  0  0  0  0  0  0  0  0  0  0
   24.4797  -22.2186  -15.8116 C   0  0  1  0  0  0  0  0  0  0  0  0
   23.1618  -22.9305  -15.9538 C   0  0  0  0  0  0  0  0  0  0  0  0
   23.3422  -24.3480  -16.2544 C   0  0  0  0  0  0  0  0  0  0  0  0
   24.2558  -24.7951  -17.2175 C   0  0  0  0  0  0  0  0  0  0  0  0
   24.1529  -26.1262  -17.2237 N   0  0  0  0  0  0  0  0  0  0  0  0
   23.2322  -26.5104  -16.3224 C   0  0  0  0  0  0  0  0  0  0  0  0
   22.7317  -25.4175  -15.7244 N   0  0  0  0  0  0  0  0  0  0  0  0
   24.2880  -20.7766  -15.6802 C   0  0  0  0  0  0  0  0  0  0  0  0
   24.0442  -20.3374  -14.5238 O   0  0  0  0  0  0  0  0  0  0  0  0
   24.3738  -19.9371  -16.8169 N   0  0  0  0  0  0  0  0  0  0  0  0
   24.2351  -18.5339  -16.7494 C   0  0  1  0  0  0  0  0  0  0  0  0
   24.7312  -17.7297  -17.8894 C   0  0  0  0  0  0  0  0  0  0  0  0
   26.1981  -17.5398  -18.0155 C   0  0  0  0  0  0  0  0  0  0  0  0
   27.0368  -18.7643  -18.0759 C   0  0  0  0  0  0  0  0  0  0  0  0
   28.4750  -18.2844  -18.3511 C   0  0  0  0  0  0  0  0  0  0  0  0
   29.3867  -19.3897  -18.2204 N   0  0  0  0  0  0  0  0  0  0  0  0
   22.7906  -18.1991  -16.4420 C   0  0  0  0  0  0  0  0  0  0  0  0
   21.8611  -18.9284  -16.8397 O   0  0  0  0  0  0  0  0  0  0  0  0
   22.4321  -17.0483  -15.6924 N   0  0  0  0  0  0  0  0  0  0  0  0
   21.0270  -16.7668  -15.3947 C   0  0  1  0  0  0  0  0  0  0  0  0
   20.7700  -16.7440  -13.9242 C   0  0  0  0  0  0  0  0  0  0  0  0
   19.3399  -16.4714  -13.6724 C   0  0  0  0  0  0  0  0  0  0  0  0
   18.5458  -15.4985  -14.2473 C   0  0  0  0  0  0  0  0  0  0  0  0
   17.3048  -15.6175  -13.7196 N   0  0  0  0  0  0  0  0  0  0  0  0
   17.3030  -16.6248  -12.8427 C   0  0  0  0  0  0  0  0  0  0  0  0
   18.5394  -17.1314  -12.8247 N   0  0  0  0  0  0  0  0  0  0  0  0
   20.6170  -15.5662  -16.1221 C   0  0  0  0  0  0  0  0  0  0  0  0
   19.3042  -15.2530  -16.4618 O   0  0  0  0  0  0  0  0  0  0  0  0
   21.5018  -14.7360  -16.4806 O   0  0  0  0  0  0  0  0  0  0  0  0
  2  1  1  1
  2  3  1  0
  3  4  1  0
  4  5  2  0
  5  6  1  0
  7  6  1  0
  8  4  1  0
  8  7  2  0
  9 10  2  0
  9  2  1  0
 11  9  1  0
 12 11  1  0
 12 13  1  6
 14 13  1  0
 15 14  1  0
 16 15  1  0
 17 16  1  0
 18 12  1  0
 19 18  2  0
 20 18  1  0
 21 28  1  0
 21 20  1  0
 21 22  1  1
 23 22  1  0
 24 23  2  0
 25 24  1  0
 26 25  1  0
 26 27  2  0
 27 23  1  0
 28 29  1  0
 30 28  2  0
M  END
$$$$
