HKH.pdb
     RDKit          3D

 30 31  0  0  1  0  0  0  0  0999 V2000
   25.3706  -17.6957  -17.0097 N   0  0  0  0  0  0  0  0  0  0  0  0
   24.6127  -16.8300  -17.8467 C   0  0  1  0  0  0  0  0  0  0  0  0
   24.4137  -17.3636  -19.2395 C   0  0  0  0  0  0  0  0  0  0  0  0
   25.6771  -17.7684  -19.8494 C   0  0  0  0  0  0  0  0  0  0  0  0
   26.0529  -19.1131  -19.9626 C   0  0  0  0  0  0  0  0  0  0  0  0
   27.2465  -19.1064  -20.5606 N   0  0  0  0  0  0  0  0  0  0  0  0
   27.6147  -17.8387  -20.8155 C   0  0  0  0  0  0  0  0  0  0  0  0
   26.6502  -17.0132  -20.3786 N   0  0  0  0  0  0  0  0  0  0  0  0
   23.3639  -16.3057  -17.3001 C   0  0  0  0  0  0  0  0  0  0  0  0
   22.9274  -16.8521  -16.2511 O   0  0  0  0  0  0  0  0  0  0  0  0
   22.6953  -15.2357  -17.9424 N   0  0  0  0  0  0  0  0  0  0  0  0
   21.5666  -14.5918  -17.3910 C   0  0  1  0  0  0  0  0  0  0  0  0
   21.5708  -13.1125  -17.3281 C   0  0  0  0  0  0  0  0  0  0  0  0
   20.4149  -12.4446  -16.6789 C   0  0  0  0  0  0  0  0  0  0  0  0
   20.4776  -10.9671  -16.5386 C   0  0  0  0  0  0  0  0  0  0  0  0
   19.1271  -10.5371  -15.9341 C   0  0  0  0  0  0  0  0  0  0  0  0
   19.0711   -9.1021  -15.8474 N   0  0  0  0  0  0  0  0  0  0  0  0
   20.3233  -15.0978  -18.0921 C   0  0  0  0  0  0  0  0  0  0  0  0
   20.2801  -15.2010  -19.3336 O   0  0  0  0  0  0  0  0  0  0  0  0
   19.1594  -15.4751  -17.3724 N   0  0  0  0  0  0  0  0  0  0  0  0
   18.4978  -16.7506  -17.6511 C   0  0  1  0  0  0  0  0  0  0  0  0
   19.4828  -17.8658  -17.7749 C   0  0  0  0  0  0  0  0  0  0  0  0
   18.7812  -19.1109  -18.1494 C   0  0  0  0  0  0  0  0  0  0  0  0
   17.9739  -19.3347  -19.2475 C   0  0  0  0  0  0  0  0  0  0  0  0
   17.5459  -20.6175  -19.1872 N   0  0  0  0  0  0  0  0  0  0  0  0
   18.0574  -21.1928  -18.0958 C   0  0  0  0  0  0  0  0  0  0  0  0
   18.8017  -20.2705  -17.4785 N   0  0  0  0  0  0  0  0  0  0  0  0
   17.4333  -16.9595  -16.6705 C   0  0  0  0  0  0  0  0  0  0  0  0
   17.5991  -16.8868  -15.2905 O   0  0  0  0  0  0  0  0  0  0  0  0
   16.2671  -17.2279  -17.0812 O   0  0  0  0  0  0  0  0  0  0  0  0
  2  1  1  1
  2  3  1  0
  3  4  1  0
  4  5  2  0
  5  6  1  0
  7  6  1  0
  8  4  1  0
  8  7  2  0
  9 10  2  0
  9  2  1  0
 11  9  1  0
 12 11  1  0
 12 13  1  6
 14 13  1  0
 15 14  1  0
 16 15  1  0
 17 16  1  0
 18 12  1  0
 19 18  2  0
 20 18  1  0
 21 28  1  0
 21 20  1  0
 21 22  1  1
 23 22  1  0
 24 23  2  0
 25 24  1  0
 26 25  1  0
 26 27  2  0
 27 23  1  0
 28 29  1  0
 30 28  2  0
M  END
$$$$
