HKH.pdb
     RDKit          3D

 30 31  0  0  1  0  0  0  0  0999 V2000
   24.6332  -19.3064  -18.3365 N   0  0  0  0  0  0  0  0  0  0  0  0
   23.6110  -18.6870  -17.5648 C   0  0  1  0  0  0  0  0  0  0  0  0
   22.7603  -17.7286  -18.3533 C   0  0  0  0  0  0  0  0  0  0  0  0
   23.5683  -16.7138  -19.0238 C   0  0  0  0  0  0  0  0  0  0  0  0
   23.5065  -15.3595  -18.6715 C   0  0  0  0  0  0  0  0  0  0  0  0
   24.3659  -14.7353  -19.4804 N   0  0  0  0  0  0  0  0  0  0  0  0
   24.9433  -15.6308  -20.3003 C   0  0  0  0  0  0  0  0  0  0  0  0
   24.4539  -16.8495  -20.0212 N   0  0  0  0  0  0  0  0  0  0  0  0
   22.7874  -19.5605  -16.7329 C   0  0  0  0  0  0  0  0  0  0  0  0
   22.1910  -20.5059  -17.3159 O   0  0  0  0  0  0  0  0  0  0  0  0
   22.6798  -19.3290  -15.3403 N   0  0  0  0  0  0  0  0  0  0  0  0
   21.9281  -20.1566  -14.4786 C   0  0  1  0  0  0  0  0  0  0  0  0
   22.5101  -20.5008  -13.1613 C   0  0  0  0  0  0  0  0  0  0  0  0
   23.5393  -21.5697  -13.1179 C   0  0  0  0  0  0  0  0  0  0  0  0
   23.3548  -22.7253  -14.0328 C   0  0  0  0  0  0  0  0  0  0  0  0
   24.5616  -23.6540  -13.7978 C   0  0  0  0  0  0  0  0  0  0  0  0
   24.4559  -24.8089  -14.6493 N   0  0  0  0  0  0  0  0  0  0  0  0
   20.5429  -19.5659  -14.3179 C   0  0  0  0  0  0  0  0  0  0  0  0
   20.3775  -18.4390  -13.8113 O   0  0  0  0  0  0  0  0  0  0  0  0
   19.3789  -20.2634  -14.7341 N   0  0  0  0  0  0  0  0  0  0  0  0
   18.0598  -19.6408  -14.6129 C   0  0  1  0  0  0  0  0  0  0  0  0
   17.3090  -19.6871  -15.9025 C   0  0  0  0  0  0  0  0  0  0  0  0
   17.9091  -18.7381  -16.8628 C   0  0  0  0  0  0  0  0  0  0  0  0
   17.6872  -17.3788  -16.9664 C   0  0  0  0  0  0  0  0  0  0  0  0
   18.4482  -16.9156  -17.9857 N   0  0  0  0  0  0  0  0  0  0  0  0
   19.1299  -17.9354  -18.5139 C   0  0  0  0  0  0  0  0  0  0  0  0
   18.7941  -19.0303  -17.8253 N   0  0  0  0  0  0  0  0  0  0  0  0
   17.3655  -20.2156  -13.4614 C   0  0  0  0  0  0  0  0  0  0  0  0
   16.3594  -19.5783  -12.7413 O   0  0  0  0  0  0  0  0  0  0  0  0
   17.6849  -21.3759  -13.0710 O   0  0  0  0  0  0  0  0  0  0  0  0
  2  1  1  6
  2  3  1  0
  3  4  1  0
  4  5  2  0
  5  6  1  0
  7  6  1  0
  8  4  1  0
  8  7  2  0
  9 10  2  0
  9  2  1  0
 11  9  1  0
 12 11  1  0
 12 13  1  1
 14 13  1  0
 15 14  1  0
 16 15  1  0
 17 16  1  0
 18 12  1  0
 19 18  2  0
 20 18  1  0
 21 28  1  0
 21 20  1  0
 21 22  1  6
 23 22  1  0
 24 23  2  0
 25 24  1  0
 26 25  1  0
 26 27  2  0
 27 23  1  0
 28 29  1  0
 30 28  2  0
M  END
$$$$
