HKH.pdb
     RDKit          3D

 30 31  0  0  1  0  0  0  0  0999 V2000
   18.6051  -22.3265  -13.4433 N   0  0  0  0  0  0  0  0  0  0  0  0
   19.6815  -23.2379  -13.6306 C   0  0  1  0  0  0  0  0  0  0  0  0
   20.9481  -22.8234  -12.9320 C   0  0  0  0  0  0  0  0  0  0  0  0
   21.5041  -21.5991  -13.5012 C   0  0  0  0  0  0  0  0  0  0  0  0
   20.9088  -20.9450  -14.5874 C   0  0  0  0  0  0  0  0  0  0  0  0
   21.6760  -19.8805  -14.8338 N   0  0  0  0  0  0  0  0  0  0  0  0
   22.6990  -19.8519  -13.9619 C   0  0  0  0  0  0  0  0  0  0  0  0
   22.5954  -20.9089  -13.1406 N   0  0  0  0  0  0  0  0  0  0  0  0
   19.3973  -24.6535  -13.4099 C   0  0  0  0  0  0  0  0  0  0  0  0
   18.5296  -24.9311  -12.5384 O   0  0  0  0  0  0  0  0  0  0  0  0
   20.0830  -25.6450  -14.1522 N   0  0  0  0  0  0  0  0  0  0  0  0
   19.7370  -27.0130  -14.1122 C   0  0  1  0  0  0  0  0  0  0  0  0
   19.4876  -27.7057  -15.3968 C   0  0  0  0  0  0  0  0  0  0  0  0
   19.1679  -29.1547  -15.3505 C   0  0  0  0  0  0  0  0  0  0  0  0
   18.8693  -29.8239  -16.6426 C   0  0  0  0  0  0  0  0  0  0  0  0
   18.6257  -31.3084  -16.3091 C   0  0  0  0  0  0  0  0  0  0  0  0
   18.3449  -32.0358  -17.5183 N   0  0  0  0  0  0  0  0  0  0  0  0
   20.7706  -27.7555  -13.2914 C   0  0  0  0  0  0  0  0  0  0  0  0
   21.9822  -27.7022  -13.5797 O   0  0  0  0  0  0  0  0  0  0  0  0
   20.4094  -28.5396  -12.1647 N   0  0  0  0  0  0  0  0  0  0  0  0
   21.4312  -29.2679  -11.4114 C   0  0  1  0  0  0  0  0  0  0  0  0
   21.1041  -29.3270   -9.9558 C   0  0  0  0  0  0  0  0  0  0  0  0
   22.0851  -30.1842   -9.2590 C   0  0  0  0  0  0  0  0  0  0  0  0
   23.4630  -30.0928   -9.2839 C   0  0  0  0  0  0  0  0  0  0  0  0
   23.9538  -31.0822   -8.5010 N   0  0  0  0  0  0  0  0  0  0  0  0
   22.9331  -31.7792   -7.9950 C   0  0  0  0  0  0  0  0  0  0  0  0
   21.8102  -31.2251   -8.4617 N   0  0  0  0  0  0  0  0  0  0  0  0
   21.6672  -30.5599  -12.0545 C   0  0  0  0  0  0  0  0  0  0  0  0
   22.9022  -31.1975  -12.1262 O   0  0  0  0  0  0  0  0  0  0  0  0
   20.6936  -31.1621  -12.5931 O   0  0  0  0  0  0  0  0  0  0  0  0
  2  1  1  1
  2  3  1  0
  3  4  1  0
  4  5  2  0
  5  6  1  0
  7  6  1  0
  8  4  1  0
  8  7  2  0
  9 10  2  0
  9  2  1  0
 11  9  1  0
 12 11  1  0
 12 13  1  6
 14 13  1  0
 15 14  1  0
 16 15  1  0
 17 16  1  0
 18 12  1  0
 19 18  2  0
 20 18  1  0
 21 28  1  0
 21 20  1  0
 21 22  1  1
 23 22  1  0
 24 23  2  0
 25 24  1  0
 26 25  1  0
 26 27  2  0
 27 23  1  0
 28 29  1  0
 30 28  2  0
M  END
$$$$
