HKH.pdb
     RDKit          3D

 30 31  0  0  1  0  0  0  0  0999 V2000
   28.5748  -21.4083  -15.7081 N   0  0  0  0  0  0  0  0  0  0  0  0
   28.0306  -22.2304  -16.7339 C   0  0  1  0  0  0  0  0  0  0  0  0
   26.6838  -21.7697  -17.2218 C   0  0  0  0  0  0  0  0  0  0  0  0
   25.8160  -21.3700  -16.1175 C   0  0  0  0  0  0  0  0  0  0  0  0
   25.0735  -22.3002  -15.3789 C   0  0  0  0  0  0  0  0  0  0  0  0
   24.4077  -21.5890  -14.4660 N   0  0  0  0  0  0  0  0  0  0  0  0
   24.7031  -20.2852  -14.6085 C   0  0  0  0  0  0  0  0  0  0  0  0
   25.5699  -20.1478  -15.6245 N   0  0  0  0  0  0  0  0  0  0  0  0
   28.9095  -22.5646  -17.8515 C   0  0  0  0  0  0  0  0  0  0  0  0
   29.6212  -21.6329  -18.3150 O   0  0  0  0  0  0  0  0  0  0  0  0
   28.9365  -23.8813  -18.3714 N   0  0  0  0  0  0  0  0  0  0  0  0
   29.8316  -24.2908  -19.3832 C   0  0  1  0  0  0  0  0  0  0  0  0
   30.6094  -25.5315  -19.1639 C   0  0  0  0  0  0  0  0  0  0  0  0
   31.8811  -25.4257  -18.4054 C   0  0  0  0  0  0  0  0  0  0  0  0
   32.6222  -26.6867  -18.1464 C   0  0  0  0  0  0  0  0  0  0  0  0
   33.9928  -26.2688  -17.5800 C   0  0  0  0  0  0  0  0  0  0  0  0
   34.6961  -27.4319  -17.1082 N   0  0  0  0  0  0  0  0  0  0  0  0
   29.0880  -24.3469  -20.7012 C   0  0  0  0  0  0  0  0  0  0  0  0
   27.8920  -24.6944  -20.7523 O   0  0  0  0  0  0  0  0  0  0  0  0
   29.7146  -24.0084  -21.9291 N   0  0  0  0  0  0  0  0  0  0  0  0
   28.9139  -23.8041  -23.1371 C   0  0  1  0  0  0  0  0  0  0  0  0
   27.8123  -22.8228  -22.9076 C   0  0  0  0  0  0  0  0  0  0  0  0
   26.5094  -23.4630  -23.1821 C   0  0  0  0  0  0  0  0  0  0  0  0
   26.2618  -24.7830  -23.5044 C   0  0  0  0  0  0  0  0  0  0  0  0
   24.9253  -24.9212  -23.6690 N   0  0  0  0  0  0  0  0  0  0  0  0
   24.3398  -23.7390  -23.4610 C   0  0  0  0  0  0  0  0  0  0  0  0
   25.3094  -22.8674  -23.1677 N   0  0  0  0  0  0  0  0  0  0  0  0
   29.8063  -23.4961  -24.2539 C   0  0  0  0  0  0  0  0  0  0  0  0
   29.8097  -24.1635  -25.4752 O   0  0  0  0  0  0  0  0  0  0  0  0
   30.6463  -22.5589  -24.1253 O   0  0  0  0  0  0  0  0  0  0  0  0
  2  1  1  6
  2  3  1  0
  3  4  1  0
  4  5  2  0
  5  6  1  0
  7  6  1  0
  8  4  1  0
  8  7  2  0
  9 10  2  0
  9  2  1  0
 11  9  1  0
 12 11  1  0
 12 13  1  1
 14 13  1  0
 15 14  1  0
 16 15  1  0
 17 16  1  0
 18 12  1  0
 19 18  2  0
 20 18  1  0
 21 28  1  0
 21 20  1  0
 21 22  1  1
 23 22  1  0
 24 23  2  0
 25 24  1  0
 26 25  1  0
 26 27  2  0
 27 23  1  0
 28 29  1  0
 30 28  2  0
M  END
$$$$
