HKH.pdb
     RDKit          3D

 30 31  0  0  1  0  0  0  0  0999 V2000
   24.7045  -23.2603  -20.1708 N   0  0  0  0  0  0  0  0  0  0  0  0
   24.6403  -23.7090  -18.8221 C   0  0  1  0  0  0  0  0  0  0  0  0
   23.6599  -22.9395  -17.9790 C   0  0  0  0  0  0  0  0  0  0  0  0
   23.8983  -21.5006  -18.0496 C   0  0  0  0  0  0  0  0  0  0  0  0
   25.0800  -20.9169  -17.5750 C   0  0  0  0  0  0  0  0  0  0  0  0
   24.9521  -19.6070  -17.7991 N   0  0  0  0  0  0  0  0  0  0  0  0
   23.7645  -19.3640  -18.3805 C   0  0  0  0  0  0  0  0  0  0  0  0
   23.1139  -20.5281  -18.5357 N   0  0  0  0  0  0  0  0  0  0  0  0
   24.5037  -25.1473  -18.6081 C   0  0  0  0  0  0  0  0  0  0  0  0
   23.5526  -25.7238  -19.2017 O   0  0  0  0  0  0  0  0  0  0  0  0
   25.4099  -25.8343  -17.7647 N   0  0  0  0  0  0  0  0  0  0  0  0
   25.3711  -27.2318  -17.5695 C   0  0  1  0  0  0  0  0  0  0  0  0
   26.6258  -27.9156  -17.1817 C   0  0  0  0  0  0  0  0  0  0  0  0
   26.5941  -29.3933  -17.0440 C   0  0  0  0  0  0  0  0  0  0  0  0
   27.8710  -30.0689  -16.6979 C   0  0  0  0  0  0  0  0  0  0  0  0
   27.5818  -31.5816  -16.7480 C   0  0  0  0  0  0  0  0  0  0  0  0
   28.7974  -32.3142  -16.5116 N   0  0  0  0  0  0  0  0  0  0  0  0
   24.2565  -27.5595  -16.5981 C   0  0  0  0  0  0  0  0  0  0  0  0
   24.2251  -27.0545  -15.4588 O   0  0  0  0  0  0  0  0  0  0  0  0
   23.2046  -28.4497  -16.9385 N   0  0  0  0  0  0  0  0  0  0  0  0
   22.1361  -28.7342  -15.9795 C   0  0  1  0  0  0  0  0  0  0  0  0
   20.8927  -27.9719  -16.2990 C   0  0  0  0  0  0  0  0  0  0  0  0
   19.8002  -28.4022  -15.4023 C   0  0  0  0  0  0  0  0  0  0  0  0
   19.8501  -29.3425  -14.3918 C   0  0  0  0  0  0  0  0  0  0  0  0
   18.6180  -29.4123  -13.8355 N   0  0  0  0  0  0  0  0  0  0  0  0
   17.8112  -28.5526  -14.4629 C   0  0  0  0  0  0  0  0  0  0  0  0
   18.5393  -27.9493  -15.4072 N   0  0  0  0  0  0  0  0  0  0  0  0
   21.9721  -30.1828  -15.8646 C   0  0  0  0  0  0  0  0  0  0  0  0
   21.6514  -30.8550  -14.6888 O   0  0  0  0  0  0  0  0  0  0  0  0
   22.1286  -30.8999  -16.8951 O   0  0  0  0  0  0  0  0  0  0  0  0
  2  1  1  6
  2  3  1  0
  3  4  1  0
  4  5  2  0
  5  6  1  0
  7  6  1  0
  8  4  1  0
  8  7  2  0
  9 10  2  0
  9  2  1  0
 11  9  1  0
 12 11  1  0
 12 13  1  1
 14 13  1  0
 15 14  1  0
 16 15  1  0
 17 16  1  0
 18 12  1  0
 19 18  2  0
 20 18  1  0
 21 28  1  0
 21 20  1  0
 21 22  1  6
 23 22  1  0
 24 23  2  0
 25 24  1  0
 26 25  1  0
 26 27  2  0
 27 23  1  0
 28 29  1  0
 30 28  2  0
M  END
$$$$
