HKH.pdb
     RDKit          3D

 30 31  0  0  1  0  0  0  0  0999 V2000
   16.0861  -14.8599  -14.5155 N   0  0  0  0  0  0  0  0  0  0  0  0
   15.7069  -13.6860  -15.2244 C   0  0  1  0  0  0  0  0  0  0  0  0
   14.2942  -13.2475  -14.9483 C   0  0  0  0  0  0  0  0  0  0  0  0
   13.3417  -14.3368  -15.1437 C   0  0  0  0  0  0  0  0  0  0  0  0
   13.0462  -14.8496  -16.4133 C   0  0  0  0  0  0  0  0  0  0  0  0
   12.1501  -15.8187  -16.2128 N   0  0  0  0  0  0  0  0  0  0  0  0
   11.8862  -15.9225  -14.8986 C   0  0  0  0  0  0  0  0  0  0  0  0
   12.6185  -15.0113  -14.2384 N   0  0  0  0  0  0  0  0  0  0  0  0
   16.6290  -12.5544  -15.1739 C   0  0  0  0  0  0  0  0  0  0  0  0
   16.8746  -12.0701  -14.0362 O   0  0  0  0  0  0  0  0  0  0  0  0
   17.2014  -12.0445  -16.3642 N   0  0  0  0  0  0  0  0  0  0  0  0
   18.1852  -11.0322  -16.3726 C   0  0  1  0  0  0  0  0  0  0  0  0
   19.2657  -11.1200  -17.3811 C   0  0  0  0  0  0  0  0  0  0  0  0
   20.1022  -12.3462  -17.3936 C   0  0  0  0  0  0  0  0  0  0  0  0
   21.2500  -12.3736  -18.3362 C   0  0  0  0  0  0  0  0  0  0  0  0
   21.8727  -13.7775  -18.2113 C   0  0  0  0  0  0  0  0  0  0  0  0
   22.9247  -13.9278  -19.1812 N   0  0  0  0  0  0  0  0  0  0  0  0
   17.4992   -9.6835  -16.4340 C   0  0  0  0  0  0  0  0  0  0  0  0
   16.4154   -9.5382  -17.0325 O   0  0  0  0  0  0  0  0  0  0  0  0
   18.0549   -8.5323  -15.8170 N   0  0  0  0  0  0  0  0  0  0  0  0
   17.3693   -7.2421  -15.9038 C   0  0  1  0  0  0  0  0  0  0  0  0
   16.0389   -7.2794  -15.2272 C   0  0  0  0  0  0  0  0  0  0  0  0
   15.4632   -5.9194  -15.1847 C   0  0  0  0  0  0  0  0  0  0  0  0
   15.1412   -5.0988  -16.2480 C   0  0  0  0  0  0  0  0  0  0  0  0
   14.6426   -3.9470  -15.7408 N   0  0  0  0  0  0  0  0  0  0  0  0
   14.6447   -4.0254  -14.4075 C   0  0  0  0  0  0  0  0  0  0  0  0
   15.1431   -5.2229  -14.0859 N   0  0  0  0  0  0  0  0  0  0  0  0
   18.2758   -6.1891  -15.4480 C   0  0  0  0  0  0  0  0  0  0  0  0
   18.0787   -4.8269  -15.6548 O   0  0  0  0  0  0  0  0  0  0  0  0
   19.3235   -6.5141  -14.8176 O   0  0  0  0  0  0  0  0  0  0  0  0
  2  1  1  1
  2  3  1  0
  3  4  1  0
  4  5  2  0
  5  6  1  0
  7  6  1  0
  8  4  1  0
  8  7  2  0
  9 10  2  0
  9  2  1  0
 11  9  1  0
 12 11  1  0
 12 13  1  6
 14 13  1  0
 15 14  1  0
 16 15  1  0
 17 16  1  0
 18 12  1  0
 19 18  2  0
 20 18  1  0
 21 28  1  0
 21 20  1  0
 21 22  1  1
 23 22  1  0
 24 23  2  0
 25 24  1  0
 26 25  1  0
 26 27  2  0
 27 23  1  0
 28 29  1  0
 30 28  2  0
M  END
$$$$
