AIK.pdb
     RDKit          3D

 23 22  0  0  1  0  0  0  0  0999 V2000
   20.5920  -21.9629  -13.4906 C   0  0  0  0  0  0  0  0  0  0  0  0
   21.4386  -21.8091  -12.2456 C   0  0  2  0  0  0  0  0  0  0  0  0
   20.6433  -21.5107  -11.0858 N   0  0  0  0  0  0  0  0  0  0  0  0
   22.5384  -20.8371  -12.4439 C   0  0  0  0  0  0  0  0  0  0  0  0
   22.3184  -19.6233  -12.2122 O   0  0  0  0  0  0  0  0  0  0  0  0
   27.3672  -21.6285  -10.6506 C   0  0  0  0  0  0  0  0  0  0  0  0
   26.0384  -20.9874  -11.1017 C   0  0  0  0  0  0  0  0  0  0  0  0
   26.1458  -20.7554  -12.5633 C   0  0  2  0  0  0  0  0  0  0  0  0
   27.3959  -20.0018  -12.9467 C   0  0  0  0  0  0  0  0  0  0  0  0
   24.8859  -20.2081  -13.1578 C   0  0  2  0  0  0  0  0  0  0  0  0
   23.8336  -21.2075  -12.8842 N   0  0  0  0  0  0  0  0  0  0  0  0
   24.9809  -19.9483  -14.5998 C   0  0  0  0  0  0  0  0  0  0  0  0
   25.0459  -20.9613  -15.3820 O   0  0  0  0  0  0  0  0  0  0  0  0
   25.0064  -18.7000  -15.2448 N   0  0  0  0  0  0  0  0  0  0  0  0
   24.7965  -18.5296  -16.6717 C   0  0  1  0  0  0  0  0  0  0  0  0
   23.7231  -17.5103  -16.9767 C   0  0  0  0  0  0  0  0  0  0  0  0
   23.6135  -17.3242  -18.4771 C   0  0  0  0  0  0  0  0  0  0  0  0
   22.5338  -16.3269  -18.8338 C   0  0  0  0  0  0  0  0  0  0  0  0
   22.5464  -16.2206  -20.3638 C   0  0  0  0  0  0  0  0  0  0  0  0
   21.6251  -15.1507  -20.7692 N   0  0  0  0  0  0  0  0  0  0  0  0
   26.0675  -18.0479  -17.2650 C   0  0  0  0  0  0  0  0  0  0  0  0
   26.4154  -18.3620  -18.5931 O   0  0  0  0  0  0  0  0  0  0  0  0
   26.9113  -17.3431  -16.6521 O   0  0  0  0  0  0  0  0  0  0  0  0
  2  1  1  6
  2  3  1  0
  2  4  1  0
  4  5  2  0
  7  6  1  0
  8  9  1  1
  8  7  1  0
 10  8  1  0
 11  4  1  0
 10 11  1  6
 12 14  1  0
 12 10  1  0
 13 12  2  0
 15 21  1  0
 15 14  1  0
 15 16  1  1
 16 17  1  0
 18 17  1  0
 19 18  1  0
 20 19  1  0
 21 22  1  0
 23 21  2  0
M  END
$$$$
