AIK.pdb
     RDKit          3D

 23 22  0  0  1  0  0  0  0  0999 V2000
   27.6777  -18.4569  -15.2255 C   0  0  0  0  0  0  0  0  0  0  0  0
   28.1153  -19.7078  -14.4947 C   0  0  2  0  0  0  0  0  0  0  0  0
   28.9307  -20.5572  -15.3196 N   0  0  0  0  0  0  0  0  0  0  0  0
   26.9663  -20.4290  -13.9004 C   0  0  0  0  0  0  0  0  0  0  0  0
   26.4763  -21.4006  -14.5259 O   0  0  0  0  0  0  0  0  0  0  0  0
   26.5997  -20.7113   -8.5495 C   0  0  0  0  0  0  0  0  0  0  0  0
   26.5527  -21.1761  -10.0199 C   0  0  0  0  0  0  0  0  0  0  0  0
   25.3081  -20.6220  -10.6078 C   0  0  2  0  0  0  0  0  0  0  0  0
   24.0672  -21.0493   -9.8626 C   0  0  0  0  0  0  0  0  0  0  0  0
   25.2345  -20.8081  -12.0911 C   0  0  2  0  0  0  0  0  0  0  0  0
   26.3875  -20.0777  -12.6553 N   0  0  0  0  0  0  0  0  0  0  0  0
   23.9822  -20.3211  -12.6832 C   0  0  0  0  0  0  0  0  0  0  0  0
   23.7325  -19.0672  -12.5948 O   0  0  0  0  0  0  0  0  0  0  0  0
   23.0025  -21.0738  -13.3529 N   0  0  0  0  0  0  0  0  0  0  0  0
   21.8228  -20.4902  -13.9669 C   0  0  1  0  0  0  0  0  0  0  0  0
   21.5807  -21.0182  -15.3621 C   0  0  0  0  0  0  0  0  0  0  0  0
   20.3092  -20.4099  -15.9200 C   0  0  0  0  0  0  0  0  0  0  0  0
   19.9522  -21.0077  -17.2626 C   0  0  0  0  0  0  0  0  0  0  0  0
   18.7613  -20.1936  -17.7837 C   0  0  0  0  0  0  0  0  0  0  0  0
   18.3762  -20.7137  -19.1025 N   0  0  0  0  0  0  0  0  0  0  0  0
   20.6504  -20.8477  -13.1319 C   0  0  0  0  0  0  0  0  0  0  0  0
   19.5064  -20.0270  -13.0948 O   0  0  0  0  0  0  0  0  0  0  0  0
   20.5829  -21.8782  -12.4123 O   0  0  0  0  0  0  0  0  0  0  0  0
  2  1  1  6
  2  3  1  0
  2  4  1  0
  4  5  2  0
  7  6  1  0
  8  9  1  1
  8  7  1  0
 10  8  1  0
 11  4  1  0
 10 11  1  6
 12 14  1  0
 12 10  1  0
 13 12  2  0
 15 21  1  0
 15 14  1  0
 15 16  1  6
 16 17  1  0
 18 17  1  0
 19 18  1  0
 20 19  1  0
 21 22  1  0
 23 21  2  0
M  END
$$$$
