AIK.pdb
     RDKit          3D

 23 22  0  0  1  0  0  0  0  0999 V2000
   20.8976  -14.4074  -18.2895 C   0  0  0  0  0  0  0  0  0  0  0  0
   22.1846  -14.7809  -17.5864 C   0  0  2  0  0  0  0  0  0  0  0  0
   22.1480  -16.1224  -17.0708 N   0  0  0  0  0  0  0  0  0  0  0  0
   22.5565  -13.7868  -16.5535 C   0  0  0  0  0  0  0  0  0  0  0  0
   21.8880  -13.7423  -15.4921 O   0  0  0  0  0  0  0  0  0  0  0  0
   27.5730  -12.9461  -15.3237 C   0  0  0  0  0  0  0  0  0  0  0  0
   26.0420  -13.1218  -15.2518 C   0  0  0  0  0  0  0  0  0  0  0  0
   25.4407  -11.8073  -15.5865 C   0  0  2  0  0  0  0  0  0  0  0  0
   25.9747  -10.6840  -14.7317 C   0  0  0  0  0  0  0  0  0  0  0  0
   23.9478  -11.8590  -15.6791 C   0  0  2  0  0  0  0  0  0  0  0  0
   23.6338  -12.8779  -16.7013 N   0  0  0  0  0  0  0  0  0  0  0  0
   23.3360  -10.5727  -16.0356 C   0  0  0  0  0  0  0  0  0  0  0  0
   23.7060  -10.0237  -17.1328 O   0  0  0  0  0  0  0  0  0  0  0  0
   22.3711   -9.8535  -15.3099 N   0  0  0  0  0  0  0  0  0  0  0  0
   21.8551   -8.5605  -15.7236 C   0  0  1  0  0  0  0  0  0  0  0  0
   20.3578   -8.5782  -15.9279 C   0  0  0  0  0  0  0  0  0  0  0  0
   20.0077   -9.5693  -17.0202 C   0  0  0  0  0  0  0  0  0  0  0  0
   18.5129   -9.6499  -17.2362 C   0  0  0  0  0  0  0  0  0  0  0  0
   18.2975  -10.7412  -18.2923 C   0  0  0  0  0  0  0  0  0  0  0  0
   16.8556  -10.9868  -18.4284 N   0  0  0  0  0  0  0  0  0  0  0  0
   22.1594   -7.5837  -14.6498 C   0  0  0  0  0  0  0  0  0  0  0  0
   22.6198   -8.0090  -13.3886 O   0  0  0  0  0  0  0  0  0  0  0  0
   22.0358   -6.3370  -14.7725 O   0  0  0  0  0  0  0  0  0  0  0  0
  2  1  1  1
  2  3  1  0
  2  4  1  0
  4  5  2  0
  7  6  1  0
  8  9  1  1
  8  7  1  0
 10  8  1  0
 11  4  1  0
 10 11  1  6
 12 14  1  0
 12 10  1  0
 13 12  2  0
 15 21  1  0
 15 14  1  0
 15 16  1  1
 16 17  1  0
 18 17  1  0
 19 18  1  0
 20 19  1  0
 21 22  1  0
 23 21  2  0
M  END
$$$$
