AIK.pdb
     RDKit          3D

 23 22  0  0  1  0  0  0  0  0999 V2000
   22.4237  -13.3149  -20.9200 C   0  0  0  0  0  0  0  0  0  0  0  0
   23.5509  -13.8349  -20.0543 C   0  0  2  0  0  0  0  0  0  0  0  0
   23.4091  -15.2367  -19.7685 N   0  0  0  0  0  0  0  0  0  0  0  0
   23.7246  -13.0215  -18.8288 C   0  0  0  0  0  0  0  0  0  0  0  0
   22.9481  -13.2157  -17.8620 O   0  0  0  0  0  0  0  0  0  0  0  0
   28.1037  -11.0225  -15.4289 C   0  0  0  0  0  0  0  0  0  0  0  0
   26.6283  -10.7153  -15.7591 C   0  0  0  0  0  0  0  0  0  0  0  0
   26.2996  -11.4607  -16.9992 C   0  0  2  0  0  0  0  0  0  0  0  0
   27.3348  -11.2815  -18.0825 C   0  0  0  0  0  0  0  0  0  0  0  0
   24.8886  -11.2445  -17.4491 C   0  0  2  0  0  0  0  0  0  0  0  0
   24.7272  -12.0295  -18.6896 N   0  0  0  0  0  0  0  0  0  0  0  0
   24.5581   -9.8344  -17.6906 C   0  0  0  0  0  0  0  0  0  0  0  0
   25.2146   -9.2192  -18.6032 O   0  0  0  0  0  0  0  0  0  0  0  0
   23.5880   -9.0581  -17.0341 N   0  0  0  0  0  0  0  0  0  0  0  0
   23.3296   -7.6636  -17.3472 C   0  0  1  0  0  0  0  0  0  0  0  0
   21.8800   -7.4113  -17.6918 C   0  0  0  0  0  0  0  0  0  0  0  0
   20.9964   -7.9291  -16.5741 C   0  0  0  0  0  0  0  0  0  0  0  0
   19.5338   -7.6710  -16.8600 C   0  0  0  0  0  0  0  0  0  0  0  0
   18.7576   -8.3221  -15.7084 C   0  0  0  0  0  0  0  0  0  0  0  0
   17.3199   -8.1337  -15.9437 N   0  0  0  0  0  0  0  0  0  0  0  0
   23.6623   -6.8580  -16.1471 C   0  0  0  0  0  0  0  0  0  0  0  0
   23.8424   -7.4662  -14.8897 O   0  0  0  0  0  0  0  0  0  0  0  0
   23.8060   -5.6075  -16.1529 O   0  0  0  0  0  0  0  0  0  0  0  0
  2  1  1  1
  2  3  1  0
  2  4  1  0
  4  5  2  0
  7  6  1  0
  8  9  1  6
  8  7  1  0
 10  8  1  0
 11  4  1  0
 10 11  1  6
 12 14  1  0
 12 10  1  0
 13 12  2  0
 15 21  1  0
 15 14  1  0
 15 16  1  1
 16 17  1  0
 18 17  1  0
 19 18  1  0
 20 19  1  0
 21 22  1  0
 23 21  2  0
M  END
$$$$
