AIK.pdb
     RDKit          3D

 23 22  0  0  1  0  0  0  0  0999 V2000
   20.4873  -22.1042  -14.0226 C   0  0  0  0  0  0  0  0  0  0  0  0
   20.9157  -21.5953  -12.6632 C   0  0  2  0  0  0  0  0  0  0  0  0
   19.8559  -20.8938  -11.9912 N   0  0  0  0  0  0  0  0  0  0  0  0
   22.1622  -20.7991  -12.7408 C   0  0  0  0  0  0  0  0  0  0  0  0
   22.0765  -19.5657  -12.9564 O   0  0  0  0  0  0  0  0  0  0  0  0
   25.6443  -21.0586   -8.9597 C   0  0  0  0  0  0  0  0  0  0  0  0
   24.7377  -20.5969  -10.1195 C   0  0  0  0  0  0  0  0  0  0  0  0
   25.4550  -20.9124  -11.3795 C   0  0  2  0  0  0  0  0  0  0  0  0
   26.8855  -20.4314  -11.3756 C   0  0  0  0  0  0  0  0  0  0  0  0
   24.6772  -20.5324  -12.6004 C   0  0  2  0  0  0  0  0  0  0  0  0
   23.4541  -21.3601  -12.5835 N   0  0  0  0  0  0  0  0  0  0  0  0
   25.4143  -20.7361  -13.8539 C   0  0  0  0  0  0  0  0  0  0  0  0
   25.7899  -21.9289  -14.1341 O   0  0  0  0  0  0  0  0  0  0  0  0
   25.7644  -19.7658  -14.8083 N   0  0  0  0  0  0  0  0  0  0  0  0
   26.4258  -20.0767  -16.0634 C   0  0  1  0  0  0  0  0  0  0  0  0
   26.3505  -18.9350  -17.0506 C   0  0  0  0  0  0  0  0  0  0  0  0
   27.0162  -19.3442  -18.3496 C   0  0  0  0  0  0  0  0  0  0  0  0
   27.0384  -18.2044  -19.3434 C   0  0  0  0  0  0  0  0  0  0  0  0
   27.7732  -18.7369  -20.5799 C   0  0  0  0  0  0  0  0  0  0  0  0
   27.8176  -17.6758  -21.5948 N   0  0  0  0  0  0  0  0  0  0  0  0
   27.8565  -20.3371  -15.7722 C   0  0  0  0  0  0  0  0  0  0  0  0
   28.5063  -21.4785  -16.2806 O   0  0  0  0  0  0  0  0  0  0  0  0
   28.5833  -19.5857  -15.0710 O   0  0  0  0  0  0  0  0  0  0  0  0
  2  1  1  6
  2  3  1  0
  2  4  1  0
  4  5  2  0
  7  6  1  0
  8  9  1  1
  8  7  1  0
 10  8  1  0
 11  4  1  0
 10 11  1  6
 12 14  1  0
 12 10  1  0
 13 12  2  0
 15 21  1  0
 15 14  1  0
 15 16  1  6
 16 17  1  0
 18 17  1  0
 19 18  1  0
 20 19  1  0
 21 22  1  0
 23 21  2  0
M  END
$$$$
