AIK.pdb
     RDKit          3D

 23 22  0  0  1  0  0  0  0  0999 V2000
   15.3226  -11.9386    5.9842 C   0  0  0  0  0  0  0  0  0  0  0  0
   16.5286  -11.9134    5.0703 C   0  0  2  0  0  0  0  0  0  0  0  0
   16.2647  -12.5547    3.8110 N   0  0  0  0  0  0  0  0  0  0  0  0
   17.7368  -12.4506    5.7376 C   0  0  0  0  0  0  0  0  0  0  0  0
   18.1190  -13.6106    5.4483 O   0  0  0  0  0  0  0  0  0  0  0  0
   22.6585  -10.0105    8.3367 C   0  0  0  0  0  0  0  0  0  0  0  0
   21.9442  -11.3462    8.0438 C   0  0  0  0  0  0  0  0  0  0  0  0
   20.5692  -11.0114    7.5980 C   0  0  2  0  0  0  0  0  0  0  0  0
   19.8686  -10.0521    8.5289 C   0  0  0  0  0  0  0  0  0  0  0  0
   19.7658  -12.2214    7.2365 C   0  0  2  0  0  0  0  0  0  0  0  0
   18.4883  -11.7196    6.6912 N   0  0  0  0  0  0  0  0  0  0  0  0
   19.5187  -13.1228    8.3689 C   0  0  0  0  0  0  0  0  0  0  0  0
   18.6478  -12.7605    9.2363 O   0  0  0  0  0  0  0  0  0  0  0  0
   20.1286  -14.3627    8.6249 N   0  0  0  0  0  0  0  0  0  0  0  0
   19.7412  -15.2371    9.7178 C   0  0  1  0  0  0  0  0  0  0  0  0
   19.6638  -16.6859    9.2945 C   0  0  0  0  0  0  0  0  0  0  0  0
   18.4048  -16.9088    8.4802 C   0  0  0  0  0  0  0  0  0  0  0  0
   18.2668  -18.3547    8.0586 C   0  0  0  0  0  0  0  0  0  0  0  0
   17.0077  -18.4214    7.1853 C   0  0  0  0  0  0  0  0  0  0  0  0
   16.8178  -19.8075    6.7377 N   0  0  0  0  0  0  0  0  0  0  0  0
   20.7712  -15.1242   10.7788 C   0  0  0  0  0  0  0  0  0  0  0  0
   20.5039  -15.5357   12.0990 O   0  0  0  0  0  0  0  0  0  0  0  0
   21.9294  -14.6672   10.5939 O   0  0  0  0  0  0  0  0  0  0  0  0
  2  1  1  1
  2  3  1  0
  2  4  1  0
  4  5  2  0
  7  6  1  0
  8  9  1  1
  8  7  1  0
 10  8  1  0
 11  4  1  0
 10 11  1  1
 12 14  1  0
 12 10  1  0
 13 12  2  0
 15 21  1  0
 15 14  1  0
 15 16  1  6
 16 17  1  0
 18 17  1  0
 19 18  1  0
 20 19  1  0
 21 22  1  0
 23 21  2  0
M  END
$$$$
