AIK.pdb
     RDKit          3D

 23 22  0  0  1  0  0  0  0  0999 V2000
   27.8221  -11.6407  -21.6649 C   0  0  0  0  0  0  0  0  0  0  0  0
   27.3041  -10.3617  -21.0434 C   0  0  2  0  0  0  0  0  0  0  0  0
   28.3610   -9.4234  -20.7800 N   0  0  0  0  0  0  0  0  0  0  0  0
   26.4717  -10.6280  -19.8477 C   0  0  0  0  0  0  0  0  0  0  0  0
   25.4613  -11.3626  -19.9688 O   0  0  0  0  0  0  0  0  0  0  0  0
   28.3630  -12.3067  -15.3947 C   0  0  0  0  0  0  0  0  0  0  0  0
   27.3407  -12.0726  -16.5262 C   0  0  0  0  0  0  0  0  0  0  0  0
   26.7214  -10.7468  -16.2805 C   0  0  2  0  0  0  0  0  0  0  0  0
   26.0743  -10.6452  -14.9208 C   0  0  0  0  0  0  0  0  0  0  0  0
   25.8560  -10.2919  -17.4137 C   0  0  2  0  0  0  0  0  0  0  0  0
   26.7578  -10.0939  -18.5665 N   0  0  0  0  0  0  0  0  0  0  0  0
   25.1140   -9.0575  -17.1279 C   0  0  0  0  0  0  0  0  0  0  0  0
   25.7945   -7.9979  -16.8903 O   0  0  0  0  0  0  0  0  0  0  0  0
   23.7197   -8.8875  -17.0848 N   0  0  0  0  0  0  0  0  0  0  0  0
   23.0746   -7.6199  -16.7911 C   0  0  1  0  0  0  0  0  0  0  0  0
   22.0085   -7.2698  -17.8034 C   0  0  0  0  0  0  0  0  0  0  0  0
   21.4737   -5.8809  -17.5155 C   0  0  0  0  0  0  0  0  0  0  0  0
   20.2984   -5.5447  -18.4061 C   0  0  0  0  0  0  0  0  0  0  0  0
   19.8821   -4.1162  -18.0339 C   0  0  0  0  0  0  0  0  0  0  0  0
   18.7947   -3.6946  -18.9271 N   0  0  0  0  0  0  0  0  0  0  0  0
   22.4247   -7.7363  -15.4630 C   0  0  0  0  0  0  0  0  0  0  0  0
   22.3048   -6.6208  -14.6116 O   0  0  0  0  0  0  0  0  0  0  0  0
   21.9433   -8.8044  -15.0028 O   0  0  0  0  0  0  0  0  0  0  0  0
  2  1  1  1
  2  3  1  0
  2  4  1  0
  4  5  2  0
  7  6  1  0
  8  9  1  1
  8  7  1  0
 10  8  1  0
 11  4  1  0
 10 11  1  6
 12 14  1  0
 12 10  1  0
 13 12  2  0
 15 21  1  0
 15 14  1  0
 15 16  1  6
 16 17  1  0
 18 17  1  0
 19 18  1  0
 20 19  1  0
 21 22  1  0
 23 21  2  0
M  END
$$$$
