AIK.pdb
     RDKit          3D

 23 22  0  0  1  0  0  0  0  0999 V2000
   20.5771  -22.4014  -13.9649 C   0  0  0  0  0  0  0  0  0  0  0  0
   20.8676  -21.2828  -12.9878 C   0  0  2  0  0  0  0  0  0  0  0  0
   19.9594  -20.1795  -13.1452 N   0  0  0  0  0  0  0  0  0  0  0  0
   22.2863  -20.8607  -13.0395 C   0  0  0  0  0  0  0  0  0  0  0  0
   22.6345  -20.0244  -13.9083 O   0  0  0  0  0  0  0  0  0  0  0  0
   25.0961  -20.7168   -8.4953 C   0  0  0  0  0  0  0  0  0  0  0  0
   24.4680  -20.3825   -9.8642 C   0  0  0  0  0  0  0  0  0  0  0  0
   25.2741  -21.0863  -10.8921 C   0  0  2  0  0  0  0  0  0  0  0  0
   26.7464  -20.7671  -10.8019 C   0  0  0  0  0  0  0  0  0  0  0  0
   24.6966  -20.9622  -12.2673 C   0  0  2  0  0  0  0  0  0  0  0  0
   23.2772  -21.3544  -12.1546 N   0  0  0  0  0  0  0  0  0  0  0  0
   25.3780  -21.7929  -13.2681 C   0  0  0  0  0  0  0  0  0  0  0  0
   25.5974  -23.0199  -12.9705 O   0  0  0  0  0  0  0  0  0  0  0  0
   25.8266  -21.4035  -14.5417 N   0  0  0  0  0  0  0  0  0  0  0  0
   26.5569  -22.2818  -15.4385 C   0  0  1  0  0  0  0  0  0  0  0  0
   25.6778  -22.8492  -16.5289 C   0  0  0  0  0  0  0  0  0  0  0  0
   26.4939  -23.7793  -17.4046 C   0  0  0  0  0  0  0  0  0  0  0  0
   26.7392  -25.1074  -16.7237 C   0  0  0  0  0  0  0  0  0  0  0  0
   27.5524  -25.9469  -17.7169 C   0  0  0  0  0  0  0  0  0  0  0  0
   27.9186  -27.2151  -17.0724 N   0  0  0  0  0  0  0  0  0  0  0  0
   27.6297  -21.4857  -16.0826 C   0  0  0  0  0  0  0  0  0  0  0  0
   27.6159  -20.0780  -16.0407 O   0  0  0  0  0  0  0  0  0  0  0  0
   28.6074  -21.9847  -16.6987 O   0  0  0  0  0  0  0  0  0  0  0  0
  2  1  1  6
  2  3  1  0
  2  4  1  0
  4  5  2  0
  7  6  1  0
  8  9  1  6
  8  7  1  0
 10  8  1  0
 11  4  1  0
 10 11  1  1
 12 14  1  0
 12 10  1  0
 13 12  2  0
 15 21  1  0
 15 14  1  0
 15 16  1  6
 16 17  1  0
 18 17  1  0
 19 18  1  0
 20 19  1  0
 21 22  1  0
 23 21  2  0
M  END
$$$$
