AIK.pdb
     RDKit          3D

 23 22  0  0  1  0  0  0  0  0999 V2000
   39.8561   -5.2711   -8.7569 C   0  0  0  0  0  0  0  0  0  0  0  0
   38.6525   -6.1462   -8.4809 C   0  0  2  0  0  0  0  0  0  0  0  0
   37.7316   -5.5248   -7.5684 N   0  0  0  0  0  0  0  0  0  0  0  0
   39.0481   -7.5063   -8.0482 C   0  0  0  0  0  0  0  0  0  0  0  0
   39.2155   -7.7238   -6.8235 O   0  0  0  0  0  0  0  0  0  0  0  0
   37.1454  -11.7851  -10.6031 C   0  0  0  0  0  0  0  0  0  0  0  0
   37.6107  -10.8362   -9.4791 C   0  0  0  0  0  0  0  0  0  0  0  0
   39.0926  -10.9017   -9.4453 C   0  0  2  0  0  0  0  0  0  0  0  0
   39.6137  -12.3101   -9.2952 C   0  0  0  0  0  0  0  0  0  0  0  0
   39.6953   -9.9140   -8.4958 C   0  0  2  0  0  0  0  0  0  0  0  0
   39.2485   -8.5814   -8.9496 N   0  0  0  0  0  0  0  0  0  0  0  0
   41.1615   -9.9699   -8.4418 C   0  0  0  0  0  0  0  0  0  0  0  0
   41.8084   -9.5907   -9.4810 O   0  0  0  0  0  0  0  0  0  0  0  0
   41.9629  -10.3933   -7.3678 N   0  0  0  0  0  0  0  0  0  0  0  0
   43.4146  -10.4057   -7.4059 C   0  0  1  0  0  0  0  0  0  0  0  0
   44.0145  -11.1146   -6.2136 C   0  0  0  0  0  0  0  0  0  0  0  0
   45.5267  -11.0355   -6.2858 C   0  0  0  0  0  0  0  0  0  0  0  0
   46.1330  -10.7762   -4.9246 C   0  0  0  0  0  0  0  0  0  0  0  0
   47.6477  -10.6848   -5.1480 C   0  0  0  0  0  0  0  0  0  0  0  0
   48.3022  -10.4602   -3.8522 N   0  0  0  0  0  0  0  0  0  0  0  0
   43.8322  -11.1329   -8.6291 C   0  0  0  0  0  0  0  0  0  0  0  0
   43.2703  -12.3810   -8.9610 O   0  0  0  0  0  0  0  0  0  0  0  0
   44.6935  -10.7097   -9.4438 O   0  0  0  0  0  0  0  0  0  0  0  0
  2  1  1  1
  2  3  1  0
  2  4  1  0
  4  5  2  0
  7  6  1  0
  8  9  1  1
  8  7  1  0
 10  8  1  0
 11  4  1  0
 10 11  1  6
 12 14  1  0
 12 10  1  0
 13 12  2  0
 15 21  1  0
 15 14  1  0
 15 16  1  1
 16 17  1  0
 18 17  1  0
 19 18  1  0
 20 19  1  0
 21 22  1  0
 23 21  2  0
M  END
$$$$
