TPF.pdb
     RDKit          3D

 26 27  0  0  1  0  0  0  0  0999 V2000
   25.9951  -16.9557  -14.9184 C   0  0  0  0  0  0  0  0  0  0  0  0
   26.0691  -17.6279  -16.2757 C   0  0  1  0  0  0  0  0  0  0  0  0
   26.5725  -16.7849  -17.2545 O   0  0  0  0  0  0  0  0  0  0  0  0
   26.7936  -18.9531  -16.2177 C   0  0  2  0  0  0  0  0  0  0  0  0
   26.8539  -19.4577  -17.5706 N   0  0  0  0  0  0  0  0  0  0  0  0
   26.1073  -19.9334  -15.3576 C   0  0  0  0  0  0  0  0  0  0  0  0
   25.0731  -20.4808  -15.8782 O   0  0  0  0  0  0  0  0  0  0  0  0
   26.4630  -20.3170  -14.0615 N   0  0  0  0  0  0  0  0  0  0  0  0
   27.6352  -19.8621  -13.3461 C   0  0  0  0  0  0  0  0  0  0  0  0
   27.6230  -20.4931  -11.9866 C   0  0  0  0  0  0  0  0  0  0  0  0
   26.7608  -21.7178  -12.1839 C   0  0  0  0  0  0  0  0  0  0  0  0
   25.7459  -21.2253  -13.1923 C   0  0  1  0  0  0  0  0  0  0  0  0
   24.5537  -20.6280  -12.5895 C   0  0  0  0  0  0  0  0  0  0  0  0
   24.6869  -19.4860  -12.0575 O   0  0  0  0  0  0  0  0  0  0  0  0
   23.2758  -21.2089  -12.5490 N   0  0  0  0  0  0  0  0  0  0  0  0
   22.0700  -20.5098  -12.0673 C   0  0  1  0  0  0  0  0  0  0  0  0
   21.9404  -19.1684  -12.7059 C   0  0  0  0  0  0  0  0  0  0  0  0
   21.6863  -19.2945  -14.1417 C   0  0  0  0  0  0  0  0  0  0  0  0
   20.4835  -19.7995  -14.5756 C   0  0  0  0  0  0  0  0  0  0  0  0
   20.2331  -19.9062  -15.9248 C   0  0  0  0  0  0  0  0  0  0  0  0
   21.1469  -19.5243  -16.8908 C   0  0  0  0  0  0  0  0  0  0  0  0
   22.3612  -19.0146  -16.4666 C   0  0  0  0  0  0  0  0  0  0  0  0
   22.6071  -18.9097  -15.1147 C   0  0  0  0  0  0  0  0  0  0  0  0
   20.8914  -21.3615  -12.1580 C   0  0  0  0  0  0  0  0  0  0  0  0
   20.8572  -22.5844  -12.7954 O   0  0  0  0  0  0  0  0  0  0  0  0
   19.7895  -20.9894  -11.6255 O   0  0  0  0  0  0  0  0  0  0  0  0
  2  4  1  0
  2  1  1  1
  3  2  1  0
  4  6  1  0
  4  5  1  6
  6  8  1  0
  7  6  2  0
  8 12  1  0
  8  9  1  0
  9 10  1  0
 11 10  1  0
 12 11  1  0
 13 15  1  0
 12 13  1  1
 14 13  2  0
 16 15  1  0
 16 24  1  0
 16 17  1  6
 18 23  1  0
 18 17  1  0
 19 18  2  0
 20 21  2  0
 20 19  1  0
 21 22  1  0
 22 23  2  0
 24 25  1  0
 26 24  2  0
M  END
$$$$
