TPF.pdb
     RDKit          3D

 26 27  0  0  1  0  0  0  0  0999 V2000
   29.7114  -19.4869  -16.2979 C   0  0  0  0  0  0  0  0  0  0  0  0
   28.8208  -19.7763  -15.1051 C   0  0  1  0  0  0  0  0  0  0  0  0
   29.1781  -19.0360  -13.9887 O   0  0  0  0  0  0  0  0  0  0  0  0
   27.3533  -19.6493  -15.4442 C   0  0  2  0  0  0  0  0  0  0  0  0
   27.1569  -18.3153  -15.9643 N   0  0  0  0  0  0  0  0  0  0  0  0
   26.4843  -19.8525  -14.2715 C   0  0  0  0  0  0  0  0  0  0  0  0
   26.2929  -18.8106  -13.5517 O   0  0  0  0  0  0  0  0  0  0  0  0
   25.8624  -21.0398  -13.8749 N   0  0  0  0  0  0  0  0  0  0  0  0
   25.9782  -22.3123  -14.5534 C   0  0  0  0  0  0  0  0  0  0  0  0
   25.1783  -23.3215  -13.7865 C   0  0  0  0  0  0  0  0  0  0  0  0
   24.1828  -22.4706  -13.0334 C   0  0  0  0  0  0  0  0  0  0  0  0
   24.9976  -21.2321  -12.7305 C   0  0  1  0  0  0  0  0  0  0  0  0
   25.7240  -21.2967  -11.4617 C   0  0  0  0  0  0  0  0  0  0  0  0
   26.8850  -21.8029  -11.4870 O   0  0  0  0  0  0  0  0  0  0  0  0
   25.2476  -20.8471  -10.2195 N   0  0  0  0  0  0  0  0  0  0  0  0
   26.0068  -20.9553   -8.9600 C   0  0  1  0  0  0  0  0  0  0  0  0
   27.0129  -19.8602   -8.8479 C   0  0  0  0  0  0  0  0  0  0  0  0
   27.6259  -19.8465   -7.5190 C   0  0  0  0  0  0  0  0  0  0  0  0
   28.6756  -20.6919   -7.2479 C   0  0  0  0  0  0  0  0  0  0  0  0
   29.2659  -20.6727   -6.0047 C   0  0  0  0  0  0  0  0  0  0  0  0
   28.8512  -19.8296   -4.9893 C   0  0  0  0  0  0  0  0  0  0  0  0
   27.7955  -18.9740   -5.2499 C   0  0  0  0  0  0  0  0  0  0  0  0
   27.2079  -18.9971   -6.4962 C   0  0  0  0  0  0  0  0  0  0  0  0
   25.1173  -21.1060   -7.8158 C   0  0  0  0  0  0  0  0  0  0  0  0
   25.4316  -21.8022   -6.6672 O   0  0  0  0  0  0  0  0  0  0  0  0
   23.9542  -20.5741   -7.8341 O   0  0  0  0  0  0  0  0  0  0  0  0
  2  4  1  0
  2  1  1  6
  3  2  1  0
  4  6  1  0
  4  5  1  1
  6  8  1  0
  7  6  2  0
  8 12  1  0
  8  9  1  0
  9 10  1  0
 11 10  1  0
 12 11  1  0
 13 15  1  0
 12 13  1  1
 14 13  2  0
 16 15  1  0
 16 24  1  0
 16 17  1  1
 18 23  1  0
 18 17  1  0
 19 18  2  0
 20 21  2  0
 20 19  1  0
 21 22  1  0
 22 23  2  0
 24 25  1  0
 26 24  2  0
M  END
$$$$
