TPF.pdb
     RDKit          3D

 26 27  0  0  1  0  0  0  0  0999 V2000
   17.7576  -26.1733   -5.5579 C   0  0  0  0  0  0  0  0  0  0  0  0
   17.1907  -25.7500   -4.2166 C   0  0  1  0  0  0  0  0  0  0  0  0
   16.4994  -24.5506   -4.2915 O   0  0  0  0  0  0  0  0  0  0  0  0
   16.3832  -26.8494   -3.5656 C   0  0  2  0  0  0  0  0  0  0  0  0
   15.3306  -27.2010   -4.4913 N   0  0  0  0  0  0  0  0  0  0  0  0
   15.7902  -26.4293   -2.2835 C   0  0  0  0  0  0  0  0  0  0  0  0
   14.6678  -25.8200   -2.3793 O   0  0  0  0  0  0  0  0  0  0  0  0
   16.3168  -26.6245   -1.0035 N   0  0  0  0  0  0  0  0  0  0  0  0
   17.5483  -27.3214   -0.7026 C   0  0  0  0  0  0  0  0  0  0  0  0
   17.7546  -27.2791    0.7814 C   0  0  0  0  0  0  0  0  0  0  0  0
   16.3584  -27.0631    1.3164 C   0  0  0  0  0  0  0  0  0  0  0  0
   15.7499  -26.1777    0.2509 C   0  0  1  0  0  0  0  0  0  0  0  0
   15.9368  -24.7465    0.4923 C   0  0  0  0  0  0  0  0  0  0  0  0
   16.8906  -24.1784   -0.1181 O   0  0  0  0  0  0  0  0  0  0  0  0
   15.1524  -23.9479    1.3403 N   0  0  0  0  0  0  0  0  0  0  0  0
   15.2994  -22.4855    1.4602 C   0  0  1  0  0  0  0  0  0  0  0  0
   15.0693  -21.8169    0.1472 C   0  0  0  0  0  0  0  0  0  0  0  0
   13.6710  -21.9427   -0.2664 C   0  0  0  0  0  0  0  0  0  0  0  0
   12.7520  -21.0129    0.1589 C   0  0  0  0  0  0  0  0  0  0  0  0
   11.4386  -21.1176   -0.2392 C   0  0  0  0  0  0  0  0  0  0  0  0
   10.9820  -22.1308   -1.0632 C   0  0  0  0  0  0  0  0  0  0  0  0
   11.8975  -23.0727   -1.4979 C   0  0  0  0  0  0  0  0  0  0  0  0
   13.2113  -22.9635   -1.0965 C   0  0  0  0  0  0  0  0  0  0  0  0
   14.5169  -21.9633    2.5729 C   0  0  0  0  0  0  0  0  0  0  0  0
   13.6572  -22.7159    3.3458 O   0  0  0  0  0  0  0  0  0  0  0  0
   14.6001  -20.7270    2.8901 O   0  0  0  0  0  0  0  0  0  0  0  0
  2  4  1  0
  2  1  1  6
  3  2  1  0
  4  6  1  0
  4  5  1  6
  6  8  1  0
  7  6  2  0
  8 12  1  0
  8  9  1  0
  9 10  1  0
 11 10  1  0
 12 11  1  0
 13 15  1  0
 12 13  1  1
 14 13  2  0
 16 15  1  0
 16 24  1  0
 16 17  1  6
 18 23  1  0
 18 17  1  0
 19 18  2  0
 20 21  2  0
 20 19  1  0
 21 22  1  0
 22 23  2  0
 24 25  1  0
 26 24  2  0
M  END
$$$$
