TPF.pdb
     RDKit          3D

 26 27  0  0  1  0  0  0  0  0999 V2000
   19.2958  -12.4082  -16.5012 C   0  0  0  0  0  0  0  0  0  0  0  0
   20.4582  -13.1640  -17.1155 C   0  0  1  0  0  0  0  0  0  0  0  0
   20.2322  -14.5311  -17.1617 O   0  0  0  0  0  0  0  0  0  0  0  0
   20.8657  -12.5942  -18.4548 C   0  0  2  0  0  0  0  0  0  0  0  0
   21.8296  -13.5084  -19.0237 N   0  0  0  0  0  0  0  0  0  0  0  0
   21.4686  -11.2545  -18.3374 C   0  0  0  0  0  0  0  0  0  0  0  0
   22.6817  -11.2403  -17.9273 O   0  0  0  0  0  0  0  0  0  0  0  0
   20.8640  -10.0269  -18.6220 N   0  0  0  0  0  0  0  0  0  0  0  0
   19.5486   -9.8557  -19.1992 C   0  0  0  0  0  0  0  0  0  0  0  0
   19.2793   -8.3856  -19.3125 C   0  0  0  0  0  0  0  0  0  0  0  0
   20.6645   -7.7828  -19.3295 C   0  0  0  0  0  0  0  0  0  0  0  0
   21.4186   -8.7086  -18.4002 C   0  0  1  0  0  0  0  0  0  0  0  0
   21.3844   -8.2959  -16.9967 C   0  0  0  0  0  0  0  0  0  0  0  0
   20.3703   -8.6388  -16.3193 O   0  0  0  0  0  0  0  0  0  0  0  0
   22.3761   -7.5536  -16.3352 N   0  0  0  0  0  0  0  0  0  0  0  0
   22.2842   -7.1329  -14.9248 C   0  0  1  0  0  0  0  0  0  0  0  0
   23.0903   -8.0295  -14.0471 C   0  0  0  0  0  0  0  0  0  0  0  0
   24.2658   -8.5372  -14.7559 C   0  0  0  0  0  0  0  0  0  0  0  0
   24.6634   -9.8392  -14.5639 C   0  0  0  0  0  0  0  0  0  0  0  0
   25.7591  -10.3265  -15.2394 C   0  0  0  0  0  0  0  0  0  0  0  0
   26.4996   -9.5601  -16.1216 C   0  0  0  0  0  0  0  0  0  0  0  0
   26.1094   -8.2481  -16.3232 C   0  0  0  0  0  0  0  0  0  0  0  0
   25.0117   -7.7648  -15.6445 C   0  0  0  0  0  0  0  0  0  0  0  0
   22.5528   -5.7083  -14.7777 C   0  0  0  0  0  0  0  0  0  0  0  0
   23.0508   -4.8990  -15.7775 O   0  0  0  0  0  0  0  0  0  0  0  0
   22.3274   -5.1258  -13.6614 O   0  0  0  0  0  0  0  0  0  0  0  0
  2  4  1  0
  2  1  1  6
  3  2  1  0
  4  6  1  0
  4  5  1  1
  6  8  1  0
  7  6  2  0
  8 12  1  0
  8  9  1  0
  9 10  1  0
 11 10  1  0
 12 11  1  0
 13 15  1  0
 12 13  1  1
 14 13  2  0
 16 15  1  0
 16 24  1  0
 16 17  1  1
 18 23  1  0
 18 17  1  0
 19 18  2  0
 20 21  2  0
 20 19  1  0
 21 22  1  0
 22 23  2  0
 24 25  1  0
 26 24  2  0
M  END
$$$$
