TPF.pdb
     RDKit          3D

 26 27  0  0  1  0  0  0  0  0999 V2000
   26.1947  -15.8103  -15.3148 C   0  0  0  0  0  0  0  0  0  0  0  0
   25.0391  -16.2591  -16.1881 C   0  0  1  0  0  0  0  0  0  0  0  0
   24.5760  -15.2445  -17.0117 O   0  0  0  0  0  0  0  0  0  0  0  0
   25.3558  -17.5276  -16.9465 C   0  0  2  0  0  0  0  0  0  0  0  0
   24.2052  -17.8223  -17.7699 N   0  0  0  0  0  0  0  0  0  0  0  0
   25.6244  -18.6671  -16.0514 C   0  0  0  0  0  0  0  0  0  0  0  0
   24.5989  -19.1282  -15.4383 O   0  0  0  0  0  0  0  0  0  0  0  0
   26.8567  -19.2810  -15.8100 N   0  0  0  0  0  0  0  0  0  0  0  0
   28.1207  -18.8753  -16.3849 C   0  0  0  0  0  0  0  0  0  0  0  0
   29.1874  -19.7796  -15.8454 C   0  0  0  0  0  0  0  0  0  0  0  0
   28.4175  -21.0132  -15.4361 C   0  0  0  0  0  0  0  0  0  0  0  0
   27.1116  -20.4200  -14.9541 C   0  0  1  0  0  0  0  0  0  0  0  0
   27.1029  -20.0857  -13.5295 C   0  0  0  0  0  0  0  0  0  0  0  0
   27.5242  -18.9361  -13.2043 O   0  0  0  0  0  0  0  0  0  0  0  0
   26.6689  -20.9266  -12.4919 N   0  0  0  0  0  0  0  0  0  0  0  0
   26.6155  -20.5228  -11.0746 C   0  0  1  0  0  0  0  0  0  0  0  0
   25.7342  -19.3338  -10.8916 C   0  0  0  0  0  0  0  0  0  0  0  0
   24.3443  -19.6575  -11.2160 C   0  0  0  0  0  0  0  0  0  0  0  0
   23.9218  -19.5984  -12.5229 C   0  0  0  0  0  0  0  0  0  0  0  0
   22.6197  -19.9164  -12.8359 C   0  0  0  0  0  0  0  0  0  0  0  0
   21.6912  -20.3013  -11.8852 C   0  0  0  0  0  0  0  0  0  0  0  0
   22.1044  -20.3645  -10.5663 C   0  0  0  0  0  0  0  0  0  0  0  0
   23.4091  -20.0451  -10.2581 C   0  0  0  0  0  0  0  0  0  0  0  0
   26.3204  -21.6582  -10.2104 C   0  0  0  0  0  0  0  0  0  0  0  0
   26.0539  -22.9348  -10.6599 O   0  0  0  0  0  0  0  0  0  0  0  0
   26.2946  -21.5071   -8.9405 O   0  0  0  0  0  0  0  0  0  0  0  0
  2  4  1  0
  2  1  1  6
  3  2  1  0
  4  6  1  0
  4  5  1  6
  6  8  1  0
  7  6  2  0
  8 12  1  0
  8  9  1  0
  9 10  1  0
 11 10  1  0
 12 11  1  0
 13 15  1  0
 12 13  1  1
 14 13  2  0
 16 15  1  0
 16 24  1  0
 16 17  1  6
 18 23  1  0
 18 17  1  0
 19 18  2  0
 20 21  2  0
 20 19  1  0
 21 22  1  0
 22 23  2  0
 24 25  1  0
 26 24  2  0
M  END
$$$$
