TPF.pdb
     RDKit          3D

 26 27  0  0  1  0  0  0  0  0999 V2000
   23.6406  -19.8820  -14.7232 C   0  0  0  0  0  0  0  0  0  0  0  0
   23.7440  -21.2484  -15.3726 C   0  0  1  0  0  0  0  0  0  0  0  0
   22.9668  -21.3485  -16.5163 O   0  0  0  0  0  0  0  0  0  0  0  0
   25.1788  -21.6634  -15.6040 C   0  0  2  0  0  0  0  0  0  0  0  0
   25.1429  -22.9630  -16.2352 N   0  0  0  0  0  0  0  0  0  0  0  0
   25.9504  -21.7467  -14.3511 C   0  0  0  0  0  0  0  0  0  0  0  0
   25.7424  -22.8019  -13.6557 O   0  0  0  0  0  0  0  0  0  0  0  0
   26.8648  -20.8122  -13.8570 N   0  0  0  0  0  0  0  0  0  0  0  0
   27.2393  -19.5793  -14.5147 C   0  0  0  0  0  0  0  0  0  0  0  0
   28.2210  -18.8645  -13.6361 C   0  0  0  0  0  0  0  0  0  0  0  0
   28.7990  -19.9757  -12.7915 C   0  0  0  0  0  0  0  0  0  0  0  0
   27.6040  -20.8867  -12.6149 C   0  0  1  0  0  0  0  0  0  0  0  0
   26.7906  -20.5756  -11.4389 C   0  0  0  0  0  0  0  0  0  0  0  0
   25.8122  -19.7884  -11.6062 O   0  0  0  0  0  0  0  0  0  0  0  0
   26.9990  -21.0727  -10.1421 N   0  0  0  0  0  0  0  0  0  0  0  0
   25.9573  -21.1099   -9.0989 C   0  0  1  0  0  0  0  0  0  0  0  0
   26.4784  -21.7302   -7.8468 C   0  0  0  0  0  0  0  0  0  0  0  0
   27.3546  -20.8035   -7.1289 C   0  0  0  0  0  0  0  0  0  0  0  0
   28.7124  -21.0187   -7.1262 C   0  0  0  0  0  0  0  0  0  0  0  0
   29.5426  -20.1421   -6.4654 C   0  0  0  0  0  0  0  0  0  0  0  0
   29.0746  -19.0303   -5.7880 C   0  0  0  0  0  0  0  0  0  0  0  0
   27.7099  -18.8029   -5.7834 C   0  0  0  0  0  0  0  0  0  0  0  0
   26.8828  -19.6836   -6.4465 C   0  0  0  0  0  0  0  0  0  0  0  0
   25.3244  -19.8078   -8.9347 C   0  0  0  0  0  0  0  0  0  0  0  0
   24.0107  -19.6185   -8.5591 O   0  0  0  0  0  0  0  0  0  0  0  0
   25.9948  -18.7387   -9.1438 O   0  0  0  0  0  0  0  0  0  0  0  0
  2  4  1  0
  2  1  1  6
  3  2  1  0
  4  6  1  0
  4  5  1  1
  6  8  1  0
  7  6  2  0
  8 12  1  0
  8  9  1  0
  9 10  1  0
 11 10  1  0
 12 11  1  0
 13 15  1  0
 12 13  1  1
 14 13  2  0
 16 15  1  0
 16 24  1  0
 16 17  1  1
 18 23  1  0
 18 17  1  0
 19 18  2  0
 20 21  2  0
 20 19  1  0
 21 22  1  0
 22 23  2  0
 24 25  1  0
 26 24  2  0
M  END
$$$$
