TPF.pdb
     RDKit          3D

 26 27  0  0  1  0  0  0  0  0999 V2000
   23.2417  -17.1006  -18.9804 C   0  0  0  0  0  0  0  0  0  0  0  0
   23.7048  -18.0037  -17.8537 C   0  0  1  0  0  0  0  0  0  0  0  0
   22.6873  -18.8160  -17.3773 O   0  0  0  0  0  0  0  0  0  0  0  0
   24.9488  -18.7804  -18.2192 C   0  0  2  0  0  0  0  0  0  0  0  0
   24.5989  -19.6333  -19.3322 N   0  0  0  0  0  0  0  0  0  0  0  0
   25.4455  -19.6063  -17.1042 C   0  0  0  0  0  0  0  0  0  0  0  0
   25.0270  -20.8167  -17.0981 O   0  0  0  0  0  0  0  0  0  0  0  0
   26.3071  -19.2111  -16.0771 N   0  0  0  0  0  0  0  0  0  0  0  0
   26.9111  -17.9029  -15.9483 C   0  0  0  0  0  0  0  0  0  0  0  0
   27.7390  -17.8951  -14.6989 C   0  0  0  0  0  0  0  0  0  0  0  0
   28.0330  -19.3594  -14.4722 C   0  0  0  0  0  0  0  0  0  0  0  0
   26.7578  -20.0123  -14.9592 C   0  0  1  0  0  0  0  0  0  0  0  0
   25.7417  -20.1765  -13.9191 C   0  0  0  0  0  0  0  0  0  0  0  0
   24.8934  -19.2445  -13.7893 O   0  0  0  0  0  0  0  0  0  0  0  0
   25.6242  -21.2754  -13.0527 N   0  0  0  0  0  0  0  0  0  0  0  0
   25.3751  -21.1570  -11.6040 C   0  0  1  0  0  0  0  0  0  0  0  0
   26.6528  -20.9783  -10.8559 C   0  0  0  0  0  0  0  0  0  0  0  0
   26.3965  -20.6556   -9.4516 C   0  0  0  0  0  0  0  0  0  0  0  0
   26.8052  -19.4429   -8.9491 C   0  0  0  0  0  0  0  0  0  0  0  0
   26.5533  -19.1278   -7.6331 C   0  0  0  0  0  0  0  0  0  0  0  0
   25.8962  -19.9846   -6.7682 C   0  0  0  0  0  0  0  0  0  0  0  0
   25.4799  -21.2081   -7.2621 C   0  0  0  0  0  0  0  0  0  0  0  0
   25.7345  -21.5189   -8.5804 C   0  0  0  0  0  0  0  0  0  0  0  0
   24.3427  -20.1681  -11.3225 C   0  0  0  0  0  0  0  0  0  0  0  0
   24.4446  -18.8248  -11.6193 O   0  0  0  0  0  0  0  0  0  0  0  0
   23.2501  -20.5246  -10.7611 O   0  0  0  0  0  0  0  0  0  0  0  0
  2  4  1  0
  2  1  1  6
  3  2  1  0
  4  6  1  0
  4  5  1  6
  6  8  1  0
  7  6  2  0
  8 12  1  0
  8  9  1  0
  9 10  1  0
 11 10  1  0
 12 11  1  0
 13 15  1  0
 12 13  1  1
 14 13  2  0
 16 15  1  0
 16 24  1  0
 16 17  1  1
 18 23  1  0
 18 17  1  0
 19 18  2  0
 20 21  2  0
 20 19  1  0
 21 22  1  0
 22 23  2  0
 24 25  1  0
 26 24  2  0
M  END
$$$$
