NKA.pdb
     RDKit          3D

 23 22  0  0  1  0  0  0  0  0999 V2000
   17.7416  -20.2235  -15.1190 N   0  0  0  0  0  0  0  0  0  0  0  0
   17.9030  -19.0769  -14.2997 C   0  0  0  0  0  0  0  0  0  0  0  0
   17.0002  -18.2195  -14.2648 O   0  0  0  0  0  0  0  0  0  0  0  0
   19.1407  -18.9347  -13.5095 C   0  0  0  0  0  0  0  0  0  0  0  0
   20.0214  -20.1421  -13.6115 C   0  0  2  0  0  0  0  0  0  0  0  0
   19.8364  -21.0820  -12.5376 N   0  0  0  0  0  0  0  0  0  0  0  0
   21.4283  -19.8057  -13.8703 C   0  0  0  0  0  0  0  0  0  0  0  0
   22.1094  -19.3614  -12.9097 O   0  0  0  0  0  0  0  0  0  0  0  0
   22.0532  -19.9530  -15.1323 N   0  0  0  0  0  0  0  0  0  0  0  0
   23.4533  -19.6887  -15.3139 C   0  0  1  0  0  0  0  0  0  0  0  0
   24.2596  -20.9095  -15.6971 C   0  0  0  0  0  0  0  0  0  0  0  0
   25.7171  -20.6291  -15.8553 C   0  0  0  0  0  0  0  0  0  0  0  0
   26.3740  -21.8777  -16.4102 C   0  0  0  0  0  0  0  0  0  0  0  0
   27.8650  -21.7484  -16.4894 C   0  0  0  0  0  0  0  0  0  0  0  0
   28.5236  -22.9150  -16.9889 N   0  0  0  0  0  0  0  0  0  0  0  0
   23.6205  -18.6330  -16.3239 C   0  0  0  0  0  0  0  0  0  0  0  0
   22.9434  -18.6680  -17.3775 O   0  0  0  0  0  0  0  0  0  0  0  0
   25.6065  -15.3937  -16.6421 C   0  0  0  0  0  0  0  0  0  0  0  0
   24.6400  -16.4557  -17.0886 C   0  0  2  0  0  0  0  0  0  0  0  0
   24.5253  -17.5483  -16.1746 N   0  0  0  0  0  0  0  0  0  0  0  0
   25.0449  -16.9542  -18.4294 C   0  0  0  0  0  0  0  0  0  0  0  0
   25.4056  -18.1548  -18.5103 O   0  0  0  0  0  0  0  0  0  0  0  0
   25.0206  -16.1068  -19.5483 O   0  0  0  0  0  0  0  0  0  0  0  0
  2  1  1  0
  3  2  2  0
  4  5  1  0
  4  2  1  0
  5  7  1  0
  5  6  1  1
  7  8  2  0
  9 10  1  0
  9  7  1  0
 11 12  1  0
 10 11  1  6
 12 13  1  0
 14 13  1  0
 15 14  1  0
 16 10  1  0
 16 17  2  0
 19 18  1  1
 19 20  1  0
 19 21  1  0
 20 16  1  0
 21 22  2  0
 21 23  1  0
M  END
$$$$
