NKA.pdb
     RDKit          3D

 23 22  0  0  1  0  0  0  0  0999 V2000
   16.1098  -13.1617  -15.9046 N   0  0  0  0  0  0  0  0  0  0  0  0
   16.2532  -12.3931  -14.7211 C   0  0  0  0  0  0  0  0  0  0  0  0
   15.3653  -12.4435  -13.8490 O   0  0  0  0  0  0  0  0  0  0  0  0
   17.4558  -11.5541  -14.5580 C   0  0  0  0  0  0  0  0  0  0  0  0
   18.3641  -11.6265  -15.7471 C   0  0  2  0  0  0  0  0  0  0  0  0
   18.9739  -12.9174  -15.9279 N   0  0  0  0  0  0  0  0  0  0  0  0
   19.3136  -10.5070  -15.8127 C   0  0  0  0  0  0  0  0  0  0  0  0
   20.3593  -10.5857  -15.1166 O   0  0  0  0  0  0  0  0  0  0  0  0
   19.1164   -9.3537  -16.6101 N   0  0  0  0  0  0  0  0  0  0  0  0
   20.1121   -8.3224  -16.7006 C   0  0  1  0  0  0  0  0  0  0  0  0
   20.0128   -7.4877  -17.9580 C   0  0  0  0  0  0  0  0  0  0  0  0
   20.4325   -8.2210  -19.1885 C   0  0  0  0  0  0  0  0  0  0  0  0
   20.2914   -7.2753  -20.3650 C   0  0  0  0  0  0  0  0  0  0  0  0
   20.7695   -7.8872  -21.6469 C   0  0  0  0  0  0  0  0  0  0  0  0
   20.7132   -7.0032  -22.7691 N   0  0  0  0  0  0  0  0  0  0  0  0
   20.0274   -7.4607  -15.5120 C   0  0  0  0  0  0  0  0  0  0  0  0
   18.9128   -7.2347  -14.9863 O   0  0  0  0  0  0  0  0  0  0  0  0
   21.4369   -6.6017  -12.4805 C   0  0  0  0  0  0  0  0  0  0  0  0
   21.1042   -5.9558  -13.7972 C   0  0  2  0  0  0  0  0  0  0  0  0
   21.1604   -6.8537  -14.9075 N   0  0  0  0  0  0  0  0  0  0  0  0
   22.0202   -4.8071  -14.0247 C   0  0  0  0  0  0  0  0  0  0  0  0
   22.7762   -4.8657  -15.0261 O   0  0  0  0  0  0  0  0  0  0  0  0
   22.0288   -3.7106  -13.1481 O   0  0  0  0  0  0  0  0  0  0  0  0
  2  1  1  0
  3  2  2  0
  4  5  1  0
  4  2  1  0
  5  7  1  0
  5  6  1  1
  7  8  2  0
  9 10  1  0
  9  7  1  0
 11 12  1  0
 10 11  1  6
 12 13  1  0
 14 13  1  0
 15 14  1  0
 16 10  1  0
 16 17  2  0
 19 18  1  1
 19 20  1  0
 19 21  1  0
 20 16  1  0
 21 22  2  0
 21 23  1  0
M  END
$$$$
