NKA.pdb
     RDKit          3D

 23 22  0  0  1  0  0  0  0  0999 V2000
   26.8526  -13.6402  -15.0188 N   0  0  0  0  0  0  0  0  0  0  0  0
   26.7775  -13.2091  -16.3680 C   0  0  0  0  0  0  0  0  0  0  0  0
   27.4632  -13.7868  -17.2326 O   0  0  0  0  0  0  0  0  0  0  0  0
   25.8847  -12.0847  -16.7079 C   0  0  0  0  0  0  0  0  0  0  0  0
   24.5042  -12.5438  -17.0647 C   0  0  2  0  0  0  0  0  0  0  0  0
   24.4688  -13.4431  -18.1876 N   0  0  0  0  0  0  0  0  0  0  0  0
   23.5386  -11.4400  -17.1574 C   0  0  0  0  0  0  0  0  0  0  0  0
   23.5339  -10.7545  -18.2130 O   0  0  0  0  0  0  0  0  0  0  0  0
   22.6212  -11.1088  -16.1311 N   0  0  0  0  0  0  0  0  0  0  0  0
   21.6162  -10.0996  -16.3172 C   0  0  1  0  0  0  0  0  0  0  0  0
   20.2518  -10.4946  -15.7977 C   0  0  0  0  0  0  0  0  0  0  0  0
   19.2010   -9.4665  -16.0558 C   0  0  0  0  0  0  0  0  0  0  0  0
   17.9073   -9.9572  -15.4363 C   0  0  0  0  0  0  0  0  0  0  0  0
   16.8084   -8.9429  -15.5363 C   0  0  0  0  0  0  0  0  0  0  0  0
   15.5658   -9.3756  -14.9771 N   0  0  0  0  0  0  0  0  0  0  0  0
   22.0593   -8.8506  -15.6799 C   0  0  0  0  0  0  0  0  0  0  0  0
   22.5807   -8.8848  -14.5412 O   0  0  0  0  0  0  0  0  0  0  0  0
   22.2222   -5.1576  -16.6076 C   0  0  0  0  0  0  0  0  0  0  0  0
   22.3167   -6.3409  -15.6843 C   0  0  2  0  0  0  0  0  0  0  0  0
   21.9297   -7.5752  -16.2916 N   0  0  0  0  0  0  0  0  0  0  0  0
   21.4890   -6.0867  -14.4758 C   0  0  0  0  0  0  0  0  0  0  0  0
   20.3100   -6.5201  -14.4864 O   0  0  0  0  0  0  0  0  0  0  0  0
   22.0165   -5.3897  -13.3774 O   0  0  0  0  0  0  0  0  0  0  0  0
  2  1  1  0
  3  2  2  0
  4  5  1  0
  4  2  1  0
  5  7  1  0
  5  6  1  6
  7  8  2  0
  9 10  1  0
  9  7  1  0
 11 12  1  0
 10 11  1  1
 12 13  1  0
 14 13  1  0
 15 14  1  0
 16 10  1  0
 16 17  2  0
 19 18  1  6
 19 20  1  0
 19 21  1  0
 20 16  1  0
 21 22  2  0
 21 23  1  0
M  END
$$$$
