NKA.pdb
     RDKit          3D

 23 22  0  0  1  0  0  0  0  0999 V2000
   18.0550   -7.2926  -12.7871 N   0  0  0  0  0  0  0  0  0  0  0  0
   19.0379   -8.1250  -12.1929 C   0  0  0  0  0  0  0  0  0  0  0  0
   18.9235   -8.4450  -10.9946 O   0  0  0  0  0  0  0  0  0  0  0  0
   20.1706   -8.5893  -13.0165 C   0  0  0  0  0  0  0  0  0  0  0  0
   20.1434   -8.0099  -14.3976 C   0  0  2  0  0  0  0  0  0  0  0  0
   18.9531   -8.3388  -15.1366 N   0  0  0  0  0  0  0  0  0  0  0  0
   21.3883   -8.2438  -15.1425 C   0  0  0  0  0  0  0  0  0  0  0  0
   22.4749   -8.1116  -14.5212 O   0  0  0  0  0  0  0  0  0  0  0  0
   21.4303   -8.6066  -16.5105 N   0  0  0  0  0  0  0  0  0  0  0  0
   22.6756   -8.8090  -17.1972 C   0  0  1  0  0  0  0  0  0  0  0  0
   22.5908   -9.8040  -18.3331 C   0  0  0  0  0  0  0  0  0  0  0  0
   22.2891  -11.1937  -17.8797 C   0  0  0  0  0  0  0  0  0  0  0  0
   22.3017  -12.0944  -19.0991 C   0  0  0  0  0  0  0  0  0  0  0  0
   22.1149  -13.5379  -18.7418 C   0  0  0  0  0  0  0  0  0  0  0  0
   22.1206  -14.4203  -19.8667 N   0  0  0  0  0  0  0  0  0  0  0  0
   23.1725   -7.5163  -17.6916 C   0  0  0  0  0  0  0  0  0  0  0  0
   22.3654   -6.6734  -18.1476 O   0  0  0  0  0  0  0  0  0  0  0  0
   26.5228   -5.7100  -17.8705 C   0  0  0  0  0  0  0  0  0  0  0  0
   25.0603   -5.9092  -18.1585 C   0  0  2  0  0  0  0  0  0  0  0  0
   24.5462   -7.1550  -17.6833 N   0  0  0  0  0  0  0  0  0  0  0  0
   24.8283   -5.7878  -19.6220 C   0  0  0  0  0  0  0  0  0  0  0  0
   25.0867   -4.6795  -20.1539 O   0  0  0  0  0  0  0  0  0  0  0  0
   24.3401   -6.8746  -20.3645 O   0  0  0  0  0  0  0  0  0  0  0  0
  2  1  1  0
  3  2  2  0
  4  5  1  0
  4  2  1  0
  5  7  1  0
  5  6  1  6
  7  8  2  0
  9 10  1  0
  9  7  1  0
 11 12  1  0
 10 11  1  6
 12 13  1  0
 14 13  1  0
 15 14  1  0
 16 10  1  0
 16 17  2  0
 19 18  1  6
 19 20  1  0
 19 21  1  0
 20 16  1  0
 21 22  2  0
 21 23  1  0
M  END
$$$$
