NKA.pdb
     RDKit          3D

 23 22  0  0  1  0  0  0  0  0999 V2000
   27.9460  -33.2373   -6.0379 N   0  0  0  0  0  0  0  0  0  0  0  0
   27.4987  -33.5940   -4.7399 C   0  0  0  0  0  0  0  0  0  0  0  0
   26.4759  -33.0546   -4.2769 O   0  0  0  0  0  0  0  0  0  0  0  0
   28.2617  -34.5984   -3.9746 C   0  0  0  0  0  0  0  0  0  0  0  0
   29.4386  -35.1214   -4.7398 C   0  0  2  0  0  0  0  0  0  0  0  0
   29.0749  -35.9229   -5.8783 N   0  0  0  0  0  0  0  0  0  0  0  0
   30.4540  -35.7413   -3.8773 C   0  0  0  0  0  0  0  0  0  0  0  0
   30.2547  -36.9245   -3.4970 O   0  0  0  0  0  0  0  0  0  0  0  0
   31.6346  -35.0840   -3.4543 N   0  0  0  0  0  0  0  0  0  0  0  0
   32.5468  -35.6970   -2.5294 C   0  0  1  0  0  0  0  0  0  0  0  0
   33.9278  -35.0805   -2.5359 C   0  0  0  0  0  0  0  0  0  0  0  0
   34.9103  -35.8233   -1.6927 C   0  0  0  0  0  0  0  0  0  0  0  0
   36.2283  -35.0759   -1.7458 C   0  0  0  0  0  0  0  0  0  0  0  0
   37.3287  -35.8133   -1.0446 C   0  0  0  0  0  0  0  0  0  0  0  0
   38.6201  -35.2220   -1.2077 N   0  0  0  0  0  0  0  0  0  0  0  0
   31.9740  -35.6437   -1.1760 C   0  0  0  0  0  0  0  0  0  0  0  0
   31.3471  -34.6240   -0.8061 O   0  0  0  0  0  0  0  0  0  0  0  0
   30.4413  -37.7651    1.2399 C   0  0  0  0  0  0  0  0  0  0  0  0
   31.4955  -36.7078    1.0608 C   0  0  2  0  0  0  0  0  0  0  0  0
   32.0903  -36.7045   -0.2385 N   0  0  0  0  0  0  0  0  0  0  0  0
   32.5443  -36.8808    2.1003 C   0  0  0  0  0  0  0  0  0  0  0  0
   33.7023  -37.1654    1.7051 O   0  0  0  0  0  0  0  0  0  0  0  0
   32.2381  -36.7299    3.4619 O   0  0  0  0  0  0  0  0  0  0  0  0
  2  1  1  0
  3  2  2  0
  4  5  1  0
  4  2  1  0
  5  7  1  0
  5  6  1  6
  7  8  2  0
  9 10  1  0
  9  7  1  0
 11 12  1  0
 10 11  1  1
 12 13  1  0
 14 13  1  0
 15 14  1  0
 16 10  1  0
 16 17  2  0
 19 18  1  6
 19 20  1  0
 19 21  1  0
 20 16  1  0
 21 22  2  0
 21 23  1  0
M  END
$$$$
