NKA.pdb
     RDKit          3D

 23 22  0  0  1  0  0  0  0  0999 V2000
   27.5051  -10.3283  -15.4908 N   0  0  0  0  0  0  0  0  0  0  0  0
   26.8258  -11.1654  -16.4126 C   0  0  0  0  0  0  0  0  0  0  0  0
   27.3726  -12.2145  -16.8024 O   0  0  0  0  0  0  0  0  0  0  0  0
   25.4856  -10.7665  -16.8832 C   0  0  0  0  0  0  0  0  0  0  0  0
   25.0041   -9.5093  -16.2263 C   0  0  2  0  0  0  0  0  0  0  0  0
   25.1000   -9.5368  -14.7907 N   0  0  0  0  0  0  0  0  0  0  0  0
   23.6949   -9.0664  -16.7255 C   0  0  0  0  0  0  0  0  0  0  0  0
   23.5494   -8.9610  -17.9713 O   0  0  0  0  0  0  0  0  0  0  0  0
   22.5977   -8.7538  -15.8869 N   0  0  0  0  0  0  0  0  0  0  0  0
   21.3416   -8.3112  -16.4251 C   0  0  1  0  0  0  0  0  0  0  0  0
   20.1410   -9.0032  -15.8192 C   0  0  0  0  0  0  0  0  0  0  0  0
   18.8425   -8.5476  -16.3973 C   0  0  0  0  0  0  0  0  0  0  0  0
   17.7312   -9.3149  -15.7083 C   0  0  0  0  0  0  0  0  0  0  0  0
   16.3881   -9.0347  -16.3115 C   0  0  0  0  0  0  0  0  0  0  0  0
   15.3237   -9.7995  -15.7403 N   0  0  0  0  0  0  0  0  0  0  0  0
   21.2271   -6.8551  -16.2546 C   0  0  0  0  0  0  0  0  0  0  0  0
   21.4441   -6.3417  -15.1325 O   0  0  0  0  0  0  0  0  0  0  0  0
   20.3544   -3.8599  -18.4487 C   0  0  0  0  0  0  0  0  0  0  0  0
   20.7052   -4.5610  -17.1655 C   0  0  2  0  0  0  0  0  0  0  0  0
   20.8770   -5.9722  -17.3108 N   0  0  0  0  0  0  0  0  0  0  0  0
   19.6569   -4.2778  -16.1500 C   0  0  0  0  0  0  0  0  0  0  0  0
   19.9329   -3.4355  -15.2599 O   0  0  0  0  0  0  0  0  0  0  0  0
   18.4160   -4.9326  -16.1968 O   0  0  0  0  0  0  0  0  0  0  0  0
  2  1  1  0
  3  2  2  0
  4  5  1  0
  4  2  1  0
  5  7  1  0
  5  6  1  1
  7  8  2  0
  9 10  1  0
  9  7  1  0
 11 12  1  0
 10 11  1  1
 12 13  1  0
 14 13  1  0
 15 14  1  0
 16 10  1  0
 16 17  2  0
 19 18  1  6
 19 20  1  0
 19 21  1  0
 20 16  1  0
 21 22  2  0
 21 23  1  0
M  END
$$$$
