NKA.pdb
     RDKit          3D

 23 22  0  0  1  0  0  0  0  0999 V2000
   15.6426  -11.5474  -16.9528 N   0  0  0  0  0  0  0  0  0  0  0  0
   15.6508  -10.7337  -15.7910 C   0  0  0  0  0  0  0  0  0  0  0  0
   14.5707  -10.3266  -15.3231 O   0  0  0  0  0  0  0  0  0  0  0  0
   16.9446  -10.3934  -15.1688 C   0  0  0  0  0  0  0  0  0  0  0  0
   18.1046  -10.9775  -15.9153 C   0  0  2  0  0  0  0  0  0  0  0  0
   18.2355  -12.4014  -15.7530 N   0  0  0  0  0  0  0  0  0  0  0  0
   19.3561  -10.2379  -15.7004 C   0  0  0  0  0  0  0  0  0  0  0  0
   19.8958  -10.3192  -14.5663 O   0  0  0  0  0  0  0  0  0  0  0  0
   19.9817   -9.4449  -16.6926 N   0  0  0  0  0  0  0  0  0  0  0  0
   21.2309   -8.7798  -16.4469 C   0  0  1  0  0  0  0  0  0  0  0  0
   22.1637   -8.7753  -17.6375 C   0  0  0  0  0  0  0  0  0  0  0  0
   23.4741   -8.1172  -17.3588 C   0  0  0  0  0  0  0  0  0  0  0  0
   24.2614   -8.0804  -18.6538 C   0  0  0  0  0  0  0  0  0  0  0  0
   25.5790   -7.3831  -18.4985 C   0  0  0  0  0  0  0  0  0  0  0  0
   26.3334   -7.2902  -19.7095 N   0  0  0  0  0  0  0  0  0  0  0  0
   20.9682   -7.4026  -16.0035 C   0  0  0  0  0  0  0  0  0  0  0  0
   20.1408   -6.6966  -16.6254 O   0  0  0  0  0  0  0  0  0  0  0  0
   21.8097   -5.3086  -12.9505 C   0  0  0  0  0  0  0  0  0  0  0  0
   21.2701   -5.5336  -14.3361 C   0  0  2  0  0  0  0  0  0  0  0  0
   21.6107   -6.8084  -14.8847 N   0  0  0  0  0  0  0  0  0  0  0  0
   21.7518   -4.4490  -15.2315 C   0  0  0  0  0  0  0  0  0  0  0  0
   22.8219   -4.6539  -15.8567 O   0  0  0  0  0  0  0  0  0  0  0  0
   21.0305   -3.2517  -15.3620 O   0  0  0  0  0  0  0  0  0  0  0  0
  2  1  1  0
  3  2  2  0
  4  5  1  0
  4  2  1  0
  5  7  1  0
  5  6  1  1
  7  8  2  0
  9 10  1  0
  9  7  1  0
 11 12  1  0
 10 11  1  6
 12 13  1  0
 14 13  1  0
 15 14  1  0
 16 10  1  0
 16 17  2  0
 19 18  1  1
 19 20  1  0
 19 21  1  0
 20 16  1  0
 21 22  2  0
 21 23  1  0
M  END
$$$$
