NKA.pdb
     RDKit          3D

 23 22  0  0  1  0  0  0  0  0999 V2000
   13.3557  -12.2943  -11.6422 N   0  0  0  0  0  0  0  0  0  0  0  0
   13.0299  -11.6749  -10.4085 C   0  0  0  0  0  0  0  0  0  0  0  0
   11.9203  -11.8971   -9.8880 O   0  0  0  0  0  0  0  0  0  0  0  0
   14.0201  -10.7827   -9.7759 C   0  0  0  0  0  0  0  0  0  0  0  0
   15.2832  -10.6795  -10.5747 C   0  0  2  0  0  0  0  0  0  0  0  0
   16.0459  -11.8995  -10.6060 N   0  0  0  0  0  0  0  0  0  0  0  0
   16.0787   -9.4904  -10.2390 C   0  0  0  0  0  0  0  0  0  0  0  0
   16.8509   -9.5644   -9.2478 O   0  0  0  0  0  0  0  0  0  0  0  0
   16.0230   -8.2759  -10.9647 N   0  0  0  0  0  0  0  0  0  0  0  0
   16.8749   -7.1659  -10.6402 C   0  0  1  0  0  0  0  0  0  0  0  0
   17.8419   -6.7968  -11.7430 C   0  0  0  0  0  0  0  0  0  0  0  0
   18.9231   -7.8062  -11.9430 C   0  0  0  0  0  0  0  0  0  0  0  0
   19.7714   -7.3539  -13.1152 C   0  0  0  0  0  0  0  0  0  0  0  0
   20.8105   -8.3670  -13.4896 C   0  0  0  0  0  0  0  0  0  0  0  0
   21.6301   -7.9776  -14.5944 N   0  0  0  0  0  0  0  0  0  0  0  0
   16.0449   -6.0054  -10.2842 C   0  0  0  0  0  0  0  0  0  0  0  0
   15.2221   -5.5520  -11.1131 O   0  0  0  0  0  0  0  0  0  0  0  0
   15.3769   -3.8891   -7.1978 C   0  0  0  0  0  0  0  0  0  0  0  0
   15.3737   -4.1843   -8.6724 C   0  0  2  0  0  0  0  0  0  0  0  0
   16.1202   -5.3504   -9.0260 N   0  0  0  0  0  0  0  0  0  0  0  0
   15.8950   -3.0032   -9.4096 C   0  0  0  0  0  0  0  0  0  0  0  0
   17.0472   -3.0966   -9.9013 O   0  0  0  0  0  0  0  0  0  0  0  0
   15.1209   -1.8397   -9.5417 O   0  0  0  0  0  0  0  0  0  0  0  0
  2  1  1  0
  3  2  2  0
  4  5  1  0
  4  2  1  0
  5  7  1  0
  5  6  1  1
  7  8  2  0
  9 10  1  0
  9  7  1  0
 11 12  1  0
 10 11  1  6
 12 13  1  0
 14 13  1  0
 15 14  1  0
 16 10  1  0
 16 17  2  0
 19 18  1  1
 19 20  1  0
 19 21  1  0
 20 16  1  0
 21 22  2  0
 21 23  1  0
M  END
$$$$
