NKA.pdb
     RDKit          3D

 23 22  0  0  1  0  0  0  0  0999 V2000
   26.7775  -14.2081  -15.9352 N   0  0  0  0  0  0  0  0  0  0  0  0
   27.1536  -12.9095  -15.5062 C   0  0  0  0  0  0  0  0  0  0  0  0
   28.1788  -12.7685  -14.8129 O   0  0  0  0  0  0  0  0  0  0  0  0
   26.3157  -11.7597  -15.8969 C   0  0  0  0  0  0  0  0  0  0  0  0
   25.0439  -12.1849  -16.5646 C   0  0  2  0  0  0  0  0  0  0  0  0
   25.2516  -12.8993  -17.7965 N   0  0  0  0  0  0  0  0  0  0  0  0
   24.0588  -11.0994  -16.6666 C   0  0  0  0  0  0  0  0  0  0  0  0
   24.0752  -10.3909  -17.7068 O   0  0  0  0  0  0  0  0  0  0  0  0
   23.1004  -10.8099  -15.6654 N   0  0  0  0  0  0  0  0  0  0  0  0
   22.0987   -9.7976  -15.8530 C   0  0  1  0  0  0  0  0  0  0  0  0
   20.7117  -10.2266  -15.4293 C   0  0  0  0  0  0  0  0  0  0  0  0
   19.6826   -9.1607  -15.6102 C   0  0  0  0  0  0  0  0  0  0  0  0
   18.3454   -9.7253  -15.1727 C   0  0  0  0  0  0  0  0  0  0  0  0
   17.2149   -8.7763  -15.4330 C   0  0  0  0  0  0  0  0  0  0  0  0
   15.9205   -9.3369  -15.2002 N   0  0  0  0  0  0  0  0  0  0  0  0
   22.4967   -8.5814  -15.1286 C   0  0  0  0  0  0  0  0  0  0  0  0
   22.8737   -8.6632  -13.9365 O   0  0  0  0  0  0  0  0  0  0  0  0
   23.0810   -4.9170  -15.9458 C   0  0  0  0  0  0  0  0  0  0  0  0
   22.8384   -6.0838  -15.0286 C   0  0  2  0  0  0  0  0  0  0  0  0
   22.4801   -7.2865  -15.7122 N   0  0  0  0  0  0  0  0  0  0  0  0
   21.7828   -5.7231  -14.0458 C   0  0  0  0  0  0  0  0  0  0  0  0
   20.6257   -6.1632  -14.2591 O   0  0  0  0  0  0  0  0  0  0  0  0
   22.0817   -4.9231  -12.9316 O   0  0  0  0  0  0  0  0  0  0  0  0
  2  1  1  0
  3  2  2  0
  4  5  1  0
  4  2  1  0
  5  7  1  0
  5  6  1  6
  7  8  2  0
  9 10  1  0
  9  7  1  0
 11 12  1  0
 10 11  1  1
 12 13  1  0
 14 13  1  0
 15 14  1  0
 16 10  1  0
 16 17  2  0
 19 18  1  6
 19 20  1  0
 19 21  1  0
 20 16  1  0
 21 22  2  0
 21 23  1  0
M  END
$$$$
