YVQ.pdb
     RDKit          3D

 29 29  0  0  1  0  0  0  0  0999 V2000
    6.4857  -21.2946   18.7111 O   0  0  0  0  0  0  0  0  0  0  0  0
    7.0580  -20.4045   19.6187 C   0  0  0  0  0  0  0  0  0  0  0  0
    6.3823  -20.0316   20.7603 C   0  0  0  0  0  0  0  0  0  0  0  0
    6.9675  -19.1408   21.6580 C   0  0  0  0  0  0  0  0  0  0  0  0
    8.2250  -18.6197   21.4213 C   0  0  0  0  0  0  0  0  0  0  0  0
    8.8182  -17.6730   22.3983 C   0  0  0  0  0  0  0  0  0  0  0  0
    8.2684  -16.2957   22.1166 C   0  0  2  0  0  0  0  0  0  0  0  0
    8.7780  -15.8579   20.8409 N   0  0  0  0  0  0  0  0  0  0  0  0
    8.7733  -15.3987   23.2140 C   0  0  0  0  0  0  0  0  0  0  0  0
    9.9819  -15.0758   23.2378 O   0  0  0  0  0  0  0  0  0  0  0  0
    8.8639  -19.0176   20.2717 C   0  0  0  0  0  0  0  0  0  0  0  0
    8.3119  -19.8944   19.3685 C   0  0  0  0  0  0  0  0  0  0  0  0
    7.3709  -12.5067   26.9945 C   0  0  0  0  0  0  0  0  0  0  0  0
    7.1289  -13.2499   25.7138 C   0  0  1  0  0  0  0  0  0  0  0  0
    6.5870  -12.4079   24.6205 C   0  0  0  0  0  0  0  0  0  0  0  0
    8.3327  -14.0931   25.3453 C   0  0  2  0  0  0  0  0  0  0  0  0
    7.8887  -14.9200   24.2156 N   0  0  0  0  0  0  0  0  0  0  0  0
    8.7126  -15.0122   26.4727 C   0  0  0  0  0  0  0  0  0  0  0  0
    7.8810  -15.8710   26.9104 O   0  0  0  0  0  0  0  0  0  0  0  0
   14.3757  -17.3209   27.6523 N   0  0  0  0  0  0  0  0  0  0  0  0
   13.5207  -17.3328   26.5204 C   0  0  0  0  0  0  0  0  0  0  0  0
   13.9771  -17.7226   25.4309 O   0  0  0  0  0  0  0  0  0  0  0  0
   12.1093  -16.8990   26.5914 C   0  0  0  0  0  0  0  0  0  0  0  0
   11.7524  -16.4498   27.9732 C   0  0  0  0  0  0  0  0  0  0  0  0
   10.3213  -16.0121   28.0699 C   0  0  2  0  0  0  0  0  0  0  0  0
    9.9788  -14.9860   27.1021 N   0  0  0  0  0  0  0  0  0  0  0  0
   10.1285  -15.4246   29.4338 C   0  0  0  0  0  0  0  0  0  0  0  0
   10.1868  -16.2305   30.5602 O   0  0  0  0  0  0  0  0  0  0  0  0
    9.9115  -14.2019   29.6030 O   0  0  0  0  0  0  0  0  0  0  0  0
  2  1  1  0
  3  2  2  0
  4  3  1  0
  5  4  2  0
  5 11  1  0
  6  5  1  0
  7  9  1  0
  7  6  1  0
  7  8  1  6
  9 17  1  0
 10  9  2  0
 11 12  2  0
 12  2  1  0
 14 13  1  1
 14 15  1  0
 16 14  1  0
 16 18  1  0
 16 17  1  6
 18 26  1  0
 18 19  2  0
 20 21  1  0
 21 23  1  0
 22 21  2  0
 23 24  1  0
 25 24  1  6
 25 27  1  0
 26 25  1  0
 27 29  2  0
 27 28  1  0
M  END
$$$$
