YVQ.pdb
     RDKit          3D

 29 29  0  0  1  0  0  0  0  0999 V2000
    7.9636  -21.5423   11.7960 O   0  0  0  0  0  0  0  0  0  0  0  0
    8.4662  -20.5212   12.6011 C   0  0  0  0  0  0  0  0  0  0  0  0
    9.5784  -19.8043   12.2166 C   0  0  0  0  0  0  0  0  0  0  0  0
   10.0689  -18.7865   13.0322 C   0  0  0  0  0  0  0  0  0  0  0  0
    9.4542  -18.4808   14.2312 C   0  0  0  0  0  0  0  0  0  0  0  0
   10.0035  -17.3909   15.0757 C   0  0  0  0  0  0  0  0  0  0  0  0
    9.0494  -16.2224   15.0203 C   0  0  2  0  0  0  0  0  0  0  0  0
    9.1078  -15.6537   13.6967 N   0  0  0  0  0  0  0  0  0  0  0  0
    9.5327  -15.2243   16.0371 C   0  0  0  0  0  0  0  0  0  0  0  0
   10.5800  -14.5771   15.8145 O   0  0  0  0  0  0  0  0  0  0  0  0
    8.3485  -19.2196   14.5768 C   0  0  0  0  0  0  0  0  0  0  0  0
    7.8421  -20.2286   13.7928 C   0  0  0  0  0  0  0  0  0  0  0  0
    8.4081  -13.1866   20.4389 C   0  0  0  0  0  0  0  0  0  0  0  0
    8.0350  -13.8061   19.1243 C   0  0  1  0  0  0  0  0  0  0  0  0
    6.9611  -13.0849   18.4003 C   0  0  0  0  0  0  0  0  0  0  0  0
    9.2716  -14.1168   18.3056 C   0  0  2  0  0  0  0  0  0  0  0  0
    8.8086  -15.0152   17.2399 N   0  0  0  0  0  0  0  0  0  0  0  0
   10.2902  -14.8569   19.1273 C   0  0  0  0  0  0  0  0  0  0  0  0
   10.0699  -16.0546   19.4984 O   0  0  0  0  0  0  0  0  0  0  0  0
   16.2758  -14.5637   19.0106 N   0  0  0  0  0  0  0  0  0  0  0  0
   16.1216  -15.3215   20.1998 C   0  0  0  0  0  0  0  0  0  0  0  0
   17.0837  -15.9967   20.6072 O   0  0  0  0  0  0  0  0  0  0  0  0
   14.8596  -15.3363   20.9696 C   0  0  0  0  0  0  0  0  0  0  0  0
   13.8372  -14.4397   20.3455 C   0  0  0  0  0  0  0  0  0  0  0  0
   12.5077  -15.1184   20.2009 C   0  0  2  0  0  0  0  0  0  0  0  0
   11.5222  -14.2908   19.5295 N   0  0  0  0  0  0  0  0  0  0  0  0
   11.9974  -15.3926   21.5818 C   0  0  0  0  0  0  0  0  0  0  0  0
   11.1043  -14.5216   22.1863 O   0  0  0  0  0  0  0  0  0  0  0  0
   12.3538  -16.4042   22.2302 O   0  0  0  0  0  0  0  0  0  0  0  0
  2  1  1  0
  3  2  2  0
  4  3  1  0
  5  4  2  0
  5 11  1  0
  6  5  1  0
  7  9  1  0
  7  6  1  0
  7  8  1  6
  9 17  1  0
 10  9  2  0
 11 12  2  0
 12  2  1  0
 14 13  1  1
 14 15  1  0
 16 14  1  0
 16 18  1  0
 16 17  1  6
 18 26  1  0
 18 19  2  0
 20 21  1  0
 21 23  1  0
 22 21  2  0
 23 24  1  0
 25 24  1  1
 25 27  1  0
 26 25  1  0
 27 29  2  0
 27 28  1  0
M  END
$$$$
