YVQ.pdb
     RDKit          3D

 29 29  0  0  1  0  0  0  0  0999 V2000
    7.2718  -13.9400   15.3967 O   0  0  0  0  0  0  0  0  0  0  0  0
    7.7555  -13.8873   16.7032 C   0  0  0  0  0  0  0  0  0  0  0  0
    8.8603  -14.6221   17.0751 C   0  0  0  0  0  0  0  0  0  0  0  0
    9.3318  -14.5589   18.3848 C   0  0  0  0  0  0  0  0  0  0  0  0
    8.7051  -13.7653   19.3262 C   0  0  0  0  0  0  0  0  0  0  0  0
    9.2336  -13.7220   20.7123 C   0  0  0  0  0  0  0  0  0  0  0  0
    8.6896  -14.9127   21.4639 C   0  0  2  0  0  0  0  0  0  0  0  0
    7.2569  -14.9322   21.3033 N   0  0  0  0  0  0  0  0  0  0  0  0
    9.0480  -14.7081   22.9108 C   0  0  0  0  0  0  0  0  0  0  0  0
   10.2433  -14.5168   23.2275 O   0  0  0  0  0  0  0  0  0  0  0  0
    7.6074  -13.0491   18.9138 C   0  0  0  0  0  0  0  0  0  0  0  0
    7.1200  -13.0914   17.6293 C   0  0  0  0  0  0  0  0  0  0  0  0
    7.2266  -13.6273   27.3723 C   0  0  0  0  0  0  0  0  0  0  0  0
    7.0892  -13.8549   25.8957 C   0  0  1  0  0  0  0  0  0  0  0  0
    6.6199  -12.6671   25.1430 C   0  0  0  0  0  0  0  0  0  0  0  0
    8.3271  -14.5272   25.3374 C   0  0  2  0  0  0  0  0  0  0  0  0
    8.0413  -14.7304   23.9111 N   0  0  0  0  0  0  0  0  0  0  0  0
    8.5374  -15.8768   25.9658 C   0  0  0  0  0  0  0  0  0  0  0  0
    7.5794  -16.7127   26.0300 O   0  0  0  0  0  0  0  0  0  0  0  0
   11.1924  -19.5889   23.1217 N   0  0  0  0  0  0  0  0  0  0  0  0
   11.5980  -19.3914   24.4666 C   0  0  0  0  0  0  0  0  0  0  0  0
   12.1904  -20.3142   25.0538 O   0  0  0  0  0  0  0  0  0  0  0  0
   11.3414  -18.1293   25.1924 C   0  0  0  0  0  0  0  0  0  0  0  0
   11.0599  -18.3873   26.6390 C   0  0  0  0  0  0  0  0  0  0  0  0
    9.8800  -17.6028   27.1306 C   0  0  2  0  0  0  0  0  0  0  0  0
    9.7741  -16.2951   26.5097 N   0  0  0  0  0  0  0  0  0  0  0  0
   10.0720  -17.3875   28.6000 C   0  0  0  0  0  0  0  0  0  0  0  0
   10.0663  -18.4634   29.4742 O   0  0  0  0  0  0  0  0  0  0  0  0
   10.2425  -16.2443   29.0846 O   0  0  0  0  0  0  0  0  0  0  0  0
  2  1  1  0
  3  2  2  0
  4  3  1  0
  5  4  2  0
  5 11  1  0
  6  5  1  0
  7  9  1  0
  7  6  1  0
  7  8  1  1
  9 17  1  0
 10  9  2  0
 11 12  2  0
 12  2  1  0
 14 13  1  1
 14 15  1  0
 16 14  1  0
 16 18  1  0
 16 17  1  6
 18 26  1  0
 18 19  2  0
 20 21  1  0
 21 23  1  0
 22 21  2  0
 23 24  1  0
 25 24  1  6
 25 27  1  0
 26 25  1  0
 27 29  2  0
 27 28  1  0
M  END
$$$$
