YVQ.pdb
     RDKit          3D

 29 29  0  0  1  0  0  0  0  0999 V2000
    9.3278  -19.1305   29.5340 O   0  0  0  0  0  0  0  0  0  0  0  0
    8.5694  -19.1543   28.3644 C   0  0  0  0  0  0  0  0  0  0  0  0
    7.2385  -19.5101   28.3955 C   0  0  0  0  0  0  0  0  0  0  0  0
    6.4937  -19.5293   27.2180 C   0  0  0  0  0  0  0  0  0  0  0  0
    7.0715  -19.1952   26.0083 C   0  0  0  0  0  0  0  0  0  0  0  0
    6.2489  -19.2267   24.7733 C   0  0  0  0  0  0  0  0  0  0  0  0
    5.4789  -17.9314   24.6841 C   0  0  2  0  0  0  0  0  0  0  0  0
    4.6270  -17.9912   23.5225 N   0  0  0  0  0  0  0  0  0  0  0  0
    6.4979  -16.8357   24.5260 C   0  0  0  0  0  0  0  0  0  0  0  0
    7.2301  -16.8180   23.5116 O   0  0  0  0  0  0  0  0  0  0  0  0
    8.4005  -18.8465   26.0218 C   0  0  0  0  0  0  0  0  0  0  0  0
    9.1599  -18.8184   27.1670 C   0  0  0  0  0  0  0  0  0  0  0  0
    8.1924  -12.6643   26.6519 C   0  0  0  0  0  0  0  0  0  0  0  0
    7.1167  -13.6695   26.3625 C   0  0  1  0  0  0  0  0  0  0  0  0
    5.8176  -13.0689   25.9759 C   0  0  0  0  0  0  0  0  0  0  0  0
    7.6290  -14.7545   25.4371 C   0  0  2  0  0  0  0  0  0  0  0  0
    6.6298  -15.8280   25.5169 N   0  0  0  0  0  0  0  0  0  0  0  0
    8.9409  -15.3037   25.9245 C   0  0  0  0  0  0  0  0  0  0  0  0
    9.0544  -15.7349   27.1169 O   0  0  0  0  0  0  0  0  0  0  0  0
   10.9159  -17.1866   21.6371 N   0  0  0  0  0  0  0  0  0  0  0  0
   11.9467  -16.2683   21.9632 C   0  0  0  0  0  0  0  0  0  0  0  0
   12.4577  -15.5948   21.0507 O   0  0  0  0  0  0  0  0  0  0  0  0
   12.4330  -16.0847   23.3471 C   0  0  0  0  0  0  0  0  0  0  0  0
   11.7373  -17.0144   24.2906 C   0  0  0  0  0  0  0  0  0  0  0  0
   11.1683  -16.2912   25.4749 C   0  0  2  0  0  0  0  0  0  0  0  0
   10.0996  -15.3765   25.1169 N   0  0  0  0  0  0  0  0  0  0  0  0
   12.2748  -15.4770   26.0707 C   0  0  0  0  0  0  0  0  0  0  0  0
   13.4305  -16.0909   26.5283 O   0  0  0  0  0  0  0  0  0  0  0  0
   12.1970  -14.2305   26.1750 O   0  0  0  0  0  0  0  0  0  0  0  0
  2  1  1  0
  3  2  2  0
  4  3  1  0
  5  4  2  0
  5 11  1  0
  6  5  1  0
  7  9  1  0
  7  6  1  0
  7  8  1  6
  9 17  1  0
 10  9  2  0
 11 12  2  0
 12  2  1  0
 14 13  1  6
 14 15  1  0
 16 14  1  0
 16 18  1  0
 16 17  1  1
 18 26  1  0
 18 19  2  0
 20 21  1  0
 21 23  1  0
 22 21  2  0
 23 24  1  0
 25 24  1  6
 25 27  1  0
 26 25  1  0
 27 29  2  0
 27 28  1  0
M  END
$$$$
