YVQ.pdb
     RDKit          3D

 29 29  0  0  1  0  0  0  0  0999 V2000
    6.7892  -10.8730   26.5174 O   0  0  0  0  0  0  0  0  0  0  0  0
    6.7849  -12.2671   26.5048 C   0  0  0  0  0  0  0  0  0  0  0  0
    5.6056  -12.9686   26.6321 C   0  0  0  0  0  0  0  0  0  0  0  0
    5.6176  -14.3619   26.6178 C   0  0  0  0  0  0  0  0  0  0  0  0
    6.8021  -15.0591   26.4773 C   0  0  0  0  0  0  0  0  0  0  0  0
    6.7784  -16.5431   26.4667 C   0  0  0  0  0  0  0  0  0  0  0  0
    6.1825  -16.9977   25.1564 C   0  0  2  0  0  0  0  0  0  0  0  0
    5.8365  -18.3921   25.2770 N   0  0  0  0  0  0  0  0  0  0  0  0
    7.2503  -16.8150   24.1122 C   0  0  0  0  0  0  0  0  0  0  0  0
    8.2067  -17.6202   24.0627 O   0  0  0  0  0  0  0  0  0  0  0  0
    7.9546  -14.3213   26.3533 C   0  0  0  0  0  0  0  0  0  0  0  0
    7.9735  -12.9470   26.3637 C   0  0  0  0  0  0  0  0  0  0  0  0
    8.7273  -13.8267   20.4094 C   0  0  0  0  0  0  0  0  0  0  0  0
    7.6778  -14.3143   21.3643 C   0  0  1  0  0  0  0  0  0  0  0  0
    6.3271  -14.4367   20.7657 C   0  0  0  0  0  0  0  0  0  0  0  0
    8.1633  -15.5343   22.1205 C   0  0  2  0  0  0  0  0  0  0  0  0
    7.1763  -15.7399   23.1885 N   0  0  0  0  0  0  0  0  0  0  0  0
    9.4969  -15.2742   22.7641 C   0  0  0  0  0  0  0  0  0  0  0  0
    9.7022  -14.1929   23.4039 O   0  0  0  0  0  0  0  0  0  0  0  0
   11.0728  -19.6934   26.3920 N   0  0  0  0  0  0  0  0  0  0  0  0
   11.8783  -18.6259   25.9188 C   0  0  0  0  0  0  0  0  0  0  0  0
   12.8255  -18.2341   26.6237 O   0  0  0  0  0  0  0  0  0  0  0  0
   11.6311  -17.9647   24.6199 C   0  0  0  0  0  0  0  0  0  0  0  0
   12.0204  -16.5208   24.6675 C   0  0  0  0  0  0  0  0  0  0  0  0
   11.8377  -15.8454   23.3410 C   0  0  2  0  0  0  0  0  0  0  0  0
   10.5779  -16.1842   22.7046 N   0  0  0  0  0  0  0  0  0  0  0  0
   12.9366  -16.3253   22.4441 C   0  0  0  0  0  0  0  0  0  0  0  0
   14.2609  -16.0473   22.7453 O   0  0  0  0  0  0  0  0  0  0  0  0
   12.7019  -16.9860   21.4052 O   0  0  0  0  0  0  0  0  0  0  0  0
  2  1  1  0
  3  2  2  0
  4  3  1  0
  5  4  2  0
  5 11  1  0
  6  5  1  0
  7  9  1  0
  7  6  1  0
  7  8  1  1
  9 17  1  0
 10  9  2  0
 11 12  2  0
 12  2  1  0
 14 13  1  6
 14 15  1  0
 16 14  1  0
 16 18  1  0
 16 17  1  1
 18 26  1  0
 18 19  2  0
 20 21  1  0
 21 23  1  0
 22 21  2  0
 23 24  1  0
 25 24  1  1
 25 27  1  0
 26 25  1  0
 27 29  2  0
 27 28  1  0
M  END
$$$$
