YVQ.pdb
     RDKit          3D

 29 29  0  0  1  0  0  0  0  0999 V2000
    5.3861  -23.4913   16.0552 O   0  0  0  0  0  0  0  0  0  0  0  0
    6.1091  -22.4852   16.6944 C   0  0  0  0  0  0  0  0  0  0  0  0
    7.3992  -22.7094   17.1237 C   0  0  0  0  0  0  0  0  0  0  0  0
    8.1089  -21.6938   17.7611 C   0  0  0  0  0  0  0  0  0  0  0  0
    7.5366  -20.4543   17.9728 C   0  0  0  0  0  0  0  0  0  0  0  0
    8.3211  -19.3953   18.6554 C   0  0  0  0  0  0  0  0  0  0  0  0
    8.0921  -18.0929   17.9275 C   0  0  2  0  0  0  0  0  0  0  0  0
    8.6925  -18.1941   16.6206 N   0  0  0  0  0  0  0  0  0  0  0  0
    8.7779  -17.0236   18.7337 C   0  0  0  0  0  0  0  0  0  0  0  0
   10.0150  -16.8699   18.6258 O   0  0  0  0  0  0  0  0  0  0  0  0
    6.2489  -20.2728   17.5293 C   0  0  0  0  0  0  0  0  0  0  0  0
    5.5247  -21.2554   16.8975 C   0  0  0  0  0  0  0  0  0  0  0  0
    7.9035  -13.3301   21.9605 C   0  0  0  0  0  0  0  0  0  0  0  0
    7.4798  -14.2591   20.8612 C   0  0  1  0  0  0  0  0  0  0  0  0
    6.7194  -13.5993   19.7729 C   0  0  0  0  0  0  0  0  0  0  0  0
    8.6402  -15.1220   20.4088 C   0  0  2  0  0  0  0  0  0  0  0  0
    8.0311  -16.1934   19.6099 N   0  0  0  0  0  0  0  0  0  0  0  0
    9.3318  -15.7548   21.5842 C   0  0  0  0  0  0  0  0  0  0  0  0
    8.8343  -16.7832   22.1459 O   0  0  0  0  0  0  0  0  0  0  0  0
   15.5411  -15.3178   23.1115 N   0  0  0  0  0  0  0  0  0  0  0  0
   15.0056  -16.4440   23.7877 C   0  0  0  0  0  0  0  0  0  0  0  0
   15.7901  -17.2831   24.2652 O   0  0  0  0  0  0  0  0  0  0  0  0
   13.5507  -16.6541   23.9438 C   0  0  0  0  0  0  0  0  0  0  0  0
   12.7860  -15.9504   22.8674 C   0  0  0  0  0  0  0  0  0  0  0  0
   11.3038  -16.0937   23.0454 C   0  0  2  0  0  0  0  0  0  0  0  0
   10.5430  -15.2663   22.1270 N   0  0  0  0  0  0  0  0  0  0  0  0
   10.9781  -15.6385   24.4343 C   0  0  0  0  0  0  0  0  0  0  0  0
   11.2809  -16.4388   25.5249 O   0  0  0  0  0  0  0  0  0  0  0  0
   10.4289  -14.5341   24.6570 O   0  0  0  0  0  0  0  0  0  0  0  0
  2  1  1  0
  3  2  2  0
  4  3  1  0
  5  4  2  0
  5 11  1  0
  6  5  1  0
  7  9  1  0
  7  6  1  0
  7  8  1  6
  9 17  1  0
 10  9  2  0
 11 12  2  0
 12  2  1  0
 14 13  1  1
 14 15  1  0
 16 14  1  0
 16 18  1  0
 16 17  1  6
 18 26  1  0
 18 19  2  0
 20 21  1  0
 21 23  1  0
 22 21  2  0
 23 24  1  0
 25 24  1  6
 25 27  1  0
 26 25  1  0
 27 29  2  0
 27 28  1  0
M  END
$$$$
