YVQ.pdb
     RDKit          3D

 29 29  0  0  1  0  0  0  0  0999 V2000
    2.1280  -19.5959   19.7516 O   0  0  0  0  0  0  0  0  0  0  0  0
    3.0874  -18.9613   20.5392 C   0  0  0  0  0  0  0  0  0  0  0  0
    3.9762  -19.6954   21.2943 C   0  0  0  0  0  0  0  0  0  0  0  0
    4.9294  -19.0465   22.0765 C   0  0  0  0  0  0  0  0  0  0  0  0
    4.9998  -17.6671   22.1091 C   0  0  0  0  0  0  0  0  0  0  0  0
    6.0272  -17.0087   22.9538 C   0  0  0  0  0  0  0  0  0  0  0  0
    6.3732  -15.6791   22.3283 C   0  0  2  0  0  0  0  0  0  0  0  0
    6.8724  -15.9220   20.9977 N   0  0  0  0  0  0  0  0  0  0  0  0
    7.4494  -15.0685   23.1842 C   0  0  0  0  0  0  0  0  0  0  0  0
    8.6423  -15.1338   22.8125 O   0  0  0  0  0  0  0  0  0  0  0  0
    4.0954  -16.9735   21.3417 C   0  0  0  0  0  0  0  0  0  0  0  0
    3.1447  -17.5860   20.5605 C   0  0  0  0  0  0  0  0  0  0  0  0
    7.1068  -11.6285   25.1265 C   0  0  0  0  0  0  0  0  0  0  0  0
    7.4307  -12.7576   26.0599 C   0  0  1  0  0  0  0  0  0  0  0  0
    6.2976  -13.1727   26.9210 C   0  0  0  0  0  0  0  0  0  0  0  0
    8.1288  -13.8821   25.3224 C   0  0  2  0  0  0  0  0  0  0  0  0
    7.1182  -14.4221   24.4037 N   0  0  0  0  0  0  0  0  0  0  0  0
    8.5304  -14.9795   26.2684 C   0  0  0  0  0  0  0  0  0  0  0  0
    7.6739  -15.8358   26.6607 O   0  0  0  0  0  0  0  0  0  0  0  0
   12.8251  -17.2918   23.7393 N   0  0  0  0  0  0  0  0  0  0  0  0
   11.8757  -18.0978   24.4185 C   0  0  0  0  0  0  0  0  0  0  0  0
   11.1089  -18.8116   23.7477 O   0  0  0  0  0  0  0  0  0  0  0  0
   11.7667  -18.1184   25.8926 C   0  0  0  0  0  0  0  0  0  0  0  0
   11.6829  -16.7309   26.4462 C   0  0  0  0  0  0  0  0  0  0  0  0
   10.3492  -16.4562   27.0747 C   0  0  2  0  0  0  0  0  0  0  0  0
    9.8444  -15.1300   26.7692 N   0  0  0  0  0  0  0  0  0  0  0  0
   10.5337  -16.5351   28.5586 C   0  0  0  0  0  0  0  0  0  0  0  0
   10.6829  -17.7635   29.1835 O   0  0  0  0  0  0  0  0  0  0  0  0
   10.5599  -15.5089   29.2777 O   0  0  0  0  0  0  0  0  0  0  0  0
  2  1  1  0
  3  2  2  0
  4  3  1  0
  5  4  2  0
  5 11  1  0
  6  5  1  0
  7  9  1  0
  7  6  1  0
  7  8  1  6
  9 17  1  0
 10  9  2  0
 11 12  2  0
 12  2  1  0
 14 13  1  6
 14 15  1  0
 16 14  1  0
 16 18  1  0
 16 17  1  6
 18 26  1  0
 18 19  2  0
 20 21  1  0
 21 23  1  0
 22 21  2  0
 23 24  1  0
 25 24  1  6
 25 27  1  0
 26 25  1  0
 27 29  2  0
 27 28  1  0
M  END
$$$$
