YVQ.pdb
     RDKit          3D

 29 29  0  0  1  0  0  0  0  0999 V2000
    5.2144  -10.6088   28.5285 O   0  0  0  0  0  0  0  0  0  0  0  0
    5.8883  -11.5502   27.7518 C   0  0  0  0  0  0  0  0  0  0  0  0
    6.9122  -12.3013   28.2869 C   0  0  0  0  0  0  0  0  0  0  0  0
    7.5763  -13.2383   27.4978 C   0  0  0  0  0  0  0  0  0  0  0  0
    7.2233  -13.4293   26.1759 C   0  0  0  0  0  0  0  0  0  0  0  0
    7.9521  -14.4354   25.3640 C   0  0  0  0  0  0  0  0  0  0  0  0
    6.9364  -15.2816   24.6353 C   0  0  2  0  0  0  0  0  0  0  0  0
    6.6022  -16.4072   25.4721 N   0  0  0  0  0  0  0  0  0  0  0  0
    7.5985  -15.7530   23.3693 C   0  0  0  0  0  0  0  0  0  0  0  0
    7.9808  -16.9410   23.2803 O   0  0  0  0  0  0  0  0  0  0  0  0
    6.1974  -12.6601   25.6821 C   0  0  0  0  0  0  0  0  0  0  0  0
    5.5243  -11.7288   26.4362 C   0  0  0  0  0  0  0  0  0  0  0  0
    8.9583  -14.2989   18.7946 C   0  0  0  0  0  0  0  0  0  0  0  0
    8.2555  -14.0662   20.0997 C   0  0  1  0  0  0  0  0  0  0  0  0
    6.8766  -13.5408   19.9574 C   0  0  0  0  0  0  0  0  0  0  0  0
    8.3989  -15.2691   21.0100 C   0  0  2  0  0  0  0  0  0  0  0  0
    7.7891  -14.8605   22.2821 N   0  0  0  0  0  0  0  0  0  0  0  0
    9.8470  -15.5804   21.2678 C   0  0  0  0  0  0  0  0  0  0  0  0
   10.5178  -14.8820   22.0942 O   0  0  0  0  0  0  0  0  0  0  0  0
   11.0140  -20.7603   23.5350 N   0  0  0  0  0  0  0  0  0  0  0  0
   12.3311  -20.2413   23.4446 C   0  0  0  0  0  0  0  0  0  0  0  0
   13.2476  -20.8293   24.0459 O   0  0  0  0  0  0  0  0  0  0  0  0
   12.6508  -19.0284   22.6623 C   0  0  0  0  0  0  0  0  0  0  0  0
   11.4161  -18.4332   22.0623 C   0  0  0  0  0  0  0  0  0  0  0  0
   11.7185  -17.2040   21.2579 C   0  0  2  0  0  0  0  0  0  0  0  0
   10.5390  -16.6365   20.6306 N   0  0  0  0  0  0  0  0  0  0  0  0
   12.6570  -17.6099   20.1640 C   0  0  0  0  0  0  0  0  0  0  0  0
   12.1739  -17.9127   18.9004 O   0  0  0  0  0  0  0  0  0  0  0  0
   13.8941  -17.6888   20.3488 O   0  0  0  0  0  0  0  0  0  0  0  0
  2  1  1  0
  3  2  2  0
  4  3  1  0
  5  4  2  0
  5 11  1  0
  6  5  1  0
  7  9  1  0
  7  6  1  0
  7  8  1  1
  9 17  1  0
 10  9  2  0
 11 12  2  0
 12  2  1  0
 14 13  1  6
 14 15  1  0
 16 14  1  0
 16 18  1  0
 16 17  1  1
 18 26  1  0
 18 19  2  0
 20 21  1  0
 21 23  1  0
 22 21  2  0
 23 24  1  0
 25 24  1  6
 25 27  1  0
 26 25  1  0
 27 29  2  0
 27 28  1  0
M  END
$$$$
