YVQ.pdb
     RDKit          3D

 29 29  0  0  1  0  0  0  0  0999 V2000
   10.5454  -14.3128   31.0616 O   0  0  0  0  0  0  0  0  0  0  0  0
   10.3390  -14.6760   29.7315 C   0  0  0  0  0  0  0  0  0  0  0  0
   10.6034  -15.9588   29.3030 C   0  0  0  0  0  0  0  0  0  0  0  0
   10.3922  -16.3066   27.9703 C   0  0  0  0  0  0  0  0  0  0  0  0
    9.9183  -15.3794   27.0623 C   0  0  0  0  0  0  0  0  0  0  0  0
    9.7052  -15.7839   25.6503 C   0  0  0  0  0  0  0  0  0  0  0  0
    8.2188  -15.8712   25.4020 C   0  0  2  0  0  0  0  0  0  0  0  0
    7.6987  -16.9823   26.1594 N   0  0  0  0  0  0  0  0  0  0  0  0
    8.0429  -16.1183   23.9283 C   0  0  0  0  0  0  0  0  0  0  0  0
    7.8450  -17.2840   23.5192 O   0  0  0  0  0  0  0  0  0  0  0  0
    9.6676  -14.1124   27.5310 C   0  0  0  0  0  0  0  0  0  0  0  0
    9.8661  -13.7406   28.8392 C   0  0  0  0  0  0  0  0  0  0  0  0
    8.0070  -13.8816   19.4743 C   0  0  0  0  0  0  0  0  0  0  0  0
    7.8222  -13.8746   20.9633 C   0  0  1  0  0  0  0  0  0  0  0  0
    6.5418  -13.2755   21.4098 C   0  0  0  0  0  0  0  0  0  0  0  0
    8.1403  -15.2344   21.5514 C   0  0  2  0  0  0  0  0  0  0  0  0
    8.0997  -15.0404   23.0066 N   0  0  0  0  0  0  0  0  0  0  0  0
    9.5301  -15.6708   21.1794 C   0  0  0  0  0  0  0  0  0  0  0  0
   10.5396  -15.1912   21.7891 O   0  0  0  0  0  0  0  0  0  0  0  0
   12.5925  -19.5719   23.1773 N   0  0  0  0  0  0  0  0  0  0  0  0
   13.0884  -19.1874   21.9051 C   0  0  0  0  0  0  0  0  0  0  0  0
   14.2122  -18.6584   21.8367 O   0  0  0  0  0  0  0  0  0  0  0  0
   12.3172  -19.3934   20.6608 C   0  0  0  0  0  0  0  0  0  0  0  0
   10.9999  -18.6865   20.7200 C   0  0  0  0  0  0  0  0  0  0  0  0
   11.0771  -17.3047   20.1422 C   0  0  2  0  0  0  0  0  0  0  0  0
    9.8007  -16.6137   20.1607 N   0  0  0  0  0  0  0  0  0  0  0  0
   11.4902  -17.4456   18.7098 C   0  0  0  0  0  0  0  0  0  0  0  0
   12.8317  -17.5300   18.3707 O   0  0  0  0  0  0  0  0  0  0  0  0
   10.6505  -17.4922   17.7804 O   0  0  0  0  0  0  0  0  0  0  0  0
  2  1  1  0
  3  2  2  0
  4  3  1  0
  5  4  2  0
  5 11  1  0
  6  5  1  0
  7  9  1  0
  7  6  1  0
  7  8  1  1
  9 17  1  0
 10  9  2  0
 11 12  2  0
 12  2  1  0
 14 13  1  6
 14 15  1  0
 16 14  1  0
 16 18  1  0
 16 17  1  1
 18 26  1  0
 18 19  2  0
 20 21  1  0
 21 23  1  0
 22 21  2  0
 23 24  1  0
 25 24  1  6
 25 27  1  0
 26 25  1  0
 27 29  2  0
 27 28  1  0
M  END
$$$$
