WKF.pdb
     RDKit          3D

 35 37  0  0  1  0  0  0  0  0999 V2000
    7.1815  -17.9603   21.7904 N   0  0  0  0  0  0  0  0  0  0  0  0
    8.2088  -17.0262   22.1894 C   0  0  1  0  0  0  0  0  0  0  0  0
    7.6114  -15.7069   22.6231 C   0  0  0  0  0  0  0  0  0  0  0  0
    7.2081  -14.9306   21.4427 C   0  0  0  0  0  0  0  0  0  0  0  0
    5.9558  -14.9613   20.8363 C   0  0  0  0  0  0  0  0  0  0  0  0
    5.9316  -14.1081   19.8063 N   0  0  0  0  0  0  0  0  0  0  0  0
    7.1354  -13.5342   19.7383 C   0  0  0  0  0  0  0  0  0  0  0  0
    7.6205  -12.6001   18.8537 C   0  0  0  0  0  0  0  0  0  0  0  0
    8.9138  -12.1466   18.9566 C   0  0  0  0  0  0  0  0  0  0  0  0
    9.7136  -12.6460   19.9609 C   0  0  0  0  0  0  0  0  0  0  0  0
    9.2630  -13.5829   20.8673 C   0  0  0  0  0  0  0  0  0  0  0  0
    7.9598  -14.0258   20.7483 C   0  0  0  0  0  0  0  0  0  0  0  0
    8.8874  -17.6851   23.3676 C   0  0  0  0  0  0  0  0  0  0  0  0
    8.2598  -18.2706   24.2813 O   0  0  0  0  0  0  0  0  0  0  0  0
   10.3042  -17.6120   23.3996 N   0  0  0  0  0  0  0  0  0  0  0  0
   11.0793  -18.1560   24.5486 C   0  0  1  0  0  0  0  0  0  0  0  0
   12.4240  -18.4682   23.9564 C   0  0  0  0  0  0  0  0  0  0  0  0
   13.3721  -19.2069   24.8189 C   0  0  0  0  0  0  0  0  0  0  0  0
   14.6720  -19.5647   24.1444 C   0  0  0  0  0  0  0  0  0  0  0  0
   15.6235  -20.2705   25.0979 C   0  0  0  0  0  0  0  0  0  0  0  0
   14.9885  -21.5365   25.4394 N   0  0  0  0  0  0  0  0  0  0  0  0
   11.0771  -17.1837   25.6419 C   0  0  0  0  0  0  0  0  0  0  0  0
   11.8335  -16.1487   25.5122 O   0  0  0  0  0  0  0  0  0  0  0  0
   10.3095  -17.2896   26.8251 N   0  0  0  0  0  0  0  0  0  0  0  0
   10.5594  -16.3663   27.9422 C   0  0  1  0  0  0  0  0  0  0  0  0
    9.2742  -15.7064   28.3419 C   0  0  0  0  0  0  0  0  0  0  0  0
    8.8259  -14.7845   27.2804 C   0  0  0  0  0  0  0  0  0  0  0  0
    7.7435  -15.1852   26.5075 C   0  0  0  0  0  0  0  0  0  0  0  0
    7.2471  -14.3648   25.5147 C   0  0  0  0  0  0  0  0  0  0  0  0
    7.8463  -13.1636   25.3199 C   0  0  0  0  0  0  0  0  0  0  0  0
    8.9282  -12.7436   26.0816 C   0  0  0  0  0  0  0  0  0  0  0  0
    9.4204  -13.5625   27.0690 C   0  0  0  0  0  0  0  0  0  0  0  0
   11.1477  -17.1276   29.0456 C   0  0  0  0  0  0  0  0  0  0  0  0
   11.1994  -18.4984   29.0337 O   0  0  0  0  0  0  0  0  0  0  0  0
   11.6227  -16.5205   30.0451 O   0  0  0  0  0  0  0  0  0  0  0  0
  2  1  1  1
  3  2  1  0
  4  5  2  0
  4  3  1  0
  6  5  1  0
  7 12  2  0
  7  6  1  0
  8  7  1  0
  9 10  1  0
  9  8  2  0
 10 11  2  0
 11 12  1  0
 12  4  1  0
 13  2  1  0
 14 13  2  0
 15 13  1  0
 16 22  1  0
 16 15  1  0
 16 17  1  6
 18 17  1  0
 19 18  1  0
 20 19  1  0
 21 20  1  0
 22 23  2  0
 24 25  1  0
 24 22  1  0
 25 26  1  1
 25 33  1  0
 26 27  1  0
 27 28  2  0
 28 29  1  0
 30 29  2  0
 31 30  1  0
 32 27  1  0
 32 31  2  0
 33 35  2  0
 33 34  1  0
M  END
$$$$
