WKF.pdb
     RDKit          3D

 35 37  0  0  1  0  0  0  0  0999 V2000
    5.9920  -17.6286   23.6237 N   0  0  0  0  0  0  0  0  0  0  0  0
    6.7711  -16.4329   23.3996 C   0  0  1  0  0  0  0  0  0  0  0  0
    7.5326  -16.0338   24.6433 C   0  0  0  0  0  0  0  0  0  0  0  0
    6.7409  -15.0750   25.4259 C   0  0  0  0  0  0  0  0  0  0  0  0
    5.6638  -15.3884   26.2496 C   0  0  0  0  0  0  0  0  0  0  0  0
    5.2001  -14.2758   26.8298 N   0  0  0  0  0  0  0  0  0  0  0  0
    5.9518  -13.2603   26.3976 C   0  0  0  0  0  0  0  0  0  0  0  0
    5.8753  -11.9184   26.6871 C   0  0  0  0  0  0  0  0  0  0  0  0
    6.7530  -11.0294   26.1142 C   0  0  0  0  0  0  0  0  0  0  0  0
    7.7086  -11.5080   25.2450 C   0  0  0  0  0  0  0  0  0  0  0  0
    7.8172  -12.8465   24.9305 C   0  0  0  0  0  0  0  0  0  0  0  0
    6.9266  -13.7248   25.5172 C   0  0  0  0  0  0  0  0  0  0  0  0
    7.7467  -16.8113   22.3096 C   0  0  0  0  0  0  0  0  0  0  0  0
    8.3737  -17.8967   22.2969 O   0  0  0  0  0  0  0  0  0  0  0  0
    7.9302  -15.8613   21.2716 N   0  0  0  0  0  0  0  0  0  0  0  0
    9.2856  -15.3562   20.9185 C   0  0  1  0  0  0  0  0  0  0  0  0
    9.0068  -14.1697   20.0405 C   0  0  0  0  0  0  0  0  0  0  0  0
    9.4607  -14.2644   18.6356 C   0  0  0  0  0  0  0  0  0  0  0  0
    8.3426  -14.3766   17.6306 C   0  0  0  0  0  0  0  0  0  0  0  0
    8.8741  -14.5694   16.2189 C   0  0  0  0  0  0  0  0  0  0  0  0
    7.7149  -14.8641   15.3870 N   0  0  0  0  0  0  0  0  0  0  0  0
   10.0361  -15.0775   22.1432 C   0  0  0  0  0  0  0  0  0  0  0  0
    9.6684  -14.0589   22.8413 O   0  0  0  0  0  0  0  0  0  0  0  0
   11.1285  -15.8387   22.6204 N   0  0  0  0  0  0  0  0  0  0  0  0
   11.4994  -15.7710   24.0419 C   0  0  1  0  0  0  0  0  0  0  0  0
   10.3209  -16.1559   24.8846 C   0  0  0  0  0  0  0  0  0  0  0  0
   10.5736  -15.8117   26.2973 C   0  0  0  0  0  0  0  0  0  0  0  0
   11.0560  -16.8217   27.1198 C   0  0  0  0  0  0  0  0  0  0  0  0
   11.3446  -16.5700   28.4459 C   0  0  0  0  0  0  0  0  0  0  0  0
   11.1433  -15.3137   28.9160 C   0  0  0  0  0  0  0  0  0  0  0  0
   10.6629  -14.2899   28.1108 C   0  0  0  0  0  0  0  0  0  0  0  0
   10.3762  -14.5434   26.7912 C   0  0  0  0  0  0  0  0  0  0  0  0
   12.6412  -16.6604   24.2625 C   0  0  0  0  0  0  0  0  0  0  0  0
   13.5987  -16.3897   25.2069 O   0  0  0  0  0  0  0  0  0  0  0  0
   12.7643  -17.7086   23.5703 O   0  0  0  0  0  0  0  0  0  0  0  0
  2  1  1  1
  3  2  1  0
  4  5  2  0
  4  3  1  0
  6  5  1  0
  7 12  2  0
  7  6  1  0
  8  7  1  0
  9 10  1  0
  9  8  2  0
 10 11  2  0
 11 12  1  0
 12  4  1  0
 13  2  1  0
 14 13  2  0
 15 13  1  0
 16 22  1  0
 16 15  1  0
 16 17  1  1
 18 17  1  0
 19 18  1  0
 20 19  1  0
 21 20  1  0
 22 23  2  0
 24 25  1  0
 24 22  1  0
 25 26  1  1
 25 33  1  0
 26 27  1  0
 27 28  2  0
 28 29  1  0
 30 29  2  0
 31 30  1  0
 32 27  1  0
 32 31  2  0
 33 35  2  0
 33 34  1  0
M  END
$$$$
