WKF.pdb
     RDKit          3D

 35 37  0  0  1  0  0  0  0  0999 V2000
    6.1460  -17.6533   24.7587 N   0  0  0  0  0  0  0  0  0  0  0  0
    7.1514  -16.7082   24.3311 C   0  0  1  0  0  0  0  0  0  0  0  0
    7.6605  -15.8863   25.4934 C   0  0  0  0  0  0  0  0  0  0  0  0
    6.7317  -14.7812   25.7668 C   0  0  0  0  0  0  0  0  0  0  0  0
    5.4556  -14.9045   26.3083 C   0  0  0  0  0  0  0  0  0  0  0  0
    4.9050  -13.6934   26.4476 N   0  0  0  0  0  0  0  0  0  0  0  0
    5.7951  -12.8002   26.0083 C   0  0  0  0  0  0  0  0  0  0  0  0
    5.7074  -11.4303   25.9296 C   0  0  0  0  0  0  0  0  0  0  0  0
    6.7510  -10.6917   25.4255 C   0  0  0  0  0  0  0  0  0  0  0  0
    7.8844  -11.3494   25.0005 C   0  0  0  0  0  0  0  0  0  0  0  0
    8.0100  -12.7215   25.0641 C   0  0  0  0  0  0  0  0  0  0  0  0
    6.9507  -13.4465   25.5748 C   0  0  0  0  0  0  0  0  0  0  0  0
    8.2724  -17.5628   23.7873 C   0  0  0  0  0  0  0  0  0  0  0  0
    8.6051  -18.6607   24.2929 O   0  0  0  0  0  0  0  0  0  0  0  0
    8.9534  -17.0582   22.6492 N   0  0  0  0  0  0  0  0  0  0  0  0
   10.3647  -17.4371   22.3635 C   0  0  1  0  0  0  0  0  0  0  0  0
   10.5777  -16.9794   20.9487 C   0  0  0  0  0  0  0  0  0  0  0  0
   11.8653  -17.3479   20.3203 C   0  0  0  0  0  0  0  0  0  0  0  0
   11.9501  -17.0269   18.8498 C   0  0  0  0  0  0  0  0  0  0  0  0
   13.2470  -17.5338   18.2385 C   0  0  0  0  0  0  0  0  0  0  0  0
   13.2565  -17.0611   16.8604 N   0  0  0  0  0  0  0  0  0  0  0  0
   11.2437  -16.8336   23.3654 C   0  0  0  0  0  0  0  0  0  0  0  0
   11.3839  -15.5532   23.3324 O   0  0  0  0  0  0  0  0  0  0  0  0
   11.9470  -17.5438   24.3660 N   0  0  0  0  0  0  0  0  0  0  0  0
   13.0548  -16.8924   25.0812 C   0  0  1  0  0  0  0  0  0  0  0  0
   12.7675  -16.8912   26.5524 C   0  0  0  0  0  0  0  0  0  0  0  0
   11.8355  -15.7969   26.8863 C   0  0  0  0  0  0  0  0  0  0  0  0
   10.5546  -16.1546   27.2873 C   0  0  0  0  0  0  0  0  0  0  0  0
    9.6350  -15.1892   27.6444 C   0  0  0  0  0  0  0  0  0  0  0  0
   10.0200  -13.8897   27.5913 C   0  0  0  0  0  0  0  0  0  0  0  0
   11.2951  -13.5109   27.1944 C   0  0  0  0  0  0  0  0  0  0  0  0
   12.2084  -14.4739   26.8392 C   0  0  0  0  0  0  0  0  0  0  0  0
   14.2910  -17.6112   24.7675 C   0  0  0  0  0  0  0  0  0  0  0  0
   14.3099  -18.6783   23.9056 O   0  0  0  0  0  0  0  0  0  0  0  0
   15.3783  -17.2534   25.2992 O   0  0  0  0  0  0  0  0  0  0  0  0
  2  1  1  1
  3  2  1  0
  4  5  2  0
  4  3  1  0
  6  5  1  0
  7 12  2  0
  7  6  1  0
  8  7  1  0
  9 10  1  0
  9  8  2  0
 10 11  2  0
 11 12  1  0
 12  4  1  0
 13  2  1  0
 14 13  2  0
 15 13  1  0
 16 22  1  0
 16 15  1  0
 16 17  1  6
 18 17  1  0
 19 18  1  0
 20 19  1  0
 21 20  1  0
 22 23  2  0
 24 25  1  0
 24 22  1  0
 25 26  1  1
 25 33  1  0
 26 27  1  0
 27 28  2  0
 28 29  1  0
 30 29  2  0
 31 30  1  0
 32 27  1  0
 32 31  2  0
 33 35  2  0
 33 34  1  0
M  END
$$$$
