WKF.pdb
     RDKit          3D

 35 37  0  0  1  0  0  0  0  0999 V2000
    5.9794  -17.8577   24.0205 N   0  0  0  0  0  0  0  0  0  0  0  0
    6.6917  -16.6009   24.0338 C   0  0  1  0  0  0  0  0  0  0  0  0
    7.2152  -16.2823   25.4158 C   0  0  0  0  0  0  0  0  0  0  0  0
    6.6516  -15.0075   25.8804 C   0  0  0  0  0  0  0  0  0  0  0  0
    5.4079  -14.8376   26.4815 C   0  0  0  0  0  0  0  0  0  0  0  0
    5.2334  -13.5507   26.8025 N   0  0  0  0  0  0  0  0  0  0  0  0
    6.3321  -12.8944   26.4214 C   0  0  0  0  0  0  0  0  0  0  0  0
    6.6412  -11.5581   26.5171 C   0  0  0  0  0  0  0  0  0  0  0  0
    7.8406  -11.0832   26.0432 C   0  0  0  0  0  0  0  0  0  0  0  0
    8.7254  -11.9704   25.4707 C   0  0  0  0  0  0  0  0  0  0  0  0
    8.4516  -13.3175   25.3573 C   0  0  0  0  0  0  0  0  0  0  0  0
    7.2412  -13.7760   25.8404 C   0  0  0  0  0  0  0  0  0  0  0  0
    7.8526  -16.8098   23.0896 C   0  0  0  0  0  0  0  0  0  0  0  0
    8.5340  -17.8617   23.0624 O   0  0  0  0  0  0  0  0  0  0  0  0
    8.1495  -15.7366   22.2100 N   0  0  0  0  0  0  0  0  0  0  0  0
    9.4964  -15.5960   21.5912 C   0  0  1  0  0  0  0  0  0  0  0  0
    9.2712  -14.6326   20.4608 C   0  0  0  0  0  0  0  0  0  0  0  0
    9.2408  -15.2066   19.0977 C   0  0  0  0  0  0  0  0  0  0  0  0
    9.0038  -14.1946   18.0057 C   0  0  0  0  0  0  0  0  0  0  0  0
    8.8301  -14.8618   16.6502 C   0  0  0  0  0  0  0  0  0  0  0  0
    8.5174  -13.7933   15.7104 N   0  0  0  0  0  0  0  0  0  0  0  0
   10.4577  -15.1685   22.6079 C   0  0  0  0  0  0  0  0  0  0  0  0
   10.1337  -14.1571   23.3375 O   0  0  0  0  0  0  0  0  0  0  0  0
   11.7096  -15.7789   22.8536 N   0  0  0  0  0  0  0  0  0  0  0  0
   12.1835  -15.9415   24.2363 C   0  0  1  0  0  0  0  0  0  0  0  0
   11.2985  -16.9134   24.9567 C   0  0  0  0  0  0  0  0  0  0  0  0
   10.4413  -16.1991   25.9225 C   0  0  0  0  0  0  0  0  0  0  0  0
   10.6566  -16.4534   27.2710 C   0  0  0  0  0  0  0  0  0  0  0  0
    9.9152  -15.8019   28.2359 C   0  0  0  0  0  0  0  0  0  0  0  0
    8.9766  -14.9120   27.8273 C   0  0  0  0  0  0  0  0  0  0  0  0
    8.7461  -14.6427   26.4852 C   0  0  0  0  0  0  0  0  0  0  0  0
    9.4855  -15.2929   25.5268 C   0  0  0  0  0  0  0  0  0  0  0  0
   13.5743  -16.3970   24.1956 C   0  0  0  0  0  0  0  0  0  0  0  0
   14.1544  -16.8511   23.0383 O   0  0  0  0  0  0  0  0  0  0  0  0
   14.2720  -16.3806   25.2472 O   0  0  0  0  0  0  0  0  0  0  0  0
  2  1  1  1
  3  2  1  0
  4  5  2  0
  4  3  1  0
  6  5  1  0
  7 12  2  0
  7  6  1  0
  8  7  1  0
  9 10  1  0
  9  8  2  0
 10 11  2  0
 11 12  1  0
 12  4  1  0
 13  2  1  0
 14 13  2  0
 15 13  1  0
 16 22  1  0
 16 15  1  0
 16 17  1  6
 18 17  1  0
 19 18  1  0
 20 19  1  0
 21 20  1  0
 22 23  2  0
 24 25  1  0
 24 22  1  0
 25 26  1  6
 25 33  1  0
 26 27  1  0
 27 28  2  0
 28 29  1  0
 30 29  2  0
 31 30  1  0
 32 27  1  0
 32 31  2  0
 33 35  2  0
 33 34  1  0
M  END
$$$$
