WKF.pdb
     RDKit          3D

 35 37  0  0  1  0  0  0  0  0999 V2000
    5.9609  -18.1852   24.6106 N   0  0  0  0  0  0  0  0  0  0  0  0
    6.7399  -16.9806   24.4394 C   0  0  1  0  0  0  0  0  0  0  0  0
    6.9586  -16.2772   25.7596 C   0  0  0  0  0  0  0  0  0  0  0  0
    6.3384  -14.9458   25.7234 C   0  0  0  0  0  0  0  0  0  0  0  0
    5.3692  -14.4744   26.6039 C   0  0  0  0  0  0  0  0  0  0  0  0
    5.0540  -13.2116   26.2950 N   0  0  0  0  0  0  0  0  0  0  0  0
    5.7955  -12.8645   25.2400 C   0  0  0  0  0  0  0  0  0  0  0  0
    5.8362  -11.6826   24.5387 C   0  0  0  0  0  0  0  0  0  0  0  0
    6.6755  -11.5393   23.4600 C   0  0  0  0  0  0  0  0  0  0  0  0
    7.4732  -12.6015   23.0949 C   0  0  0  0  0  0  0  0  0  0  0  0
    7.4610  -13.8022   23.7736 C   0  0  0  0  0  0  0  0  0  0  0  0
    6.6114  -13.9265   24.8559 C   0  0  0  0  0  0  0  0  0  0  0  0
    8.0663  -17.4576   23.8952 C   0  0  0  0  0  0  0  0  0  0  0  0
    8.5967  -18.5418   24.2338 O   0  0  0  0  0  0  0  0  0  0  0  0
    8.7061  -16.6043   22.9592 N   0  0  0  0  0  0  0  0  0  0  0  0
   10.0738  -16.9028   22.4520 C   0  0  1  0  0  0  0  0  0  0  0  0
   10.1914  -16.0515   21.2200 C   0  0  0  0  0  0  0  0  0  0  0  0
    9.3325  -16.4228   20.0741 C   0  0  0  0  0  0  0  0  0  0  0  0
    9.2768  -15.3857   18.9813 C   0  0  0  0  0  0  0  0  0  0  0  0
    8.3698  -15.8204   17.8407 C   0  0  0  0  0  0  0  0  0  0  0  0
    8.4071  -14.7426   16.8610 N   0  0  0  0  0  0  0  0  0  0  0  0
   11.0534  -16.6345   23.5051 C   0  0  0  0  0  0  0  0  0  0  0  0
   11.6139  -15.4744   23.5076 O   0  0  0  0  0  0  0  0  0  0  0  0
   11.4297  -17.5457   24.5194 N   0  0  0  0  0  0  0  0  0  0  0  0
   12.5771  -17.2392   25.3868 C   0  0  1  0  0  0  0  0  0  0  0  0
   12.1601  -17.3451   26.8227 C   0  0  0  0  0  0  0  0  0  0  0  0
   11.2819  -16.2144   27.1805 C   0  0  0  0  0  0  0  0  0  0  0  0
   11.8424  -15.1882   27.9303 C   0  0  0  0  0  0  0  0  0  0  0  0
   11.0932  -14.0828   28.2790 C   0  0  0  0  0  0  0  0  0  0  0  0
    9.8013  -14.0315   27.8687 C   0  0  0  0  0  0  0  0  0  0  0  0
    9.2221  -15.0455   27.1181 C   0  0  0  0  0  0  0  0  0  0  0  0
    9.9703  -16.1449   26.7727 C   0  0  0  0  0  0  0  0  0  0  0  0
   13.6600  -18.1697   25.0633 C   0  0  0  0  0  0  0  0  0  0  0  0
   14.9140  -18.0381   25.6039 O   0  0  0  0  0  0  0  0  0  0  0  0
   13.4512  -19.1238   24.2639 O   0  0  0  0  0  0  0  0  0  0  0  0
  2  1  1  1
  3  2  1  0
  4  5  2  0
  4  3  1  0
  6  5  1  0
  7 12  2  0
  7  6  1  0
  8  7  1  0
  9 10  1  0
  9  8  2  0
 10 11  2  0
 11 12  1  0
 12  4  1  0
 13  2  1  0
 14 13  2  0
 15 13  1  0
 16 22  1  0
 16 15  1  0
 16 17  1  6
 18 17  1  0
 19 18  1  0
 20 19  1  0
 21 20  1  0
 22 23  2  0
 24 25  1  0
 24 22  1  0
 25 26  1  1
 25 33  1  0
 26 27  1  0
 27 28  2  0
 28 29  1  0
 30 29  2  0
 31 30  1  0
 32 27  1  0
 32 31  2  0
 33 35  2  0
 33 34  1  0
M  END
$$$$
