WKF.pdb
     RDKit          3D

 35 37  0  0  1  0  0  0  0  0999 V2000
    8.1629  -17.5736   21.4671 N   0  0  0  0  0  0  0  0  0  0  0  0
    8.8973  -16.5814   22.2176 C   0  0  1  0  0  0  0  0  0  0  0  0
    7.9682  -15.5536   22.8228 C   0  0  0  0  0  0  0  0  0  0  0  0
    7.3965  -14.7130   21.7620 C   0  0  0  0  0  0  0  0  0  0  0  0
    6.0408  -14.4862   21.5440 C   0  0  0  0  0  0  0  0  0  0  0  0
    5.8830  -13.6481   20.5134 N   0  0  0  0  0  0  0  0  0  0  0  0
    7.1019  -13.3346   20.0670 C   0  0  0  0  0  0  0  0  0  0  0  0
    7.4791  -12.5220   19.0240 C   0  0  0  0  0  0  0  0  0  0  0  0
    8.8082  -12.3445   18.7226 C   0  0  0  0  0  0  0  0  0  0  0  0
    9.7534  -12.9961   19.4839 C   0  0  0  0  0  0  0  0  0  0  0  0
    9.4143  -13.8186   20.5379 C   0  0  0  0  0  0  0  0  0  0  0  0
    8.0733  -13.9837   20.8261 C   0  0  0  0  0  0  0  0  0  0  0  0
    9.5752  -17.3609   23.3202 C   0  0  0  0  0  0  0  0  0  0  0  0
    8.9503  -17.8955   24.2663 O   0  0  0  0  0  0  0  0  0  0  0  0
   10.9880  -17.4662   23.2397 N   0  0  0  0  0  0  0  0  0  0  0  0
   11.7668  -18.2052   24.2712 C   0  0  1  0  0  0  0  0  0  0  0  0
   13.1472  -18.2885   23.6846 C   0  0  0  0  0  0  0  0  0  0  0  0
   13.3826  -19.3632   22.6955 C   0  0  0  0  0  0  0  0  0  0  0  0
   14.2972  -18.9718   21.5627 C   0  0  0  0  0  0  0  0  0  0  0  0
   15.5587  -19.8208   21.5409 C   0  0  0  0  0  0  0  0  0  0  0  0
   16.3699  -19.3117   20.4430 N   0  0  0  0  0  0  0  0  0  0  0  0
   11.6627  -17.5076   25.5531 C   0  0  0  0  0  0  0  0  0  0  0  0
   12.2954  -16.3913   25.6701 O   0  0  0  0  0  0  0  0  0  0  0  0
   10.9214  -17.9604   26.6693 N   0  0  0  0  0  0  0  0  0  0  0  0
   10.9179  -17.1727   27.9112 C   0  0  1  0  0  0  0  0  0  0  0  0
    9.5109  -16.7841   28.2523 C   0  0  0  0  0  0  0  0  0  0  0  0
    9.1838  -15.4793   27.6454 C   0  0  0  0  0  0  0  0  0  0  0  0
   10.0448  -14.4222   27.9112 C   0  0  0  0  0  0  0  0  0  0  0  0
    9.8224  -13.1784   27.3559 C   0  0  0  0  0  0  0  0  0  0  0  0
    8.7439  -13.0231   26.5482 C   0  0  0  0  0  0  0  0  0  0  0  0
    7.8717  -14.0664   26.2689 C   0  0  0  0  0  0  0  0  0  0  0  0
    8.0954  -15.3035   26.8233 C   0  0  0  0  0  0  0  0  0  0  0  0
   11.5330  -17.9773   28.9683 C   0  0  0  0  0  0  0  0  0  0  0  0
   11.8497  -17.4453   30.1925 O   0  0  0  0  0  0  0  0  0  0  0  0
   11.7883  -19.1961   28.7625 O   0  0  0  0  0  0  0  0  0  0  0  0
  2  1  1  6
  3  2  1  0
  4  5  2  0
  4  3  1  0
  6  5  1  0
  7 12  2  0
  7  6  1  0
  8  7  1  0
  9 10  1  0
  9  8  2  0
 10 11  2  0
 11 12  1  0
 12  4  1  0
 13  2  1  0
 14 13  2  0
 15 13  1  0
 16 22  1  0
 16 15  1  0
 16 17  1  6
 18 17  1  0
 19 18  1  0
 20 19  1  0
 21 20  1  0
 22 23  2  0
 24 25  1  0
 24 22  1  0
 25 26  1  1
 25 33  1  0
 26 27  1  0
 27 28  2  0
 28 29  1  0
 30 29  2  0
 31 30  1  0
 32 27  1  0
 32 31  2  0
 33 35  2  0
 33 34  1  0
M  END
$$$$
