WKF.pdb
     RDKit          3D

 35 37  0  0  1  0  0  0  0  0999 V2000
    5.6956  -18.2839   21.7758 N   0  0  0  0  0  0  0  0  0  0  0  0
    6.7475  -17.2955   21.7160 C   0  0  1  0  0  0  0  0  0  0  0  0
    6.1808  -15.8969   21.6240 C   0  0  0  0  0  0  0  0  0  0  0  0
    6.9034  -15.1330   20.5979 C   0  0  0  0  0  0  0  0  0  0  0  0
    6.8955  -15.3947   19.2310 C   0  0  0  0  0  0  0  0  0  0  0  0
    7.6374  -14.4831   18.5922 N   0  0  0  0  0  0  0  0  0  0  0  0
    8.1197  -13.6471   19.5150 C   0  0  0  0  0  0  0  0  0  0  0  0
    8.9417  -12.5539   19.3739 C   0  0  0  0  0  0  0  0  0  0  0  0
    9.3345  -11.8292   20.4735 C   0  0  0  0  0  0  0  0  0  0  0  0
    8.8902  -12.2191   21.7179 C   0  0  0  0  0  0  0  0  0  0  0  0
    8.0646  -13.3089   21.8996 C   0  0  0  0  0  0  0  0  0  0  0  0
    7.6798  -14.0243   20.7820 C   0  0  0  0  0  0  0  0  0  0  0  0
    7.4945  -17.4532   23.0198 C   0  0  0  0  0  0  0  0  0  0  0  0
    6.9234  -17.6539   24.1175 O   0  0  0  0  0  0  0  0  0  0  0  0
    8.9089  -17.3618   22.9499 N   0  0  0  0  0  0  0  0  0  0  0  0
    9.7680  -17.8118   24.0796 C   0  0  1  0  0  0  0  0  0  0  0  0
   10.9525  -18.4375   23.4000 C   0  0  0  0  0  0  0  0  0  0  0  0
   11.9409  -19.1060   24.2745 C   0  0  0  0  0  0  0  0  0  0  0  0
   13.1612  -19.6165   23.5513 C   0  0  0  0  0  0  0  0  0  0  0  0
   14.1665  -20.2320   24.5121 C   0  0  0  0  0  0  0  0  0  0  0  0
   14.4528  -21.5652   23.9988 N   0  0  0  0  0  0  0  0  0  0  0  0
   10.0634  -16.6739   24.9506 C   0  0  0  0  0  0  0  0  0  0  0  0
   10.7869  -15.7276   24.4595 O   0  0  0  0  0  0  0  0  0  0  0  0
    9.6155  -16.5309   26.2845 N   0  0  0  0  0  0  0  0  0  0  0  0
   10.1664  -15.4599   27.1284 C   0  0  1  0  0  0  0  0  0  0  0  0
    9.1005  -14.9545   28.0533 C   0  0  0  0  0  0  0  0  0  0  0  0
    8.0086  -14.3344   27.2781 C   0  0  0  0  0  0  0  0  0  0  0  0
    8.0949  -12.9683   27.0416 C   0  0  0  0  0  0  0  0  0  0  0  0
    7.1277  -12.3214   26.2993 C   0  0  0  0  0  0  0  0  0  0  0  0
    6.0979  -13.0576   25.8119 C   0  0  0  0  0  0  0  0  0  0  0  0
    5.9933  -14.4237   26.0358 C   0  0  0  0  0  0  0  0  0  0  0  0
    6.9575  -15.0650   26.7754 C   0  0  0  0  0  0  0  0  0  0  0  0
   11.3149  -15.9959   27.8611 C   0  0  0  0  0  0  0  0  0  0  0  0
   12.1456  -15.1893   28.5970 O   0  0  0  0  0  0  0  0  0  0  0  0
   11.5635  -17.2327   27.8225 O   0  0  0  0  0  0  0  0  0  0  0  0
  2  1  1  1
  3  2  1  0
  4  5  2  0
  4  3  1  0
  6  5  1  0
  7 12  2  0
  7  6  1  0
  8  7  1  0
  9 10  1  0
  9  8  2  0
 10 11  2  0
 11 12  1  0
 12  4  1  0
 13  2  1  0
 14 13  2  0
 15 13  1  0
 16 22  1  0
 16 15  1  0
 16 17  1  6
 18 17  1  0
 19 18  1  0
 20 19  1  0
 21 20  1  0
 22 23  2  0
 24 25  1  0
 24 22  1  0
 25 26  1  1
 25 33  1  0
 26 27  1  0
 27 28  2  0
 28 29  1  0
 30 29  2  0
 31 30  1  0
 32 27  1  0
 32 31  2  0
 33 35  2  0
 33 34  1  0
M  END
$$$$
