WKF.pdb
     RDKit          3D

 35 37  0  0  1  0  0  0  0  0999 V2000
    9.5302  -15.6146   20.9126 N   0  0  0  0  0  0  0  0  0  0  0  0
    8.8192  -14.8882   21.9392 C   0  0  1  0  0  0  0  0  0  0  0  0
    7.3905  -14.6146   21.5273 C   0  0  0  0  0  0  0  0  0  0  0  0
    7.3715  -13.8445   20.2762 C   0  0  0  0  0  0  0  0  0  0  0  0
    7.4407  -12.4584   20.1716 C   0  0  0  0  0  0  0  0  0  0  0  0
    7.4284  -12.1015   18.8824 N   0  0  0  0  0  0  0  0  0  0  0  0
    7.3521  -13.2228   18.1612 C   0  0  0  0  0  0  0  0  0  0  0  0
    7.2986  -13.3950   16.7981 C   0  0  0  0  0  0  0  0  0  0  0  0
    7.2080  -14.6549   16.2566 C   0  0  0  0  0  0  0  0  0  0  0  0
    7.1709  -15.7399   17.1045 C   0  0  0  0  0  0  0  0  0  0  0  0
    7.2229  -15.6076   18.4764 C   0  0  0  0  0  0  0  0  0  0  0  0
    7.3149  -14.3333   19.0018 C   0  0  0  0  0  0  0  0  0  0  0  0
    8.8321  -15.8087   23.1372 C   0  0  0  0  0  0  0  0  0  0  0  0
    7.9383  -15.8032   24.0161 O   0  0  0  0  0  0  0  0  0  0  0  0
    9.9283  -16.7050   23.2305 N   0  0  0  0  0  0  0  0  0  0  0  0
   10.0971  -17.5976   24.4102 C   0  0  1  0  0  0  0  0  0  0  0  0
   11.1808  -18.5477   23.9868 C   0  0  0  0  0  0  0  0  0  0  0  0
   11.5273  -19.6243   24.9404 C   0  0  0  0  0  0  0  0  0  0  0  0
   12.5962  -20.5665   24.4479 C   0  0  0  0  0  0  0  0  0  0  0  0
   12.8119  -21.7234   25.4110 C   0  0  0  0  0  0  0  0  0  0  0  0
   13.8653  -22.5439   24.8282 N   0  0  0  0  0  0  0  0  0  0  0  0
   10.3880  -16.7897   25.5948 C   0  0  0  0  0  0  0  0  0  0  0  0
   11.3896  -15.9821   25.5265 O   0  0  0  0  0  0  0  0  0  0  0  0
    9.6558  -16.8239   26.8044 N   0  0  0  0  0  0  0  0  0  0  0  0
   10.1653  -16.1124   27.9863 C   0  0  1  0  0  0  0  0  0  0  0  0
    9.0355  -15.3984   28.6651 C   0  0  0  0  0  0  0  0  0  0  0  0
    8.4958  -14.3472   27.7810 C   0  0  0  0  0  0  0  0  0  0  0  0
    9.2422  -13.1830   27.6506 C   0  0  0  0  0  0  0  0  0  0  0  0
    8.8183  -12.1662   26.8190 C   0  0  0  0  0  0  0  0  0  0  0  0
    7.6579  -12.3397   26.1385 C   0  0  0  0  0  0  0  0  0  0  0  0
    6.8975  -13.4953   26.2538 C   0  0  0  0  0  0  0  0  0  0  0  0
    7.3218  -14.5058   27.0825 C   0  0  0  0  0  0  0  0  0  0  0  0
   10.8037  -17.0884   28.8713 C   0  0  0  0  0  0  0  0  0  0  0  0
   11.5840  -16.7032   29.9319 O   0  0  0  0  0  0  0  0  0  0  0  0
   10.6439  -18.3232   28.6646 O   0  0  0  0  0  0  0  0  0  0  0  0
  2  1  1  6
  3  2  1  0
  4  5  2  0
  4  3  1  0
  6  5  1  0
  7 12  2  0
  7  6  1  0
  8  7  1  0
  9 10  1  0
  9  8  2  0
 10 11  2  0
 11 12  1  0
 12  4  1  0
 13  2  1  0
 14 13  2  0
 15 13  1  0
 16 22  1  0
 16 15  1  0
 16 17  1  6
 18 17  1  0
 19 18  1  0
 20 19  1  0
 21 20  1  0
 22 23  2  0
 24 25  1  0
 24 22  1  0
 25 26  1  1
 25 33  1  0
 26 27  1  0
 27 28  2  0
 28 29  1  0
 30 29  2  0
 31 30  1  0
 32 27  1  0
 32 31  2  0
 33 35  2  0
 33 34  1  0
M  END
$$$$
