WKF.pdb
     RDKit          3D

 35 37  0  0  1  0  0  0  0  0999 V2000
    6.1246  -17.2453   24.0274 N   0  0  0  0  0  0  0  0  0  0  0  0
    7.0541  -16.1471   23.8966 C   0  0  1  0  0  0  0  0  0  0  0  0
    7.5256  -15.6641   25.2494 C   0  0  0  0  0  0  0  0  0  0  0  0
    6.5921  -14.6570   25.7719 C   0  0  0  0  0  0  0  0  0  0  0  0
    5.5539  -14.8956   26.6675 C   0  0  0  0  0  0  0  0  0  0  0  0
    4.9274  -13.7476   26.9490 N   0  0  0  0  0  0  0  0  0  0  0  0
    5.5373  -12.7827   26.2561 C   0  0  0  0  0  0  0  0  0  0  0  0
    5.2676  -11.4361   26.1908 C   0  0  0  0  0  0  0  0  0  0  0  0
    6.0227  -10.6107   25.3924 C   0  0  0  0  0  0  0  0  0  0  0  0
    7.0528  -11.1581   24.6594 C   0  0  0  0  0  0  0  0  0  0  0  0
    7.3543  -12.5034   24.6991 C   0  0  0  0  0  0  0  0  0  0  0  0
    6.5846  -13.3167   25.5083 C   0  0  0  0  0  0  0  0  0  0  0  0
    8.2219  -16.7241   23.1310 C   0  0  0  0  0  0  0  0  0  0  0  0
    8.7203  -17.8463   23.3834 O   0  0  0  0  0  0  0  0  0  0  0  0
    8.7472  -15.9216   22.0852 N   0  0  0  0  0  0  0  0  0  0  0  0
   10.0858  -16.2008   21.4961 C   0  0  1  0  0  0  0  0  0  0  0  0
   10.1825  -15.2305   20.3535 C   0  0  0  0  0  0  0  0  0  0  0  0
    8.9537  -15.0216   19.5565 C   0  0  0  0  0  0  0  0  0  0  0  0
    9.1087  -14.0332   18.4287 C   0  0  0  0  0  0  0  0  0  0  0  0
    7.8061  -13.8410   17.6679 C   0  0  0  0  0  0  0  0  0  0  0  0
    8.0724  -12.8224   16.6608 N   0  0  0  0  0  0  0  0  0  0  0  0
   11.1112  -16.0672   22.5312 C   0  0  0  0  0  0  0  0  0  0  0  0
   11.8264  -14.9955   22.5179 O   0  0  0  0  0  0  0  0  0  0  0  0
   11.3756  -17.0185   23.5439 N   0  0  0  0  0  0  0  0  0  0  0  0
   12.5601  -16.8615   24.4013 C   0  0  1  0  0  0  0  0  0  0  0  0
   12.4784  -15.5550   25.1318 C   0  0  0  0  0  0  0  0  0  0  0  0
   11.8628  -15.7533   26.4582 C   0  0  0  0  0  0  0  0  0  0  0  0
   11.8924  -14.6790   27.3383 C   0  0  0  0  0  0  0  0  0  0  0  0
   11.3113  -14.7772   28.5864 C   0  0  0  0  0  0  0  0  0  0  0  0
   10.7150  -15.9481   28.9230 C   0  0  0  0  0  0  0  0  0  0  0  0
   10.6735  -17.0332   28.0582 C   0  0  0  0  0  0  0  0  0  0  0  0
   11.2530  -16.9328   26.8165 C   0  0  0  0  0  0  0  0  0  0  0  0
   12.6159  -17.9984   25.3219 C   0  0  0  0  0  0  0  0  0  0  0  0
   13.7155  -18.2437   26.1047 O   0  0  0  0  0  0  0  0  0  0  0  0
   11.6338  -18.7866   25.4075 O   0  0  0  0  0  0  0  0  0  0  0  0
  2  1  1  1
  3  2  1  0
  4  5  2  0
  4  3  1  0
  6  5  1  0
  7 12  2  0
  7  6  1  0
  8  7  1  0
  9 10  1  0
  9  8  2  0
 10 11  2  0
 11 12  1  0
 12  4  1  0
 13  2  1  0
 14 13  2  0
 15 13  1  0
 16 22  1  0
 16 15  1  0
 16 17  1  6
 18 17  1  0
 19 18  1  0
 20 19  1  0
 21 20  1  0
 22 23  2  0
 24 25  1  0
 24 22  1  0
 25 26  1  1
 25 33  1  0
 26 27  1  0
 27 28  2  0
 28 29  1  0
 30 29  2  0
 31 30  1  0
 32 27  1  0
 32 31  2  0
 33 35  2  0
 33 34  1  0
M  END
$$$$
