WKF.pdb
     RDKit          3D

 35 37  0  0  1  0  0  0  0  0999 V2000
    7.5302  -18.1187   20.4050 N   0  0  0  0  0  0  0  0  0  0  0  0
    8.6002  -17.3068   20.9368 C   0  0  1  0  0  0  0  0  0  0  0  0
    8.0618  -16.1821   21.7917 C   0  0  0  0  0  0  0  0  0  0  0  0
    7.3882  -15.1898   20.9431 C   0  0  0  0  0  0  0  0  0  0  0  0
    6.0121  -15.0467   20.7923 C   0  0  0  0  0  0  0  0  0  0  0  0
    5.7517  -14.0254   19.9685 N   0  0  0  0  0  0  0  0  0  0  0  0
    6.9249  -13.5134   19.5884 C   0  0  0  0  0  0  0  0  0  0  0  0
    7.1992  -12.4653   18.7419 C   0  0  0  0  0  0  0  0  0  0  0  0
    8.4983  -12.1064   18.4730 C   0  0  0  0  0  0  0  0  0  0  0  0
    9.5187  -12.8166   19.0665 C   0  0  0  0  0  0  0  0  0  0  0  0
    9.2836  -13.8732   19.9214 C   0  0  0  0  0  0  0  0  0  0  0  0
    7.9711  -14.2182   20.1801 C   0  0  0  0  0  0  0  0  0  0  0  0
    9.4068  -18.2526   21.7958 C   0  0  0  0  0  0  0  0  0  0  0  0
    8.8963  -18.9828   22.6776 O   0  0  0  0  0  0  0  0  0  0  0  0
   10.8054  -18.2816   21.5577 N   0  0  0  0  0  0  0  0  0  0  0  0
   11.7604  -18.7030   22.6195 C   0  0  1  0  0  0  0  0  0  0  0  0
   13.0776  -18.7865   21.9022 C   0  0  0  0  0  0  0  0  0  0  0  0
   13.2023  -19.8356   20.8666 C   0  0  0  0  0  0  0  0  0  0  0  0
   14.5321  -19.8485   20.1564 C   0  0  0  0  0  0  0  0  0  0  0  0
   14.6083  -20.9663   19.1281 C   0  0  0  0  0  0  0  0  0  0  0  0
   15.9116  -20.8401   18.4892 N   0  0  0  0  0  0  0  0  0  0  0  0
   11.7020  -17.7544   23.7319 C   0  0  0  0  0  0  0  0  0  0  0  0
   11.6836  -16.5003   23.4371 O   0  0  0  0  0  0  0  0  0  0  0  0
   11.6615  -18.1059   25.1012 N   0  0  0  0  0  0  0  0  0  0  0  0
   11.6255  -17.0506   26.1248 C   0  0  1  0  0  0  0  0  0  0  0  0
   10.2008  -16.6934   26.4244 C   0  0  0  0  0  0  0  0  0  0  0  0
   10.1452  -15.7040   27.5179 C   0  0  0  0  0  0  0  0  0  0  0  0
    9.9368  -14.3773   27.1630 C   0  0  0  0  0  0  0  0  0  0  0  0
    9.8431  -13.3977   28.1308 C   0  0  0  0  0  0  0  0  0  0  0  0
    9.9603  -13.7699   29.4298 C   0  0  0  0  0  0  0  0  0  0  0  0
   10.1678  -15.0900   29.8059 C   0  0  0  0  0  0  0  0  0  0  0  0
   10.2609  -16.0631   28.8404 C   0  0  0  0  0  0  0  0  0  0  0  0
   12.3270  -17.5384   27.3137 C   0  0  0  0  0  0  0  0  0  0  0  0
   12.1621  -18.8188   27.7779 O   0  0  0  0  0  0  0  0  0  0  0  0
   13.1068  -16.7707   27.9425 O   0  0  0  0  0  0  0  0  0  0  0  0
  2  1  1  1
  3  2  1  0
  4  5  2  0
  4  3  1  0
  6  5  1  0
  7 12  2  0
  7  6  1  0
  8  7  1  0
  9 10  1  0
  9  8  2  0
 10 11  2  0
 11 12  1  0
 12  4  1  0
 13  2  1  0
 14 13  2  0
 15 13  1  0
 16 22  1  0
 16 15  1  0
 16 17  1  6
 18 17  1  0
 19 18  1  0
 20 19  1  0
 21 20  1  0
 22 23  2  0
 24 25  1  0
 24 22  1  0
 25 26  1  1
 25 33  1  0
 26 27  1  0
 27 28  2  0
 28 29  1  0
 30 29  2  0
 31 30  1  0
 32 27  1  0
 32 31  2  0
 33 35  2  0
 33 34  1  0
M  END
$$$$
