WKF.pdb
     RDKit          3D

 35 37  0  0  1  0  0  0  0  0999 V2000
    6.6375  -18.1198   25.3708 N   0  0  0  0  0  0  0  0  0  0  0  0
    6.6850  -16.7854   24.8192 C   0  0  1  0  0  0  0  0  0  0  0  0
    7.3423  -15.8190   25.7782 C   0  0  0  0  0  0  0  0  0  0  0  0
    6.3684  -14.8084   26.2128 C   0  0  0  0  0  0  0  0  0  0  0  0
    5.2011  -15.0569   26.9287 C   0  0  0  0  0  0  0  0  0  0  0  0
    4.5707  -13.9038   27.1791 N   0  0  0  0  0  0  0  0  0  0  0  0
    5.3039  -12.9260   26.6411 C   0  0  0  0  0  0  0  0  0  0  0  0
    5.0837  -11.5691   26.6136 C   0  0  0  0  0  0  0  0  0  0  0  0
    5.9724  -10.7302   25.9851 C   0  0  0  0  0  0  0  0  0  0  0  0
    7.0859  -11.2743   25.3835 C   0  0  0  0  0  0  0  0  0  0  0  0
    7.3415  -12.6297   25.3905 C   0  0  0  0  0  0  0  0  0  0  0  0
    6.4370  -13.4567   26.0281 C   0  0  0  0  0  0  0  0  0  0  0  0
    7.5315  -16.9164   23.5745 C   0  0  0  0  0  0  0  0  0  0  0  0
    8.5039  -17.7025   23.4860 O   0  0  0  0  0  0  0  0  0  0  0  0
    7.1715  -16.0898   22.4787 N   0  0  0  0  0  0  0  0  0  0  0  0
    8.2003  -15.5563   21.5439 C   0  0  1  0  0  0  0  0  0  0  0  0
    7.5122  -14.3984   20.8789 C   0  0  0  0  0  0  0  0  0  0  0  0
    8.2658  -13.7045   19.8115 C   0  0  0  0  0  0  0  0  0  0  0  0
    8.0879  -14.3033   18.4395 C   0  0  0  0  0  0  0  0  0  0  0  0
    8.9455  -13.5950   17.4025 C   0  0  0  0  0  0  0  0  0  0  0  0
    8.6247  -14.2123   16.1223 N   0  0  0  0  0  0  0  0  0  0  0  0
    9.4149  -15.2291   22.2912 C   0  0  0  0  0  0  0  0  0  0  0  0
    9.6813  -13.9807   22.4663 O   0  0  0  0  0  0  0  0  0  0  0  0
   10.3150  -16.1736   22.8372 N   0  0  0  0  0  0  0  0  0  0  0  0
   11.6712  -15.7528   23.2199 C   0  0  1  0  0  0  0  0  0  0  0  0
   11.5872  -14.7288   24.3113 C   0  0  0  0  0  0  0  0  0  0  0  0
   11.4112  -15.3929   25.6174 C   0  0  0  0  0  0  0  0  0  0  0  0
   11.3131  -16.7785   25.6165 C   0  0  0  0  0  0  0  0  0  0  0  0
   11.1768  -17.4739   26.8009 C   0  0  0  0  0  0  0  0  0  0  0  0
   11.1421  -16.7654   27.9571 C   0  0  0  0  0  0  0  0  0  0  0  0
   11.2394  -15.3808   27.9802 C   0  0  0  0  0  0  0  0  0  0  0  0
   11.3747  -14.6911   26.7996 C   0  0  0  0  0  0  0  0  0  0  0  0
   12.4194  -16.9386   23.6410 C   0  0  0  0  0  0  0  0  0  0  0  0
   11.8147  -18.1606   23.7934 O   0  0  0  0  0  0  0  0  0  0  0  0
   13.6560  -16.8503   23.8775 O   0  0  0  0  0  0  0  0  0  0  0  0
  2  1  1  1
  3  2  1  0
  4  5  2  0
  4  3  1  0
  6  5  1  0
  7 12  2  0
  7  6  1  0
  8  7  1  0
  9 10  1  0
  9  8  2  0
 10 11  2  0
 11 12  1  0
 12  4  1  0
 13  2  1  0
 14 13  2  0
 15 13  1  0
 16 22  1  0
 16 15  1  0
 16 17  1  1
 18 17  1  0
 19 18  1  0
 20 19  1  0
 21 20  1  0
 22 23  2  0
 24 25  1  0
 24 22  1  0
 25 26  1  1
 25 33  1  0
 26 27  1  0
 27 28  2  0
 28 29  1  0
 30 29  2  0
 31 30  1  0
 32 27  1  0
 32 31  2  0
 33 35  2  0
 33 34  1  0
M  END
$$$$
