ILP.pdb
     RDKit          3D

 24 24  0  0  1  0  0  0  0  0999 V2000
    6.1544  -22.6358   23.3072 C   0  0  0  0  0  0  0  0  0  0  0  0
    6.5405  -21.7513   24.4557 C   0  0  0  0  0  0  0  0  0  0  0  0
    6.1586  -20.3257   24.1332 C   0  0  2  0  0  0  0  0  0  0  0  0
    6.8361  -19.9816   22.8202 C   0  0  0  0  0  0  0  0  0  0  0  0
    6.5165  -19.3572   25.2196 C   0  0  2  0  0  0  0  0  0  0  0  0
    5.9180  -19.8370   26.4537 N   0  0  0  0  0  0  0  0  0  0  0  0
    6.0663  -17.9620   24.9163 C   0  0  0  0  0  0  0  0  0  0  0  0
    5.0624  -17.7141   24.2483 O   0  0  0  0  0  0  0  0  0  0  0  0
    6.4764  -12.3721   26.9472 C   0  0  0  0  0  0  0  0  0  0  0  0
    6.7580  -13.1814   25.6688 C   0  0  1  0  0  0  0  0  0  0  0  0
    8.2718  -12.9823   25.3692 C   0  0  0  0  0  0  0  0  0  0  0  0
    6.5551  -14.6027   26.0363 C   0  0  0  0  0  0  0  0  0  0  0  0
    7.0174  -15.5891   24.9263 C   0  0  2  0  0  0  0  0  0  0  0  0
    6.8368  -16.9113   25.4253 N   0  0  0  0  0  0  0  0  0  0  0  0
    8.3174  -15.2722   24.4176 C   0  0  0  0  0  0  0  0  0  0  0  0
    9.3183  -15.5494   25.1614 O   0  0  0  0  0  0  0  0  0  0  0  0
    8.5863  -14.6864   23.1719 N   0  0  0  0  0  0  0  0  0  0  0  0
    8.0890  -13.3445   22.7532 C   0  0  0  0  0  0  0  0  0  0  0  0
    7.4616  -13.7363   21.4320 C   0  0  0  0  0  0  0  0  0  0  0  0
    8.5231  -14.6485   20.8647 C   0  0  0  0  0  0  0  0  0  0  0  0
    9.3735  -15.0885   22.0336 C   0  0  1  0  0  0  0  0  0  0  0  0
   10.6642  -14.3062   21.9455 C   0  0  0  0  0  0  0  0  0  0  0  0
   10.8974  -13.3007   22.6562 O   0  0  0  0  0  0  0  0  0  0  0  0
   11.6585  -14.6791   21.0575 O   0  0  0  0  0  0  0  0  0  0  0  0
  1  2  1  0
  3  4  1  6
  3  2  1  0
  5  3  1  0
  5  6  1  1
  7  8  2  0
  7  5  1  0
 10 11  1  1
 10  9  1  0
 12 10  1  0
 13 14  1  0
 13 12  1  1
 14  7  1  0
 15 13  1  0
 16 15  2  0
 17 18  1  0
 17 15  1  0
 19 18  1  0
 20 21  1  0
 20 19  1  0
 21 17  1  0
 21 22  1  1
 22 24  1  0
 23 22  2  0
M  END
$$$$
