ILP.pdb
     RDKit          3D

 24 24  0  0  1  0  0  0  0  0999 V2000
    8.1412  -22.4583   25.4610 C   0  0  0  0  0  0  0  0  0  0  0  0
    6.8881  -21.6663   25.6908 C   0  0  0  0  0  0  0  0  0  0  0  0
    7.0044  -20.3381   24.9805 C   0  0  2  0  0  0  0  0  0  0  0  0
    8.2559  -19.6681   25.5155 C   0  0  0  0  0  0  0  0  0  0  0  0
    5.7918  -19.4723   25.1428 C   0  0  2  0  0  0  0  0  0  0  0  0
    4.6495  -20.2121   24.6333 N   0  0  0  0  0  0  0  0  0  0  0  0
    5.9286  -18.1555   24.4436 C   0  0  0  0  0  0  0  0  0  0  0  0
    5.9013  -18.0437   23.2179 O   0  0  0  0  0  0  0  0  0  0  0  0
    5.8905  -12.4994   26.3570 C   0  0  0  0  0  0  0  0  0  0  0  0
    7.0158  -13.4608   25.9351 C   0  0  1  0  0  0  0  0  0  0  0  0
    8.1679  -13.2346   26.9563 C   0  0  0  0  0  0  0  0  0  0  0  0
    6.4840  -14.8269   26.1521 C   0  0  0  0  0  0  0  0  0  0  0  0
    6.6525  -15.7487   24.9109 C   0  0  2  0  0  0  0  0  0  0  0  0
    6.0938  -17.0173   25.2398 N   0  0  0  0  0  0  0  0  0  0  0  0
    7.9934  -15.7539   24.4096 C   0  0  0  0  0  0  0  0  0  0  0  0
    8.8516  -16.4535   25.0466 O   0  0  0  0  0  0  0  0  0  0  0  0
    8.4446  -15.0593   23.2776 N   0  0  0  0  0  0  0  0  0  0  0  0
    8.0102  -13.6801   22.9137 C   0  0  0  0  0  0  0  0  0  0  0  0
    7.5912  -13.9437   21.4828 C   0  0  0  0  0  0  0  0  0  0  0  0
    8.7302  -14.8101   21.0006 C   0  0  0  0  0  0  0  0  0  0  0  0
    9.3964  -15.3631   22.2389 C   0  0  1  0  0  0  0  0  0  0  0  0
   10.6821  -14.5883   22.4185 C   0  0  0  0  0  0  0  0  0  0  0  0
   10.8237  -13.7035   23.2947 O   0  0  0  0  0  0  0  0  0  0  0  0
   11.7749  -14.8322   21.6045 O   0  0  0  0  0  0  0  0  0  0  0  0
  1  2  1  0
  3  4  1  1
  3  2  1  0
  5  3  1  0
  5  6  1  6
  7  8  2  0
  7  5  1  0
 10 11  1  1
 10  9  1  0
 12 10  1  0
 13 14  1  0
 13 12  1  1
 14  7  1  0
 15 13  1  0
 16 15  2  0
 17 18  1  0
 17 15  1  0
 19 18  1  0
 20 21  1  0
 20 19  1  0
 21 17  1  0
 21 22  1  1
 22 24  1  0
 23 22  2  0
M  END
$$$$
