ILP.pdb
     RDKit          3D

 24 24  0  0  1  0  0  0  0  0999 V2000
    7.9229  -21.9967   25.0812 C   0  0  0  0  0  0  0  0  0  0  0  0
    7.2842  -21.0060   24.1533 C   0  0  0  0  0  0  0  0  0  0  0  0
    6.1173  -20.3514   24.8546 C   0  0  2  0  0  0  0  0  0  0  0  0
    5.1738  -21.4677   25.2612 C   0  0  0  0  0  0  0  0  0  0  0  0
    5.4311  -19.3138   24.0186 C   0  0  2  0  0  0  0  0  0  0  0  0
    4.9529  -19.9652   22.8109 N   0  0  0  0  0  0  0  0  0  0  0  0
    6.3267  -18.1618   23.6838 C   0  0  0  0  0  0  0  0  0  0  0  0
    7.0836  -18.1639   22.7128 O   0  0  0  0  0  0  0  0  0  0  0  0
    7.1989  -12.7577   24.8645 C   0  0  0  0  0  0  0  0  0  0  0  0
    7.4889  -13.8080   25.9514 C   0  0  1  0  0  0  0  0  0  0  0  0
    7.0249  -13.1668   27.2910 C   0  0  0  0  0  0  0  0  0  0  0  0
    6.5882  -14.9488   25.6628 C   0  0  0  0  0  0  0  0  0  0  0  0
    7.1829  -15.9457   24.6278 C   0  0  2  0  0  0  0  0  0  0  0  0
    6.2834  -17.0459   24.5262 N   0  0  0  0  0  0  0  0  0  0  0  0
    8.5519  -16.2651   24.8979 C   0  0  0  0  0  0  0  0  0  0  0  0
    8.7888  -17.0098   25.9084 O   0  0  0  0  0  0  0  0  0  0  0  0
    9.6548  -15.8330   24.1465 N   0  0  0  0  0  0  0  0  0  0  0  0
    9.6859  -14.5686   23.3569 C   0  0  0  0  0  0  0  0  0  0  0  0
   10.1368  -15.1404   22.0294 C   0  0  0  0  0  0  0  0  0  0  0  0
   11.2262  -16.0867   22.4748 C   0  0  0  0  0  0  0  0  0  0  0  0
   10.9834  -16.3527   23.9422 C   0  0  1  0  0  0  0  0  0  0  0  0
   12.0168  -15.5522   24.7017 C   0  0  0  0  0  0  0  0  0  0  0  0
   11.7533  -14.4617   25.2604 O   0  0  0  0  0  0  0  0  0  0  0  0
   13.3210  -16.0030   24.8109 O   0  0  0  0  0  0  0  0  0  0  0  0
  1  2  1  0
  3  4  1  6
  3  2  1  0
  5  3  1  0
  5  6  1  6
  7  8  2  0
  7  5  1  0
 10 11  1  1
 10  9  1  0
 12 10  1  0
 13 14  1  0
 13 12  1  1
 14  7  1  0
 15 13  1  0
 16 15  2  0
 17 18  1  0
 17 15  1  0
 19 18  1  0
 20 21  1  0
 20 19  1  0
 21 17  1  0
 21 22  1  1
 22 24  1  0
 23 22  2  0
M  END
$$$$
