ILP.pdb
     RDKit          3D

 24 24  0  0  1  0  0  0  0  0999 V2000
    7.0917  -22.5236   25.8062 C   0  0  0  0  0  0  0  0  0  0  0  0
    5.9672  -21.5558   25.5840 C   0  0  0  0  0  0  0  0  0  0  0  0
    6.5124  -20.3024   24.9408 C   0  0  2  0  0  0  0  0  0  0  0  0
    7.6707  -19.8401   25.8045 C   0  0  0  0  0  0  0  0  0  0  0  0
    5.4800  -19.2299   24.7663 C   0  0  2  0  0  0  0  0  0  0  0  0
    4.4206  -19.7686   23.9302 N   0  0  0  0  0  0  0  0  0  0  0  0
    6.0464  -17.9794   24.1691 C   0  0  0  0  0  0  0  0  0  0  0  0
    6.3827  -17.8958   22.9878 O   0  0  0  0  0  0  0  0  0  0  0  0
    6.5984  -12.4874   25.0571 C   0  0  0  0  0  0  0  0  0  0  0  0
    7.3832  -13.4571   25.9583 C   0  0  1  0  0  0  0  0  0  0  0  0
    7.3372  -12.8370   27.3847 C   0  0  0  0  0  0  0  0  0  0  0  0
    6.5945  -14.7114   25.9873 C   0  0  0  0  0  0  0  0  0  0  0  0
    6.9641  -15.6881   24.8348 C   0  0  2  0  0  0  0  0  0  0  0  0
    6.1900  -16.8712   25.0105 N   0  0  0  0  0  0  0  0  0  0  0  0
    8.3779  -15.8663   24.6991 C   0  0  0  0  0  0  0  0  0  0  0  0
    8.9616  -16.5890   25.5760 O   0  0  0  0  0  0  0  0  0  0  0  0
    9.1763  -15.3181   23.6845 N   0  0  0  0  0  0  0  0  0  0  0  0
    8.9512  -13.9758   23.0756 C   0  0  0  0  0  0  0  0  0  0  0  0
    8.9430  -14.3856   21.6180 C   0  0  0  0  0  0  0  0  0  0  0  0
   10.1159  -15.3361   21.5760 C   0  0  0  0  0  0  0  0  0  0  0  0
   10.3644  -15.7666   23.0029 C   0  0  1  0  0  0  0  0  0  0  0  0
   11.5909  -15.0170   23.4713 C   0  0  0  0  0  0  0  0  0  0  0  0
   12.7242  -15.1870   22.9640 O   0  0  0  0  0  0  0  0  0  0  0  0
   11.5067  -14.0949   24.5003 O   0  0  0  0  0  0  0  0  0  0  0  0
  1  2  1  0
  3  4  1  1
  3  2  1  0
  5  3  1  0
  5  6  1  6
  7  8  2  0
  7  5  1  0
 10 11  1  1
 10  9  1  0
 12 10  1  0
 13 14  1  0
 13 12  1  1
 14  7  1  0
 15 13  1  0
 16 15  2  0
 17 18  1  0
 17 15  1  0
 19 18  1  0
 20 21  1  0
 20 19  1  0
 21 17  1  0
 21 22  1  1
 22 24  1  0
 23 22  2  0
M  END
$$$$
