ILP.pdb
     RDKit          3D

 24 24  0  0  1  0  0  0  0  0999 V2000
    9.6248  -20.5827   24.7688 C   0  0  0  0  0  0  0  0  0  0  0  0
    8.2238  -20.2176   24.3762 C   0  0  0  0  0  0  0  0  0  0  0  0
    7.4432  -19.8459   25.6150 C   0  0  2  0  0  0  0  0  0  0  0  0
    7.3892  -21.0890   26.4830 C   0  0  0  0  0  0  0  0  0  0  0  0
    6.0753  -19.3121   25.3143 C   0  0  2  0  0  0  0  0  0  0  0  0
    5.3715  -20.3155   24.5337 N   0  0  0  0  0  0  0  0  0  0  0  0
    6.1165  -18.0039   24.5875 C   0  0  0  0  0  0  0  0  0  0  0  0
    6.0147  -17.9157   23.3638 O   0  0  0  0  0  0  0  0  0  0  0  0
    6.0365  -12.3669   26.2328 C   0  0  0  0  0  0  0  0  0  0  0  0
    7.2439  -13.2880   25.9832 C   0  0  1  0  0  0  0  0  0  0  0  0
    8.2812  -12.9309   27.0866 C   0  0  0  0  0  0  0  0  0  0  0  0
    6.7638  -14.6653   26.2456 C   0  0  0  0  0  0  0  0  0  0  0  0
    6.7766  -15.5651   24.9772 C   0  0  2  0  0  0  0  0  0  0  0  0
    6.2785  -16.8454   25.3546 N   0  0  0  0  0  0  0  0  0  0  0  0
    8.0397  -15.5461   24.3039 C   0  0  0  0  0  0  0  0  0  0  0  0
    8.9791  -16.2512   24.8063 O   0  0  0  0  0  0  0  0  0  0  0  0
    8.3332  -14.8225   23.1388 N   0  0  0  0  0  0  0  0  0  0  0  0
    7.8122  -13.4558   22.8489 C   0  0  0  0  0  0  0  0  0  0  0  0
    7.2407  -13.7176   21.4715 C   0  0  0  0  0  0  0  0  0  0  0  0
    8.3460  -14.5365   20.8482 C   0  0  0  0  0  0  0  0  0  0  0  0
    9.1691  -15.0793   21.9932 C   0  0  1  0  0  0  0  0  0  0  0  0
   10.4392  -14.2606   22.0364 C   0  0  0  0  0  0  0  0  0  0  0  0
   10.6296  -13.3482   22.8743 O   0  0  0  0  0  0  0  0  0  0  0  0
   11.4619  -14.4926   21.1328 O   0  0  0  0  0  0  0  0  0  0  0  0
  1  2  1  0
  3  4  1  1
  3  2  1  0
  5  3  1  0
  5  6  1  6
  7  8  2  0
  7  5  1  0
 10 11  1  1
 10  9  1  0
 12 10  1  0
 13 14  1  0
 13 12  1  1
 14  7  1  0
 15 13  1  0
 16 15  2  0
 17 18  1  0
 17 15  1  0
 19 18  1  0
 20 21  1  0
 20 19  1  0
 21 17  1  0
 21 22  1  1
 22 24  1  0
 23 22  2  0
M  END
$$$$
