ILP.pdb
     RDKit          3D

 24 24  0  0  1  0  0  0  0  0999 V2000
    8.0585  -22.5429   25.3000 C   0  0  0  0  0  0  0  0  0  0  0  0
    6.7996  -21.7591   25.5265 C   0  0  0  0  0  0  0  0  0  0  0  0
    6.9034  -20.4360   24.8050 C   0  0  2  0  0  0  0  0  0  0  0  0
    8.1878  -19.7827   25.2794 C   0  0  0  0  0  0  0  0  0  0  0  0
    5.7125  -19.5511   25.0178 C   0  0  2  0  0  0  0  0  0  0  0  0
    4.5522  -20.2329   24.4695 N   0  0  0  0  0  0  0  0  0  0  0  0
    5.8814  -18.2009   24.3935 C   0  0  0  0  0  0  0  0  0  0  0  0
    5.7788  -18.0072   23.1821 O   0  0  0  0  0  0  0  0  0  0  0  0
    5.9485  -12.6342   26.8034 C   0  0  0  0  0  0  0  0  0  0  0  0
    6.8950  -13.5383   25.9939 C   0  0  1  0  0  0  0  0  0  0  0  0
    8.2740  -13.4523   26.7096 C   0  0  0  0  0  0  0  0  0  0  0  0
    6.3834  -14.9183   26.1670 C   0  0  0  0  0  0  0  0  0  0  0  0
    6.6638  -15.8288   24.9378 C   0  0  2  0  0  0  0  0  0  0  0  0
    6.1680  -17.1286   25.2449 N   0  0  0  0  0  0  0  0  0  0  0  0
    8.0241  -15.7534   24.4983 C   0  0  0  0  0  0  0  0  0  0  0  0
    8.8985  -16.3665   25.1994 O   0  0  0  0  0  0  0  0  0  0  0  0
    8.4785  -15.0668   23.3627 N   0  0  0  0  0  0  0  0  0  0  0  0
    8.0897  -13.6691   23.0185 C   0  0  0  0  0  0  0  0  0  0  0  0
    7.6321  -13.9044   21.5945 C   0  0  0  0  0  0  0  0  0  0  0  0
    8.7273  -14.8093   21.0823 C   0  0  0  0  0  0  0  0  0  0  0  0
    9.3968  -15.3976   22.3024 C   0  0  1  0  0  0  0  0  0  0  0  0
   10.7145  -14.6737   22.4616 C   0  0  0  0  0  0  0  0  0  0  0  0
   10.9109  -13.8103   23.3485 O   0  0  0  0  0  0  0  0  0  0  0  0
   11.7765  -14.9430   21.6155 O   0  0  0  0  0  0  0  0  0  0  0  0
  1  2  1  0
  3  4  1  1
  3  2  1  0
  5  3  1  0
  5  6  1  6
  7  8  2  0
  7  5  1  0
 10 11  1  1
 10  9  1  0
 12 10  1  0
 13 14  1  0
 13 12  1  1
 14  7  1  0
 15 13  1  0
 16 15  2  0
 17 18  1  0
 17 15  1  0
 19 18  1  0
 20 21  1  0
 20 19  1  0
 21 17  1  0
 21 22  1  1
 22 24  1  0
 23 22  2  0
M  END
$$$$
