ILP.pdb
     RDKit          3D

 24 24  0  0  1  0  0  0  0  0999 V2000
    7.2359  -22.4304   26.0105 C   0  0  0  0  0  0  0  0  0  0  0  0
    6.1040  -21.4972   25.6970 C   0  0  0  0  0  0  0  0  0  0  0  0
    6.6581  -20.2397   25.0694 C   0  0  2  0  0  0  0  0  0  0  0  0
    7.7311  -19.7225   26.0089 C   0  0  0  0  0  0  0  0  0  0  0  0
    5.6095  -19.2053   24.7921 C   0  0  2  0  0  0  0  0  0  0  0  0
    4.6261  -19.8008   23.9032 N   0  0  0  0  0  0  0  0  0  0  0  0
    6.1790  -17.9557   24.1959 C   0  0  0  0  0  0  0  0  0  0  0  0
    6.5826  -17.8930   23.0346 O   0  0  0  0  0  0  0  0  0  0  0  0
    6.5964  -12.3420   25.2044 C   0  0  0  0  0  0  0  0  0  0  0  0
    7.3766  -13.4014   26.0028 C   0  0  1  0  0  0  0  0  0  0  0  0
    7.3879  -12.8959   27.4743 C   0  0  0  0  0  0  0  0  0  0  0  0
    6.5522  -14.6321   25.9561 C   0  0  0  0  0  0  0  0  0  0  0  0
    7.0304  -15.6429   24.8752 C   0  0  2  0  0  0  0  0  0  0  0  0
    6.2448  -16.8233   25.0145 N   0  0  0  0  0  0  0  0  0  0  0  0
    8.4510  -15.8190   24.8791 C   0  0  0  0  0  0  0  0  0  0  0  0
    8.9599  -16.4331   25.8770 O   0  0  0  0  0  0  0  0  0  0  0  0
    9.3312  -15.3779   23.8801 N   0  0  0  0  0  0  0  0  0  0  0  0
    9.1997  -14.0769   23.1636 C   0  0  0  0  0  0  0  0  0  0  0  0
    9.2618  -14.5930   21.7415 C   0  0  0  0  0  0  0  0  0  0  0  0
   10.3940  -15.5873   21.8416 C   0  0  0  0  0  0  0  0  0  0  0  0
   10.5381  -15.9199   23.3085 C   0  0  1  0  0  0  0  0  0  0  0  0
   11.7647  -15.1844   23.7982 C   0  0  0  0  0  0  0  0  0  0  0  0
   12.9281  -15.5069   23.4616 O   0  0  0  0  0  0  0  0  0  0  0  0
   11.6468  -14.1038   24.6553 O   0  0  0  0  0  0  0  0  0  0  0  0
  1  2  1  0
  3  4  1  1
  3  2  1  0
  5  3  1  0
  5  6  1  6
  7  8  2  0
  7  5  1  0
 10 11  1  1
 10  9  1  0
 12 10  1  0
 13 14  1  0
 13 12  1  1
 14  7  1  0
 15 13  1  0
 16 15  2  0
 17 18  1  0
 17 15  1  0
 19 18  1  0
 20 21  1  0
 20 19  1  0
 21 17  1  0
 21 22  1  1
 22 24  1  0
 23 22  2  0
M  END
$$$$
