ILP.pdb
     RDKit          3D

 24 24  0  0  1  0  0  0  0  0999 V2000
    9.0012  -19.8420   20.1723 C   0  0  0  0  0  0  0  0  0  0  0  0
    8.8089  -18.3595   20.0480 C   0  0  0  0  0  0  0  0  0  0  0  0
    9.1388  -17.7048   21.3688 C   0  0  2  0  0  0  0  0  0  0  0  0
    8.2727  -18.3796   22.4158 C   0  0  0  0  0  0  0  0  0  0  0  0
    8.9477  -16.2183   21.3563 C   0  0  2  0  0  0  0  0  0  0  0  0
    9.6900  -15.6872   20.2256 N   0  0  0  0  0  0  0  0  0  0  0  0
    9.3873  -15.5720   22.6332 C   0  0  0  0  0  0  0  0  0  0  0  0
   10.5615  -15.5528   23.0028 O   0  0  0  0  0  0  0  0  0  0  0  0
    7.7521  -11.8500   26.5009 C   0  0  0  0  0  0  0  0  0  0  0  0
    7.0865  -13.2371   26.4635 C   0  0  1  0  0  0  0  0  0  0  0  0
    5.5825  -12.9910   26.7777 C   0  0  0  0  0  0  0  0  0  0  0  0
    7.1833  -13.6950   25.0574 C   0  0  0  0  0  0  0  0  0  0  0  0
    8.4609  -14.5372   24.7794 C   0  0  2  0  0  0  0  0  0  0  0  0
    8.4022  -14.9707   23.4235 N   0  0  0  0  0  0  0  0  0  0  0  0
    8.6727  -15.5540   25.7646 C   0  0  0  0  0  0  0  0  0  0  0  0
    8.0129  -16.6400   25.6332 O   0  0  0  0  0  0  0  0  0  0  0  0
    9.5444  -15.4611   26.8595 N   0  0  0  0  0  0  0  0  0  0  0  0
    9.8169  -14.2005   27.6078 C   0  0  0  0  0  0  0  0  0  0  0  0
   11.3295  -14.2209   27.5447 C   0  0  0  0  0  0  0  0  0  0  0  0
   11.6147  -15.6702   27.8588 C   0  0  0  0  0  0  0  0  0  0  0  0
   10.3336  -16.4235   27.5862 C   0  0  1  0  0  0  0  0  0  0  0  0
    9.7245  -16.7388   28.9335 C   0  0  0  0  0  0  0  0  0  0  0  0
    8.7241  -16.1328   29.3838 O   0  0  0  0  0  0  0  0  0  0  0  0
   10.2602  -17.7298   29.7378 O   0  0  0  0  0  0  0  0  0  0  0  0
  1  2  1  0
  3  4  1  1
  3  2  1  0
  5  3  1  0
  5  6  1  6
  7  8  2  0
  7  5  1  0
 10 11  1  6
 10  9  1  0
 12 10  1  0
 13 14  1  0
 13 12  1  1
 14  7  1  0
 15 13  1  0
 16 15  2  0
 17 18  1  0
 17 15  1  0
 19 18  1  0
 20 21  1  0
 20 19  1  0
 21 17  1  0
 21 22  1  1
 22 24  1  0
 23 22  2  0
M  END
$$$$
