ILP.pdb
     RDKit          3D

 24 24  0  0  1  0  0  0  0  0999 V2000
    9.5874  -21.9043   27.2283 C   0  0  0  0  0  0  0  0  0  0  0  0
    8.8815  -20.7464   27.8697 C   0  0  0  0  0  0  0  0  0  0  0  0
    8.3810  -19.8131   26.7924 C   0  0  2  0  0  0  0  0  0  0  0  0
    9.5992  -19.3617   26.0091 C   0  0  0  0  0  0  0  0  0  0  0  0
    7.5992  -18.6532   27.3310 C   0  0  2  0  0  0  0  0  0  0  0  0
    6.5046  -19.1882   28.1230 N   0  0  0  0  0  0  0  0  0  0  0  0
    7.0849  -17.7554   26.2490 C   0  0  0  0  0  0  0  0  0  0  0  0
    6.2352  -18.1118   25.4325 O   0  0  0  0  0  0  0  0  0  0  0  0
    7.7923  -12.3549   27.2384 C   0  0  0  0  0  0  0  0  0  0  0  0
    7.1652  -13.6663   26.7328 C   0  0  1  0  0  0  0  0  0  0  0  0
    5.8162  -13.2605   26.0718 C   0  0  0  0  0  0  0  0  0  0  0  0
    8.0622  -14.1572   25.6602 C   0  0  0  0  0  0  0  0  0  0  0  0
    7.6330  -15.5410   25.0952 C   0  0  2  0  0  0  0  0  0  0  0  0
    7.6082  -16.4598   26.1838 N   0  0  0  0  0  0  0  0  0  0  0  0
    8.4017  -15.9289   23.9516 C   0  0  0  0  0  0  0  0  0  0  0  0
    9.2761  -16.8450   24.1199 O   0  0  0  0  0  0  0  0  0  0  0  0
    8.2752  -15.3917   22.6621 N   0  0  0  0  0  0  0  0  0  0  0  0
    7.6559  -14.0686   22.3638 C   0  0  0  0  0  0  0  0  0  0  0  0
    6.6659  -14.5135   21.3081 C   0  0  0  0  0  0  0  0  0  0  0  0
    7.5207  -15.4443   20.4812 C   0  0  0  0  0  0  0  0  0  0  0  0
    8.6894  -15.8359   21.3552 C   0  0  1  0  0  0  0  0  0  0  0  0
    9.8825  -15.0543   20.8541 C   0  0  0  0  0  0  0  0  0  0  0  0
   10.2642  -13.9852   21.3852 O   0  0  0  0  0  0  0  0  0  0  0  0
   10.6141  -15.4995   19.7665 O   0  0  0  0  0  0  0  0  0  0  0  0
  1  2  1  0
  3  4  1  1
  3  2  1  0
  5  3  1  0
  5  6  1  6
  7  8  2  0
  7  5  1  0
 10 11  1  6
 10  9  1  0
 12 10  1  0
 13 14  1  0
 13 12  1  1
 14  7  1  0
 15 13  1  0
 16 15  2  0
 17 18  1  0
 17 15  1  0
 19 18  1  0
 20 21  1  0
 20 19  1  0
 21 17  1  0
 21 22  1  6
 22 24  1  0
 23 22  2  0
M  END
$$$$
