ILP.pdb
     RDKit          3D

 24 24  0  0  1  0  0  0  0  0999 V2000
    8.8733  -19.3439   19.9931 C   0  0  0  0  0  0  0  0  0  0  0  0
    8.4785  -17.8976   20.0459 C   0  0  0  0  0  0  0  0  0  0  0  0
    8.9025  -17.3167   21.3744 C   0  0  2  0  0  0  0  0  0  0  0  0
    8.3408  -18.2311   22.4468 C   0  0  0  0  0  0  0  0  0  0  0  0
    8.4665  -15.8954   21.5647 C   0  0  2  0  0  0  0  0  0  0  0  0
    8.8764  -15.1465   20.3888 N   0  0  0  0  0  0  0  0  0  0  0  0
    9.0304  -15.2835   22.8093 C   0  0  0  0  0  0  0  0  0  0  0  0
   10.2157  -14.9704   22.9223 O   0  0  0  0  0  0  0  0  0  0  0  0
    5.3574  -12.5890   26.0501 C   0  0  0  0  0  0  0  0  0  0  0  0
    6.6437  -12.9561   25.2889 C   0  0  1  0  0  0  0  0  0  0  0  0
    7.6805  -11.8565   25.6593 C   0  0  0  0  0  0  0  0  0  0  0  0
    7.1122  -14.2329   25.8774 C   0  0  0  0  0  0  0  0  0  0  0  0
    8.4319  -14.7491   25.2366 C   0  0  2  0  0  0  0  0  0  0  0  0
    8.1521  -15.0682   23.8766 N   0  0  0  0  0  0  0  0  0  0  0  0
    9.0555  -15.7750   26.0162 C   0  0  0  0  0  0  0  0  0  0  0  0
    8.9235  -16.9786   25.6092 O   0  0  0  0  0  0  0  0  0  0  0  0
    9.8013  -15.5715   27.1866 N   0  0  0  0  0  0  0  0  0  0  0  0
    9.5309  -14.4868   28.1734 C   0  0  0  0  0  0  0  0  0  0  0  0
   10.9230  -13.8963   28.2496 C   0  0  0  0  0  0  0  0  0  0  0  0
   11.7665  -15.1470   28.3209 C   0  0  0  0  0  0  0  0  0  0  0  0
   10.9034  -16.2712   27.7973 C   0  0  1  0  0  0  0  0  0  0  0  0
   10.4573  -17.0683   29.0019 C   0  0  0  0  0  0  0  0  0  0  0  0
   11.2359  -17.7999   29.6571 O   0  0  0  0  0  0  0  0  0  0  0  0
    9.1437  -17.0193   29.4361 O   0  0  0  0  0  0  0  0  0  0  0  0
  1  2  1  0
  3  4  1  1
  3  2  1  0
  5  3  1  0
  5  6  1  6
  7  8  2  0
  7  5  1  0
 10 11  1  1
 10  9  1  0
 12 10  1  0
 13 14  1  0
 13 12  1  1
 14  7  1  0
 15 13  1  0
 16 15  2  0
 17 18  1  0
 17 15  1  0
 19 18  1  0
 20 21  1  0
 20 19  1  0
 21 17  1  0
 21 22  1  1
 22 24  1  0
 23 22  2  0
M  END
$$$$
