QKY.pdb
     RDKit          3D

 31 31  0  0  1  0  0  0  0  0999 V2000
   34.3682  -28.9059  -19.2072 N   0  0  0  0  0  0  0  0  0  0  0  0
   35.3745  -29.8790  -18.9496 C   0  0  0  0  0  0  0  0  0  0  0  0
   36.5250  -29.4637  -18.7368 O   0  0  0  0  0  0  0  0  0  0  0  0
   35.0262  -31.3016  -18.9498 C   0  0  0  0  0  0  0  0  0  0  0  0
   33.5926  -31.6436  -19.1619 C   0  0  0  0  0  0  0  0  0  0  0  0
   32.7810  -31.4091  -17.9386 C   0  0  2  0  0  0  0  0  0  0  0  0
   33.0757  -32.3918  -16.9301 N   0  0  0  0  0  0  0  0  0  0  0  0
   31.3210  -31.4734  -18.1984 C   0  0  0  0  0  0  0  0  0  0  0  0
   30.7379  -32.5600  -18.3725 O   0  0  0  0  0  0  0  0  0  0  0  0
   30.5828  -30.2648  -18.2471 N   0  0  0  0  0  0  0  0  0  0  0  0
   29.1590  -30.2254  -18.4520 C   0  0  1  0  0  0  0  0  0  0  0  0
   28.3389  -29.7831  -17.3138 C   0  0  0  0  0  0  0  0  0  0  0  0
   28.1830  -30.5639  -16.0947 C   0  0  0  0  0  0  0  0  0  0  0  0
   27.5292  -31.9090  -16.1973 C   0  0  0  0  0  0  0  0  0  0  0  0
   27.2199  -32.5131  -14.8425 C   0  0  0  0  0  0  0  0  0  0  0  0
   26.6585  -33.8473  -15.0067 N   0  0  0  0  0  0  0  0  0  0  0  0
   28.8659  -29.5311  -19.7278 C   0  0  0  0  0  0  0  0  0  0  0  0
   29.3877  -28.4091  -19.9305 O   0  0  0  0  0  0  0  0  0  0  0  0
   22.8934  -32.2191  -25.0440 O   0  0  0  0  0  0  0  0  0  0  0  0
   24.0943  -31.7388  -24.5416 C   0  0  0  0  0  0  0  0  0  0  0  0
   24.2584  -31.2931  -23.2500 C   0  0  0  0  0  0  0  0  0  0  0  0
   25.4594  -30.8210  -22.7733 C   0  0  0  0  0  0  0  0  0  0  0  0
   26.5577  -30.7839  -23.6061 C   0  0  0  0  0  0  0  0  0  0  0  0
   27.8763  -30.2719  -23.1694 C   0  0  0  0  0  0  0  0  0  0  0  0
   27.7401  -29.3695  -21.9968 C   0  0  2  0  0  0  0  0  0  0  0  0
   28.0282  -30.0595  -20.7375 N   0  0  0  0  0  0  0  0  0  0  0  0
   26.4062  -28.7502  -21.8675 C   0  0  0  0  0  0  0  0  0  0  0  0
   25.6172  -29.0809  -20.9284 O   0  0  0  0  0  0  0  0  0  0  0  0
   26.3843  -31.2355  -24.9095 C   0  0  0  0  0  0  0  0  0  0  0  0
   25.1955  -31.6998  -25.3717 C   0  0  0  0  0  0  0  0  0  0  0  0
   25.9085  -27.7753  -22.7359 O   0  0  0  0  0  0  0  0  0  0  0  0
  2  1  1  0
  2  4  1  0
  3  2  2  0
  5  4  1  0
  6  5  1  0
  6  7  1  1
  8  6  1  0
  8  9  2  0
 10  8  1  0
 11 10  1  0
 11 12  1  1
 13 12  1  0
 14 13  1  0
 15 14  1  0
 16 15  1  0
 17 11  1  0
 17 26  1  0
 18 17  2  0
 19 20  1  0
 20 30  2  0
 20 21  1  0
 21 22  2  0
 22 23  1  0
 23 24  1  0
 25 24  1  6
 25 26  1  0
 25 27  1  0
 27 28  2  0
 27 31  1  0
 29 23  2  0
 30 29  1  0
M  END
$$$$
