QKY.pdb
     RDKit          3D

 31 31  0  0  1  0  0  0  0  0999 V2000
   22.8716  -19.0075  -20.1251 N   0  0  0  0  0  0  0  0  0  0  0  0
   22.7096  -17.6521  -20.5283 C   0  0  0  0  0  0  0  0  0  0  0  0
   21.5557  -17.1940  -20.5296 O   0  0  0  0  0  0  0  0  0  0  0  0
   23.8812  -16.8666  -20.9226 C   0  0  0  0  0  0  0  0  0  0  0  0
   24.3632  -15.8441  -19.9535 C   0  0  0  0  0  0  0  0  0  0  0  0
   24.2876  -14.4699  -20.5158 C   0  0  2  0  0  0  0  0  0  0  0  0
   24.8943  -14.4137  -21.8190 N   0  0  0  0  0  0  0  0  0  0  0  0
   24.9776  -13.4652  -19.6686 C   0  0  0  0  0  0  0  0  0  0  0  0
   24.7070  -13.3367  -18.4598 O   0  0  0  0  0  0  0  0  0  0  0  0
   25.9658  -12.6384  -20.2586 N   0  0  0  0  0  0  0  0  0  0  0  0
   26.6801  -11.6275  -19.5248 C   0  0  1  0  0  0  0  0  0  0  0  0
   28.0011  -11.2421  -20.0443 C   0  0  0  0  0  0  0  0  0  0  0  0
   28.8592  -10.2647  -19.3896 C   0  0  0  0  0  0  0  0  0  0  0  0
   30.1605   -9.9158  -20.0470 C   0  0  0  0  0  0  0  0  0  0  0  0
   30.9638   -8.9057  -19.2531 C   0  0  0  0  0  0  0  0  0  0  0  0
   32.2185   -8.6178  -19.9350 N   0  0  0  0  0  0  0  0  0  0  0  0
   25.7726  -10.4896  -19.2468 C   0  0  0  0  0  0  0  0  0  0  0  0
   25.1229   -9.9976  -20.1998 O   0  0  0  0  0  0  0  0  0  0  0  0
   20.6178   -4.4037  -15.5327 O   0  0  0  0  0  0  0  0  0  0  0  0
   21.3908   -5.5207  -15.8152 C   0  0  0  0  0  0  0  0  0  0  0  0
   21.1313   -6.3870  -16.8525 C   0  0  0  0  0  0  0  0  0  0  0  0
   21.9123   -7.4889  -17.1140 C   0  0  0  0  0  0  0  0  0  0  0  0
   23.0052   -7.7561  -16.3171 C   0  0  0  0  0  0  0  0  0  0  0  0
   23.8796   -8.9323  -16.5259 C   0  0  0  0  0  0  0  0  0  0  0  0
   24.7599   -8.7437  -17.7080 C   0  0  2  0  0  0  0  0  0  0  0  0
   25.5931   -9.9205  -17.9645 N   0  0  0  0  0  0  0  0  0  0  0  0
   25.6595   -7.5775  -17.6067 C   0  0  0  0  0  0  0  0  0  0  0  0
   25.2570   -6.4101  -17.9050 O   0  0  0  0  0  0  0  0  0  0  0  0
   23.2611   -6.8768  -15.2710 C   0  0  0  0  0  0  0  0  0  0  0  0
   22.4852   -5.7917  -15.0201 C   0  0  0  0  0  0  0  0  0  0  0  0
   26.9898   -7.6496  -17.1857 O   0  0  0  0  0  0  0  0  0  0  0  0
  2  1  1  0
  2  4  1  0
  3  2  2  0
  5  4  1  0
  6  5  1  0
  6  7  1  6
  8  6  1  0
  8  9  2  0
 10  8  1  0
 11 10  1  0
 11 12  1  6
 13 12  1  0
 14 13  1  0
 15 14  1  0
 16 15  1  0
 17 11  1  0
 17 26  1  0
 18 17  2  0
 19 20  1  0
 20 30  2  0
 20 21  1  0
 21 22  2  0
 22 23  1  0
 23 24  1  0
 25 24  1  1
 25 26  1  0
 25 27  1  0
 27 28  2  0
 27 31  1  0
 29 23  2  0
 30 29  1  0
M  END
$$$$
