QKY.pdb
     RDKit          3D

 31 31  0  0  1  0  0  0  0  0999 V2000
   27.6937  -34.2685   -6.8673 N   0  0  0  0  0  0  0  0  0  0  0  0
   26.6691  -34.4848   -5.9033 C   0  0  0  0  0  0  0  0  0  0  0  0
   25.5945  -33.8866   -6.0726 O   0  0  0  0  0  0  0  0  0  0  0  0
   26.9149  -35.3799   -4.7704 C   0  0  0  0  0  0  0  0  0  0  0  0
   28.2589  -36.0166   -4.6949 C   0  0  0  0  0  0  0  0  0  0  0  0
   28.3174  -37.0619   -3.6393 C   0  0  2  0  0  0  0  0  0  0  0  0
   27.3980  -38.1313   -3.9236 N   0  0  0  0  0  0  0  0  0  0  0  0
   27.9753  -36.5373   -2.2937 C   0  0  0  0  0  0  0  0  0  0  0  0
   26.8141  -36.5968   -1.8474 O   0  0  0  0  0  0  0  0  0  0  0  0
   29.0010  -35.9574   -1.5064 N   0  0  0  0  0  0  0  0  0  0  0  0
   28.7569  -35.3591   -0.2207 C   0  0  1  0  0  0  0  0  0  0  0  0
   29.9191  -35.2019    0.6672 C   0  0  0  0  0  0  0  0  0  0  0  0
   30.6197  -36.3285    1.2674 C   0  0  0  0  0  0  0  0  0  0  0  0
   30.2625  -36.7146    2.6711 C   0  0  0  0  0  0  0  0  0  0  0  0
   31.1401  -37.8246    3.2131 C   0  0  0  0  0  0  0  0  0  0  0  0
   30.7490  -38.1494    4.5783 N   0  0  0  0  0  0  0  0  0  0  0  0
   27.9469  -34.1308   -0.3968 C   0  0  0  0  0  0  0  0  0  0  0  0
   28.3047  -33.2992   -1.2644 O   0  0  0  0  0  0  0  0  0  0  0  0
   21.5947  -28.3253   -1.5360 O   0  0  0  0  0  0  0  0  0  0  0  0
   22.4390  -29.4191   -1.4086 C   0  0  0  0  0  0  0  0  0  0  0  0
   23.5756  -29.5989   -2.1633 C   0  0  0  0  0  0  0  0  0  0  0  0
   24.3984  -30.6920   -2.0194 C   0  0  0  0  0  0  0  0  0  0  0  0
   24.0913  -31.6599   -1.0868 C   0  0  0  0  0  0  0  0  0  0  0  0
   24.9183  -32.8718   -0.8890 C   0  0  0  0  0  0  0  0  0  0  0  0
   25.9605  -32.6472    0.1460 C   0  0  2  0  0  0  0  0  0  0  0  0
   26.7877  -33.8369    0.3583 N   0  0  0  0  0  0  0  0  0  0  0  0
   25.4242  -32.2403    1.4599 C   0  0  0  0  0  0  0  0  0  0  0  0
   25.0707  -33.1049    2.3208 O   0  0  0  0  0  0  0  0  0  0  0  0
   22.9414  -31.4718   -0.3283 C   0  0  0  0  0  0  0  0  0  0  0  0
   22.1351  -30.3899   -0.4768 C   0  0  0  0  0  0  0  0  0  0  0  0
   25.2642  -30.9120    1.8626 O   0  0  0  0  0  0  0  0  0  0  0  0
  2  1  1  0
  2  4  1  0
  3  2  2  0
  5  4  1  0
  6  5  1  0
  6  7  1  6
  8  6  1  0
  8  9  2  0
 10  8  1  0
 11 10  1  0
 11 12  1  6
 13 12  1  0
 14 13  1  0
 15 14  1  0
 16 15  1  0
 17 11  1  0
 17 26  1  0
 18 17  2  0
 19 20  1  0
 20 30  2  0
 20 21  1  0
 21 22  2  0
 22 23  1  0
 23 24  1  0
 25 24  1  6
 25 26  1  0
 25 27  1  0
 27 28  2  0
 27 31  1  0
 29 23  2  0
 30 29  1  0
M  END
$$$$
