QKY.pdb
     RDKit          3D

 31 31  0  0  1  0  0  0  0  0999 V2000
   15.0961  -10.7109  -21.2380 N   0  0  0  0  0  0  0  0  0  0  0  0
   15.8075  -11.8654  -20.8059 C   0  0  0  0  0  0  0  0  0  0  0  0
   15.1362  -12.8243  -20.3917 O   0  0  0  0  0  0  0  0  0  0  0  0
   17.2711  -11.8790  -20.8592 C   0  0  0  0  0  0  0  0  0  0  0  0
   17.9360  -10.6639  -21.4056 C   0  0  0  0  0  0  0  0  0  0  0  0
   19.1908  -10.3441  -20.6752 C   0  0  2  0  0  0  0  0  0  0  0  0
   19.8991  -11.5449  -20.3201 N   0  0  0  0  0  0  0  0  0  0  0  0
   18.9468   -9.5926  -19.4187 C   0  0  0  0  0  0  0  0  0  0  0  0
   18.3700   -8.4888  -19.4216 O   0  0  0  0  0  0  0  0  0  0  0  0
   19.3840  -10.1529  -18.1927 N   0  0  0  0  0  0  0  0  0  0  0  0
   19.1521   -9.5252  -16.9187 C   0  0  1  0  0  0  0  0  0  0  0  0
   18.5705  -10.3675  -15.8624 C   0  0  0  0  0  0  0  0  0  0  0  0
   17.1709  -10.7687  -15.8452 C   0  0  0  0  0  0  0  0  0  0  0  0
   16.7260  -11.7315  -14.7858 C   0  0  0  0  0  0  0  0  0  0  0  0
   15.2650  -12.1111  -14.9178 C   0  0  0  0  0  0  0  0  0  0  0  0
   14.8615  -12.9440  -13.7927 N   0  0  0  0  0  0  0  0  0  0  0  0
   20.3655   -8.7784  -16.5116 C   0  0  0  0  0  0  0  0  0  0  0  0
   21.4872   -9.2618  -16.7950 O   0  0  0  0  0  0  0  0  0  0  0  0
   26.4120   -2.7322  -16.5689 O   0  0  0  0  0  0  0  0  0  0  0  0
   25.3120   -3.5682  -16.6970 C   0  0  0  0  0  0  0  0  0  0  0  0
   24.0202   -3.1150  -16.8372 C   0  0  0  0  0  0  0  0  0  0  0  0
   22.9443   -3.9631  -16.9629 C   0  0  0  0  0  0  0  0  0  0  0  0
   23.1448   -5.3272  -16.9505 C   0  0  0  0  0  0  0  0  0  0  0  0
   22.0346   -6.3003  -17.0615 C   0  0  0  0  0  0  0  0  0  0  0  0
   21.4827   -6.6397  -15.7244 C   0  0  2  0  0  0  0  0  0  0  0  0
   20.3360   -7.5458  -15.8185 N   0  0  0  0  0  0  0  0  0  0  0  0
   21.0569   -5.4670  -14.9352 C   0  0  0  0  0  0  0  0  0  0  0  0
   21.8957   -4.7853  -14.2677 O   0  0  0  0  0  0  0  0  0  0  0  0
   24.4523   -5.7776  -16.8081 C   0  0  0  0  0  0  0  0  0  0  0  0
   25.5083   -4.9337  -16.6848 C   0  0  0  0  0  0  0  0  0  0  0  0
   19.7374   -5.0145  -14.8554 O   0  0  0  0  0  0  0  0  0  0  0  0
  2  1  1  0
  2  4  1  0
  3  2  2  0
  5  4  1  0
  6  5  1  0
  6  7  1  1
  8  6  1  0
  8  9  2  0
 10  8  1  0
 11 10  1  0
 11 12  1  1
 13 12  1  0
 14 13  1  0
 15 14  1  0
 16 15  1  0
 17 11  1  0
 17 26  1  0
 18 17  2  0
 19 20  1  0
 20 30  2  0
 20 21  1  0
 21 22  2  0
 22 23  1  0
 23 24  1  0
 25 24  1  6
 25 26  1  0
 25 27  1  0
 27 28  2  0
 27 31  1  0
 29 23  2  0
 30 29  1  0
M  END
$$$$
