QKY.pdb
     RDKit          3D

 31 31  0  0  1  0  0  0  0  0999 V2000
   25.2241  -23.9686  -13.4780 N   0  0  0  0  0  0  0  0  0  0  0  0
   25.8545  -23.2512  -14.5333 C   0  0  0  0  0  0  0  0  0  0  0  0
   26.6655  -23.8735  -15.2380 O   0  0  0  0  0  0  0  0  0  0  0  0
   25.5355  -21.8371  -14.7422 C   0  0  0  0  0  0  0  0  0  0  0  0
   24.6077  -21.2048  -13.7641 C   0  0  0  0  0  0  0  0  0  0  0  0
   23.2110  -21.6842  -13.9368 C   0  0  2  0  0  0  0  0  0  0  0  0
   23.0431  -22.3293  -15.2116 N   0  0  0  0  0  0  0  0  0  0  0  0
   22.2154  -20.5854  -13.8682 C   0  0  0  0  0  0  0  0  0  0  0  0
   22.2130  -19.7665  -12.9299 O   0  0  0  0  0  0  0  0  0  0  0  0
   21.2498  -20.4744  -14.8995 N   0  0  0  0  0  0  0  0  0  0  0  0
   20.1880  -19.5034  -14.8758 C   0  0  1  0  0  0  0  0  0  0  0  0
   19.9674  -18.7342  -16.1100 C   0  0  0  0  0  0  0  0  0  0  0  0
   18.9953  -17.6549  -16.2116 C   0  0  0  0  0  0  0  0  0  0  0  0
   17.5396  -18.0108  -16.1729 C   0  0  0  0  0  0  0  0  0  0  0  0
   16.6384  -16.8029  -16.3302 C   0  0  0  0  0  0  0  0  0  0  0  0
   15.2414  -17.2078  -16.2499 N   0  0  0  0  0  0  0  0  0  0  0  0
   18.9669  -20.1253  -14.3122 C   0  0  0  0  0  0  0  0  0  0  0  0
   18.7326  -21.3282  -14.5776 O   0  0  0  0  0  0  0  0  0  0  0  0
   13.2072  -23.2506   -8.6962 O   0  0  0  0  0  0  0  0  0  0  0  0
   14.2541  -22.6808   -9.4065 C   0  0  0  0  0  0  0  0  0  0  0  0
   15.1086  -23.3965  -10.2137 C   0  0  0  0  0  0  0  0  0  0  0  0
   16.1404  -22.8098  -10.9092 C   0  0  0  0  0  0  0  0  0  0  0  0
   16.3457  -21.4501  -10.8085 C   0  0  0  0  0  0  0  0  0  0  0  0
   17.4460  -20.7526  -11.5118 C   0  0  0  0  0  0  0  0  0  0  0  0
   16.9608  -20.1041  -12.7575 C   0  0  2  0  0  0  0  0  0  0  0  0
   18.0433  -19.4411  -13.4880 N   0  0  0  0  0  0  0  0  0  0  0  0
   15.8968  -19.1043  -12.5388 C   0  0  0  0  0  0  0  0  0  0  0  0
   14.8475  -19.3949  -11.8843 O   0  0  0  0  0  0  0  0  0  0  0  0
   15.4789  -20.7337   -9.9911 C   0  0  0  0  0  0  0  0  0  0  0  0
   14.4631  -21.3207   -9.3083 C   0  0  0  0  0  0  0  0  0  0  0  0
   15.9469  -17.7913  -13.0140 O   0  0  0  0  0  0  0  0  0  0  0  0
  2  1  1  0
  2  4  1  0
  3  2  2  0
  5  4  1  0
  6  5  1  0
  6  7  1  6
  8  6  1  0
  8  9  2  0
 10  8  1  0
 11 10  1  0
 11 12  1  6
 13 12  1  0
 14 13  1  0
 15 14  1  0
 16 15  1  0
 17 11  1  0
 17 26  1  0
 18 17  2  0
 19 20  1  0
 20 30  2  0
 20 21  1  0
 21 22  2  0
 22 23  1  0
 23 24  1  0
 25 24  1  1
 25 26  1  0
 25 27  1  0
 27 28  2  0
 27 31  1  0
 29 23  2  0
 30 29  1  0
M  END
$$$$
