QKY.pdb
     RDKit          3D

 31 31  0  0  1  0  0  0  0  0999 V2000
   23.8212  -18.0502  -19.0648 N   0  0  0  0  0  0  0  0  0  0  0  0
   25.1568  -17.5588  -19.0912 C   0  0  0  0  0  0  0  0  0  0  0  0
   25.5992  -17.1751  -20.1859 O   0  0  0  0  0  0  0  0  0  0  0  0
   25.9443  -17.5288  -17.8567 C   0  0  0  0  0  0  0  0  0  0  0  0
   25.2702  -18.0034  -16.6167 C   0  0  0  0  0  0  0  0  0  0  0  0
   26.1068  -18.9808  -15.8716 C   0  0  2  0  0  0  0  0  0  0  0  0
   26.8884  -19.7823  -16.7752 N   0  0  0  0  0  0  0  0  0  0  0  0
   25.2999  -19.9137  -15.0460 C   0  0  0  0  0  0  0  0  0  0  0  0
   24.4505  -20.6675  -15.5571 O   0  0  0  0  0  0  0  0  0  0  0  0
   25.5090  -19.9397  -13.6446 N   0  0  0  0  0  0  0  0  0  0  0  0
   24.7848  -20.8153  -12.7616 C   0  0  1  0  0  0  0  0  0  0  0  0
   25.4039  -21.0999  -11.4580 C   0  0  0  0  0  0  0  0  0  0  0  0
   26.7292  -21.6865  -11.3179 C   0  0  0  0  0  0  0  0  0  0  0  0
   27.7886  -20.8797  -10.6296 C   0  0  0  0  0  0  0  0  0  0  0  0
   29.1319  -21.5803  -10.6034 C   0  0  0  0  0  0  0  0  0  0  0  0
   30.0859  -20.8028   -9.8239 N   0  0  0  0  0  0  0  0  0  0  0  0
   23.3707  -20.3786  -12.6887 C   0  0  0  0  0  0  0  0  0  0  0  0
   23.1299  -19.1561  -12.5483 O   0  0  0  0  0  0  0  0  0  0  0  0
   16.3263  -19.0572  -17.2874 O   0  0  0  0  0  0  0  0  0  0  0  0
   17.5288  -19.4408  -16.7110 C   0  0  0  0  0  0  0  0  0  0  0  0
   18.0950  -20.6836  -16.8803 C   0  0  0  0  0  0  0  0  0  0  0  0
   19.2892  -21.0419  -16.2988 C   0  0  0  0  0  0  0  0  0  0  0  0
   19.9641  -20.1347  -15.5099 C   0  0  0  0  0  0  0  0  0  0  0  0
   21.2432  -20.4552  -14.8369 C   0  0  0  0  0  0  0  0  0  0  0  0
   21.0141  -20.9351  -13.4495 C   0  0  2  0  0  0  0  0  0  0  0  0
   22.2687  -21.2617  -12.7682 N   0  0  0  0  0  0  0  0  0  0  0  0
   20.1402  -22.1217  -13.3611 C   0  0  0  0  0  0  0  0  0  0  0  0
   20.5868  -23.2855  -13.6055 O   0  0  0  0  0  0  0  0  0  0  0  0
   19.3859  -18.8814  -15.3431 C   0  0  0  0  0  0  0  0  0  0  0  0
   18.2071  -18.5360  -15.9208 C   0  0  0  0  0  0  0  0  0  0  0  0
   18.7885  -22.0737  -13.0105 O   0  0  0  0  0  0  0  0  0  0  0  0
  2  1  1  0
  2  4  1  0
  3  2  2  0
  5  4  1  0
  6  5  1  0
  6  7  1  6
  8  6  1  0
  8  9  2  0
 10  8  1  0
 11 10  1  0
 11 12  1  1
 13 12  1  0
 14 13  1  0
 15 14  1  0
 16 15  1  0
 17 11  1  0
 17 26  1  0
 18 17  2  0
 19 20  1  0
 20 30  2  0
 20 21  1  0
 21 22  2  0
 22 23  1  0
 23 24  1  0
 25 24  1  6
 25 26  1  0
 25 27  1  0
 27 28  2  0
 27 31  1  0
 29 23  2  0
 30 29  1  0
M  END
$$$$
