QKY.pdb
     RDKit          3D

 31 31  0  0  1  0  0  0  0  0999 V2000
   19.9865  -12.3855  -23.8311 N   0  0  0  0  0  0  0  0  0  0  0  0
   18.8665  -12.0224  -23.0314 C   0  0  0  0  0  0  0  0  0  0  0  0
   17.7565  -11.9960  -23.5870 O   0  0  0  0  0  0  0  0  0  0  0  0
   19.0594  -11.6957  -21.6168 C   0  0  0  0  0  0  0  0  0  0  0  0
   20.4614  -11.6769  -21.1154 C   0  0  0  0  0  0  0  0  0  0  0  0
   20.6795  -12.6847  -20.0444 C   0  0  2  0  0  0  0  0  0  0  0  0
   19.4880  -13.4576  -19.8157 N   0  0  0  0  0  0  0  0  0  0  0  0
   21.0577  -12.0699  -18.7474 C   0  0  0  0  0  0  0  0  0  0  0  0
   20.2052  -11.8063  -17.8786 O   0  0  0  0  0  0  0  0  0  0  0  0
   22.4230  -11.7805  -18.5019 N   0  0  0  0  0  0  0  0  0  0  0  0
   22.8918  -11.2080  -17.2677 C   0  0  1  0  0  0  0  0  0  0  0  0
   24.2450  -11.5881  -16.8340 C   0  0  0  0  0  0  0  0  0  0  0  0
   24.6199  -12.9560  -16.5048 C   0  0  0  0  0  0  0  0  0  0  0  0
   26.0339  -13.2172  -16.0808 C   0  0  0  0  0  0  0  0  0  0  0  0
   26.2983  -14.6825  -15.7999 C   0  0  0  0  0  0  0  0  0  0  0  0
   27.6826  -14.8702  -15.3866 N   0  0  0  0  0  0  0  0  0  0  0  0
   22.6355   -9.7486  -17.2752 C   0  0  0  0  0  0  0  0  0  0  0  0
   23.0350   -9.0774  -18.2561 O   0  0  0  0  0  0  0  0  0  0  0  0
   15.5586   -8.9128  -16.3308 O   0  0  0  0  0  0  0  0  0  0  0  0
   16.8592   -8.5169  -16.6083 C   0  0  0  0  0  0  0  0  0  0  0  0
   17.6643   -9.1354  -17.5373 C   0  0  0  0  0  0  0  0  0  0  0  0
   18.9517   -8.7250  -17.7961 C   0  0  0  0  0  0  0  0  0  0  0  0
   19.4778   -7.6521  -17.1084 C   0  0  0  0  0  0  0  0  0  0  0  0
   20.8602   -7.1662  -17.3196 C   0  0  0  0  0  0  0  0  0  0  0  0
   21.7589   -7.6116  -16.2234 C   0  0  2  0  0  0  0  0  0  0  0  0
   21.9638   -9.0616  -16.2373 N   0  0  0  0  0  0  0  0  0  0  0  0
   21.2876   -7.2437  -14.8735 C   0  0  0  0  0  0  0  0  0  0  0  0
   21.0072   -8.1333  -14.0111 O   0  0  0  0  0  0  0  0  0  0  0  0
   18.6588   -7.0324  -16.1713 C   0  0  0  0  0  0  0  0  0  0  0  0
   17.3894   -7.4439  -15.9222 C   0  0  0  0  0  0  0  0  0  0  0  0
   21.1149   -5.9279  -14.4365 O   0  0  0  0  0  0  0  0  0  0  0  0
  2  1  1  0
  2  4  1  0
  3  2  2  0
  5  4  1  0
  6  5  1  0
  6  7  1  1
  8  6  1  0
  8  9  2  0
 10  8  1  0
 11 10  1  0
 11 12  1  6
 13 12  1  0
 14 13  1  0
 15 14  1  0
 16 15  1  0
 17 11  1  0
 17 26  1  0
 18 17  2  0
 19 20  1  0
 20 30  2  0
 20 21  1  0
 21 22  2  0
 22 23  1  0
 23 24  1  0
 25 24  1  6
 25 26  1  0
 25 27  1  0
 27 28  2  0
 27 31  1  0
 29 23  2  0
 30 29  1  0
M  END
$$$$
