QKY.pdb
     RDKit          3D

 31 31  0  0  1  0  0  0  0  0999 V2000
   25.0541  -13.7506  -18.3106 N   0  0  0  0  0  0  0  0  0  0  0  0
   23.7086  -13.2871  -18.2878 C   0  0  0  0  0  0  0  0  0  0  0  0
   23.5075  -12.1099  -18.6273 O   0  0  0  0  0  0  0  0  0  0  0  0
   22.6356  -14.1920  -17.8698 C   0  0  0  0  0  0  0  0  0  0  0  0
   23.0309  -15.5790  -17.4993 C   0  0  0  0  0  0  0  0  0  0  0  0
   23.2148  -16.4405  -18.6969 C   0  0  2  0  0  0  0  0  0  0  0  0
   21.9459  -16.7953  -19.2744 N   0  0  0  0  0  0  0  0  0  0  0  0
   23.9242  -17.7072  -18.3882 C   0  0  0  0  0  0  0  0  0  0  0  0
   23.3309  -18.6800  -17.8855 O   0  0  0  0  0  0  0  0  0  0  0  0
   25.3085  -17.8016  -18.6762 N   0  0  0  0  0  0  0  0  0  0  0  0
   26.0943  -18.9669  -18.3672 C   0  0  1  0  0  0  0  0  0  0  0  0
   27.3052  -19.1812  -19.1742 C   0  0  0  0  0  0  0  0  0  0  0  0
   28.2315  -20.2805  -18.9422 C   0  0  0  0  0  0  0  0  0  0  0  0
   29.4649  -20.3548  -19.7909 C   0  0  0  0  0  0  0  0  0  0  0  0
   30.2591  -21.6240  -19.5577 C   0  0  0  0  0  0  0  0  0  0  0  0
   31.5342  -21.5515  -20.2586 N   0  0  0  0  0  0  0  0  0  0  0  0
   26.3103  -19.0388  -16.9030 C   0  0  0  0  0  0  0  0  0  0  0  0
   26.7533  -18.0242  -16.3143 O   0  0  0  0  0  0  0  0  0  0  0  0
   25.5259  -20.7447   -8.3524 O   0  0  0  0  0  0  0  0  0  0  0  0
   25.5050  -20.4536   -9.7090 C   0  0  0  0  0  0  0  0  0  0  0  0
   26.6110  -20.0484  -10.4205 C   0  0  0  0  0  0  0  0  0  0  0  0
   26.5667  -19.7653  -11.7661 C   0  0  0  0  0  0  0  0  0  0  0  0
   25.3758  -19.8856  -12.4504 C   0  0  0  0  0  0  0  0  0  0  0  0
   25.2476  -19.5801  -13.8933 C   0  0  0  0  0  0  0  0  0  0  0  0
   26.3000  -20.2700  -14.6835 C   0  0  2  0  0  0  0  0  0  0  0  0
   26.0458  -20.1891  -16.1236 N   0  0  0  0  0  0  0  0  0  0  0  0
   26.4685  -21.6965  -14.3429 C   0  0  0  0  0  0  0  0  0  0  0  0
   25.7162  -22.5857  -14.8500 O   0  0  0  0  0  0  0  0  0  0  0  0
   24.2627  -20.2951  -11.7250 C   0  0  0  0  0  0  0  0  0  0  0  0
   24.3154  -20.5725  -10.3973 C   0  0  0  0  0  0  0  0  0  0  0  0
   27.4395  -22.1817  -13.4631 O   0  0  0  0  0  0  0  0  0  0  0  0
  2  1  1  0
  2  4  1  0
  3  2  2  0
  5  4  1  0
  6  5  1  0
  6  7  1  1
  8  6  1  0
  8  9  2  0
 10  8  1  0
 11 10  1  0
 11 12  1  6
 13 12  1  0
 14 13  1  0
 15 14  1  0
 16 15  1  0
 17 11  1  0
 17 26  1  0
 18 17  2  0
 19 20  1  0
 20 30  2  0
 20 21  1  0
 21 22  2  0
 22 23  1  0
 23 24  1  0
 25 24  1  1
 25 26  1  0
 25 27  1  0
 27 28  2  0
 27 31  1  0
 29 23  2  0
 30 29  1  0
M  END
$$$$
