QKY.pdb
     RDKit          3D

 31 31  0  0  1  0  0  0  0  0999 V2000
   32.6642  -24.5032  -20.8119 N   0  0  0  0  0  0  0  0  0  0  0  0
   33.2271  -25.6782  -20.2390 C   0  0  0  0  0  0  0  0  0  0  0  0
   34.1439  -26.2328  -20.8662 O   0  0  0  0  0  0  0  0  0  0  0  0
   32.7137  -26.1820  -18.9632 C   0  0  0  0  0  0  0  0  0  0  0  0
   31.5492  -25.4637  -18.3755 C   0  0  0  0  0  0  0  0  0  0  0  0
   31.9764  -24.3813  -17.4501 C   0  0  2  0  0  0  0  0  0  0  0  0
   32.6214  -24.9260  -16.2852 N   0  0  0  0  0  0  0  0  0  0  0  0
   30.8405  -23.5530  -16.9739 C   0  0  0  0  0  0  0  0  0  0  0  0
   30.3924  -23.6656  -15.8174 O   0  0  0  0  0  0  0  0  0  0  0  0
   30.2599  -22.6152  -17.8636 N   0  0  0  0  0  0  0  0  0  0  0  0
   29.2133  -21.7087  -17.4713 C   0  0  1  0  0  0  0  0  0  0  0  0
   29.2770  -20.3465  -18.0227 C   0  0  0  0  0  0  0  0  0  0  0  0
   28.3484  -19.2908  -17.6438 C   0  0  0  0  0  0  0  0  0  0  0  0
   27.5980  -18.5867  -18.7338 C   0  0  0  0  0  0  0  0  0  0  0  0
   26.7837  -17.4164  -18.2207 C   0  0  0  0  0  0  0  0  0  0  0  0
   26.1760  -16.7031  -19.3361 N   0  0  0  0  0  0  0  0  0  0  0  0
   27.9003  -22.3764  -17.6317 C   0  0  0  0  0  0  0  0  0  0  0  0
   27.6431  -22.9328  -18.7255 O   0  0  0  0  0  0  0  0  0  0  0  0
   28.2912  -28.7743  -18.0223 O   0  0  0  0  0  0  0  0  0  0  0  0
   27.5856  -27.6860  -17.5292 C   0  0  0  0  0  0  0  0  0  0  0  0
   26.4710  -27.1580  -18.1396 C   0  0  0  0  0  0  0  0  0  0  0  0
   25.7868  -26.0779  -17.6320 C   0  0  0  0  0  0  0  0  0  0  0  0
   26.2175  -25.4837  -16.4647 C   0  0  0  0  0  0  0  0  0  0  0  0
   25.5438  -24.3075  -15.8695 C   0  0  0  0  0  0  0  0  0  0  0  0
   25.6353  -23.1260  -16.7660 C   0  0  2  0  0  0  0  0  0  0  0  0
   26.9127  -22.4248  -16.6203 N   0  0  0  0  0  0  0  0  0  0  0  0
   24.5602  -22.1346  -16.5642 C   0  0  0  0  0  0  0  0  0  0  0  0
   24.8247  -20.9396  -16.2237 O   0  0  0  0  0  0  0  0  0  0  0  0
   27.3442  -26.0223  -15.8538 C   0  0  0  0  0  0  0  0  0  0  0  0
   28.0134  -27.0886  -16.3616 C   0  0  0  0  0  0  0  0  0  0  0  0
   23.2002  -22.4110  -16.7261 O   0  0  0  0  0  0  0  0  0  0  0  0
  2  1  1  0
  2  4  1  0
  3  2  2  0
  5  4  1  0
  6  5  1  0
  6  7  1  1
  8  6  1  0
  8  9  2  0
 10  8  1  0
 11 10  1  0
 11 12  1  6
 13 12  1  0
 14 13  1  0
 15 14  1  0
 16 15  1  0
 17 11  1  0
 17 26  1  0
 18 17  2  0
 19 20  1  0
 20 30  2  0
 20 21  1  0
 21 22  2  0
 22 23  1  0
 23 24  1  0
 25 24  1  1
 25 26  1  0
 25 27  1  0
 27 28  2  0
 27 31  1  0
 29 23  2  0
 30 29  1  0
M  END
$$$$
