QKY.pdb
     RDKit          3D

 31 31  0  0  1  0  0  0  0  0999 V2000
   24.6507  -20.2353   -8.1484 N   0  0  0  0  0  0  0  0  0  0  0  0
   26.0099  -20.1187   -7.7423 C   0  0  0  0  0  0  0  0  0  0  0  0
   26.2536  -20.2437   -6.5313 O   0  0  0  0  0  0  0  0  0  0  0  0
   27.0470  -19.8567   -8.7427 C   0  0  0  0  0  0  0  0  0  0  0  0
   26.5933  -19.6627  -10.1476 C   0  0  0  0  0  0  0  0  0  0  0  0
   26.0581  -20.9194  -10.7347 C   0  0  2  0  0  0  0  0  0  0  0  0
   27.0917  -21.9133  -10.8508 N   0  0  0  0  0  0  0  0  0  0  0  0
   25.4878  -20.7211  -12.0906 C   0  0  0  0  0  0  0  0  0  0  0  0
   24.7596  -19.7458  -12.3545 O   0  0  0  0  0  0  0  0  0  0  0  0
   25.7850  -21.6691  -13.1011 N   0  0  0  0  0  0  0  0  0  0  0  0
   25.2525  -21.5835  -14.4352 C   0  0  1  0  0  0  0  0  0  0  0  0
   25.5694  -22.6938  -15.3465 C   0  0  0  0  0  0  0  0  0  0  0  0
   25.1609  -22.7174  -16.7439 C   0  0  0  0  0  0  0  0  0  0  0  0
   25.5371  -23.9112  -17.5688 C   0  0  0  0  0  0  0  0  0  0  0  0
   25.0568  -25.2145  -16.9633 C   0  0  0  0  0  0  0  0  0  0  0  0
   25.5179  -26.3388  -17.7669 N   0  0  0  0  0  0  0  0  0  0  0  0
   23.8139  -21.2347  -14.3678 C   0  0  0  0  0  0  0  0  0  0  0  0
   23.0387  -22.0127  -13.7629 O   0  0  0  0  0  0  0  0  0  0  0  0
   16.1079  -16.9955  -14.6403 O   0  0  0  0  0  0  0  0  0  0  0  0
   17.4578  -17.2993  -14.7449 C   0  0  0  0  0  0  0  0  0  0  0  0
   18.1005  -17.5210  -15.9414 C   0  0  0  0  0  0  0  0  0  0  0  0
   19.4408  -17.8208  -16.0210 C   0  0  0  0  0  0  0  0  0  0  0  0
   20.1908  -17.9079  -14.8674 C   0  0  0  0  0  0  0  0  0  0  0  0
   21.6324  -18.2446  -14.8736 C   0  0  0  0  0  0  0  0  0  0  0  0
   21.8400  -19.7158  -14.8561 C   0  0  2  0  0  0  0  0  0  0  0  0
   23.2579  -20.0706  -14.9477 N   0  0  0  0  0  0  0  0  0  0  0  0
   21.1328  -20.4349  -15.9342 C   0  0  0  0  0  0  0  0  0  0  0  0
   20.0248  -21.0173  -15.7178 O   0  0  0  0  0  0  0  0  0  0  0  0
   19.5348  -17.6829  -13.6624 C   0  0  0  0  0  0  0  0  0  0  0  0
   18.2117  -17.3875  -13.5930 C   0  0  0  0  0  0  0  0  0  0  0  0
   21.6016  -20.5348  -17.2466 O   0  0  0  0  0  0  0  0  0  0  0  0
  2  1  1  0
  2  4  1  0
  3  2  2  0
  5  4  1  0
  6  5  1  0
  6  7  1  6
  8  6  1  0
  8  9  2  0
 10  8  1  0
 11 10  1  0
 11 12  1  1
 13 12  1  0
 14 13  1  0
 15 14  1  0
 16 15  1  0
 17 11  1  0
 17 26  1  0
 18 17  2  0
 19 20  1  0
 20 30  2  0
 20 21  1  0
 21 22  2  0
 22 23  1  0
 23 24  1  0
 25 24  1  6
 25 26  1  0
 25 27  1  0
 27 28  2  0
 27 31  1  0
 29 23  2  0
 30 29  1  0
M  END
$$$$
