QKY.pdb
     RDKit          3D

 31 31  0  0  1  0  0  0  0  0999 V2000
   26.8478  -20.0108  -18.6738 N   0  0  0  0  0  0  0  0  0  0  0  0
   27.1619  -20.6877  -19.8858 C   0  0  0  0  0  0  0  0  0  0  0  0
   28.3639  -20.8545  -20.1483 O   0  0  0  0  0  0  0  0  0  0  0  0
   26.0820  -21.1479  -20.7617 C   0  0  0  0  0  0  0  0  0  0  0  0
   24.6919  -20.8023  -20.3549 C   0  0  0  0  0  0  0  0  0  0  0  0
   24.1014  -21.8384  -19.4671 C   0  0  2  0  0  0  0  0  0  0  0  0
   24.3605  -23.1590  -19.9755 N   0  0  0  0  0  0  0  0  0  0  0  0
   22.6297  -21.7038  -19.3291 C   0  0  0  0  0  0  0  0  0  0  0  0
   21.9040  -21.4535  -20.3098 O   0  0  0  0  0  0  0  0  0  0  0  0
   22.0469  -21.8661  -18.0476 N   0  0  0  0  0  0  0  0  0  0  0  0
   20.6360  -21.7197  -17.8056 C   0  0  1  0  0  0  0  0  0  0  0  0
   20.0824  -22.4526  -16.6567 C   0  0  0  0  0  0  0  0  0  0  0  0
   18.6727  -22.4157  -16.2941 C   0  0  0  0  0  0  0  0  0  0  0  0
   18.2420  -23.1513  -15.0609 C   0  0  0  0  0  0  0  0  0  0  0  0
   16.7437  -23.0966  -14.8413 C   0  0  0  0  0  0  0  0  0  0  0  0
   16.4135  -23.6095  -13.5184 N   0  0  0  0  0  0  0  0  0  0  0  0
   20.2772  -20.2827  -17.8492 C   0  0  0  0  0  0  0  0  0  0  0  0
   20.9987  -19.4681  -17.2261 O   0  0  0  0  0  0  0  0  0  0  0  0
   14.8947  -13.9634  -20.9946 O   0  0  0  0  0  0  0  0  0  0  0  0
   15.8648  -14.9249  -20.7504 C   0  0  0  0  0  0  0  0  0  0  0  0
   15.6707  -16.2731  -20.9467 C   0  0  0  0  0  0  0  0  0  0  0  0
   16.6479  -17.2089  -20.6978 C   0  0  0  0  0  0  0  0  0  0  0  0
   17.8802  -16.8022  -20.2319 C   0  0  0  0  0  0  0  0  0  0  0  0
   18.9728  -17.7525  -19.9240 C   0  0  0  0  0  0  0  0  0  0  0  0
   18.7987  -18.3519  -18.5757 C   0  0  2  0  0  0  0  0  0  0  0  0
   19.1638  -19.7701  -18.5548 N   0  0  0  0  0  0  0  0  0  0  0  0
   17.4271  -18.2397  -18.0412 C   0  0  0  0  0  0  0  0  0  0  0  0
   16.6534  -19.2465  -18.0021 O   0  0  0  0  0  0  0  0  0  0  0  0
   18.0689  -15.4388  -20.0357 C   0  0  0  0  0  0  0  0  0  0  0  0
   17.0990  -14.5221  -20.2840 C   0  0  0  0  0  0  0  0  0  0  0  0
   16.8750  -17.0561  -17.5448 O   0  0  0  0  0  0  0  0  0  0  0  0
  2  1  1  0
  2  4  1  0
  3  2  2  0
  5  4  1  0
  6  5  1  0
  6  7  1  6
  8  6  1  0
  8  9  2  0
 10  8  1  0
 11 10  1  0
 11 12  1  1
 13 12  1  0
 14 13  1  0
 15 14  1  0
 16 15  1  0
 17 11  1  0
 17 26  1  0
 18 17  2  0
 19 20  1  0
 20 30  2  0
 20 21  1  0
 21 22  2  0
 22 23  1  0
 23 24  1  0
 25 24  1  6
 25 26  1  0
 25 27  1  0
 27 28  2  0
 27 31  1  0
 29 23  2  0
 30 29  1  0
M  END
$$$$
