QKY.pdb
     RDKit          3D

 31 31  0  0  1  0  0  0  0  0999 V2000
   23.1235  -19.2178  -25.7747 N   0  0  0  0  0  0  0  0  0  0  0  0
   22.5183  -17.9442  -25.5807 C   0  0  0  0  0  0  0  0  0  0  0  0
   22.7010  -17.0884  -26.4614 O   0  0  0  0  0  0  0  0  0  0  0  0
   21.7248  -17.6931  -24.3755 C   0  0  0  0  0  0  0  0  0  0  0  0
   21.5347  -18.8390  -23.4439 C   0  0  0  0  0  0  0  0  0  0  0  0
   21.4801  -18.3960  -22.0258 C   0  0  2  0  0  0  0  0  0  0  0  0
   22.7481  -17.8622  -21.6050 N   0  0  0  0  0  0  0  0  0  0  0  0
   21.1390  -19.4993  -21.0934 C   0  0  0  0  0  0  0  0  0  0  0  0
   20.2397  -20.3197  -21.3566 O   0  0  0  0  0  0  0  0  0  0  0  0
   21.8595  -19.6132  -19.8784 N   0  0  0  0  0  0  0  0  0  0  0  0
   21.5914  -20.6363  -18.9027 C   0  0  1  0  0  0  0  0  0  0  0  0
   22.7519  -21.1887  -18.1874 C   0  0  0  0  0  0  0  0  0  0  0  0
   23.6368  -22.1921  -18.7623 C   0  0  0  0  0  0  0  0  0  0  0  0
   24.8043  -22.6551  -17.9438 C   0  0  0  0  0  0  0  0  0  0  0  0
   25.7947  -23.4719  -18.7486 C   0  0  0  0  0  0  0  0  0  0  0  0
   26.9696  -23.7704  -17.9406 N   0  0  0  0  0  0  0  0  0  0  0  0
   20.4796  -20.1990  -18.0261 C   0  0  0  0  0  0  0  0  0  0  0  0
   20.5805  -19.0953  -17.4397 O   0  0  0  0  0  0  0  0  0  0  0  0
   17.3354  -15.0630  -20.1281 O   0  0  0  0  0  0  0  0  0  0  0  0
   17.2705  -16.3364  -19.5808 C   0  0  0  0  0  0  0  0  0  0  0  0
   17.6552  -17.4759  -20.2495 C   0  0  0  0  0  0  0  0  0  0  0  0
   17.5822  -18.7289  -19.6863 C   0  0  0  0  0  0  0  0  0  0  0  0
   17.1072  -18.8729  -18.3999 C   0  0  0  0  0  0  0  0  0  0  0  0
   16.9822  -20.1900  -17.7357 C   0  0  0  0  0  0  0  0  0  0  0  0
   18.2020  -20.5134  -16.9512 C   0  0  2  0  0  0  0  0  0  0  0  0
   19.3042  -20.9550  -17.8086 N   0  0  0  0  0  0  0  0  0  0  0  0
   17.9967  -21.5528  -15.9231 C   0  0  0  0  0  0  0  0  0  0  0  0
   18.7134  -22.6013  -15.8975 O   0  0  0  0  0  0  0  0  0  0  0  0
   16.7202  -17.7174  -17.7307 C   0  0  0  0  0  0  0  0  0  0  0  0
   16.7956  -16.4847  -18.2940 C   0  0  0  0  0  0  0  0  0  0  0  0
   17.0293  -21.4788  -14.9177 O   0  0  0  0  0  0  0  0  0  0  0  0
  2  1  1  0
  2  4  1  0
  3  2  2  0
  5  4  1  0
  6  5  1  0
  6  7  1  1
  8  6  1  0
  8  9  2  0
 10  8  1  0
 11 10  1  0
 11 12  1  1
 13 12  1  0
 14 13  1  0
 15 14  1  0
 16 15  1  0
 17 11  1  0
 17 26  1  0
 18 17  2  0
 19 20  1  0
 20 30  2  0
 20 21  1  0
 21 22  2  0
 22 23  1  0
 23 24  1  0
 25 24  1  6
 25 26  1  0
 25 27  1  0
 27 28  2  0
 27 31  1  0
 29 23  2  0
 30 29  1  0
M  END
$$$$
