QKY.pdb
     RDKit          3D

 31 31  0  0  1  0  0  0  0  0999 V2000
   28.8441  -28.9209  -16.3969 N   0  0  0  0  0  0  0  0  0  0  0  0
   28.1022  -28.6509  -17.5811 C   0  0  0  0  0  0  0  0  0  0  0  0
   27.6547  -29.6261  -18.2058 O   0  0  0  0  0  0  0  0  0  0  0  0
   27.9022  -27.2658  -18.0131 C   0  0  0  0  0  0  0  0  0  0  0  0
   28.3849  -26.1979  -17.0944 C   0  0  0  0  0  0  0  0  0  0  0  0
   29.0179  -25.0751  -17.8353 C   0  0  2  0  0  0  0  0  0  0  0  0
   30.4458  -25.0844  -17.6607 N   0  0  0  0  0  0  0  0  0  0  0  0
   28.5312  -23.7463  -17.3874 C   0  0  0  0  0  0  0  0  0  0  0  0
   29.0513  -23.1533  -16.4236 O   0  0  0  0  0  0  0  0  0  0  0  0
   27.4493  -23.1471  -18.0794 N   0  0  0  0  0  0  0  0  0  0  0  0
   26.9202  -21.8541  -17.7348 C   0  0  1  0  0  0  0  0  0  0  0  0
   26.0175  -21.2268  -18.7122 C   0  0  0  0  0  0  0  0  0  0  0  0
   25.2273  -20.0398  -18.4177 C   0  0  0  0  0  0  0  0  0  0  0  0
   25.9079  -18.7056  -18.4817 C   0  0  0  0  0  0  0  0  0  0  0  0
   24.9886  -17.5621  -18.1033 C   0  0  0  0  0  0  0  0  0  0  0  0
   25.6986  -16.2944  -18.2083 N   0  0  0  0  0  0  0  0  0  0  0  0
   26.3962  -21.8917  -16.3493 C   0  0  0  0  0  0  0  0  0  0  0  0
   25.6243  -22.8262  -16.0282 O   0  0  0  0  0  0  0  0  0  0  0  0
   24.5451  -20.1615   -7.9321 O   0  0  0  0  0  0  0  0  0  0  0  0
   25.0996  -20.0805   -9.2015 C   0  0  0  0  0  0  0  0  0  0  0  0
   24.9417  -18.9981  -10.0365 C   0  0  0  0  0  0  0  0  0  0  0  0
   25.5014  -18.9397  -11.2919 C   0  0  0  0  0  0  0  0  0  0  0  0
   26.2557  -19.9976  -11.7533 C   0  0  0  0  0  0  0  0  0  0  0  0
   26.8725  -20.0139  -13.0990 C   0  0  0  0  0  0  0  0  0  0  0  0
   26.1509  -20.9407  -14.0090 C   0  0  2  0  0  0  0  0  0  0  0  0
   26.7151  -20.9321  -15.3604 N   0  0  0  0  0  0  0  0  0  0  0  0
   24.7066  -20.6598  -14.1301 C   0  0  0  0  0  0  0  0  0  0  0  0
   23.8579  -21.2583  -13.3985 O   0  0  0  0  0  0  0  0  0  0  0  0
   26.4107  -21.0876  -10.9044 C   0  0  0  0  0  0  0  0  0  0  0  0
   25.8548  -21.1370   -9.6669 C   0  0  0  0  0  0  0  0  0  0  0  0
   24.1610  -19.7396  -15.0289 O   0  0  0  0  0  0  0  0  0  0  0  0
  2  1  1  0
  2  4  1  0
  3  2  2  0
  5  4  1  0
  6  5  1  0
  6  7  1  1
  8  6  1  0
  8  9  2  0
 10  8  1  0
 11 10  1  0
 11 12  1  6
 13 12  1  0
 14 13  1  0
 15 14  1  0
 16 15  1  0
 17 11  1  0
 17 26  1  0
 18 17  2  0
 19 20  1  0
 20 30  2  0
 20 21  1  0
 21 22  2  0
 22 23  1  0
 23 24  1  0
 25 24  1  1
 25 26  1  0
 25 27  1  0
 27 28  2  0
 27 31  1  0
 29 23  2  0
 30 29  1  0
M  END
$$$$
