NYM.pdb
     RDKit          3D

 29 29  0  0  1  0  0  0  0  0999 V2000
   46.9282  -12.3223   -4.3176 N   0  0  0  0  0  0  0  0  0  0  0  0
   47.1342  -11.7088   -5.5711 C   0  0  0  0  0  0  0  0  0  0  0  0
   48.2921  -11.7763   -6.0601 O   0  0  0  0  0  0  0  0  0  0  0  0
   46.0291  -11.0189   -6.2722 C   0  0  0  0  0  0  0  0  0  0  0  0
   44.9026  -12.0112   -6.5124 C   0  0  2  0  0  0  0  0  0  0  0  0
   45.3197  -13.1121   -7.3287 N   0  0  0  0  0  0  0  0  0  0  0  0
   43.6906  -11.3379   -7.0203 C   0  0  0  0  0  0  0  0  0  0  0  0
   43.5961  -11.1527   -8.2600 O   0  0  0  0  0  0  0  0  0  0  0  0
   35.7705   -7.1408   -7.3692 O   0  0  0  0  0  0  0  0  0  0  0  0
   36.8941   -7.8716   -6.9830 C   0  0  0  0  0  0  0  0  0  0  0  0
   37.9475   -7.2719   -6.3308 C   0  0  0  0  0  0  0  0  0  0  0  0
   39.0718   -7.9616   -5.9349 C   0  0  0  0  0  0  0  0  0  0  0  0
   39.1869   -9.3302   -6.1872 C   0  0  0  0  0  0  0  0  0  0  0  0
   40.3798  -10.0801   -5.7842 C   0  0  0  0  0  0  0  0  0  0  0  0
   41.4606  -10.1845   -6.8152 C   0  0  2  0  0  0  0  0  0  0  0  0
   42.6166  -10.8794   -6.2195 N   0  0  0  0  0  0  0  0  0  0  0  0
   41.8633   -8.8280   -7.2711 C   0  0  0  0  0  0  0  0  0  0  0  0
   42.6305   -8.1491   -6.5434 O   0  0  0  0  0  0  0  0  0  0  0  0
   38.1281   -9.9194   -6.8400 C   0  0  0  0  0  0  0  0  0  0  0  0
   36.9950   -9.2224   -7.2384 C   0  0  0  0  0  0  0  0  0  0  0  0
   46.9047   -6.0516   -9.7740 C   0  0  0  0  0  0  0  0  0  0  0  0
   45.4895   -6.2853  -10.8059 S   0  0  0  0  0  0  0  0  0  0  0  0
   43.8917   -6.0330  -10.1803 C   0  0  0  0  0  0  0  0  0  0  0  0
   42.9738   -7.0045   -9.6757 C   0  0  0  0  0  0  0  0  0  0  0  0
   41.7737   -6.8727   -8.8742 C   0  0  2  0  0  0  0  0  0  0  0  0
   41.4156   -8.2860   -8.4821 N   0  0  0  0  0  0  0  0  0  0  0  0
   40.5312   -6.3663   -9.4265 C   0  0  0  0  0  0  0  0  0  0  0  0
   39.3119   -7.0006   -9.5049 O   0  0  0  0  0  0  0  0  0  0  0  0
   40.5153   -5.1749   -9.9244 O   0  0  0  0  0  0  0  0  0  0  0  0
  1  2  1  0
  2  3  2  0
  4  2  1  0
  4  5  1  0
  5  7  1  0
  5  6  1  6
  7  8  2  0
 10  9  1  0
 10 11  2  0
 12 11  1  0
 13 12  2  0
 14 13  1  0
 15 14  1  1
 16 15  1  0
 16  7  1  0
 17 18  2  0
 17 15  1  0
 19 20  2  0
 19 13  1  0
 20 10  1  0
 22 21  1  0
 22 23  1  0
 23 24  1  0
 25 24  1  6
 25 26  1  0
 25 27  1  0
 26 17  1  0
 27 28  1  0
 29 27  2  0
M  END
$$$$
