NYM.pdb
     RDKit          3D

 29 29  0  0  1  0  0  0  0  0999 V2000
   18.9314  -23.1102   -9.0232 N   0  0  0  0  0  0  0  0  0  0  0  0
   18.2097  -24.2784   -9.3462 C   0  0  0  0  0  0  0  0  0  0  0  0
   18.0119  -24.5119  -10.5672 O   0  0  0  0  0  0  0  0  0  0  0  0
   17.7119  -25.1835   -8.2871 C   0  0  0  0  0  0  0  0  0  0  0  0
   18.1963  -24.6764   -6.9382 C   0  0  2  0  0  0  0  0  0  0  0  0
   19.6205  -24.7633   -6.8100 N   0  0  0  0  0  0  0  0  0  0  0  0
   17.4723  -25.3256   -5.8269 C   0  0  0  0  0  0  0  0  0  0  0  0
   16.2245  -25.1828   -5.7746 O   0  0  0  0  0  0  0  0  0  0  0  0
   15.1008  -30.5223   -8.6512 O   0  0  0  0  0  0  0  0  0  0  0  0
   15.6884  -29.9770   -7.5096 C   0  0  0  0  0  0  0  0  0  0  0  0
   14.9305  -29.6136   -6.4195 C   0  0  0  0  0  0  0  0  0  0  0  0
   15.4761  -29.0728   -5.2766 C   0  0  0  0  0  0  0  0  0  0  0  0
   16.8540  -28.8682   -5.1794 C   0  0  0  0  0  0  0  0  0  0  0  0
   17.4531  -28.2837   -3.9765 C   0  0  0  0  0  0  0  0  0  0  0  0
   17.2557  -26.8096   -3.8031 C   0  0  2  0  0  0  0  0  0  0  0  0
   18.0725  -26.1021   -4.8063 N   0  0  0  0  0  0  0  0  0  0  0  0
   17.6640  -26.3980   -2.4341 C   0  0  0  0  0  0  0  0  0  0  0  0
   18.8677  -26.1038   -2.2254 O   0  0  0  0  0  0  0  0  0  0  0  0
   17.6020  -29.2349   -6.2751 C   0  0  0  0  0  0  0  0  0  0  0  0
   17.0502  -29.7802   -7.4269 C   0  0  0  0  0  0  0  0  0  0  0  0
   15.6570  -20.8636    0.8509 C   0  0  0  0  0  0  0  0  0  0  0  0
   15.1611  -22.4246    1.5137 S   0  0  0  0  0  0  0  0  0  0  0  0
   16.1875  -23.8140    1.3582 C   0  0  0  0  0  0  0  0  0  0  0  0
   16.2292  -24.7711    0.2983 C   0  0  0  0  0  0  0  0  0  0  0  0
   17.1798  -25.8175   -0.0196 C   0  0  2  0  0  0  0  0  0  0  0  0
   16.7515  -26.3282   -1.3743 N   0  0  0  0  0  0  0  0  0  0  0  0
   17.2782  -27.0328    0.7670 C   0  0  0  0  0  0  0  0  0  0  0  0
   17.8836  -27.2096    1.9907 O   0  0  0  0  0  0  0  0  0  0  0  0
   16.7499  -28.1156    0.3020 O   0  0  0  0  0  0  0  0  0  0  0  0
  1  2  1  0
  2  3  2  0
  4  2  1  0
  4  5  1  0
  5  7  1  0
  5  6  1  1
  7  8  2  0
 10  9  1  0
 10 11  2  0
 12 11  1  0
 13 12  2  0
 14 13  1  0
 15 14  1  1
 16 15  1  0
 16  7  1  0
 17 18  2  0
 17 15  1  0
 19 20  2  0
 19 13  1  0
 20 10  1  0
 22 21  1  0
 22 23  1  0
 23 24  1  0
 25 24  1  1
 25 26  1  0
 25 27  1  0
 26 17  1  0
 27 28  1  0
 29 27  2  0
M  END
$$$$
