NYM.pdb
     RDKit          3D

 29 29  0  0  1  0  0  0  0  0999 V2000
   28.2379  -23.0533  -17.0515 N   0  0  0  0  0  0  0  0  0  0  0  0
   29.1216  -22.2463  -16.3047 C   0  0  0  0  0  0  0  0  0  0  0  0
   30.3545  -22.4283  -16.4823 O   0  0  0  0  0  0  0  0  0  0  0  0
   28.6103  -21.2321  -15.3567 C   0  0  0  0  0  0  0  0  0  0  0  0
   27.0905  -21.2447  -15.3945 C   0  0  2  0  0  0  0  0  0  0  0  0
   26.5762  -20.6247  -16.5792 N   0  0  0  0  0  0  0  0  0  0  0  0
   26.5160  -20.6901  -14.1524 C   0  0  0  0  0  0  0  0  0  0  0  0
   26.6153  -19.4520  -13.9598 O   0  0  0  0  0  0  0  0  0  0  0  0
   20.6854  -18.8226  -16.3524 O   0  0  0  0  0  0  0  0  0  0  0  0
   21.4178  -19.4154  -15.3238 C   0  0  0  0  0  0  0  0  0  0  0  0
   21.7404  -18.7178  -14.1819 C   0  0  0  0  0  0  0  0  0  0  0  0
   22.4613  -19.2705  -13.1469 C   0  0  0  0  0  0  0  0  0  0  0  0
   22.9026  -20.5933  -13.2201 C   0  0  0  0  0  0  0  0  0  0  0  0
   23.6806  -21.1966  -12.1346 C   0  0  0  0  0  0  0  0  0  0  0  0
   25.1182  -20.7847  -12.0590 C   0  0  2  0  0  0  0  0  0  0  0  0
   25.8569  -21.4442  -13.1515 N   0  0  0  0  0  0  0  0  0  0  0  0
   25.6935  -21.1798  -10.7463 C   0  0  0  0  0  0  0  0  0  0  0  0
   25.8758  -22.4002  -10.5092 O   0  0  0  0  0  0  0  0  0  0  0  0
   22.5746  -21.2812  -14.3662 C   0  0  0  0  0  0  0  0  0  0  0  0
   21.8475  -20.7224  -15.4090 C   0  0  0  0  0  0  0  0  0  0  0  0
   30.3075  -19.9733   -6.3114 C   0  0  0  0  0  0  0  0  0  0  0  0
   28.7391  -19.8030   -5.5157 S   0  0  0  0  0  0  0  0  0  0  0  0
   27.3587  -19.2381   -6.4010 C   0  0  0  0  0  0  0  0  0  0  0  0
   26.9952  -19.5235   -7.7528 C   0  0  0  0  0  0  0  0  0  0  0  0
   26.3380  -20.6665   -8.3542 C   0  0  2  0  0  0  0  0  0  0  0  0
   26.0374  -20.2368   -9.7699 N   0  0  0  0  0  0  0  0  0  0  0  0
   25.0536  -21.1508   -7.8843 C   0  0  0  0  0  0  0  0  0  0  0  0
   24.8013  -22.1041   -6.9237 O   0  0  0  0  0  0  0  0  0  0  0  0
   23.9787  -20.6595   -8.4049 O   0  0  0  0  0  0  0  0  0  0  0  0
  1  2  1  0
  2  3  2  0
  4  2  1  0
  4  5  1  0
  5  7  1  0
  5  6  1  6
  7  8  2  0
 10  9  1  0
 10 11  2  0
 12 11  1  0
 13 12  2  0
 14 13  1  0
 15 14  1  1
 16 15  1  0
 16  7  1  0
 17 18  2  0
 17 15  1  0
 19 20  2  0
 19 13  1  0
 20 10  1  0
 22 21  1  0
 22 23  1  0
 23 24  1  0
 25 24  1  1
 25 26  1  0
 25 27  1  0
 26 17  1  0
 27 28  1  0
 29 27  2  0
M  END
$$$$
