NYM.pdb
     RDKit          3D

 29 29  0  0  1  0  0  0  0  0999 V2000
   21.1179  -19.3315  -13.4481 N   0  0  0  0  0  0  0  0  0  0  0  0
   21.2554  -18.7727  -12.1602 C   0  0  0  0  0  0  0  0  0  0  0  0
   20.5372  -17.7757  -11.8871 O   0  0  0  0  0  0  0  0  0  0  0  0
   22.2060  -19.3426  -11.1801 C   0  0  0  0  0  0  0  0  0  0  0  0
   22.9183  -20.5258  -11.8157 C   0  0  2  0  0  0  0  0  0  0  0  0
   22.0280  -21.6203  -12.0644 N   0  0  0  0  0  0  0  0  0  0  0  0
   24.1142  -20.9142  -11.0414 C   0  0  0  0  0  0  0  0  0  0  0  0
   23.9510  -21.6544  -10.0387 O   0  0  0  0  0  0  0  0  0  0  0  0
   32.6338  -22.5041   -8.7592 O   0  0  0  0  0  0  0  0  0  0  0  0
   31.4464  -22.1308   -9.3888 C   0  0  0  0  0  0  0  0  0  0  0  0
   31.4384  -21.6755  -10.6878 C   0  0  0  0  0  0  0  0  0  0  0  0
   30.2860  -21.2988  -11.3408 C   0  0  0  0  0  0  0  0  0  0  0  0
   29.0514  -21.3669  -10.6920 C   0  0  0  0  0  0  0  0  0  0  0  0
   27.8149  -20.9601  -11.3653 C   0  0  0  0  0  0  0  0  0  0  0  0
   26.5780  -20.9834  -10.5219 C   0  0  2  0  0  0  0  0  0  0  0  0
   25.4410  -20.5182  -11.3374 N   0  0  0  0  0  0  0  0  0  0  0  0
   26.7503  -20.0988   -9.3395 C   0  0  0  0  0  0  0  0  0  0  0  0
   26.5618  -18.8640   -9.4762 O   0  0  0  0  0  0  0  0  0  0  0  0
   29.0711  -21.8233   -9.3936 C   0  0  0  0  0  0  0  0  0  0  0  0
   30.2342  -22.2029   -8.7366 C   0  0  0  0  0  0  0  0  0  0  0  0
   28.7568  -20.9031   -1.6382 C   0  0  0  0  0  0  0  0  0  0  0  0
   27.8558  -21.4008   -3.0744 S   0  0  0  0  0  0  0  0  0  0  0  0
   27.5633  -20.2784   -4.3639 C   0  0  0  0  0  0  0  0  0  0  0  0
   27.4185  -20.5494   -5.7591 C   0  0  0  0  0  0  0  0  0  0  0  0
   27.2815  -19.6707   -6.9032 C   0  0  2  0  0  0  0  0  0  0  0  0
   27.1144  -20.5979   -8.0829 N   0  0  0  0  0  0  0  0  0  0  0  0
   28.3542  -18.7929   -7.3322 C   0  0  0  0  0  0  0  0  0  0  0  0
   28.8413  -17.6706   -6.7012 O   0  0  0  0  0  0  0  0  0  0  0  0
   28.9590  -19.0519   -8.4434 O   0  0  0  0  0  0  0  0  0  0  0  0
  1  2  1  0
  2  3  2  0
  4  2  1  0
  4  5  1  0
  5  7  1  0
  5  6  1  1
  7  8  2  0
 10  9  1  0
 10 11  2  0
 12 11  1  0
 13 12  2  0
 14 13  1  0
 15 14  1  6
 16 15  1  0
 16  7  1  0
 17 18  2  0
 17 15  1  0
 19 20  2  0
 19 13  1  0
 20 10  1  0
 22 21  1  0
 22 23  1  0
 23 24  1  0
 25 24  1  1
 25 26  1  0
 25 27  1  0
 26 17  1  0
 27 28  1  0
 29 27  2  0
M  END
$$$$
