NYM.pdb
     RDKit          3D

 29 29  0  0  1  0  0  0  0  0999 V2000
   29.9549  -24.3134  -17.5204 N   0  0  0  0  0  0  0  0  0  0  0  0
   30.3962  -23.7607  -16.2999 C   0  0  0  0  0  0  0  0  0  0  0  0
   31.3522  -24.3388  -15.7201 O   0  0  0  0  0  0  0  0  0  0  0  0
   29.7556  -22.5527  -15.7350 C   0  0  0  0  0  0  0  0  0  0  0  0
   28.5467  -22.1936  -16.5840 C   0  0  2  0  0  0  0  0  0  0  0  0
   28.9203  -21.5517  -17.8090 N   0  0  0  0  0  0  0  0  0  0  0  0
   27.5509  -21.4283  -15.8073 C   0  0  0  0  0  0  0  0  0  0  0  0
   27.8402  -20.2498  -15.4791 O   0  0  0  0  0  0  0  0  0  0  0  0
   19.5920  -18.5577  -12.9218 O   0  0  0  0  0  0  0  0  0  0  0  0
   20.6677  -19.2074  -13.5273 C   0  0  0  0  0  0  0  0  0  0  0  0
   21.5885  -18.5155  -14.2810 C   0  0  0  0  0  0  0  0  0  0  0  0
   22.6620  -19.1235  -14.8927 C   0  0  0  0  0  0  0  0  0  0  0  0
   22.8607  -20.5000  -14.7672 C   0  0  0  0  0  0  0  0  0  0  0  0
   23.9904  -21.1679  -15.4195 C   0  0  0  0  0  0  0  0  0  0  0  0
   25.3102  -21.0403  -14.7239 C   0  0  2  0  0  0  0  0  0  0  0  0
   26.2863  -21.9161  -15.3979 N   0  0  0  0  0  0  0  0  0  0  0  0
   25.1748  -21.4346  -13.2969 C   0  0  0  0  0  0  0  0  0  0  0  0
   24.9239  -22.6350  -13.0230 O   0  0  0  0  0  0  0  0  0  0  0  0
   21.9341  -21.1818  -14.0117 C   0  0  0  0  0  0  0  0  0  0  0  0
   20.8521  -20.5671  -13.3954 C   0  0  0  0  0  0  0  0  0  0  0  0
   29.2257  -20.5077   -8.0299 C   0  0  0  0  0  0  0  0  0  0  0  0
   27.6608  -19.7275   -7.7764 S   0  0  0  0  0  0  0  0  0  0  0  0
   26.2513  -20.2851   -8.6193 C   0  0  0  0  0  0  0  0  0  0  0  0
   25.9793  -20.2356  -10.0209 C   0  0  0  0  0  0  0  0  0  0  0  0
   24.9768  -20.8956  -10.8329 C   0  0  2  0  0  0  0  0  0  0  0  0
   25.3182  -20.5126  -12.2528 N   0  0  0  0  0  0  0  0  0  0  0  0
   23.5680  -20.5617  -10.7384 C   0  0  0  0  0  0  0  0  0  0  0  0
   22.5910  -21.1885   -9.9984 O   0  0  0  0  0  0  0  0  0  0  0  0
   23.1225  -19.5589  -11.4194 O   0  0  0  0  0  0  0  0  0  0  0  0
  1  2  1  0
  2  3  2  0
  4  2  1  0
  4  5  1  0
  5  7  1  0
  5  6  1  6
  7  8  2  0
 10  9  1  0
 10 11  2  0
 12 11  1  0
 13 12  2  0
 14 13  1  0
 15 14  1  6
 16 15  1  0
 16  7  1  0
 17 18  2  0
 17 15  1  0
 19 20  2  0
 19 13  1  0
 20 10  1  0
 22 21  1  0
 22 23  1  0
 23 24  1  0
 25 24  1  1
 25 26  1  0
 25 27  1  0
 26 17  1  0
 27 28  1  0
 29 27  2  0
M  END
$$$$
