NYM.pdb
     RDKit          3D

 29 29  0  0  1  0  0  0  0  0999 V2000
   14.9411  -13.1994  -11.5888 N   0  0  0  0  0  0  0  0  0  0  0  0
   15.2505  -12.5538  -12.8043 C   0  0  0  0  0  0  0  0  0  0  0  0
   15.5516  -13.2859  -13.7829 O   0  0  0  0  0  0  0  0  0  0  0  0
   15.2186  -11.0787  -12.9129 C   0  0  0  0  0  0  0  0  0  0  0  0
   14.7092  -10.4993  -11.6029 C   0  0  2  0  0  0  0  0  0  0  0  0
   13.2872  -10.6198  -11.4775 N   0  0  0  0  0  0  0  0  0  0  0  0
   15.1955   -9.1201  -11.3984 C   0  0  0  0  0  0  0  0  0  0  0  0
   14.5780   -8.1874  -11.9717 O   0  0  0  0  0  0  0  0  0  0  0  0
   11.2345   -6.0822   -7.1780 O   0  0  0  0  0  0  0  0  0  0  0  0
   12.5399   -6.2897   -7.6236 C   0  0  0  0  0  0  0  0  0  0  0  0
   12.9928   -7.5481   -7.9491 C   0  0  0  0  0  0  0  0  0  0  0  0
   14.2741   -7.7901   -8.3921 C   0  0  0  0  0  0  0  0  0  0  0  0
   15.1841   -6.7401   -8.5310 C   0  0  0  0  0  0  0  0  0  0  0  0
   16.5554   -6.9779   -8.9901 C   0  0  0  0  0  0  0  0  0  0  0  0
   16.7023   -7.3470  -10.4337 C   0  0  2  0  0  0  0  0  0  0  0  0
   16.3097   -8.7582  -10.6032 N   0  0  0  0  0  0  0  0  0  0  0  0
   18.1114   -7.1564  -10.8679 C   0  0  0  0  0  0  0  0  0  0  0  0
   18.9906   -7.9383  -10.4267 O   0  0  0  0  0  0  0  0  0  0  0  0
   14.7207   -5.4863   -8.2027 C   0  0  0  0  0  0  0  0  0  0  0  0
   13.4283   -5.2441   -7.7561 C   0  0  0  0  0  0  0  0  0  0  0  0
   23.3959   -9.7942  -14.0730 C   0  0  0  0  0  0  0  0  0  0  0  0
   22.1684   -8.9843  -13.0935 S   0  0  0  0  0  0  0  0  0  0  0  0
   20.8631   -8.1273  -13.8485 C   0  0  0  0  0  0  0  0  0  0  0  0
   19.8142   -7.3830  -13.2265 C   0  0  0  0  0  0  0  0  0  0  0  0
   19.8306   -6.1670  -12.4385 C   0  0  2  0  0  0  0  0  0  0  0  0
   18.4871   -6.1361  -11.7504 N   0  0  0  0  0  0  0  0  0  0  0  0
   19.9097   -4.8541  -13.0510 C   0  0  0  0  0  0  0  0  0  0  0  0
   21.0228   -4.0660  -13.2377 O   0  0  0  0  0  0  0  0  0  0  0  0
   18.8241   -4.3094  -13.4899 O   0  0  0  0  0  0  0  0  0  0  0  0
  1  2  1  0
  2  3  2  0
  4  2  1  0
  4  5  1  0
  5  7  1  0
  5  6  1  6
  7  8  2  0
 10  9  1  0
 10 11  2  0
 12 11  1  0
 13 12  2  0
 14 13  1  0
 15 14  1  1
 16 15  1  0
 16  7  1  0
 17 18  2  0
 17 15  1  0
 19 20  2  0
 19 13  1  0
 20 10  1  0
 22 21  1  0
 22 23  1  0
 23 24  1  0
 25 24  1  6
 25 26  1  0
 25 27  1  0
 26 17  1  0
 27 28  1  0
 29 27  2  0
M  END
$$$$
