NYM.pdb
     RDKit          3D

 29 29  0  0  1  0  0  0  0  0999 V2000
   28.7222  -24.0153  -16.8573 N   0  0  0  0  0  0  0  0  0  0  0  0
   29.5800  -23.1122  -16.1951 C   0  0  0  0  0  0  0  0  0  0  0  0
   30.8037  -23.4049  -16.1579 O   0  0  0  0  0  0  0  0  0  0  0  0
   29.0531  -21.8767  -15.5749 C   0  0  0  0  0  0  0  0  0  0  0  0
   27.5468  -21.8289  -15.7753 C   0  0  2  0  0  0  0  0  0  0  0  0
   27.1923  -21.3850  -17.0904 N   0  0  0  0  0  0  0  0  0  0  0  0
   26.8849  -21.0578  -14.7039 C   0  0  0  0  0  0  0  0  0  0  0  0
   27.1034  -19.8212  -14.6480 O   0  0  0  0  0  0  0  0  0  0  0  0
   21.8802  -17.8679  -17.4238 O   0  0  0  0  0  0  0  0  0  0  0  0
   22.3669  -18.5792  -16.3270 C   0  0  0  0  0  0  0  0  0  0  0  0
   22.7447  -19.8979  -16.4406 C   0  0  0  0  0  0  0  0  0  0  0  0
   23.2294  -20.6306  -15.3801 C   0  0  0  0  0  0  0  0  0  0  0  0
   23.3587  -20.0471  -14.1180 C   0  0  0  0  0  0  0  0  0  0  0  0
   23.8616  -20.8127  -12.9741 C   0  0  0  0  0  0  0  0  0  0  0  0
   25.3388  -20.7378  -12.7412 C   0  0  2  0  0  0  0  0  0  0  0  0
   26.0170  -21.6008  -13.7258 N   0  0  0  0  0  0  0  0  0  0  0  0
   25.6612  -21.1902  -11.3622 C   0  0  0  0  0  0  0  0  0  0  0  0
   25.6380  -22.4208  -11.1091 O   0  0  0  0  0  0  0  0  0  0  0  0
   22.9779  -18.7284  -14.0159 C   0  0  0  0  0  0  0  0  0  0  0  0
   22.4894  -17.9910  -15.0864 C   0  0  0  0  0  0  0  0  0  0  0  0
   30.0709  -20.7142   -6.3107 C   0  0  0  0  0  0  0  0  0  0  0  0
   28.8905  -19.4017   -6.2338 S   0  0  0  0  0  0  0  0  0  0  0  0
   27.2956  -19.6119   -6.8820 C   0  0  0  0  0  0  0  0  0  0  0  0
   26.9077  -19.7698   -8.2479 C   0  0  0  0  0  0  0  0  0  0  0  0
   26.0625  -20.7472   -8.9037 C   0  0  2  0  0  0  0  0  0  0  0  0
   25.9890  -20.2901  -10.3407 N   0  0  0  0  0  0  0  0  0  0  0  0
   24.6664  -20.9195   -8.5481 C   0  0  0  0  0  0  0  0  0  0  0  0
   24.1259  -21.7541   -7.5960 O   0  0  0  0  0  0  0  0  0  0  0  0
   23.7770  -20.2274   -9.1787 O   0  0  0  0  0  0  0  0  0  0  0  0
  1  2  1  0
  2  3  2  0
  4  2  1  0
  4  5  1  0
  5  7  1  0
  5  6  1  6
  7  8  2  0
 10  9  1  0
 10 11  2  0
 12 11  1  0
 13 12  2  0
 14 13  1  0
 15 14  1  6
 16 15  1  0
 16  7  1  0
 17 18  2  0
 17 15  1  0
 19 20  2  0
 19 13  1  0
 20 10  1  0
 22 21  1  0
 22 23  1  0
 23 24  1  0
 25 24  1  1
 25 26  1  0
 25 27  1  0
 26 17  1  0
 27 28  1  0
 29 27  2  0
M  END
$$$$
