NYM.pdb
     RDKit          3D

 29 29  0  0  1  0  0  0  0  0999 V2000
   27.2259  -19.9892  -20.8747 N   0  0  0  0  0  0  0  0  0  0  0  0
   27.3459  -19.6641  -19.5073 C   0  0  0  0  0  0  0  0  0  0  0  0
   28.2322  -18.8279  -19.1916 O   0  0  0  0  0  0  0  0  0  0  0  0
   26.4622  -20.2850  -18.4963 C   0  0  0  0  0  0  0  0  0  0  0  0
   27.3132  -21.0852  -17.5232 C   0  0  2  0  0  0  0  0  0  0  0  0
   27.7833  -22.3096  -18.0997 N   0  0  0  0  0  0  0  0  0  0  0  0
   26.6198  -21.2787  -16.2340 C   0  0  0  0  0  0  0  0  0  0  0  0
   25.7041  -22.1383  -16.1817 O   0  0  0  0  0  0  0  0  0  0  0  0
   24.5975  -20.9822   -7.4989 O   0  0  0  0  0  0  0  0  0  0  0  0
   25.1653  -20.8178   -8.7624 C   0  0  0  0  0  0  0  0  0  0  0  0
   26.3089  -21.4924   -9.1255 C   0  0  0  0  0  0  0  0  0  0  0  0
   26.8968  -21.3549  -10.3632 C   0  0  0  0  0  0  0  0  0  0  0  0
   26.3395  -20.5039  -11.3198 C   0  0  0  0  0  0  0  0  0  0  0  0
   26.9559  -20.3348  -12.6386 C   0  0  0  0  0  0  0  0  0  0  0  0
   26.1509  -20.8296  -13.8002 C   0  0  2  0  0  0  0  0  0  0  0  0
   26.9032  -20.5700  -15.0415 N   0  0  0  0  0  0  0  0  0  0  0  0
   24.8392  -20.1313  -13.8459 C   0  0  0  0  0  0  0  0  0  0  0  0
   24.8057  -18.9327  -14.2218 O   0  0  0  0  0  0  0  0  0  0  0  0
   25.1966  -19.8343  -10.9460 C   0  0  0  0  0  0  0  0  0  0  0  0
   24.6050  -19.9743   -9.6975 C   0  0  0  0  0  0  0  0  0  0  0  0
   22.2272  -18.9037  -18.3891 C   0  0  0  0  0  0  0  0  0  0  0  0
   20.7958  -18.9944  -17.3572 S   0  0  0  0  0  0  0  0  0  0  0  0
   20.9513  -19.3241  -15.6616 C   0  0  0  0  0  0  0  0  0  0  0  0
   22.1026  -19.7803  -14.9493 C   0  0  0  0  0  0  0  0  0  0  0  0
   22.3300  -20.0258  -13.5394 C   0  0  2  0  0  0  0  0  0  0  0  0
   23.6446  -20.7663  -13.4847 N   0  0  0  0  0  0  0  0  0  0  0  0
   21.4506  -20.8712  -12.7538 C   0  0  0  0  0  0  0  0  0  0  0  0
   21.5122  -22.2351  -12.5778 O   0  0  0  0  0  0  0  0  0  0  0  0
   20.4661  -20.3230  -12.1228 O   0  0  0  0  0  0  0  0  0  0  0  0
  1  2  1  0
  2  3  2  0
  4  2  1  0
  4  5  1  0
  5  7  1  0
  5  6  1  6
  7  8  2  0
 10  9  1  0
 10 11  2  0
 12 11  1  0
 13 12  2  0
 14 13  1  0
 15 14  1  1
 16 15  1  0
 16  7  1  0
 17 18  2  0
 17 15  1  0
 19 20  2  0
 19 13  1  0
 20 10  1  0
 22 21  1  0
 22 23  1  0
 23 24  1  0
 25 24  1  6
 25 26  1  0
 25 27  1  0
 26 17  1  0
 27 28  1  0
 29 27  2  0
M  END
$$$$
