NYM.pdb
     RDKit          3D

 29 29  0  0  1  0  0  0  0  0999 V2000
   25.5794  -10.4141  -14.7130 N   0  0  0  0  0  0  0  0  0  0  0  0
   24.5796  -10.8639  -15.6007 C   0  0  0  0  0  0  0  0  0  0  0  0
   24.5187  -12.1024  -15.8171 O   0  0  0  0  0  0  0  0  0  0  0  0
   23.6475   -9.9118  -16.2438 C   0  0  0  0  0  0  0  0  0  0  0  0
   22.4602   -9.6860  -15.3215 C   0  0  2  0  0  0  0  0  0  0  0  0
   21.7346  -10.8957  -15.0717 N   0  0  0  0  0  0  0  0  0  0  0  0
   21.6040   -8.5844  -15.8052 C   0  0  0  0  0  0  0  0  0  0  0  0
   20.7161   -8.8576  -16.6520 O   0  0  0  0  0  0  0  0  0  0  0  0
   18.8323   -6.5667   -9.7120 O   0  0  0  0  0  0  0  0  0  0  0  0
   18.9750   -6.5645  -11.0996 C   0  0  0  0  0  0  0  0  0  0  0  0
   18.8947   -5.3972  -11.8247 C   0  0  0  0  0  0  0  0  0  0  0  0
   19.0306   -5.3573  -13.1945 C   0  0  0  0  0  0  0  0  0  0  0  0
   19.2610   -6.5302  -13.9164 C   0  0  0  0  0  0  0  0  0  0  0  0
   19.3974   -6.5107  -15.3755 C   0  0  0  0  0  0  0  0  0  0  0  0
   20.7687   -6.2097  -15.8958 C   0  0  2  0  0  0  0  0  0  0  0  0
   21.7014   -7.2340  -15.3907 N   0  0  0  0  0  0  0  0  0  0  0  0
   21.2014   -4.8614  -15.4429 C   0  0  0  0  0  0  0  0  0  0  0  0
   21.9917   -4.7758  -14.4697 O   0  0  0  0  0  0  0  0  0  0  0  0
   19.3392   -7.6912  -13.1815 C   0  0  0  0  0  0  0  0  0  0  0  0
   19.2020   -7.7297  -11.8001 C   0  0  0  0  0  0  0  0  0  0  0  0
   22.8968    2.0340  -18.8866 C   0  0  0  0  0  0  0  0  0  0  0  0
   22.1286    0.4489  -18.7471 S   0  0  0  0  0  0  0  0  0  0  0  0
   22.0390   -0.3548  -17.2128 C   0  0  0  0  0  0  0  0  0  0  0  0
   21.4018   -1.5938  -16.8971 C   0  0  0  0  0  0  0  0  0  0  0  0
   21.3088   -2.3430  -15.6601 C   0  0  2  0  0  0  0  0  0  0  0  0
   20.7571   -3.6886  -16.0656 N   0  0  0  0  0  0  0  0  0  0  0  0
   20.4235   -1.9426  -14.5826 C   0  0  0  0  0  0  0  0  0  0  0  0
   20.6518   -1.0144  -13.5919 O   0  0  0  0  0  0  0  0  0  0  0  0
   19.2627   -2.5017  -14.4951 O   0  0  0  0  0  0  0  0  0  0  0  0
  1  2  1  0
  2  3  2  0
  4  2  1  0
  4  5  1  0
  5  7  1  0
  5  6  1  6
  7  8  2  0
 10  9  1  0
 10 11  2  0
 12 11  1  0
 13 12  2  0
 14 13  1  0
 15 14  1  1
 16 15  1  0
 16  7  1  0
 17 18  2  0
 17 15  1  0
 19 20  2  0
 19 13  1  0
 20 10  1  0
 22 21  1  0
 22 23  1  0
 23 24  1  0
 25 24  1  6
 25 26  1  0
 25 27  1  0
 26 17  1  0
 27 28  1  0
 29 27  2  0
M  END
$$$$
