NYM.pdb
     RDKit          3D

 29 29  0  0  1  0  0  0  0  0999 V2000
   15.7806  -13.7525  -15.5607 N   0  0  0  0  0  0  0  0  0  0  0  0
   15.5793  -12.3846  -15.2811 C   0  0  0  0  0  0  0  0  0  0  0  0
   14.5990  -11.8232  -15.8364 O   0  0  0  0  0  0  0  0  0  0  0  0
   16.4874  -11.6513  -14.3721 C   0  0  0  0  0  0  0  0  0  0  0  0
   16.5338  -10.1916  -14.7946 C   0  0  2  0  0  0  0  0  0  0  0  0
   17.3041  -10.0004  -15.9872 N   0  0  0  0  0  0  0  0  0  0  0  0
   16.9620   -9.3216  -13.6809 C   0  0  0  0  0  0  0  0  0  0  0  0
   17.0065   -9.8207  -12.5281 O   0  0  0  0  0  0  0  0  0  0  0  0
   23.4052   -9.9760  -14.5924 O   0  0  0  0  0  0  0  0  0  0  0  0
   22.3585   -9.1373  -14.2093 C   0  0  0  0  0  0  0  0  0  0  0  0
   21.6653   -8.3905  -15.1348 C   0  0  0  0  0  0  0  0  0  0  0  0
   20.6273   -7.5526  -14.7930 C   0  0  0  0  0  0  0  0  0  0  0  0
   20.2298   -7.4270  -13.4603 C   0  0  0  0  0  0  0  0  0  0  0  0
   19.1351   -6.5323  -13.0744 C   0  0  0  0  0  0  0  0  0  0  0  0
   17.8635   -7.2040  -12.6572 C   0  0  2  0  0  0  0  0  0  0  0  0
   17.3295   -7.9599  -13.8051 N   0  0  0  0  0  0  0  0  0  0  0  0
   16.8727   -6.1888  -12.2124 C   0  0  0  0  0  0  0  0  0  0  0  0
   16.1691   -5.6114  -13.0787 O   0  0  0  0  0  0  0  0  0  0  0  0
   20.9298   -8.1779  -12.5436 C   0  0  0  0  0  0  0  0  0  0  0  0
   21.9763   -9.0224  -12.8900 C   0  0  0  0  0  0  0  0  0  0  0  0
   12.1703   -4.5930   -6.0415 C   0  0  0  0  0  0  0  0  0  0  0  0
   13.2817   -5.5159   -7.0590 S   0  0  0  0  0  0  0  0  0  0  0  0
   14.0918   -4.7577   -8.3919 C   0  0  0  0  0  0  0  0  0  0  0  0
   15.0396   -5.3300   -9.2947 C   0  0  0  0  0  0  0  0  0  0  0  0
   15.7223   -4.7841  -10.4505 C   0  0  2  0  0  0  0  0  0  0  0  0
   16.7001   -5.8580  -10.8628 N   0  0  0  0  0  0  0  0  0  0  0  0
   16.5593   -3.6021  -10.3627 C   0  0  0  0  0  0  0  0  0  0  0  0
   17.9287   -3.5344  -10.2394 O   0  0  0  0  0  0  0  0  0  0  0  0
   15.9956   -2.4407  -10.3957 O   0  0  0  0  0  0  0  0  0  0  0  0
  1  2  1  0
  2  3  2  0
  4  2  1  0
  4  5  1  0
  5  7  1  0
  5  6  1  6
  7  8  2  0
 10  9  1  0
 10 11  2  0
 12 11  1  0
 13 12  2  0
 14 13  1  0
 15 14  1  6
 16 15  1  0
 16  7  1  0
 17 18  2  0
 17 15  1  0
 19 20  2  0
 19 13  1  0
 20 10  1  0
 22 21  1  0
 22 23  1  0
 23 24  1  0
 25 24  1  1
 25 26  1  0
 25 27  1  0
 26 17  1  0
 27 28  1  0
 29 27  2  0
M  END
$$$$
