NYM.pdb
     RDKit          3D

 29 29  0  0  1  0  0  0  0  0999 V2000
   26.9949  -14.9391  -18.1579 N   0  0  0  0  0  0  0  0  0  0  0  0
   25.6762  -15.1981  -18.5865 C   0  0  0  0  0  0  0  0  0  0  0  0
   24.9761  -14.2070  -18.9214 O   0  0  0  0  0  0  0  0  0  0  0  0
   25.1490  -16.5795  -18.6367 C   0  0  0  0  0  0  0  0  0  0  0  0
   26.1931  -17.5260  -18.0661 C   0  0  2  0  0  0  0  0  0  0  0  0
   27.1672  -17.9067  -19.0451 N   0  0  0  0  0  0  0  0  0  0  0  0
   25.5638  -18.6802  -17.3935 C   0  0  0  0  0  0  0  0  0  0  0  0
   25.1309  -19.6159  -18.1125 O   0  0  0  0  0  0  0  0  0  0  0  0
   29.3828  -24.0529  -17.2862 O   0  0  0  0  0  0  0  0  0  0  0  0
   28.4799  -23.2318  -16.6107 C   0  0  0  0  0  0  0  0  0  0  0  0
   27.2062  -23.6615  -16.3145 C   0  0  0  0  0  0  0  0  0  0  0  0
   26.2890  -22.8788  -15.6494 C   0  0  0  0  0  0  0  0  0  0  0  0
   26.6266  -21.5870  -15.2405 C   0  0  0  0  0  0  0  0  0  0  0  0
   25.6615  -20.7339  -14.5416 C   0  0  0  0  0  0  0  0  0  0  0  0
   24.7055  -19.9830  -15.4159 C   0  0  2  0  0  0  0  0  0  0  0  0
   25.4061  -18.8212  -15.9935 N   0  0  0  0  0  0  0  0  0  0  0  0
   23.5366  -19.5264  -14.6188 C   0  0  0  0  0  0  0  0  0  0  0  0
   23.7118  -18.6465  -13.7390 O   0  0  0  0  0  0  0  0  0  0  0  0
   27.9023  -21.1676  -15.5420 C   0  0  0  0  0  0  0  0  0  0  0  0
   28.8261  -21.9583  -16.2127 C   0  0  0  0  0  0  0  0  0  0  0  0
   17.4788  -17.0425  -12.8544 C   0  0  0  0  0  0  0  0  0  0  0  0
   19.2289  -16.8389  -12.7202 S   0  0  0  0  0  0  0  0  0  0  0  0
   20.2422  -16.9792  -14.1207 C   0  0  0  0  0  0  0  0  0  0  0  0
   20.8905  -18.1449  -14.6325 C   0  0  0  0  0  0  0  0  0  0  0  0
   21.0654  -19.4727  -14.0792 C   0  0  2  0  0  0  0  0  0  0  0  0
   22.2511  -20.0446  -14.8183 N   0  0  0  0  0  0  0  0  0  0  0  0
   20.0604  -20.5082  -14.2312 C   0  0  0  0  0  0  0  0  0  0  0  0
   18.9690  -20.7611  -13.4311 O   0  0  0  0  0  0  0  0  0  0  0  0
   20.1594  -21.3256  -15.2261 O   0  0  0  0  0  0  0  0  0  0  0  0
  1  2  1  0
  2  3  2  0
  4  2  1  0
  4  5  1  0
  5  7  1  0
  5  6  1  6
  7  8  2  0
 10  9  1  0
 10 11  2  0
 12 11  1  0
 13 12  2  0
 14 13  1  0
 15 14  1  1
 16 15  1  0
 16  7  1  0
 17 18  2  0
 17 15  1  0
 19 20  2  0
 19 13  1  0
 20 10  1  0
 22 21  1  0
 22 23  1  0
 23 24  1  0
 25 24  1  6
 25 26  1  0
 25 27  1  0
 26 17  1  0
 27 28  1  0
 29 27  2  0
M  END
$$$$
