NYM.pdb
     RDKit          3D

 29 29  0  0  1  0  0  0  0  0999 V2000
   29.9705  -19.0264  -19.5663 N   0  0  0  0  0  0  0  0  0  0  0  0
   28.5731  -18.9999  -19.7577 C   0  0  0  0  0  0  0  0  0  0  0  0
   28.1317  -18.2439  -20.6621 O   0  0  0  0  0  0  0  0  0  0  0  0
   27.6745  -19.8297  -18.9255 C   0  0  0  0  0  0  0  0  0  0  0  0
   28.5150  -20.6481  -17.9584 C   0  0  2  0  0  0  0  0  0  0  0  0
   29.1100  -21.7867  -18.5923 N   0  0  0  0  0  0  0  0  0  0  0  0
   27.7534  -20.9928  -16.7411 C   0  0  0  0  0  0  0  0  0  0  0  0
   26.9701  -21.9744  -16.7956 O   0  0  0  0  0  0  0  0  0  0  0  0
   24.3744  -20.7399   -8.4370 O   0  0  0  0  0  0  0  0  0  0  0  0
   25.1589  -20.5851   -9.5799 C   0  0  0  0  0  0  0  0  0  0  0  0
   24.8700  -19.6224  -10.5204 C   0  0  0  0  0  0  0  0  0  0  0  0
   25.6220  -19.4410  -11.6597 C   0  0  0  0  0  0  0  0  0  0  0  0
   26.7340  -20.2481  -11.9087 C   0  0  0  0  0  0  0  0  0  0  0  0
   27.5406  -20.0787  -13.1205 C   0  0  0  0  0  0  0  0  0  0  0  0
   26.9631  -20.6631  -14.3723 C   0  0  2  0  0  0  0  0  0  0  0  0
   27.8331  -20.3033  -15.5071 N   0  0  0  0  0  0  0  0  0  0  0  0
   25.5917  -20.1346  -14.5963 C   0  0  0  0  0  0  0  0  0  0  0  0
   25.4598  -18.9878  -15.0926 O   0  0  0  0  0  0  0  0  0  0  0  0
   27.0134  -21.2073  -10.9620 C   0  0  0  0  0  0  0  0  0  0  0  0
   26.2541  -21.3888   -9.8136 C   0  0  0  0  0  0  0  0  0  0  0  0
   19.9080  -18.8811  -18.8394 C   0  0  0  0  0  0  0  0  0  0  0  0
   20.8649  -20.0454  -17.9170 S   0  0  0  0  0  0  0  0  0  0  0  0
   21.9871  -19.5043  -16.7104 C   0  0  0  0  0  0  0  0  0  0  0  0
   22.8406  -20.2908  -15.8774 C   0  0  0  0  0  0  0  0  0  0  0  0
   23.0702  -20.2785  -14.4467 C   0  0  2  0  0  0  0  0  0  0  0  0
   24.4469  -20.8732  -14.2725 N   0  0  0  0  0  0  0  0  0  0  0  0
   22.2621  -21.0619  -13.5308 C   0  0  0  0  0  0  0  0  0  0  0  0
   21.0966  -20.6965  -12.8959 O   0  0  0  0  0  0  0  0  0  0  0  0
   22.6441  -22.2603  -13.2382 O   0  0  0  0  0  0  0  0  0  0  0  0
  1  2  1  0
  2  3  2  0
  4  2  1  0
  4  5  1  0
  5  7  1  0
  5  6  1  6
  7  8  2  0
 10  9  1  0
 10 11  2  0
 12 11  1  0
 13 12  2  0
 14 13  1  0
 15 14  1  1
 16 15  1  0
 16  7  1  0
 17 18  2  0
 17 15  1  0
 19 20  2  0
 19 13  1  0
 20 10  1  0
 22 21  1  0
 22 23  1  0
 23 24  1  0
 25 24  1  6
 25 26  1  0
 25 27  1  0
 26 17  1  0
 27 28  1  0
 29 27  2  0
M  END
$$$$
