NYM.pdb
     RDKit          3D

 29 29  0  0  1  0  0  0  0  0999 V2000
   28.3662  -23.3379  -17.6790 N   0  0  0  0  0  0  0  0  0  0  0  0
   29.2206  -22.9321  -16.6325 C   0  0  0  0  0  0  0  0  0  0  0  0
   30.3535  -23.4773  -16.5719 O   0  0  0  0  0  0  0  0  0  0  0  0
   28.7931  -21.9082  -15.6539 C   0  0  0  0  0  0  0  0  0  0  0  0
   27.3222  -21.5962  -15.8784 C   0  0  2  0  0  0  0  0  0  0  0  0
   27.1067  -20.8577  -17.0869 N   0  0  0  0  0  0  0  0  0  0  0  0
   26.7198  -20.9566  -14.6916 C   0  0  0  0  0  0  0  0  0  0  0  0
   27.0954  -19.7942  -14.3953 O   0  0  0  0  0  0  0  0  0  0  0  0
   21.6438  -17.7772  -17.3682 O   0  0  0  0  0  0  0  0  0  0  0  0
   22.1250  -18.5362  -16.3014 C   0  0  0  0  0  0  0  0  0  0  0  0
   22.1494  -18.0338  -15.0201 C   0  0  0  0  0  0  0  0  0  0  0  0
   22.6170  -18.7540  -13.9436 C   0  0  0  0  0  0  0  0  0  0  0  0
   23.0958  -20.0543  -14.1172 C   0  0  0  0  0  0  0  0  0  0  0  0
   23.6081  -20.8333  -12.9866 C   0  0  0  0  0  0  0  0  0  0  0  0
   25.0900  -20.7797  -12.7791 C   0  0  2  0  0  0  0  0  0  0  0  0
   25.7457  -21.5495  -13.8522 N   0  0  0  0  0  0  0  0  0  0  0  0
   25.4406  -21.3557  -11.4541 C   0  0  0  0  0  0  0  0  0  0  0  0
   25.3845  -22.6019  -11.3031 O   0  0  0  0  0  0  0  0  0  0  0  0
   23.0669  -20.5463  -15.4022 C   0  0  0  0  0  0  0  0  0  0  0  0
   22.5950  -19.8187  -16.4867 C   0  0  0  0  0  0  0  0  0  0  0  0
   29.7543  -18.5861   -6.4954 C   0  0  0  0  0  0  0  0  0  0  0  0
   28.0871  -18.9971   -6.0787 S   0  0  0  0  0  0  0  0  0  0  0  0
   26.9294  -19.3488   -7.3212 C   0  0  0  0  0  0  0  0  0  0  0  0
   27.0179  -20.3187   -8.3664 C   0  0  0  0  0  0  0  0  0  0  0  0
   26.0134  -21.1503   -8.9983 C   0  0  2  0  0  0  0  0  0  0  0  0
   25.8302  -20.5548  -10.3735 N   0  0  0  0  0  0  0  0  0  0  0  0
   24.6540  -21.2299   -8.4974 C   0  0  0  0  0  0  0  0  0  0  0  0
   23.5211  -20.6376   -9.0081 O   0  0  0  0  0  0  0  0  0  0  0  0
   24.4252  -21.9303   -7.4368 O   0  0  0  0  0  0  0  0  0  0  0  0
  1  2  1  0
  2  3  2  0
  4  2  1  0
  4  5  1  0
  5  7  1  0
  5  6  1  6
  7  8  2  0
 10  9  1  0
 10 11  2  0
 12 11  1  0
 13 12  2  0
 14 13  1  0
 15 14  1  6
 16 15  1  0
 16  7  1  0
 17 18  2  0
 17 15  1  0
 19 20  2  0
 19 13  1  0
 20 10  1  0
 22 21  1  0
 22 23  1  0
 23 24  1  0
 25 24  1  1
 25 26  1  0
 25 27  1  0
 26 17  1  0
 27 28  1  0
 29 27  2  0
M  END
$$$$
