NYM.pdb
     RDKit          3D

 29 29  0  0  1  0  0  0  0  0999 V2000
   15.4962  -21.9276    2.5979 N   0  0  0  0  0  0  0  0  0  0  0  0
   15.3877  -20.9600    3.6188 C   0  0  0  0  0  0  0  0  0  0  0  0
   14.2338  -20.7163    4.0586 O   0  0  0  0  0  0  0  0  0  0  0  0
   16.5857  -20.2680    4.1428 C   0  0  0  0  0  0  0  0  0  0  0  0
   16.5188  -18.8011    3.7490 C   0  0  2  0  0  0  0  0  0  0  0  0
   16.6003  -18.6201    2.3302 N   0  0  0  0  0  0  0  0  0  0  0  0
   17.5077  -17.9973    4.4949 C   0  0  0  0  0  0  0  0  0  0  0  0
   18.6941  -17.9909    4.0798 O   0  0  0  0  0  0  0  0  0  0  0  0
   21.2031  -10.6478    6.2823 O   0  0  0  0  0  0  0  0  0  0  0  0
   20.3541  -11.7482    6.4009 C   0  0  0  0  0  0  0  0  0  0  0  0
   19.4398  -12.0550    5.4187 C   0  0  0  0  0  0  0  0  0  0  0  0
   18.5865  -13.1326    5.5020 C   0  0  0  0  0  0  0  0  0  0  0  0
   18.6187  -13.9755    6.6149 C   0  0  0  0  0  0  0  0  0  0  0  0
   17.7115  -15.1208    6.7280 C   0  0  0  0  0  0  0  0  0  0  0  0
   18.2818  -16.4440    6.3205 C   0  0  2  0  0  0  0  0  0  0  0  0
   17.2277  -17.2264    5.6491 N   0  0  0  0  0  0  0  0  0  0  0  0
   18.7744  -17.1770    7.5165 C   0  0  0  0  0  0  0  0  0  0  0  0
   18.0108  -18.0039    8.0752 O   0  0  0  0  0  0  0  0  0  0  0  0
   19.5364  -13.6593    7.5908 C   0  0  0  0  0  0  0  0  0  0  0  0
   20.3962  -12.5722    7.5051 C   0  0  0  0  0  0  0  0  0  0  0  0
   25.7531  -18.5140   11.2777 C   0  0  0  0  0  0  0  0  0  0  0  0
   24.6889  -18.1017    9.9287 S   0  0  0  0  0  0  0  0  0  0  0  0
   22.9717  -18.0144   10.1559 C   0  0  0  0  0  0  0  0  0  0  0  0
   21.9649  -17.7004    9.1922 C   0  0  0  0  0  0  0  0  0  0  0  0
   20.5179  -17.7186    9.2680 C   0  0  2  0  0  0  0  0  0  0  0  0
   20.0586  -16.9750    8.0370 N   0  0  0  0  0  0  0  0  0  0  0  0
   19.7948  -17.0532   10.3355 C   0  0  0  0  0  0  0  0  0  0  0  0
   19.3570  -15.7490   10.3849 O   0  0  0  0  0  0  0  0  0  0  0  0
   19.5038  -17.7257   11.3989 O   0  0  0  0  0  0  0  0  0  0  0  0
  1  2  1  0
  2  3  2  0
  4  2  1  0
  4  5  1  0
  5  7  1  0
  5  6  1  6
  7  8  2  0
 10  9  1  0
 10 11  2  0
 12 11  1  0
 13 12  2  0
 14 13  1  0
 15 14  1  1
 16 15  1  0
 16  7  1  0
 17 18  2  0
 17 15  1  0
 19 20  2  0
 19 13  1  0
 20 10  1  0
 22 21  1  0
 22 23  1  0
 23 24  1  0
 25 24  1  1
 25 26  1  0
 25 27  1  0
 26 17  1  0
 27 28  1  0
 29 27  2  0
M  END
$$$$
