NYM.pdb
     RDKit          3D

 29 29  0  0  1  0  0  0  0  0999 V2000
   28.9318  -20.8930  -17.2438 N   0  0  0  0  0  0  0  0  0  0  0  0
   28.3352  -21.7527  -18.1898 C   0  0  0  0  0  0  0  0  0  0  0  0
   28.9267  -21.8924  -19.2921 O   0  0  0  0  0  0  0  0  0  0  0  0
   27.0686  -22.4553  -17.8884 C   0  0  0  0  0  0  0  0  0  0  0  0
   26.6813  -22.1750  -16.4452 C   0  0  2  0  0  0  0  0  0  0  0  0
   27.6412  -22.6974  -15.5189 N   0  0  0  0  0  0  0  0  0  0  0  0
   25.3010  -22.6165  -16.1622 C   0  0  0  0  0  0  0  0  0  0  0  0
   24.4483  -22.5060  -17.0791 O   0  0  0  0  0  0  0  0  0  0  0  0
   24.8148  -29.2470  -17.6940 O   0  0  0  0  0  0  0  0  0  0  0  0
   24.5033  -28.2047  -16.8209 C   0  0  0  0  0  0  0  0  0  0  0  0
   23.1973  -27.8557  -16.5611 C   0  0  0  0  0  0  0  0  0  0  0  0
   22.8528  -26.8332  -15.7055 C   0  0  0  0  0  0  0  0  0  0  0  0
   23.8417  -26.0939  -15.0532 C   0  0  0  0  0  0  0  0  0  0  0  0
   23.4964  -24.9947  -14.1476 C   0  0  0  0  0  0  0  0  0  0  0  0
   23.4676  -23.6302  -14.7636 C   0  0  2  0  0  0  0  0  0  0  0  0
   24.8543  -23.1585  -14.9328 N   0  0  0  0  0  0  0  0  0  0  0  0
   22.7152  -22.6920  -13.8895 C   0  0  0  0  0  0  0  0  0  0  0  0
   23.1578  -22.4524  -12.7382 O   0  0  0  0  0  0  0  0  0  0  0  0
   25.1438  -26.4512  -15.3204 C   0  0  0  0  0  0  0  0  0  0  0  0
   25.4894  -27.4827  -16.1835 C   0  0  0  0  0  0  0  0  0  0  0  0
   22.3467  -17.7192  -17.2146 C   0  0  0  0  0  0  0  0  0  0  0  0
   22.0999  -17.5671  -15.4716 S   0  0  0  0  0  0  0  0  0  0  0  0
   22.0555  -18.9764  -14.4617 C   0  0  0  0  0  0  0  0  0  0  0  0
   20.9367  -19.8080  -14.1490 C   0  0  0  0  0  0  0  0  0  0  0  0
   20.8377  -21.0604  -13.4270 C   0  0  2  0  0  0  0  0  0  0  0  0
   21.5332  -22.0693  -14.3089 N   0  0  0  0  0  0  0  0  0  0  0  0
   19.5606  -21.6941  -13.1568 C   0  0  0  0  0  0  0  0  0  0  0  0
   18.9940  -22.7755  -13.7928 O   0  0  0  0  0  0  0  0  0  0  0  0
   18.8212  -21.2180  -12.2111 O   0  0  0  0  0  0  0  0  0  0  0  0
  1  2  1  0
  2  3  2  0
  4  2  1  0
  4  5  1  0
  5  7  1  0
  5  6  1  1
  7  8  2  0
 10  9  1  0
 10 11  2  0
 12 11  1  0
 13 12  2  0
 14 13  1  0
 15 14  1  1
 16 15  1  0
 16  7  1  0
 17 18  2  0
 17 15  1  0
 19 20  2  0
 19 13  1  0
 20 10  1  0
 22 21  1  0
 22 23  1  0
 23 24  1  0
 25 24  1  6
 25 26  1  0
 25 27  1  0
 26 17  1  0
 27 28  1  0
 29 27  2  0
M  END
$$$$
