NYM.pdb
     RDKit          3D

 29 29  0  0  1  0  0  0  0  0999 V2000
   18.7197  -29.2869   -2.2258 N   0  0  0  0  0  0  0  0  0  0  0  0
   18.5613  -27.9231   -2.5498 C   0  0  0  0  0  0  0  0  0  0  0  0
   18.8124  -27.5817   -3.7351 O   0  0  0  0  0  0  0  0  0  0  0  0
   18.1180  -26.9449   -1.5323 C   0  0  0  0  0  0  0  0  0  0  0  0
   17.9098  -27.6684   -0.2115 C   0  0  2  0  0  0  0  0  0  0  0  0
   16.8899  -28.6704   -0.3012 N   0  0  0  0  0  0  0  0  0  0  0  0
   17.6928  -26.7162    0.8961 C   0  0  0  0  0  0  0  0  0  0  0  0
   18.5555  -25.8206    1.0795 O   0  0  0  0  0  0  0  0  0  0  0  0
   14.4556  -21.7765   -1.8286 O   0  0  0  0  0  0  0  0  0  0  0  0
   14.6150  -22.5906   -0.7072 C   0  0  0  0  0  0  0  0  0  0  0  0
   15.2666  -22.1383    0.4179 C   0  0  0  0  0  0  0  0  0  0  0  0
   15.4422  -22.9136    1.5424 C   0  0  0  0  0  0  0  0  0  0  0  0
   14.9528  -24.2208    1.5833 C   0  0  0  0  0  0  0  0  0  0  0  0
   15.1391  -25.0659    2.7660 C   0  0  0  0  0  0  0  0  0  0  0  0
   16.4667  -25.7500    2.8730 C   0  0  2  0  0  0  0  0  0  0  0  0
   16.5839  -26.7287    1.7764 N   0  0  0  0  0  0  0  0  0  0  0  0
   16.5801  -26.4409    4.1845 C   0  0  0  0  0  0  0  0  0  0  0  0
   16.1651  -27.6229    4.2825 O   0  0  0  0  0  0  0  0  0  0  0  0
   14.3034  -24.6626    0.4531 C   0  0  0  0  0  0  0  0  0  0  0  0
   14.1271  -23.8794   -0.6801 C   0  0  0  0  0  0  0  0  0  0  0  0
   21.9795  -27.0861    8.9742 C   0  0  0  0  0  0  0  0  0  0  0  0
   21.3715  -26.0813    7.6540 S   0  0  0  0  0  0  0  0  0  0  0  0
   19.9104  -26.5081    6.8227 C   0  0  0  0  0  0  0  0  0  0  0  0
   18.5692  -26.1285    7.1360 C   0  0  0  0  0  0  0  0  0  0  0  0
   17.2937  -26.5696    6.6084 C   0  0  2  0  0  0  0  0  0  0  0  0
   17.1334  -25.8170    5.3094 N   0  0  0  0  0  0  0  0  0  0  0  0
   16.0432  -26.3009    7.2934 C   0  0  0  0  0  0  0  0  0  0  0  0
   15.4932  -26.9756    8.3600 O   0  0  0  0  0  0  0  0  0  0  0  0
   15.3137  -25.3160    6.8865 O   0  0  0  0  0  0  0  0  0  0  0  0
  1  2  1  0
  2  3  2  0
  4  2  1  0
  4  5  1  0
  5  7  1  0
  5  6  1  6
  7  8  2  0
 10  9  1  0
 10 11  2  0
 12 11  1  0
 13 12  2  0
 14 13  1  0
 15 14  1  1
 16 15  1  0
 16  7  1  0
 17 18  2  0
 17 15  1  0
 19 20  2  0
 19 13  1  0
 20 10  1  0
 22 21  1  0
 22 23  1  0
 23 24  1  0
 25 24  1  1
 25 26  1  0
 25 27  1  0
 26 17  1  0
 27 28  1  0
 29 27  2  0
M  END
$$$$
