FVC.pdb
     RDKit          3D

 25 25  0  0  1  0  0  0  0  0999 V2000
    5.6224  -17.9639   25.6644 N   0  0  0  0  0  0  0  0  0  0  0  0
    6.1111  -16.6163   25.4752 C   0  0  1  0  0  0  0  0  0  0  0  0
    6.7832  -16.1797   26.7546 C   0  0  0  0  0  0  0  0  0  0  0  0
    7.0530  -14.7242   26.7211 C   0  0  0  0  0  0  0  0  0  0  0  0
    8.3442  -14.2425   26.5796 C   0  0  0  0  0  0  0  0  0  0  0  0
    8.5808  -12.8669   26.5458 C   0  0  0  0  0  0  0  0  0  0  0  0
    7.5550  -11.9691   26.6495 C   0  0  0  0  0  0  0  0  0  0  0  0
    6.2677  -12.4425   26.7910 C   0  0  0  0  0  0  0  0  0  0  0  0
    6.0431  -13.7891   26.8236 C   0  0  0  0  0  0  0  0  0  0  0  0
    7.1308  -16.5803   24.3850 C   0  0  0  0  0  0  0  0  0  0  0  0
    7.9559  -17.5231   24.3123 O   0  0  0  0  0  0  0  0  0  0  0  0
    8.6973  -14.1135   20.2991 C   0  0  0  0  0  0  0  0  0  0  0  0
    7.7251  -14.4137   21.4100 C   0  0  1  0  0  0  0  0  0  0  0  0
    6.3236  -14.6119   20.9162 C   0  0  0  0  0  0  0  0  0  0  0  0
    8.1887  -15.4405   22.3727 C   0  0  2  0  0  0  0  0  0  0  0  0
    7.1852  -15.5202   23.4442 N   0  0  0  0  0  0  0  0  0  0  0  0
    9.5349  -15.3170   22.9106 C   0  0  0  0  0  0  0  0  0  0  0  0
    9.7885  -14.2557   23.5934 O   0  0  0  0  0  0  0  0  0  0  0  0
   10.6123  -16.2023   22.7910 N   0  0  0  0  0  0  0  0  0  0  0  0
   11.9525  -15.9325   23.2668 C   0  0  1  0  0  0  0  0  0  0  0  0
   12.2260  -16.4855   24.6300 C   0  0  0  0  0  0  0  0  0  0  0  0
   11.3780  -18.0589   24.8725 S   0  0  0  0  0  0  0  0  0  0  0  0
   12.9921  -16.3351   22.3206 C   0  0  0  0  0  0  0  0  0  0  0  0
   14.2939  -15.9434   22.5308 O   0  0  0  0  0  0  0  0  0  0  0  0
   12.7128  -17.0279   21.3285 O   0  0  0  0  0  0  0  0  0  0  0  0
  2 10  1  0
  2  1  1  1
  3  2  1  0
  4  3  1  0
  5  4  2  0
  6  5  1  0
  7  6  2  0
  7  8  1  0
  8  9  2  0
  9  4  1  0
 10 16  1  0
 11 10  2  0
 13 12  1  6
 14 13  1  0
 15 13  1  0
 15 16  1  1
 17 18  2  0
 17 15  1  0
 19 17  1  0
 20 19  1  0
 21 22  1  0
 20 21  1  1
 23 20  1  0
 23 24  1  0
 25 23  2  0
M  END
$$$$
