FVC.pdb
     RDKit          3D

 25 25  0  0  1  0  0  0  0  0999 V2000
    5.8572  -18.1971   25.4342 N   0  0  0  0  0  0  0  0  0  0  0  0
    6.1938  -16.7954   25.3218 C   0  0  1  0  0  0  0  0  0  0  0  0
    6.7955  -16.3533   26.6340 C   0  0  0  0  0  0  0  0  0  0  0  0
    6.9127  -14.8778   26.6729 C   0  0  0  0  0  0  0  0  0  0  0  0
    8.1538  -14.2623   26.6861 C   0  0  0  0  0  0  0  0  0  0  0  0
    8.2466  -12.8696   26.7187 C   0  0  0  0  0  0  0  0  0  0  0  0
    7.1268  -12.0853   26.7376 C   0  0  0  0  0  0  0  0  0  0  0  0
    5.8888  -12.6923   26.7251 C   0  0  0  0  0  0  0  0  0  0  0  0
    5.8049  -14.0549   26.6934 C   0  0  0  0  0  0  0  0  0  0  0  0
    7.2173  -16.5894   24.2543 C   0  0  0  0  0  0  0  0  0  0  0  0
    8.1433  -17.4299   24.1495 O   0  0  0  0  0  0  0  0  0  0  0  0
    8.5898  -13.6873   20.3870 C   0  0  0  0  0  0  0  0  0  0  0  0
    7.6268  -14.1746   21.4380 C   0  0  1  0  0  0  0  0  0  0  0  0
    6.2600  -14.4517   20.8882 C   0  0  0  0  0  0  0  0  0  0  0  0
    8.1632  -15.2398   22.3175 C   0  0  2  0  0  0  0  0  0  0  0  0
    7.1654  -15.4818   23.3698 N   0  0  0  0  0  0  0  0  0  0  0  0
    9.4949  -15.0612   22.8758 C   0  0  0  0  0  0  0  0  0  0  0  0
    9.6134  -14.1945   23.8200 O   0  0  0  0  0  0  0  0  0  0  0  0
   10.6861  -15.7084   22.5282 N   0  0  0  0  0  0  0  0  0  0  0  0
   11.8192  -15.8724   23.4139 C   0  0  1  0  0  0  0  0  0  0  0  0
   11.4684  -16.5054   24.7234 C   0  0  0  0  0  0  0  0  0  0  0  0
   12.9387  -16.7484   25.7397 S   0  0  0  0  0  0  0  0  0  0  0  0
   12.9470  -16.5596   22.7861 C   0  0  0  0  0  0  0  0  0  0  0  0
   12.7427  -17.3075   21.6497 O   0  0  0  0  0  0  0  0  0  0  0  0
   14.0887  -16.4752   23.2675 O   0  0  0  0  0  0  0  0  0  0  0  0
  2 10  1  0
  2  1  1  1
  3  2  1  0
  4  3  1  0
  5  4  2  0
  6  5  1  0
  7  6  2  0
  7  8  1  0
  8  9  2  0
  9  4  1  0
 10 16  1  0
 11 10  2  0
 13 12  1  6
 14 13  1  0
 15 13  1  0
 15 16  1  1
 17 18  2  0
 17 15  1  0
 19 17  1  0
 20 19  1  0
 21 22  1  0
 20 21  1  1
 23 20  1  0
 23 24  1  0
 25 23  2  0
M  END
$$$$
