FVC.pdb
     RDKit          3D

 25 25  0  0  1  0  0  0  0  0999 V2000
    5.9366  -18.1403   25.6418 N   0  0  0  0  0  0  0  0  0  0  0  0
    6.2648  -16.7535   25.3970 C   0  0  1  0  0  0  0  0  0  0  0  0
    6.8630  -16.1854   26.6614 C   0  0  0  0  0  0  0  0  0  0  0  0
    6.9328  -14.7088   26.5770 C   0  0  0  0  0  0  0  0  0  0  0  0
    5.7801  -13.9456   26.4871 C   0  0  0  0  0  0  0  0  0  0  0  0
    5.8634  -12.5539   26.4123 C   0  0  0  0  0  0  0  0  0  0  0  0
    7.0721  -11.9149   26.4264 C   0  0  0  0  0  0  0  0  0  0  0  0
    8.2228  -12.6693   26.5151 C   0  0  0  0  0  0  0  0  0  0  0  0
    8.1345  -14.0301   26.5877 C   0  0  0  0  0  0  0  0  0  0  0  0
    7.2877  -16.6434   24.3149 C   0  0  0  0  0  0  0  0  0  0  0  0
    8.1465  -17.5531   24.2149 O   0  0  0  0  0  0  0  0  0  0  0  0
    8.7808  -13.9371   20.3545 C   0  0  0  0  0  0  0  0  0  0  0  0
    7.7890  -14.3790   21.3987 C   0  0  1  0  0  0  0  0  0  0  0  0
    6.4350  -14.6711   20.8254 C   0  0  0  0  0  0  0  0  0  0  0  0
    8.2972  -15.4117   22.3321 C   0  0  2  0  0  0  0  0  0  0  0  0
    7.3085  -15.5502   23.4114 N   0  0  0  0  0  0  0  0  0  0  0  0
    9.6442  -15.2553   22.8593 C   0  0  0  0  0  0  0  0  0  0  0  0
    9.8148  -14.3351   23.7432 O   0  0  0  0  0  0  0  0  0  0  0  0
   10.8010  -15.9746   22.5386 N   0  0  0  0  0  0  0  0  0  0  0  0
   12.0806  -15.8051   23.1937 C   0  0  1  0  0  0  0  0  0  0  0  0
   12.0451  -16.0977   24.6607 C   0  0  0  0  0  0  0  0  0  0  0  0
   11.2872  -17.7026   24.9825 S   0  0  0  0  0  0  0  0  0  0  0  0
   13.1645  -16.5374   22.5402 C   0  0  0  0  0  0  0  0  0  0  0  0
   12.8795  -17.3948   21.5029 O   0  0  0  0  0  0  0  0  0  0  0  0
   14.3409  -16.3935   22.9112 O   0  0  0  0  0  0  0  0  0  0  0  0
  2 10  1  0
  2  1  1  1
  3  2  1  0
  4  3  1  0
  5  4  2  0
  6  5  1  0
  7  6  2  0
  7  8  1  0
  8  9  2  0
  9  4  1  0
 10 16  1  0
 11 10  2  0
 13 12  1  6
 14 13  1  0
 15 13  1  0
 15 16  1  1
 17 18  2  0
 17 15  1  0
 19 17  1  0
 20 19  1  0
 21 22  1  0
 20 21  1  1
 23 20  1  0
 23 24  1  0
 25 23  2  0
M  END
$$$$
