FVC.pdb
     RDKit          3D

 25 25  0  0  1  0  0  0  0  0999 V2000
    5.8100  -18.0561   25.6746 N   0  0  0  0  0  0  0  0  0  0  0  0
    6.2383  -16.6898   25.4737 C   0  0  1  0  0  0  0  0  0  0  0  0
    6.8988  -16.2159   26.7459 C   0  0  0  0  0  0  0  0  0  0  0  0
    7.0731  -14.7459   26.7162 C   0  0  0  0  0  0  0  0  0  0  0  0
    8.3338  -14.1803   26.6159 C   0  0  0  0  0  0  0  0  0  0  0  0
    8.4803  -12.7921   26.5851 C   0  0  0  0  0  0  0  0  0  0  0  0
    7.3946  -11.9637   26.6517 C   0  0  0  0  0  0  0  0  0  0  0  0
    6.1374  -12.5208   26.7521 C   0  0  0  0  0  0  0  0  0  0  0  0
    6.0010  -13.8792   26.7820 C   0  0  0  0  0  0  0  0  0  0  0  0
    7.2485  -16.6164   24.3766 C   0  0  0  0  0  0  0  0  0  0  0  0
    8.1071  -17.5283   24.2982 O   0  0  0  0  0  0  0  0  0  0  0  0
    8.8038  -13.9776   20.3912 C   0  0  0  0  0  0  0  0  0  0  0  0
    7.8071  -14.3631   21.4531 C   0  0  1  0  0  0  0  0  0  0  0  0
    6.4323  -14.5934   20.9016 C   0  0  0  0  0  0  0  0  0  0  0  0
    8.2785  -15.4123   22.3874 C   0  0  2  0  0  0  0  0  0  0  0  0
    7.2574  -15.5551   23.4356 N   0  0  0  0  0  0  0  0  0  0  0  0
    9.6108  -15.2753   22.9556 C   0  0  0  0  0  0  0  0  0  0  0  0
    9.8390  -14.2104   23.6418 O   0  0  0  0  0  0  0  0  0  0  0  0
   10.6988  -16.1507   22.8623 N   0  0  0  0  0  0  0  0  0  0  0  0
   11.9956  -15.9144   23.4605 C   0  0  1  0  0  0  0  0  0  0  0  0
   12.0995  -16.3963   24.8732 C   0  0  0  0  0  0  0  0  0  0  0  0
   11.4764  -18.0818   25.0299 S   0  0  0  0  0  0  0  0  0  0  0  0
   13.1042  -16.4202   22.6522 C   0  0  0  0  0  0  0  0  0  0  0  0
   12.8420  -17.1365   21.5075 O   0  0  0  0  0  0  0  0  0  0  0  0
   14.2813  -16.2098   22.9878 O   0  0  0  0  0  0  0  0  0  0  0  0
  2 10  1  0
  2  1  1  1
  3  2  1  0
  4  3  1  0
  5  4  2  0
  6  5  1  0
  7  6  2  0
  7  8  1  0
  8  9  2  0
  9  4  1  0
 10 16  1  0
 11 10  2  0
 13 12  1  6
 14 13  1  0
 15 13  1  0
 15 16  1  1
 17 18  2  0
 17 15  1  0
 19 17  1  0
 20 19  1  0
 21 22  1  0
 20 21  1  1
 23 20  1  0
 23 24  1  0
 25 23  2  0
M  END
$$$$
