FVC.pdb
     RDKit          3D

 25 25  0  0  1  0  0  0  0  0999 V2000
    5.9225  -17.9343   25.7588 N   0  0  0  0  0  0  0  0  0  0  0  0
    6.3299  -16.5704   25.5047 C   0  0  1  0  0  0  0  0  0  0  0  0
    6.9666  -16.0314   26.7631 C   0  0  0  0  0  0  0  0  0  0  0  0
    6.9518  -14.5509   26.7514 C   0  0  0  0  0  0  0  0  0  0  0  0
    8.1311  -13.8266   26.8134 C   0  0  0  0  0  0  0  0  0  0  0  0
    8.0996  -12.4308   26.7973 C   0  0  0  0  0  0  0  0  0  0  0  0
    6.9165  -11.7499   26.7201 C   0  0  0  0  0  0  0  0  0  0  0  0
    5.7395  -12.4653   26.6588 C   0  0  0  0  0  0  0  0  0  0  0  0
    5.7771  -13.8303   26.6751 C   0  0  0  0  0  0  0  0  0  0  0  0
    7.3520  -16.5259   24.4171 C   0  0  0  0  0  0  0  0  0  0  0  0
    8.1864  -17.4608   24.3480 O   0  0  0  0  0  0  0  0  0  0  0  0
    8.8681  -14.0471   20.3185 C   0  0  0  0  0  0  0  0  0  0  0  0
    7.8976  -14.3726   21.4238 C   0  0  1  0  0  0  0  0  0  0  0  0
    6.4997  -14.5826   20.9248 C   0  0  0  0  0  0  0  0  0  0  0  0
    8.3723  -15.4048   22.3752 C   0  0  2  0  0  0  0  0  0  0  0  0
    7.3985  -15.4667   23.4749 N   0  0  0  0  0  0  0  0  0  0  0  0
    9.7350  -15.3015   22.8744 C   0  0  0  0  0  0  0  0  0  0  0  0
   10.0214  -14.2484   23.5568 O   0  0  0  0  0  0  0  0  0  0  0  0
   10.7974  -16.1988   22.7171 N   0  0  0  0  0  0  0  0  0  0  0  0
   12.1631  -15.9312   23.1154 C   0  0  1  0  0  0  0  0  0  0  0  0
   12.4591  -16.3130   24.5315 C   0  0  0  0  0  0  0  0  0  0  0  0
   11.5203  -17.7745   25.0177 S   0  0  0  0  0  0  0  0  0  0  0  0
   13.1523  -16.5015   22.2021 C   0  0  0  0  0  0  0  0  0  0  0  0
   14.4878  -16.2280   22.3862 O   0  0  0  0  0  0  0  0  0  0  0  0
   12.8000  -17.2314   21.2610 O   0  0  0  0  0  0  0  0  0  0  0  0
  2 10  1  0
  2  1  1  1
  3  2  1  0
  4  3  1  0
  5  4  2  0
  6  5  1  0
  7  6  2  0
  7  8  1  0
  8  9  2  0
  9  4  1  0
 10 16  1  0
 11 10  2  0
 13 12  1  6
 14 13  1  0
 15 13  1  0
 15 16  1  1
 17 18  2  0
 17 15  1  0
 19 17  1  0
 20 19  1  0
 21 22  1  0
 20 21  1  1
 23 20  1  0
 23 24  1  0
 25 23  2  0
M  END
$$$$
