FVC.pdb
     RDKit          3D

 25 25  0  0  1  0  0  0  0  0999 V2000
    5.8113  -18.0166   25.7034 N   0  0  0  0  0  0  0  0  0  0  0  0
    6.2087  -16.6499   25.4489 C   0  0  1  0  0  0  0  0  0  0  0  0
    6.8126  -16.0957   26.7167 C   0  0  0  0  0  0  0  0  0  0  0  0
    6.7544  -14.6162   26.7081 C   0  0  0  0  0  0  0  0  0  0  0  0
    5.5410  -13.9519   26.6334 C   0  0  0  0  0  0  0  0  0  0  0  0
    5.5035  -12.5561   26.6304 C   0  0  0  0  0  0  0  0  0  0  0  0
    6.6513  -11.8167   26.7010 C   0  0  0  0  0  0  0  0  0  0  0  0
    7.8620  -12.4723   26.7750 C   0  0  0  0  0  0  0  0  0  0  0  0
    7.8918  -13.8375   26.7773 C   0  0  0  0  0  0  0  0  0  0  0  0
    7.2530  -16.6009   24.3828 C   0  0  0  0  0  0  0  0  0  0  0  0
    8.0864  -17.5374   24.3245 O   0  0  0  0  0  0  0  0  0  0  0  0
    8.8517  -14.1018   20.3254 C   0  0  0  0  0  0  0  0  0  0  0  0
    7.8860  -14.3841   21.4466 C   0  0  1  0  0  0  0  0  0  0  0  0
    6.4629  -14.4590   20.9811 C   0  0  0  0  0  0  0  0  0  0  0  0
    8.2962  -15.4853   22.3494 C   0  0  2  0  0  0  0  0  0  0  0  0
    7.3214  -15.5355   23.4489 N   0  0  0  0  0  0  0  0  0  0  0  0
    9.6632  -15.4894   22.8477 C   0  0  0  0  0  0  0  0  0  0  0  0
   10.0433  -14.4461   23.4988 O   0  0  0  0  0  0  0  0  0  0  0  0
   10.6409  -16.4825   22.7192 N   0  0  0  0  0  0  0  0  0  0  0  0
   11.9958  -16.3688   23.2159 C   0  0  1  0  0  0  0  0  0  0  0  0
   12.3832  -17.4681   24.1541 C   0  0  0  0  0  0  0  0  0  0  0  0
   11.2054  -17.6042   25.5135 S   0  0  0  0  0  0  0  0  0  0  0  0
   12.9883  -16.2138   22.1533 C   0  0  0  0  0  0  0  0  0  0  0  0
   14.2934  -15.9232   22.4765 O   0  0  0  0  0  0  0  0  0  0  0  0
   12.6659  -16.3422   20.9608 O   0  0  0  0  0  0  0  0  0  0  0  0
  2 10  1  0
  2  1  1  1
  3  2  1  0
  4  3  1  0
  5  4  2  0
  6  5  1  0
  7  6  2  0
  7  8  1  0
  8  9  2  0
  9  4  1  0
 10 16  1  0
 11 10  2  0
 13 12  1  6
 14 13  1  0
 15 13  1  0
 15 16  1  1
 17 18  2  0
 17 15  1  0
 19 17  1  0
 20 19  1  0
 21 22  1  0
 20 21  1  6
 23 20  1  0
 23 24  1  0
 25 23  2  0
M  END
$$$$
