FVC.pdb
     RDKit          3D

 25 25  0  0  1  0  0  0  0  0999 V2000
    6.5913  -17.8635   21.0901 N   0  0  0  0  0  0  0  0  0  0  0  0
    7.3686  -16.7434   21.5714 C   0  0  1  0  0  0  0  0  0  0  0  0
    6.4664  -15.5336   21.6151 C   0  0  0  0  0  0  0  0  0  0  0  0
    7.0816  -14.4084   20.8750 C   0  0  0  0  0  0  0  0  0  0  0  0
    7.5421  -13.2848   21.5418 C   0  0  0  0  0  0  0  0  0  0  0  0
    8.1234  -12.2343   20.8291 C   0  0  0  0  0  0  0  0  0  0  0  0
    8.2524  -12.2871   19.4689 C   0  0  0  0  0  0  0  0  0  0  0  0
    7.7954  -13.4026   18.7998 C   0  0  0  0  0  0  0  0  0  0  0  0
    7.2276  -14.4265   19.5027 C   0  0  0  0  0  0  0  0  0  0  0  0
    7.8547  -17.0044   22.9589 C   0  0  0  0  0  0  0  0  0  0  0  0
    7.0395  -17.4586   23.7980 O   0  0  0  0  0  0  0  0  0  0  0  0
   11.6669  -18.0197   25.8800 C   0  0  0  0  0  0  0  0  0  0  0  0
   10.9102  -17.8318   24.5910 C   0  0  1  0  0  0  0  0  0  0  0  0
   10.6941  -19.1186   23.8527 C   0  0  0  0  0  0  0  0  0  0  0  0
    9.7043  -16.9780   24.7041 C   0  0  2  0  0  0  0  0  0  0  0  0
    9.1973  -16.7547   23.3423 N   0  0  0  0  0  0  0  0  0  0  0  0
    9.8156  -15.7298   25.4434 C   0  0  0  0  0  0  0  0  0  0  0  0
   10.6427  -14.8578   24.9825 O   0  0  0  0  0  0  0  0  0  0  0  0
    9.1402  -15.3339   26.6034 N   0  0  0  0  0  0  0  0  0  0  0  0
    9.4351  -14.1322   27.3547 C   0  0  1  0  0  0  0  0  0  0  0  0
    8.2151  -13.3742   27.7740 C   0  0  0  0  0  0  0  0  0  0  0  0
    6.8983  -13.5399   26.5524 S   0  0  0  0  0  0  0  0  0  0  0  0
   10.3221  -14.3672   28.4932 C   0  0  0  0  0  0  0  0  0  0  0  0
   10.7050  -15.6510   28.8056 O   0  0  0  0  0  0  0  0  0  0  0  0
   10.7345  -13.4196   29.1819 O   0  0  0  0  0  0  0  0  0  0  0  0
  2 10  1  0
  2  1  1  1
  3  2  1  0
  4  3  1  0
  5  4  2  0
  6  5  1  0
  7  6  2  0
  7  8  1  0
  8  9  2  0
  9  4  1  0
 10 16  1  0
 11 10  2  0
 13 12  1  1
 14 13  1  0
 15 13  1  0
 15 16  1  6
 17 18  2  0
 17 15  1  0
 19 17  1  0
 20 19  1  0
 21 22  1  0
 20 21  1  1
 23 20  1  0
 23 24  1  0
 25 23  2  0
M  END
$$$$
