FVC.pdb
     RDKit          3D

 25 25  0  0  1  0  0  0  0  0999 V2000
    6.0481  -18.1252   25.5818 N   0  0  0  0  0  0  0  0  0  0  0  0
    6.1980  -16.7046   25.3573 C   0  0  1  0  0  0  0  0  0  0  0  0
    7.1127  -16.1572   26.4264 C   0  0  0  0  0  0  0  0  0  0  0  0
    7.0036  -14.6819   26.4881 C   0  0  0  0  0  0  0  0  0  0  0  0
    8.1358  -13.8865   26.5562 C   0  0  0  0  0  0  0  0  0  0  0  0
    8.0154  -12.4965   26.6097 C   0  0  0  0  0  0  0  0  0  0  0  0
    6.7898  -11.8907   26.5958 C   0  0  0  0  0  0  0  0  0  0  0  0
    5.6592  -12.6771   26.5286 C   0  0  0  0  0  0  0  0  0  0  0  0
    5.7839  -14.0360   26.4768 C   0  0  0  0  0  0  0  0  0  0  0  0
    6.8370  -16.4512   24.0318 C   0  0  0  0  0  0  0  0  0  0  0  0
    6.2326  -16.8300   22.9992 O   0  0  0  0  0  0  0  0  0  0  0  0
    8.2059  -13.5905   20.8985 C   0  0  0  0  0  0  0  0  0  0  0  0
    7.6599  -14.4506   22.0083 C   0  0  1  0  0  0  0  0  0  0  0  0
    6.3647  -15.1124   21.6452 C   0  0  0  0  0  0  0  0  0  0  0  0
    8.6557  -15.3510   22.6356 C   0  0  2  0  0  0  0  0  0  0  0  0
    8.0924  -15.8011   23.9169 N   0  0  0  0  0  0  0  0  0  0  0  0
   10.0172  -14.8628   22.7935 C   0  0  0  0  0  0  0  0  0  0  0  0
   10.1526  -13.6745   23.2695 O   0  0  0  0  0  0  0  0  0  0  0  0
   11.2217  -15.5111   22.4978 N   0  0  0  0  0  0  0  0  0  0  0  0
   12.0216  -16.2357   23.4624 C   0  0  1  0  0  0  0  0  0  0  0  0
   11.2171  -17.1154   24.3666 C   0  0  0  0  0  0  0  0  0  0  0  0
   11.8577  -17.0699   26.0522 S   0  0  0  0  0  0  0  0  0  0  0  0
   13.1245  -16.9790   22.8547 C   0  0  0  0  0  0  0  0  0  0  0  0
   14.4229  -16.6482   23.1658 O   0  0  0  0  0  0  0  0  0  0  0  0
   12.9018  -17.9071   22.0600 O   0  0  0  0  0  0  0  0  0  0  0  0
  2 10  1  0
  2  1  1  1
  3  2  1  0
  4  3  1  0
  5  4  2  0
  6  5  1  0
  7  6  2  0
  7  8  1  0
  8  9  2  0
  9  4  1  0
 10 16  1  0
 11 10  2  0
 13 12  1  6
 14 13  1  0
 15 13  1  0
 15 16  1  1
 17 18  2  0
 17 15  1  0
 19 17  1  0
 20 19  1  0
 21 22  1  0
 20 21  1  6
 23 20  1  0
 23 24  1  0
 25 23  2  0
M  END
$$$$
