FVC.pdb
     RDKit          3D

 25 25  0  0  1  0  0  0  0  0999 V2000
    5.6964  -18.0257   25.5485 N   0  0  0  0  0  0  0  0  0  0  0  0
    6.1387  -16.6640   25.3468 C   0  0  1  0  0  0  0  0  0  0  0  0
    6.7831  -16.1882   26.6265 C   0  0  0  0  0  0  0  0  0  0  0  0
    6.7690  -14.7089   26.6883 C   0  0  0  0  0  0  0  0  0  0  0  0
    7.9471  -13.9901   26.8096 C   0  0  0  0  0  0  0  0  0  0  0  0
    7.9165  -12.5953   26.8624 C   0  0  0  0  0  0  0  0  0  0  0  0
    6.7354  -11.9098   26.7959 C   0  0  0  0  0  0  0  0  0  0  0  0
    5.5595  -12.6197   26.6757 C   0  0  0  0  0  0  0  0  0  0  0  0
    5.5963  -13.9838   26.6248 C   0  0  0  0  0  0  0  0  0  0  0  0
    7.1663  -16.6048   24.2651 C   0  0  0  0  0  0  0  0  0  0  0  0
    7.9536  -17.5741   24.1405 O   0  0  0  0  0  0  0  0  0  0  0  0
    8.8077  -13.9752   20.3099 C   0  0  0  0  0  0  0  0  0  0  0  0
    7.8456  -14.2776   21.4290 C   0  0  1  0  0  0  0  0  0  0  0  0
    6.4171  -14.3010   20.9750 C   0  0  0  0  0  0  0  0  0  0  0  0
    8.2374  -15.4221   22.2849 C   0  0  2  0  0  0  0  0  0  0  0  0
    7.2692  -15.4941   23.3889 N   0  0  0  0  0  0  0  0  0  0  0  0
    9.6073  -15.4756   22.7722 C   0  0  0  0  0  0  0  0  0  0  0  0
    9.9809  -14.5206   23.5502 O   0  0  0  0  0  0  0  0  0  0  0  0
   10.5941  -16.4335   22.5127 N   0  0  0  0  0  0  0  0  0  0  0  0
   11.9586  -16.3555   22.9895 C   0  0  1  0  0  0  0  0  0  0  0  0
   12.3147  -17.4342   23.9633 C   0  0  0  0  0  0  0  0  0  0  0  0
   10.9513  -17.7568   25.0994 S   0  0  0  0  0  0  0  0  0  0  0  0
   12.9428  -16.2787   21.9107 C   0  0  0  0  0  0  0  0  0  0  0  0
   14.2726  -16.0981   22.2126 O   0  0  0  0  0  0  0  0  0  0  0  0
   12.5912  -16.3754   20.7235 O   0  0  0  0  0  0  0  0  0  0  0  0
  2 10  1  0
  2  1  1  1
  3  2  1  0
  4  3  1  0
  5  4  2  0
  6  5  1  0
  7  6  2  0
  7  8  1  0
  8  9  2  0
  9  4  1  0
 10 16  1  0
 11 10  2  0
 13 12  1  6
 14 13  1  0
 15 13  1  0
 15 16  1  1
 17 18  2  0
 17 15  1  0
 19 17  1  0
 20 19  1  0
 21 22  1  0
 20 21  1  6
 23 20  1  0
 23 24  1  0
 25 23  2  0
M  END
$$$$
