FVC.pdb
     RDKit          3D

 25 25  0  0  1  0  0  0  0  0999 V2000
    5.7075  -17.6477   25.8000 N   0  0  0  0  0  0  0  0  0  0  0  0
    6.3426  -16.3929   25.4645 C   0  0  1  0  0  0  0  0  0  0  0  0
    7.2732  -16.0240   26.5947 C   0  0  0  0  0  0  0  0  0  0  0  0
    7.3360  -14.5526   26.7475 C   0  0  0  0  0  0  0  0  0  0  0  0
    8.5535  -13.8955   26.8191 C   0  0  0  0  0  0  0  0  0  0  0  0
    8.5949  -12.5069   26.9592 C   0  0  0  0  0  0  0  0  0  0  0  0
    7.4470  -11.7675   27.0279 C   0  0  0  0  0  0  0  0  0  0  0  0
    6.2322  -12.4159   26.9577 C   0  0  0  0  0  0  0  0  0  0  0  0
    6.1986  -13.7742   26.8209 C   0  0  0  0  0  0  0  0  0  0  0  0
    7.1611  -16.5384   24.2242 C   0  0  0  0  0  0  0  0  0  0  0  0
    7.6526  -17.6639   23.9658 O   0  0  0  0  0  0  0  0  0  0  0  0
    8.7598  -14.3007   20.0334 C   0  0  0  0  0  0  0  0  0  0  0  0
    7.8889  -14.4294   21.2559 C   0  0  1  0  0  0  0  0  0  0  0  0
    6.4259  -14.3714   20.9343 C   0  0  0  0  0  0  0  0  0  0  0  0
    8.2738  -15.5282   22.1726 C   0  0  2  0  0  0  0  0  0  0  0  0
    7.3904  -15.4491   23.3452 N   0  0  0  0  0  0  0  0  0  0  0  0
    9.6711  -15.6364   22.5636 C   0  0  0  0  0  0  0  0  0  0  0  0
   10.1523  -14.6669   23.2602 O   0  0  0  0  0  0  0  0  0  0  0  0
   10.5828  -16.6616   22.2870 N   0  0  0  0  0  0  0  0  0  0  0  0
   11.9696  -16.6601   22.7017 C   0  0  1  0  0  0  0  0  0  0  0  0
   12.3094  -17.7600   23.6575 C   0  0  0  0  0  0  0  0  0  0  0  0
   11.1724  -17.7751   25.0578 S   0  0  0  0  0  0  0  0  0  0  0  0
   12.9068  -16.6340   21.5796 C   0  0  0  0  0  0  0  0  0  0  0  0
   14.2516  -16.4698   21.8182 O   0  0  0  0  0  0  0  0  0  0  0  0
   12.5020  -16.7589   20.4121 O   0  0  0  0  0  0  0  0  0  0  0  0
  2 10  1  0
  2  1  1  1
  3  2  1  0
  4  3  1  0
  5  4  2  0
  6  5  1  0
  7  6  2  0
  7  8  1  0
  8  9  2  0
  9  4  1  0
 10 16  1  0
 11 10  2  0
 13 12  1  6
 14 13  1  0
 15 13  1  0
 15 16  1  1
 17 18  2  0
 17 15  1  0
 19 17  1  0
 20 19  1  0
 21 22  1  0
 20 21  1  6
 23 20  1  0
 23 24  1  0
 25 23  2  0
M  END
$$$$
