FVC.pdb
     RDKit          3D

 25 25  0  0  1  0  0  0  0  0999 V2000
    6.0310  -18.3505   25.3698 N   0  0  0  0  0  0  0  0  0  0  0  0
    6.3414  -16.9421   25.2671 C   0  0  1  0  0  0  0  0  0  0  0  0
    6.9654  -16.5054   26.5706 C   0  0  0  0  0  0  0  0  0  0  0  0
    6.9454  -15.0289   26.6793 C   0  0  0  0  0  0  0  0  0  0  0  0
    5.7552  -14.3249   26.5950 C   0  0  0  0  0  0  0  0  0  0  0  0
    5.7534  -12.9329   26.7036 C   0  0  0  0  0  0  0  0  0  0  0  0
    6.9140  -12.2359   26.8946 C   0  0  0  0  0  0  0  0  0  0  0  0
    8.1018  -12.9311   26.9788 C   0  0  0  0  0  0  0  0  0  0  0  0
    8.0967  -14.2924   26.8716 C   0  0  0  0  0  0  0  0  0  0  0  0
    7.3365  -16.7059   24.1793 C   0  0  0  0  0  0  0  0  0  0  0  0
    8.1463  -17.6248   23.9056 O   0  0  0  0  0  0  0  0  0  0  0  0
    8.6745  -13.6025   20.4660 C   0  0  0  0  0  0  0  0  0  0  0  0
    7.8175  -14.0308   21.6286 C   0  0  1  0  0  0  0  0  0  0  0  0
    6.3546  -14.0315   21.3012 C   0  0  0  0  0  0  0  0  0  0  0  0
    8.2918  -15.2488   22.3268 C   0  0  2  0  0  0  0  0  0  0  0  0
    7.3848  -15.4846   23.4596 N   0  0  0  0  0  0  0  0  0  0  0  0
    9.6860  -15.3028   22.7393 C   0  0  0  0  0  0  0  0  0  0  0  0
   10.5678  -15.1310   21.8175 O   0  0  0  0  0  0  0  0  0  0  0  0
   10.2153  -15.5176   24.0170 N   0  0  0  0  0  0  0  0  0  0  0  0
   11.6282  -15.6265   24.3120 C   0  0  1  0  0  0  0  0  0  0  0  0
   11.9368  -15.6106   25.7760 C   0  0  0  0  0  0  0  0  0  0  0  0
   10.9525  -14.3645   26.6316 S   0  0  0  0  0  0  0  0  0  0  0  0
   12.2683  -16.7651   23.6547 C   0  0  0  0  0  0  0  0  0  0  0  0
   13.6340  -16.9141   23.7259 O   0  0  0  0  0  0  0  0  0  0  0  0
   11.5920  -17.6005   23.0325 O   0  0  0  0  0  0  0  0  0  0  0  0
  2 10  1  0
  2  1  1  1
  3  2  1  0
  4  3  1  0
  5  4  2  0
  6  5  1  0
  7  6  2  0
  7  8  1  0
  8  9  2  0
  9  4  1  0
 10 16  1  0
 11 10  2  0
 13 12  1  6
 14 13  1  0
 15 13  1  0
 15 16  1  1
 17 18  2  0
 17 15  1  0
 19 17  1  0
 20 19  1  0
 21 22  1  0
 20 21  1  1
 23 20  1  0
 23 24  1  0
 25 23  2  0
M  END
$$$$
