FVC.pdb
     RDKit          3D

 25 25  0  0  1  0  0  0  0  0999 V2000
    6.0015  -18.2337   25.4226 N   0  0  0  0  0  0  0  0  0  0  0  0
    6.2484  -16.8146   25.2961 C   0  0  1  0  0  0  0  0  0  0  0  0
    6.7060  -16.2991   26.6393 C   0  0  0  0  0  0  0  0  0  0  0  0
    6.6134  -14.8219   26.6800 C   0  0  0  0  0  0  0  0  0  0  0  0
    7.7379  -14.0439   26.9024 C   0  0  0  0  0  0  0  0  0  0  0  0
    7.6338  -12.6519   26.9337 C   0  0  0  0  0  0  0  0  0  0  0  0
    6.4321  -12.0271   26.7470 C   0  0  0  0  0  0  0  0  0  0  0  0
    5.3093  -12.7962   26.5257 C   0  0  0  0  0  0  0  0  0  0  0  0
    5.4178  -14.1572   26.4965 C   0  0  0  0  0  0  0  0  0  0  0  0
    7.3409  -16.5617   24.3103 C   0  0  0  0  0  0  0  0  0  0  0  0
    8.2759  -17.3953   24.2334 O   0  0  0  0  0  0  0  0  0  0  0  0
    8.6781  -13.8107   20.3400 C   0  0  0  0  0  0  0  0  0  0  0  0
    7.7719  -14.1861   21.4834 C   0  0  1  0  0  0  0  0  0  0  0  0
    6.3660  -14.4621   21.0425 C   0  0  0  0  0  0  0  0  0  0  0  0
    8.3356  -15.1968   22.4090 C   0  0  2  0  0  0  0  0  0  0  0  0
    7.3439  -15.4178   23.4716 N   0  0  0  0  0  0  0  0  0  0  0  0
    9.6618  -14.9588   22.9580 C   0  0  0  0  0  0  0  0  0  0  0  0
    9.7191  -14.3083   24.0672 O   0  0  0  0  0  0  0  0  0  0  0  0
   10.9059  -15.3430   22.4447 N   0  0  0  0  0  0  0  0  0  0  0  0
   11.9988  -15.8576   23.2420 C   0  0  1  0  0  0  0  0  0  0  0  0
   11.5850  -16.9227   24.2080 C   0  0  0  0  0  0  0  0  0  0  0  0
   11.4744  -16.2681   25.8852 S   0  0  0  0  0  0  0  0  0  0  0  0
   13.1418  -16.2934   22.4408 C   0  0  0  0  0  0  0  0  0  0  0  0
   14.4070  -15.8634   22.7674 O   0  0  0  0  0  0  0  0  0  0  0  0
   12.9829  -17.0486   21.4677 O   0  0  0  0  0  0  0  0  0  0  0  0
  2 10  1  0
  2  1  1  1
  3  2  1  0
  4  3  1  0
  5  4  2  0
  6  5  1  0
  7  6  2  0
  7  8  1  0
  8  9  2  0
  9  4  1  0
 10 16  1  0
 11 10  2  0
 13 12  1  6
 14 13  1  0
 15 13  1  0
 15 16  1  1
 17 18  2  0
 17 15  1  0
 19 17  1  0
 20 19  1  0
 21 22  1  0
 20 21  1  6
 23 20  1  0
 23 24  1  0
 25 23  2  0
M  END
$$$$
