FVC.pdb
     RDKit          3D

 25 25  0  0  1  0  0  0  0  0999 V2000
    6.0624  -18.0931   25.7260 N   0  0  0  0  0  0  0  0  0  0  0  0
    6.3690  -16.6972   25.5067 C   0  0  1  0  0  0  0  0  0  0  0  0
    7.0122  -16.1580   26.7616 C   0  0  0  0  0  0  0  0  0  0  0  0
    7.0193  -14.6775   26.7384 C   0  0  0  0  0  0  0  0  0  0  0  0
    8.2087  -13.9726   26.6511 C   0  0  0  0  0  0  0  0  0  0  0  0
    8.1975  -12.5766   26.6263 C   0  0  0  0  0  0  0  0  0  0  0  0
    7.0246  -11.8766   26.6862 C   0  0  0  0  0  0  0  0  0  0  0  0
    5.8377  -12.5727   26.7737 C   0  0  0  0  0  0  0  0  0  0  0  0
    5.8555  -13.9380   26.7978 C   0  0  0  0  0  0  0  0  0  0  0  0
    7.3472  -16.5482   24.3884 C   0  0  0  0  0  0  0  0  0  0  0  0
    8.2499  -17.4120   24.2701 O   0  0  0  0  0  0  0  0  0  0  0  0
    8.5855  -13.7879   20.3751 C   0  0  0  0  0  0  0  0  0  0  0  0
    7.6527  -14.2497   21.4642 C   0  0  1  0  0  0  0  0  0  0  0  0
    6.2673  -14.5261   20.9624 C   0  0  0  0  0  0  0  0  0  0  0  0
    8.2091  -15.3035   22.3450 C   0  0  2  0  0  0  0  0  0  0  0  0
    7.2784  -15.4684   23.4712 N   0  0  0  0  0  0  0  0  0  0  0  0
    9.5819  -15.1580   22.8043 C   0  0  0  0  0  0  0  0  0  0  0  0
    9.8162  -14.1973   23.6283 O   0  0  0  0  0  0  0  0  0  0  0  0
   10.7039  -15.9266   22.4737 N   0  0  0  0  0  0  0  0  0  0  0  0
   11.8987  -16.0251   23.2848 C   0  0  1  0  0  0  0  0  0  0  0  0
   11.6369  -16.4939   24.6813 C   0  0  0  0  0  0  0  0  0  0  0  0
   13.1739  -16.6400   25.6140 S   0  0  0  0  0  0  0  0  0  0  0  0
   12.9577  -16.8147   22.6577 C   0  0  0  0  0  0  0  0  0  0  0  0
   14.2567  -16.6778   23.0892 O   0  0  0  0  0  0  0  0  0  0  0  0
   12.6972  -17.6089   21.7391 O   0  0  0  0  0  0  0  0  0  0  0  0
  2 10  1  0
  2  1  1  1
  3  2  1  0
  4  3  1  0
  5  4  2  0
  6  5  1  0
  7  6  2  0
  7  8  1  0
  8  9  2  0
  9  4  1  0
 10 16  1  0
 11 10  2  0
 13 12  1  6
 14 13  1  0
 15 13  1  0
 15 16  1  1
 17 18  2  0
 17 15  1  0
 19 17  1  0
 20 19  1  0
 21 22  1  0
 20 21  1  1
 23 20  1  0
 23 24  1  0
 25 23  2  0
M  END
$$$$
