KAA.pdb
     RDKit          3D

 20 19  0  0  1  0  0  0  0  0999 V2000
   13.0646  -12.6452  -12.4086 N   0  0  0  0  0  0  0  0  0  0  0  0
   14.3976  -12.1191  -12.6147 C   0  0  1  0  0  0  0  0  0  0  0  0
   14.7769  -12.4234  -14.0485 C   0  0  0  0  0  0  0  0  0  0  0  0
   15.0254  -13.9145  -14.1276 C   0  0  0  0  0  0  0  0  0  0  0  0
   16.3542  -14.2682  -14.7212 C   0  0  0  0  0  0  0  0  0  0  0  0
   16.5244  -15.7642  -14.8654 C   0  0  0  0  0  0  0  0  0  0  0  0
   17.8238  -15.9796  -15.4866 N   0  0  0  0  0  0  0  0  0  0  0  0
   14.4191  -10.6984  -12.2970 C   0  0  0  0  0  0  0  0  0  0  0  0
   13.5788   -9.9341  -12.8315 O   0  0  0  0  0  0  0  0  0  0  0  0
   16.2717   -8.2954  -10.0302 C   0  0  0  0  0  0  0  0  0  0  0  0
   15.4179   -8.6648  -11.2289 C   0  0  2  0  0  0  0  0  0  0  0  0
   15.3460  -10.0966  -11.4024 N   0  0  0  0  0  0  0  0  0  0  0  0
   16.0564   -8.0623  -12.4340 C   0  0  0  0  0  0  0  0  0  0  0  0
   16.9505   -8.7005  -13.0488 O   0  0  0  0  0  0  0  0  0  0  0  0
   15.3181   -4.9433  -14.3689 C   0  0  0  0  0  0  0  0  0  0  0  0
   16.1551   -6.1898  -14.1218 C   0  0  2  0  0  0  0  0  0  0  0  0
   15.6665   -6.7797  -12.8928 N   0  0  0  0  0  0  0  0  0  0  0  0
   17.5861   -5.8472  -13.9495 C   0  0  0  0  0  0  0  0  0  0  0  0
   18.3868   -5.6084  -15.0469 O   0  0  0  0  0  0  0  0  0  0  0  0
   18.1022   -5.7667  -12.7985 O   0  0  0  0  0  0  0  0  0  0  0  0
  2  1  1  6
  3  2  1  0
  4  3  1  0
  4  5  1  0
  6  7  1  0
  6  5  1  0
  8  2  1  0
  8  9  2  0
 11 10  1  1
 12 11  1  0
 12  8  1  0
 13 11  1  0
 14 13  2  0
 16 15  1  1
 16 17  1  0
 17 13  1  0
 18 16  1  0
 18 19  1  0
 20 18  2  0
M  END
$$$$
