KAA.pdb
     RDKit          3D

 20 19  0  0  1  0  0  0  0  0999 V2000
   15.7078  -12.4113  -12.4045 N   0  0  0  0  0  0  0  0  0  0  0  0
   14.8780  -11.2687  -12.0852 C   0  0  1  0  0  0  0  0  0  0  0  0
   13.9164  -11.7087  -11.0017 C   0  0  0  0  0  0  0  0  0  0  0  0
   12.5610  -11.1395  -11.3631 C   0  0  0  0  0  0  0  0  0  0  0  0
   11.5014  -11.4269  -10.3444 C   0  0  0  0  0  0  0  0  0  0  0  0
   10.1467  -10.9182  -10.7846 C   0  0  0  0  0  0  0  0  0  0  0  0
    9.2129  -11.2325   -9.7123 N   0  0  0  0  0  0  0  0  0  0  0  0
   15.7183  -10.1455  -11.6952 C   0  0  0  0  0  0  0  0  0  0  0  0
   16.6728  -10.3355  -10.9022 O   0  0  0  0  0  0  0  0  0  0  0  0
   16.9054   -6.9274  -12.8938 C   0  0  0  0  0  0  0  0  0  0  0  0
   16.3790   -7.7295  -11.7184 C   0  0  2  0  0  0  0  0  0  0  0  0
   15.5329   -8.8140  -12.1581 N   0  0  0  0  0  0  0  0  0  0  0  0
   15.5766   -6.8028  -10.8696 C   0  0  0  0  0  0  0  0  0  0  0  0
   14.4517   -6.4070  -11.2727 O   0  0  0  0  0  0  0  0  0  0  0  0
   15.9272   -5.6090   -7.3608 C   0  0  0  0  0  0  0  0  0  0  0  0
   15.3585   -5.4345   -8.7613 C   0  0  2  0  0  0  0  0  0  0  0  0
   16.0682   -6.3642   -9.6152 N   0  0  0  0  0  0  0  0  0  0  0  0
   15.5854   -4.0590   -9.2628 C   0  0  0  0  0  0  0  0  0  0  0  0
   16.5914   -3.8008  -10.1702 O   0  0  0  0  0  0  0  0  0  0  0  0
   14.8654   -3.0965   -8.8717 O   0  0  0  0  0  0  0  0  0  0  0  0
  2  1  1  1
  3  2  1  0
  4  3  1  0
  4  5  1  0
  6  7  1  0
  6  5  1  0
  8  2  1  0
  8  9  2  0
 11 10  1  6
 12 11  1  0
 12  8  1  0
 13 11  1  0
 14 13  2  0
 16 15  1  1
 16 17  1  0
 17 13  1  0
 18 16  1  0
 18 19  1  0
 20 18  2  0
M  END
$$$$
