KAA.pdb
     RDKit          3D

 20 19  0  0  1  0  0  0  0  0999 V2000
   16.8047  -11.6371  -15.1564 N   0  0  0  0  0  0  0  0  0  0  0  0
   16.8258  -10.3228  -15.7635 C   0  0  1  0  0  0  0  0  0  0  0  0
   15.7117   -9.5216  -15.1237 C   0  0  0  0  0  0  0  0  0  0  0  0
   14.4100  -10.0783  -15.6597 C   0  0  0  0  0  0  0  0  0  0  0  0
   13.1959   -9.4070  -15.0955 C   0  0  0  0  0  0  0  0  0  0  0  0
   11.9184  -10.0246  -15.6195 C   0  0  0  0  0  0  0  0  0  0  0  0
   10.8281   -9.4565  -14.8390 N   0  0  0  0  0  0  0  0  0  0  0  0
   18.1425   -9.7250  -15.5942 C   0  0  0  0  0  0  0  0  0  0  0  0
   18.7933   -9.9534  -14.5452 O   0  0  0  0  0  0  0  0  0  0  0  0
   20.7148   -7.9145  -17.6684 C   0  0  0  0  0  0  0  0  0  0  0  0
   20.0881   -8.3429  -16.3547 C   0  0  2  0  0  0  0  0  0  0  0  0
   18.7622   -8.8793  -16.5544 N   0  0  0  0  0  0  0  0  0  0  0  0
   19.9955   -7.1325  -15.4890 C   0  0  0  0  0  0  0  0  0  0  0  0
   18.9651   -6.4111  -15.5367 O   0  0  0  0  0  0  0  0  0  0  0  0
   22.1438   -5.8014  -12.7393 C   0  0  0  0  0  0  0  0  0  0  0  0
   21.0433   -5.6093  -13.7725 C   0  0  2  0  0  0  0  0  0  0  0  0
   21.0555   -6.7874  -14.6144 N   0  0  0  0  0  0  0  0  0  0  0  0
   21.3034   -4.4190  -14.6153 C   0  0  0  0  0  0  0  0  0  0  0  0
   20.9483   -3.1598  -14.1788 O   0  0  0  0  0  0  0  0  0  0  0  0
   21.8538   -4.5308  -15.7477 O   0  0  0  0  0  0  0  0  0  0  0  0
  2  1  1  1
  3  2  1  0
  4  3  1  0
  4  5  1  0
  6  7  1  0
  6  5  1  0
  8  2  1  0
  8  9  2  0
 11 10  1  6
 12 11  1  0
 12  8  1  0
 13 11  1  0
 14 13  2  0
 16 15  1  1
 16 17  1  0
 17 13  1  0
 18 16  1  0
 18 19  1  0
 20 18  2  0
M  END
$$$$
