KAA.pdb
     RDKit          3D

 20 19  0  0  1  0  0  0  0  0999 V2000
   17.2042  -13.7102  -17.8994 N   0  0  0  0  0  0  0  0  0  0  0  0
   16.9778  -12.2885  -17.7456 C   0  0  1  0  0  0  0  0  0  0  0  0
   15.9828  -12.1181  -16.6172 C   0  0  0  0  0  0  0  0  0  0  0  0
   14.6322  -12.5354  -17.1589 C   0  0  0  0  0  0  0  0  0  0  0  0
   13.5375  -12.4847  -16.1381 C   0  0  0  0  0  0  0  0  0  0  0  0
   12.2287  -13.0021  -16.6924 C   0  0  0  0  0  0  0  0  0  0  0  0
   11.3155  -13.1240  -15.5646 N   0  0  0  0  0  0  0  0  0  0  0  0
   18.2453  -11.6122  -17.5095 C   0  0  0  0  0  0  0  0  0  0  0  0
   19.1312  -12.1830  -16.8273 O   0  0  0  0  0  0  0  0  0  0  0  0
   20.0380   -8.4735  -18.6415 C   0  0  0  0  0  0  0  0  0  0  0  0
   19.8537   -9.7117  -17.7842 C   0  0  2  0  0  0  0  0  0  0  0  0
   18.5626  -10.3189  -18.0076 N   0  0  0  0  0  0  0  0  0  0  0  0
   19.9482   -9.2854  -16.3586 C   0  0  0  0  0  0  0  0  0  0  0  0
   18.9207   -8.8638  -15.7661 O   0  0  0  0  0  0  0  0  0  0  0  0
   22.4241   -9.8552  -13.6970 C   0  0  0  0  0  0  0  0  0  0  0  0
   21.3407   -8.9600  -14.2802 C   0  0  2  0  0  0  0  0  0  0  0  0
   21.1824   -9.3503  -15.6657 N   0  0  0  0  0  0  0  0  0  0  0  0
   21.7409   -7.5345  -14.2299 C   0  0  0  0  0  0  0  0  0  0  0  0
   22.0732   -6.8584  -15.3852 O   0  0  0  0  0  0  0  0  0  0  0  0
   21.7865   -6.9095  -13.1321 O   0  0  0  0  0  0  0  0  0  0  0  0
  2  1  1  1
  3  2  1  0
  4  3  1  0
  4  5  1  0
  6  7  1  0
  6  5  1  0
  8  2  1  0
  8  9  2  0
 11 10  1  6
 12 11  1  0
 12  8  1  0
 13 11  1  0
 14 13  2  0
 16 15  1  6
 16 17  1  0
 17 13  1  0
 18 16  1  0
 18 19  1  0
 20 18  2  0
M  END
$$$$
