KAA.pdb
     RDKit          3D

 20 19  0  0  1  0  0  0  0  0999 V2000
   20.3962  -12.6948  -16.4123 N   0  0  0  0  0  0  0  0  0  0  0  0
   19.9256  -11.4803  -17.0447 C   0  0  1  0  0  0  0  0  0  0  0  0
   18.4654  -11.3260  -16.6757 C   0  0  0  0  0  0  0  0  0  0  0  0
   17.6907  -12.2944  -17.5440 C   0  0  0  0  0  0  0  0  0  0  0  0
   16.2159  -12.2822  -17.2834 C   0  0  0  0  0  0  0  0  0  0  0  0
   15.4839  -13.2793  -18.1539 C   0  0  0  0  0  0  0  0  0  0  0  0
   14.1034  -13.3049  -17.6907 N   0  0  0  0  0  0  0  0  0  0  0  0
   20.7523  -10.3571  -16.6267 C   0  0  0  0  0  0  0  0  0  0  0  0
   21.1595  -10.2988  -15.4406 O   0  0  0  0  0  0  0  0  0  0  0  0
   22.6303   -7.5094  -18.2536 C   0  0  0  0  0  0  0  0  0  0  0  0
   22.0883   -8.2846  -17.0672 C   0  0  2  0  0  0  0  0  0  0  0  0
   21.1430   -9.2932  -17.4851 N   0  0  0  0  0  0  0  0  0  0  0  0
   21.3950   -7.3103  -16.1768 C   0  0  0  0  0  0  0  0  0  0  0  0
   20.1763   -7.0558  -16.3629 O   0  0  0  0  0  0  0  0  0  0  0  0
   22.3938   -5.6092  -13.0128 C   0  0  0  0  0  0  0  0  0  0  0  0
   21.4820   -5.7122  -14.2266 C   0  0  2  0  0  0  0  0  0  0  0  0
   22.0945   -6.6690  -15.1246 N   0  0  0  0  0  0  0  0  0  0  0  0
   21.3703   -4.4094  -14.9232 C   0  0  0  0  0  0  0  0  0  0  0  0
   20.5258   -3.4292  -14.4455 O   0  0  0  0  0  0  0  0  0  0  0  0
   22.0435   -4.1688  -15.9657 O   0  0  0  0  0  0  0  0  0  0  0  0
  2  1  1  1
  3  2  1  0
  4  3  1  0
  4  5  1  0
  6  7  1  0
  6  5  1  0
  8  2  1  0
  8  9  2  0
 11 10  1  6
 12 11  1  0
 12  8  1  0
 13 11  1  0
 14 13  2  0
 16 15  1  1
 16 17  1  0
 17 13  1  0
 18 16  1  0
 18 19  1  0
 20 18  2  0
M  END
$$$$
