KAA.pdb
     RDKit          3D

 20 19  0  0  1  0  0  0  0  0999 V2000
   21.6620  -12.1755  -17.5801 N   0  0  0  0  0  0  0  0  0  0  0  0
   20.5833  -11.2238  -17.4158 C   0  0  1  0  0  0  0  0  0  0  0  0
   19.7508  -11.6963  -16.2428 C   0  0  0  0  0  0  0  0  0  0  0  0
   18.7600  -12.7029  -16.7877 C   0  0  0  0  0  0  0  0  0  0  0  0
   17.8664  -13.2897  -15.7388 C   0  0  0  0  0  0  0  0  0  0  0  0
   16.9103  -14.3070  -16.3208 C   0  0  0  0  0  0  0  0  0  0  0  0
   16.0818  -14.7800  -15.2205 N   0  0  0  0  0  0  0  0  0  0  0  0
   21.1313   -9.8867  -17.2382 C   0  0  0  0  0  0  0  0  0  0  0  0
   22.0867   -9.7123  -16.4427 O   0  0  0  0  0  0  0  0  0  0  0  0
   20.7949   -6.4556  -18.7983 C   0  0  0  0  0  0  0  0  0  0  0  0
   21.2587   -7.4353  -17.7365 C   0  0  2  0  0  0  0  0  0  0  0  0
   20.6516   -8.7331  -17.9169 N   0  0  0  0  0  0  0  0  0  0  0  0
   20.8456   -6.8870  -16.4130 C   0  0  0  0  0  0  0  0  0  0  0  0
   19.7276   -7.2049  -15.9296 O   0  0  0  0  0  0  0  0  0  0  0  0
   22.5853   -4.8056  -13.8434 C   0  0  0  0  0  0  0  0  0  0  0  0
   21.3081   -5.3428  -14.4724 C   0  0  2  0  0  0  0  0  0  0  0  0
   21.6989   -6.0127  -15.6953 N   0  0  0  0  0  0  0  0  0  0  0  0
   20.3747   -4.2428  -14.8093 C   0  0  0  0  0  0  0  0  0  0  0  0
   19.5391   -3.7133  -13.8482 O   0  0  0  0  0  0  0  0  0  0  0  0
   20.3238   -3.7677  -15.9796 O   0  0  0  0  0  0  0  0  0  0  0  0
  2  1  1  1
  3  2  1  0
  4  3  1  0
  4  5  1  0
  6  7  1  0
  6  5  1  0
  8  2  1  0
  8  9  2  0
 11 10  1  6
 12 11  1  0
 12  8  1  0
 13 11  1  0
 14 13  2  0
 16 15  1  6
 16 17  1  0
 17 13  1  0
 18 16  1  0
 18 19  1  0
 20 18  2  0
M  END
$$$$
