KAA.pdb
     RDKit          3D

 20 19  0  0  1  0  0  0  0  0999 V2000
   19.1562  -10.5297  -17.0117 N   0  0  0  0  0  0  0  0  0  0  0  0
   18.1649   -9.7750  -16.2741 C   0  0  1  0  0  0  0  0  0  0  0  0
   17.2323  -10.7792  -15.6307 C   0  0  0  0  0  0  0  0  0  0  0  0
   16.8052  -11.7393  -16.7203 C   0  0  0  0  0  0  0  0  0  0  0  0
   15.9409  -12.8581  -16.2258 C   0  0  0  0  0  0  0  0  0  0  0  0
   15.5223  -13.7821  -17.3477 C   0  0  0  0  0  0  0  0  0  0  0  0
   14.7342  -14.8462  -16.7415 N   0  0  0  0  0  0  0  0  0  0  0  0
   18.8265   -8.9000  -15.3168 C   0  0  0  0  0  0  0  0  0  0  0  0
   18.1329   -8.2103  -14.5299 O   0  0  0  0  0  0  0  0  0  0  0  0
   22.2939   -8.2562  -13.9811 C   0  0  0  0  0  0  0  0  0  0  0  0
   20.8438   -7.8866  -14.2317 C   0  0  2  0  0  0  0  0  0  0  0  0
   20.2374   -8.7653  -15.2041 N   0  0  0  0  0  0  0  0  0  0  0  0
   20.8238   -6.4924  -14.7597 C   0  0  0  0  0  0  0  0  0  0  0  0
   21.0437   -6.2871  -15.9821 O   0  0  0  0  0  0  0  0  0  0  0  0
   19.3026   -3.4000  -13.5831 C   0  0  0  0  0  0  0  0  0  0  0  0
   20.4493   -4.0297  -14.3603 C   0  0  2  0  0  0  0  0  0  0  0  0
   20.5599   -5.3980  -13.8993 N   0  0  0  0  0  0  0  0  0  0  0  0
   21.7269   -3.3308  -14.0880 C   0  0  0  0  0  0  0  0  0  0  0  0
   22.0672   -2.1934  -14.7900 O   0  0  0  0  0  0  0  0  0  0  0  0
   22.5292   -3.7595  -13.2104 O   0  0  0  0  0  0  0  0  0  0  0  0
  2  1  1  1
  3  2  1  0
  4  3  1  0
  4  5  1  0
  6  7  1  0
  6  5  1  0
  8  2  1  0
  8  9  2  0
 11 10  1  6
 12 11  1  0
 12  8  1  0
 13 11  1  0
 14 13  2  0
 16 15  1  1
 16 17  1  0
 17 13  1  0
 18 16  1  0
 18 19  1  0
 20 18  2  0
M  END
$$$$
