KAA.pdb
     RDKit          3D

 20 19  0  0  1  0  0  0  0  0999 V2000
   19.6964  -11.0293  -17.3047 N   0  0  0  0  0  0  0  0  0  0  0  0
   18.7067  -10.4300  -16.4343 C   0  0  1  0  0  0  0  0  0  0  0  0
   17.7420  -11.5278  -16.0388 C   0  0  0  0  0  0  0  0  0  0  0  0
   17.1277  -12.0517  -17.3193 C   0  0  0  0  0  0  0  0  0  0  0  0
   16.0345  -13.0501  -17.0927 C   0  0  0  0  0  0  0  0  0  0  0  0
   15.4475  -13.5453  -18.3958 C   0  0  0  0  0  0  0  0  0  0  0  0
   14.5456  -14.6382  -18.0599 N   0  0  0  0  0  0  0  0  0  0  0  0
   19.3674   -9.8006  -15.2998 C   0  0  0  0  0  0  0  0  0  0  0  0
   18.6739   -9.2516  -14.4089 O   0  0  0  0  0  0  0  0  0  0  0  0
   22.6878   -9.8110  -13.5943 C   0  0  0  0  0  0  0  0  0  0  0  0
   21.3824   -9.1346  -13.9692 C   0  0  2  0  0  0  0  0  0  0  0  0
   20.7774   -9.7607  -15.1214 N   0  0  0  0  0  0  0  0  0  0  0  0
   21.6943   -7.7142  -14.2977 C   0  0  0  0  0  0  0  0  0  0  0  0
   22.1772   -6.9623  -13.4110 O   0  0  0  0  0  0  0  0  0  0  0  0
   21.9015   -5.8803  -17.5259 C   0  0  0  0  0  0  0  0  0  0  0  0
   21.8135   -5.8624  -16.0069 C   0  0  2  0  0  0  0  0  0  0  0  0
   21.4526   -7.2036  -15.5971 N   0  0  0  0  0  0  0  0  0  0  0  0
   20.7646   -4.9244  -15.5434 C   0  0  0  0  0  0  0  0  0  0  0  0
   21.0900   -3.6364  -15.1726 O   0  0  0  0  0  0  0  0  0  0  0  0
   19.5540   -5.2823  -15.4780 O   0  0  0  0  0  0  0  0  0  0  0  0
  2  1  1  6
  3  2  1  0
  4  3  1  0
  4  5  1  0
  6  7  1  0
  6  5  1  0
  8  2  1  0
  8  9  2  0
 11 10  1  6
 12 11  1  0
 12  8  1  0
 13 11  1  0
 14 13  2  0
 16 15  1  6
 16 17  1  0
 17 13  1  0
 18 16  1  0
 18 19  1  0
 20 18  2  0
M  END
$$$$
