KAA.pdb
     RDKit          3D

 20 19  0  0  1  0  0  0  0  0999 V2000
   19.0203   -9.3775  -16.8727 N   0  0  0  0  0  0  0  0  0  0  0  0
   19.1889   -8.3747  -17.9033 C   0  0  1  0  0  0  0  0  0  0  0  0
   18.3409   -8.8041  -19.0818 C   0  0  0  0  0  0  0  0  0  0  0  0
   18.1652  -10.3035  -18.9703 C   0  0  0  0  0  0  0  0  0  0  0  0
   17.3980  -10.9015  -20.1091 C   0  0  0  0  0  0  0  0  0  0  0  0
   17.2547  -12.4003  -19.9638 C   0  0  0  0  0  0  0  0  0  0  0  0
   16.6917  -12.8900  -21.2145 N   0  0  0  0  0  0  0  0  0  0  0  0
   18.8316   -7.0651  -17.3771 C   0  0  0  0  0  0  0  0  0  0  0  0
   18.9902   -6.0476  -18.0952 O   0  0  0  0  0  0  0  0  0  0  0  0
   16.5408   -5.6265  -14.8966 C   0  0  0  0  0  0  0  0  0  0  0  0
   17.8603   -5.5431  -15.6409 C   0  0  2  0  0  0  0  0  0  0  0  0
   18.3025   -6.8474  -16.0755 N   0  0  0  0  0  0  0  0  0  0  0  0
   18.8688   -4.9787  -14.6990 C   0  0  0  0  0  0  0  0  0  0  0  0
   18.6141   -3.9119  -14.0811 O   0  0  0  0  0  0  0  0  0  0  0  0
   22.0696   -6.3019  -13.3181 C   0  0  0  0  0  0  0  0  0  0  0  0
   21.1320   -5.1359  -13.5954 C   0  0  2  0  0  0  0  0  0  0  0  0
   20.1096   -5.6311  -14.4935 N   0  0  0  0  0  0  0  0  0  0  0  0
   21.8476   -4.0204  -14.2574 C   0  0  0  0  0  0  0  0  0  0  0  0
   22.5151   -3.0734  -13.5090 O   0  0  0  0  0  0  0  0  0  0  0  0
   21.8621   -3.9125  -15.5167 O   0  0  0  0  0  0  0  0  0  0  0  0
  2  1  1  1
  3  2  1  0
  4  3  1  0
  4  5  1  0
  6  7  1  0
  6  5  1  0
  8  2  1  0
  8  9  2  0
 11 10  1  1
 12 11  1  0
 12  8  1  0
 13 11  1  0
 14 13  2  0
 16 15  1  6
 16 17  1  0
 17 13  1  0
 18 16  1  0
 18 19  1  0
 20 18  2  0
M  END
$$$$
