KAA.pdb
     RDKit          3D

 20 19  0  0  1  0  0  0  0  0999 V2000
   14.0838   -8.5759  -13.8793 N   0  0  0  0  0  0  0  0  0  0  0  0
   15.3039   -8.8727  -13.1586 C   0  0  1  0  0  0  0  0  0  0  0  0
   16.3494   -9.2398  -14.1903 C   0  0  0  0  0  0  0  0  0  0  0  0
   16.0593  -10.6623  -14.6192 C   0  0  0  0  0  0  0  0  0  0  0  0
   17.0366  -11.1954  -15.6211 C   0  0  0  0  0  0  0  0  0  0  0  0
   16.7458  -12.6363  -15.9773 C   0  0  0  0  0  0  0  0  0  0  0  0
   17.7833  -13.0545  -16.9098 N   0  0  0  0  0  0  0  0  0  0  0  0
   15.6768   -7.7323  -12.3339 C   0  0  0  0  0  0  0  0  0  0  0  0
   15.3944   -6.5722  -12.7218 O   0  0  0  0  0  0  0  0  0  0  0  0
   16.5747   -6.9445   -8.8222 C   0  0  0  0  0  0  0  0  0  0  0  0
   16.7034   -6.6732  -10.3095 C   0  0  2  0  0  0  0  0  0  0  0  0
   16.3550   -7.8380  -11.0888 N   0  0  0  0  0  0  0  0  0  0  0  0
   18.1269   -6.3196  -10.5768 C   0  0  0  0  0  0  0  0  0  0  0  0
   18.6176   -5.2819  -10.0601 O   0  0  0  0  0  0  0  0  0  0  0  0
   20.9954   -8.1766  -11.9872 C   0  0  0  0  0  0  0  0  0  0  0  0
   20.3128   -6.8426  -11.7227 C   0  0  2  0  0  0  0  0  0  0  0  0
   18.9313   -7.1399  -11.4060 N   0  0  0  0  0  0  0  0  0  0  0  0
   20.3500   -5.9759  -12.9237 C   0  0  0  0  0  0  0  0  0  0  0  0
   21.4876   -5.2622  -13.2381 O   0  0  0  0  0  0  0  0  0  0  0  0
   19.3448   -5.8719  -13.6829 O   0  0  0  0  0  0  0  0  0  0  0  0
  2  1  1  6
  3  2  1  0
  4  3  1  0
  4  5  1  0
  6  7  1  0
  6  5  1  0
  8  2  1  0
  8  9  2  0
 11 10  1  1
 12 11  1  0
 12  8  1  0
 13 11  1  0
 14 13  2  0
 16 15  1  6
 16 17  1  0
 17 13  1  0
 18 16  1  0
 18 19  1  0
 20 18  2  0
M  END
$$$$
