KAA.pdb
     RDKit          3D

 20 19  0  0  1  0  0  0  0  0999 V2000
   25.6690  -30.2483  -17.9771 N   0  0  0  0  0  0  0  0  0  0  0  0
   26.8642  -29.8614  -17.2573 C   0  0  1  0  0  0  0  0  0  0  0  0
   27.7952  -31.0553  -17.2708 C   0  0  0  0  0  0  0  0  0  0  0  0
   27.1017  -32.1588  -16.5009 C   0  0  0  0  0  0  0  0  0  0  0  0
   27.2856  -32.0594  -15.0179 C   0  0  0  0  0  0  0  0  0  0  0  0
   26.5735  -33.1764  -14.2878 C   0  0  0  0  0  0  0  0  0  0  0  0
   26.8655  -33.0035  -12.8716 N   0  0  0  0  0  0  0  0  0  0  0  0
   27.4389  -28.6696  -17.8647 C   0  0  0  0  0  0  0  0  0  0  0  0
   27.2925  -28.4731  -19.0960 O   0  0  0  0  0  0  0  0  0  0  0  0
   29.2328  -25.5114  -16.7810 C   0  0  0  0  0  0  0  0  0  0  0  0
   28.7037  -26.5087  -17.7948 C   0  0  2  0  0  0  0  0  0  0  0  0
   28.1730  -27.6856  -17.1476 N   0  0  0  0  0  0  0  0  0  0  0  0
   29.8462  -26.9083  -18.6654 C   0  0  0  0  0  0  0  0  0  0  0  0
   30.6279  -27.8194  -18.2865 O   0  0  0  0  0  0  0  0  0  0  0  0
   30.6878  -26.0593  -22.2011 C   0  0  0  0  0  0  0  0  0  0  0  0
   31.0456  -26.7175  -20.8767 C   0  0  2  0  0  0  0  0  0  0  0  0
   30.0597  -26.2728  -19.9137 N   0  0  0  0  0  0  0  0  0  0  0  0
   32.3877  -26.2934  -20.4145 C   0  0  0  0  0  0  0  0  0  0  0  0
   32.5291  -25.2116  -19.5707 O   0  0  0  0  0  0  0  0  0  0  0  0
   33.4279  -26.9108  -20.7816 O   0  0  0  0  0  0  0  0  0  0  0  0
  2  1  1  6
  3  2  1  0
  4  3  1  0
  4  5  1  0
  6  7  1  0
  6  5  1  0
  8  2  1  0
  8  9  2  0
 11 10  1  1
 12 11  1  0
 12  8  1  0
 13 11  1  0
 14 13  2  0
 16 15  1  6
 16 17  1  0
 17 13  1  0
 18 16  1  0
 18 19  1  0
 20 18  2  0
M  END
$$$$
