KAA.pdb
     RDKit          3D

 20 19  0  0  1  0  0  0  0  0999 V2000
   16.3364  -10.1343  -12.4871 N   0  0  0  0  0  0  0  0  0  0  0  0
   17.0240   -9.9196  -13.7431 C   0  0  1  0  0  0  0  0  0  0  0  0
   15.9927  -10.0619  -14.8424 C   0  0  0  0  0  0  0  0  0  0  0  0
   15.2562  -11.3592  -14.5852 C   0  0  0  0  0  0  0  0  0  0  0  0
   14.3132  -11.7391  -15.6850 C   0  0  0  0  0  0  0  0  0  0  0  0
   13.7012  -13.1028  -15.4537 C   0  0  0  0  0  0  0  0  0  0  0  0
   12.9638  -13.4412  -16.6631 N   0  0  0  0  0  0  0  0  0  0  0  0
   17.6809   -8.6204  -13.7273 C   0  0  0  0  0  0  0  0  0  0  0  0
   17.1904   -7.6896  -13.0425 O   0  0  0  0  0  0  0  0  0  0  0  0
   20.8552   -7.0172  -15.0319 C   0  0  0  0  0  0  0  0  0  0  0  0
   19.4683   -7.0067  -14.4167 C   0  0  2  0  0  0  0  0  0  0  0  0
   18.8683   -8.3199  -14.4493 N   0  0  0  0  0  0  0  0  0  0  0  0
   18.6307   -6.0714  -15.2209 C   0  0  0  0  0  0  0  0  0  0  0  0
   18.0803   -6.4805  -16.2765 O   0  0  0  0  0  0  0  0  0  0  0  0
   17.1142   -2.7772  -14.5170 C   0  0  0  0  0  0  0  0  0  0  0  0
   17.6453   -3.7710  -15.5397 C   0  0  2  0  0  0  0  0  0  0  0  0
   18.4490   -4.7282  -14.8082 N   0  0  0  0  0  0  0  0  0  0  0  0
   18.5023   -3.0983  -16.5436 C   0  0  0  0  0  0  0  0  0  0  0  0
   17.9512   -2.2462  -17.4776 O   0  0  0  0  0  0  0  0  0  0  0  0
   19.7516   -3.2896  -16.5660 O   0  0  0  0  0  0  0  0  0  0  0  0
  2  1  1  1
  3  2  1  0
  4  3  1  0
  4  5  1  0
  6  7  1  0
  6  5  1  0
  8  2  1  0
  8  9  2  0
 11 10  1  6
 12 11  1  0
 12  8  1  0
 13 11  1  0
 14 13  2  0
 16 15  1  1
 16 17  1  0
 17 13  1  0
 18 16  1  0
 18 19  1  0
 20 18  2  0
M  END
$$$$
