KAA.pdb
     RDKit          3D

 20 19  0  0  1  0  0  0  0  0999 V2000
   18.6786  -11.0404  -17.2866 N   0  0  0  0  0  0  0  0  0  0  0  0
   19.5780   -9.9060  -17.2598 C   0  0  1  0  0  0  0  0  0  0  0  0
   18.7975   -8.7101  -17.7626 C   0  0  0  0  0  0  0  0  0  0  0  0
   18.4413   -8.9963  -19.2058 C   0  0  0  0  0  0  0  0  0  0  0  0
   17.6392   -7.9080  -19.8504 C   0  0  0  0  0  0  0  0  0  0  0  0
   17.2739   -8.2501  -21.2777 C   0  0  0  0  0  0  0  0  0  0  0  0
   16.3516   -7.2188  -21.7323 N   0  0  0  0  0  0  0  0  0  0  0  0
   20.1071   -9.7308  -15.9148 C   0  0  0  0  0  0  0  0  0  0  0  0
   19.3404   -9.8589  -14.9289 O   0  0  0  0  0  0  0  0  0  0  0  0
   23.2194   -9.9662  -14.0150 C   0  0  0  0  0  0  0  0  0  0  0  0
   21.9288   -9.2121  -14.2758 C   0  0  2  0  0  0  0  0  0  0  0  0
   21.4637   -9.4169  -15.6275 N   0  0  0  0  0  0  0  0  0  0  0  0
   22.2113   -7.7619  -14.0753 C   0  0  0  0  0  0  0  0  0  0  0  0
   22.6351   -7.3592  -12.9604 O   0  0  0  0  0  0  0  0  0  0  0  0
   22.3772   -4.8803  -16.4373 C   0  0  0  0  0  0  0  0  0  0  0  0
   22.3176   -5.4240  -15.0174 C   0  0  2  0  0  0  0  0  0  0  0  0
   22.0074   -6.8343  -15.1267 N   0  0  0  0  0  0  0  0  0  0  0  0
   21.2484   -4.7605  -14.2355 C   0  0  0  0  0  0  0  0  0  0  0  0
   21.5189   -3.6248  -13.5012 O   0  0  0  0  0  0  0  0  0  0  0  0
   20.0703   -5.2185  -14.2243 O   0  0  0  0  0  0  0  0  0  0  0  0
  2  1  1  1
  3  2  1  0
  4  3  1  0
  4  5  1  0
  6  7  1  0
  6  5  1  0
  8  2  1  0
  8  9  2  0
 11 10  1  6
 12 11  1  0
 12  8  1  0
 13 11  1  0
 14 13  2  0
 16 15  1  6
 16 17  1  0
 17 13  1  0
 18 16  1  0
 18 19  1  0
 20 18  2  0
M  END
$$$$
