KAA.pdb
     RDKit          3D

 20 19  0  0  1  0  0  0  0  0999 V2000
   21.0038  -14.0040  -16.9979 N   0  0  0  0  0  0  0  0  0  0  0  0
   20.5259  -12.6405  -17.0905 C   0  0  1  0  0  0  0  0  0  0  0  0
   19.4680  -12.4684  -16.0212 C   0  0  0  0  0  0  0  0  0  0  0  0
   18.2442  -13.2251  -16.4915 C   0  0  0  0  0  0  0  0  0  0  0  0
   17.0555  -13.0540  -15.5968 C   0  0  0  0  0  0  0  0  0  0  0  0
   15.8228  -13.7192  -16.1675 C   0  0  0  0  0  0  0  0  0  0  0  0
   14.7738  -13.5860  -15.1663 N   0  0  0  0  0  0  0  0  0  0  0  0
   21.6443  -11.7181  -16.9552 C   0  0  0  0  0  0  0  0  0  0  0  0
   22.4136  -11.8221  -15.9686 O   0  0  0  0  0  0  0  0  0  0  0  0
   23.6655   -9.4756  -19.1255 C   0  0  0  0  0  0  0  0  0  0  0  0
   23.1227   -9.8645  -17.7630 C   0  0  2  0  0  0  0  0  0  0  0  0
   21.9374  -10.6808  -17.8823 N   0  0  0  0  0  0  0  0  0  0  0  0
   22.7732   -8.6049  -17.0460 C   0  0  0  0  0  0  0  0  0  0  0  0
   23.6841   -7.7948  -16.7318 O   0  0  0  0  0  0  0  0  0  0  0  0
   19.5115   -6.9600  -16.2956 C   0  0  0  0  0  0  0  0  0  0  0  0
   21.0126   -7.0799  -16.0769 C   0  0  2  0  0  0  0  0  0  0  0  0
   21.4269   -8.3118  -16.7155 N   0  0  0  0  0  0  0  0  0  0  0  0
   21.3378   -7.1589  -14.6337 C   0  0  0  0  0  0  0  0  0  0  0  0
   21.3983   -8.3796  -13.9946 O   0  0  0  0  0  0  0  0  0  0  0  0
   21.5659   -6.1142  -13.9597 O   0  0  0  0  0  0  0  0  0  0  0  0
  2  1  1  1
  3  2  1  0
  4  3  1  0
  4  5  1  0
  6  7  1  0
  6  5  1  0
  8  2  1  0
  8  9  2  0
 11 10  1  6
 12 11  1  0
 12  8  1  0
 13 11  1  0
 14 13  2  0
 16 15  1  1
 16 17  1  0
 17 13  1  0
 18 16  1  0
 18 19  1  0
 20 18  2  0
M  END
$$$$
