KAA.pdb
     RDKit          3D

 20 19  0  0  1  0  0  0  0  0999 V2000
   19.2963  -13.1010  -16.2010 N   0  0  0  0  0  0  0  0  0  0  0  0
   19.2866  -11.6965  -16.5527 C   0  0  1  0  0  0  0  0  0  0  0  0
   17.8445  -11.3147  -16.8111 C   0  0  0  0  0  0  0  0  0  0  0  0
   17.3711  -12.1584  -17.9754 C   0  0  0  0  0  0  0  0  0  0  0  0
   15.9437  -11.9080  -18.3533 C   0  0  0  0  0  0  0  0  0  0  0  0
   15.5249  -12.7380  -19.5464 C   0  0  0  0  0  0  0  0  0  0  0  0
   14.1660  -12.3348  -19.8805 N   0  0  0  0  0  0  0  0  0  0  0  0
   19.9119  -10.9204  -15.4913 C   0  0  0  0  0  0  0  0  0  0  0  0
   19.3590  -10.8568  -14.3661 O   0  0  0  0  0  0  0  0  0  0  0  0
   23.2074   -9.7884  -14.4098 C   0  0  0  0  0  0  0  0  0  0  0  0
   21.7281   -9.4787  -14.5443 C   0  0  2  0  0  0  0  0  0  0  0  0
   21.1348  -10.2104  -15.6389 N   0  0  0  0  0  0  0  0  0  0  0  0
   21.6010   -8.0177  -14.8130 C   0  0  0  0  0  0  0  0  0  0  0  0
   22.0298   -7.1901  -13.9669 O   0  0  0  0  0  0  0  0  0  0  0  0
   20.5584   -6.0430  -17.7978 C   0  0  0  0  0  0  0  0  0  0  0  0
   20.7724   -6.1520  -16.2952 C   0  0  2  0  0  0  0  0  0  0  0  0
   21.0026   -7.5530  -16.0103 N   0  0  0  0  0  0  0  0  0  0  0  0
   19.5718   -5.7057  -15.5507 C   0  0  0  0  0  0  0  0  0  0  0  0
   19.4510   -4.3960  -15.1356 O   0  0  0  0  0  0  0  0  0  0  0  0
   18.6363   -6.5118  -15.2808 O   0  0  0  0  0  0  0  0  0  0  0  0
  2  1  1  1
  3  2  1  0
  4  3  1  0
  4  5  1  0
  6  7  1  0
  6  5  1  0
  8  2  1  0
  8  9  2  0
 11 10  1  6
 12 11  1  0
 12  8  1  0
 13 11  1  0
 14 13  2  0
 16 15  1  6
 16 17  1  0
 17 13  1  0
 18 16  1  0
 18 19  1  0
 20 18  2  0
M  END
$$$$
