TIH.pdb
     RDKit          3D

 26 26  0  0  1  0  0  0  0  0999 V2000
   21.1575  -15.8876  -18.6749 C   0  0  0  0  0  0  0  0  0  0  0  0
   21.4926  -17.3055  -18.2714 C   0  0  1  0  0  0  0  0  0  0  0  0
   21.2012  -18.2088  -19.2832 O   0  0  0  0  0  0  0  0  0  0  0  0
   22.9616  -17.4085  -17.8532 C   0  0  2  0  0  0  0  0  0  0  0  0
   23.2336  -18.7921  -17.4493 N   0  0  0  0  0  0  0  0  0  0  0  0
   23.2191  -16.5380  -16.6768 C   0  0  0  0  0  0  0  0  0  0  0  0
   22.8134  -16.8708  -15.5208 O   0  0  0  0  0  0  0  0  0  0  0  0
   27.8542  -14.1764  -15.9735 C   0  0  0  0  0  0  0  0  0  0  0  0
   26.5165  -14.7802  -15.6841 C   0  0  0  0  0  0  0  0  0  0  0  0
   25.4011  -13.7256  -15.7462 C   0  0  2  0  0  0  0  0  0  0  0  0
   25.6689  -12.6256  -14.7780 C   0  0  0  0  0  0  0  0  0  0  0  0
   24.0505  -14.3767  -15.6396 C   0  0  2  0  0  0  0  0  0  0  0  0
   23.9170  -15.3102  -16.7667 N   0  0  0  0  0  0  0  0  0  0  0  0
   22.9136  -13.4415  -15.7067 C   0  0  0  0  0  0  0  0  0  0  0  0
   22.5958  -12.7561  -14.6746 O   0  0  0  0  0  0  0  0  0  0  0  0
   22.1123  -13.2187  -16.8453 N   0  0  0  0  0  0  0  0  0  0  0  0
   21.0165  -12.2635  -16.8303 C   0  0  1  0  0  0  0  0  0  0  0  0
   21.2675  -11.2083  -17.8824 C   0  0  0  0  0  0  0  0  0  0  0  0
   22.1902  -10.1706  -17.3879 C   0  0  0  0  0  0  0  0  0  0  0  0
   22.2303   -9.6051  -16.1304 C   0  0  0  0  0  0  0  0  0  0  0  0
   23.2044   -8.6808  -16.0678 N   0  0  0  0  0  0  0  0  0  0  0  0
   23.7793   -8.6578  -17.2747 C   0  0  0  0  0  0  0  0  0  0  0  0
   23.1787   -9.5489  -18.0775 N   0  0  0  0  0  0  0  0  0  0  0  0
   19.7430  -12.9641  -17.0535 C   0  0  0  0  0  0  0  0  0  0  0  0
   19.6030  -14.3366  -17.1853 O   0  0  0  0  0  0  0  0  0  0  0  0
   18.6662  -12.3041  -17.1399 O   0  0  0  0  0  0  0  0  0  0  0  0
  2  1  1  6
  3  2  1  0
  4  2  1  0
  4  6  1  0
  4  5  1  1
  6 13  1  0
  6  7  2  0
  9  8  1  0
 10  9  1  0
 10 11  1  1
 12 10  1  0
 12 13  1  6
 14 12  1  0
 14 15  2  0
 16 14  1  0
 17 16  1  0
 17 18  1  6
 18 19  1  0
 19 20  2  0
 19 23  1  0
 20 21  1  0
 21 22  1  0
 23 22  2  0
 24 17  1  0
 25 24  1  0
 26 24  2  0
M  END
$$$$
