TIH.pdb
     RDKit          3D

 26 26  0  0  1  0  0  0  0  0999 V2000
   20.2294  -13.9890  -18.4844 C   0  0  0  0  0  0  0  0  0  0  0  0
   19.9881  -15.2601  -17.7024 C   0  0  1  0  0  0  0  0  0  0  0  0
   19.4758  -16.2675  -18.5071 O   0  0  0  0  0  0  0  0  0  0  0  0
   21.2764  -15.7146  -17.0115 C   0  0  2  0  0  0  0  0  0  0  0  0
   20.9838  -16.9213  -16.2307 N   0  0  0  0  0  0  0  0  0  0  0  0
   21.7432  -14.6688  -16.0646 C   0  0  0  0  0  0  0  0  0  0  0  0
   21.1740  -14.5081  -14.9415 O   0  0  0  0  0  0  0  0  0  0  0  0
   26.7511  -14.1886  -14.8990 C   0  0  0  0  0  0  0  0  0  0  0  0
   25.2591  -14.0986  -14.8416 C   0  0  0  0  0  0  0  0  0  0  0  0
   24.7582  -12.7527  -15.3871 C   0  0  2  0  0  0  0  0  0  0  0  0
   25.3981  -11.6231  -14.6566 C   0  0  0  0  0  0  0  0  0  0  0  0
   23.2562  -12.7295  -15.4414 C   0  0  2  0  0  0  0  0  0  0  0  0
   22.8276  -13.8045  -16.3472 N   0  0  0  0  0  0  0  0  0  0  0  0
   22.6818  -11.4713  -15.9500 C   0  0  0  0  0  0  0  0  0  0  0  0
   23.1322  -10.9620  -17.0334 O   0  0  0  0  0  0  0  0  0  0  0  0
   21.6401  -10.7476  -15.3340 N   0  0  0  0  0  0  0  0  0  0  0  0
   21.1572   -9.4913  -15.8836 C   0  0  1  0  0  0  0  0  0  0  0  0
   19.7208   -9.2877  -15.4607 C   0  0  0  0  0  0  0  0  0  0  0  0
   19.2096   -7.9832  -15.9184 C   0  0  0  0  0  0  0  0  0  0  0  0
   19.3824   -7.3939  -17.1535 C   0  0  0  0  0  0  0  0  0  0  0  0
   18.7777   -6.1937  -17.1841 N   0  0  0  0  0  0  0  0  0  0  0  0
   18.2249   -6.0201  -15.9792 C   0  0  0  0  0  0  0  0  0  0  0  0
   18.4774   -7.0889  -15.2090 N   0  0  0  0  0  0  0  0  0  0  0  0
   22.0195   -8.3880  -15.4348 C   0  0  0  0  0  0  0  0  0  0  0  0
   22.6381   -8.3153  -14.1968 O   0  0  0  0  0  0  0  0  0  0  0  0
   22.2412   -7.4072  -16.2038 O   0  0  0  0  0  0  0  0  0  0  0  0
  2  1  1  6
  3  2  1  0
  4  2  1  0
  4  6  1  0
  4  5  1  1
  6 13  1  0
  6  7  2  0
  9  8  1  0
 10  9  1  0
 10 11  1  1
 12 10  1  0
 12 13  1  6
 14 12  1  0
 14 15  2  0
 16 14  1  0
 17 16  1  0
 17 18  1  1
 18 19  1  0
 19 20  2  0
 19 23  1  0
 20 21  1  0
 21 22  1  0
 23 22  2  0
 24 17  1  0
 25 24  1  0
 26 24  2  0
M  END
$$$$
