TIH.pdb
     RDKit          3D

 26 26  0  0  1  0  0  0  0  0999 V2000
   21.9453  -12.9453  -22.2938 C   0  0  0  0  0  0  0  0  0  0  0  0
   21.7404  -12.5643  -20.8453 C   0  0  1  0  0  0  0  0  0  0  0  0
   20.4937  -11.9921  -20.6373 O   0  0  0  0  0  0  0  0  0  0  0  0
   21.9407  -13.7820  -19.9394 C   0  0  2  0  0  0  0  0  0  0  0  0
   20.9037  -14.7705  -20.2540 N   0  0  0  0  0  0  0  0  0  0  0  0
   21.7724  -13.3914  -18.5156 C   0  0  0  0  0  0  0  0  0  0  0  0
   20.6682  -13.5762  -17.9173 O   0  0  0  0  0  0  0  0  0  0  0  0
   25.1546  -14.6885  -14.8098 C   0  0  0  0  0  0  0  0  0  0  0  0
   23.8875  -14.2499  -15.4730 C   0  0  0  0  0  0  0  0  0  0  0  0
   23.8096  -12.7190  -15.5740 C   0  0  2  0  0  0  0  0  0  0  0  0
   23.9255  -12.1006  -14.2238 C   0  0  0  0  0  0  0  0  0  0  0  0
   22.6139  -12.3022  -16.3840 C   0  0  2  0  0  0  0  0  0  0  0  0
   22.8080  -12.8020  -17.7524 N   0  0  0  0  0  0  0  0  0  0  0  0
   22.4130  -10.8450  -16.4729 C   0  0  0  0  0  0  0  0  0  0  0  0
   23.3097  -10.1143  -17.0188 O   0  0  0  0  0  0  0  0  0  0  0  0
   21.2811  -10.1516  -15.9975 N   0  0  0  0  0  0  0  0  0  0  0  0
   21.1539   -8.7107  -16.1434 C   0  0  1  0  0  0  0  0  0  0  0  0
   19.7521   -8.3834  -16.6032 C   0  0  0  0  0  0  0  0  0  0  0  0
   19.5780   -6.9320  -16.7927 C   0  0  0  0  0  0  0  0  0  0  0  0
   19.2214   -5.9930  -15.8473 C   0  0  0  0  0  0  0  0  0  0  0  0
   19.1504   -4.7734  -16.4080 N   0  0  0  0  0  0  0  0  0  0  0  0
   19.4588   -4.9342  -17.6990 C   0  0  0  0  0  0  0  0  0  0  0  0
   19.7179   -6.2275  -17.9430 N   0  0  0  0  0  0  0  0  0  0  0  0
   21.4780   -8.0513  -14.8696 C   0  0  0  0  0  0  0  0  0  0  0  0
   21.2581   -8.5953  -13.6141 O   0  0  0  0  0  0  0  0  0  0  0  0
   21.9978   -6.8971  -14.8708 O   0  0  0  0  0  0  0  0  0  0  0  0
  2  1  1  6
  3  2  1  0
  4  2  1  0
  4  6  1  0
  4  5  1  6
  6 13  1  0
  6  7  2  0
  9  8  1  0
 10  9  1  0
 10 11  1  1
 12 10  1  0
 12 13  1  6
 14 12  1  0
 14 15  2  0
 16 14  1  0
 17 16  1  0
 17 18  1  1
 18 19  1  0
 19 20  2  0
 19 23  1  0
 20 21  1  0
 21 22  1  0
 23 22  2  0
 24 17  1  0
 25 24  1  0
 26 24  2  0
M  END
$$$$
