TIH.pdb
     RDKit          3D

 26 26  0  0  1  0  0  0  0  0999 V2000
   20.1341  -14.7602  -18.6100 C   0  0  0  0  0  0  0  0  0  0  0  0
   20.1933  -14.3859  -17.1464 C   0  0  1  0  0  0  0  0  0  0  0  0
   19.1499  -14.9537  -16.4296 O   0  0  0  0  0  0  0  0  0  0  0  0
   21.5459  -14.7814  -16.5485 C   0  0  2  0  0  0  0  0  0  0  0  0
   21.3353  -15.8991  -15.6223 N   0  0  0  0  0  0  0  0  0  0  0  0
   22.1082  -13.6497  -15.7668 C   0  0  0  0  0  0  0  0  0  0  0  0
   21.8634  -13.5313  -14.5268 O   0  0  0  0  0  0  0  0  0  0  0  0
   27.0675  -10.1755  -15.4568 C   0  0  0  0  0  0  0  0  0  0  0  0
   25.6131  -10.2894  -15.1261 C   0  0  0  0  0  0  0  0  0  0  0  0
   24.9706  -11.4919  -15.8341 C   0  0  2  0  0  0  0  0  0  0  0  0
   25.3779  -11.5324  -17.2664 C   0  0  0  0  0  0  0  0  0  0  0  0
   23.4908  -11.5309  -15.5735 C   0  0  2  0  0  0  0  0  0  0  0  0
   22.9339  -12.6539  -16.3406 N   0  0  0  0  0  0  0  0  0  0  0  0
   22.7651  -10.3157  -15.9839 C   0  0  0  0  0  0  0  0  0  0  0  0
   22.6632  -10.0283  -17.2261 O   0  0  0  0  0  0  0  0  0  0  0  0
   22.1454   -9.4046  -15.1042 N   0  0  0  0  0  0  0  0  0  0  0  0
   21.4222   -8.2432  -15.5958 C   0  0  1  0  0  0  0  0  0  0  0  0
   20.1645   -8.0628  -14.7779 C   0  0  0  0  0  0  0  0  0  0  0  0
   19.1197   -9.0183  -15.1879 C   0  0  0  0  0  0  0  0  0  0  0  0
   19.1745   -9.9437  -16.2092 C   0  0  0  0  0  0  0  0  0  0  0  0
   18.0169  -10.6230  -16.2830 N   0  0  0  0  0  0  0  0  0  0  0  0
   17.2318  -10.1345  -15.3173 C   0  0  0  0  0  0  0  0  0  0  0  0
   17.8832   -9.1691  -14.6518 N   0  0  0  0  0  0  0  0  0  0  0  0
   22.2877   -7.0559  -15.5345 C   0  0  0  0  0  0  0  0  0  0  0  0
   23.5743   -7.0355  -15.0199 O   0  0  0  0  0  0  0  0  0  0  0  0
   21.8672   -5.9451  -15.9725 O   0  0  0  0  0  0  0  0  0  0  0  0
  2  1  1  6
  3  2  1  0
  4  2  1  0
  4  6  1  0
  4  5  1  1
  6 13  1  0
  6  7  2  0
  9  8  1  0
 10  9  1  0
 10 11  1  6
 12 10  1  0
 12 13  1  6
 14 12  1  0
 14 15  2  0
 16 14  1  0
 17 16  1  0
 17 18  1  1
 18 19  1  0
 19 20  2  0
 19 23  1  0
 20 21  1  0
 21 22  1  0
 23 22  2  0
 24 17  1  0
 25 24  1  0
 26 24  2  0
M  END
$$$$
