TIH.pdb
     RDKit          3D

 26 26  0  0  1  0  0  0  0  0999 V2000
   20.0866  -12.8472  -17.2552 C   0  0  0  0  0  0  0  0  0  0  0  0
   20.4730  -14.1765  -16.6476 C   0  0  1  0  0  0  0  0  0  0  0  0
   20.0837  -15.2393  -17.4499 O   0  0  0  0  0  0  0  0  0  0  0  0
   21.9786  -14.2211  -16.3743 C   0  0  2  0  0  0  0  0  0  0  0  0
   22.2987  -15.5072  -15.7457 N   0  0  0  0  0  0  0  0  0  0  0  0
   22.3552  -13.1476  -15.4184 C   0  0  0  0  0  0  0  0  0  0  0  0
   22.0719  -13.2469  -14.1850 O   0  0  0  0  0  0  0  0  0  0  0  0
   26.6183   -9.7534  -16.5424 C   0  0  0  0  0  0  0  0  0  0  0  0
   25.1772  -10.1382  -16.4294 C   0  0  0  0  0  0  0  0  0  0  0  0
   24.8303  -10.5966  -15.0048 C   0  0  2  0  0  0  0  0  0  0  0  0
   25.7395  -11.6954  -14.5745 C   0  0  0  0  0  0  0  0  0  0  0  0
   23.3590  -10.8794  -14.8833 C   0  0  2  0  0  0  0  0  0  0  0  0
   23.0384  -11.9724  -15.8119 N   0  0  0  0  0  0  0  0  0  0  0  0
   22.4871   -9.7419  -15.2259 C   0  0  0  0  0  0  0  0  0  0  0  0
   22.0376   -9.6251  -16.4176 O   0  0  0  0  0  0  0  0  0  0  0  0
   22.0823   -8.7312  -14.3298 N   0  0  0  0  0  0  0  0  0  0  0  0
   21.1555   -7.6851  -14.7301 C   0  0  1  0  0  0  0  0  0  0  0  0
   20.3300   -7.2732  -13.5334 C   0  0  0  0  0  0  0  0  0  0  0  0
   19.3195   -8.2949  -13.2050 C   0  0  0  0  0  0  0  0  0  0  0  0
   19.0423   -9.4600  -13.8892 C   0  0  0  0  0  0  0  0  0  0  0  0
   18.0408  -10.1248  -13.2877 N   0  0  0  0  0  0  0  0  0  0  0  0
   17.6832   -9.3896  -12.2299 C   0  0  0  0  0  0  0  0  0  0  0  0
   18.4443   -8.2868  -12.1690 N   0  0  0  0  0  0  0  0  0  0  0  0
   21.9005   -6.5503  -15.2955 C   0  0  0  0  0  0  0  0  0  0  0  0
   21.3429   -5.5288  -16.0479 O   0  0  0  0  0  0  0  0  0  0  0  0
   23.1489   -6.4584  -15.1074 O   0  0  0  0  0  0  0  0  0  0  0  0
  2  1  1  6
  3  2  1  0
  4  2  1  0
  4  6  1  0
  4  5  1  1
  6 13  1  0
  6  7  2  0
  9  8  1  0
 10  9  1  0
 10 11  1  6
 12 10  1  0
 12 13  1  6
 14 12  1  0
 14 15  2  0
 16 14  1  0
 17 16  1  0
 17 18  1  1
 18 19  1  0
 19 20  2  0
 19 23  1  0
 20 21  1  0
 21 22  1  0
 23 22  2  0
 24 17  1  0
 25 24  1  0
 26 24  2  0
M  END
$$$$
