TIH.pdb
     RDKit          3D

 26 26  0  0  1  0  0  0  0  0999 V2000
   17.5608  -24.8931  -14.2558 C   0  0  0  0  0  0  0  0  0  0  0  0
   18.3114  -23.5894  -14.1057 C   0  0  1  0  0  0  0  0  0  0  0  0
   17.4516  -22.5278  -13.8640 O   0  0  0  0  0  0  0  0  0  0  0  0
   19.3634  -23.7033  -12.9994 C   0  0  2  0  0  0  0  0  0  0  0  0
   18.6755  -23.7181  -11.7041 N   0  0  0  0  0  0  0  0  0  0  0  0
   20.2562  -22.5156  -13.0207 C   0  0  0  0  0  0  0  0  0  0  0  0
   20.1348  -21.5957  -12.1544 O   0  0  0  0  0  0  0  0  0  0  0  0
   25.3469  -23.2964  -13.6580 C   0  0  0  0  0  0  0  0  0  0  0  0
   24.0444  -22.6739  -13.2661 C   0  0  0  0  0  0  0  0  0  0  0  0
   23.5569  -21.6790  -14.3304 C   0  0  2  0  0  0  0  0  0  0  0  0
   24.5863  -20.6303  -14.5745 C   0  0  0  0  0  0  0  0  0  0  0  0
   22.1797  -21.1785  -13.9958 C   0  0  2  0  0  0  0  0  0  0  0  0
   21.2759  -22.3374  -13.9856 N   0  0  0  0  0  0  0  0  0  0  0  0
   21.6330  -20.2035  -14.9561 C   0  0  0  0  0  0  0  0  0  0  0  0
   21.4334  -20.5540  -16.1699 O   0  0  0  0  0  0  0  0  0  0  0  0
   21.2927  -18.8692  -14.6528 N   0  0  0  0  0  0  0  0  0  0  0  0
   20.7334  -17.9789  -15.6568 C   0  0  1  0  0  0  0  0  0  0  0  0
   20.1842  -16.7481  -14.9735 C   0  0  0  0  0  0  0  0  0  0  0  0
   19.5422  -15.8415  -15.9425 C   0  0  0  0  0  0  0  0  0  0  0  0
   18.7678  -16.1806  -17.0324 C   0  0  0  0  0  0  0  0  0  0  0  0
   18.3740  -15.0733  -17.6848 N   0  0  0  0  0  0  0  0  0  0  0  0
   18.8931  -14.0382  -17.0165 C   0  0  0  0  0  0  0  0  0  0  0  0
   19.5977  -14.4867  -15.9669 N   0  0  0  0  0  0  0  0  0  0  0  0
   21.7641  -17.6379  -16.6487 C   0  0  0  0  0  0  0  0  0  0  0  0
   23.0831  -17.3332  -16.3522 O   0  0  0  0  0  0  0  0  0  0  0  0
   21.4697  -17.6065  -17.8795 O   0  0  0  0  0  0  0  0  0  0  0  0
  2  1  1  1
  3  2  1  0
  4  2  1  0
  4  6  1  0
  4  5  1  1
  6 13  1  0
  6  7  2  0
  9  8  1  0
 10  9  1  0
 10 11  1  1
 12 10  1  0
 12 13  1  6
 14 12  1  0
 14 15  2  0
 16 14  1  0
 17 16  1  0
 17 18  1  1
 18 19  1  0
 19 20  2  0
 19 23  1  0
 20 21  1  0
 21 22  1  0
 23 22  2  0
 24 17  1  0
 25 24  1  0
 26 24  2  0
M  END
$$$$
