TIH.pdb
     RDKit          3D

 26 26  0  0  1  0  0  0  0  0999 V2000
   15.8260  -14.5582  -14.8362 C   0  0  0  0  0  0  0  0  0  0  0  0
   16.6083  -13.3739  -15.3565 C   0  0  1  0  0  0  0  0  0  0  0  0
   17.7990  -13.2025  -14.6652 O   0  0  0  0  0  0  0  0  0  0  0  0
   16.8647  -13.5215  -16.8584 C   0  0  2  0  0  0  0  0  0  0  0  0
   17.8063  -14.6276  -17.0623 N   0  0  0  0  0  0  0  0  0  0  0  0
   17.4986  -12.2876  -17.3911 C   0  0  0  0  0  0  0  0  0  0  0  0
   18.7465  -12.2450  -17.6202 O   0  0  0  0  0  0  0  0  0  0  0  0
   14.6415  -10.5567  -20.3200 C   0  0  0  0  0  0  0  0  0  0  0  0
   16.0120   -9.9578  -20.3475 C   0  0  0  0  0  0  0  0  0  0  0  0
   16.3163   -9.1964  -19.0483 C   0  0  2  0  0  0  0  0  0  0  0  0
   16.5729   -7.7573  -19.3351 C   0  0  0  0  0  0  0  0  0  0  0  0
   17.3789   -9.9052  -18.2559 C   0  0  2  0  0  0  0  0  0  0  0  0
   16.7692  -11.1077  -17.6711 N   0  0  0  0  0  0  0  0  0  0  0  0
   17.9441   -9.1157  -17.1474 C   0  0  0  0  0  0  0  0  0  0  0  0
   17.2557   -8.9325  -16.0851 O   0  0  0  0  0  0  0  0  0  0  0  0
   19.2228   -8.5215  -17.1441 N   0  0  0  0  0  0  0  0  0  0  0  0
   19.6716   -7.6864  -16.0419 C   0  0  1  0  0  0  0  0  0  0  0  0
   21.1628   -7.4728  -16.1604 C   0  0  0  0  0  0  0  0  0  0  0  0
   21.6531   -6.5461  -15.1242 C   0  0  0  0  0  0  0  0  0  0  0  0
   21.8344   -6.8001  -13.7806 C   0  0  0  0  0  0  0  0  0  0  0  0
   22.2830   -5.6975  -13.1560 N   0  0  0  0  0  0  0  0  0  0  0  0
   22.3862   -4.7498  -14.0934 C   0  0  0  0  0  0  0  0  0  0  0  0
   22.0104   -5.2473  -15.2811 N   0  0  0  0  0  0  0  0  0  0  0  0
   18.9359   -6.4132  -16.0511 C   0  0  0  0  0  0  0  0  0  0  0  0
   18.6412   -5.6732  -17.1852 O   0  0  0  0  0  0  0  0  0  0  0  0
   18.5215   -5.9158  -14.9632 O   0  0  0  0  0  0  0  0  0  0  0  0
  2  1  1  1
  3  2  1  0
  4  2  1  0
  4  6  1  0
  4  5  1  1
  6 13  1  0
  6  7  2  0
  9  8  1  0
 10  9  1  0
 10 11  1  6
 12 10  1  0
 12 13  1  1
 14 12  1  0
 14 15  2  0
 16 14  1  0
 17 16  1  0
 17 18  1  6
 18 19  1  0
 19 20  2  0
 19 23  1  0
 20 21  1  0
 21 22  1  0
 23 22  2  0
 24 17  1  0
 25 24  1  0
 26 24  2  0
M  END
$$$$
