TIH.pdb
     RDKit          3D

 26 26  0  0  1  0  0  0  0  0999 V2000
   19.2891  -15.5338  -19.6758 C   0  0  0  0  0  0  0  0  0  0  0  0
   19.8016  -14.6235  -18.5830 C   0  0  1  0  0  0  0  0  0  0  0  0
   18.7647  -13.9747  -17.9283 O   0  0  0  0  0  0  0  0  0  0  0  0
   20.6651  -15.4104  -17.5938 C   0  0  2  0  0  0  0  0  0  0  0  0
   19.8204  -16.4122  -16.9346 N   0  0  0  0  0  0  0  0  0  0  0  0
   21.1904  -14.5025  -16.5412 C   0  0  0  0  0  0  0  0  0  0  0  0
   20.5058  -14.2460  -15.5034 O   0  0  0  0  0  0  0  0  0  0  0  0
   26.2063  -14.9132  -15.0840 C   0  0  0  0  0  0  0  0  0  0  0  0
   24.7424  -14.6110  -15.0258 C   0  0  0  0  0  0  0  0  0  0  0  0
   24.4486  -13.1751  -15.4864 C   0  0  2  0  0  0  0  0  0  0  0  0
   25.1862  -12.1950  -14.6412 C   0  0  0  0  0  0  0  0  0  0  0  0
   22.9672  -12.9506  -15.6070 C   0  0  2  0  0  0  0  0  0  0  0  0
   22.4583  -13.8799  -16.6255 N   0  0  0  0  0  0  0  0  0  0  0  0
   22.5867  -11.5896  -16.0247 C   0  0  0  0  0  0  0  0  0  0  0  0
   22.7195  -11.2426  -17.2486 O   0  0  0  0  0  0  0  0  0  0  0  0
   22.0673  -10.5944  -15.1714 N   0  0  0  0  0  0  0  0  0  0  0  0
   21.6576   -9.2948  -15.6782 C   0  0  1  0  0  0  0  0  0  0  0  0
   20.2021   -9.3583  -16.0791 C   0  0  0  0  0  0  0  0  0  0  0  0
   19.7189   -8.0455  -16.5438 C   0  0  0  0  0  0  0  0  0  0  0  0
   19.3392   -6.9645  -15.7759 C   0  0  0  0  0  0  0  0  0  0  0  0
   18.9425   -5.9510  -16.5647 N   0  0  0  0  0  0  0  0  0  0  0  0
   19.0682   -6.3827  -17.8238 C   0  0  0  0  0  0  0  0  0  0  0  0
   19.5340   -7.6406  -17.8249 N   0  0  0  0  0  0  0  0  0  0  0  0
   21.8975   -8.2646  -14.6567 C   0  0  0  0  0  0  0  0  0  0  0  0
   22.0289   -6.9085  -14.9105 O   0  0  0  0  0  0  0  0  0  0  0  0
   22.0001   -8.5950  -13.4389 O   0  0  0  0  0  0  0  0  0  0  0  0
  2  1  1  6
  3  2  1  0
  4  2  1  0
  4  6  1  0
  4  5  1  1
  6 13  1  0
  6  7  2  0
  9  8  1  0
 10  9  1  0
 10 11  1  1
 12 10  1  0
 12 13  1  6
 14 12  1  0
 14 15  2  0
 16 14  1  0
 17 16  1  0
 17 18  1  1
 18 19  1  0
 19 20  2  0
 19 23  1  0
 20 21  1  0
 21 22  1  0
 23 22  2  0
 24 17  1  0
 25 24  1  0
 26 24  2  0
M  END
$$$$
