TIH.pdb
     RDKit          3D

 26 26  0  0  1  0  0  0  0  0999 V2000
   19.4907   -9.9713  -20.1939 C   0  0  0  0  0  0  0  0  0  0  0  0
   18.9392  -11.2923  -19.7076 C   0  0  1  0  0  0  0  0  0  0  0  0
   18.7016  -12.1665  -20.7584 O   0  0  0  0  0  0  0  0  0  0  0  0
   19.8835  -11.9187  -18.6784 C   0  0  2  0  0  0  0  0  0  0  0  0
   19.3388  -13.2212  -18.2806 N   0  0  0  0  0  0  0  0  0  0  0  0
   19.9483  -11.0680  -17.4618 C   0  0  0  0  0  0  0  0  0  0  0  0
   18.9323  -10.9245  -16.7143 O   0  0  0  0  0  0  0  0  0  0  0  0
   24.0697  -11.3898  -14.3183 C   0  0  0  0  0  0  0  0  0  0  0  0
   22.7144  -11.1571  -14.9073 C   0  0  0  0  0  0  0  0  0  0  0  0
   22.4922   -9.6719  -15.2307 C   0  0  2  0  0  0  0  0  0  0  0  0
   22.7341   -8.8333  -14.0235 C   0  0  0  0  0  0  0  0  0  0  0  0
   21.1675   -9.4710  -15.9121 C   0  0  2  0  0  0  0  0  0  0  0  0
   21.1195  -10.3789  -17.0668 N   0  0  0  0  0  0  0  0  0  0  0  0
   20.9402   -8.1054  -16.4172 C   0  0  0  0  0  0  0  0  0  0  0  0
   21.9219   -7.4316  -16.8843 O   0  0  0  0  0  0  0  0  0  0  0  0
   19.6946   -7.4450  -16.4384 N   0  0  0  0  0  0  0  0  0  0  0  0
   19.5702   -6.0681  -16.8883 C   0  0  1  0  0  0  0  0  0  0  0  0
   18.7357   -6.0342  -18.1475 C   0  0  0  0  0  0  0  0  0  0  0  0
   18.5518   -4.6531  -18.6287 C   0  0  0  0  0  0  0  0  0  0  0  0
   19.5277   -3.7232  -18.9215 C   0  0  0  0  0  0  0  0  0  0  0  0
   18.9649   -2.5688  -19.3186 N   0  0  0  0  0  0  0  0  0  0  0  0
   17.6425   -2.7618  -19.2789 C   0  0  0  0  0  0  0  0  0  0  0  0
   17.3811   -4.0108  -18.8657 N   0  0  0  0  0  0  0  0  0  0  0  0
   18.9799   -5.2475  -15.8204 C   0  0  0  0  0  0  0  0  0  0  0  0
   19.1857   -3.8867  -15.6573 O   0  0  0  0  0  0  0  0  0  0  0  0
   18.2199   -5.7821  -14.9606 O   0  0  0  0  0  0  0  0  0  0  0  0
  2  1  1  6
  3  2  1  0
  4  2  1  0
  4  6  1  0
  4  5  1  1
  6 13  1  0
  6  7  2  0
  9  8  1  0
 10  9  1  0
 10 11  1  1
 12 10  1  0
 12 13  1  6
 14 12  1  0
 14 15  2  0
 16 14  1  0
 17 16  1  0
 17 18  1  6
 18 19  1  0
 19 20  2  0
 19 23  1  0
 20 21  1  0
 21 22  1  0
 23 22  2  0
 24 17  1  0
 25 24  1  0
 26 24  2  0
M  END
$$$$
