TIH.pdb
     RDKit          3D

 26 26  0  0  1  0  0  0  0  0999 V2000
   13.9231  -21.2954    3.4906 C   0  0  0  0  0  0  0  0  0  0  0  0
   14.2150  -21.9713    2.1702 C   0  0  1  0  0  0  0  0  0  0  0  0
   13.0687  -22.1099    1.4010 O   0  0  0  0  0  0  0  0  0  0  0  0
   15.2969  -21.2045    1.4055 C   0  0  2  0  0  0  0  0  0  0  0  0
   15.5067  -21.8634    0.1119 N   0  0  0  0  0  0  0  0  0  0  0  0
   16.5817  -21.2569    2.1502 C   0  0  0  0  0  0  0  0  0  0  0  0
   17.3265  -22.2832    2.0897 O   0  0  0  0  0  0  0  0  0  0  0  0
   21.2286  -18.9655    3.8092 C   0  0  0  0  0  0  0  0  0  0  0  0
   20.0612  -18.7590    4.7214 C   0  0  0  0  0  0  0  0  0  0  0  0
   18.7334  -18.8037    3.9501 C   0  0  2  0  0  0  0  0  0  0  0  0
   17.7085  -17.9606    4.6267 C   0  0  0  0  0  0  0  0  0  0  0  0
   18.3309  -20.2248    3.6711 C   0  0  2  0  0  0  0  0  0  0  0  0
   17.0474  -20.1910    2.9561 N   0  0  0  0  0  0  0  0  0  0  0  0
   18.1419  -21.0545    4.8742 C   0  0  0  0  0  0  0  0  0  0  0  0
   17.1363  -20.8449    5.6363 O   0  0  0  0  0  0  0  0  0  0  0  0
   18.9954  -22.1006    5.2807 N   0  0  0  0  0  0  0  0  0  0  0  0
   18.7706  -22.8296    6.5183 C   0  0  1  0  0  0  0  0  0  0  0  0
   19.3145  -24.2317    6.3706 C   0  0  0  0  0  0  0  0  0  0  0  0
   18.3708  -25.0956    5.6385 C   0  0  0  0  0  0  0  0  0  0  0  0
   17.1133  -24.7707    5.1743 C   0  0  0  0  0  0  0  0  0  0  0  0
   16.5535  -25.8319    4.5682 N   0  0  0  0  0  0  0  0  0  0  0  0
   17.4465  -26.8239    4.6459 C   0  0  0  0  0  0  0  0  0  0  0  0
   18.5434  -26.3941    5.2872 N   0  0  0  0  0  0  0  0  0  0  0  0
   19.4015  -22.1150    7.6380 C   0  0  0  0  0  0  0  0  0  0  0  0
   18.8308  -21.9329    8.8877 O   0  0  0  0  0  0  0  0  0  0  0  0
   20.5534  -21.6096    7.4953 O   0  0  0  0  0  0  0  0  0  0  0  0
  2  1  1  1
  3  2  1  0
  4  2  1  0
  4  6  1  0
  4  5  1  6
  6 13  1  0
  6  7  2  0
  9  8  1  0
 10  9  1  0
 10 11  1  1
 12 10  1  0
 12 13  1  1
 14 12  1  0
 14 15  2  0
 16 14  1  0
 17 16  1  0
 17 18  1  6
 18 19  1  0
 19 20  2  0
 19 23  1  0
 20 21  1  0
 21 22  1  0
 23 22  2  0
 24 17  1  0
 25 24  1  0
 26 24  2  0
M  END
$$$$
