GSF.pdb
     RDKit          3D

 22 22  0  0  1  0  0  0  0  0999 V2000
   28.7674  -23.0928  -15.8694 N   0  0  0  0  0  0  0  0  0  0  0  0
   27.7581  -22.6950  -16.8019 C   0  0  0  0  0  0  0  0  0  0  0  0
   26.8140  -21.7152  -16.2559 C   0  0  0  0  0  0  0  0  0  0  0  0
   26.7916  -21.5312  -15.0115 O   0  0  0  0  0  0  0  0  0  0  0  0
   24.4816  -19.4533  -18.6408 O   0  0  0  0  0  0  0  0  0  0  0  0
   24.5984  -18.8958  -17.3536 C   0  0  0  0  0  0  0  0  0  0  0  0
   25.0251  -20.0077  -16.4297 C   0  0  2  0  0  0  0  0  0  0  0  0
   25.9113  -20.9481  -17.0351 N   0  0  0  0  0  0  0  0  0  0  0  0
   23.7548  -20.6860  -15.9765 C   0  0  0  0  0  0  0  0  0  0  0  0
   23.3110  -21.6533  -16.6434 O   0  0  0  0  0  0  0  0  0  0  0  0
   23.0895  -20.2223  -14.8138 N   0  0  0  0  0  0  0  0  0  0  0  0
   21.8998  -20.8265  -14.2558 C   0  0  1  0  0  0  0  0  0  0  0  0
   22.0418  -21.1642  -12.8176 C   0  0  0  0  0  0  0  0  0  0  0  0
   23.3150  -21.8147  -12.5093 C   0  0  0  0  0  0  0  0  0  0  0  0
   24.3088  -21.0897  -11.8413 C   0  0  0  0  0  0  0  0  0  0  0  0
   25.5143  -21.6674  -11.5123 C   0  0  0  0  0  0  0  0  0  0  0  0
   25.7283  -22.9841  -11.8549 C   0  0  0  0  0  0  0  0  0  0  0  0
   24.7592  -23.7246  -12.5174 C   0  0  0  0  0  0  0  0  0  0  0  0
   23.5610  -23.1310  -12.8380 C   0  0  0  0  0  0  0  0  0  0  0  0
   20.6498  -20.1233  -14.6223 C   0  0  0  0  0  0  0  0  0  0  0  0
   19.5487  -20.6848  -14.4115 O   0  0  0  0  0  0  0  0  0  0  0  0
   20.5776  -18.8657  -15.1916 O   0  0  0  0  0  0  0  0  0  0  0  0
  1  2  1  0
  2  3  1  0
  3  4  2  0
  3  8  1  0
  5  6  1  0
  7  9  1  0
  7  6  1  6
  8  7  1  0
  9 10  2  0
 11 12  1  0
 11  9  1  0
 12 13  1  1
 13 14  1  0
 14 19  2  0
 15 16  2  0
 15 14  1  0
 16 17  1  0
 17 18  2  0
 19 18  1  0
 20 22  1  0
 20 12  1  0
 21 20  2  0
M  END
$$$$
