GSF.pdb
     RDKit          3D

 22 22  0  0  1  0  0  0  0  0999 V2000
   29.3590  -17.9840  -19.9330 N   0  0  0  0  0  0  0  0  0  0  0  0
   29.1786  -18.2833  -18.5458 C   0  0  0  0  0  0  0  0  0  0  0  0
   27.9650  -19.0582  -18.2699 C   0  0  0  0  0  0  0  0  0  0  0  0
   27.2119  -19.3580  -19.2322 O   0  0  0  0  0  0  0  0  0  0  0  0
   27.2371  -22.6154  -16.4344 O   0  0  0  0  0  0  0  0  0  0  0  0
   26.7479  -21.7701  -17.4479 C   0  0  0  0  0  0  0  0  0  0  0  0
   26.4951  -20.4255  -16.8153 C   0  0  2  0  0  0  0  0  0  0  0  0
   27.5699  -19.5018  -16.9825 N   0  0  0  0  0  0  0  0  0  0  0  0
   26.2434  -20.6925  -15.3509 C   0  0  0  0  0  0  0  0  0  0  0  0
   27.2250  -20.7995  -14.5749 O   0  0  0  0  0  0  0  0  0  0  0  0
   24.9119  -20.8171  -14.8804 N   0  0  0  0  0  0  0  0  0  0  0  0
   24.5490  -21.0202  -13.4952 C   0  0  1  0  0  0  0  0  0  0  0  0
   25.0778  -19.9637  -12.5970 C   0  0  0  0  0  0  0  0  0  0  0  0
   24.8161  -20.2354  -11.1838 C   0  0  0  0  0  0  0  0  0  0  0  0
   23.5264  -20.0367  -10.6771 C   0  0  0  0  0  0  0  0  0  0  0  0
   23.2294  -20.2992   -9.3587 C   0  0  0  0  0  0  0  0  0  0  0  0
   24.2327  -20.7655   -8.5384 C   0  0  0  0  0  0  0  0  0  0  0  0
   25.5195  -20.9709   -9.0164 C   0  0  0  0  0  0  0  0  0  0  0  0
   25.7979  -20.7032  -10.3361 C   0  0  0  0  0  0  0  0  0  0  0  0
   23.1224  -21.3639  -13.3001 C   0  0  0  0  0  0  0  0  0  0  0  0
   22.2480  -20.7217  -13.9287 O   0  0  0  0  0  0  0  0  0  0  0  0
   22.6466  -22.3580  -12.4658 O   0  0  0  0  0  0  0  0  0  0  0  0
  1  2  1  0
  2  3  1  0
  3  4  2  0
  3  8  1  0
  5  6  1  0
  7  9  1  0
  7  6  1  6
  8  7  1  0
  9 10  2  0
 11 12  1  0
 11  9  1  0
 12 13  1  1
 13 14  1  0
 14 19  2  0
 15 16  2  0
 15 14  1  0
 16 17  1  0
 17 18  2  0
 19 18  1  0
 20 22  1  0
 20 12  1  0
 21 20  2  0
M  END
$$$$
