GSF.pdb
     RDKit          3D

 22 22  0  0  1  0  0  0  0  0999 V2000
   28.2009  -21.4343  -16.0033 N   0  0  0  0  0  0  0  0  0  0  0  0
   26.8354  -21.5803  -15.6029 C   0  0  0  0  0  0  0  0  0  0  0  0
   26.5110  -20.8633  -14.3659 C   0  0  0  0  0  0  0  0  0  0  0  0
   26.6681  -19.6154  -14.3359 O   0  0  0  0  0  0  0  0  0  0  0  0
   23.6375  -19.7257  -13.0632 O   0  0  0  0  0  0  0  0  0  0  0  0
   24.0307  -20.6117  -12.0426 C   0  0  0  0  0  0  0  0  0  0  0  0
   25.5345  -20.7011  -12.0930 C   0  0  2  0  0  0  0  0  0  0  0  0
   26.0267  -21.4784  -13.1837 N   0  0  0  0  0  0  0  0  0  0  0  0
   25.9627  -21.2994  -10.7747 C   0  0  0  0  0  0  0  0  0  0  0  0
   25.8925  -22.5438  -10.6205 O   0  0  0  0  0  0  0  0  0  0  0  0
   26.4333  -20.4515   -9.7406 N   0  0  0  0  0  0  0  0  0  0  0  0
   26.8303  -20.9065   -8.4263 C   0  0  1  0  0  0  0  0  0  0  0  0
   28.1863  -20.4445   -8.0386 C   0  0  0  0  0  0  0  0  0  0  0  0
   28.2762  -20.0649   -6.6289 C   0  0  0  0  0  0  0  0  0  0  0  0
   28.8437  -20.9604   -5.7149 C   0  0  0  0  0  0  0  0  0  0  0  0
   28.9679  -20.6372   -4.3825 C   0  0  0  0  0  0  0  0  0  0  0  0
   28.5197  -19.4055   -3.9595 C   0  0  0  0  0  0  0  0  0  0  0  0
   27.9533  -18.4998   -4.8457 C   0  0  0  0  0  0  0  0  0  0  0  0
   27.8374  -18.8398   -6.1731 C   0  0  0  0  0  0  0  0  0  0  0  0
   25.7815  -20.7317   -7.3964 C   0  0  0  0  0  0  0  0  0  0  0  0
   25.8098  -21.4486   -6.3681 O   0  0  0  0  0  0  0  0  0  0  0  0
   24.7414  -19.8236   -7.4608 O   0  0  0  0  0  0  0  0  0  0  0  0
  1  2  1  0
  2  3  1  0
  3  4  2  0
  3  8  1  0
  5  6  1  0
  7  9  1  0
  7  6  1  1
  8  7  1  0
  9 10  2  0
 11 12  1  0
 11  9  1  0
 12 13  1  1
 13 14  1  0
 14 19  2  0
 15 16  2  0
 15 14  1  0
 16 17  1  0
 17 18  2  0
 19 18  1  0
 20 22  1  0
 20 12  1  0
 21 20  2  0
M  END
$$$$
