GSF.pdb
     RDKit          3D

 22 22  0  0  1  0  0  0  0  0999 V2000
   19.4836  -12.7204  -16.6924 N   0  0  0  0  0  0  0  0  0  0  0  0
   20.3959  -11.9271  -17.4570 C   0  0  0  0  0  0  0  0  0  0  0  0
   20.2153  -10.4848  -17.2662 C   0  0  0  0  0  0  0  0  0  0  0  0
   21.2308   -9.7427  -17.2981 O   0  0  0  0  0  0  0  0  0  0  0  0
   16.6163   -8.6596  -16.3250 O   0  0  0  0  0  0  0  0  0  0  0  0
   17.4501   -7.9244  -17.1882 C   0  0  0  0  0  0  0  0  0  0  0  0
   18.8542   -8.4323  -16.9819 C   0  0  2  0  0  0  0  0  0  0  0  0
   18.9651   -9.8535  -17.0451 N   0  0  0  0  0  0  0  0  0  0  0  0
   19.2893   -7.9222  -15.6292 C   0  0  0  0  0  0  0  0  0  0  0  0
   19.1184   -8.6512  -14.6209 O   0  0  0  0  0  0  0  0  0  0  0  0
   19.8793   -6.6377  -15.5216 N   0  0  0  0  0  0  0  0  0  0  0  0
   20.3394   -6.0497  -14.2829 C   0  0  1  0  0  0  0  0  0  0  0  0
   21.5941   -6.6633  -13.7814 C   0  0  0  0  0  0  0  0  0  0  0  0
   22.7421   -6.4000  -14.6488 C   0  0  0  0  0  0  0  0  0  0  0  0
   23.2817   -7.4472  -15.4049 C   0  0  0  0  0  0  0  0  0  0  0  0
   24.3485   -7.2409  -16.2503 C   0  0  0  0  0  0  0  0  0  0  0  0
   24.8813   -5.9741  -16.3405 C   0  0  0  0  0  0  0  0  0  0  0  0
   24.3645   -4.9190  -15.6015 C   0  0  0  0  0  0  0  0  0  0  0  0
   23.2987   -5.1436  -14.7621 C   0  0  0  0  0  0  0  0  0  0  0  0
   20.3124   -4.5696  -14.2831 C   0  0  0  0  0  0  0  0  0  0  0  0
   20.1297   -3.9622  -15.3646 O   0  0  0  0  0  0  0  0  0  0  0  0
   20.4728   -3.7671  -13.1691 O   0  0  0  0  0  0  0  0  0  0  0  0
  1  2  1  0
  2  3  1  0
  3  4  2  0
  3  8  1  0
  5  6  1  0
  7  9  1  0
  7  6  1  1
  8  7  1  0
  9 10  2  0
 11 12  1  0
 11  9  1  0
 12 13  1  6
 13 14  1  0
 14 19  2  0
 15 16  2  0
 15 14  1  0
 16 17  1  0
 17 18  2  0
 19 18  1  0
 20 22  1  0
 20 12  1  0
 21 20  2  0
M  END
$$$$
