GSF.pdb
     RDKit          3D

 22 22  0  0  1  0  0  0  0  0999 V2000
   18.9996  -12.6705  -17.4868 N   0  0  0  0  0  0  0  0  0  0  0  0
   18.7678  -11.6826  -16.4784 C   0  0  0  0  0  0  0  0  0  0  0  0
   19.1017  -10.3215  -16.9086 C   0  0  0  0  0  0  0  0  0  0  0  0
   19.3932  -10.1278  -18.1171 O   0  0  0  0  0  0  0  0  0  0  0  0
   17.1488   -7.3335  -16.3094 O   0  0  0  0  0  0  0  0  0  0  0  0
   18.2305   -7.2087  -17.2012 C   0  0  0  0  0  0  0  0  0  0  0  0
   19.4123   -7.8871  -16.5570 C   0  0  2  0  0  0  0  0  0  0  0  0
   19.1214   -9.1903  -16.0539 N   0  0  0  0  0  0  0  0  0  0  0  0
   19.8639   -6.9732  -15.4435 C   0  0  0  0  0  0  0  0  0  0  0  0
   19.3121   -7.0664  -14.3191 O   0  0  0  0  0  0  0  0  0  0  0  0
   20.8960   -6.0319  -15.6849 N   0  0  0  0  0  0  0  0  0  0  0  0
   21.4892   -5.1895  -14.6699 C   0  0  1  0  0  0  0  0  0  0  0  0
   22.9516   -5.3977  -14.5265 C   0  0  0  0  0  0  0  0  0  0  0  0
   23.3184   -6.8107  -14.4345 C   0  0  0  0  0  0  0  0  0  0  0  0
   22.8078   -7.5823  -13.3841 C   0  0  0  0  0  0  0  0  0  0  0  0
   23.1094   -8.9206  -13.2697 C   0  0  0  0  0  0  0  0  0  0  0  0
   23.9302   -9.4935  -14.2157 C   0  0  0  0  0  0  0  0  0  0  0  0
   24.4493   -8.7503  -15.2667 C   0  0  0  0  0  0  0  0  0  0  0  0
   24.1373   -7.4146  -15.3650 C   0  0  0  0  0  0  0  0  0  0  0  0
   21.0533   -3.7767  -14.7426 C   0  0  0  0  0  0  0  0  0  0  0  0
   20.5673   -3.3418  -15.8135 O   0  0  0  0  0  0  0  0  0  0  0  0
   21.1315   -2.8618  -13.7093 O   0  0  0  0  0  0  0  0  0  0  0  0
  1  2  1  0
  2  3  1  0
  3  4  2  0
  3  8  1  0
  5  6  1  0
  7  9  1  0
  7  6  1  1
  8  7  1  0
  9 10  2  0
 11 12  1  0
 11  9  1  0
 12 13  1  6
 13 14  1  0
 14 19  2  0
 15 16  2  0
 15 14  1  0
 16 17  1  0
 17 18  2  0
 19 18  1  0
 20 22  1  0
 20 12  1  0
 21 20  2  0
M  END
$$$$
