GSF.pdb
     RDKit          3D

 22 22  0  0  1  0  0  0  0  0999 V2000
   17.1694   -7.0367  -20.6824 N   0  0  0  0  0  0  0  0  0  0  0  0
   18.4326   -6.6070  -21.1984 C   0  0  0  0  0  0  0  0  0  0  0  0
   19.3552   -6.1347  -20.1616 C   0  0  0  0  0  0  0  0  0  0  0  0
   20.5861   -6.1056  -20.4207 O   0  0  0  0  0  0  0  0  0  0  0  0
   18.2303   -5.0814  -16.3041 O   0  0  0  0  0  0  0  0  0  0  0  0
   19.3166   -4.3648  -16.8401 C   0  0  0  0  0  0  0  0  0  0  0  0
   19.9158   -5.2214  -17.9261 C   0  0  2  0  0  0  0  0  0  0  0  0
   18.9601   -5.7018  -18.8705 N   0  0  0  0  0  0  0  0  0  0  0  0
   20.5976   -6.3710  -17.2241 C   0  0  0  0  0  0  0  0  0  0  0  0
   19.9132   -7.3677  -16.8844 O   0  0  0  0  0  0  0  0  0  0  0  0
   21.9893   -6.3056  -16.9623 N   0  0  0  0  0  0  0  0  0  0  0  0
   22.7386   -7.3239  -16.2597 C   0  0  1  0  0  0  0  0  0  0  0  0
   23.8388   -7.8983  -17.0734 C   0  0  0  0  0  0  0  0  0  0  0  0
   24.5456   -8.9814  -16.3901 C   0  0  0  0  0  0  0  0  0  0  0  0
   25.8236   -8.7429  -15.8712 C   0  0  0  0  0  0  0  0  0  0  0  0
   26.5171   -9.7263  -15.2025 C   0  0  0  0  0  0  0  0  0  0  0  0
   25.9265  -10.9613  -15.0512 C   0  0  0  0  0  0  0  0  0  0  0  0
   24.6605  -11.2231  -15.5564 C   0  0  0  0  0  0  0  0  0  0  0  0
   23.9825  -10.2287  -16.2216 C   0  0  0  0  0  0  0  0  0  0  0  0
   23.1039   -6.9432  -14.8766 C   0  0  0  0  0  0  0  0  0  0  0  0
   23.6328   -5.8252  -14.6704 O   0  0  0  0  0  0  0  0  0  0  0  0
   22.9101   -7.7265  -13.7543 O   0  0  0  0  0  0  0  0  0  0  0  0
  1  2  1  0
  2  3  1  0
  3  4  2  0
  3  8  1  0
  5  6  1  0
  7  9  1  0
  7  6  1  1
  8  7  1  0
  9 10  2  0
 11 12  1  0
 11  9  1  0
 12 13  1  6
 13 14  1  0
 14 19  2  0
 15 16  2  0
 15 14  1  0
 16 17  1  0
 17 18  2  0
 19 18  1  0
 20 22  1  0
 20 12  1  0
 21 20  2  0
M  END
$$$$
