GSF.pdb
     RDKit          3D

 22 22  0  0  1  0  0  0  0  0999 V2000
   18.2650   -7.3434  -15.8594 N   0  0  0  0  0  0  0  0  0  0  0  0
   18.5651   -8.5123  -15.0912 C   0  0  0  0  0  0  0  0  0  0  0  0
   17.4450   -9.4539  -15.0013 C   0  0  0  0  0  0  0  0  0  0  0  0
   16.2835   -9.0298  -15.2334 O   0  0  0  0  0  0  0  0  0  0  0  0
   17.7091  -13.4184  -13.6366 O   0  0  0  0  0  0  0  0  0  0  0  0
   16.7241  -13.1308  -14.6001 C   0  0  0  0  0  0  0  0  0  0  0  0
   16.4256  -11.6569  -14.4975 C   0  0  2  0  0  0  0  0  0  0  0  0
   17.5731  -10.8261  -14.6677 N   0  0  0  0  0  0  0  0  0  0  0  0
   15.8123  -11.4479  -13.1340 C   0  0  0  0  0  0  0  0  0  0  0  0
   16.3023  -10.5761  -12.3742 O   0  0  0  0  0  0  0  0  0  0  0  0
   14.7013  -12.2342  -12.7376 N   0  0  0  0  0  0  0  0  0  0  0  0
   13.9305  -12.0137  -11.5338 C   0  0  1  0  0  0  0  0  0  0  0  0
   13.4645  -10.6118  -11.3932 C   0  0  0  0  0  0  0  0  0  0  0  0
   12.6451  -10.4019  -10.1998 C   0  0  0  0  0  0  0  0  0  0  0  0
   11.3142  -10.8358  -10.1996 C   0  0  0  0  0  0  0  0  0  0  0  0
   10.5124  -10.6780   -9.0918 C   0  0  0  0  0  0  0  0  0  0  0  0
   11.0471  -10.0801   -7.9721 C   0  0  0  0  0  0  0  0  0  0  0  0
   12.3636   -9.6414   -7.9468 C   0  0  0  0  0  0  0  0  0  0  0  0
   13.1499   -9.8072   -9.0628 C   0  0  0  0  0  0  0  0  0  0  0  0
   12.9039  -13.0516  -11.2886 C   0  0  0  0  0  0  0  0  0  0  0  0
   12.1647  -13.4150  -12.2340 O   0  0  0  0  0  0  0  0  0  0  0  0
   12.6757  -13.6800  -10.0787 O   0  0  0  0  0  0  0  0  0  0  0  0
  1  2  1  0
  2  3  1  0
  3  4  2  0
  3  8  1  0
  5  6  1  0
  7  9  1  0
  7  6  1  1
  8  7  1  0
  9 10  2  0
 11 12  1  0
 11  9  1  0
 12 13  1  6
 13 14  1  0
 14 19  2  0
 15 16  2  0
 15 14  1  0
 16 17  1  0
 17 18  2  0
 19 18  1  0
 20 22  1  0
 20 12  1  0
 21 20  2  0
M  END
$$$$
