GSF.pdb
     RDKit          3D

 22 22  0  0  1  0  0  0  0  0999 V2000
   28.3464  -21.4711  -15.4603 N   0  0  0  0  0  0  0  0  0  0  0  0
   27.1290  -21.8343  -14.8027 C   0  0  0  0  0  0  0  0  0  0  0  0
   26.8840  -21.0778  -13.5710 C   0  0  0  0  0  0  0  0  0  0  0  0
   27.8642  -20.5499  -12.9851 O   0  0  0  0  0  0  0  0  0  0  0  0
   23.2450  -20.9299  -11.6512 O   0  0  0  0  0  0  0  0  0  0  0  0
   24.0214  -19.7685  -11.4796 C   0  0  0  0  0  0  0  0  0  0  0  0
   25.4502  -20.1468  -11.7756 C   0  0  2  0  0  0  0  0  0  0  0  0
   25.6077  -20.8933  -12.9814 N   0  0  0  0  0  0  0  0  0  0  0  0
   25.9266  -20.9458  -10.5866 C   0  0  0  0  0  0  0  0  0  0  0  0
   25.9115  -22.1999  -10.6515 O   0  0  0  0  0  0  0  0  0  0  0  0
   26.3798  -20.2708   -9.4253 N   0  0  0  0  0  0  0  0  0  0  0  0
   26.8042  -20.9290   -8.2093 C   0  0  1  0  0  0  0  0  0  0  0  0
   28.2089  -20.6202   -7.8436 C   0  0  0  0  0  0  0  0  0  0  0  0
   28.3416  -20.1050   -6.4810 C   0  0  0  0  0  0  0  0  0  0  0  0
   28.1521  -18.7382   -6.2457 C   0  0  0  0  0  0  0  0  0  0  0  0
   28.2465  -18.2127   -4.9768 C   0  0  0  0  0  0  0  0  0  0  0  0
   28.5335  -19.0631   -3.9321 C   0  0  0  0  0  0  0  0  0  0  0  0
   28.7258  -20.4220   -4.1389 C   0  0  0  0  0  0  0  0  0  0  0  0
   28.6276  -20.9293   -5.4133 C   0  0  0  0  0  0  0  0  0  0  0  0
   25.8233  -20.8254   -7.1055 C   0  0  0  0  0  0  0  0  0  0  0  0
   25.0317  -19.8533   -7.0810 O   0  0  0  0  0  0  0  0  0  0  0  0
   25.6910  -21.7275   -6.0665 O   0  0  0  0  0  0  0  0  0  0  0  0
  1  2  1  0
  2  3  1  0
  3  4  2  0
  3  8  1  0
  5  6  1  0
  7  9  1  0
  7  6  1  1
  8  7  1  0
  9 10  2  0
 11 12  1  0
 11  9  1  0
 12 13  1  1
 13 14  1  0
 14 19  2  0
 15 16  2  0
 15 14  1  0
 16 17  1  0
 17 18  2  0
 19 18  1  0
 20 22  1  0
 20 12  1  0
 21 20  2  0
M  END
$$$$
