GSF.pdb
     RDKit          3D

 22 22  0  0  1  0  0  0  0  0999 V2000
   15.9266  -10.6715  -11.7091 N   0  0  0  0  0  0  0  0  0  0  0  0
   15.7083   -9.2980  -11.3739 C   0  0  0  0  0  0  0  0  0  0  0  0
   16.3789   -8.3628  -12.2823 C   0  0  0  0  0  0  0  0  0  0  0  0
   17.3410   -8.7838  -12.9750 O   0  0  0  0  0  0  0  0  0  0  0  0
   15.2782   -4.4368  -12.6651 O   0  0  0  0  0  0  0  0  0  0  0  0
   15.9137   -4.9601  -13.8067 C   0  0  0  0  0  0  0  0  0  0  0  0
   16.7161   -6.1536  -13.3554 C   0  0  2  0  0  0  0  0  0  0  0  0
   16.0202   -7.0003  -12.4417 N   0  0  0  0  0  0  0  0  0  0  0  0
   17.9695   -5.5999  -12.7216 C   0  0  0  0  0  0  0  0  0  0  0  0
   18.0014   -5.4400  -11.4764 O   0  0  0  0  0  0  0  0  0  0  0  0
   19.0812   -5.2722  -13.5380 N   0  0  0  0  0  0  0  0  0  0  0  0
   20.3618   -4.8253  -13.0358 C   0  0  1  0  0  0  0  0  0  0  0  0
   21.1609   -5.9200  -12.4312 C   0  0  0  0  0  0  0  0  0  0  0  0
   21.6532   -6.8780  -13.4208 C   0  0  0  0  0  0  0  0  0  0  0  0
   21.2128   -8.2056  -13.3649 C   0  0  0  0  0  0  0  0  0  0  0  0
   21.6334   -9.1364  -14.2879 C   0  0  0  0  0  0  0  0  0  0  0  0
   22.5037   -8.7355  -15.2772 C   0  0  0  0  0  0  0  0  0  0  0  0
   22.9551   -7.4253  -15.3545 C   0  0  0  0  0  0  0  0  0  0  0  0
   22.5244   -6.5091  -14.4239 C   0  0  0  0  0  0  0  0  0  0  0  0
   21.0952   -3.9495  -13.9773 C   0  0  0  0  0  0  0  0  0  0  0  0
   20.7196   -3.8869  -15.1720 O   0  0  0  0  0  0  0  0  0  0  0  0
   22.1885   -3.1674  -13.6550 O   0  0  0  0  0  0  0  0  0  0  0  0
  1  2  1  0
  2  3  1  0
  3  4  2  0
  3  8  1  0
  5  6  1  0
  7  9  1  0
  7  6  1  1
  8  7  1  0
  9 10  2  0
 11 12  1  0
 11  9  1  0
 12 13  1  6
 13 14  1  0
 14 19  2  0
 15 16  2  0
 15 14  1  0
 16 17  1  0
 17 18  2  0
 19 18  1  0
 20 22  1  0
 20 12  1  0
 21 20  2  0
M  END
$$$$
