FYA.pdb
     RDKit          3D

 29 30  0  0  1  0  0  0  0  0999 V2000
   21.7829   -7.6491  -18.6758 N   0  0  0  0  0  0  0  0  0  0  0  0
   21.9645   -6.1989  -18.8517 C   0  0  1  0  0  0  0  0  0  0  0  0
   21.1648   -5.8579  -20.0880 C   0  0  0  0  0  0  0  0  0  0  0  0
   21.7483   -6.3363  -21.3420 C   0  0  0  0  0  0  0  0  0  0  0  0
   21.0241   -7.0721  -22.2631 C   0  0  0  0  0  0  0  0  0  0  0  0
   21.6061   -7.5041  -23.4413 C   0  0  0  0  0  0  0  0  0  0  0  0
   22.9282   -7.1769  -23.6642 C   0  0  0  0  0  0  0  0  0  0  0  0
   23.6623   -6.4400  -22.7469 C   0  0  0  0  0  0  0  0  0  0  0  0
   23.0870   -6.0140  -21.5845 C   0  0  0  0  0  0  0  0  0  0  0  0
   21.4275   -5.4455  -17.7177 C   0  0  0  0  0  0  0  0  0  0  0  0
   20.3338   -5.7683  -17.1877 O   0  0  0  0  0  0  0  0  0  0  0  0
   21.4914   -8.7971  -12.3177 O   0  0  0  0  0  0  0  0  0  0  0  0
   21.7134   -7.5444  -12.9137 C   0  0  0  0  0  0  0  0  0  0  0  0
   22.6780   -7.4419  -13.8847 C   0  0  0  0  0  0  0  0  0  0  0  0
   22.9196   -6.2149  -14.4919 C   0  0  0  0  0  0  0  0  0  0  0  0
   22.2032   -5.0942  -14.1335 C   0  0  0  0  0  0  0  0  0  0  0  0
   22.4488   -3.7832  -14.7703 C   0  0  0  0  0  0  0  0  0  0  0  0
   21.5683   -3.5876  -16.0128 C   0  0  2  0  0  0  0  0  0  0  0  0
   22.0795   -4.3132  -17.1334 N   0  0  0  0  0  0  0  0  0  0  0  0
   21.4071   -2.1341  -16.2854 C   0  0  0  0  0  0  0  0  0  0  0  0
   22.3523   -1.4733  -16.7886 O   0  0  0  0  0  0  0  0  0  0  0  0
   21.2418   -5.2278  -13.1561 C   0  0  0  0  0  0  0  0  0  0  0  0
   20.9832   -6.4371  -12.5377 C   0  0  0  0  0  0  0  0  0  0  0  0
   18.6233    0.4418  -16.1709 C   0  0  0  0  0  0  0  0  0  0  0  0
   20.0834    0.0117  -16.2331 C   0  0  2  0  0  0  0  0  0  0  0  0
   20.2122   -1.4145  -16.0050 N   0  0  0  0  0  0  0  0  0  0  0  0
   20.9116    0.7970  -15.2827 C   0  0  0  0  0  0  0  0  0  0  0  0
   21.4630    2.0311  -15.6000 O   0  0  0  0  0  0  0  0  0  0  0  0
   21.1422    0.3508  -14.1298 O   0  0  0  0  0  0  0  0  0  0  0  0
  2  1  1  1
  3  4  1  0
  3  2  1  0
  4  9  1  0
  4  5  2  0
  5  6  1  0
  6  7  2  0
  8  7  1  0
  9  8  2  0
 10 19  1  0
 10  2  1  0
 11 10  2  0
 12 13  1  0
 13 14  2  0
 14 15  1  0
 16 17  1  0
 16 15  2  0
 18 17  1  1
 18 19  1  0
 20 18  1  0
 21 20  2  0
 22 16  1  0
 23 22  2  0
 23 13  1  0
 25 24  1  1
 25 26  1  0
 26 20  1  0
 27 25  1  0
 27 28  1  0
 29 27  2  0
M  END
$$$$
