FYA.pdb
     RDKit          3D

 29 30  0  0  1  0  0  0  0  0999 V2000
   27.6295  -19.7091  -19.5246 N   0  0  0  0  0  0  0  0  0  0  0  0
   27.0629  -18.8204  -18.4968 C   0  0  1  0  0  0  0  0  0  0  0  0
   25.7248  -18.3917  -19.0537 C   0  0  0  0  0  0  0  0  0  0  0  0
   25.8033  -17.4407  -20.1634 C   0  0  0  0  0  0  0  0  0  0  0  0
   25.5054  -17.7967  -21.4668 C   0  0  0  0  0  0  0  0  0  0  0  0
   25.5852  -16.8704  -22.4911 C   0  0  0  0  0  0  0  0  0  0  0  0
   25.9708  -15.5852  -22.1684 C   0  0  0  0  0  0  0  0  0  0  0  0
   26.2717  -15.2189  -20.8651 C   0  0  0  0  0  0  0  0  0  0  0  0
   26.1925  -16.1338  -19.8549 C   0  0  0  0  0  0  0  0  0  0  0  0
   26.8457  -19.5254  -17.2328 C   0  0  0  0  0  0  0  0  0  0  0  0
   26.6304  -20.7641  -17.2131 O   0  0  0  0  0  0  0  0  0  0  0  0
   25.5503  -21.1017   -8.6105 O   0  0  0  0  0  0  0  0  0  0  0  0
   25.9787  -20.5604   -9.8342 C   0  0  0  0  0  0  0  0  0  0  0  0
   25.4600  -19.3547  -10.2354 C   0  0  0  0  0  0  0  0  0  0  0  0
   25.8655  -18.7949  -11.4416 C   0  0  0  0  0  0  0  0  0  0  0  0
   26.7842  -19.4337  -12.2452 C   0  0  0  0  0  0  0  0  0  0  0  0
   27.2249  -18.8508  -13.5300 C   0  0  0  0  0  0  0  0  0  0  0  0
   26.5628  -19.5543  -14.7234 C   0  0  2  0  0  0  0  0  0  0  0  0
   26.8593  -18.8865  -15.9521 N   0  0  0  0  0  0  0  0  0  0  0  0
   25.1028  -19.6915  -14.4734 C   0  0  0  0  0  0  0  0  0  0  0  0
   24.6828  -20.4503  -13.5616 O   0  0  0  0  0  0  0  0  0  0  0  0
   27.2872  -20.6422  -11.8164 C   0  0  0  0  0  0  0  0  0  0  0  0
   26.8995  -21.2189  -10.6210 C   0  0  0  0  0  0  0  0  0  0  0  0
   22.0211  -17.7263  -15.3040 C   0  0  0  0  0  0  0  0  0  0  0  0
   22.7061  -19.0171  -14.8734 C   0  0  2  0  0  0  0  0  0  0  0  0
   24.1131  -18.9971  -15.2233 N   0  0  0  0  0  0  0  0  0  0  0  0
   22.0154  -20.2026  -15.4422 C   0  0  0  0  0  0  0  0  0  0  0  0
   20.7283  -20.5755  -15.0786 O   0  0  0  0  0  0  0  0  0  0  0  0
   22.5964  -20.9221  -16.2943 O   0  0  0  0  0  0  0  0  0  0  0  0
  2  1  1  6
  3  4  1  0
  3  2  1  0
  4  9  1  0
  4  5  2  0
  5  6  1  0
  6  7  2  0
  8  7  1  0
  9  8  2  0
 10 19  1  0
 10  2  1  0
 11 10  2  0
 12 13  1  0
 13 14  2  0
 14 15  1  0
 16 17  1  0
 16 15  2  0
 18 17  1  1
 18 19  1  0
 20 18  1  0
 21 20  2  0
 22 16  1  0
 23 22  2  0
 23 13  1  0
 25 24  1  6
 25 26  1  0
 26 20  1  0
 27 25  1  0
 27 28  1  0
 29 27  2  0
M  END
$$$$
