FYA.pdb
     RDKit          3D

 29 30  0  0  1  0  0  0  0  0999 V2000
   26.3862  -35.9343  -14.3238 N   0  0  0  0  0  0  0  0  0  0  0  0
   25.7402  -34.7937  -13.6537 C   0  0  1  0  0  0  0  0  0  0  0  0
   24.2790  -34.9075  -14.0230 C   0  0  0  0  0  0  0  0  0  0  0  0
   23.9812  -34.6194  -15.4266 C   0  0  0  0  0  0  0  0  0  0  0  0
   24.2007  -33.3752  -15.9905 C   0  0  0  0  0  0  0  0  0  0  0  0
   23.9125  -33.1392  -17.3227 C   0  0  0  0  0  0  0  0  0  0  0  0
   23.4007  -34.1835  -18.0656 C   0  0  0  0  0  0  0  0  0  0  0  0
   23.1771  -35.4341  -17.5093 C   0  0  0  0  0  0  0  0  0  0  0  0
   23.4619  -35.6661  -16.1945 C   0  0  0  0  0  0  0  0  0  0  0  0
   25.8687  -34.8784  -12.1983 C   0  0  0  0  0  0  0  0  0  0  0  0
   26.0729  -35.9820  -11.6312 O   0  0  0  0  0  0  0  0  0  0  0  0
   27.2205  -32.8517   -3.7257 O   0  0  0  0  0  0  0  0  0  0  0  0
   27.0970  -32.8011   -5.1243 C   0  0  0  0  0  0  0  0  0  0  0  0
   26.1548  -31.9652   -5.6696 C   0  0  0  0  0  0  0  0  0  0  0  0
   26.0100  -31.8945   -7.0504 C   0  0  0  0  0  0  0  0  0  0  0  0
   26.8007  -32.6534   -7.8851 C   0  0  0  0  0  0  0  0  0  0  0  0
   26.6584  -32.5887   -9.3548 C   0  0  0  0  0  0  0  0  0  0  0  0
   25.9304  -33.8238   -9.9044 C   0  0  2  0  0  0  0  0  0  0  0  0
   25.7762  -33.7493  -11.3237 N   0  0  0  0  0  0  0  0  0  0  0  0
   24.6391  -34.0009   -9.1874 C   0  0  0  0  0  0  0  0  0  0  0  0
   23.7045  -33.1737   -9.3479 O   0  0  0  0  0  0  0  0  0  0  0  0
   27.7375  -33.4830   -7.3090 C   0  0  0  0  0  0  0  0  0  0  0  0
   27.9002  -33.5706   -5.9387 C   0  0  0  0  0  0  0  0  0  0  0  0
   22.8152  -36.7376   -7.4006 C   0  0  0  0  0  0  0  0  0  0  0  0
   23.1065  -35.2600   -7.6302 C   0  0  2  0  0  0  0  0  0  0  0  0
   24.3802  -35.0824   -8.2999 N   0  0  0  0  0  0  0  0  0  0  0  0
   23.0453  -34.5001   -6.3556 C   0  0  0  0  0  0  0  0  0  0  0  0
   21.9813  -33.6751   -6.0164 O   0  0  0  0  0  0  0  0  0  0  0  0
   23.9850  -34.5868   -5.5243 O   0  0  0  0  0  0  0  0  0  0  0  0
  2  1  1  6
  3  4  1  0
  3  2  1  0
  4  9  1  0
  4  5  2  0
  5  6  1  0
  6  7  2  0
  8  7  1  0
  9  8  2  0
 10 19  1  0
 10  2  1  0
 11 10  2  0
 12 13  1  0
 13 14  2  0
 14 15  1  0
 16 17  1  0
 16 15  2  0
 18 17  1  1
 18 19  1  0
 20 18  1  0
 21 20  2  0
 22 16  1  0
 23 22  2  0
 23 13  1  0
 25 24  1  1
 25 26  1  0
 26 20  1  0
 27 25  1  0
 27 28  1  0
 29 27  2  0
M  END
$$$$
