FYA.pdb
     RDKit          3D

 29 30  0  0  1  0  0  0  0  0999 V2000
   27.9894  -20.6576  -14.3681 N   0  0  0  0  0  0  0  0  0  0  0  0
   27.0947  -20.8891  -13.2222 C   0  0  1  0  0  0  0  0  0  0  0  0
   27.6806  -20.0597  -12.1027 C   0  0  0  0  0  0  0  0  0  0  0  0
   28.8250  -20.6715  -11.4260 C   0  0  0  0  0  0  0  0  0  0  0  0
   28.6770  -21.5515  -10.3687 C   0  0  0  0  0  0  0  0  0  0  0  0
   29.7812  -22.1155   -9.7553 C   0  0  0  0  0  0  0  0  0  0  0  0
   31.0293  -21.7709  -10.2328 C   0  0  0  0  0  0  0  0  0  0  0  0
   31.1877  -20.8896  -11.2918 C   0  0  0  0  0  0  0  0  0  0  0  0
   30.0975  -20.3336  -11.8967 C   0  0  0  0  0  0  0  0  0  0  0  0
   25.7348  -20.4226  -13.4953 C   0  0  0  0  0  0  0  0  0  0  0  0
   25.5104  -19.2190  -13.7824 O   0  0  0  0  0  0  0  0  0  0  0  0
   25.4499  -18.1202  -19.1300 O   0  0  0  0  0  0  0  0  0  0  0  0
   24.8205  -18.9120  -18.1549 C   0  0  0  0  0  0  0  0  0  0  0  0
   23.6451  -18.4645  -17.6054 C   0  0  0  0  0  0  0  0  0  0  0  0
   23.0001  -19.2270  -16.6384 C   0  0  0  0  0  0  0  0  0  0  0  0
   23.5237  -20.4306  -16.2202 C   0  0  0  0  0  0  0  0  0  0  0  0
   22.8491  -21.2522  -15.1933 C   0  0  0  0  0  0  0  0  0  0  0  0
   23.2578  -20.8276  -13.7755 C   0  0  2  0  0  0  0  0  0  0  0  0
   24.5806  -21.2683  -13.4603 N   0  0  0  0  0  0  0  0  0  0  0  0
   22.2390  -21.3013  -12.8005 C   0  0  0  0  0  0  0  0  0  0  0  0
   22.2266  -22.5032  -12.4278 O   0  0  0  0  0  0  0  0  0  0  0  0
   24.7044  -20.8538  -16.7897 C   0  0  0  0  0  0  0  0  0  0  0  0
   25.3644  -20.1133  -17.7529 C   0  0  0  0  0  0  0  0  0  0  0  0
   19.8013  -19.8008  -10.3708 C   0  0  0  0  0  0  0  0  0  0  0  0
   20.2562  -20.9294  -11.2873 C   0  0  2  0  0  0  0  0  0  0  0  0
   21.2409  -20.4560  -12.2407 N   0  0  0  0  0  0  0  0  0  0  0  0
   19.0978  -21.5661  -11.9646 C   0  0  0  0  0  0  0  0  0  0  0  0
   18.8590  -21.4480  -13.3273 O   0  0  0  0  0  0  0  0  0  0  0  0
   18.2775  -22.2501  -11.3008 O   0  0  0  0  0  0  0  0  0  0  0  0
  2  1  1  6
  3  4  1  0
  3  2  1  0
  4  9  1  0
  4  5  2  0
  5  6  1  0
  6  7  2  0
  8  7  1  0
  9  8  2  0
 10 19  1  0
 10  2  1  0
 11 10  2  0
 12 13  1  0
 13 14  2  0
 14 15  1  0
 16 17  1  0
 16 15  2  0
 18 17  1  6
 18 19  1  0
 20 18  1  0
 21 20  2  0
 22 16  1  0
 23 22  2  0
 23 13  1  0
 25 24  1  6
 25 26  1  0
 26 20  1  0
 27 25  1  0
 27 28  1  0
 29 27  2  0
M  END
$$$$
