FYA.pdb
     RDKit          3D

 29 30  0  0  1  0  0  0  0  0999 V2000
   24.5673   -8.6932  -18.6395 N   0  0  0  0  0  0  0  0  0  0  0  0
   23.5394   -8.3839  -17.6320 C   0  0  1  0  0  0  0  0  0  0  0  0
   24.3162   -7.9527  -16.4093 C   0  0  0  0  0  0  0  0  0  0  0  0
   25.0840   -9.0206  -15.7675 C   0  0  0  0  0  0  0  0  0  0  0  0
   24.4838  -10.0192  -15.0214 C   0  0  0  0  0  0  0  0  0  0  0  0
   25.2401  -11.0167  -14.4326 C   0  0  0  0  0  0  0  0  0  0  0  0
   26.6076  -10.9804  -14.6147 C   0  0  0  0  0  0  0  0  0  0  0  0
   27.2184   -9.9835  -15.3606 C   0  0  0  0  0  0  0  0  0  0  0  0
   26.4711   -8.9995  -15.9414 C   0  0  0  0  0  0  0  0  0  0  0  0
   22.6784   -7.2804  -18.0594 C   0  0  0  0  0  0  0  0  0  0  0  0
   23.1569   -6.2807  -18.6534 O   0  0  0  0  0  0  0  0  0  0  0  0
   23.2076   -7.0809  -24.0286 O   0  0  0  0  0  0  0  0  0  0  0  0
   22.3352   -7.0032  -22.9301 C   0  0  0  0  0  0  0  0  0  0  0  0
   21.6718   -5.8236  -22.7016 C   0  0  0  0  0  0  0  0  0  0  0  0
   20.8023   -5.7176  -21.6221 C   0  0  0  0  0  0  0  0  0  0  0  0
   20.5942   -6.7826  -20.7734 C   0  0  0  0  0  0  0  0  0  0  0  0
   19.6727   -6.6849  -19.6219 C   0  0  0  0  0  0  0  0  0  0  0  0
   20.4042   -6.2222  -18.3537 C   0  0  2  0  0  0  0  0  0  0  0  0
   21.2636   -7.2451  -17.8451 N   0  0  0  0  0  0  0  0  0  0  0  0
   19.4126   -5.7447  -17.3529 C   0  0  0  0  0  0  0  0  0  0  0  0
   18.8841   -6.5531  -16.5463 O   0  0  0  0  0  0  0  0  0  0  0  0
   21.2738   -7.9535  -21.0279 C   0  0  0  0  0  0  0  0  0  0  0  0
   22.1436   -8.0831  -22.0948 C   0  0  0  0  0  0  0  0  0  0  0  0
   16.7416   -4.8436  -16.4316 C   0  0  0  0  0  0  0  0  0  0  0  0
   17.9698   -3.9483  -16.3278 C   0  0  2  0  0  0  0  0  0  0  0  0
   19.0067   -4.3855  -17.2423 N   0  0  0  0  0  0  0  0  0  0  0  0
   18.4638   -3.8809  -14.9288 C   0  0  0  0  0  0  0  0  0  0  0  0
   17.6927   -3.4074  -13.8757 O   0  0  0  0  0  0  0  0  0  0  0  0
   19.6298   -4.2629  -14.6529 O   0  0  0  0  0  0  0  0  0  0  0  0
  2  1  1  6
  3  4  1  0
  3  2  1  0
  4  9  1  0
  4  5  2  0
  5  6  1  0
  6  7  2  0
  8  7  1  0
  9  8  2  0
 10 19  1  0
 10  2  1  0
 11 10  2  0
 12 13  1  0
 13 14  2  0
 14 15  1  0
 16 17  1  0
 16 15  2  0
 18 17  1  6
 18 19  1  0
 20 18  1  0
 21 20  2  0
 22 16  1  0
 23 22  2  0
 23 13  1  0
 25 24  1  1
 25 26  1  0
 26 20  1  0
 27 25  1  0
 27 28  1  0
 29 27  2  0
M  END
$$$$
