FYA.pdb
     RDKit          3D

 29 30  0  0  1  0  0  0  0  0999 V2000
   25.9733  -19.3344  -18.0325 N   0  0  0  0  0  0  0  0  0  0  0  0
   24.6682  -18.8960  -17.5112 C   0  0  1  0  0  0  0  0  0  0  0  0
   23.7697  -18.8348  -18.7249 C   0  0  0  0  0  0  0  0  0  0  0  0
   24.1006  -17.7718  -19.6749 C   0  0  0  0  0  0  0  0  0  0  0  0
   24.6106  -18.0353  -20.9337 C   0  0  0  0  0  0  0  0  0  0  0  0
   24.9076  -17.0057  -21.8086 C   0  0  0  0  0  0  0  0  0  0  0  0
   24.6784  -15.7130  -21.3833 C   0  0  0  0  0  0  0  0  0  0  0  0
   24.1677  -15.4389  -20.1234 C   0  0  0  0  0  0  0  0  0  0  0  0
   23.8748  -16.4556  -19.2607 C   0  0  0  0  0  0  0  0  0  0  0  0
   24.1143  -19.8607  -16.5602 C   0  0  0  0  0  0  0  0  0  0  0  0
   24.3545  -21.0899  -16.6735 O   0  0  0  0  0  0  0  0  0  0  0  0
   28.9075  -21.2366  -12.5306 O   0  0  0  0  0  0  0  0  0  0  0  0
   27.5484  -20.9095  -12.6703 C   0  0  0  0  0  0  0  0  0  0  0  0
   26.6087  -21.8279  -12.2737 C   0  0  0  0  0  0  0  0  0  0  0  0
   25.2563  -21.5316  -12.4001 C   0  0  0  0  0  0  0  0  0  0  0  0
   24.8414  -20.3250  -12.9195 C   0  0  0  0  0  0  0  0  0  0  0  0
   23.4074  -19.9958  -13.0598 C   0  0  0  0  0  0  0  0  0  0  0  0
   22.8664  -20.4124  -14.4350 C   0  0  2  0  0  0  0  0  0  0  0  0
   23.2788  -19.5002  -15.4555 N   0  0  0  0  0  0  0  0  0  0  0  0
   21.3895  -20.5739  -14.3613 C   0  0  0  0  0  0  0  0  0  0  0  0
   20.6436  -19.5645  -14.2705 O   0  0  0  0  0  0  0  0  0  0  0  0
   25.8072  -19.4233  -13.3090 C   0  0  0  0  0  0  0  0  0  0  0  0
   27.1580  -19.6951  -13.1932 C   0  0  0  0  0  0  0  0  0  0  0  0
   18.8613  -23.3952  -14.6082 C   0  0  0  0  0  0  0  0  0  0  0  0
   19.3062  -21.9887  -14.2281 C   0  0  2  0  0  0  0  0  0  0  0  0
   20.7397  -21.8394  -14.3875 N   0  0  0  0  0  0  0  0  0  0  0  0
   18.8678  -21.6444  -12.8514 C   0  0  0  0  0  0  0  0  0  0  0  0
   19.6641  -21.8433  -11.7315 O   0  0  0  0  0  0  0  0  0  0  0  0
   17.7285  -21.1484  -12.6581 O   0  0  0  0  0  0  0  0  0  0  0  0
  2  1  1  6
  3  4  1  0
  3  2  1  0
  4  9  1  0
  4  5  2  0
  5  6  1  0
  6  7  2  0
  8  7  1  0
  9  8  2  0
 10 19  1  0
 10  2  1  0
 11 10  2  0
 12 13  1  0
 13 14  2  0
 14 15  1  0
 16 17  1  0
 16 15  2  0
 18 17  1  1
 18 19  1  0
 20 18  1  0
 21 20  2  0
 22 16  1  0
 23 22  2  0
 23 13  1  0
 25 24  1  1
 25 26  1  0
 26 20  1  0
 27 25  1  0
 27 28  1  0
 29 27  2  0
M  END
$$$$
