FYA.pdb
     RDKit          3D

 29 30  0  0  1  0  0  0  0  0999 V2000
   18.9303  -11.3725  -18.8610 N   0  0  0  0  0  0  0  0  0  0  0  0
   19.1348   -9.9214  -18.7201 C   0  0  1  0  0  0  0  0  0  0  0  0
   17.7433   -9.3485  -18.5792 C   0  0  0  0  0  0  0  0  0  0  0  0
   16.9472   -9.3732  -19.8071 C   0  0  0  0  0  0  0  0  0  0  0  0
   17.3274   -8.6933  -20.9505 C   0  0  0  0  0  0  0  0  0  0  0  0
   16.5531   -8.7428  -22.0958 C   0  0  0  0  0  0  0  0  0  0  0  0
   15.3938   -9.4904  -22.0575 C   0  0  0  0  0  0  0  0  0  0  0  0
   15.0043  -10.1752  -20.9162 C   0  0  0  0  0  0  0  0  0  0  0  0
   15.7691  -10.1258  -19.7864 C   0  0  0  0  0  0  0  0  0  0  0  0
   19.9038   -9.5983  -17.5175 C   0  0  0  0  0  0  0  0  0  0  0  0
   19.7173  -10.2256  -16.4438 O   0  0  0  0  0  0  0  0  0  0  0  0
   24.3307  -13.9462  -16.8872 O   0  0  0  0  0  0  0  0  0  0  0  0
   24.0306  -12.5807  -16.7485 C   0  0  0  0  0  0  0  0  0  0  0  0
   23.7708  -11.8481  -17.8797 C   0  0  0  0  0  0  0  0  0  0  0  0
   23.4709  -10.4949  -17.7729 C   0  0  0  0  0  0  0  0  0  0  0  0
   23.4298   -9.8736  -16.5440 C   0  0  0  0  0  0  0  0  0  0  0  0
   23.1122   -8.4359  -16.4148 C   0  0  0  0  0  0  0  0  0  0  0  0
   21.6012   -8.2043  -16.2711 C   0  0  2  0  0  0  0  0  0  0  0  0
   20.9017   -8.5738  -17.4618 N   0  0  0  0  0  0  0  0  0  0  0  0
   21.3498   -6.7963  -15.8619 C   0  0  0  0  0  0  0  0  0  0  0  0
   21.3712   -5.8727  -16.7162 O   0  0  0  0  0  0  0  0  0  0  0  0
   23.6949  -10.6344  -15.4267 C   0  0  0  0  0  0  0  0  0  0  0  0
   23.9956  -11.9816  -15.5074 C   0  0  0  0  0  0  0  0  0  0  0  0
   20.3422   -4.9528  -12.6937 C   0  0  0  0  0  0  0  0  0  0  0  0
   20.8282   -5.0339  -14.1353 C   0  0  2  0  0  0  0  0  0  0  0  0
   21.0769   -6.4097  -14.5201 N   0  0  0  0  0  0  0  0  0  0  0  0
   22.0257   -4.1803  -14.3431 C   0  0  0  0  0  0  0  0  0  0  0  0
   21.9488   -2.8515  -14.7382 O   0  0  0  0  0  0  0  0  0  0  0  0
   23.1765   -4.6536  -14.1611 O   0  0  0  0  0  0  0  0  0  0  0  0
  2  1  1  1
  3  4  1  0
  3  2  1  0
  4  9  1  0
  4  5  2  0
  5  6  1  0
  6  7  2  0
  8  7  1  0
  9  8  2  0
 10 19  1  0
 10  2  1  0
 11 10  2  0
 12 13  1  0
 13 14  2  0
 14 15  1  0
 16 17  1  0
 16 15  2  0
 18 17  1  6
 18 19  1  0
 20 18  1  0
 21 20  2  0
 22 16  1  0
 23 22  2  0
 23 13  1  0
 25 24  1  1
 25 26  1  0
 26 20  1  0
 27 25  1  0
 27 28  1  0
 29 27  2  0
M  END
$$$$
