FYA.pdb
     RDKit          3D

 29 30  0  0  1  0  0  0  0  0999 V2000
   23.8704  -25.5797  -14.4506 N   0  0  0  0  0  0  0  0  0  0  0  0
   24.4798  -24.2495  -14.6138 C   0  0  1  0  0  0  0  0  0  0  0  0
   25.0036  -24.2374  -16.0315 C   0  0  0  0  0  0  0  0  0  0  0  0
   26.3174  -24.8595  -16.2009 C   0  0  0  0  0  0  0  0  0  0  0  0
   27.4973  -24.1614  -16.0154 C   0  0  0  0  0  0  0  0  0  0  0  0
   28.7225  -24.7826  -16.1789 C   0  0  0  0  0  0  0  0  0  0  0  0
   28.7260  -26.1167  -16.5320 C   0  0  0  0  0  0  0  0  0  0  0  0
   27.5486  -26.8249  -16.7203 C   0  0  0  0  0  0  0  0  0  0  0  0
   26.3399  -26.2109  -16.5586 C   0  0  0  0  0  0  0  0  0  0  0  0
   23.4915  -23.1804  -14.4650 C   0  0  0  0  0  0  0  0  0  0  0  0
   22.2924  -23.4428  -14.1921 O   0  0  0  0  0  0  0  0  0  0  0  0
   25.2116  -21.3121   -8.2916 O   0  0  0  0  0  0  0  0  0  0  0  0
   24.8469  -20.8995   -9.5841 C   0  0  0  0  0  0  0  0  0  0  0  0
   23.5894  -20.3848   -9.7779 C   0  0  0  0  0  0  0  0  0  0  0  0
   23.2009  -19.9685  -11.0461 C   0  0  0  0  0  0  0  0  0  0  0  0
   24.0617  -20.0644  -12.1174 C   0  0  0  0  0  0  0  0  0  0  0  0
   23.6630  -19.6257  -13.4713 C   0  0  0  0  0  0  0  0  0  0  0  0
   22.9126  -20.7341  -14.2235 C   0  0  2  0  0  0  0  0  0  0  0  0
   23.7949  -21.7894  -14.6125 N   0  0  0  0  0  0  0  0  0  0  0  0
   22.1706  -20.1438  -15.3698 C   0  0  0  0  0  0  0  0  0  0  0  0
   21.4490  -19.1264  -15.2035 O   0  0  0  0  0  0  0  0  0  0  0  0
   25.3171  -20.5849  -11.8924 C   0  0  0  0  0  0  0  0  0  0  0  0
   25.7264  -21.0056  -10.6404 C   0  0  0  0  0  0  0  0  0  0  0  0
   22.1064  -20.5258  -19.1319 C   0  0  0  0  0  0  0  0  0  0  0  0
   21.5137  -20.0731  -17.8035 C   0  0  2  0  0  0  0  0  0  0  0  0
   22.2240  -20.6716  -16.6900 N   0  0  0  0  0  0  0  0  0  0  0  0
   20.0576  -20.3596  -17.7440 C   0  0  0  0  0  0  0  0  0  0  0  0
   19.1240  -19.7029  -18.5346 O   0  0  0  0  0  0  0  0  0  0  0  0
   19.6186  -21.2315  -16.9513 O   0  0  0  0  0  0  0  0  0  0  0  0
  2  1  1  6
  3  4  1  0
  3  2  1  0
  4  9  1  0
  4  5  2  0
  5  6  1  0
  6  7  2  0
  8  7  1  0
  9  8  2  0
 10 19  1  0
 10  2  1  0
 11 10  2  0
 12 13  1  0
 13 14  2  0
 14 15  1  0
 16 17  1  0
 16 15  2  0
 18 17  1  6
 18 19  1  0
 20 18  1  0
 21 20  2  0
 22 16  1  0
 23 22  2  0
 23 13  1  0
 25 24  1  6
 25 26  1  0
 26 20  1  0
 27 25  1  0
 27 28  1  0
 29 27  2  0
M  END
$$$$
