FYA.pdb
     RDKit          3D

 29 30  0  0  1  0  0  0  0  0999 V2000
   26.6713  -18.2021  -19.4488 N   0  0  0  0  0  0  0  0  0  0  0  0
   26.2650  -18.5720  -18.0830 C   0  0  1  0  0  0  0  0  0  0  0  0
   26.7817  -17.4510  -17.2108 C   0  0  0  0  0  0  0  0  0  0  0  0
   28.2405  -17.3566  -17.1407 C   0  0  0  0  0  0  0  0  0  0  0  0
   28.9511  -16.3654  -17.7940 C   0  0  0  0  0  0  0  0  0  0  0  0
   30.3299  -16.3029  -17.7019 C   0  0  0  0  0  0  0  0  0  0  0  0
   30.9683  -17.2596  -16.9392 C   0  0  0  0  0  0  0  0  0  0  0  0
   30.2648  -18.2571  -16.2808 C   0  0  0  0  0  0  0  0  0  0  0  0
   28.9040  -18.3179  -16.3723 C   0  0  0  0  0  0  0  0  0  0  0  0
   24.8090  -18.6410  -17.9522 C   0  0  0  0  0  0  0  0  0  0  0  0
   24.0658  -17.8446  -18.5804 O   0  0  0  0  0  0  0  0  0  0  0  0
   25.2811  -25.2917  -15.1539 O   0  0  0  0  0  0  0  0  0  0  0  0
   24.5387  -24.2709  -15.7707 C   0  0  0  0  0  0  0  0  0  0  0  0
   25.0218  -23.7175  -16.9301 C   0  0  0  0  0  0  0  0  0  0  0  0
   24.3085  -22.7056  -17.5625 C   0  0  0  0  0  0  0  0  0  0  0  0
   23.1183  -22.2467  -17.0422 C   0  0  0  0  0  0  0  0  0  0  0  0
   22.3488  -21.1719  -17.7034 C   0  0  0  0  0  0  0  0  0  0  0  0
   22.7126  -19.7909  -17.1394 C   0  0  2  0  0  0  0  0  0  0  0  0
   24.1278  -19.5900  -17.1252 N   0  0  0  0  0  0  0  0  0  0  0  0
   22.0871  -19.6191  -15.8007 C   0  0  0  0  0  0  0  0  0  0  0  0
   22.7312  -19.9019  -14.7573 O   0  0  0  0  0  0  0  0  0  0  0  0
   22.6585  -22.8211  -15.8777 C   0  0  0  0  0  0  0  0  0  0  0  0
   23.3499  -23.8285  -15.2305 C   0  0  0  0  0  0  0  0  0  0  0  0
   19.0913  -17.8659  -14.3530 C   0  0  0  0  0  0  0  0  0  0  0  0
   20.1793  -18.9309  -14.3019 C   0  0  2  0  0  0  0  0  0  0  0  0
   20.7609  -19.1389  -15.6138 N   0  0  0  0  0  0  0  0  0  0  0  0
   19.6598  -20.1968  -13.7244 C   0  0  0  0  0  0  0  0  0  0  0  0
   19.4875  -21.3548  -14.4709 O   0  0  0  0  0  0  0  0  0  0  0  0
   19.3527  -20.2547  -12.5063 O   0  0  0  0  0  0  0  0  0  0  0  0
  2  1  1  6
  3  4  1  0
  3  2  1  0
  4  9  1  0
  4  5  2  0
  5  6  1  0
  6  7  2  0
  8  7  1  0
  9  8  2  0
 10 19  1  0
 10  2  1  0
 11 10  2  0
 12 13  1  0
 13 14  2  0
 14 15  1  0
 16 17  1  0
 16 15  2  0
 18 17  1  1
 18 19  1  0
 20 18  1  0
 21 20  2  0
 22 16  1  0
 23 22  2  0
 23 13  1  0
 25 24  1  6
 25 26  1  0
 26 20  1  0
 27 25  1  0
 27 28  1  0
 29 27  2  0
M  END
$$$$
