FYA.pdb
     RDKit          3D

 29 30  0  0  1  0  0  0  0  0999 V2000
   21.7548   -7.1812  -19.3478 N   0  0  0  0  0  0  0  0  0  0  0  0
   21.3731   -5.7972  -19.0221 C   0  0  1  0  0  0  0  0  0  0  0  0
   20.4159   -5.3934  -20.1198 C   0  0  0  0  0  0  0  0  0  0  0  0
   21.0507   -5.1092  -21.4075 C   0  0  0  0  0  0  0  0  0  0  0  0
   21.9703   -4.0885  -21.5711 C   0  0  0  0  0  0  0  0  0  0  0  0
   22.5551   -3.8510  -22.8020 C   0  0  0  0  0  0  0  0  0  0  0  0
   22.1904   -4.6641  -23.8558 C   0  0  0  0  0  0  0  0  0  0  0  0
   21.2695   -5.6895  -23.7017 C   0  0  0  0  0  0  0  0  0  0  0  0
   20.6930   -5.9232  -22.4865 C   0  0  0  0  0  0  0  0  0  0  0  0
   20.6796   -5.7163  -17.7358 C   0  0  0  0  0  0  0  0  0  0  0  0
   19.9246   -6.6448  -17.3497 O   0  0  0  0  0  0  0  0  0  0  0  0
   23.2833   -9.8083  -13.8668 O   0  0  0  0  0  0  0  0  0  0  0  0
   22.7278   -8.5236  -13.9887 C   0  0  0  0  0  0  0  0  0  0  0  0
   23.4133   -7.5784  -14.7102 C   0  0  0  0  0  0  0  0  0  0  0  0
   22.8879   -6.2987  -14.8477 C   0  0  0  0  0  0  0  0  0  0  0  0
   21.6842   -5.9616  -14.2688 C   0  0  0  0  0  0  0  0  0  0  0  0
   21.1130   -4.6054  -14.4065 C   0  0  0  0  0  0  0  0  0  0  0  0
   20.1233   -4.5281  -15.5779 C   0  0  2  0  0  0  0  0  0  0  0  0
   20.7973   -4.6096  -16.8359 N   0  0  0  0  0  0  0  0  0  0  0  0
   19.2874   -3.3049  -15.4439 C   0  0  0  0  0  0  0  0  0  0  0  0
   19.7925   -2.1669  -15.6266 O   0  0  0  0  0  0  0  0  0  0  0  0
   21.0190   -6.9310  -13.5508 C   0  0  0  0  0  0  0  0  0  0  0  0
   21.5212   -8.2104  -13.3999 C   0  0  0  0  0  0  0  0  0  0  0  0
   15.6096   -2.4971  -14.9473 C   0  0  0  0  0  0  0  0  0  0  0  0
   17.0879   -2.1404  -15.0373 C   0  0  2  0  0  0  0  0  0  0  0  0
   17.9046   -3.3363  -15.1107 N   0  0  0  0  0  0  0  0  0  0  0  0
   17.4951   -1.2655  -13.9083 C   0  0  0  0  0  0  0  0  0  0  0  0
   17.3072    0.1102  -13.9107 O   0  0  0  0  0  0  0  0  0  0  0  0
   18.0375   -1.7634  -12.8888 O   0  0  0  0  0  0  0  0  0  0  0  0
  2  1  1  6
  3  4  1  0
  3  2  1  0
  4  9  1  0
  4  5  2  0
  5  6  1  0
  6  7  2  0
  8  7  1  0
  9  8  2  0
 10 19  1  0
 10  2  1  0
 11 10  2  0
 12 13  1  0
 13 14  2  0
 14 15  1  0
 16 17  1  0
 16 15  2  0
 18 17  1  1
 18 19  1  0
 20 18  1  0
 21 20  2  0
 22 16  1  0
 23 22  2  0
 23 13  1  0
 25 24  1  1
 25 26  1  0
 26 20  1  0
 27 25  1  0
 27 28  1  0
 29 27  2  0
M  END
$$$$
