FYA.pdb
     RDKit          3D

 29 30  0  0  1  0  0  0  0  0999 V2000
   26.5589  -22.1607  -13.9863 N   0  0  0  0  0  0  0  0  0  0  0  0
   26.0366  -21.7526  -12.6718 C   0  0  1  0  0  0  0  0  0  0  0  0
   26.6990  -20.4235  -12.3902 C   0  0  0  0  0  0  0  0  0  0  0  0
   28.0407  -20.5216  -11.8140 C   0  0  0  0  0  0  0  0  0  0  0  0
   29.1691  -20.0852  -12.4851 C   0  0  0  0  0  0  0  0  0  0  0  0
   30.4221  -20.1884  -11.9081 C   0  0  0  0  0  0  0  0  0  0  0  0
   30.5062  -20.7395  -10.6457 C   0  0  0  0  0  0  0  0  0  0  0  0
   29.3810  -21.1799   -9.9651 C   0  0  0  0  0  0  0  0  0  0  0  0
   28.1448  -21.0775  -10.5353 C   0  0  0  0  0  0  0  0  0  0  0  0
   24.5860  -21.5616  -12.7021 C   0  0  0  0  0  0  0  0  0  0  0  0
   23.9148  -21.8730  -13.7189 O   0  0  0  0  0  0  0  0  0  0  0  0
   16.2512  -19.8797  -10.2397 O   0  0  0  0  0  0  0  0  0  0  0  0
   17.6545  -19.9378  -10.2731 C   0  0  0  0  0  0  0  0  0  0  0  0
   18.2728  -21.0948   -9.8694 C   0  0  0  0  0  0  0  0  0  0  0  0
   19.6601  -21.1811   -9.8918 C   0  0  0  0  0  0  0  0  0  0  0  0
   20.4288  -20.1190  -10.3147 C   0  0  0  0  0  0  0  0  0  0  0  0
   21.9045  -20.1961  -10.3442 C   0  0  0  0  0  0  0  0  0  0  0  0
   22.4050  -20.9213  -11.6016 C   0  0  2  0  0  0  0  0  0  0  0  0
   23.8309  -21.0216  -11.6127 N   0  0  0  0  0  0  0  0  0  0  0  0
   21.8594  -20.2520  -12.8130 C   0  0  0  0  0  0  0  0  0  0  0  0
   22.2164  -19.0819  -13.1077 O   0  0  0  0  0  0  0  0  0  0  0  0
   19.7804  -18.9711  -10.7138 C   0  0  0  0  0  0  0  0  0  0  0  0
   18.4021  -18.8612  -10.7005 C   0  0  0  0  0  0  0  0  0  0  0  0
   20.5864  -20.9292  -16.1175 C   0  0  0  0  0  0  0  0  0  0  0  0
   20.3331  -20.1741  -14.8189 C   0  0  2  0  0  0  0  0  0  0  0  0
   20.9268  -20.8686  -13.6930 N   0  0  0  0  0  0  0  0  0  0  0  0
   18.8813  -19.9369  -14.6144 C   0  0  0  0  0  0  0  0  0  0  0  0
   18.0954  -20.7240  -13.7833 O   0  0  0  0  0  0  0  0  0  0  0  0
   18.3080  -18.9875  -15.2072 O   0  0  0  0  0  0  0  0  0  0  0  0
  2  1  1  6
  3  4  1  0
  3  2  1  0
  4  9  1  0
  4  5  2  0
  5  6  1  0
  6  7  2  0
  8  7  1  0
  9  8  2  0
 10 19  1  0
 10  2  1  0
 11 10  2  0
 12 13  1  0
 13 14  2  0
 14 15  1  0
 16 17  1  0
 16 15  2  0
 18 17  1  1
 18 19  1  0
 20 18  1  0
 21 20  2  0
 22 16  1  0
 23 22  2  0
 23 13  1  0
 25 24  1  6
 25 26  1  0
 26 20  1  0
 27 25  1  0
 27 28  1  0
 29 27  2  0
M  END
$$$$
