FYA.pdb
     RDKit          3D

 29 30  0  0  1  0  0  0  0  0999 V2000
   27.1581  -22.8403  -18.9050 N   0  0  0  0  0  0  0  0  0  0  0  0
   26.5868  -22.4195  -17.6151 C   0  0  1  0  0  0  0  0  0  0  0  0
   26.1241  -20.9990  -17.8442 C   0  0  0  0  0  0  0  0  0  0  0  0
   27.2036  -20.0322  -18.0482 C   0  0  0  0  0  0  0  0  0  0  0  0
   28.2107  -19.8389  -17.1193 C   0  0  0  0  0  0  0  0  0  0  0  0
   29.2190  -18.9197  -17.3470 C   0  0  0  0  0  0  0  0  0  0  0  0
   29.1849  -18.2057  -18.5275 C   0  0  0  0  0  0  0  0  0  0  0  0
   28.1797  -18.3922  -19.4645 C   0  0  0  0  0  0  0  0  0  0  0  0
   27.1850  -19.2997  -19.2390 C   0  0  0  0  0  0  0  0  0  0  0  0
   25.4330  -23.2389  -17.2421 C   0  0  0  0  0  0  0  0  0  0  0  0
   24.6096  -23.6278  -18.1093 O   0  0  0  0  0  0  0  0  0  0  0  0
   19.7268  -28.2546  -12.7314 O   0  0  0  0  0  0  0  0  0  0  0  0
   20.8398  -27.4736  -13.0851 C   0  0  0  0  0  0  0  0  0  0  0  0
   21.7748  -28.0108  -13.9341 C   0  0  0  0  0  0  0  0  0  0  0  0
   22.8864  -27.2611  -14.3014 C   0  0  0  0  0  0  0  0  0  0  0  0
   23.0661  -25.9811  -13.8249 C   0  0  0  0  0  0  0  0  0  0  0  0
   24.2426  -25.1720  -14.2067 C   0  0  0  0  0  0  0  0  0  0  0  0
   24.0080  -24.4271  -15.5286 C   0  0  2  0  0  0  0  0  0  0  0  0
   25.1516  -23.6547  -15.9017 N   0  0  0  0  0  0  0  0  0  0  0  0
   22.7651  -23.6157  -15.4294 C   0  0  0  0  0  0  0  0  0  0  0  0
   22.7423  -22.5714  -14.7278 O   0  0  0  0  0  0  0  0  0  0  0  0
   22.1111  -25.4687  -12.9746 C   0  0  0  0  0  0  0  0  0  0  0  0
   20.9973  -26.1947  -12.5949 C   0  0  0  0  0  0  0  0  0  0  0  0
   19.6764  -23.0486  -17.3818 C   0  0  0  0  0  0  0  0  0  0  0  0
   20.3624  -23.1338  -16.0243 C   0  0  2  0  0  0  0  0  0  0  0  0
   21.5561  -23.9536  -16.0991 N   0  0  0  0  0  0  0  0  0  0  0  0
   19.4240  -23.6237  -14.9825 C   0  0  0  0  0  0  0  0  0  0  0  0
   19.0426  -24.9543  -14.8725 O   0  0  0  0  0  0  0  0  0  0  0  0
   18.9352  -22.8213  -14.1467 O   0  0  0  0  0  0  0  0  0  0  0  0
  2  1  1  6
  3  4  1  0
  3  2  1  0
  4  9  1  0
  4  5  2  0
  5  6  1  0
  6  7  2  0
  8  7  1  0
  9  8  2  0
 10 19  1  0
 10  2  1  0
 11 10  2  0
 12 13  1  0
 13 14  2  0
 14 15  1  0
 16 17  1  0
 16 15  2  0
 18 17  1  1
 18 19  1  0
 20 18  1  0
 21 20  2  0
 22 16  1  0
 23 22  2  0
 23 13  1  0
 25 24  1  6
 25 26  1  0
 26 20  1  0
 27 25  1  0
 27 28  1  0
 29 27  2  0
M  END
$$$$
