RYL.pdb
     RDKit          3D

 32 32  0  0  1  0  0  0  0  0999 V2000
   18.4434  -30.2517   -9.4634 N   0  0  0  0  0  0  0  0  0  0  0  0
   18.8083  -30.3422   -8.0837 C   0  0  0  0  0  0  0  0  0  0  0  0
   19.9977  -30.6904   -7.7857 N   0  0  0  0  0  0  0  0  0  0  0  0
   17.8690  -30.0507   -7.0489 N   0  0  0  0  0  0  0  0  0  0  0  0
   16.5040  -29.5955   -7.3840 C   0  0  0  0  0  0  0  0  0  0  0  0
   16.2940  -28.3221   -6.6420 C   0  0  0  0  0  0  0  0  0  0  0  0
   16.9151  -28.2274   -5.2966 C   0  0  0  0  0  0  0  0  0  0  0  0
   16.6980  -26.9199   -4.6208 C   0  0  2  0  0  0  0  0  0  0  0  0
   17.4400  -25.8225   -5.2216 N   0  0  0  0  0  0  0  0  0  0  0  0
   17.1342  -26.9493   -3.1920 C   0  0  0  0  0  0  0  0  0  0  0  0
   18.2542  -26.4536   -2.9275 O   0  0  0  0  0  0  0  0  0  0  0  0
   20.4047  -30.7822   -6.8412 O   0  0  0  0  0  0  0  0  0  0  0  0
   15.0290  -21.2941   -0.6141 C   0  0  0  0  0  0  0  0  0  0  0  0
   15.2676  -22.6427   -0.3999 C   0  0  0  0  0  0  0  0  0  0  0  0
   16.1424  -23.0518    0.5837 C   0  0  0  0  0  0  0  0  0  0  0  0
   16.3607  -24.4228    0.7736 C   0  0  0  0  0  0  0  0  0  0  0  0
   15.7177  -25.3562   -0.0035 C   0  0  0  0  0  0  0  0  0  0  0  0
   15.9381  -26.7822    0.1869 C   0  0  2  0  0  0  0  0  0  0  0  0
   16.8495  -27.4296   -0.7993 N   0  0  0  0  0  0  0  0  0  0  0  0
   16.3743  -27.4933   -2.1341 C   0  0  0  0  0  0  0  0  0  0  0  0
   17.1953  -28.7915   -0.2710 O   0  0  0  0  0  0  0  0  0  0  0  0
   16.6292  -29.7783   -0.7822 C   0  0  0  0  0  0  0  0  0  0  0  0
   14.8535  -24.9119   -0.9734 C   0  0  0  0  0  0  0  0  0  0  0  0
   14.6168  -23.5572   -1.1851 C   0  0  0  0  0  0  0  0  0  0  0  0
   19.5662  -33.2657    0.3176 C   0  0  2  0  0  0  0  0  0  0  0  0
   19.7410  -31.9343   -0.3053 C   0  0  0  0  0  0  0  0  0  0  0  0
   21.0316  -31.8600   -1.1305 C   0  0  0  0  0  0  0  0  0  0  0  0
   19.7065  -30.7642    0.5770 C   0  0  2  0  0  0  0  0  0  0  0  0
   18.4546  -30.3719    1.2468 N   0  0  0  0  0  0  0  0  0  0  0  0
   18.1245  -28.9826    0.7678 C   0  0  0  0  0  0  0  0  0  0  0  0
   18.3864  -30.2672    2.6954 O   0  0  0  0  0  0  0  0  0  0  0  0
   18.4078  -29.0349    3.3821 O   0  0  0  0  0  0  0  0  0  0  0  0
  2  3  2  0
  2  1  1  0
  4  2  1  0
  5  4  1  0
  6  5  1  0
  7  6  1  0
  8 10  1  0
  8  7  1  0
  8  9  1  6
 10 11  2  0
 13 14  2  0
 13 12  1  0
 15 14  1  0
 16 15  2  0
 17 16  1  0
 18 17  1  6
 18 20  1  0
 19 10  1  0
 19 18  1  0
 20 29  1  0
 20 21  2  0
 22 16  1  0
 22 23  2  0
 23 13  1  0
 25 24  1  6
 25 27  1  0
 26 25  1  0
 28 27  1  6
 28 30  1  0
 29 28  1  0
 30 32  2  0
 30 31  1  0
M  END
$$$$
