RYL.pdb
     RDKit          3D

 32 32  0  0  1  0  0  0  0  0999 V2000
   28.6742  -25.0747  -16.2372 N   0  0  0  0  0  0  0  0  0  0  0  0
   29.2147  -24.2491  -17.2722 C   0  0  0  0  0  0  0  0  0  0  0  0
   30.0773  -24.7480  -18.0669 N   0  0  0  0  0  0  0  0  0  0  0  0
   28.8049  -22.8900  -17.4247 N   0  0  0  0  0  0  0  0  0  0  0  0
   27.7297  -22.3333  -16.5783 C   0  0  0  0  0  0  0  0  0  0  0  0
   28.4044  -21.5574  -15.5018 C   0  0  0  0  0  0  0  0  0  0  0  0
   27.7572  -20.2842  -15.0955 C   0  0  0  0  0  0  0  0  0  0  0  0
   26.2707  -20.3410  -15.0744 C   0  0  2  0  0  0  0  0  0  0  0  0
   25.6379  -19.3928  -15.9777 N   0  0  0  0  0  0  0  0  0  0  0  0
   25.7177  -20.0214  -13.7236 C   0  0  0  0  0  0  0  0  0  0  0  0
   25.7279  -18.8183  -13.3735 O   0  0  0  0  0  0  0  0  0  0  0  0
   30.5369  -24.2809  -18.8649 O   0  0  0  0  0  0  0  0  0  0  0  0
   19.1334  -18.5440  -14.1448 C   0  0  0  0  0  0  0  0  0  0  0  0
   20.1469  -19.1542  -13.4222 C   0  0  0  0  0  0  0  0  0  0  0  0
   20.3516  -18.8360  -12.0966 C   0  0  0  0  0  0  0  0  0  0  0  0
   21.3850  -19.4716  -11.3956 C   0  0  0  0  0  0  0  0  0  0  0  0
   22.1899  -20.4008  -12.0097 C   0  0  0  0  0  0  0  0  0  0  0  0
   23.2653  -21.0662  -11.2893 C   0  0  2  0  0  0  0  0  0  0  0  0
   24.6402  -20.5715  -11.5851 N   0  0  0  0  0  0  0  0  0  0  0  0
   25.1910  -20.9766  -12.8277 C   0  0  0  0  0  0  0  0  0  0  0  0
   25.5212  -20.9666  -10.4358 O   0  0  0  0  0  0  0  0  0  0  0  0
   25.9371  -22.1417  -10.3946 C   0  0  0  0  0  0  0  0  0  0  0  0
   21.9566  -20.6925  -13.3309 C   0  0  0  0  0  0  0  0  0  0  0  0
   20.9381  -20.0777  -14.0526 C   0  0  0  0  0  0  0  0  0  0  0  0
   28.5781  -18.3154   -5.7812 C   0  0  1  0  0  0  0  0  0  0  0  0
   28.1051  -19.5749   -6.3986 C   0  0  0  0  0  0  0  0  0  0  0  0
   29.2347  -20.6052   -6.5205 C   0  0  0  0  0  0  0  0  0  0  0  0
   27.4418  -19.4824   -7.7025 C   0  0  2  0  0  0  0  0  0  0  0  0
   26.5489  -20.5596   -8.1630 N   0  0  0  0  0  0  0  0  0  0  0  0
   25.8847  -20.0633   -9.4205 C   0  0  0  0  0  0  0  0  0  0  0  0
   25.4404  -21.0117   -7.3377 O   0  0  0  0  0  0  0  0  0  0  0  0
   24.0878  -20.7961   -7.6763 O   0  0  0  0  0  0  0  0  0  0  0  0
  2  3  2  0
  2  1  1  0
  4  2  1  0
  5  4  1  0
  6  5  1  0
  7  6  1  0
  8 10  1  0
  8  7  1  0
  8  9  1  6
 10 11  2  0
 13 14  2  0
 13 12  1  0
 15 14  1  0
 16 15  2  0
 17 16  1  0
 18 17  1  6
 18 20  1  0
 19 10  1  0
 19 18  1  0
 20 29  1  0
 20 21  2  0
 22 16  1  0
 22 23  2  0
 23 13  1  0
 25 24  1  1
 25 27  1  0
 26 25  1  0
 28 27  1  6
 28 30  1  0
 29 28  1  0
 30 32  2  0
 30 31  1  0
M  END
$$$$
