RYL.pdb
     RDKit          3D

 32 32  0  0  1  0  0  0  0  0999 V2000
   21.7673  -19.8847  -11.5963 N   0  0  0  0  0  0  0  0  0  0  0  0
   21.5956  -20.8449  -10.5506 C   0  0  0  0  0  0  0  0  0  0  0  0
   20.7136  -21.7540  -10.6918 N   0  0  0  0  0  0  0  0  0  0  0  0
   22.3904  -20.7987   -9.3655 N   0  0  0  0  0  0  0  0  0  0  0  0
   23.4521  -19.7822   -9.2158 C   0  0  0  0  0  0  0  0  0  0  0  0
   24.7460  -20.5078   -9.3394 C   0  0  0  0  0  0  0  0  0  0  0  0
   25.5155  -20.2849  -10.5897 C   0  0  0  0  0  0  0  0  0  0  0  0
   25.6638  -21.5010  -11.4337 C   0  0  2  0  0  0  0  0  0  0  0  0
   26.9505  -22.1623  -11.2830 N   0  0  0  0  0  0  0  0  0  0  0  0
   25.5547  -21.1877  -12.8906 C   0  0  0  0  0  0  0  0  0  0  0  0
   26.6257  -21.0283  -13.5212 O   0  0  0  0  0  0  0  0  0  0  0  0
   20.4271  -22.4614   -9.9961 O   0  0  0  0  0  0  0  0  0  0  0  0
   23.0684  -27.3504  -14.9762 C   0  0  0  0  0  0  0  0  0  0  0  0
   23.1128  -25.9766  -15.1562 C   0  0  0  0  0  0  0  0  0  0  0  0
   24.0698  -25.4070  -15.9685 C   0  0  0  0  0  0  0  0  0  0  0  0
   24.0864  -24.0150  -16.1284 C   0  0  0  0  0  0  0  0  0  0  0  0
   23.1669  -23.2182  -15.4896 C   0  0  0  0  0  0  0  0  0  0  0  0
   23.1763  -21.7716  -15.6502 C   0  0  2  0  0  0  0  0  0  0  0  0
   24.3206  -21.0610  -15.0113 N   0  0  0  0  0  0  0  0  0  0  0  0
   24.3369  -21.0612  -13.5932 C   0  0  0  0  0  0  0  0  0  0  0  0
   24.3527  -19.6655  -15.5634 O   0  0  0  0  0  0  0  0  0  0  0  0
   23.5910  -18.8181  -15.0562 C   0  0  0  0  0  0  0  0  0  0  0  0
   22.2285  -23.8204  -14.6885 C   0  0  0  0  0  0  0  0  0  0  0  0
   22.1874  -25.1998  -14.5107 C   0  0  0  0  0  0  0  0  0  0  0  0
   27.6039  -16.8471  -15.4270 C   0  0  2  0  0  0  0  0  0  0  0  0
   27.7154  -17.6411  -16.6714 C   0  0  0  0  0  0  0  0  0  0  0  0
   28.9804  -17.2823  -17.4609 C   0  0  0  0  0  0  0  0  0  0  0  0
   26.5828  -17.6052  -17.6012 C   0  0  2  0  0  0  0  0  0  0  0  0
   25.2158  -17.8731  -17.1221 N   0  0  0  0  0  0  0  0  0  0  0  0
   25.2038  -19.2930  -16.6198 C   0  0  0  0  0  0  0  0  0  0  0  0
   24.0832  -17.8151  -18.0321 O   0  0  0  0  0  0  0  0  0  0  0  0
   23.3268  -16.6440  -18.2494 O   0  0  0  0  0  0  0  0  0  0  0  0
  2  3  2  0
  2  1  1  0
  4  2  1  0
  5  4  1  0
  6  5  1  0
  7  6  1  0
  8 10  1  0
  8  7  1  0
  8  9  1  6
 10 11  2  0
 13 14  2  0
 13 12  1  0
 15 14  1  0
 16 15  2  0
 17 16  1  0
 18 17  1  6
 18 20  1  0
 19 10  1  0
 19 18  1  0
 20 29  1  0
 20 21  2  0
 22 16  1  0
 22 23  2  0
 23 13  1  0
 25 24  1  1
 25 27  1  0
 26 25  1  0
 28 27  1  1
 28 30  1  0
 29 28  1  0
 30 32  2  0
 30 31  1  0
M  END
$$$$
