RYL.pdb
     RDKit          3D

 32 32  0  0  1  0  0  0  0  0999 V2000
   30.3642  -24.0035  -17.1336 N   0  0  0  0  0  0  0  0  0  0  0  0
   30.2501  -23.5777  -18.4940 C   0  0  0  0  0  0  0  0  0  0  0  0
   30.5712  -24.3922  -19.4203 N   0  0  0  0  0  0  0  0  0  0  0  0
   29.7863  -22.2683  -18.8233 N   0  0  0  0  0  0  0  0  0  0  0  0
   29.3807  -21.3283  -17.7582 C   0  0  0  0  0  0  0  0  0  0  0  0
   27.9863  -20.9142  -18.0747 C   0  0  0  0  0  0  0  0  0  0  0  0
   26.9981  -21.0108  -16.9706 C   0  0  0  0  0  0  0  0  0  0  0  0
   27.2284  -22.1576  -16.0513 C   0  0  2  0  0  0  0  0  0  0  0  0
   26.8120  -23.4384  -16.6007 N   0  0  0  0  0  0  0  0  0  0  0  0
   26.4645  -22.0140  -14.7752 C   0  0  0  0  0  0  0  0  0  0  0  0
   25.2875  -22.4437  -14.7639 O   0  0  0  0  0  0  0  0  0  0  0  0
   30.5772  -24.2126  -20.4372 O   0  0  0  0  0  0  0  0  0  0  0  0
   23.6330  -20.1803   -6.6512 C   0  0  0  0  0  0  0  0  0  0  0  0
   24.4198  -20.3619   -7.7780 C   0  0  0  0  0  0  0  0  0  0  0  0
   24.3305  -21.5233   -8.5152 C   0  0  0  0  0  0  0  0  0  0  0  0
   25.1403  -21.6743   -9.6486 C   0  0  0  0  0  0  0  0  0  0  0  0
   26.0153  -20.6857  -10.0302 C   0  0  0  0  0  0  0  0  0  0  0  0
   26.8600  -20.8338  -11.2063 C   0  0  1  0  0  0  0  0  0  0  0  0
   26.1759  -21.3411  -12.4298 N   0  0  0  0  0  0  0  0  0  0  0  0
   26.9779  -21.4320  -13.5960 C   0  0  0  0  0  0  0  0  0  0  0  0
   24.9636  -20.4861  -12.6590 O   0  0  0  0  0  0  0  0  0  0  0  0
   25.1350  -19.3394  -13.1186 C   0  0  0  0  0  0  0  0  0  0  0  0
   26.0772  -19.5428   -9.2720 C   0  0  0  0  0  0  0  0  0  0  0  0
   25.2856  -19.3646   -8.1416 C   0  0  0  0  0  0  0  0  0  0  0  0
   20.0508  -19.6226  -14.7079 C   0  0  1  0  0  0  0  0  0  0  0  0
   21.4661  -19.2865  -14.9825 C   0  0  0  0  0  0  0  0  0  0  0  0
   21.7889  -19.3738  -16.4793 C   0  0  0  0  0  0  0  0  0  0  0  0
   22.4938  -20.0407  -14.2587 C   0  0  2  0  0  0  0  0  0  0  0  0
   22.4670  -20.1150  -12.7878 N   0  0  0  0  0  0  0  0  0  0  0  0
   23.6610  -20.9347  -12.3742 C   0  0  0  0  0  0  0  0  0  0  0  0
   21.3545  -20.7439  -12.0942 O   0  0  0  0  0  0  0  0  0  0  0  0
   20.2900  -20.0152  -11.5228 O   0  0  0  0  0  0  0  0  0  0  0  0
  2  3  2  0
  2  1  1  0
  4  2  1  0
  5  4  1  0
  6  5  1  0
  7  6  1  0
  8 10  1  0
  8  7  1  0
  8  9  1  6
 10 11  2  0
 13 14  2  0
 13 12  1  0
 15 14  1  0
 16 15  2  0
 17 16  1  0
 18 17  1  1
 18 20  1  0
 19 10  1  0
 19 18  1  0
 20 29  1  0
 20 21  2  0
 22 16  1  0
 22 23  2  0
 23 13  1  0
 25 24  1  6
 25 27  1  0
 26 25  1  0
 28 27  1  1
 28 30  1  0
 29 28  1  0
 30 32  2  0
 30 31  1  0
M  END
$$$$
