RYL.pdb
     RDKit          3D

 32 32  0  0  1  0  0  0  0  0999 V2000
   21.0356  -15.4911  -16.5423 N   0  0  0  0  0  0  0  0  0  0  0  0
   19.7748  -16.0614  -16.9027 C   0  0  0  0  0  0  0  0  0  0  0  0
   18.7153  -15.3808  -16.7058 N   0  0  0  0  0  0  0  0  0  0  0  0
   19.6891  -17.3671  -17.4737 N   0  0  0  0  0  0  0  0  0  0  0  0
   20.9147  -18.1424  -17.7555 C   0  0  0  0  0  0  0  0  0  0  0  0
   21.4545  -18.5661  -16.4345 C   0  0  0  0  0  0  0  0  0  0  0  0
   21.9448  -19.9641  -16.3350 C   0  0  0  0  0  0  0  0  0  0  0  0
   23.3263  -20.1589  -16.8515 C   0  0  2  0  0  0  0  0  0  0  0  0
   23.4315  -21.2060  -17.8556 N   0  0  0  0  0  0  0  0  0  0  0  0
   24.2768  -20.5587  -15.7702 C   0  0  0  0  0  0  0  0  0  0  0  0
   24.2020  -21.7377  -15.3526 O   0  0  0  0  0  0  0  0  0  0  0  0
   17.7418  -15.6703  -16.8924 O   0  0  0  0  0  0  0  0  0  0  0  0
   30.2049  -21.6930  -18.9205 C   0  0  0  0  0  0  0  0  0  0  0  0
   29.5573  -21.2374  -17.7826 C   0  0  0  0  0  0  0  0  0  0  0  0
   29.5122  -22.0133  -16.6441 C   0  0  0  0  0  0  0  0  0  0  0  0
   28.8493  -21.5224  -15.5115 C   0  0  0  0  0  0  0  0  0  0  0  0
   28.2485  -20.2865  -15.5231 C   0  0  0  0  0  0  0  0  0  0  0  0
   27.5581  -19.7684  -14.3512 C   0  0  2  0  0  0  0  0  0  0  0  0
   26.1347  -20.1870  -14.2059 N   0  0  0  0  0  0  0  0  0  0  0  0
   25.2418  -19.7033  -15.1960 C   0  0  0  0  0  0  0  0  0  0  0  0
   25.6880  -19.8033  -12.8251 O   0  0  0  0  0  0  0  0  0  0  0  0
   25.2811  -18.6382  -12.6446 C   0  0  0  0  0  0  0  0  0  0  0  0
   28.3137  -19.5417  -16.6747 C   0  0  0  0  0  0  0  0  0  0  0  0
   28.9648  -20.0028  -17.8146 C   0  0  0  0  0  0  0  0  0  0  0  0
   21.4198  -21.1060   -9.4546 C   0  0  1  0  0  0  0  0  0  0  0  0
   22.7832  -20.5374   -9.3589 C   0  0  0  0  0  0  0  0  0  0  0  0
   22.7517  -19.0499   -8.9866 C   0  0  0  0  0  0  0  0  0  0  0  0
   23.6631  -20.6888  -10.5214 C   0  0  2  0  0  0  0  0  0  0  0  0
   25.0899  -20.3347  -10.4278 N   0  0  0  0  0  0  0  0  0  0  0  0
   25.7154  -20.7062  -11.7467 C   0  0  0  0  0  0  0  0  0  0  0  0
   25.9511  -20.9682   -9.4423 O   0  0  0  0  0  0  0  0  0  0  0  0
   26.8992  -21.9604   -9.7697 O   0  0  0  0  0  0  0  0  0  0  0  0
  2  3  2  0
  2  1  1  0
  4  2  1  0
  5  4  1  0
  6  5  1  0
  7  6  1  0
  8 10  1  0
  8  7  1  0
  8  9  1  6
 10 11  2  0
 13 14  2  0
 13 12  1  0
 15 14  1  0
 16 15  2  0
 17 16  1  0
 18 17  1  6
 18 20  1  0
 19 10  1  0
 19 18  1  0
 20 29  1  0
 20 21  2  0
 22 16  1  0
 22 23  2  0
 23 13  1  0
 25 24  1  1
 25 27  1  0
 26 25  1  0
 28 27  1  6
 28 30  1  0
 29 28  1  0
 30 32  2  0
 30 31  1  0
M  END
$$$$
