RYL.pdb
     RDKit          3D

 32 32  0  0  1  0  0  0  0  0999 V2000
   27.8668  -24.2006  -15.8244 N   0  0  0  0  0  0  0  0  0  0  0  0
   29.1613  -23.8902  -16.3468 C   0  0  0  0  0  0  0  0  0  0  0  0
   30.0818  -24.7681  -16.2655 N   0  0  0  0  0  0  0  0  0  0  0  0
   29.4318  -22.6255  -16.9512 N   0  0  0  0  0  0  0  0  0  0  0  0
   28.3817  -21.5885  -17.0187 C   0  0  0  0  0  0  0  0  0  0  0  0
   28.8779  -20.4379  -16.2151 C   0  0  0  0  0  0  0  0  0  0  0  0
   28.1867  -20.1808  -14.9262 C   0  0  0  0  0  0  0  0  0  0  0  0
   26.7214  -19.9606  -15.0591 C   0  0  2  0  0  0  0  0  0  0  0  0
   26.3772  -18.7377  -15.7674 N   0  0  0  0  0  0  0  0  0  0  0  0
   26.0505  -19.8428  -13.7292 C   0  0  0  0  0  0  0  0  0  0  0  0
   25.9763  -18.6970  -13.2275 O   0  0  0  0  0  0  0  0  0  0  0  0
   31.0480  -24.6966  -16.6228 O   0  0  0  0  0  0  0  0  0  0  0  0
   19.0282  -18.1236  -11.9060 C   0  0  0  0  0  0  0  0  0  0  0  0
   20.1490  -18.9317  -11.7947 C   0  0  0  0  0  0  0  0  0  0  0  0
   20.6590  -19.2556  -10.5557 C   0  0  0  0  0  0  0  0  0  0  0  0
   21.7933  -20.0746  -10.4792 C   0  0  0  0  0  0  0  0  0  0  0  0
   22.3978  -20.5546  -11.6161 C   0  0  0  0  0  0  0  0  0  0  0  0
   23.5760  -21.4062  -11.5461 C   0  0  2  0  0  0  0  0  0  0  0  0
   24.8814  -20.7165  -11.7527 N   0  0  0  0  0  0  0  0  0  0  0  0
   25.5017  -20.9268  -13.0106 C   0  0  0  0  0  0  0  0  0  0  0  0
   25.7850  -21.1076  -10.6196 O   0  0  0  0  0  0  0  0  0  0  0  0
   26.3147  -22.2361  -10.6565 C   0  0  0  0  0  0  0  0  0  0  0  0
   21.8621  -20.2113  -12.8327 C   0  0  0  0  0  0  0  0  0  0  0  0
   20.7369  -19.3999  -12.9400 C   0  0  0  0  0  0  0  0  0  0  0  0
   28.8411  -18.5557   -5.9304 C   0  0  1  0  0  0  0  0  0  0  0  0
   28.4122  -19.7960   -6.6152 C   0  0  0  0  0  0  0  0  0  0  0  0
   29.6017  -20.7148   -6.9205 C   0  0  0  0  0  0  0  0  0  0  0  0
   27.6296  -19.6538   -7.8464 C   0  0  2  0  0  0  0  0  0  0  0  0
   26.7823  -20.7604   -8.3234 N   0  0  0  0  0  0  0  0  0  0  0  0
   26.0465  -20.2508   -9.5349 C   0  0  0  0  0  0  0  0  0  0  0  0
   25.7313  -21.3095   -7.4819 O   0  0  0  0  0  0  0  0  0  0  0  0
   24.3857  -20.8918   -7.5562 O   0  0  0  0  0  0  0  0  0  0  0  0
  2  3  2  0
  2  1  1  0
  4  2  1  0
  5  4  1  0
  6  5  1  0
  7  6  1  0
  8 10  1  0
  8  7  1  0
  8  9  1  6
 10 11  2  0
 13 14  2  0
 13 12  1  0
 15 14  1  0
 16 15  2  0
 17 16  1  0
 18 17  1  6
 18 20  1  0
 19 10  1  0
 19 18  1  0
 20 29  1  0
 20 21  2  0
 22 16  1  0
 22 23  2  0
 23 13  1  0
 25 24  1  1
 25 27  1  0
 26 25  1  0
 28 27  1  6
 28 30  1  0
 29 28  1  0
 30 32  2  0
 30 31  1  0
M  END
$$$$
