RYL.pdb
     RDKit          3D

 32 32  0  0  1  0  0  0  0  0999 V2000
   24.0276  -28.1707  -19.1419 N   0  0  0  0  0  0  0  0  0  0  0  0
   23.3322  -28.7082  -18.0138 C   0  0  0  0  0  0  0  0  0  0  0  0
   23.2342  -29.9739  -17.9002 N   0  0  0  0  0  0  0  0  0  0  0  0
   22.7541  -27.8554  -17.0255 N   0  0  0  0  0  0  0  0  0  0  0  0
   22.6178  -26.4057  -17.2753 C   0  0  0  0  0  0  0  0  0  0  0  0
   23.9289  -25.7955  -16.9223 C   0  0  0  0  0  0  0  0  0  0  0  0
   23.9595  -24.9450  -15.7055 C   0  0  0  0  0  0  0  0  0  0  0  0
   23.5871  -23.5256  -15.9502 C   0  0  2  0  0  0  0  0  0  0  0  0
   24.7029  -22.6005  -15.8288 N   0  0  0  0  0  0  0  0  0  0  0  0
   22.5682  -23.0379  -14.9721 C   0  0  0  0  0  0  0  0  0  0  0  0
   22.9951  -22.5483  -13.9005 O   0  0  0  0  0  0  0  0  0  0  0  0
   22.7251  -30.4991  -17.1713 O   0  0  0  0  0  0  0  0  0  0  0  0
   23.1959  -17.1778  -16.0265 C   0  0  0  0  0  0  0  0  0  0  0  0
   22.3176  -18.1914  -15.6762 C   0  0  0  0  0  0  0  0  0  0  0  0
   21.6977  -18.9480  -16.6475 C   0  0  0  0  0  0  0  0  0  0  0  0
   20.8155  -19.9648  -16.2587 C   0  0  0  0  0  0  0  0  0  0  0  0
   20.5636  -20.2139  -14.9309 C   0  0  0  0  0  0  0  0  0  0  0  0
   19.6491  -21.2682  -14.5179 C   0  0  2  0  0  0  0  0  0  0  0  0
   20.2816  -22.5799  -14.1986 N   0  0  0  0  0  0  0  0  0  0  0  0
   21.1725  -23.0929  -15.1756 C   0  0  0  0  0  0  0  0  0  0  0  0
   19.1796  -23.5518  -13.8919 O   0  0  0  0  0  0  0  0  0  0  0  0
   18.6843  -24.1929  -14.8402 C   0  0  0  0  0  0  0  0  0  0  0  0
   21.1990  -19.4403  -13.9914 C   0  0  0  0  0  0  0  0  0  0  0  0
   22.0800  -18.4238  -14.3473 C   0  0  0  0  0  0  0  0  0  0  0  0
   18.8824  -27.5685  -12.5244 C   0  0  2  0  0  0  0  0  0  0  0  0
   19.0768  -26.6401  -11.3879 C   0  0  0  0  0  0  0  0  0  0  0  0
   19.2347  -27.3936  -10.0615 C   0  0  0  0  0  0  0  0  0  0  0  0
   18.0710  -25.5923  -11.1899 C   0  0  2  0  0  0  0  0  0  0  0  0
   17.6159  -24.7713  -12.3251 N   0  0  0  0  0  0  0  0  0  0  0  0
   18.6976  -23.7563  -12.5862 C   0  0  0  0  0  0  0  0  0  0  0  0
   16.4042  -23.9734  -12.2283 O   0  0  0  0  0  0  0  0  0  0  0  0
   15.1081  -24.5272  -12.2922 O   0  0  0  0  0  0  0  0  0  0  0  0
  2  3  2  0
  2  1  1  0
  4  2  1  0
  5  4  1  0
  6  5  1  0
  7  6  1  0
  8 10  1  0
  8  7  1  0
  8  9  1  1
 10 11  2  0
 13 14  2  0
 13 12  1  0
 15 14  1  0
 16 15  2  0
 17 16  1  0
 18 17  1  1
 18 20  1  0
 19 10  1  0
 19 18  1  0
 20 29  1  0
 20 21  2  0
 22 16  1  0
 22 23  2  0
 23 13  1  0
 25 24  1  6
 25 27  1  0
 26 25  1  0
 28 27  1  6
 28 30  1  0
 29 28  1  0
 30 32  2  0
 30 31  1  0
M  END
$$$$
