RYL.pdb
     RDKit          3D

 32 32  0  0  1  0  0  0  0  0999 V2000
   17.4701  -36.4978   -9.2796 N   0  0  0  0  0  0  0  0  0  0  0  0
   16.8332  -37.0577   -8.1281 C   0  0  0  0  0  0  0  0  0  0  0  0
   16.5968  -38.3100   -8.1065 N   0  0  0  0  0  0  0  0  0  0  0  0
   16.4642  -36.2419   -7.0162 N   0  0  0  0  0  0  0  0  0  0  0  0
   16.7119  -34.7856   -7.0419 C   0  0  0  0  0  0  0  0  0  0  0  0
   17.8083  -34.5308   -6.0677 C   0  0  0  0  0  0  0  0  0  0  0  0
   18.2221  -33.1160   -5.8888 C   0  0  0  0  0  0  0  0  0  0  0  0
   19.0534  -32.5836   -7.0018 C   0  0  2  0  0  0  0  0  0  0  0  0
   20.4593  -32.9431   -6.9035 N   0  0  0  0  0  0  0  0  0  0  0  0
   19.0352  -31.0902   -7.0489 C   0  0  0  0  0  0  0  0  0  0  0  0
   19.9123  -30.4883   -6.3867 O   0  0  0  0  0  0  0  0  0  0  0  0
   16.1282  -38.8455   -7.3582 O   0  0  0  0  0  0  0  0  0  0  0  0
   18.0162  -22.6120   -8.9177 C   0  0  0  0  0  0  0  0  0  0  0  0
   17.9191  -23.9946   -8.9407 C   0  0  0  0  0  0  0  0  0  0  0  0
   16.6866  -24.6110   -8.9053 C   0  0  0  0  0  0  0  0  0  0  0  0
   16.6244  -26.0106   -8.9300 C   0  0  0  0  0  0  0  0  0  0  0  0
   17.7688  -26.7691   -8.9886 C   0  0  0  0  0  0  0  0  0  0  0  0
   17.7136  -28.2233   -9.0150 C   0  0  1  0  0  0  0  0  0  0  0  0
   18.1702  -28.9070   -7.7714 N   0  0  0  0  0  0  0  0  0  0  0  0
   18.1044  -30.3237   -7.7826 C   0  0  0  0  0  0  0  0  0  0  0  0
   17.3943  -28.3276   -6.6245 O   0  0  0  0  0  0  0  0  0  0  0  0
   16.2420  -28.7592   -6.4204 C   0  0  0  0  0  0  0  0  0  0  0  0
   18.9786  -26.1208   -9.0225 C   0  0  0  0  0  0  0  0  0  0  0  0
   19.0716  -24.7326   -8.9993 C   0  0  0  0  0  0  0  0  0  0  0  0
   17.5824  -28.9703   -2.4814 C   0  0  1  0  0  0  0  0  0  0  0  0
   18.5467  -27.9165   -2.8697 C   0  0  0  0  0  0  0  0  0  0  0  0
   19.4304  -27.4945   -1.6894 C   0  0  0  0  0  0  0  0  0  0  0  0
   18.0083  -26.6987   -3.4829 C   0  0  2  0  0  0  0  0  0  0  0  0
   17.1056  -26.7847   -4.6437 N   0  0  0  0  0  0  0  0  0  0  0  0
   17.9217  -27.3275   -5.7873 C   0  0  0  0  0  0  0  0  0  0  0  0
   16.4845  -25.5906   -5.1939 O   0  0  0  0  0  0  0  0  0  0  0  0
   17.0587  -24.8321   -6.2358 O   0  0  0  0  0  0  0  0  0  0  0  0
  2  3  2  0
  2  1  1  0
  4  2  1  0
  5  4  1  0
  6  5  1  0
  7  6  1  0
  8 10  1  0
  8  7  1  0
  8  9  1  1
 10 11  2  0
 13 14  2  0
 13 12  1  0
 15 14  1  0
 16 15  2  0
 17 16  1  0
 18 17  1  6
 18 20  1  0
 19 10  1  0
 19 18  1  0
 20 29  1  0
 20 21  2  0
 22 16  1  0
 22 23  2  0
 23 13  1  0
 25 24  1  6
 25 27  1  0
 26 25  1  0
 28 27  1  1
 28 30  1  0
 29 28  1  0
 30 32  2  0
 30 31  1  0
M  END
$$$$
