RYL.pdb
     RDKit          3D

 32 32  0  0  1  0  0  0  0  0999 V2000
   23.4220  -20.5487  -21.3953 N   0  0  0  0  0  0  0  0  0  0  0  0
   23.2119  -21.1978  -20.1386 C   0  0  0  0  0  0  0  0  0  0  0  0
   22.2469  -22.0232  -20.0287 N   0  0  0  0  0  0  0  0  0  0  0  0
   24.0594  -20.9367  -19.0198 N   0  0  0  0  0  0  0  0  0  0  0  0
   25.1938  -19.9984  -19.1434 C   0  0  0  0  0  0  0  0  0  0  0  0
   26.4295  -20.8131  -18.9834 C   0  0  0  0  0  0  0  0  0  0  0  0
   27.2712  -20.5167  -17.7965 C   0  0  0  0  0  0  0  0  0  0  0  0
   27.5599  -21.7041  -16.9480 C   0  0  2  0  0  0  0  0  0  0  0  0
   27.1925  -22.9675  -17.5681 N   0  0  0  0  0  0  0  0  0  0  0  0
   26.8042  -21.6680  -15.6595 C   0  0  0  0  0  0  0  0  0  0  0  0
   25.7639  -22.3630  -15.5890 O   0  0  0  0  0  0  0  0  0  0  0  0
   22.0011  -22.5922  -19.2027 O   0  0  0  0  0  0  0  0  0  0  0  0
   24.1517  -20.7450   -7.3318 C   0  0  0  0  0  0  0  0  0  0  0  0
   24.8637  -20.6759   -8.5192 C   0  0  0  0  0  0  0  0  0  0  0  0
   24.2358  -20.3175   -9.6928 C   0  0  0  0  0  0  0  0  0  0  0  0
   24.9852  -20.2575  -10.8752 C   0  0  0  0  0  0  0  0  0  0  0  0
   26.3280  -20.5497  -10.8778 C   0  0  0  0  0  0  0  0  0  0  0  0
   27.1143  -20.4896  -12.1011 C   0  0  1  0  0  0  0  0  0  0  0  0
   26.4288  -20.9793  -13.3310 N   0  0  0  0  0  0  0  0  0  0  0  0
   27.1827  -20.9101  -14.5303 C   0  0  0  0  0  0  0  0  0  0  0  0
   25.1299  -20.2368  -13.4522 O   0  0  0  0  0  0  0  0  0  0  0  0
   25.1709  -19.0382  -13.7946 C   0  0  0  0  0  0  0  0  0  0  0  0
   26.9197  -20.9028   -9.6902 C   0  0  0  0  0  0  0  0  0  0  0  0
   26.2013  -20.9709   -8.5005 C   0  0  0  0  0  0  0  0  0  0  0  0
   20.4210  -20.1718  -16.4390 C   0  0  1  0  0  0  0  0  0  0  0  0
   21.1279  -19.4359  -15.3666 C   0  0  0  0  0  0  0  0  0  0  0  0
   21.4364  -17.9913  -15.7794 C   0  0  0  0  0  0  0  0  0  0  0  0
   22.3637  -20.0247  -14.8425 C   0  0  2  0  0  0  0  0  0  0  0  0
   22.6085  -20.0751  -13.3908 N   0  0  0  0  0  0  0  0  0  0  0  0
   23.8879  -20.8452  -13.1942 C   0  0  0  0  0  0  0  0  0  0  0  0
   21.6656  -20.7310  -12.4991 O   0  0  0  0  0  0  0  0  0  0  0  0
   20.5777  -20.0625  -11.8990 O   0  0  0  0  0  0  0  0  0  0  0  0
  2  3  2  0
  2  1  1  0
  4  2  1  0
  5  4  1  0
  6  5  1  0
  7  6  1  0
  8 10  1  0
  8  7  1  0
  8  9  1  6
 10 11  2  0
 13 14  2  0
 13 12  1  0
 15 14  1  0
 16 15  2  0
 17 16  1  0
 18 17  1  1
 18 20  1  0
 19 10  1  0
 19 18  1  0
 20 29  1  0
 20 21  2  0
 22 16  1  0
 22 23  2  0
 23 13  1  0
 25 24  1  1
 25 27  1  0
 26 25  1  0
 28 27  1  6
 28 30  1  0
 29 28  1  0
 30 32  2  0
 30 31  1  0
M  END
$$$$
