RYL.pdb
     RDKit          3D

 32 32  0  0  1  0  0  0  0  0999 V2000
   28.7388  -25.6935  -15.9492 N   0  0  0  0  0  0  0  0  0  0  0  0
   30.0640  -25.2333  -16.2267 C   0  0  0  0  0  0  0  0  0  0  0  0
   31.0517  -25.8999  -15.7743 N   0  0  0  0  0  0  0  0  0  0  0  0
   30.2915  -24.0517  -16.9949 N   0  0  0  0  0  0  0  0  0  0  0  0
   29.1538  -23.2845  -17.5423 C   0  0  0  0  0  0  0  0  0  0  0  0
   29.3986  -21.8606  -17.1835 C   0  0  0  0  0  0  0  0  0  0  0  0
   28.5804  -21.3048  -16.0760 C   0  0  0  0  0  0  0  0  0  0  0  0
   27.1696  -21.0180  -16.4511 C   0  0  2  0  0  0  0  0  0  0  0  0
   27.0344  -19.9844  -17.4656 N   0  0  0  0  0  0  0  0  0  0  0  0
   26.3695  -20.5294  -15.2876 C   0  0  0  0  0  0  0  0  0  0  0  0
   26.3544  -19.2929  -15.0852 O   0  0  0  0  0  0  0  0  0  0  0  0
   32.0555  -25.6865  -15.8887 O   0  0  0  0  0  0  0  0  0  0  0  0
   20.9958  -17.7777  -17.4760 C   0  0  0  0  0  0  0  0  0  0  0  0
   21.5920  -18.5723  -16.5092 C   0  0  0  0  0  0  0  0  0  0  0  0
   22.1891  -19.7660  -16.8539 C   0  0  0  0  0  0  0  0  0  0  0  0
   22.7825  -20.5449  -15.8516 C   0  0  0  0  0  0  0  0  0  0  0  0
   22.7759  -20.1354  -14.5399 C   0  0  0  0  0  0  0  0  0  0  0  0
   23.3901  -20.9377  -13.4923 C   0  0  2  0  0  0  0  0  0  0  0  0
   24.8688  -20.8016  -13.3614 N   0  0  0  0  0  0  0  0  0  0  0  0
   25.6387  -21.3617  -14.4126 C   0  0  0  0  0  0  0  0  0  0  0  0
   25.2600  -21.3693  -12.0279 O   0  0  0  0  0  0  0  0  0  0  0  0
   25.2441  -22.6090  -11.8925 C   0  0  0  0  0  0  0  0  0  0  0  0
   22.1719  -18.9410  -14.2338 C   0  0  0  0  0  0  0  0  0  0  0  0
   21.5747  -18.1464  -15.2074 C   0  0  0  0  0  0  0  0  0  0  0  0
   28.8890  -21.4586   -9.6455 C   0  0  2  0  0  0  0  0  0  0  0  0
   28.1402  -20.2079   -9.3875 C   0  0  0  0  0  0  0  0  0  0  0  0
   28.9186  -19.2617   -8.4650 C   0  0  0  0  0  0  0  0  0  0  0  0
   26.7794  -20.3307   -8.8566 C   0  0  2  0  0  0  0  0  0  0  0  0
   25.7735  -21.1417   -9.5638 N   0  0  0  0  0  0  0  0  0  0  0  0
   25.6376  -20.5553  -10.9445 C   0  0  0  0  0  0  0  0  0  0  0  0
   24.4043  -21.2173   -9.0803 O   0  0  0  0  0  0  0  0  0  0  0  0
   23.3648  -20.4017   -9.5750 O   0  0  0  0  0  0  0  0  0  0  0  0
  2  3  2  0
  2  1  1  0
  4  2  1  0
  5  4  1  0
  6  5  1  0
  7  6  1  0
  8 10  1  0
  8  7  1  0
  8  9  1  6
 10 11  2  0
 13 14  2  0
 13 12  1  0
 15 14  1  0
 16 15  2  0
 17 16  1  0
 18 17  1  6
 18 20  1  0
 19 10  1  0
 19 18  1  0
 20 29  1  0
 20 21  2  0
 22 16  1  0
 22 23  2  0
 23 13  1  0
 25 24  1  6
 25 27  1  0
 26 25  1  0
 28 27  1  6
 28 30  1  0
 29 28  1  0
 30 32  2  0
 30 31  1  0
M  END
$$$$
