RYL.pdb
     RDKit          3D

 32 32  0  0  1  0  0  0  0  0999 V2000
   30.1084  -24.7869  -16.6763 N   0  0  0  0  0  0  0  0  0  0  0  0
   28.7275  -24.6650  -17.0274 C   0  0  0  0  0  0  0  0  0  0  0  0
   27.9508  -25.6524  -16.8124 N   0  0  0  0  0  0  0  0  0  0  0  0
   28.2145  -23.4659  -17.6080 N   0  0  0  0  0  0  0  0  0  0  0  0
   29.1211  -22.3470  -17.9380 C   0  0  0  0  0  0  0  0  0  0  0  0
   29.2933  -21.5645  -16.6834 C   0  0  0  0  0  0  0  0  0  0  0  0
   28.8325  -20.1531  -16.7125 C   0  0  0  0  0  0  0  0  0  0  0  0
   27.5164  -19.9601  -17.3787 C   0  0  2  0  0  0  0  0  0  0  0  0
   27.4777  -18.8130  -18.2723 N   0  0  0  0  0  0  0  0  0  0  0  0
   26.4194  -19.7232  -16.3924 C   0  0  0  0  0  0  0  0  0  0  0  0
   26.4525  -18.6477  -15.7503 O   0  0  0  0  0  0  0  0  0  0  0  0
   26.9250  -25.6783  -16.9282 O   0  0  0  0  0  0  0  0  0  0  0  0
   19.1839  -19.3345  -11.5668 C   0  0  0  0  0  0  0  0  0  0  0  0
   20.1269  -19.7174  -12.5079 C   0  0  0  0  0  0  0  0  0  0  0  0
   20.5422  -21.0292  -12.5901 C   0  0  0  0  0  0  0  0  0  0  0  0
   21.4970  -21.3821  -13.5530 C   0  0  0  0  0  0  0  0  0  0  0  0
   22.0196  -20.4428  -14.4091 C   0  0  0  0  0  0  0  0  0  0  0  0
   23.0114  -20.8003  -15.4126 C   0  0  2  0  0  0  0  0  0  0  0  0
   24.4026  -20.3432  -15.1335 N   0  0  0  0  0  0  0  0  0  0  0  0
   25.3611  -20.6227  -16.1407 C   0  0  0  0  0  0  0  0  0  0  0  0
   24.8112  -20.9175  -13.8082 O   0  0  0  0  0  0  0  0  0  0  0  0
   24.9427  -22.1549  -13.7224 C   0  0  0  0  0  0  0  0  0  0  0  0
   21.5824  -19.1460  -14.2981 C   0  0  0  0  0  0  0  0  0  0  0  0
   20.6356  -18.7659  -13.3520 C   0  0  0  0  0  0  0  0  0  0  0  0
   28.3230  -21.9778  -11.3374 C   0  0  1  0  0  0  0  0  0  0  0  0
   27.9943  -20.5428  -11.4919 C   0  0  0  0  0  0  0  0  0  0  0  0
   29.0909  -19.6443  -10.9066 C   0  0  0  0  0  0  0  0  0  0  0  0
   26.7081  -20.0817  -10.9613 C   0  0  2  0  0  0  0  0  0  0  0  0
   25.4543  -20.7377  -11.3707 N   0  0  0  0  0  0  0  0  0  0  0  0
   25.0458  -20.1124  -12.6787 C   0  0  0  0  0  0  0  0  0  0  0  0
   24.2593  -20.6388  -10.5482 O   0  0  0  0  0  0  0  0  0  0  0  0
   23.9362  -21.5723   -9.5408 O   0  0  0  0  0  0  0  0  0  0  0  0
  2  3  2  0
  2  1  1  0
  4  2  1  0
  5  4  1  0
  6  5  1  0
  7  6  1  0
  8 10  1  0
  8  7  1  0
  8  9  1  6
 10 11  2  0
 13 14  2  0
 13 12  1  0
 15 14  1  0
 16 15  2  0
 17 16  1  0
 18 17  1  6
 18 20  1  0
 19 10  1  0
 19 18  1  0
 20 29  1  0
 20 21  2  0
 22 16  1  0
 22 23  2  0
 23 13  1  0
 25 24  1  6
 25 27  1  0
 26 25  1  0
 28 27  1  6
 28 30  1  0
 29 28  1  0
 30 32  2  0
 30 31  1  0
M  END
$$$$
