RYL.pdb
     RDKit          3D

 32 32  0  0  1  0  0  0  0  0999 V2000
   31.9984  -23.9152  -16.3025 N   0  0  0  0  0  0  0  0  0  0  0  0
   30.8727  -24.7780  -16.1195 C   0  0  0  0  0  0  0  0  0  0  0  0
   31.0758  -25.9808  -15.7501 N   0  0  0  0  0  0  0  0  0  0  0  0
   29.5409  -24.3144  -16.3422 N   0  0  0  0  0  0  0  0  0  0  0  0
   29.2815  -22.8854  -16.6128 C   0  0  0  0  0  0  0  0  0  0  0  0
   29.0341  -22.2477  -15.2906 C   0  0  0  0  0  0  0  0  0  0  0  0
   27.7613  -22.5993  -14.6115 C   0  0  0  0  0  0  0  0  0  0  0  0
   26.7109  -21.5508  -14.7147 C   0  0  2  0  0  0  0  0  0  0  0  0
   27.0908  -20.4250  -15.5537 N   0  0  0  0  0  0  0  0  0  0  0  0
   26.3843  -20.9532  -13.3847 C   0  0  0  0  0  0  0  0  0  0  0  0
   26.8059  -19.7945  -13.1614 O   0  0  0  0  0  0  0  0  0  0  0  0
   30.3659  -26.7100  -15.5752 O   0  0  0  0  0  0  0  0  0  0  0  0
   20.0664  -19.4446  -14.9025 C   0  0  0  0  0  0  0  0  0  0  0  0
   20.9643  -19.8263  -13.9178 C   0  0  0  0  0  0  0  0  0  0  0  0
   21.4459  -18.9043  -13.0132 C   0  0  0  0  0  0  0  0  0  0  0  0
   22.3523  -19.3239  -12.0305 C   0  0  0  0  0  0  0  0  0  0  0  0
   22.7631  -20.6333  -11.9592 C   0  0  0  0  0  0  0  0  0  0  0  0
   23.7039  -21.0781  -10.9416 C   0  0  2  0  0  0  0  0  0  0  0  0
   25.1449  -20.8742  -11.2648 N   0  0  0  0  0  0  0  0  0  0  0  0
   25.6404  -21.6027  -12.3762 C   0  0  0  0  0  0  0  0  0  0  0  0
   25.9336  -21.1618  -10.0204 O   0  0  0  0  0  0  0  0  0  0  0  0
   26.3263  -22.3308   -9.8338 C   0  0  0  0  0  0  0  0  0  0  0  0
   22.2625  -21.5236  -12.8767 C   0  0  0  0  0  0  0  0  0  0  0  0
   21.3613  -21.1362  -13.8636 C   0  0  0  0  0  0  0  0  0  0  0  0
   27.9631  -20.3980   -5.0207 C   0  0  1  0  0  0  0  0  0  0  0  0
   28.4275  -19.4606   -6.0680 C   0  0  0  0  0  0  0  0  0  0  0  0
   28.5735  -18.0332   -5.5263 C   0  0  0  0  0  0  0  0  0  0  0  0
   27.6486  -19.3907   -7.3079 C   0  0  1  0  0  0  0  0  0  0  0  0
   26.8344  -20.5387   -7.7427 N   0  0  0  0  0  0  0  0  0  0  0  0
   26.2370  -20.1659   -9.0742 C   0  0  0  0  0  0  0  0  0  0  0  0
   25.6923  -20.9808   -6.9591 O   0  0  0  0  0  0  0  0  0  0  0  0
   25.7502  -22.0588   -6.0506 O   0  0  0  0  0  0  0  0  0  0  0  0
  2  3  2  0
  2  1  1  0
  4  2  1  0
  5  4  1  0
  6  5  1  0
  7  6  1  0
  8 10  1  0
  8  7  1  0
  8  9  1  6
 10 11  2  0
 13 14  2  0
 13 12  1  0
 15 14  1  0
 16 15  2  0
 17 16  1  0
 18 17  1  6
 18 20  1  0
 19 10  1  0
 19 18  1  0
 20 29  1  0
 20 21  2  0
 22 16  1  0
 22 23  2  0
 23 13  1  0
 25 24  1  1
 25 27  1  0
 26 25  1  0
 28 27  1  6
 28 30  1  0
 29 28  1  0
 30 32  2  0
 30 31  1  0
M  END
$$$$
