RYL.pdb
     RDKit          3D

 32 32  0  0  1  0  0  0  0  0999 V2000
   32.6336  -25.1514  -16.7422 N   0  0  0  0  0  0  0  0  0  0  0  0
   31.3443  -24.6558  -16.3718 C   0  0  0  0  0  0  0  0  0  0  0  0
   31.1720  -24.2213  -15.1860 N   0  0  0  0  0  0  0  0  0  0  0  0
   30.2616  -24.6415  -17.3022 N   0  0  0  0  0  0  0  0  0  0  0  0
   28.9992  -23.9493  -16.9706 C   0  0  0  0  0  0  0  0  0  0  0  0
   29.2075  -22.5148  -17.3096 C   0  0  0  0  0  0  0  0  0  0  0  0
   28.8062  -21.5239  -16.2790 C   0  0  0  0  0  0  0  0  0  0  0  0
   27.3489  -21.2253  -16.2620 C   0  0  2  0  0  0  0  0  0  0  0  0
   26.9046  -20.4230  -17.3910 N   0  0  0  0  0  0  0  0  0  0  0  0
   26.9514  -20.4468  -15.0501 C   0  0  0  0  0  0  0  0  0  0  0  0
   27.4793  -19.3207  -14.8974 O   0  0  0  0  0  0  0  0  0  0  0  0
   30.3456  -23.7254  -14.8153 O   0  0  0  0  0  0  0  0  0  0  0  0
   20.4049  -23.5760  -13.9360 C   0  0  0  0  0  0  0  0  0  0  0  0
   21.3479  -22.5938  -13.6759 C   0  0  0  0  0  0  0  0  0  0  0  0
   21.5180  -22.1068  -12.3975 C   0  0  0  0  0  0  0  0  0  0  0  0
   22.4801  -21.1140  -12.1696 C   0  0  0  0  0  0  0  0  0  0  0  0
   23.2495  -20.6246  -13.1976 C   0  0  0  0  0  0  0  0  0  0  0  0
   24.2514  -19.5937  -12.9700 C   0  0  1  0  0  0  0  0  0  0  0  0
   25.6681  -20.0576  -12.9914 N   0  0  0  0  0  0  0  0  0  0  0  0
   26.0304  -20.8937  -14.0782 C   0  0  0  0  0  0  0  0  0  0  0  0
   25.9499  -20.7148  -11.6716 O   0  0  0  0  0  0  0  0  0  0  0  0
   26.0446  -21.9581  -11.6456 C   0  0  0  0  0  0  0  0  0  0  0  0
   23.0524  -21.1332  -14.4576 C   0  0  0  0  0  0  0  0  0  0  0  0
   22.1047  -22.1191  -14.7143 C   0  0  0  0  0  0  0  0  0  0  0  0
   27.3339  -19.1706   -5.8826 C   0  0  1  0  0  0  0  0  0  0  0  0
   27.4781  -20.1771   -6.9585 C   0  0  0  0  0  0  0  0  0  0  0  0
   28.9037  -20.7394   -7.0208 C   0  0  0  0  0  0  0  0  0  0  0  0
   27.0957  -19.7768   -8.3158 C   0  0  2  0  0  0  0  0  0  0  0  0
   26.3185  -20.6899   -9.1714 N   0  0  0  0  0  0  0  0  0  0  0  0
   26.1073  -19.9794  -10.4826 C   0  0  0  0  0  0  0  0  0  0  0  0
   24.9827  -21.1154   -8.7857 O   0  0  0  0  0  0  0  0  0  0  0  0
   23.8113  -20.4387   -9.1863 O   0  0  0  0  0  0  0  0  0  0  0  0
  2  3  2  0
  2  1  1  0
  4  2  1  0
  5  4  1  0
  6  5  1  0
  7  6  1  0
  8 10  1  0
  8  7  1  0
  8  9  1  6
 10 11  2  0
 13 14  2  0
 13 12  1  0
 15 14  1  0
 16 15  2  0
 17 16  1  0
 18 17  1  6
 18 20  1  0
 19 10  1  0
 19 18  1  0
 20 29  1  0
 20 21  2  0
 22 16  1  0
 22 23  2  0
 23 13  1  0
 25 24  1  1
 25 27  1  0
 26 25  1  0
 28 27  1  6
 28 30  1  0
 29 28  1  0
 30 32  2  0
 30 31  1  0
M  END
$$$$
