RYL.pdb
     RDKit          3D

 32 32  0  0  1  0  0  0  0  0999 V2000
   25.6159  -18.7308  -18.3442 N   0  0  0  0  0  0  0  0  0  0  0  0
   26.4277  -19.8955  -18.1729 C   0  0  0  0  0  0  0  0  0  0  0  0
   26.0697  -20.9807  -18.7374 N   0  0  0  0  0  0  0  0  0  0  0  0
   27.6196  -19.8581  -17.3880 N   0  0  0  0  0  0  0  0  0  0  0  0
   28.0371  -18.6080  -16.7206 C   0  0  0  0  0  0  0  0  0  0  0  0
   28.5068  -18.9958  -15.3623 C   0  0  0  0  0  0  0  0  0  0  0  0
   27.4578  -19.3519  -14.3735 C   0  0  0  0  0  0  0  0  0  0  0  0
   27.8027  -20.5207  -13.5201 C   0  0  2  0  0  0  0  0  0  0  0  0
   28.0312  -21.7446  -14.2719 N   0  0  0  0  0  0  0  0  0  0  0  0
   26.7091  -20.8527  -12.5576 C   0  0  0  0  0  0  0  0  0  0  0  0
   26.0356  -21.8829  -12.7932 O   0  0  0  0  0  0  0  0  0  0  0  0
   26.5270  -21.9038  -18.6658 O   0  0  0  0  0  0  0  0  0  0  0  0
   29.1249  -20.6023   -5.6842 C   0  0  0  0  0  0  0  0  0  0  0  0
   28.1021  -20.3675   -6.5899 C   0  0  0  0  0  0  0  0  0  0  0  0
   26.8295  -20.8386   -6.3472 C   0  0  0  0  0  0  0  0  0  0  0  0
   25.8190  -20.5835   -7.2837 C   0  0  0  0  0  0  0  0  0  0  0  0
   26.0803  -19.8748   -8.4317 C   0  0  0  0  0  0  0  0  0  0  0  0
   25.0367  -19.6048   -9.4098 C   0  0  2  0  0  0  0  0  0  0  0  0
   25.1776  -20.3143  -10.7133 N   0  0  0  0  0  0  0  0  0  0  0  0
   26.3900  -20.0893  -11.4140 C   0  0  0  0  0  0  0  0  0  0  0  0
   23.9826  -19.9642  -11.5515 O   0  0  0  0  0  0  0  0  0  0  0  0
   24.1557  -19.2133  -12.5322 C   0  0  0  0  0  0  0  0  0  0  0  0
   27.3593  -19.4213   -8.6399 C   0  0  0  0  0  0  0  0  0  0  0  0
   28.3831  -19.6591   -7.7282 C   0  0  0  0  0  0  0  0  0  0  0  0
   21.2025  -21.3280  -15.4209 C   0  0  1  0  0  0  0  0  0  0  0  0
   21.5482  -22.3042  -14.3632 C   0  0  0  0  0  0  0  0  0  0  0  0
   20.3103  -23.0581  -13.8617 C   0  0  0  0  0  0  0  0  0  0  0  0
   22.2725  -21.8043  -13.1909 C   0  0  1  0  0  0  0  0  0  0  0  0
   21.7141  -20.7080  -12.3809 N   0  0  0  0  0  0  0  0  0  0  0  0
   22.6940  -20.4511  -11.2662 C   0  0  0  0  0  0  0  0  0  0  0  0
   20.4400  -20.8617  -11.6973 O   0  0  0  0  0  0  0  0  0  0  0  0
   20.3039  -21.5212  -10.4575 O   0  0  0  0  0  0  0  0  0  0  0  0
  2  3  2  0
  2  1  1  0
  4  2  1  0
  5  4  1  0
  6  5  1  0
  7  6  1  0
  8 10  1  0
  8  7  1  0
  8  9  1  6
 10 11  2  0
 13 14  2  0
 13 12  1  0
 15 14  1  0
 16 15  2  0
 17 16  1  0
 18 17  1  1
 18 20  1  0
 19 10  1  0
 19 18  1  0
 20 29  1  0
 20 21  2  0
 22 16  1  0
 22 23  2  0
 23 13  1  0
 25 24  1  6
 25 27  1  0
 26 25  1  0
 28 27  1  6
 28 30  1  0
 29 28  1  0
 30 32  2  0
 30 31  1  0
M  END
$$$$
